8u8a
 OpenBabel10242410253D

 39 43  0  0  0  0  0  0  0  0999 V2000
  190.4900  175.3290  142.9810 O   0  0  0  0  0  0  0  0  0  0  0  0
  190.2550  177.3560  141.9960 N   0  0  0  0  0  2  0  0  0  0  0  0
  190.0650  176.4840  142.9970 C   0  0  0  0  0  0  0  0  0  0  0  0
  187.0910  177.8090  144.9030 C   0  0  0  0  0  0  0  0  0  0  0  0
  187.5560  177.8650  146.2790 C   0  0  0  0  0  0  0  0  0  0  0  0
  188.8990  177.4560  146.5650 C   0  0  0  0  0  3  0  0  0  0  0  0
  189.7540  176.9920  145.5240 C   0  0  0  0  0  3  0  0  0  0  0  0
  189.2650  176.9350  144.1700 C   0  0  0  0  0  0  0  0  0  0  0  0
  187.9480  177.3530  143.8870 C   0  0  0  0  0  3  0  0  0  0  0  0
  186.6660  178.3600  147.4140 C   0  0  0  0  0  1  0  0  0  0  0  0
  185.7460  178.1850  144.5070 C   0  0  0  0  0  0  0  0  0  0  0  0
  184.6420  178.4330  144.0690 C   0  0  0  0  0  0  0  0  0  0  0  0
  182.2450  178.7940  144.0890 C   0  0  0  0  0  3  0  0  0  0  0  0
  181.2350  178.9970  143.1820 N   0  0  0  0  0  0  0  0  0  0  0  0
  183.4200  178.6830  143.4500 C   0  0  0  0  0  0  0  0  0  0  0  0
  181.3270  179.1470  140.6770 C   0  0  0  0  0  3  0  0  0  0  0  0
  184.1290  178.7080  141.1350 N   0  0  0  0  0  0  0  0  0  0  0  0
  182.2250  179.0870  139.6380 C   0  0  0  0  0  3  0  0  0  0  0  0
  183.1920  178.7780  142.1220 N   0  0  0  0  0  0  0  0  0  0  0  0
  183.5950  178.8680  139.9280 C   0  0  0  0  0  3  0  0  0  0  0  0
  181.8100  178.9930  142.0050 C   0  0  0  0  0  0  0  0  0  0  0  0
  190.9760  177.1140  140.8000 C   0  0  0  0  0  0  0  0  0  0  0  0
  192.3450  177.4600  140.7500 C   0  0  0  0  0  3  0  0  0  0  0  0
  193.1040  177.2230  139.5600 C   0  0  0  0  0  3  0  0  0  0  0  0
  192.5050  176.6280  138.3860 C   0  0  0  0  0  0  0  0  0  0  0  0
  191.0890  176.2770  138.4420 C   0  0  0  0  0  0  0  0  0  0  0  0
  190.3730  176.5300  139.6400 C   0  0  0  0  0  3  0  0  0  0  0  0
  190.2890  175.6360  137.3050 C   0  0  0  0  0  0  0  0  0  0  0  0
  189.0260  175.5420  137.6380 F   0  0  0  0  0  0  0  0  0  0  0  0
  190.3450  176.3400  136.1870 F   0  0  0  0  0  0  0  0  0  0  0  0
  190.7680  174.4260  137.0320 F   0  0  0  0  0  0  0  0  0  0  0  0
  193.4070  176.4110  137.1530 C   0  0  0  0  0  2  0  0  0  0  0  0
  194.4910  175.4510  137.3750 N   0  0  0  0  0  0  0  0  0  0  0  0
  196.1110  173.0460  137.0030 N   0  0  0  0  0  0  0  0  0  0  0  0
  193.9850  174.0880  137.6820 C   0  0  0  0  0  2  0  0  0  0  0  0
  195.1490  173.1740  138.1100 C   0  0  0  0  0  2  0  0  0  0  0  0
  196.5920  174.3840  136.5480 C   0  0  0  0  0  2  0  0  0  0  0  0
  195.4130  175.3520  136.2310 C   0  0  0  0  0  2  0  0  0  0  0  0
  197.1970  172.1490  137.3600 C   0  0  0  0  0  1  0  0  0  0  0  0
  1  3  2  0  0  0  0
  2  3  1  0  0  0  0
  3  8  1  0  0  0  0
  4  5  1  0  0  0  0
  5  6  2  0  0  0  0
  5 10  1  0  0  0  0
  7  6  1  0  0  0  0
  8  7  2  0  0  0  0
  9  8  1  0  0  0  0
  9  4  2  0  0  0  0
 11  4  1  0  0  0  0
 12 11  3  0  0  0  0
 14 13  1  0  0  0  0
 15 12  1  0  0  0  0
 15 13  2  0  0  0  0
 16 21  1  0  0  0  0
 17 19  1  0  0  0  0
 18 20  1  0  0  0  0
 18 16  2  0  0  0  0
 19 15  1  0  0  0  0
 20 17  2  0  0  0  0
 21 19  1  0  0  0  0
 21 14  2  0  0  0  0
 22  2  1  0  0  0  0
 23 22  1  0  0  0  0
 24 23  2  0  0  0  0
 25 26  2  0  0  0  0
 25 24  1  0  0  0  0
 26 27  1  0  0  0  0
 27 22  2  0  0  0  0
 28 29  1  0  0  0  0
 28 26  1  0  0  0  0
 30 28  1  0  0  0  0
 31 28  1  0  0  0  0
 32 33  1  0  0  0  0
 32 25  1  0  0  0  0
 33 35  1  0  0  0  0
 34 39  1  0  0  0  0
 34 36  1  0  0  0  0
 35 36  1  0  0  0  0
 37 34  1  0  0  0  0
 38 37  1  0  0  0  0
 38 33  1  0  0  0  0
M  END
>  <MODEL>
1

>  <REMARK>
 VINA RESULT:      -9.6      0.000      0.000
  Name = 8u8a
  8 active torsions:
  status: ('A' for Active; 'I' for Inactive)
    1  A    between atoms: C_4  and  C_6
    2  A    between atoms: N_5  and  C_18
    3  A    between atoms: C_6  and  C_8
    4  A    between atoms: N_7  and  C_25
    5  A    between atoms: C_8  and  C_10
    6  A    between atoms: C_14  and  C_17
    7  A    between atoms: C_21  and  C_25
    8  A    between atoms: C_22  and  C_24
                            x       y       z     vdW  Elec       q    Type
                         _______ _______ _______ _____ _____    ______ ____

>  <TORSDO>
F 8

$$$$
8u8a
 OpenBabel10242410253D

 39 43  0  0  0  0  0  0  0  0999 V2000
  182.0360  179.0100  140.4440 O   0  0  0  0  0  0  0  0  0  0  0  0
  183.1550  177.0480  140.2640 N   0  0  0  0  0  2  0  0  0  0  0  0
  182.8020  178.1680  140.9120 C   0  0  0  0  0  0  0  0  0  0  0  0
  185.4310  178.2020  143.6170 C   0  0  0  0  0  0  0  0  0  0  0  0
  184.7440  178.7740  144.7640 C   0  0  0  0  0  0  0  0  0  0  0  0
  183.3680  179.1460  144.6220 C   0  0  0  0  0  3  0  0  0  0  0  0
  182.6930  178.9710  143.3790 C   0  0  0  0  0  3  0  0  0  0  0  0
  183.4000  178.4130  142.2550 C   0  0  0  0  0  0  0  0  0  0  0  0
  184.7500  178.0320  142.3990 C   0  0  0  0  0  3  0  0  0  0  0  0
  185.4380  178.9700  146.1070 C   0  0  0  0  0  1  0  0  0  0  0  0
  186.8270  177.8050  143.6490 C   0  0  0  0  0  0  0  0  0  0  0  0
  187.9860  177.4800  143.8030 C   0  0  0  0  0  0  0  0  0  0  0  0
  190.1640  176.6090  143.1880 C   0  0  0  0  0  3  0  0  0  0  0  0
  191.3280  176.2380  143.8130 N   0  0  0  0  0  0  0  0  0  0  0  0
  189.2810  177.0590  144.0940 C   0  0  0  0  0  0  0  0  0  0  0  0
  191.9320  176.2780  146.2490 C   0  0  0  0  0  3  0  0  0  0  0  0
  189.2620  177.3070  146.5030 N   0  0  0  0  0  0  0  0  0  0  0  0
  191.4040  176.6140  147.4730 C   0  0  0  0  0  3  0  0  0  0  0  0
  189.8410  176.9580  145.3190 N   0  0  0  0  0  0  0  0  0  0  0  0
  190.0800  177.1170  147.5330 C   0  0  0  0  0  3  0  0  0  0  0  0
  191.1300  176.4550  145.0890 C   0  0  0  0  0  0  0  0  0  0  0  0
  182.7030  176.6450  138.9830 C   0  0  0  0  0  0  0  0  0  0  0  0
  181.4920  175.9230  138.8850 C   0  0  0  0  0  3  0  0  0  0  0  0
  181.0040  175.5060  137.6060 C   0  0  0  0  0  3  0  0  0  0  0  0
  181.7210  175.8060  136.3880 C   0  0  0  0  0  0  0  0  0  0  0  0
  182.9740  176.5470  136.4950 C   0  0  0  0  0  0  0  0  0  0  0  0
  183.4240  176.9410  137.7810 C   0  0  0  0  0  3  0  0  0  0  0  0
  183.8640  176.9600  135.3180 C   0  0  0  0  0  0  0  0  0  0  0  0
  184.9600  177.5270  135.7580 F   0  0  0  0  0  0  0  0  0  0  0  0
  184.2300  175.9290  134.5760 F   0  0  0  0  0  0  0  0  0  0  0  0
  183.2130  177.8040  134.5250 F   0  0  0  0  0  0  0  0  0  0  0  0
  181.1120  175.3150  135.0570 C   0  0  0  0  0  2  0  0  0  0  0  0
  181.2720  173.8770  134.8290 N   0  0  0  0  0  0  0  0  0  0  0  0
  181.5820  171.0420  135.4690 N   0  0  0  0  0  0  0  0  0  0  0  0
  182.4870  173.3330  135.4890 C   0  0  0  0  0  2  0  0  0  0  0  0
  182.7200  171.8740  135.0480 C   0  0  0  0  0  2  0  0  0  0  0  0
  180.2930  171.5820  134.9440 C   0  0  0  0  0  2  0  0  0  0  0  0
  180.1110  173.0920  135.2840 C   0  0  0  0  0  2  0  0  0  0  0  0
  181.7960  169.6500  135.1110 C   0  0  0  0  0  1  0  0  0  0  0  0
  1  3  2  0  0  0  0
  2  3  1  0  0  0  0
  3  8  1  0  0  0  0
  4 11  1  0  0  0  0
  4  5  1  0  0  0  0
  5 10  1  0  0  0  0
  6  5  2  0  0  0  0
  7  6  1  0  0  0  0
  8  9  1  0  0  0  0
  8  7  2  0  0  0  0
  9  4  2  0  0  0  0
 11 12  3  0  0  0  0
 12 15  1  0  0  0  0
 13 14  1  0  0  0  0
 13 15  2  0  0  0  0
 14 21  2  0  0  0  0
 15 19  1  0  0  0  0
 16 18  2  0  0  0  0
 17 20  2  0  0  0  0
 18 20  1  0  0  0  0
 19 17  1  0  0  0  0
 21 19  1  0  0  0  0
 21 16  1  0  0  0  0
 22  2  1  0  0  0  0
 23 22  1  0  0  0  0
 24 23  2  0  0  0  0
 25 26  2  0  0  0  0
 25 24  1  0  0  0  0
 26 27  1  0  0  0  0
 27 22  2  0  0  0  0
 28 29  1  0  0  0  0
 28 26  1  0  0  0  0
 30 28  1  0  0  0  0
 31 28  1  0  0  0  0
 32 25  1  0  0  0  0
 33 32  1  0  0  0  0
 33 38  1  0  0  0  0
 33 35  1  0  0  0  0
 36 34  1  0  0  0  0
 36 35  1  0  0  0  0
 37 38  1  0  0  0  0
 37 34  1  0  0  0  0
 39 34  1  0  0  0  0
M  END
>  <MODEL>
2

>  <REMARK>
 VINA RESULT:      -8.2      4.961      9.647
  Name = 8u8a
  8 active torsions:
  status: ('A' for Active; 'I' for Inactive)
    1  A    between atoms: C_4  and  C_6
    2  A    between atoms: N_5  and  C_18
    3  A    between atoms: C_6  and  C_8
    4  A    between atoms: N_7  and  C_25
    5  A    between atoms: C_8  and  C_10
    6  A    between atoms: C_14  and  C_17
    7  A    between atoms: C_21  and  C_25
    8  A    between atoms: C_22  and  C_24
                            x       y       z     vdW  Elec       q    Type
                         _______ _______ _______ _____ _____    ______ ____

>  <TORSDO>
F 8

$$$$
8u8a
 OpenBabel10242410253D

 39 43  0  0  0  0  0  0  0  0999 V2000
  188.2670  179.1490  138.1300 O   0  0  0  0  0  0  0  0  0  0  0  0
  188.3860  176.9290  138.5690 N   0  0  0  0  0  2  0  0  0  0  0  0
  187.8850  178.1590  138.7540 C   0  0  0  0  0  0  0  0  0  0  0  0
  186.3510  178.2060  142.2000 C   0  0  0  0  0  0  0  0  0  0  0  0
  184.9680  178.5860  141.9610 C   0  0  0  0  0  0  0  0  0  0  0  0
  184.5470  178.8230  140.6130 C   0  0  0  0  0  3  0  0  0  0  0  0
  185.4670  178.7000  139.5320 C   0  0  0  0  0  3  0  0  0  0  0  0
  186.8350  178.3330  139.7970 C   0  0  0  0  0  0  0  0  0  0  0  0
  187.2460  178.0850  141.1230 C   0  0  0  0  0  3  0  0  0  0  0  0
  183.9590  178.7220  143.0960 C   0  0  0  0  0  1  0  0  0  0  0  0
  186.8850  177.9580  143.5280 C   0  0  0  0  0  0  0  0  0  0  0  0
  187.4280  177.6920  144.5790 C   0  0  0  0  0  0  0  0  0  0  0  0
  187.7030  177.5390  146.9830 C   0  0  0  0  0  3  0  0  0  0  0  0
  188.6940  177.2280  147.8800 N   0  0  0  0  0  0  0  0  0  0  0  0
  188.1640  177.4150  145.7290 C   0  0  0  0  0  0  0  0  0  0  0  0
  191.0750  176.5400  147.4740 C   0  0  0  0  0  3  0  0  0  0  0  0
  190.2910  176.8380  144.7260 N   0  0  0  0  0  0  0  0  0  0  0  0
  191.9550  176.3040  146.4450 C   0  0  0  0  0  3  0  0  0  0  0  0
  189.4650  177.0570  145.7880 N   0  0  0  0  0  0  0  0  0  0  0  0
  191.5090  176.4680  145.1100 C   0  0  0  0  0  3  0  0  0  0  0  0
  189.7460  176.9350  147.1570 C   0  0  0  0  0  0  0  0  0  0  0  0
  189.3900  176.5660  137.6370 C   0  0  0  0  0  0  0  0  0  0  0  0
  189.0000  176.1820  136.3330 C   0  0  0  0  0  3  0  0  0  0  0  0
  189.9890  175.8150  135.3660 C   0  0  0  0  0  3  0  0  0  0  0  0
  191.3990  175.8270  135.6830 C   0  0  0  0  0  0  0  0  0  0  0  0
  191.7950  176.2180  137.0320 C   0  0  0  0  0  0  0  0  0  0  0  0
  190.7850  176.5730  137.9620 C   0  0  0  0  0  3  0  0  0  0  0  0
  193.2360  176.2950  137.5470 C   0  0  0  0  0  0  0  0  0  0  0  0
  193.6960  175.0920  137.7820 F   0  0  0  0  0  0  0  0  0  0  0  0
  194.0540  176.8610  136.6760 F   0  0  0  0  0  0  0  0  0  0  0  0
  193.2870  177.0170  138.6620 F   0  0  0  0  0  0  0  0  0  0  0  0
  192.3880  175.4170  134.5710 C   0  0  0  0  0  2  0  0  0  0  0  0
  192.7600  174.0000  134.6040 N   0  0  0  0  0  0  0  0  0  0  0  0
  193.8510  171.5010  135.6560 N   0  0  0  0  0  0  0  0  0  0  0  0
  194.2100  173.8040  134.8590 C   0  0  0  0  0  2  0  0  0  0  0  0
  194.5840  172.3200  134.6770 C   0  0  0  0  0  2  0  0  0  0  0  0
  192.3780  171.7210  135.5500 C   0  0  0  0  0  2  0  0  0  0  0  0
  192.0080  173.2340  135.6110 C   0  0  0  0  0  2  0  0  0  0  0  0
  194.2200  170.1000  135.5410 C   0  0  0  0  0  1  0  0  0  0  0  0
  1  3  2  0  0  0  0
  2  3  1  0  0  0  0
  3  8  1  0  0  0  0
  4 11  1  0  0  0  0
  5  4  1  0  0  0  0
  5 10  1  0  0  0  0
  6  5  2  0  0  0  0
  7  8  2  0  0  0  0
  7  6  1  0  0  0  0
  8  9  1  0  0  0  0
  9  4  2  0  0  0  0
 11 12  3  0  0  0  0
 12 15  1  0  0  0  0
 13 14  1  0  0  0  0
 15 19  1  0  0  0  0
 15 13  2  0  0  0  0
 17 20  2  0  0  0  0
 17 19  1  0  0  0  0
 18 16  2  0  0  0  0
 19 21  1  0  0  0  0
 20 18  1  0  0  0  0
 21 16  1  0  0  0  0
 21 14  2  0  0  0  0
 22 27  1  0  0  0  0
 22  2  1  0  0  0  0
 23 22  2  0  0  0  0
 24 25  2  0  0  0  0
 24 23  1  0  0  0  0
 25 26  1  0  0  0  0
 26 28  1  0  0  0  0
 26 27  2  0  0  0  0
 28 29  1  0  0  0  0
 28 31  1  0  0  0  0
 30 28  1  0  0  0  0
 32 33  1  0  0  0  0
 32 25  1  0  0  0  0
 33 35  1  0  0  0  0
 33 38  1  0  0  0  0
 36 35  1  0  0  0  0
 36 34  1  0  0  0  0
 37 38  1  0  0  0  0
 37 34  1  0  0  0  0
 39 34  1  0  0  0  0
M  END
>  <MODEL>
3

>  <REMARK>
 VINA RESULT:      -8.1      3.173      5.797
  Name = 8u8a
  8 active torsions:
  status: ('A' for Active; 'I' for Inactive)
    1  A    between atoms: C_4  and  C_6
    2  A    between atoms: N_5  and  C_18
    3  A    between atoms: C_6  and  C_8
    4  A    between atoms: N_7  and  C_25
    5  A    between atoms: C_8  and  C_10
    6  A    between atoms: C_14  and  C_17
    7  A    between atoms: C_21  and  C_25
    8  A    between atoms: C_22  and  C_24
                            x       y       z     vdW  Elec       q    Type
                         _______ _______ _______ _____ _____    ______ ____

>  <TORSDO>
F 8

$$$$
8u8a
 OpenBabel10242410253D

 39 43  0  0  0  0  0  0  0  0999 V2000
  187.3440  178.8520  137.6390 O   0  0  0  0  0  0  0  0  0  0  0  0
  188.0620  177.2870  139.1120 N   0  0  0  0  0  2  0  0  0  0  0  0
  187.1710  178.1800  138.6550 C   0  0  0  0  0  0  0  0  0  0  0  0
  184.9910  178.5800  141.7080 C   0  0  0  0  0  0  0  0  0  0  0  0
  183.6540  178.7470  141.1610 C   0  0  0  0  0  0  0  0  0  0  0  0
  183.4870  178.7160  139.7390 C   0  0  0  0  0  3  0  0  0  0  0  0
  184.6090  178.5380  138.8800 C   0  0  0  0  0  3  0  0  0  0  0  0
  185.9250  178.3860  139.4460 C   0  0  0  0  0  0  0  0  0  0  0  0
  186.0870  178.4020  140.8470 C   0  0  0  0  0  3  0  0  0  0  0  0
  182.4330  178.9360  142.0550 C   0  0  0  0  0  1  0  0  0  0  0  0
  185.2730  178.6110  143.1320 C   0  0  0  0  0  0  0  0  0  0  0  0
  185.5730  178.5280  144.3040 C   0  0  0  0  0  0  0  0  0  0  0  0
  185.2900  178.6220  146.7100 C   0  0  0  0  0  3  0  0  0  0  0  0
  186.0390  178.3870  147.8360 N   0  0  0  0  0  0  0  0  0  0  0  0
  186.0180  178.3580  145.6130 C   0  0  0  0  0  0  0  0  0  0  0  0
  188.4170  177.6110  148.0560 C   0  0  0  0  0  3  0  0  0  0  0  0
  188.2890  177.6360  145.1860 N   0  0  0  0  0  0  0  0  0  0  0  0
  189.4960  177.2510  147.2850 C   0  0  0  0  0  3  0  0  0  0  0  0
  187.2540  177.9820  146.0040 N   0  0  0  0  0  0  0  0  0  0  0  0
  189.3710  177.2840  145.8730 C   0  0  0  0  0  3  0  0  0  0  0  0
  187.2140  177.9980  147.4060 C   0  0  0  0  0  0  0  0  0  0  0  0
  189.3020  176.9590  138.5100 C   0  0  0  0  0  0  0  0  0  0  0  0
  190.4730  176.9930  139.3000 C   0  0  0  0  0  3  0  0  0  0  0  0
  191.7400  176.6610  138.7240 C   0  0  0  0  0  3  0  0  0  0  0  0
  191.8640  176.2810  137.3350 C   0  0  0  0  0  0  0  0  0  0  0  0
  190.6510  176.2530  136.5210 C   0  0  0  0  0  0  0  0  0  0  0  0
  189.4160  176.5900  137.1300 C   0  0  0  0  0  3  0  0  0  0  0  0
  190.5860  175.8710  135.0390 C   0  0  0  0  0  0  0  0  0  0  0  0
  190.8220  174.5910  134.8920 F   0  0  0  0  0  0  0  0  0  0  0  0
  189.4000  176.1120  134.5070 F   0  0  0  0  0  0  0  0  0  0  0  0
  191.4790  176.5710  134.3460 F   0  0  0  0  0  0  0  0  0  0  0  0
  193.2730  175.9390  136.8070 C   0  0  0  0  0  2  0  0  0  0  0  0
  193.7490  174.6130  137.2100 N   0  0  0  0  0  0  0  0  0  0  0  0
  195.4470  172.2350  137.2610 N   0  0  0  0  0  0  0  0  0  0  0  0
  193.8510  173.6770  136.0610 C   0  0  0  0  0  2  0  0  0  0  0  0
  194.1510  172.2510  136.5650 C   0  0  0  0  0  2  0  0  0  0  0  0
  195.4790  173.2350  138.3690 C   0  0  0  0  0  2  0  0  0  0  0  0
  195.0560  174.6550  137.8870 C   0  0  0  0  0  2  0  0  0  0  0  0
  195.7810  170.8920  137.7050 C   0  0  0  0  0  1  0  0  0  0  0  0
  1  3  2  0  0  0  0
  3  2  1  0  0  0  0
  3  8  1  0  0  0  0
  4 11  1  0  0  0  0
  5  4  1  0  0  0  0
  5 10  1  0  0  0  0
  6  5  2  0  0  0  0
  7  8  2  0  0  0  0
  7  6  1  0  0  0  0
  8  9  1  0  0  0  0
  9  4  2  0  0  0  0
 11 12  3  0  0  0  0
 12 15  1  0  0  0  0
 13 14  1  0  0  0  0
 15 19  1  0  0  0  0
 15 13  2  0  0  0  0
 17 20  2  0  0  0  0
 17 19  1  0  0  0  0
 18 16  2  0  0  0  0
 19 21  1  0  0  0  0
 20 18  1  0  0  0  0
 21 14  2  0  0  0  0
 21 16  1  0  0  0  0
 22  2  1  0  0  0  0
 22 23  1  0  0  0  0
 24 23  2  0  0  0  0
 25 24  1  0  0  0  0
 26 27  1  0  0  0  0
 26 25  2  0  0  0  0
 27 22  2  0  0  0  0
 28 26  1  0  0  0  0
 29 28  1  0  0  0  0
 30 28  1  0  0  0  0
 31 28  1  0  0  0  0
 32 33  1  0  0  0  0
 32 25  1  0  0  0  0
 33 38  1  0  0  0  0
 34 39  1  0  0  0  0
 34 37  1  0  0  0  0
 35 36  1  0  0  0  0
 35 33  1  0  0  0  0
 36 34  1  0  0  0  0
 38 37  1  0  0  0  0
M  END
>  <MODEL>
4

>  <REMARK>
 VINA RESULT:      -7.8      2.520      5.011
  Name = 8u8a
  8 active torsions:
  status: ('A' for Active; 'I' for Inactive)
    1  A    between atoms: C_4  and  C_6
    2  A    between atoms: N_5  and  C_18
    3  A    between atoms: C_6  and  C_8
    4  A    between atoms: N_7  and  C_25
    5  A    between atoms: C_8  and  C_10
    6  A    between atoms: C_14  and  C_17
    7  A    between atoms: C_21  and  C_25
    8  A    between atoms: C_22  and  C_24
                            x       y       z     vdW  Elec       q    Type
                         _______ _______ _______ _____ _____    ______ ____

>  <TORSDO>
F 8

$$$$
8u8a
 OpenBabel10242410253D

 39 43  0  0  0  0  0  0  0  0999 V2000
  185.0510  177.8780  145.0220 O   0  0  0  0  0  0  0  0  0  0  0  0
  185.6200  178.0820  142.8380 N   0  0  0  0  0  2  0  0  0  0  0  0
  185.9060  177.9200  144.1380 C   0  0  0  0  0  0  0  0  0  0  0  0
  189.6300  177.5060  143.6980 C   0  0  0  0  0  0  0  0  0  0  0  0
  190.1520  177.5840  145.0530 C   0  0  0  0  0  0  0  0  0  0  0  0
  189.2290  177.7710  146.1320 C   0  0  0  0  0  3  0  0  0  0  0  0
  187.8310  177.8910  145.8810 C   0  0  0  0  0  3  0  0  0  0  0  0
  187.3410  177.8220  144.5270 C   0  0  0  0  0  0  0  0  0  0  0  0
  188.2490  177.6220  143.4670 C   0  0  0  0  0  3  0  0  0  0  0  0
  191.6410  177.4540  145.3550 C   0  0  0  0  0  1  0  0  0  0  0  0
  190.4790  177.3320  142.5330 C   0  0  0  0  0  0  0  0  0  0  0  0
  191.1060  177.0970  141.5210 C   0  0  0  0  0  0  0  0  0  0  0  0
  193.1010  177.2370  140.1520 C   0  0  0  0  0  3  0  0  0  0  0  0
  193.4600  177.0190  138.8450 N   0  0  0  0  0  0  0  0  0  0  0  0
  191.8020  176.9490  140.3240 C   0  0  0  0  0  0  0  0  0  0  0  0
  192.0750  176.2330  136.9040 C   0  0  0  0  0  3  0  0  0  0  0  0
  189.9980  176.2060  138.8890 N   0  0  0  0  0  0  0  0  0  0  0  0
  190.7900  175.8530  136.5970 C   0  0  0  0  0  3  0  0  0  0  0  0
  191.2880  176.5730  139.1330 N   0  0  0  0  0  0  0  0  0  0  0  0
  189.8100  175.8600  137.6200 C   0  0  0  0  0  3  0  0  0  0  0  0
  192.3700  176.6150  138.2410 C   0  0  0  0  0  0  0  0  0  0  0  0
  184.3250  178.2020  142.2750 C   0  0  0  0  0  0  0  0  0  0  0  0
  184.1590  177.9620  140.8920 C   0  0  0  0  0  3  0  0  0  0  0  0
  182.8640  178.0690  140.2930 C   0  0  0  0  0  3  0  0  0  0  0  0
  181.6970  178.4190  141.0710 C   0  0  0  0  0  0  0  0  0  0  0  0
  181.8750  178.6710  142.4980 C   0  0  0  0  0  0  0  0  0  0  0  0
  183.1750  178.5560  143.0520 C   0  0  0  0  0  3  0  0  0  0  0  0
  180.7590  179.0460  143.4780 C   0  0  0  0  0  0  0  0  0  0  0  0
  179.9820  178.0130  143.6940 F   0  0  0  0  0  0  0  0  0  0  0  0
  181.2270  179.4330  144.6520 F   0  0  0  0  0  0  0  0  0  0  0  0
  180.0380  180.0510  142.9900 F   0  0  0  0  0  0  0  0  0  0  0  0
  180.3440  178.5070  140.3330 C   0  0  0  0  0  2  0  0  0  0  0  0
  180.2580  179.6210  139.3870 N   0  0  0  0  0  0  0  0  0  0  0  0
  181.0390  182.0670  137.9900 N   0  0  0  0  0  0  0  0  0  0  0  0
  180.3260  180.9420  140.0620 C   0  0  0  0  0  2  0  0  0  0  0  0
  180.0230  182.0680  139.0540 C   0  0  0  0  0  2  0  0  0  0  0  0
  181.1240  180.7340  137.3250 C   0  0  0  0  0  2  0  0  0  0  0  0
  181.3080  179.5780  138.3550 C   0  0  0  0  0  2  0  0  0  0  0  0
  180.8090  183.1510  137.0500 C   0  0  0  0  0  1  0  0  0  0  0  0
  2  3  1  0  0  0  0
  3  8  1  0  0  0  0
  3  1  2  0  0  0  0
  4  5  1  0  0  0  0
  5 10  1  0  0  0  0
  5  6  2  0  0  0  0
  7  6  1  0  0  0  0
  8  7  2  0  0  0  0
  9  4  2  0  0  0  0
  9  8  1  0  0  0  0
 11  4  1  0  0  0  0
 12 11  3  0  0  0  0
 13 15  2  0  0  0  0
 14 13  1  0  0  0  0
 15 12  1  0  0  0  0
 16 21  1  0  0  0  0
 17 19  1  0  0  0  0
 18 16  2  0  0  0  0
 18 20  1  0  0  0  0
 19 15  1  0  0  0  0
 20 17  2  0  0  0  0
 21 14  2  0  0  0  0
 21 19  1  0  0  0  0
 22  2  1  0  0  0  0
 22 27  1  0  0  0  0
 23 22  2  0  0  0  0
 24 23  1  0  0  0  0
 24 25  2  0  0  0  0
 25 26  1  0  0  0  0
 26 27  2  0  0  0  0
 26 28  1  0  0  0  0
 28 29  1  0  0  0  0
 28 30  1  0  0  0  0
 31 28  1  0  0  0  0
 32 25  1  0  0  0  0
 33 35  1  0  0  0  0
 33 32  1  0  0  0  0
 34 36  1  0  0  0  0
 36 35  1  0  0  0  0
 37 34  1  0  0  0  0
 37 38  1  0  0  0  0
 38 33  1  0  0  0  0
 39 34  1  0  0  0  0
M  END
>  <MODEL>
5

>  <REMARK>
 VINA RESULT:      -7.4      4.252     10.671
  Name = 8u8a
  8 active torsions:
  status: ('A' for Active; 'I' for Inactive)
    1  A    between atoms: C_4  and  C_6
    2  A    between atoms: N_5  and  C_18
    3  A    between atoms: C_6  and  C_8
    4  A    between atoms: N_7  and  C_25
    5  A    between atoms: C_8  and  C_10
    6  A    between atoms: C_14  and  C_17
    7  A    between atoms: C_21  and  C_25
    8  A    between atoms: C_22  and  C_24
                            x       y       z     vdW  Elec       q    Type
                         _______ _______ _______ _____ _____    ______ ____

>  <TORSDO>
F 8

$$$$
8u8a
 OpenBabel10242410253D

 39 43  0  0  0  0  0  0  0  0999 V2000
  186.2740  178.9770  138.2280 O   0  0  0  0  0  0  0  0  0  0  0  0
  187.3830  177.3090  139.2890 N   0  0  0  0  0  2  0  0  0  0  0  0
  186.4360  178.2570  139.2130 C   0  0  0  0  0  0  0  0  0  0  0  0
  185.4710  178.4420  142.8560 C   0  0  0  0  0  0  0  0  0  0  0  0
  184.0610  178.7940  142.8250 C   0  0  0  0  0  0  0  0  0  0  0  0
  183.4260  178.9640  141.5530 C   0  0  0  0  0  3  0  0  0  0  0  0
  184.1640  178.8030  140.3440 C   0  0  0  0  0  3  0  0  0  0  0  0
  185.5630  178.4650  140.4030 C   0  0  0  0  0  0  0  0  0  0  0  0
  186.1850  178.2830  141.6550 C   0  0  0  0  0  3  0  0  0  0  0  0
  183.2430  178.9690  144.1000 C   0  0  0  0  0  1  0  0  0  0  0  0
  186.2150  178.2610  144.0900 C   0  0  0  0  0  0  0  0  0  0  0  0
  186.9080  178.0250  145.0570 C   0  0  0  0  0  0  0  0  0  0  0  0
  187.4370  177.6880  147.3990 C   0  0  0  0  0  3  0  0  0  0  0  0
  188.5180  177.3140  148.1580 N   0  0  0  0  0  0  0  0  0  0  0  0
  187.7610  177.6640  146.0970 C   0  0  0  0  0  0  0  0  0  0  0  0
  190.8380  176.6670  147.4480 C   0  0  0  0  0  3  0  0  0  0  0  0
  189.7660  177.1730  144.8310 N   0  0  0  0  0  0  0  0  0  0  0  0
  191.6020  176.5140  146.3150 C   0  0  0  0  0  3  0  0  0  0  0  0
  189.0590  177.3070  145.9880 N   0  0  0  0  0  0  0  0  0  0  0  0
  191.0160  176.7790  145.0520 C   0  0  0  0  0  3  0  0  0  0  0  0
  189.4850  177.0800  147.3060 C   0  0  0  0  0  0  0  0  0  0  0  0
  188.3090  176.9680  138.2730 C   0  0  0  0  0  0  0  0  0  0  0  0
  189.4410  177.7930  138.0810 C   0  0  0  0  0  3  0  0  0  0  0  0
  190.4000  177.4740  137.0670 C   0  0  0  0  0  3  0  0  0  0  0  0
  190.2470  176.3140  136.2190 C   0  0  0  0  0  0  0  0  0  0  0  0
  189.0740  175.4690  136.4180 C   0  0  0  0  0  0  0  0  0  0  0  0
  188.1470  175.8200  137.4330 C   0  0  0  0  0  3  0  0  0  0  0  0
  188.7480  174.2000  135.6230 C   0  0  0  0  0  0  0  0  0  0  0  0
  189.8020  173.8040  134.9540 F   0  0  0  0  0  0  0  0  0  0  0  0
  188.3810  173.1960  136.4010 F   0  0  0  0  0  0  0  0  0  0  0  0
  187.7470  174.4320  134.7800 F   0  0  0  0  0  0  0  0  0  0  0  0
  191.3360  176.0540  135.1570 C   0  0  0  0  0  2  0  0  0  0  0  0
  192.5300  175.3890  135.6840 N   0  0  0  0  0  0  0  0  0  0  0  0
  194.9830  175.0360  137.2340 N   0  0  0  0  0  0  0  0  0  0  0  0
  193.7730  176.1530  135.4020 C   0  0  0  0  0  2  0  0  0  0  0  0
  195.0080  175.3160  135.7900 C   0  0  0  0  0  2  0  0  0  0  0  0
  193.7100  174.3660  137.6330 C   0  0  0  0  0  2  0  0  0  0  0  0
  192.4570  175.1480  137.1350 C   0  0  0  0  0  2  0  0  0  0  0  0
  196.1630  174.2890  137.6380 C   0  0  0  0  0  1  0  0  0  0  0  0
  1  3  2  0  0  0  0
  3  2  1  0  0  0  0
  3  8  1  0  0  0  0
  4 11  1  0  0  0  0
  5  4  1  0  0  0  0
  5 10  1  0  0  0  0
  6  5  2  0  0  0  0
  7  8  2  0  0  0  0
  7  6  1  0  0  0  0
  8  9  1  0  0  0  0
  9  4  2  0  0  0  0
 11 12  3  0  0  0  0
 12 15  1  0  0  0  0
 13 14  1  0  0  0  0
 15 13  2  0  0  0  0
 17 20  2  0  0  0  0
 17 19  1  0  0  0  0
 18 16  2  0  0  0  0
 19 15  1  0  0  0  0
 19 21  1  0  0  0  0
 20 18  1  0  0  0  0
 21 16  1  0  0  0  0
 21 14  2  0  0  0  0
 22  2  1  0  0  0  0
 23 22  1  0  0  0  0
 24 23  2  0  0  0  0
 25 26  2  0  0  0  0
 25 24  1  0  0  0  0
 26 27  1  0  0  0  0
 27 22  2  0  0  0  0
 28 30  1  0  0  0  0
 28 26  1  0  0  0  0
 29 28  1  0  0  0  0
 31 28  1  0  0  0  0
 32 33  1  0  0  0  0
 32 25  1  0  0  0  0
 33 38  1  0  0  0  0
 34 37  1  0  0  0  0
 34 39  1  0  0  0  0
 35 33  1  0  0  0  0
 35 36  1  0  0  0  0
 36 34  1  0  0  0  0
 38 37  1  0  0  0  0
M  END
>  <MODEL>
6

>  <REMARK>
 VINA RESULT:      -7.3      2.702      5.561
  Name = 8u8a
  8 active torsions:
  status: ('A' for Active; 'I' for Inactive)
    1  A    between atoms: C_4  and  C_6
    2  A    between atoms: N_5  and  C_18
    3  A    between atoms: C_6  and  C_8
    4  A    between atoms: N_7  and  C_25
    5  A    between atoms: C_8  and  C_10
    6  A    between atoms: C_14  and  C_17
    7  A    between atoms: C_21  and  C_25
    8  A    between atoms: C_22  and  C_24
                            x       y       z     vdW  Elec       q    Type
                         _______ _______ _______ _____ _____    ______ ____

>  <TORSDO>
F 8

$$$$
8u8a
 OpenBabel10242410253D

 39 43  0  0  0  0  0  0  0  0999 V2000
  186.5770  177.5620  143.9270 O   0  0  0  0  0  0  0  0  0  0  0  0
  186.5340  178.3150  141.7900 N   0  0  0  0  0  2  0  0  0  0  0  0
  185.9730  178.0730  142.9840 C   0  0  0  0  0  0  0  0  0  0  0  0
  182.4460  178.9740  141.9920 C   0  0  0  0  0  0  0  0  0  0  0  0
  181.7490  179.1030  143.2610 C   0  0  0  0  0  0  0  0  0  0  0  0
  182.4860  178.8900  144.4710 C   0  0  0  0  0  3  0  0  0  0  0  0
  183.8680  178.5460  144.4290 C   0  0  0  0  0  3  0  0  0  0  0  0
  184.5320  178.4130  143.1580 C   0  0  0  0  0  0  0  0  0  0  0  0
  183.8110  178.6380  141.9670 C   0  0  0  0  0  3  0  0  0  0  0  0
  180.2720  179.4730  143.3390 C   0  0  0  0  0  1  0  0  0  0  0  0
  181.7920  179.1540  140.7080 C   0  0  0  0  0  0  0  0  0  0  0  0
  181.3550  179.3530  139.5940 C   0  0  0  0  0  0  0  0  0  0  0  0
  180.6070  178.7370  137.3710 C   0  0  0  0  0  3  0  0  0  0  0  0
  180.3190  179.3590  136.1830 N   0  0  0  0  0  0  0  0  0  0  0  0
  180.9630  179.6480  138.2910 C   0  0  0  0  0  0  0  0  0  0  0  0
  180.3980  181.7940  135.5780 C   0  0  0  0  0  3  0  0  0  0  0  0
  181.2490  182.0520  138.3100 N   0  0  0  0  0  0  0  0  0  0  0  0
  180.6920  183.0200  136.1280 C   0  0  0  0  0  3  0  0  0  0  0  0
  180.9440  180.8670  137.7100 N   0  0  0  0  0  0  0  0  0  0  0  0
  181.1070  183.0820  137.4810 C   0  0  0  0  0  3  0  0  0  0  0  0
  180.5170  180.6360  136.3940 C   0  0  0  0  0  0  0  0  0  0  0  0
  187.8790  178.0550  141.4290 C   0  0  0  0  0  0  0  0  0  0  0  0
  188.2320  178.0720  140.0610 C   0  0  0  0  0  3  0  0  0  0  0  0
  189.5830  177.8200  139.6630 C   0  0  0  0  0  3  0  0  0  0  0  0
  190.6190  177.5460  140.6330 C   0  0  0  0  0  0  0  0  0  0  0  0
  190.2480  177.5240  142.0440 C   0  0  0  0  0  0  0  0  0  0  0  0
  188.8980  177.7770  142.3960 C   0  0  0  0  0  3  0  0  0  0  0  0
  191.2070  177.2580  143.2100 C   0  0  0  0  0  0  0  0  0  0  0  0
  192.0080  178.2800  143.3760 F   0  0  0  0  0  0  0  0  0  0  0  0
  190.5710  177.0710  144.3540 F   0  0  0  0  0  0  0  0  0  0  0  0
  191.9230  176.1630  142.9730 F   0  0  0  0  0  0  0  0  0  0  0  0
  192.0470  177.2890  140.1040 C   0  0  0  0  0  2  0  0  0  0  0  0
  192.0880  176.8330  138.7130 N   0  0  0  0  0  0  0  0  0  0  0  0
  192.6420  175.0750  136.4440 N   0  0  0  0  0  0  0  0  0  0  0  0
  193.4690  176.5140  138.2650 C   0  0  0  0  0  2  0  0  0  0  0  0
  193.4830  176.2440  136.7470 C   0  0  0  0  0  2  0  0  0  0  0  0
  191.2550  175.2580  136.9630 C   0  0  0  0  0  2  0  0  0  0  0  0
  191.2420  175.6530  138.4710 C   0  0  0  0  0  2  0  0  0  0  0  0
  192.6760  174.7650  135.0250 C   0  0  0  0  0  1  0  0  0  0  0  0
  2  3  1  0  0  0  0
  3  8  1  0  0  0  0
  3  1  2  0  0  0  0
  4  5  1  0  0  0  0
  5 10  1  0  0  0  0
  5  6  2  0  0  0  0
  7  6  1  0  0  0  0
  8  7  2  0  0  0  0
  9  4  2  0  0  0  0
  9  8  1  0  0  0  0
 11  4  1  0  0  0  0
 12 11  3  0  0  0  0
 13 15  2  0  0  0  0
 14 21  2  0  0  0  0
 14 13  1  0  0  0  0
 15 12  1  0  0  0  0
 16 18  2  0  0  0  0
 16 21  1  0  0  0  0
 18 20  1  0  0  0  0
 19 15  1  0  0  0  0
 19 17  1  0  0  0  0
 20 17  2  0  0  0  0
 21 19  1  0  0  0  0
 22  2  1  0  0  0  0
 22 27  1  0  0  0  0
 23 22  2  0  0  0  0
 24 23  1  0  0  0  0
 24 25  2  0  0  0  0
 25 26  1  0  0  0  0
 26 27  2  0  0  0  0
 26 28  1  0  0  0  0
 28 29  1  0  0  0  0
 28 30  1  0  0  0  0
 31 28  1  0  0  0  0
 32 25  1  0  0  0  0
 33 32  1  0  0  0  0
 34 36  1  0  0  0  0
 34 37  1  0  0  0  0
 35 33  1  0  0  0  0
 36 35  1  0  0  0  0
 37 38  1  0  0  0  0
 38 33  1  0  0  0  0
 39 34  1  0  0  0  0
M  END
>  <MODEL>
7

>  <REMARK>
 VINA RESULT:      -7.2      3.305      5.355
  Name = 8u8a
  8 active torsions:
  status: ('A' for Active; 'I' for Inactive)
    1  A    between atoms: C_4  and  C_6
    2  A    between atoms: N_5  and  C_18
    3  A    between atoms: C_6  and  C_8
    4  A    between atoms: N_7  and  C_25
    5  A    between atoms: C_8  and  C_10
    6  A    between atoms: C_14  and  C_17
    7  A    between atoms: C_21  and  C_25
    8  A    between atoms: C_22  and  C_24
                            x       y       z     vdW  Elec       q    Type
                         _______ _______ _______ _____ _____    ______ ____

>  <TORSDO>
F 8

$$$$
8u8a
 OpenBabel10242410253D

 39 43  0  0  0  0  0  0  0  0999 V2000
  184.6690  178.3970  144.7700 O   0  0  0  0  0  0  0  0  0  0  0  0
  185.3580  178.0380  142.6410 N   0  0  0  0  0  2  0  0  0  0  0  0
  185.5590  178.1270  143.9650 C   0  0  0  0  0  0  0  0  0  0  0  0
  189.2860  177.5590  143.8300 C   0  0  0  0  0  0  0  0  0  0  0  0
  189.6790  177.4920  145.2280 C   0  0  0  0  0  0  0  0  0  0  0  0
  188.6670  177.6330  146.2310 C   0  0  0  0  0  3  0  0  0  0  0  0
  187.3060  177.8470  145.8650 C   0  0  0  0  0  3  0  0  0  0  0  0
  186.9450  177.9220  144.4720 C   0  0  0  0  0  0  0  0  0  0  0  0
  187.9400  177.7670  143.4850 C   0  0  0  0  0  3  0  0  0  0  0  0
  191.1260  177.2600  145.6510 C   0  0  0  0  0  1  0  0  0  0  0  0
  190.2340  177.4430  142.7350 C   0  0  0  0  0  0  0  0  0  0  0  0
  190.9440  177.2630  141.7680 C   0  0  0  0  0  0  0  0  0  0  0  0
  192.9860  177.3110  140.4630 C   0  0  0  0  0  3  0  0  0  0  0  0
  193.3700  177.1140  139.1600 N   0  0  0  0  0  0  0  0  0  0  0  0
  191.6650  177.1090  140.5870 C   0  0  0  0  0  0  0  0  0  0  0  0
  191.9950  176.4960  137.1520 C   0  0  0  0  0  3  0  0  0  0  0  0
  189.8600  176.5450  139.0740 N   0  0  0  0  0  0  0  0  0  0  0  0
  190.6970  176.2170  136.7940 C   0  0  0  0  0  3  0  0  0  0  0  0
  191.1640  176.8120  139.3680 N   0  0  0  0  0  0  0  0  0  0  0  0
  189.6880  176.2570  137.7880 C   0  0  0  0  0  3  0  0  0  0  0  0
  192.2740  176.8090  138.5100 C   0  0  0  0  0  0  0  0  0  0  0  0
  184.1210  178.2090  141.9700 C   0  0  0  0  0  0  0  0  0  0  0  0
  183.0900  178.9280  142.6160 C   0  0  0  0  0  3  0  0  0  0  0  0
  181.8310  179.1230  141.9640 C   0  0  0  0  0  3  0  0  0  0  0  0
  181.5760  178.6020  140.6400 C   0  0  0  0  0  0  0  0  0  0  0  0
  182.6430  177.8560  139.9790 C   0  0  0  0  0  0  0  0  0  0  0  0
  183.8740  177.6830  140.6610 C   0  0  0  0  0  3  0  0  0  0  0  0
  182.5580  177.2370  138.5800 C   0  0  0  0  0  0  0  0  0  0  0  0
  182.7290  178.1600  137.6680 F   0  0  0  0  0  0  0  0  0  0  0  0
  183.4830  176.3140  138.3790 F   0  0  0  0  0  0  0  0  0  0  0  0
  181.3760  176.6540  138.4080 F   0  0  0  0  0  0  0  0  0  0  0  0
  180.1870  178.8670  140.0200 C   0  0  0  0  0  2  0  0  0  0  0  0
  180.1570  180.0140  139.1080 N   0  0  0  0  0  0  0  0  0  0  0  0
  181.0680  181.8640  137.0380 N   0  0  0  0  0  0  0  0  0  0  0  0
  181.3220  180.9160  139.2970 C   0  0  0  0  0  2  0  0  0  0  0  0
  181.1350  182.2020  138.4680 C   0  0  0  0  0  2  0  0  0  0  0  0
  179.9910  180.8670  136.7670 C   0  0  0  0  0  2  0  0  0  0  0  0
  180.1070  179.6170  137.6910 C   0  0  0  0  0  2  0  0  0  0  0  0
  180.9420  183.0630  136.2260 C   0  0  0  0  0  1  0  0  0  0  0  0
  2  3  1  0  0  0  0
  3  8  1  0  0  0  0
  3  1  2  0  0  0  0
  4  5  1  0  0  0  0
  5 10  1  0  0  0  0
  5  6  2  0  0  0  0
  7  6  1  0  0  0  0
  8  7  2  0  0  0  0
  9  4  2  0  0  0  0
  9  8  1  0  0  0  0
 11  4  1  0  0  0  0
 12 11  3  0  0  0  0
 13 15  2  0  0  0  0
 14 13  1  0  0  0  0
 15 12  1  0  0  0  0
 16 21  1  0  0  0  0
 17 19  1  0  0  0  0
 18 16  2  0  0  0  0
 18 20  1  0  0  0  0
 19 15  1  0  0  0  0
 20 17  2  0  0  0  0
 21 14  2  0  0  0  0
 21 19  1  0  0  0  0
 22 23  1  0  0  0  0
 22  2  1  0  0  0  0
 24 23  2  0  0  0  0
 25 24  1  0  0  0  0
 26 25  2  0  0  0  0
 26 27  1  0  0  0  0
 27 22  2  0  0  0  0
 28 26  1  0  0  0  0
 29 28  1  0  0  0  0
 30 28  1  0  0  0  0
 31 28  1  0  0  0  0
 32 25  1  0  0  0  0
 33 35  1  0  0  0  0
 33 32  1  0  0  0  0
 34 36  1  0  0  0  0
 36 35  1  0  0  0  0
 37 34  1  0  0  0  0
 37 38  1  0  0  0  0
 38 33  1  0  0  0  0
 39 34  1  0  0  0  0
M  END
>  <MODEL>
8

>  <REMARK>
 VINA RESULT:      -7.1      3.212     10.198
  Name = 8u8a
  8 active torsions:
  status: ('A' for Active; 'I' for Inactive)
    1  A    between atoms: C_4  and  C_6
    2  A    between atoms: N_5  and  C_18
    3  A    between atoms: C_6  and  C_8
    4  A    between atoms: N_7  and  C_25
    5  A    between atoms: C_8  and  C_10
    6  A    between atoms: C_14  and  C_17
    7  A    between atoms: C_21  and  C_25
    8  A    between atoms: C_22  and  C_24
                            x       y       z     vdW  Elec       q    Type
                         _______ _______ _______ _____ _____    ______ ____

>  <TORSDO>
F 8

$$$$
8u8a
 OpenBabel10242410253D

 39 43  0  0  0  0  0  0  0  0999 V2000
  185.0030  179.5070  140.3160 O   0  0  0  0  0  0  0  0  0  0  0  0
  183.7060  177.6500  140.3710 N   0  0  0  0  0  2  0  0  0  0  0  0
  184.3750  178.6590  140.9490 C   0  0  0  0  0  0  0  0  0  0  0  0
  185.7470  178.4380  144.4560 C   0  0  0  0  0  0  0  0  0  0  0  0
  184.6100  178.7760  145.2970 C   0  0  0  0  0  0  0  0  0  0  0  0
  183.3590  179.0740  144.6680 C   0  0  0  0  0  3  0  0  0  0  0  0
  183.2360  179.0540  143.2480 C   0  0  0  0  0  3  0  0  0  0  0  0
  184.3810  178.7280  142.4380 C   0  0  0  0  0  0  0  0  0  0  0  0
  185.6090  178.4190  143.0580 C   0  0  0  0  0  3  0  0  0  0  0  0
  184.7090  178.8020  146.8180 C   0  0  0  0  0  1  0  0  0  0  0  0
  187.0630  178.1340  144.9900 C   0  0  0  0  0  0  0  0  0  0  0  0
  188.1060  177.7890  145.5050 C   0  0  0  0  0  0  0  0  0  0  0  0
  189.5710  177.4990  147.4140 C   0  0  0  0  0  3  0  0  0  0  0  0
  190.7710  176.8960  147.6980 N   0  0  0  0  0  0  0  0  0  0  0  0
  189.2420  177.2830  146.1310 C   0  0  0  0  0  0  0  0  0  0  0  0
  192.2980  175.5680  146.2120 C   0  0  0  0  0  3  0  0  0  0  0  0
  190.2760  176.1510  144.2560 N   0  0  0  0  0  0  0  0  0  0  0  0
  192.3990  175.1190  144.9170 C   0  0  0  0  0  3  0  0  0  0  0  0
  190.2320  176.5680  145.5530 N   0  0  0  0  0  0  0  0  0  0  0  0
  191.3680  175.4400  143.9980 C   0  0  0  0  0  3  0  0  0  0  0  0
  191.1580  176.3340  146.5800 C   0  0  0  0  0  0  0  0  0  0  0  0
  183.5900  177.4110  138.9800 C   0  0  0  0  0  0  0  0  0  0  0  0
  182.3060  177.1890  138.4320 C   0  0  0  0  0  3  0  0  0  0  0  0
  182.1540  176.9510  137.0290 C   0  0  0  0  0  3  0  0  0  0  0  0
  183.2910  176.9320  136.1370 C   0  0  0  0  0  0  0  0  0  0  0  0
  184.6150  177.1560  136.7080 C   0  0  0  0  0  0  0  0  0  0  0  0
  184.7230  177.3870  138.1040 C   0  0  0  0  0  3  0  0  0  0  0  0
  185.9300  177.1780  135.9220 C   0  0  0  0  0  0  0  0  0  0  0  0
  186.9240  177.4940  136.7120 F   0  0  0  0  0  0  0  0  0  0  0  0
  186.2170  176.0030  135.3860 F   0  0  0  0  0  0  0  0  0  0  0  0
  185.8540  178.0570  134.9270 F   0  0  0  0  0  0  0  0  0  0  0  0
  183.0230  176.6680  134.6390 C   0  0  0  0  0  2  0  0  0  0  0  0
  182.6050  175.2950  134.3460 N   0  0  0  0  0  0  0  0  0  0  0  0
  181.7500  172.5470  134.8560 N   0  0  0  0  0  0  0  0  0  0  0  0
  183.4890  174.2880  134.9880 C   0  0  0  0  0  2  0  0  0  0  0  0
  183.1350  172.8750  134.4820 C   0  0  0  0  0  2  0  0  0  0  0  0
  180.7950  173.5760  134.3480 C   0  0  0  0  0  2  0  0  0  0  0  0
  181.2180  175.0190  134.7560 C   0  0  0  0  0  2  0  0  0  0  0  0
  181.4040  171.2000  134.4360 C   0  0  0  0  0  1  0  0  0  0  0  0
  1  3  2  0  0  0  0
  2  3  1  0  0  0  0
  3  8  1  0  0  0  0
  4 11  1  0  0  0  0
  4  5  1  0  0  0  0
  5 10  1  0  0  0  0
  6  5  2  0  0  0  0
  7  6  1  0  0  0  0
  8  9  1  0  0  0  0
  8  7  2  0  0  0  0
  9  4  2  0  0  0  0
 11 12  3  0  0  0  0
 12 15  1  0  0  0  0
 13 14  1  0  0  0  0
 15 13  2  0  0  0  0
 16 21  1  0  0  0  0
 17 19  1  0  0  0  0
 18 16  2  0  0  0  0
 19 15  1  0  0  0  0
 19 21  1  0  0  0  0
 20 17  2  0  0  0  0
 20 18  1  0  0  0  0
 21 14  2  0  0  0  0
 22  2  1  0  0  0  0
 23 22  1  0  0  0  0
 24 23  2  0  0  0  0
 25 26  2  0  0  0  0
 25 24  1  0  0  0  0
 26 27  1  0  0  0  0
 27 22  2  0  0  0  0
 28 26  1  0  0  0  0
 28 29  1  0  0  0  0
 30 28  1  0  0  0  0
 31 28  1  0  0  0  0
 32 25  1  0  0  0  0
 33 32  1  0  0  0  0
 33 38  1  0  0  0  0
 33 35  1  0  0  0  0
 36 34  1  0  0  0  0
 36 35  1  0  0  0  0
 37 38  1  0  0  0  0
 37 34  1  0  0  0  0
 39 34  1  0  0  0  0
M  END
>  <MODEL>
9

>  <REMARK>
 VINA RESULT:      -6.9      4.807      9.035
  Name = 8u8a
  8 active torsions:
  status: ('A' for Active; 'I' for Inactive)
    1  A    between atoms: C_4  and  C_6
    2  A    between atoms: N_5  and  C_18
    3  A    between atoms: C_6  and  C_8
    4  A    between atoms: N_7  and  C_25
    5  A    between atoms: C_8  and  C_10
    6  A    between atoms: C_14  and  C_17
    7  A    between atoms: C_21  and  C_25
    8  A    between atoms: C_22  and  C_24
                            x       y       z     vdW  Elec       q    Type
                         _______ _______ _______ _____ _____    ______ ____

>  <TORSDO>
F 8

$$$$
