8tyq
 OpenBabel10242410253D

 39 43  0  0  1  0  0  0  0  0999 V2000
  190.9610  176.8210  142.4660 C   0  0  0  0  0  0  0  0  0  0  0  0
  191.9500  176.3160  142.7910 O   0  0  0  0  0  0  0  0  0  0  0  0
  190.6510  177.1440  141.0700 N   0  0  0  0  0  2  0  0  0  0  0  0
  187.2430  178.0180  146.7140 C   0  0  0  0  0  1  0  0  0  0  0  0
  188.2480  177.7000  145.6300 C   0  0  0  0  0  0  0  0  0  0  0  0
  187.8530  177.6860  144.3190 C   0  0  0  0  0  0  0  0  0  0  0  0
  188.7270  177.4110  143.3070 C   0  0  0  0  0  3  0  0  0  0  0  0
  190.0300  177.1420  143.6290 C   0  0  0  0  0  0  0  0  0  0  0  0
  190.4520  177.1360  144.9360 C   0  0  0  0  0  3  0  0  0  0  0  0
  189.5530  177.4230  145.9460 C   0  0  0  0  0  3  0  0  0  0  0  0
  186.4110  177.9930  143.9960 C   0  0  0  0  0  0  0  0  0  0  0  0
  185.2890  178.2220  143.7320 C   0  0  0  0  0  0  0  0  0  0  0  0
  183.8500  178.5380  143.3840 C   0  0  2  0  0  3  0  0  0  0  0  0
  183.4150  178.6290  142.0930 C   0  0  0  0  0  3  0  0  0  0  0  0
  182.1340  178.9160  141.9330 C   0  0  0  0  0  0  0  0  0  0  0  0
  181.2650  179.1110  143.0100 C   0  0  0  0  0  0  0  0  0  0  0  0
  180.0550  179.3730  142.3230 N   0  0  0  0  0  0  0  0  0  0  0  0
  179.9820  179.3810  141.0290 N   0  0  0  0  0  0  0  0  0  0  0  0
  181.2000  179.1160  140.8700 C   0  0  0  0  0  3  0  0  0  0  0  0
  181.6520  179.0350  144.2560 N   0  0  0  0  0  0  0  0  0  0  0  0
  182.9640  178.7410  144.4660 C   0  0  0  0  0  3  0  0  0  0  0  0
  191.5860  176.8300  139.9590 C   0  0  0  0  0  0  0  0  0  0  0  0
  191.1600  176.0850  138.8860 C   0  0  0  0  0  3  0  0  0  0  0  0
  191.9940  175.7520  137.8250 C   0  0  0  0  0  0  0  0  0  0  0  0
  193.3390  176.1940  137.8140 C   0  0  0  0  0  0  0  0  0  0  0  0
  193.7470  176.9780  138.8970 C   0  0  0  0  0  3  0  0  0  0  0  0
  192.8910  177.2790  139.9630 C   0  0  0  0  0  3  0  0  0  0  0  0
  191.4040  174.9150  136.7120 C   0  0  0  0  0  0  0  0  0  0  0  0
  192.0920  173.7650  136.5710 F   0  0  0  0  0  0  0  0  0  0  0  0
  190.1330  174.6160  137.0180 F   0  0  0  0  0  0  0  0  0  0  0  0
  191.4150  175.6480  135.5840 F   0  0  0  0  0  0  0  0  0  0  0  0
  194.2750  175.8570  136.5870 C   0  0  0  0  0  2  0  0  0  0  0  0
  195.5220  175.4000  136.7770 N   0  0  0  0  0  0  0  0  0  0  0  0
  195.4910  174.1430  137.1120 C   0  0  0  0  0  2  0  0  0  0  0  0
  196.8700  173.4910  137.2900 C   0  0  0  0  0  2  0  0  0  0  0  0
  197.6050  173.7270  136.2320 N   0  0  0  0  0  0  0  0  0  0  0  0
  197.6820  175.0110  136.1750 C   0  0  0  0  0  2  0  0  0  0  0  0
  196.3310  175.5870  135.8060 C   0  0  0  0  0  2  0  0  0  0  0  0
  198.8000  173.2510  136.3930 C   0  0  0  0  0  1  0  0  0  0  0  0
  1  2  2  0  0  0  0
  1  8  1  0  0  0  0
  3  1  1  0  0  0  0
  5 10  1  0  0  0  0
  5  4  1  0  0  0  0
  6  5  2  0  0  0  0
  7  8  2  0  0  0  0
  7  6  1  0  0  0  0
  8  9  1  0  0  0  0
  9 10  2  0  0  0  0
 11  6  1  0  0  0  0
 12 11  3  0  0  0  0
 13 12  1  6  0  0  0
 13 21  1  0  0  0  0
 14 13  1  0  0  0  0
 15 14  2  0  0  0  0
 15 16  1  0  0  0  0
 16 20  1  0  0  0  0
 17 16  2  0  0  0  0
 18 17  1  0  0  0  0
 19 18  2  0  0  0  0
 19 15  1  0  0  0  0
 20 21  2  0  0  0  0
 22 27  1  0  0  0  0
 22  3  1  0  0  0  0
 23 22  2  0  0  0  0
 24 23  1  0  0  0  0
 25 24  2  0  0  0  0
 25 26  1  0  0  0  0
 26 27  2  0  0  0  0
 28 30  1  0  0  0  0
 28 24  1  0  0  0  0
 29 28  1  0  0  0  0
 31 28  1  0  0  0  0
 32 33  1  0  0  0  0
 32 25  1  0  0  0  0
 33 34  1  0  0  0  0
 34 35  1  0  0  0  0
 36 39  1  0  0  0  0
 36 35  1  0  0  0  0
 37 36  1  0  0  0  0
 38 37  1  0  0  0  0
 38 33  1  0  0  0  0
M  END
>  <MODEL>
1

>  <REMARK>
 VINA RESULT:      -8.3      0.000      0.000
  Name = 8tyq
  8 active torsions:
  status: ('A' for Active; 'I' for Inactive)
    1  A    between atoms: C_3  and  C_26
    2  A    between atoms: C_5  and  C_8
    3  A    between atoms: N_10  and  C_11
    4  A    between atoms: C_13  and  C_25
    5  A    between atoms: C_14  and  C_17
    6  A    between atoms: C_17  and  N_18
    7  A    between atoms: C_26  and  C_27
    8  A    between atoms: C_27  and  C_28
                            x       y       z     vdW  Elec       q    Type
                         _______ _______ _______ _____ _____    ______ ____

>  <TORSDO>
F 8

$$$$
8tyq
 OpenBabel10242410253D

 39 43  0  0  1  0  0  0  0  0999 V2000
  184.3810  178.7920  140.5370 C   0  0  0  0  0  0  0  0  0  0  0  0
  185.0800  179.7120  140.4630 O   0  0  0  0  0  0  0  0  0  0  0  0
  184.4800  177.8000  141.6110 N   0  0  0  0  0  2  0  0  0  0  0  0
  180.5680  178.1970  136.2460 C   0  0  0  0  0  1  0  0  0  0  0  0
  181.5600  178.3950  137.3710 C   0  0  0  0  0  0  0  0  0  0  0  0
  182.2300  177.3170  137.8840 C   0  0  0  0  0  0  0  0  0  0  0  0
  183.1380  177.4500  138.8950 C   0  0  0  0  0  3  0  0  0  0  0  0
  183.3740  178.7000  139.3970 C   0  0  0  0  0  0  0  0  0  0  0  0
  182.7070  179.7990  138.9110 C   0  0  0  0  0  3  0  0  0  0  0  0
  181.7950  179.6450  137.8840 C   0  0  0  0  0  3  0  0  0  0  0  0
  181.9530  175.9520  137.3050 C   0  0  0  0  0  0  0  0  0  0  0  0
  181.7470  174.8920  136.8400 C   0  0  0  0  0  0  0  0  0  0  0  0
  181.5030  173.5220  136.2440 C   0  0  2  0  0  3  0  0  0  0  0  0
  182.4050  172.5040  136.3640 C   0  0  0  0  0  3  0  0  0  0  0  0
  182.0670  171.3610  135.7910 C   0  0  0  0  0  0  0  0  0  0  0  0
  180.8620  171.1890  135.1040 C   0  0  0  0  0  0  0  0  0  0  0  0
  180.9810  169.8370  134.7050 N   0  0  0  0  0  0  0  0  0  0  0  0
  182.0170  169.1160  135.0010 N   0  0  0  0  0  0  0  0  0  0  0  0
  182.5980  170.0450  135.6170 C   0  0  0  0  0  3  0  0  0  0  0  0
  179.9820  172.1460  134.9680 N   0  0  0  0  0  0  0  0  0  0  0  0
  180.2890  173.3400  135.5440 C   0  0  0  0  0  3  0  0  0  0  0  0
  185.4820  177.9110  142.7010 C   0  0  0  0  0  0  0  0  0  0  0  0
  185.0800  178.1930  143.9850 C   0  0  0  0  0  3  0  0  0  0  0  0
  185.9740  178.3190  145.0420 C   0  0  0  0  0  0  0  0  0  0  0  0
  187.3620  178.1430  144.8210 C   0  0  0  0  0  0  0  0  0  0  0  0
  187.7510  177.8250  143.5170 C   0  0  0  0  0  3  0  0  0  0  0  0
  186.8290  177.7270  142.4680 C   0  0  0  0  0  3  0  0  0  0  0  0
  185.4020  178.6440  146.4030 C   0  0  0  0  0  0  0  0  0  0  0  0
  184.0580  178.5460  146.3870 F   0  0  0  0  0  0  0  0  0  0  0  0
  185.8830  177.7680  147.2980 F   0  0  0  0  0  0  0  0  0  0  0  0
  185.8110  179.8790  146.7460 F   0  0  0  0  0  0  0  0  0  0  0  0
  188.3750  178.2390  146.0280 C   0  0  0  0  0  2  0  0  0  0  0  0
  189.3160  177.2990  146.2150 N   0  0  0  0  0  0  0  0  0  0  0  0
  190.4310  177.6640  145.6540 C   0  0  0  0  0  2  0  0  0  0  0  0
  191.6030  176.6940  145.8610 C   0  0  0  0  0  2  0  0  0  0  0  0
  191.7290  176.4260  147.1360 N   0  0  0  0  0  0  0  0  0  0  0  0
  190.6010  175.8990  147.4650 C   0  0  0  0  0  2  0  0  0  0  0  0
  189.5150  176.9530  147.4280 C   0  0  0  0  0  2  0  0  0  0  0  0
  192.6640  175.5490  147.3270 C   0  0  0  0  0  1  0  0  0  0  0  0
  1  3  1  0  0  0  0
  2  1  2  0  0  0  0
  3 22  1  0  0  0  0
  4  5  1  0  0  0  0
  5 10  2  0  0  0  0
  5  6  1  0  0  0  0
  6  7  2  0  0  0  0
  7  8  1  0  0  0  0
  8  1  1  0  0  0  0
  9  8  2  0  0  0  0
 10  9  1  0  0  0  0
 11  6  1  0  0  0  0
 12 11  3  0  0  0  0
 13 14  1  0  0  0  0
 13 12  1  6  0  0  0
 15 14  2  0  0  0  0
 16 15  1  0  0  0  0
 17 18  1  0  0  0  0
 17 16  2  0  0  0  0
 18 19  2  0  0  0  0
 19 15  1  0  0  0  0
 20 16  1  0  0  0  0
 20 21  2  0  0  0  0
 21 13  1  0  0  0  0
 22 23  1  0  0  0  0
 23 24  2  0  0  0  0
 24 28  1  0  0  0  0
 25 24  1  0  0  0  0
 25 32  1  0  0  0  0
 26 25  2  0  0  0  0
 27 22  2  0  0  0  0
 27 26  1  0  0  0  0
 28 31  1  0  0  0  0
 28 30  1  0  0  0  0
 29 28  1  0  0  0  0
 32 33  1  0  0  0  0
 33 38  1  0  0  0  0
 34 35  1  0  0  0  0
 34 33  1  0  0  0  0
 35 36  1  0  0  0  0
 36 39  1  0  0  0  0
 36 37  1  0  0  0  0
 38 37  1  0  0  0  0
M  END
>  <MODEL>
2

>  <REMARK>
 VINA RESULT:      -7.8      7.205     10.400
  Name = 8tyq
  8 active torsions:
  status: ('A' for Active; 'I' for Inactive)
    1  A    between atoms: C_3  and  C_26
    2  A    between atoms: C_5  and  C_8
    3  A    between atoms: N_10  and  C_11
    4  A    between atoms: C_13  and  C_25
    5  A    between atoms: C_14  and  C_17
    6  A    between atoms: C_17  and  N_18
    7  A    between atoms: C_26  and  C_27
    8  A    between atoms: C_27  and  C_28
                            x       y       z     vdW  Elec       q    Type
                         _______ _______ _______ _____ _____    ______ ____

>  <TORSDO>
F 8

$$$$
8tyq
 OpenBabel10242410253D

 39 43  0  0  1  0  0  0  0  0999 V2000
  183.6400  178.2180  141.1830 C   0  0  0  0  0  0  0  0  0  0  0  0
  183.6460  179.1830  140.5430 O   0  0  0  0  0  0  0  0  0  0  0  0
  183.2730  176.9060  140.6430 N   0  0  0  0  0  2  0  0  0  0  0  0
  185.3150  179.0400  146.6440 C   0  0  0  0  0  1  0  0  0  0  0  0
  184.8390  178.8420  145.2220 C   0  0  0  0  0  0  0  0  0  0  0  0
  185.6610  178.2440  144.3060 C   0  0  0  0  0  0  0  0  0  0  0  0
  185.2710  178.0390  143.0140 C   0  0  0  0  0  3  0  0  0  0  0  0
  184.0200  178.4510  142.6400 C   0  0  0  0  0  0  0  0  0  0  0  0
  183.1780  179.0670  143.5340 C   0  0  0  0  0  3  0  0  0  0  0  0
  183.5900  179.2590  144.8390 C   0  0  0  0  0  3  0  0  0  0  0  0
  187.0310  177.7940  144.7500 C   0  0  0  0  0  0  0  0  0  0  0  0
  188.0920  177.4330  145.1060 C   0  0  0  0  0  0  0  0  0  0  0  0
  189.4530  176.9750  145.5860 C   0  0  2  0  0  3  0  0  0  0  0  0
  189.8050  176.9940  146.9050 C   0  0  0  0  0  3  0  0  0  0  0  0
  191.0260  176.5700  147.1830 C   0  0  0  0  0  0  0  0  0  0  0  0
  191.9130  176.1230  146.1990 C   0  0  0  0  0  0  0  0  0  0  0  0
  193.0360  175.7890  146.9930 N   0  0  0  0  0  0  0  0  0  0  0  0
  193.0390  175.9310  148.2810 N   0  0  0  0  0  0  0  0  0  0  0  0
  191.8680  176.3820  148.3240 C   0  0  0  0  0  3  0  0  0  0  0  0
  191.6060  176.0980  144.9290 N   0  0  0  0  0  0  0  0  0  0  0  0
  190.3570  176.5250  144.5970 C   0  0  0  0  0  3  0  0  0  0  0  0
  182.8940  176.7140  139.2200 C   0  0  0  0  0  0  0  0  0  0  0  0
  183.8530  176.7540  138.2360 C   0  0  0  0  0  3  0  0  0  0  0  0
  183.5540  176.5910  136.8890 C   0  0  0  0  0  0  0  0  0  0  0  0
  182.2180  176.3610  136.4810 C   0  0  0  0  0  0  0  0  0  0  0  0
  181.2600  176.2900  137.4960 C   0  0  0  0  0  3  0  0  0  0  0  0
  181.5870  176.4800  138.8440 C   0  0  0  0  0  3  0  0  0  0  0  0
  184.7020  176.6710  135.9060 C   0  0  0  0  0  0  0  0  0  0  0  0
  184.3740  177.4560  134.8610 F   0  0  0  0  0  0  0  0  0  0  0  0
  185.7660  177.2060  136.5230 F   0  0  0  0  0  0  0  0  0  0  0  0
  185.0100  175.4210  135.5180 F   0  0  0  0  0  0  0  0  0  0  0  0
  181.8830  176.1280  134.9560 C   0  0  0  0  0  2  0  0  0  0  0  0
  181.4560  174.9330  134.5180 N   0  0  0  0  0  0  0  0  0  0  0  0
  182.3600  174.0250  134.7450 C   0  0  0  0  0  2  0  0  0  0  0  0
  181.9530  172.5990  134.3460 C   0  0  0  0  0  2  0  0  0  0  0  0
  180.7890  172.3130  134.8730 N   0  0  0  0  0  0  0  0  0  0  0  0
  179.9910  173.1980  134.3840 C   0  0  0  0  0  2  0  0  0  0  0  0
  180.3190  174.5570  134.9640 C   0  0  0  0  0  2  0  0  0  0  0  0
  180.3900  171.1420  134.4860 C   0  0  0  0  0  1  0  0  0  0  0  0
  1  8  1  0  0  0  0
  2  1  2  0  0  0  0
  3  1  1  0  0  0  0
  5  4  1  0  0  0  0
  6 11  1  0  0  0  0
  6  5  2  0  0  0  0
  7  6  1  0  0  0  0
  8  7  2  0  0  0  0
  8  9  1  0  0  0  0
  9 10  2  0  0  0  0
 10  5  1  0  0  0  0
 11 12  3  0  0  0  0
 13 12  1  6  0  0  0
 13 14  1  0  0  0  0
 14 15  2  0  0  0  0
 15 19  1  0  0  0  0
 16 17  2  0  0  0  0
 16 15  1  0  0  0  0
 17 18  1  0  0  0  0
 18 19  2  0  0  0  0
 20 16  1  0  0  0  0
 21 20  2  0  0  0  0
 21 13  1  0  0  0  0
 22  3  1  0  0  0  0
 23 22  2  0  0  0  0
 24 23  1  0  0  0  0
 25 24  2  0  0  0  0
 25 26  1  0  0  0  0
 26 27  2  0  0  0  0
 27 22  1  0  0  0  0
 28 30  1  0  0  0  0
 28 24  1  0  0  0  0
 29 28  1  0  0  0  0
 31 28  1  0  0  0  0
 32 25  1  0  0  0  0
 33 34  1  0  0  0  0
 33 32  1  0  0  0  0
 33 38  1  0  0  0  0
 35 34  1  0  0  0  0
 35 36  1  0  0  0  0
 37 36  1  0  0  0  0
 37 38  1  0  0  0  0
 39 36  1  0  0  0  0
M  END
>  <MODEL>
3

>  <REMARK>
 VINA RESULT:      -7.5      6.090     10.501
  Name = 8tyq
  8 active torsions:
  status: ('A' for Active; 'I' for Inactive)
    1  A    between atoms: C_3  and  C_26
    2  A    between atoms: C_5  and  C_8
    3  A    between atoms: N_10  and  C_11
    4  A    between atoms: C_13  and  C_25
    5  A    between atoms: C_14  and  C_17
    6  A    between atoms: C_17  and  N_18
    7  A    between atoms: C_26  and  C_27
    8  A    between atoms: C_27  and  C_28
                            x       y       z     vdW  Elec       q    Type
                         _______ _______ _______ _____ _____    ______ ____

>  <TORSDO>
F 8

$$$$
8tyq
 OpenBabel10242410253D

 39 43  0  0  1  0  0  0  0  0999 V2000
  183.7080  178.0700  141.3450 C   0  0  0  0  0  0  0  0  0  0  0  0
  182.8680  177.2760  141.2970 O   0  0  0  0  0  0  0  0  0  0  0  0
  184.3310  178.6460  140.1500 N   0  0  0  0  0  2  0  0  0  0  0  0
  185.5040  179.3750  146.6720 C   0  0  0  0  0  1  0  0  0  0  0  0
  184.9960  179.0530  145.2840 C   0  0  0  0  0  0  0  0  0  0  0  0
  185.7820  178.3370  144.4230 C   0  0  0  0  0  0  0  0  0  0  0  0
  185.3630  178.0180  143.1630 C   0  0  0  0  0  3  0  0  0  0  0  0
  184.1210  178.4340  142.7660 C   0  0  0  0  0  0  0  0  0  0  0  0
  183.3160  179.1660  143.6050 C   0  0  0  0  0  3  0  0  0  0  0  0
  183.7560  179.4740  144.8780 C   0  0  0  0  0  3  0  0  0  0  0  0
  187.1440  177.8860  144.8910 C   0  0  0  0  0  0  0  0  0  0  0  0
  188.1980  177.5210  145.2630 C   0  0  0  0  0  0  0  0  0  0  0  0
  189.5470  177.0310  145.7450 C   0  0  2  0  0  3  0  0  0  0  0  0
  189.9110  177.0750  147.0600 C   0  0  0  0  0  3  0  0  0  0  0  0
  191.1200  176.6190  147.3410 C   0  0  0  0  0  0  0  0  0  0  0  0
  191.9820  176.1140  146.3630 C   0  0  0  0  0  0  0  0  0  0  0  0
  193.1000  175.7660  147.1570 N   0  0  0  0  0  0  0  0  0  0  0  0
  193.1200  175.9430  148.4400 N   0  0  0  0  0  0  0  0  0  0  0  0
  191.9640  176.4350  148.4800 C   0  0  0  0  0  3  0  0  0  0  0  0
  191.6640  176.0650  145.0960 N   0  0  0  0  0  0  0  0  0  0  0  0
  190.4270  176.5240  144.7630 C   0  0  0  0  0  3  0  0  0  0  0  0
  183.9140  178.2610  138.7770 C   0  0  0  0  0  0  0  0  0  0  0  0
  182.7310  178.7280  138.2560 C   0  0  0  0  0  3  0  0  0  0  0  0
  182.2870  178.3920  136.9830 C   0  0  0  0  0  0  0  0  0  0  0  0
  183.0690  177.5460  136.1590 C   0  0  0  0  0  0  0  0  0  0  0  0
  184.2840  177.1060  136.6920 C   0  0  0  0  0  3  0  0  0  0  0  0
  184.6950  177.4430  137.9870 C   0  0  0  0  0  3  0  0  0  0  0  0
  180.9600  178.9630  136.5350 C   0  0  0  0  0  0  0  0  0  0  0  0
  180.0730  177.9740  136.3080 F   0  0  0  0  0  0  0  0  0  0  0  0
  180.4780  179.7550  137.5030 F   0  0  0  0  0  0  0  0  0  0  0  0
  181.1730  179.7070  135.4350 F   0  0  0  0  0  0  0  0  0  0  0  0
  182.5890  177.2010  134.6950 C   0  0  0  0  0  2  0  0  0  0  0  0
  182.2590  175.9440  134.3560 N   0  0  0  0  0  0  0  0  0  0  0  0
  183.2290  175.1310  134.6570 C   0  0  0  0  0  2  0  0  0  0  0  0
  182.9360  173.6500  134.3750 C   0  0  0  0  0  2  0  0  0  0  0  0
  181.7930  173.3180  134.9220 N   0  0  0  0  0  0  0  0  0  0  0  0
  180.9330  174.0960  134.3630 C   0  0  0  0  0  2  0  0  0  0  0  0
  181.1520  175.5200  134.8300 C   0  0  0  0  0  2  0  0  0  0  0  0
  181.4880  172.0920  134.6320 C   0  0  0  0  0  1  0  0  0  0  0  0
  1  8  1  0  0  0  0
  2  1  2  0  0  0  0
  3  1  1  0  0  0  0
  5  4  1  0  0  0  0
  6 11  1  0  0  0  0
  6  5  2  0  0  0  0
  7  6  1  0  0  0  0
  8  7  2  0  0  0  0
  8  9  1  0  0  0  0
  9 10  2  0  0  0  0
 10  5  1  0  0  0  0
 11 12  3  0  0  0  0
 13 12  1  6  0  0  0
 13 14  1  0  0  0  0
 14 15  2  0  0  0  0
 15 19  1  0  0  0  0
 16 17  2  0  0  0  0
 16 15  1  0  0  0  0
 17 18  1  0  0  0  0
 18 19  2  0  0  0  0
 20 16  1  0  0  0  0
 21 20  2  0  0  0  0
 21 13  1  0  0  0  0
 22  3  1  0  0  0  0
 23 22  1  0  0  0  0
 24 23  2  0  0  0  0
 25 26  2  0  0  0  0
 25 24  1  0  0  0  0
 26 27  1  0  0  0  0
 27 22  2  0  0  0  0
 28 24  1  0  0  0  0
 28 30  1  0  0  0  0
 29 28  1  0  0  0  0
 31 28  1  0  0  0  0
 32 25  1  0  0  0  0
 33 34  1  0  0  0  0
 33 32  1  0  0  0  0
 33 38  1  0  0  0  0
 35 34  1  0  0  0  0
 35 36  1  0  0  0  0
 37 38  1  0  0  0  0
 37 36  1  0  0  0  0
 39 36  1  0  0  0  0
M  END
>  <MODEL>
4

>  <REMARK>
 VINA RESULT:      -7.3      6.732     10.530
  Name = 8tyq
  8 active torsions:
  status: ('A' for Active; 'I' for Inactive)
    1  A    between atoms: C_3  and  C_26
    2  A    between atoms: C_5  and  C_8
    3  A    between atoms: N_10  and  C_11
    4  A    between atoms: C_13  and  C_25
    5  A    between atoms: C_14  and  C_17
    6  A    between atoms: C_17  and  N_18
    7  A    between atoms: C_26  and  C_27
    8  A    between atoms: C_27  and  C_28
                            x       y       z     vdW  Elec       q    Type
                         _______ _______ _______ _____ _____    ______ ____

>  <TORSDO>
F 8

$$$$
8tyq
 OpenBabel10242410253D

 39 43  0  0  1  0  0  0  0  0999 V2000
  191.3320  176.2710  137.8230 C   0  0  0  0  0  0  0  0  0  0  0  0
  192.1920  176.3050  138.5960 O   0  0  0  0  0  0  0  0  0  0  0  0
  191.4820  175.6860  136.4880 N   0  0  0  0  0  2  0  0  0  0  0  0
  186.5420  178.7080  139.9260 C   0  0  0  0  0  1  0  0  0  0  0  0
  187.7840  178.0780  139.3350 C   0  0  0  0  0  0  0  0  0  0  0  0
  188.7310  177.5370  140.1630 C   0  0  0  0  0  0  0  0  0  0  0  0
  189.8640  176.9530  139.6740 C   0  0  0  0  0  3  0  0  0  0  0  0
  190.0430  176.9160  138.3170 C   0  0  0  0  0  0  0  0  0  0  0  0
  189.1160  177.4620  137.4630 C   0  0  0  0  0  3  0  0  0  0  0  0
  187.9730  178.0450  137.9780 C   0  0  0  0  0  3  0  0  0  0  0  0
  188.5020  177.5870  141.6530 C   0  0  0  0  0  0  0  0  0  0  0  0
  188.3080  177.6280  142.8120 C   0  0  0  0  0  0  0  0  0  0  0  0
  188.0370  177.6750  144.3000 C   0  0  2  0  0  3  0  0  0  0  0  0
  189.0400  177.7660  145.2210 C   0  0  0  0  0  3  0  0  0  0  0  0
  188.6620  177.7930  146.4880 C   0  0  0  0  0  0  0  0  0  0  0  0
  187.3200  177.7370  146.8760 C   0  0  0  0  0  0  0  0  0  0  0  0
  187.4540  177.8030  148.2840 N   0  0  0  0  0  0  0  0  0  0  0  0
  188.6080  177.8930  148.8660 N   0  0  0  0  0  0  0  0  0  0  0  0
  189.2530  177.8790  147.7880 C   0  0  0  0  0  3  0  0  0  0  0  0
  186.3390  177.6440  146.0190 N   0  0  0  0  0  0  0  0  0  0  0  0
  186.6840  177.6140  144.7020 C   0  0  0  0  0  3  0  0  0  0  0  0
  192.7570  175.0750  136.0310 C   0  0  0  0  0  0  0  0  0  0  0  0
  192.8900  173.7080  135.9790 C   0  0  0  0  0  3  0  0  0  0  0  0
  194.0620  173.0830  135.5690 C   0  0  0  0  0  0  0  0  0  0  0  0
  195.1780  173.8590  135.1710 C   0  0  0  0  0  0  0  0  0  0  0  0
  195.0140  175.2470  135.1980 C   0  0  0  0  0  3  0  0  0  0  0  0
  193.8290  175.8490  135.6370 C   0  0  0  0  0  3  0  0  0  0  0  0
  194.0830  171.5710  135.5720 C   0  0  0  0  0  0  0  0  0  0  0  0
  194.9160  171.1110  136.5260 F   0  0  0  0  0  0  0  0  0  0  0  0
  192.8470  171.1190  135.8320 F   0  0  0  0  0  0  0  0  0  0  0  0
  194.4460  171.1540  134.3460 F   0  0  0  0  0  0  0  0  0  0  0  0
  196.4940  173.1520  134.6610 C   0  0  0  0  0  2  0  0  0  0  0  0
  197.6100  173.1520  135.4070 N   0  0  0  0  0  0  0  0  0  0  0  0
  198.1800  174.3200  135.3590 C   0  0  0  0  0  2  0  0  0  0  0  0
  199.4350  174.4600  136.2330 C   0  0  0  0  0  2  0  0  0  0  0  0
  199.1650  174.0660  137.4520 N   0  0  0  0  0  0  0  0  0  0  0  0
  198.8040  172.8370  137.3180 C   0  0  0  0  0  2  0  0  0  0  0  0
  197.4630  172.7730  136.6180 C   0  0  0  0  0  2  0  0  0  0  0  0
  200.2320  174.1030  138.1880 C   0  0  0  0  0  1  0  0  0  0  0  0
  1  8  1  0  0  0  0
  1  2  2  0  0  0  0
  3  1  1  0  0  0  0
  5  4  1  0  0  0  0
  5  6  1  0  0  0  0
  6 11  1  0  0  0  0
  7  6  2  0  0  0  0
  8  7  1  0  0  0  0
  9 10  1  0  0  0  0
  9  8  2  0  0  0  0
 10  5  2  0  0  0  0
 11 12  3  0  0  0  0
 13 12  1  1  0  0  0
 13 21  1  0  0  0  0
 13 14  1  0  0  0  0
 14 15  2  0  0  0  0
 15 16  1  0  0  0  0
 15 19  1  0  0  0  0
 16 17  2  0  0  0  0
 17 18  1  0  0  0  0
 19 18  2  0  0  0  0
 20 16  1  0  0  0  0
 21 20  2  0  0  0  0
 22  3  1  0  0  0  0
 23 22  1  0  0  0  0
 24 28  1  0  0  0  0
 24 23  2  0  0  0  0
 25 26  2  0  0  0  0
 25 24  1  0  0  0  0
 26 27  1  0  0  0  0
 27 22  2  0  0  0  0
 28 30  1  0  0  0  0
 28 29  1  0  0  0  0
 31 28  1  0  0  0  0
 32 25  1  0  0  0  0
 32 33  1  0  0  0  0
 33 38  1  0  0  0  0
 34 33  1  0  0  0  0
 34 35  1  0  0  0  0
 35 36  1  0  0  0  0
 36 39  1  0  0  0  0
 37 36  1  0  0  0  0
 38 37  1  0  0  0  0
M  END
>  <MODEL>
5

>  <REMARK>
 VINA RESULT:      -7.1      3.369      5.528
  Name = 8tyq
  8 active torsions:
  status: ('A' for Active; 'I' for Inactive)
    1  A    between atoms: C_3  and  C_26
    2  A    between atoms: C_5  and  C_8
    3  A    between atoms: N_10  and  C_11
    4  A    between atoms: C_13  and  C_25
    5  A    between atoms: C_14  and  C_17
    6  A    between atoms: C_17  and  N_18
    7  A    between atoms: C_26  and  C_27
    8  A    between atoms: C_27  and  C_28
                            x       y       z     vdW  Elec       q    Type
                         _______ _______ _______ _____ _____    ______ ____

>  <TORSDO>
F 8

$$$$
8tyq
 OpenBabel10242410253D

 39 43  0  0  1  0  0  0  0  0999 V2000
  189.8470  176.6410  139.7100 C   0  0  0  0  0  0  0  0  0  0  0  0
  190.4950  176.1070  140.5060 O   0  0  0  0  0  0  0  0  0  0  0  0
  188.5900  177.3220  140.0300 N   0  0  0  0  0  2  0  0  0  0  0  0
  192.1930  176.1540  134.4600 C   0  0  0  0  0  1  0  0  0  0  0  0
  191.5410  176.2930  135.8180 C   0  0  0  0  0  0  0  0  0  0  0  0
  192.2680  176.0390  136.9490 C   0  0  0  0  0  0  0  0  0  0  0  0
  191.7230  176.1580  138.1960 C   0  0  0  0  0  3  0  0  0  0  0  0
  190.4140  176.5420  138.2990 C   0  0  0  0  0  0  0  0  0  0  0  0
  189.6560  176.7920  137.1800 C   0  0  0  0  0  3  0  0  0  0  0  0
  190.2280  176.6710  135.9270 C   0  0  0  0  0  3  0  0  0  0  0  0
  193.7110  175.6240  136.8040 C   0  0  0  0  0  0  0  0  0  0  0  0
  194.8340  175.2910  136.7040 C   0  0  0  0  0  0  0  0  0  0  0  0
  196.2750  174.8500  136.5570 C   0  0  2  0  0  3  0  0  0  0  0  0
  196.7350  173.6770  137.0830 C   0  0  0  0  0  3  0  0  0  0  0  0
  198.0160  173.4180  136.8840 C   0  0  0  0  0  0  0  0  0  0  0  0
  198.8600  174.2800  136.1780 C   0  0  0  0  0  0  0  0  0  0  0  0
  200.0780  173.5620  136.2440 N   0  0  0  0  0  0  0  0  0  0  0  0
  200.1770  172.4190  136.8460 N   0  0  0  0  0  0  0  0  0  0  0  0
  198.9690  172.3960  137.1910 C   0  0  0  0  0  3  0  0  0  0  0  0
  198.4500  175.4110  135.6690 N   0  0  0  0  0  0  0  0  0  0  0  0
  197.1360  175.7170  135.8480 C   0  0  0  0  0  3  0  0  0  0  0  0
  188.0570  177.3900  141.4150 C   0  0  0  0  0  0  0  0  0  0  0  0
  186.9260  178.1230  141.6860 C   0  0  0  0  0  3  0  0  0  0  0  0
  186.3900  178.2300  142.9640 C   0  0  0  0  0  0  0  0  0  0  0  0
  187.0040  177.5600  144.0500 C   0  0  0  0  0  0  0  0  0  0  0  0
  188.1340  176.7930  143.7510 C   0  0  0  0  0  3  0  0  0  0  0  0
  188.6640  176.7210  142.4570 C   0  0  0  0  0  3  0  0  0  0  0  0
  185.1490  179.0790  143.1300 C   0  0  0  0  0  0  0  0  0  0  0  0
  184.0570  178.3000  143.2520 F   0  0  0  0  0  0  0  0  0  0  0  0
  185.2730  179.8180  144.2420 F   0  0  0  0  0  0  0  0  0  0  0  0
  185.0610  179.9040  142.0710 F   0  0  0  0  0  0  0  0  0  0  0  0
  186.3700  177.6420  145.4940 C   0  0  0  0  0  2  0  0  0  0  0  0
  187.1370  177.5350  146.5900 N   0  0  0  0  0  0  0  0  0  0  0  0
  188.3950  177.5310  146.2570 C   0  0  0  0  0  2  0  0  0  0  0  0
  189.3730  177.4810  147.4410 C   0  0  0  0  0  2  0  0  0  0  0  0
  189.0680  178.4210  148.3000 N   0  0  0  0  0  0  0  0  0  0  0  0
  187.8610  178.1470  148.6580 C   0  0  0  0  0  2  0  0  0  0  0  0
  186.9160  178.4010  147.5030 C   0  0  0  0  0  2  0  0  0  0  0  0
  189.8330  178.3480  149.3440 C   0  0  0  0  0  1  0  0  0  0  0  0
  1  3  1  0  0  0  0
  1  2  2  0  0  0  0
  3 22  1  0  0  0  0
  4  5  1  0  0  0  0
  5 10  2  0  0  0  0
  5  6  1  0  0  0  0
  6  7  2  0  0  0  0
  7  8  1  0  0  0  0
  8  1  1  0  0  0  0
  9  8  2  0  0  0  0
 10  9  1  0  0  0  0
 11  6  1  0  0  0  0
 12 11  3  0  0  0  0
 13 12  1  1  0  0  0
 13 14  1  0  0  0  0
 15 14  2  0  0  0  0
 15 19  1  0  0  0  0
 16 17  2  0  0  0  0
 16 15  1  0  0  0  0
 17 18  1  0  0  0  0
 18 19  2  0  0  0  0
 20 21  2  0  0  0  0
 20 16  1  0  0  0  0
 21 13  1  0  0  0  0
 22 23  2  0  0  0  0
 22 27  1  0  0  0  0
 23 24  1  0  0  0  0
 24 28  1  0  0  0  0
 24 25  2  0  0  0  0
 25 32  1  0  0  0  0
 26 25  1  0  0  0  0
 27 26  2  0  0  0  0
 28 29  1  0  0  0  0
 28 30  1  0  0  0  0
 31 28  1  0  0  0  0
 32 33  1  0  0  0  0
 33 38  1  0  0  0  0
 34 33  1  0  0  0  0
 34 35  1  0  0  0  0
 35 36  1  0  0  0  0
 36 37  1  0  0  0  0
 36 39  1  0  0  0  0
 38 37  1  0  0  0  0
M  END
>  <MODEL>
6

>  <REMARK>
 VINA RESULT:      -6.4      3.975     12.732
  Name = 8tyq
  8 active torsions:
  status: ('A' for Active; 'I' for Inactive)
    1  A    between atoms: C_3  and  C_26
    2  A    between atoms: C_5  and  C_8
    3  A    between atoms: N_10  and  C_11
    4  A    between atoms: C_13  and  C_25
    5  A    between atoms: C_14  and  C_17
    6  A    between atoms: C_17  and  N_18
    7  A    between atoms: C_26  and  C_27
    8  A    between atoms: C_27  and  C_28
                            x       y       z     vdW  Elec       q    Type
                         _______ _______ _______ _____ _____    ______ ____

>  <TORSDO>
F 8

$$$$
8tyq
 OpenBabel10242410253D

 39 43  0  0  1  0  0  0  0  0999 V2000
  186.3130  178.7840  141.2300 C   0  0  0  0  0  0  0  0  0  0  0  0
  185.9100  179.6630  141.8660 O   0  0  0  0  0  0  0  0  0  0  0  0
  185.5500  178.1760  140.1360 N   0  0  0  0  0  2  0  0  0  0  0  0
  191.6080  176.9540  142.6160 C   0  0  0  0  0  1  0  0  0  0  0  0
  190.2130  177.4440  142.2930 C   0  0  0  0  0  0  0  0  0  0  0  0
  189.7560  177.3930  141.0050 C   0  0  0  0  0  0  0  0  0  0  0  0
  188.5020  177.8170  140.6690 C   0  0  0  0  0  3  0  0  0  0  0  0
  187.6940  178.3050  141.6590 C   0  0  0  0  0  0  0  0  0  0  0  0
  188.1310  178.3800  142.9600 C   0  0  0  0  0  3  0  0  0  0  0  0
  189.4010  177.9400  143.2800 C   0  0  0  0  0  3  0  0  0  0  0  0
  190.6680  176.8430  139.9350 C   0  0  0  0  0  0  0  0  0  0  0  0
  191.3720  176.4010  139.1040 C   0  0  0  0  0  0  0  0  0  0  0  0
  192.2740  175.8110  138.0410 C   0  0  2  0  0  3  0  0  0  0  0  0
  191.9970  174.6220  137.4290 C   0  0  0  0  0  3  0  0  0  0  0  0
  192.8730  174.2210  136.5220 C   0  0  0  0  0  0  0  0  0  0  0  0
  194.0130  174.9600  136.1970 C   0  0  0  0  0  0  0  0  0  0  0  0
  194.5880  174.1290  135.2060 N   0  0  0  0  0  0  0  0  0  0  0  0
  194.0400  173.0140  134.8360 N   0  0  0  0  0  0  0  0  0  0  0  0
  193.0700  173.1250  135.6260 C   0  0  0  0  0  3  0  0  0  0  0  0
  194.3070  176.0980  136.7690 N   0  0  0  0  0  0  0  0  0  0  0  0
  193.4310  176.5490  137.7080 C   0  0  0  0  0  3  0  0  0  0  0  0
  184.1990  178.6580  139.7500 C   0  0  0  0  0  0  0  0  0  0  0  0
  183.1910  178.7150  140.6830 C   0  0  0  0  0  3  0  0  0  0  0  0
  181.9070  179.1470  140.3750 C   0  0  0  0  0  0  0  0  0  0  0  0
  181.5950  179.5640  139.0580 C   0  0  0  0  0  0  0  0  0  0  0  0
  182.6400  179.5310  138.1300 C   0  0  0  0  0  3  0  0  0  0  0  0
  183.9180  179.0700  138.4630 C   0  0  0  0  0  3  0  0  0  0  0  0
  180.8860  179.1480  141.4910 C   0  0  0  0  0  0  0  0  0  0  0  0
  180.2470  180.3330  141.5450 F   0  0  0  0  0  0  0  0  0  0  0  0
  179.9820  178.1860  141.2550 F   0  0  0  0  0  0  0  0  0  0  0  0
  181.5230  178.8690  142.6420 F   0  0  0  0  0  0  0  0  0  0  0  0
  180.1500  180.1000  138.7170 C   0  0  0  0  0  2  0  0  0  0  0  0
  179.9820  181.1990  137.9650 N   0  0  0  0  0  0  0  0  0  0  0  0
  180.6240  182.2020  138.4890 C   0  0  0  0  0  2  0  0  0  0  0  0
  180.5600  183.5030  137.6750 C   0  0  0  0  0  2  0  0  0  0  0  0
  180.9030  183.2600  136.4350 N   0  0  0  0  0  0  0  0  0  0  0  0
  180.0420  182.3920  136.0290 C   0  0  0  0  0  2  0  0  0  0  0  0
  180.2790  181.0710  136.7290 C   0  0  0  0  0  2  0  0  0  0  0  0
  180.7820  184.3290  135.7120 C   0  0  0  0  0  1  0  0  0  0  0  0
  1  8  1  0  0  0  0
  1  2  2  0  0  0  0
  3  1  1  0  0  0  0
  5  4  1  0  0  0  0
  5 10  1  0  0  0  0
  6  5  2  0  0  0  0
  7  6  1  0  0  0  0
  7  8  2  0  0  0  0
  8  9  1  0  0  0  0
  9 10  2  0  0  0  0
 11  6  1  0  0  0  0
 12 11  3  0  0  0  0
 13 12  1  1  0  0  0
 14 13  1  0  0  0  0
 15 14  2  0  0  0  0
 16 15  1  0  0  0  0
 16 20  1  0  0  0  0
 17 16  2  0  0  0  0
 18 17  1  0  0  0  0
 18 19  2  0  0  0  0
 19 15  1  0  0  0  0
 20 21  2  0  0  0  0
 21 13  1  0  0  0  0
 22  3  1  0  0  0  0
 22 23  1  0  0  0  0
 24 23  2  0  0  0  0
 24 28  1  0  0  0  0
 25 24  1  0  0  0  0
 26 27  1  0  0  0  0
 26 25  2  0  0  0  0
 27 22  2  0  0  0  0
 28 29  1  0  0  0  0
 28 31  1  0  0  0  0
 30 28  1  0  0  0  0
 32 25  1  0  0  0  0
 33 34  1  0  0  0  0
 33 32  1  0  0  0  0
 35 34  1  0  0  0  0
 36 35  1  0  0  0  0
 37 36  1  0  0  0  0
 37 38  1  0  0  0  0
 38 33  1  0  0  0  0
 39 36  1  0  0  0  0
M  END
>  <MODEL>
7

>  <REMARK>
 VINA RESULT:      -6.4      4.508     12.367
  Name = 8tyq
  8 active torsions:
  status: ('A' for Active; 'I' for Inactive)
    1  A    between atoms: C_3  and  C_26
    2  A    between atoms: C_5  and  C_8
    3  A    between atoms: N_10  and  C_11
    4  A    between atoms: C_13  and  C_25
    5  A    between atoms: C_14  and  C_17
    6  A    between atoms: C_17  and  N_18
    7  A    between atoms: C_26  and  C_27
    8  A    between atoms: C_27  and  C_28
                            x       y       z     vdW  Elec       q    Type
                         _______ _______ _______ _____ _____    ______ ____

>  <TORSDO>
F 8

$$$$
8tyq
 OpenBabel10242410253D

 39 43  0  0  1  0  0  0  0  0999 V2000
  182.8900  177.2550  140.0220 C   0  0  0  0  0  0  0  0  0  0  0  0
  183.3520  177.8100  139.1170 O   0  0  0  0  0  0  0  0  0  0  0  0
  182.0440  176.0670  139.8810 N   0  0  0  0  0  2  0  0  0  0  0  0
  184.3880  179.6200  145.0680 C   0  0  0  0  0  1  0  0  0  0  0  0
  183.9570  179.0180  143.7490 C   0  0  0  0  0  0  0  0  0  0  0  0
  184.8270  178.2310  143.0450 C   0  0  0  0  0  0  0  0  0  0  0  0
  184.4790  177.6620  141.8530 C   0  0  0  0  0  3  0  0  0  0  0  0
  183.2230  177.8960  141.3630 C   0  0  0  0  0  0  0  0  0  0  0  0
  182.3330  178.6930  142.0420 C   0  0  0  0  0  3  0  0  0  0  0  0
  182.7020  179.2550  143.2490 C   0  0  0  0  0  3  0  0  0  0  0  0
  186.2030  177.9850  143.6140 C   0  0  0  0  0  0  0  0  0  0  0  0
  187.2700  177.8020  144.0710 C   0  0  0  0  0  0  0  0  0  0  0  0
  188.6410  177.5830  144.6740 C   0  0  2  0  0  3  0  0  0  0  0  0
  188.8120  177.1490  145.9570 C   0  0  0  0  0  3  0  0  0  0  0  0
  190.0640  177.0050  146.3570 C   0  0  0  0  0  0  0  0  0  0  0  0
  191.1570  177.2710  145.5260 C   0  0  0  0  0  0  0  0  0  0  0  0
  192.2280  176.9630  146.3990 N   0  0  0  0  0  0  0  0  0  0  0  0
  192.0350  176.5530  147.6130 N   0  0  0  0  0  0  0  0  0  0  0  0
  190.7820  176.6010  147.5260 C   0  0  0  0  0  3  0  0  0  0  0  0
  191.0250  177.6920  144.2960 N   0  0  0  0  0  0  0  0  0  0  0  0
  189.7520  177.8530  143.8430 C   0  0  0  0  0  3  0  0  0  0  0  0
  181.7280  175.4730  138.5570 C   0  0  0  0  0  0  0  0  0  0  0  0
  182.5760  175.6620  137.4920 C   0  0  0  0  0  3  0  0  0  0  0  0
  182.3250  175.1390  136.2290 C   0  0  0  0  0  0  0  0  0  0  0  0
  181.1610  174.3650  136.0010 C   0  0  0  0  0  0  0  0  0  0  0  0
  180.3260  174.1540  137.1020 C   0  0  0  0  0  3  0  0  0  0  0  0
  180.5940  174.7120  138.3570 C   0  0  0  0  0  3  0  0  0  0  0  0
  183.3320  175.4340  135.1410 C   0  0  0  0  0  0  0  0  0  0  0  0
  184.5140  175.7990  135.6770 F   0  0  0  0  0  0  0  0  0  0  0  0
  183.5210  174.3250  134.4100 F   0  0  0  0  0  0  0  0  0  0  0  0
  182.8240  176.3930  134.3460 F   0  0  0  0  0  0  0  0  0  0  0  0
  180.8980  173.7300  134.5800 C   0  0  0  0  0  2  0  0  0  0  0  0
  180.7940  172.4010  134.4270 N   0  0  0  0  0  0  0  0  0  0  0  0
  181.9740  171.8530  134.4600 C   0  0  0  0  0  2  0  0  0  0  0  0
  181.9750  170.3210  134.3630 C   0  0  0  0  0  2  0  0  0  0  0  0
  181.1500  169.8260  135.2510 N   0  0  0  0  0  0  0  0  0  0  0  0
  180.0050  170.3290  134.9410 C   0  0  0  0  0  2  0  0  0  0  0  0
  180.0030  171.8130  135.2400 C   0  0  0  0  0  2  0  0  0  0  0  0
  181.0760  168.5370  135.1350 C   0  0  0  0  0  1  0  0  0  0  0  0
  1  8  1  0  0  0  0
  2  1  2  0  0  0  0
  3  1  1  0  0  0  0
  5  4  1  0  0  0  0
  6 11  1  0  0  0  0
  6  5  2  0  0  0  0
  7  6  1  0  0  0  0
  8  7  2  0  0  0  0
  8  9  1  0  0  0  0
  9 10  2  0  0  0  0
 10  5  1  0  0  0  0
 11 12  3  0  0  0  0
 13 12  1  1  0  0  0
 13 14  1  0  0  0  0
 14 15  2  0  0  0  0
 15 19  1  0  0  0  0
 16 15  1  0  0  0  0
 16 17  2  0  0  0  0
 17 18  1  0  0  0  0
 19 18  2  0  0  0  0
 20 16  1  0  0  0  0
 21 20  2  0  0  0  0
 21 13  1  0  0  0  0
 22  3  1  0  0  0  0
 23 22  2  0  0  0  0
 24 23  1  0  0  0  0
 25 24  2  0  0  0  0
 25 26  1  0  0  0  0
 26 27  2  0  0  0  0
 27 22  1  0  0  0  0
 28 29  1  0  0  0  0
 28 24  1  0  0  0  0
 30 28  1  0  0  0  0
 31 28  1  0  0  0  0
 32 25  1  0  0  0  0
 33 34  1  0  0  0  0
 33 32  1  0  0  0  0
 33 38  1  0  0  0  0
 35 34  1  0  0  0  0
 35 36  1  0  0  0  0
 37 38  1  0  0  0  0
 37 36  1  0  0  0  0
 39 36  1  0  0  0  0
M  END
>  <MODEL>
8

>  <REMARK>
 VINA RESULT:      -6.3      6.195     10.791
  Name = 8tyq
  8 active torsions:
  status: ('A' for Active; 'I' for Inactive)
    1  A    between atoms: C_3  and  C_26
    2  A    between atoms: C_5  and  C_8
    3  A    between atoms: N_10  and  C_11
    4  A    between atoms: C_13  and  C_25
    5  A    between atoms: C_14  and  C_17
    6  A    between atoms: C_17  and  N_18
    7  A    between atoms: C_26  and  C_27
    8  A    between atoms: C_27  and  C_28
                            x       y       z     vdW  Elec       q    Type
                         _______ _______ _______ _____ _____    ______ ____

>  <TORSDO>
F 8

$$$$
8tyq
 OpenBabel10242410253D

 39 43  0  0  1  0  0  0  0  0999 V2000
  187.0160  177.7810  138.1240 C   0  0  0  0  0  0  0  0  0  0  0  0
  186.6760  178.7760  138.6080 O   0  0  0  0  0  0  0  0  0  0  0  0
  186.1140  176.9200  137.3540 N   0  0  0  0  0  2  0  0  0  0  0  0
  192.4920  176.4420  139.3600 C   0  0  0  0  0  1  0  0  0  0  0  0
  191.0670  176.7950  138.9950 C   0  0  0  0  0  0  0  0  0  0  0  0
  190.1190  176.8990  139.9770 C   0  0  0  0  0  0  0  0  0  0  0  0
  188.8230  177.2220  139.6940 C   0  0  0  0  0  3  0  0  0  0  0  0
  188.4780  177.4430  138.3890 C   0  0  0  0  0  0  0  0  0  0  0  0
  189.4050  177.3330  137.3810 C   0  0  0  0  0  3  0  0  0  0  0  0
  190.7130  177.0110  137.6880 C   0  0  0  0  0  3  0  0  0  0  0  0
  190.5320  176.6560  141.4080 C   0  0  0  0  0  0  0  0  0  0  0  0
  190.8610  176.4530  142.5180 C   0  0  0  0  0  0  0  0  0  0  0  0
  191.2910  176.2130  143.9500 C   0  0  2  0  0  3  0  0  0  0  0  0
  191.0270  177.1060  144.9490 C   0  0  0  0  0  3  0  0  0  0  0  0
  191.4640  176.7730  146.1510 C   0  0  0  0  0  0  0  0  0  0  0  0
  192.1510  175.5810  146.4020 C   0  0  0  0  0  0  0  0  0  0  0  0
  192.3800  175.7010  147.7930 N   0  0  0  0  0  0  0  0  0  0  0  0
  191.9750  176.7250  148.4760 N   0  0  0  0  0  0  0  0  0  0  0  0
  191.4650  177.2980  147.4810 C   0  0  0  0  0  3  0  0  0  0  0  0
  192.4220  174.7100  145.4660 N   0  0  0  0  0  0  0  0  0  0  0  0
  191.9890  175.0130  144.2110 C   0  0  0  0  0  3  0  0  0  0  0  0
  184.6890  177.2700  137.1240 C   0  0  0  0  0  0  0  0  0  0  0  0
  183.8220  177.3750  138.1850 C   0  0  0  0  0  3  0  0  0  0  0  0
  182.4770  177.6890  138.0270 C   0  0  0  0  0  0  0  0  0  0  0  0
  181.9520  177.9300  136.7340 C   0  0  0  0  0  0  0  0  0  0  0  0
  182.8550  177.8530  135.6700 C   0  0  0  0  0  3  0  0  0  0  0  0
  184.1990  177.5120  135.8570 C   0  0  0  0  0  3  0  0  0  0  0  0
  181.6270  177.7590  139.2760 C   0  0  0  0  0  0  0  0  0  0  0  0
  180.4470  177.1380  139.0790 F   0  0  0  0  0  0  0  0  0  0  0  0
  182.2720  177.1400  140.2760 F   0  0  0  0  0  0  0  0  0  0  0  0
  181.4640  179.0530  139.6020 F   0  0  0  0  0  0  0  0  0  0  0  0
  180.4360  178.3340  136.5560 C   0  0  0  0  0  2  0  0  0  0  0  0
  180.0940  179.5710  136.1620 N   0  0  0  0  0  0  0  0  0  0  0  0
  180.5420  180.4510  137.0090 C   0  0  0  0  0  2  0  0  0  0  0  0
  180.2690  181.9120  136.6230 C   0  0  0  0  0  2  0  0  0  0  0  0
  180.6720  182.1230  135.3950 N   0  0  0  0  0  0  0  0  0  0  0  0
  179.9820  181.2990  134.6860 C   0  0  0  0  0  2  0  0  0  0  0  0
  180.4320  179.8810  134.9690 C   0  0  0  0  0  2  0  0  0  0  0  0
  180.3810  183.3300  135.0220 C   0  0  0  0  0  1  0  0  0  0  0  0
  1  8  1  0  0  0  0
  1  2  2  0  0  0  0
  3  1  1  0  0  0  0
  5  4  1  0  0  0  0
  5  6  1  0  0  0  0
  6 11  1  0  0  0  0
  7  6  2  0  0  0  0
  8  7  1  0  0  0  0
  9 10  1  0  0  0  0
  9  8  2  0  0  0  0
 10  5  2  0  0  0  0
 11 12  3  0  0  0  0
 13 12  1  6  0  0  0
 13 21  1  0  0  0  0
 13 14  1  0  0  0  0
 14 15  2  0  0  0  0
 15 16  1  0  0  0  0
 15 19  1  0  0  0  0
 16 17  2  0  0  0  0
 17 18  1  0  0  0  0
 19 18  2  0  0  0  0
 20 16  1  0  0  0  0
 21 20  2  0  0  0  0
 22  3  1  0  0  0  0
 22 23  1  0  0  0  0
 24 23  2  0  0  0  0
 24 28  1  0  0  0  0
 25 24  1  0  0  0  0
 26 27  1  0  0  0  0
 26 25  2  0  0  0  0
 27 22  2  0  0  0  0
 28 31  1  0  0  0  0
 28 30  1  0  0  0  0
 29 28  1  0  0  0  0
 32 25  1  0  0  0  0
 33 32  1  0  0  0  0
 33 34  1  0  0  0  0
 35 34  1  0  0  0  0
 36 35  1  0  0  0  0
 37 38  1  0  0  0  0
 37 36  1  0  0  0  0
 38 33  1  0  0  0  0
 39 36  1  0  0  0  0
M  END
>  <MODEL>
9

>  <REMARK>
 VINA RESULT:      -6.1      5.355     11.552
  Name = 8tyq
  8 active torsions:
  status: ('A' for Active; 'I' for Inactive)
    1  A    between atoms: C_3  and  C_26
    2  A    between atoms: C_5  and  C_8
    3  A    between atoms: N_10  and  C_11
    4  A    between atoms: C_13  and  C_25
    5  A    between atoms: C_14  and  C_17
    6  A    between atoms: C_17  and  N_18
    7  A    between atoms: C_26  and  C_27
    8  A    between atoms: C_27  and  C_28
                            x       y       z     vdW  Elec       q    Type
                         _______ _______ _______ _____ _____    ______ ____

>  <TORSDO>
F 8

$$$$
