8smc
 OpenBabel10242410243D

 24 25  0  0  0  0  0  0  0  0999 V2000
  189.7730  178.0230  144.7900 C   0  0  0  0  0  1  0  0  0  0  0  0
  188.6270  177.2500  145.2260 N   0  0  0  0  0  2  0  0  0  0  0  0
  187.4160  177.9190  145.6510 C   0  0  0  0  0  0  0  0  0  0  0  0
  186.5740  178.4230  144.7700 N   0  0  0  0  0  4  0  0  0  0  0  0
  185.4670  179.0230  145.1440 C   0  0  0  0  0  0  0  0  0  0  0  0
  184.5330  179.6000  144.1900 N   0  0  0  0  0  2  0  0  0  0  0  0
  185.1790  179.1470  146.4260 N   0  0  0  0  0  0  0  0  0  0  0  0
  185.9630  178.6700  147.3670 C   0  0  0  0  0  3  0  0  0  0  0  0
  187.1310  178.0270  146.9970 C   0  0  0  0  0  0  0  0  0  0  0  0
  184.1050  179.0610  142.9080 C   0  0  0  0  0  0  0  0  0  0  0  0
  182.7380  178.3900  141.3690 N   0  0  0  0  0  0  0  0  0  0  0  0
  182.7860  178.8540  142.5860 C   0  0  0  0  0  3  0  0  0  0  0  0
  183.9950  178.3010  140.8510 N   0  0  0  0  0  0  0  0  0  0  0  0
  184.8540  178.7240  141.7790 C   0  0  0  0  0  0  0  0  0  0  0  0
  186.3670  178.7700  141.5760 C   0  0  0  0  0  1  0  0  0  0  0  0
  181.5300  178.0280  140.6560 C   0  0  0  0  0  0  0  0  0  0  0  0
  181.1650  179.1350  139.6670 C   0  0  0  0  0  1  0  0  0  0  0  0
  180.3930  177.8520  141.6600 C   0  0  0  0  0  1  0  0  0  0  0  0
  181.9080  175.7340  139.3560 N   0  0  0  0  0  0  0  0  0  0  0  0
  181.7450  176.7130  139.9090 C   0  0  0  0  0  0  0  0  0  0  0  0
  188.0890  177.4570  148.0270 C   0  0  0  0  0  0  0  0  0  0  0  0
  189.2300  178.2000  148.0290 F   0  0  0  0  0  0  0  0  0  0  0  0
  187.5060  177.5230  149.2570 F   0  0  0  0  0  0  0  0  0  0  0  0
  188.3810  176.1600  147.7310 F   0  0  0  0  0  0  0  0  0  0  0  0
  1  2  1  0  0  0  0
  2  3  1  0  0  0  0
  3  9  1  0  0  0  0
  4  5  2  0  0  0  0
  4  3  2  0  0  0  0
  5  7  2  0  0  0  0
  6  5  1  0  0  0  0
  7  8  1  0  0  0  0
  9  8  2  0  0  0  0
  9 21  1  0  0  0  0
 10  6  1  0  0  0  0
 11 12  1  0  0  0  0
 12 10  2  0  0  0  0
 13 11  1  0  0  0  0
 13 14  2  0  0  0  0
 14 10  1  0  0  0  0
 15 14  1  0  0  0  0
 16 11  1  0  0  0  0
 16 18  1  0  0  0  0
 17 16  1  0  0  0  0
 19 20  3  0  0  0  0
 20 16  1  0  0  0  0
 21 22  1  0  0  0  0
 21 23  1  0  0  0  0
 24 21  1  0  0  0  0
M  END
>  <MODEL>
1

>  <REMARK>
 VINA RESULT:      -7.4      0.000      0.000
  Name = 8smc
  4 active torsions:
  status: ('A' for Active; 'I' for Inactive)
    1  A    between atoms: N_6  and  C_7
    2  A    between atoms: N_8  and  C_15
    3  A    between atoms: C_15  and  C_18
    4  A    between atoms: C_20  and  C_21
                            x       y       z     vdW  Elec       q    Type
                         _______ _______ _______ _____ _____    ______ ____

>  <TORSDO>
F 4

$$$$
8smc
 OpenBabel10242410243D

 24 25  0  0  0  0  0  0  0  0999 V2000
  189.5710  178.0640  144.3890 C   0  0  0  0  0  1  0  0  0  0  0  0
  188.4730  177.2860  144.9270 N   0  0  0  0  0  2  0  0  0  0  0  0
  187.3400  177.9490  145.5350 C   0  0  0  0  0  0  0  0  0  0  0  0
  186.4040  178.5100  144.7930 N   0  0  0  0  0  4  0  0  0  0  0  0
  185.3660  179.1060  145.3340 C   0  0  0  0  0  0  0  0  0  0  0  0
  184.3310  179.7450  144.5350 N   0  0  0  0  0  2  0  0  0  0  0  0
  185.2430  179.1670  146.6460 N   0  0  0  0  0  0  0  0  0  0  0  0
  186.1290  178.6300  147.4560 C   0  0  0  0  0  3  0  0  0  0  0  0
  187.2280  177.9910  146.9090 C   0  0  0  0  0  0  0  0  0  0  0  0
  183.7350  179.2790  143.2930 C   0  0  0  0  0  0  0  0  0  0  0  0
  183.6290  178.7230  141.2020 N   0  0  0  0  0  0  0  0  0  0  0  0
  184.4340  179.1950  142.1130 C   0  0  0  0  0  3  0  0  0  0  0  0
  182.4070  178.4640  141.7450 N   0  0  0  0  0  0  0  0  0  0  0  0
  182.4540  178.7860  143.0380 C   0  0  0  0  0  0  0  0  0  0  0  0
  181.2690  178.6430  143.9920 C   0  0  0  0  0  1  0  0  0  0  0  0
  183.9750  178.4940  139.8140 C   0  0  0  0  0  0  0  0  0  0  0  0
  183.3320  179.5710  138.9410 C   0  0  0  0  0  1  0  0  0  0  0  0
  183.4520  177.1230  139.3910 C   0  0  0  0  0  1  0  0  0  0  0  0
  186.6220  178.5490  139.5250 N   0  0  0  0  0  0  0  0  0  0  0  0
  185.4930  178.5240  139.6470 C   0  0  0  0  0  0  0  0  0  0  0  0
  188.2960  177.3550  147.7810 C   0  0  0  0  0  0  0  0  0  0  0  0
  187.8470  177.3020  149.0650 F   0  0  0  0  0  0  0  0  0  0  0  0
  188.5340  176.0890  147.3340 F   0  0  0  0  0  0  0  0  0  0  0  0
  189.4450  178.0830  147.7210 F   0  0  0  0  0  0  0  0  0  0  0  0
  1  2  1  0  0  0  0
  2  3  1  0  0  0  0
  3  9  1  0  0  0  0
  4  5  2  0  0  0  0
  4  3  2  0  0  0  0
  5  7  2  0  0  0  0
  6  5  1  0  0  0  0
  7  8  1  0  0  0  0
  9  8  2  0  0  0  0
  9 21  1  0  0  0  0
 10  6  1  0  0  0  0
 11 13  1  0  0  0  0
 11 12  1  0  0  0  0
 12 10  2  0  0  0  0
 13 14  2  0  0  0  0
 14 10  1  0  0  0  0
 14 15  1  0  0  0  0
 16 11  1  0  0  0  0
 17 16  1  0  0  0  0
 18 16  1  0  0  0  0
 19 20  3  0  0  0  0
 20 16  1  0  0  0  0
 21 22  1  0  0  0  0
 23 21  1  0  0  0  0
 24 21  1  0  0  0  0
M  END
>  <MODEL>
2

>  <REMARK>
 VINA RESULT:      -7.4      1.332      2.398
  Name = 8smc
  4 active torsions:
  status: ('A' for Active; 'I' for Inactive)
    1  A    between atoms: N_6  and  C_7
    2  A    between atoms: N_8  and  C_15
    3  A    between atoms: C_15  and  C_18
    4  A    between atoms: C_20  and  C_21
                            x       y       z     vdW  Elec       q    Type
                         _______ _______ _______ _____ _____    ______ ____

>  <TORSDO>
F 4

$$$$
8smc
 OpenBabel10242410243D

 24 25  0  0  0  0  0  0  0  0999 V2000
  183.9470  178.3450  143.5070 C   0  0  0  0  0  1  0  0  0  0  0  0
  185.1810  179.0240  143.8460 N   0  0  0  0  0  2  0  0  0  0  0  0
  186.3730  178.2620  144.1500 C   0  0  0  0  0  0  0  0  0  0  0  0
  187.0930  177.7180  143.1880 N   0  0  0  0  0  4  0  0  0  0  0  0
  188.1820  177.0320  143.4510 C   0  0  0  0  0  0  0  0  0  0  0  0
  188.9820  176.4100  142.4070 N   0  0  0  0  0  2  0  0  0  0  0  0
  188.5740  176.8610  144.6990 N   0  0  0  0  0  0  0  0  0  0  0  0
  187.9160  177.3730  145.7150 C   0  0  0  0  0  3  0  0  0  0  0  0
  186.7700  178.1060  145.4620 C   0  0  0  0  0  0  0  0  0  0  0  0
  189.3300  176.9440  141.0990 C   0  0  0  0  0  0  0  0  0  0  0  0
  189.0280  177.6520  139.0760 N   0  0  0  0  0  0  0  0  0  0  0  0
  188.4060  177.1460  140.1040 C   0  0  0  0  0  3  0  0  0  0  0  0
  190.3500  177.8190  139.3630 N   0  0  0  0  0  0  0  0  0  0  0  0
  190.5560  177.4010  140.6120 C   0  0  0  0  0  0  0  0  0  0  0  0
  191.9190  177.4240  141.2990 C   0  0  0  0  0  1  0  0  0  0  0  0
  188.4140  178.0000  137.8110 C   0  0  0  0  0  0  0  0  0  0  0  0
  188.5860  176.8480  136.8220 C   0  0  0  0  0  1  0  0  0  0  0  0
  189.0930  179.2490  137.2540 C   0  0  0  0  0  1  0  0  0  0  0  0
  185.8230  178.5050  138.1710 N   0  0  0  0  0  0  0  0  0  0  0  0
  186.9280  178.2900  138.0190 C   0  0  0  0  0  0  0  0  0  0  0  0
  185.9520  178.7210  146.5840 C   0  0  0  0  0  0  0  0  0  0  0  0
  185.6830  180.0190  146.2760 F   0  0  0  0  0  0  0  0  0  0  0  0
  184.7810  178.0340  146.7050 F   0  0  0  0  0  0  0  0  0  0  0  0
  186.6420  178.6570  147.7570 F   0  0  0  0  0  0  0  0  0  0  0  0
  1  2  1  0  0  0  0
  2  3  1  0  0  0  0
  3  9  1  0  0  0  0
  4  5  2  0  0  0  0
  4  3  2  0  0  0  0
  5  7  2  0  0  0  0
  6  5  1  0  0  0  0
  7  8  1  0  0  0  0
  9  8  2  0  0  0  0
  9 21  1  0  0  0  0
 10  6  1  0  0  0  0
 11 13  1  0  0  0  0
 11 12  1  0  0  0  0
 12 10  2  0  0  0  0
 13 14  2  0  0  0  0
 14 10  1  0  0  0  0
 14 15  1  0  0  0  0
 16 20  1  0  0  0  0
 16 11  1  0  0  0  0
 17 16  1  0  0  0  0
 18 16  1  0  0  0  0
 20 19  3  0  0  0  0
 21 23  1  0  0  0  0
 21 24  1  0  0  0  0
 22 21  1  0  0  0  0
M  END
>  <MODEL>
3

>  <REMARK>
 VINA RESULT:      -7.2      3.442      5.394
  Name = 8smc
  4 active torsions:
  status: ('A' for Active; 'I' for Inactive)
    1  A    between atoms: N_6  and  C_7
    2  A    between atoms: N_8  and  C_15
    3  A    between atoms: C_15  and  C_18
    4  A    between atoms: C_20  and  C_21
                            x       y       z     vdW  Elec       q    Type
                         _______ _______ _______ _____ _____    ______ ____

>  <TORSDO>
F 4

$$$$
8smc
 OpenBabel10242410243D

 24 25  0  0  0  0  0  0  0  0999 V2000
  183.8760  177.9890  141.1290 C   0  0  0  0  0  1  0  0  0  0  0  0
  184.7640  178.8290  141.9070 N   0  0  0  0  0  2  0  0  0  0  0  0
  185.6250  178.2450  142.9130 C   0  0  0  0  0  0  0  0  0  0  0  0
  186.7330  177.6150  142.5740 N   0  0  0  0  0  4  0  0  0  0  0  0
  187.5270  177.0890  143.4790 C   0  0  0  0  0  0  0  0  0  0  0  0
  188.7460  176.3760  143.1260 N   0  0  0  0  0  2  0  0  0  0  0  0
  187.2210  177.1700  144.7590 N   0  0  0  0  0  0  0  0  0  0  0  0
  186.1370  177.7830  145.1810 C   0  0  0  0  0  3  0  0  0  0  0  0
  185.2890  178.3510  144.2470 C   0  0  0  0  0  0  0  0  0  0  0  0
  189.7210  176.7110  142.1000 C   0  0  0  0  0  0  0  0  0  0  0  0
  190.5590  176.8930  140.1120 N   0  0  0  0  0  0  0  0  0  0  0  0
  189.5200  176.4560  140.7650 C   0  0  0  0  0  3  0  0  0  0  0  0
  191.4500  177.4600  140.9730 N   0  0  0  0  0  0  0  0  0  0  0  0
  190.9460  177.3720  142.2040 C   0  0  0  0  0  0  0  0  0  0  0  0
  191.6570  177.8940  143.4510 C   0  0  0  0  0  1  0  0  0  0  0  0
  190.7480  176.8040  138.6780 C   0  0  0  0  0  0  0  0  0  0  0  0
  190.0670  177.9900  137.9960 C   0  0  0  0  0  1  0  0  0  0  0  0
  190.1250  175.5050  138.1740 C   0  0  0  0  0  1  0  0  0  0  0  0
  193.3510  176.7980  138.1100 N   0  0  0  0  0  0  0  0  0  0  0  0
  192.2410  176.8020  138.3520 C   0  0  0  0  0  0  0  0  0  0  0  0
  184.0160  179.0680  144.6580 C   0  0  0  0  0  0  0  0  0  0  0  0
  182.9450  178.3850  144.1670 F   0  0  0  0  0  0  0  0  0  0  0  0
  183.9460  179.1000  146.0180 F   0  0  0  0  0  0  0  0  0  0  0  0
  184.0160  180.3410  144.1720 F   0  0  0  0  0  0  0  0  0  0  0  0
  1  2  1  0  0  0  0
  2  3  1  0  0  0  0
  3  9  1  0  0  0  0
  4  3  2  0  0  0  0
  4  5  2  0  0  0  0
  5  7  2  0  0  0  0
  6  5  1  0  0  0  0
  7  8  1  0  0  0  0
  9 21  1  0  0  0  0
  9  8  2  0  0  0  0
 10 14  1  0  0  0  0
 10  6  1  0  0  0  0
 11 12  1  0  0  0  0
 11 13  1  0  0  0  0
 12 10  2  0  0  0  0
 13 14  2  0  0  0  0
 14 15  1  0  0  0  0
 16 11  1  0  0  0  0
 17 16  1  0  0  0  0
 18 16  1  0  0  0  0
 19 20  3  0  0  0  0
 20 16  1  0  0  0  0
 21 23  1  0  0  0  0
 22 21  1  0  0  0  0
 24 21  1  0  0  0  0
M  END
>  <MODEL>
4

>  <REMARK>
 VINA RESULT:      -7.2      4.379      6.884
  Name = 8smc
  4 active torsions:
  status: ('A' for Active; 'I' for Inactive)
    1  A    between atoms: N_6  and  C_7
    2  A    between atoms: N_8  and  C_15
    3  A    between atoms: C_15  and  C_18
    4  A    between atoms: C_20  and  C_21
                            x       y       z     vdW  Elec       q    Type
                         _______ _______ _______ _____ _____    ______ ____

>  <TORSDO>
F 4

$$$$
8smc
 OpenBabel10242410243D

 24 25  0  0  0  0  0  0  0  0999 V2000
  186.1660  177.2880  145.6140 C   0  0  0  0  0  1  0  0  0  0  0  0
  187.3330  178.1450  145.5630 N   0  0  0  0  0  2  0  0  0  0  0  0
  188.6520  177.5700  145.4080 C   0  0  0  0  0  0  0  0  0  0  0  0
  189.0740  177.1500  144.2310 N   0  0  0  0  0  4  0  0  0  0  0  0
  190.2730  176.6350  144.0760 C   0  0  0  0  0  0  0  0  0  0  0  0
  190.7520  176.1500  142.7900 N   0  0  0  0  0  2  0  0  0  0  0  0
  191.0840  176.5160  145.1100 N   0  0  0  0  0  0  0  0  0  0  0  0
  190.7420  176.9130  146.3150 C   0  0  0  0  0  3  0  0  0  0  0  0
  189.4870  177.4660  146.5020 C   0  0  0  0  0  0  0  0  0  0  0  0
  190.5600  176.7410  141.4750 C   0  0  0  0  0  0  0  0  0  0  0  0
  189.4890  177.4860  139.7470 N   0  0  0  0  0  0  0  0  0  0  0  0
  189.3220  176.9140  140.9060 C   0  0  0  0  0  3  0  0  0  0  0  0
  190.8130  177.7270  139.5290 N   0  0  0  0  0  0  0  0  0  0  0  0
  191.4910  177.2880  140.5900 C   0  0  0  0  0  0  0  0  0  0  0  0
  193.0100  177.3760  140.7210 C   0  0  0  0  0  1  0  0  0  0  0  0
  188.4300  177.8310  138.8200 C   0  0  0  0  0  0  0  0  0  0  0  0
  188.0180  176.5910  138.0280 C   0  0  0  0  0  1  0  0  0  0  0  0
  188.9410  178.8990  137.8570 C   0  0  0  0  0  1  0  0  0  0  0  0
  186.3350  178.7880  140.1570 N   0  0  0  0  0  0  0  0  0  0  0  0
  187.2300  178.3810  139.5880 C   0  0  0  0  0  0  0  0  0  0  0  0
  189.0190  177.9400  147.8660 C   0  0  0  0  0  0  0  0  0  0  0  0
  188.1570  177.0210  148.3820 F   0  0  0  0  0  0  0  0  0  0  0  0
  190.0990  178.0570  148.6870 F   0  0  0  0  0  0  0  0  0  0  0  0
  188.3970  179.1470  147.7550 F   0  0  0  0  0  0  0  0  0  0  0  0
  2  1  1  0  0  0  0
  3  2  1  0  0  0  0
  3  9  1  0  0  0  0
  4  3  2  0  0  0  0
  5  4  2  0  0  0  0
  5  7  2  0  0  0  0
  6  5  1  0  0  0  0
  7  8  1  0  0  0  0
  8  9  2  0  0  0  0
  9 21  1  0  0  0  0
 10  6  1  0  0  0  0
 11 12  1  0  0  0  0
 12 10  2  0  0  0  0
 13 11  1  0  0  0  0
 13 14  2  0  0  0  0
 14 15  1  0  0  0  0
 14 10  1  0  0  0  0
 16 20  1  0  0  0  0
 16 11  1  0  0  0  0
 17 16  1  0  0  0  0
 18 16  1  0  0  0  0
 20 19  3  0  0  0  0
 21 22  1  0  0  0  0
 21 23  1  0  0  0  0
 24 21  1  0  0  0  0
M  END
>  <MODEL>
5

>  <REMARK>
 VINA RESULT:      -7.2      3.525      5.607
  Name = 8smc
  4 active torsions:
  status: ('A' for Active; 'I' for Inactive)
    1  A    between atoms: N_6  and  C_7
    2  A    between atoms: N_8  and  C_15
    3  A    between atoms: C_15  and  C_18
    4  A    between atoms: C_20  and  C_21
                            x       y       z     vdW  Elec       q    Type
                         _______ _______ _______ _____ _____    ______ ____

>  <TORSDO>
F 4

$$$$
8smc
 OpenBabel10242410243D

 24 25  0  0  0  0  0  0  0  0999 V2000
  189.3940  177.7960  145.4660 C   0  0  0  0  0  1  0  0  0  0  0  0
  188.3740  177.0600  144.7460 N   0  0  0  0  0  2  0  0  0  0  0  0
  187.7220  177.6530  143.5990 C   0  0  0  0  0  0  0  0  0  0  0  0
  188.3250  177.7040  142.4270 N   0  0  0  0  0  4  0  0  0  0  0  0
  187.7380  178.2320  141.3760 C   0  0  0  0  0  0  0  0  0  0  0  0
  188.3920  178.3130  140.0780 N   0  0  0  0  0  2  0  0  0  0  0  0
  186.5250  178.7390  141.4770 N   0  0  0  0  0  0  0  0  0  0  0  0
  185.8530  178.7240  142.6080 C   0  0  0  0  0  3  0  0  0  0  0  0
  186.4470  178.1670  143.7260 C   0  0  0  0  0  0  0  0  0  0  0  0
  189.2280  177.3180  139.4260 C   0  0  0  0  0  0  0  0  0  0  0  0
  189.8130  175.8410  137.9550 N   0  0  0  0  0  0  0  0  0  0  0  0
  188.8380  176.6340  138.3010 C   0  0  0  0  0  3  0  0  0  0  0  0
  190.8650  175.9920  138.8080 N   0  0  0  0  0  0  0  0  0  0  0  0
  190.5320  176.9100  139.7150 C   0  0  0  0  0  0  0  0  0  0  0  0
  191.4520  177.3530  140.8500 C   0  0  0  0  0  1  0  0  0  0  0  0
  189.7980  174.9350  136.8250 C   0  0  0  0  0  0  0  0  0  0  0  0
  188.4160  174.2940  136.7000 C   0  0  0  0  0  1  0  0  0  0  0  0
  190.8420  173.8440  137.0480 C   0  0  0  0  0  1  0  0  0  0  0  0
  190.3850  176.2650  134.5930 N   0  0  0  0  0  0  0  0  0  0  0  0
  190.1360  175.6970  135.5450 C   0  0  0  0  0  0  0  0  0  0  0  0
  185.7380  178.1220  145.0670 C   0  0  0  0  0  0  0  0  0  0  0  0
  186.2300  179.1100  145.8630 F   0  0  0  0  0  0  0  0  0  0  0  0
  184.4050  178.3240  144.8690 F   0  0  0  0  0  0  0  0  0  0  0  0
  185.9310  176.9110  145.6600 F   0  0  0  0  0  0  0  0  0  0  0  0
  2  1  1  0  0  0  0
  3  9  1  0  0  0  0
  3  2  1  0  0  0  0
  4  3  2  0  0  0  0
  5  7  2  0  0  0  0
  5  4  2  0  0  0  0
  6  5  1  0  0  0  0
  7  8  1  0  0  0  0
  8  9  2  0  0  0  0
  9 21  1  0  0  0  0
 10 14  1  0  0  0  0
 10  6  1  0  0  0  0
 11 12  1  0  0  0  0
 11 13  1  0  0  0  0
 12 10  2  0  0  0  0
 13 14  2  0  0  0  0
 14 15  1  0  0  0  0
 16 18  1  0  0  0  0
 16 11  1  0  0  0  0
 17 16  1  0  0  0  0
 19 20  3  0  0  0  0
 20 16  1  0  0  0  0
 21 24  1  0  0  0  0
 21 22  1  0  0  0  0
 23 21  1  0  0  0  0
M  END
>  <MODEL>
6

>  <REMARK>
 VINA RESULT:      -7.1      4.933      6.460
  Name = 8smc
  4 active torsions:
  status: ('A' for Active; 'I' for Inactive)
    1  A    between atoms: N_6  and  C_7
    2  A    between atoms: N_8  and  C_15
    3  A    between atoms: C_15  and  C_18
    4  A    between atoms: C_20  and  C_21
                            x       y       z     vdW  Elec       q    Type
                         _______ _______ _______ _____ _____    ______ ____

>  <TORSDO>
F 4

$$$$
8smc
 OpenBabel10242410243D

 24 25  0  0  0  0  0  0  0  0999 V2000
  190.7880  176.9850  143.4780 C   0  0  0  0  0  1  0  0  0  0  0  0
  189.5740  176.4550  142.8900 N   0  0  0  0  0  2  0  0  0  0  0  0
  188.7190  177.3070  142.0910 C   0  0  0  0  0  0  0  0  0  0  0  0
  189.0340  177.6070  140.8460 N   0  0  0  0  0  4  0  0  0  0  0  0
  188.2610  178.3710  140.1090 C   0  0  0  0  0  0  0  0  0  0  0  0
  188.5960  178.7280  138.7380 N   0  0  0  0  0  2  0  0  0  0  0  0
  187.1470  178.8710  140.6100 N   0  0  0  0  0  0  0  0  0  0  0  0
  186.7600  178.6180  141.8410 C   0  0  0  0  0  3  0  0  0  0  0  0
  187.5540  177.8090  142.6340 C   0  0  0  0  0  0  0  0  0  0  0  0
  189.1780  177.8870  137.7040 C   0  0  0  0  0  0  0  0  0  0  0  0
  190.5850  176.5240  136.7820 N   0  0  0  0  0  0  0  0  0  0  0  0
  190.3530  177.1960  137.8750 C   0  0  0  0  0  3  0  0  0  0  0  0
  189.5810  176.7260  135.8840 N   0  0  0  0  0  0  0  0  0  0  0  0
  188.6930  177.5530  136.4380 C   0  0  0  0  0  0  0  0  0  0  0  0
  187.4210  178.0250  135.7370 C   0  0  0  0  0  1  0  0  0  0  0  0
  191.7360  175.6750  136.5480 C   0  0  0  0  0  0  0  0  0  0  0  0
  192.0980  175.7000  135.0630 C   0  0  0  0  0  1  0  0  0  0  0  0
  191.3910  174.2460  136.9600 C   0  0  0  0  0  1  0  0  0  0  0  0
  193.7990  176.5310  137.9990 N   0  0  0  0  0  0  0  0  0  0  0  0
  192.9190  176.1640  137.3810 C   0  0  0  0  0  0  0  0  0  0  0  0
  187.1760  177.4790  144.0670 C   0  0  0  0  0  0  0  0  0  0  0  0
  187.2240  176.1290  144.2370 F   0  0  0  0  0  0  0  0  0  0  0  0
  188.0710  178.0710  144.9070 F   0  0  0  0  0  0  0  0  0  0  0  0
  185.9230  177.9360  144.3390 F   0  0  0  0  0  0  0  0  0  0  0  0
  2  1  1  0  0  0  0
  3  9  1  0  0  0  0
  3  2  1  0  0  0  0
  4  3  2  0  0  0  0
  5  7  2  0  0  0  0
  5  4  2  0  0  0  0
  6  5  1  0  0  0  0
  7  8  1  0  0  0  0
  8  9  2  0  0  0  0
  9 21  1  0  0  0  0
 10 12  2  0  0  0  0
 10  6  1  0  0  0  0
 11 12  1  0  0  0  0
 13 14  2  0  0  0  0
 13 11  1  0  0  0  0
 14 10  1  0  0  0  0
 15 14  1  0  0  0  0
 16 11  1  0  0  0  0
 16 18  1  0  0  0  0
 16 20  1  0  0  0  0
 17 16  1  0  0  0  0
 20 19  3  0  0  0  0
 21 22  1  0  0  0  0
 21 24  1  0  0  0  0
 21 23  1  0  0  0  0
M  END
>  <MODEL>
7

>  <REMARK>
 VINA RESULT:      -6.9      5.555      7.549
  Name = 8smc
  4 active torsions:
  status: ('A' for Active; 'I' for Inactive)
    1  A    between atoms: N_6  and  C_7
    2  A    between atoms: N_8  and  C_15
    3  A    between atoms: C_15  and  C_18
    4  A    between atoms: C_20  and  C_21
                            x       y       z     vdW  Elec       q    Type
                         _______ _______ _______ _____ _____    ______ ____

>  <TORSDO>
F 4

$$$$
8smc
 OpenBabel10242410243D

 24 25  0  0  0  0  0  0  0  0999 V2000
  188.2000  178.6690  141.5760 C   0  0  0  0  0  1  0  0  0  0  0  0
  187.4890  177.6330  142.2980 N   0  0  0  0  0  2  0  0  0  0  0  0
  186.5910  177.9820  143.3770 C   0  0  0  0  0  0  0  0  0  0  0  0
  185.3840  178.4530  143.1290 N   0  0  0  0  0  4  0  0  0  0  0  0
  184.5560  178.7640  144.1010 C   0  0  0  0  0  0  0  0  0  0  0  0
  183.2260  179.3000  143.8510 N   0  0  0  0  0  2  0  0  0  0  0  0
  184.9260  178.6230  145.3600 N   0  0  0  0  0  0  0  0  0  0  0  0
  186.1100  178.1570  145.6920 C   0  0  0  0  0  3  0  0  0  0  0  0
  186.9960  177.8150  144.6860 C   0  0  0  0  0  0  0  0  0  0  0  0
  182.2730  178.9030  142.8260 C   0  0  0  0  0  0  0  0  0  0  0  0
  181.5650  178.2890  140.8740 N   0  0  0  0  0  0  0  0  0  0  0  0
  182.6370  178.6380  141.5280 C   0  0  0  0  0  3  0  0  0  0  0  0
  180.4860  178.2890  141.7070 N   0  0  0  0  0  0  0  0  0  0  0  0
  180.9030  178.6510  142.9210 C   0  0  0  0  0  0  0  0  0  0  0  0
  179.9820  178.7740  144.1320 C   0  0  0  0  0  1  0  0  0  0  0  0
  181.5150  177.9410  139.4690 C   0  0  0  0  0  0  0  0  0  0  0  0
  182.1620  179.0510  138.6410 C   0  0  0  0  0  1  0  0  0  0  0  0
  180.0560  177.7810  139.0470 C   0  0  0  0  0  1  0  0  0  0  0  0
  182.7980  175.6410  139.0670 N   0  0  0  0  0  0  0  0  0  0  0  0
  182.2500  176.6220  139.2370 C   0  0  0  0  0  0  0  0  0  0  0  0
  188.3830  177.2790  144.9920 C   0  0  0  0  0  0  0  0  0  0  0  0
  188.6230  176.1960  144.2030 F   0  0  0  0  0  0  0  0  0  0  0  0
  189.3010  178.2490  144.7180 F   0  0  0  0  0  0  0  0  0  0  0  0
  188.4700  176.9260  146.3040 F   0  0  0  0  0  0  0  0  0  0  0  0
  1  2  1  0  0  0  0
  2  3  1  0  0  0  0
  3  9  1  0  0  0  0
  4  3  2  0  0  0  0
  4  5  2  0  0  0  0
  5  7  2  0  0  0  0
  6  5  1  0  0  0  0
  7  8  1  0  0  0  0
  9 21  1  0  0  0  0
  9  8  2  0  0  0  0
 10 14  1  0  0  0  0
 10  6  1  0  0  0  0
 11 12  1  0  0  0  0
 11 13  1  0  0  0  0
 12 10  2  0  0  0  0
 13 14  2  0  0  0  0
 14 15  1  0  0  0  0
 16 11  1  0  0  0  0
 17 16  1  0  0  0  0
 18 16  1  0  0  0  0
 19 20  3  0  0  0  0
 20 16  1  0  0  0  0
 21 24  1  0  0  0  0
 22 21  1  0  0  0  0
 23 21  1  0  0  0  0
M  END
>  <MODEL>
8

>  <REMARK>
 VINA RESULT:      -6.8      1.826      2.871
  Name = 8smc
  4 active torsions:
  status: ('A' for Active; 'I' for Inactive)
    1  A    between atoms: N_6  and  C_7
    2  A    between atoms: N_8  and  C_15
    3  A    between atoms: C_15  and  C_18
    4  A    between atoms: C_20  and  C_21
                            x       y       z     vdW  Elec       q    Type
                         _______ _______ _______ _____ _____    ______ ____

>  <TORSDO>
F 4

$$$$
8smc
 OpenBabel10242410243D

 24 25  0  0  0  0  0  0  0  0999 V2000
  185.0510  177.9420  146.5390 C   0  0  0  0  0  1  0  0  0  0  0  0
  186.2630  178.7000  146.3050 N   0  0  0  0  0  2  0  0  0  0  0  0
  187.4770  178.0260  145.8950 C   0  0  0  0  0  0  0  0  0  0  0  0
  187.6430  177.6280  144.6490 N   0  0  0  0  0  4  0  0  0  0  0  0
  188.7440  177.0240  144.2640 C   0  0  0  0  0  0  0  0  0  0  0  0
  188.9420  176.5610  142.8980 N   0  0  0  0  0  2  0  0  0  0  0  0
  189.7120  176.7890  145.1290 N   0  0  0  0  0  0  0  0  0  0  0  0
  189.6260  177.1570  146.3890 C   0  0  0  0  0  3  0  0  0  0  0  0
  188.4790  177.8020  146.8160 C   0  0  0  0  0  0  0  0  0  0  0  0
  188.5740  177.2270  141.6580 C   0  0  0  0  0  0  0  0  0  0  0  0
  188.6470  177.7350  139.5550 N   0  0  0  0  0  0  0  0  0  0  0  0
  189.2310  177.0140  140.4710 C   0  0  0  0  0  3  0  0  0  0  0  0
  187.5940  178.4130  140.0920 N   0  0  0  0  0  0  0  0  0  0  0  0
  187.5210  178.1030  141.3860 C   0  0  0  0  0  0  0  0  0  0  0  0
  186.4690  178.6700  142.3360 C   0  0  0  0  0  1  0  0  0  0  0  0
  189.0450  177.8060  138.1630 C   0  0  0  0  0  0  0  0  0  0  0  0
  190.4740  177.2880  138.0100 C   0  0  0  0  0  1  0  0  0  0  0  0
  188.9820  179.2600  137.7020 C   0  0  0  0  0  1  0  0  0  0  0  0
  187.3850  176.3500  136.6730 N   0  0  0  0  0  0  0  0  0  0  0  0
  188.0930  176.9700  137.3100 C   0  0  0  0  0  0  0  0  0  0  0  0
  188.3050  178.2490  148.2570 C   0  0  0  0  0  0  0  0  0  0  0  0
  187.6190  177.2910  148.9380 F   0  0  0  0  0  0  0  0  0  0  0  0
  189.5350  178.4100  148.8210 F   0  0  0  0  0  0  0  0  0  0  0  0
  187.6250  179.4280  148.3030 F   0  0  0  0  0  0  0  0  0  0  0  0
  2  1  1  0  0  0  0
  3  2  1  0  0  0  0
  3  9  1  0  0  0  0
  4  3  2  0  0  0  0
  5  4  2  0  0  0  0
  5  7  2  0  0  0  0
  6  5  1  0  0  0  0
  7  8  1  0  0  0  0
  8  9  2  0  0  0  0
  9 21  1  0  0  0  0
 10  6  1  0  0  0  0
 11 13  1  0  0  0  0
 11 12  1  0  0  0  0
 12 10  2  0  0  0  0
 13 14  2  0  0  0  0
 14 10  1  0  0  0  0
 14 15  1  0  0  0  0
 16 11  1  0  0  0  0
 17 16  1  0  0  0  0
 18 16  1  0  0  0  0
 19 20  3  0  0  0  0
 20 16  1  0  0  0  0
 21 24  1  0  0  0  0
 21 23  1  0  0  0  0
 21 22  1  0  0  0  0
M  END
>  <MODEL>
9

>  <REMARK>
 VINA RESULT:      -6.8      3.289      5.067
  Name = 8smc
  4 active torsions:
  status: ('A' for Active; 'I' for Inactive)
    1  A    between atoms: N_6  and  C_7
    2  A    between atoms: N_8  and  C_15
    3  A    between atoms: C_15  and  C_18
    4  A    between atoms: C_20  and  C_21
                            x       y       z     vdW  Elec       q    Type
                         _______ _______ _______ _____ _____    ______ ____

>  <TORSDO>
F 4

$$$$
