8u8b
 OpenBabel10242410243D

 41 45  0  0  0  0  0  0  0  0999 V2000
  189.0420  178.2020  142.4360 N   0  0  0  0  0  2  0  0  0  0  0  0
  189.7980  177.2360  141.6260 C   0  0  0  0  0  0  0  0  0  0  0  0
  190.0970  177.5870  140.2350 N   0  0  0  0  0  2  0  0  0  0  0  0
  190.1490  176.2050  142.0970 O   0  0  0  0  0  0  0  0  0  0  0  0
  190.2180  175.9500  138.3160 C   0  0  0  0  0  3  0  0  0  0  0  0
  190.9880  175.2360  137.4110 C   0  0  0  0  0  3  0  0  0  0  0  0
  192.3670  175.3430  137.4230 C   0  0  0  0  0  0  0  0  0  0  0  0
  192.9740  176.1910  138.3360 C   0  0  0  0  0  3  0  0  0  0  0  0
  192.2000  176.8980  139.2380 C   0  0  0  0  0  0  0  0  0  0  0  0
  190.8290  176.7830  139.2460 C   0  0  0  0  0  0  0  0  0  0  0  0
  192.7890  177.7230  140.1440 F   0  0  0  0  0  0  0  0  0  0  0  0
  193.1590  174.6470  136.4920 O   0  0  0  0  0  0  0  0  0  0  0  0
  195.8790  176.7170  135.0220 C   0  0  0  0  0  3  0  0  0  0  0  0
  196.9220  176.2190  135.6660 N   0  0  0  0  0  0  0  0  0  0  0  0
  196.7850  175.2500  136.5480 C   0  0  0  0  0  0  0  0  0  0  0  0
  195.5380  174.7200  136.8270 C   0  0  0  0  0  3  0  0  0  0  0  0
  194.4100  175.2160  136.1890 C   0  0  0  0  0  0  0  0  0  0  0  0
  194.5980  176.2300  135.2600 C   0  0  0  0  0  3  0  0  0  0  0  0
  197.9930  174.6790  137.2850 C   0  0  0  0  0  0  0  0  0  0  0  0
  198.5280  173.7100  136.8660 O   0  0  0  0  0  0  0  0  0  0  0  0
  198.4970  175.3040  138.4920 N   0  0  0  0  0  2  0  0  0  0  0  0
  199.6490  174.7180  139.1520 C   0  0  0  0  0  1  0  0  0  0  0  0
  188.8550  177.4860  146.0190 C   0  0  0  0  0  0  0  0  0  0  0  0
  189.5910  177.6830  144.8550 C   0  0  0  0  0  3  0  0  0  0  0  0
  188.7000  177.9370  143.8380 C   0  0  0  0  0  0  0  0  0  0  0  0
  187.4900  177.9010  144.3660 N   0  0  0  0  0  0  0  0  0  0  0  0
  187.5610  177.6270  145.7110 N   0  0  0  0  0  0  0  0  0  0  0  0
  186.2320  178.1240  143.6540 C   0  0  0  0  0  0  0  0  0  0  0  0
  186.2340  178.1280  142.2570 C   0  0  0  0  0  3  0  0  0  0  0  0
  185.0480  178.3480  141.5590 C   0  0  0  0  0  3  0  0  0  0  0  0
  183.8300  178.5740  142.2700 C   0  0  0  0  0  0  0  0  0  0  0  0
  183.8280  178.5720  143.6340 C   0  0  0  0  0  0  0  0  0  0  0  0
  185.0460  178.3500  144.3520 C   0  0  0  0  0  3  0  0  0  0  0  0
  181.4900  179.0020  142.2250 C   0  0  0  0  0  3  0  0  0  0  0  0
  182.6540  178.7870  141.5620 N   0  0  0  0  0  0  0  0  0  0  0  0
  182.6290  178.7950  144.3150 C   0  0  0  0  0  3  0  0  0  0  0  0
  181.4740  179.0060  143.6190 C   0  0  0  0  0  3  0  0  0  0  0  0
  189.4240  177.1750  147.4050 C   0  0  0  0  0  0  0  0  0  0  0  0
  190.8700  176.7020  147.2690 C   0  0  0  0  0  1  0  0  0  0  0  0
  188.5800  176.0840  148.0600 C   0  0  0  0  0  1  0  0  0  0  0  0
  189.3770  178.4380  148.2480 C   0  0  0  0  0  1  0  0  0  0  0  0
  1 25  1  0  0  0  0
  2  4  2  0  0  0  0
  2  1  1  0  0  0  0
  3  2  1  0  0  0  0
  5 10  1  0  0  0  0
  6  7  1  0  0  0  0
  6  5  2  0  0  0  0
  7  8  2  0  0  0  0
  8  9  1  0  0  0  0
  9 10  2  0  0  0  0
  9 11  1  0  0  0  0
 10  3  1  0  0  0  0
 12  7  1  0  0  0  0
 13 18  2  0  0  0  0
 13 14  1  0  0  0  0
 14 15  2  0  0  0  0
 15 16  1  0  0  0  0
 15 19  1  0  0  0  0
 17 12  1  0  0  0  0
 17 16  2  0  0  0  0
 18 17  1  0  0  0  0
 19 21  1  0  0  0  0
 20 19  2  0  0  0  0
 21 22  1  0  0  0  0
 23 38  1  0  0  0  0
 24 23  1  0  0  0  0
 25 26  1  0  0  0  0
 25 24  2  0  0  0  0
 26 27  1  0  0  0  0
 27 23  2  0  0  0  0
 28 33  1  0  0  0  0
 28 26  1  0  0  0  0
 29 28  2  0  0  0  0
 30 29  1  0  0  0  0
 30 31  2  0  0  0  0
 31 32  1  0  0  0  0
 32 36  1  0  0  0  0
 32 33  2  0  0  0  0
 34 37  1  0  0  0  0
 35 34  2  0  0  0  0
 35 31  1  0  0  0  0
 37 36  2  0  0  0  0
 38 40  1  0  0  0  0
 38 41  1  0  0  0  0
 39 38  1  0  0  0  0
M  END
>  <MODEL>
1

>  <REMARK>
 VINA RESULT:     -10.2      0.000      0.000
  Name = 8u8b
  7 active torsions:
  status: ('A' for Active; 'I' for Inactive)
    1  A    between atoms: C_1  and  N_26
    2  A    between atoms: C_13  and  C_33
    3  A    between atoms: C_15  and  O_32
    4  A    between atoms: C_19  and  O_32
    5  A    between atoms: C_22  and  N_30
    6  A    between atoms: C_23  and  C_37
    7  A    between atoms: C_25  and  N_28
                            x       y       z     vdW  Elec       q    Type
                         _______ _______ _______ _____ _____    ______ ____

>  <TORSDO>
F 7

$$$$
8u8b
 OpenBabel10242410243D

 41 45  0  0  0  0  0  0  0  0999 V2000
  188.2590  178.2610  142.6940 N   0  0  0  0  0  2  0  0  0  0  0  0
  188.9810  177.3210  141.8250 C   0  0  0  0  0  0  0  0  0  0  0  0
  189.1150  177.6570  140.4040 N   0  0  0  0  0  2  0  0  0  0  0  0
  189.4390  176.3210  142.2730 O   0  0  0  0  0  0  0  0  0  0  0  0
  189.1160  176.1670  138.3670 C   0  0  0  0  0  3  0  0  0  0  0  0
  189.8320  175.4640  137.4100 C   0  0  0  0  0  3  0  0  0  0  0  0
  191.2150  175.4570  137.4310 C   0  0  0  0  0  0  0  0  0  0  0  0
  191.8820  176.1810  138.4060 C   0  0  0  0  0  3  0  0  0  0  0  0
  191.1620  176.8780  139.3590 C   0  0  0  0  0  0  0  0  0  0  0  0
  189.7860  176.8740  139.3580 C   0  0  0  0  0  0  0  0  0  0  0  0
  191.8100  177.5810  140.3260 F   0  0  0  0  0  0  0  0  0  0  0  0
  191.9540  174.7720  136.4500 O   0  0  0  0  0  0  0  0  0  0  0  0
  194.8740  176.6440  135.1030 C   0  0  0  0  0  3  0  0  0  0  0  0
  195.8510  176.0720  135.7870 N   0  0  0  0  0  0  0  0  0  0  0  0
  195.6090  175.1140  136.6590 C   0  0  0  0  0  0  0  0  0  0  0  0
  194.3160  174.6740  136.8840 C   0  0  0  0  0  3  0  0  0  0  0  0
  193.2550  175.2500  136.2010 C   0  0  0  0  0  0  0  0  0  0  0  0
  193.5530  176.2500  135.2860 C   0  0  0  0  0  3  0  0  0  0  0  0
  196.7410  174.4570  137.4430 C   0  0  0  0  0  0  0  0  0  0  0  0
  196.6570  173.3150  137.7440 O   0  0  0  0  0  0  0  0  0  0  0  0
  197.9200  175.2090  137.8260 N   0  0  0  0  0  2  0  0  0  0  0  0
  198.9660  174.5340  138.5710 C   0  0  0  0  0  1  0  0  0  0  0  0
  188.4790  177.5450  146.2740 C   0  0  0  0  0  0  0  0  0  0  0  0
  189.0750  177.7110  145.0280 C   0  0  0  0  0  3  0  0  0  0  0  0
  188.0790  178.0080  144.1280 C   0  0  0  0  0  0  0  0  0  0  0  0
  186.9430  178.0250  144.7990 N   0  0  0  0  0  0  0  0  0  0  0  0
  187.1640  177.7450  146.1270 N   0  0  0  0  0  0  0  0  0  0  0  0
  185.6180  178.3070  144.2450 C   0  0  0  0  0  0  0  0  0  0  0  0
  184.6270  178.8210  145.0850 C   0  0  0  0  0  3  0  0  0  0  0  0
  183.3550  179.0870  144.5800 C   0  0  0  0  0  3  0  0  0  0  0  0
  183.0630  178.8320  143.2060 C   0  0  0  0  0  0  0  0  0  0  0  0
  184.0290  178.3290  142.3870 C   0  0  0  0  0  0  0  0  0  0  0  0
  185.3340  178.0510  142.9040 C   0  0  0  0  0  3  0  0  0  0  0  0
  181.5010  178.8700  141.4110 C   0  0  0  0  0  3  0  0  0  0  0  0
  181.7930  179.1070  142.7140 N   0  0  0  0  0  0  0  0  0  0  0  0
  183.7270  178.0840  141.0450 C   0  0  0  0  0  3  0  0  0  0  0  0
  182.4790  178.3520  140.5630 C   0  0  0  0  0  3  0  0  0  0  0  0
  189.1980  177.2040  147.5820 C   0  0  0  0  0  0  0  0  0  0  0  0
  189.1120  178.3930  148.5370 C   0  0  0  0  0  1  0  0  0  0  0  0
  190.6600  176.8830  147.2800 C   0  0  0  0  0  1  0  0  0  0  0  0
  188.5240  175.9960  148.2090 C   0  0  0  0  0  1  0  0  0  0  0  0
  1 25  1  0  0  0  0
  2  4  2  0  0  0  0
  2  1  1  0  0  0  0
  3  2  1  0  0  0  0
  5 10  1  0  0  0  0
  6  7  1  0  0  0  0
  6  5  2  0  0  0  0
  7  8  2  0  0  0  0
  8  9  1  0  0  0  0
  9 11  1  0  0  0  0
 10  9  2  0  0  0  0
 10  3  1  0  0  0  0
 12  7  1  0  0  0  0
 13 18  2  0  0  0  0
 13 14  1  0  0  0  0
 14 15  2  0  0  0  0
 15 16  1  0  0  0  0
 15 19  1  0  0  0  0
 17 12  1  0  0  0  0
 17 16  2  0  0  0  0
 18 17  1  0  0  0  0
 19 20  2  0  0  0  0
 19 21  1  0  0  0  0
 21 22  1  0  0  0  0
 23 38  1  0  0  0  0
 24 23  1  0  0  0  0
 25 26  1  0  0  0  0
 25 24  2  0  0  0  0
 26 27  1  0  0  0  0
 27 23  2  0  0  0  0
 28 26  1  0  0  0  0
 28 29  1  0  0  0  0
 30 29  2  0  0  0  0
 31 30  1  0  0  0  0
 32 33  1  0  0  0  0
 32 31  2  0  0  0  0
 33 28  2  0  0  0  0
 34 35  2  0  0  0  0
 35 31  1  0  0  0  0
 36 32  1  0  0  0  0
 37 36  2  0  0  0  0
 37 34  1  0  0  0  0
 38 41  1  0  0  0  0
 38 39  1  0  0  0  0
 40 38  1  0  0  0  0
M  END
>  <MODEL>
2

>  <REMARK>
 VINA RESULT:     -10.0      0.961      1.605
  Name = 8u8b
  7 active torsions:
  status: ('A' for Active; 'I' for Inactive)
    1  A    between atoms: C_1  and  N_26
    2  A    between atoms: C_13  and  C_33
    3  A    between atoms: C_15  and  O_32
    4  A    between atoms: C_19  and  O_32
    5  A    between atoms: C_22  and  N_30
    6  A    between atoms: C_23  and  C_37
    7  A    between atoms: C_25  and  N_28
                            x       y       z     vdW  Elec       q    Type
                         _______ _______ _______ _____ _____    ______ ____

>  <TORSDO>
F 7

$$$$
8u8b
 OpenBabel10242410243D

 41 45  0  0  0  0  0  0  0  0999 V2000
  187.5790  178.7840  140.4980 N   0  0  0  0  0  2  0  0  0  0  0  0
  188.2450  177.8450  139.5850 C   0  0  0  0  0  0  0  0  0  0  0  0
  189.6380  178.1120  139.2150 N   0  0  0  0  0  2  0  0  0  0  0  0
  187.6610  176.9000  139.1670 O   0  0  0  0  0  0  0  0  0  0  0  0
  190.1900  177.0440  136.9950 C   0  0  0  0  0  3  0  0  0  0  0  0
  191.0660  176.2960  136.2220 C   0  0  0  0  0  3  0  0  0  0  0  0
  192.2460  175.8170  136.7610 C   0  0  0  0  0  0  0  0  0  0  0  0
  192.5600  176.1120  138.0780 C   0  0  0  0  0  3  0  0  0  0  0  0
  191.6810  176.8560  138.8440 C   0  0  0  0  0  0  0  0  0  0  0  0
  190.4960  177.3190  138.3230 C   0  0  0  0  0  0  0  0  0  0  0  0
  191.9770  177.1390  140.1410 F   0  0  0  0  0  0  0  0  0  0  0  0
  193.1570  175.0830  135.9800 O   0  0  0  0  0  0  0  0  0  0  0  0
  195.9730  177.3200  135.0300 C   0  0  0  0  0  3  0  0  0  0  0  0
  196.9910  176.6330  135.5240 N   0  0  0  0  0  0  0  0  0  0  0  0
  196.8070  175.4870  136.1470 C   0  0  0  0  0  0  0  0  0  0  0  0
  195.5360  174.9620  136.3010 C   0  0  0  0  0  3  0  0  0  0  0  0
  194.4340  175.6500  135.8120 C   0  0  0  0  0  0  0  0  0  0  0  0
  194.6710  176.8480  135.1550 C   0  0  0  0  0  3  0  0  0  0  0  0
  197.9860  174.7000  136.7130 C   0  0  0  0  0  0  0  0  0  0  0  0
  198.4020  173.7640  136.1190 O   0  0  0  0  0  0  0  0  0  0  0  0
  198.6040  175.0780  137.9680 N   0  0  0  0  0  2  0  0  0  0  0  0
  199.7220  174.2940  138.4600 C   0  0  0  0  0  1  0  0  0  0  0  0
  183.9590  178.4940  140.9340 C   0  0  0  0  0  0  0  0  0  0  0  0
  185.0700  178.7750  140.1460 C   0  0  0  0  0  3  0  0  0  0  0  0
  186.1890  178.5950  140.9260 C   0  0  0  0  0  0  0  0  0  0  0  0
  185.7710  178.2180  142.1200 N   0  0  0  0  0  0  0  0  0  0  0  0
  184.3980  178.1460  142.1490 N   0  0  0  0  0  0  0  0  0  0  0  0
  186.6180  177.9050  143.2710 C   0  0  0  0  0  0  0  0  0  0  0  0
  187.8080  177.2020  143.0670 C   0  0  0  0  0  3  0  0  0  0  0  0
  188.6250  176.8850  144.1510 C   0  0  0  0  0  3  0  0  0  0  0  0
  188.2460  177.2760  145.4710 C   0  0  0  0  0  0  0  0  0  0  0  0
  187.0840  177.9600  145.6710 C   0  0  0  0  0  0  0  0  0  0  0  0
  186.2420  178.2830  144.5600 C   0  0  0  0  0  3  0  0  0  0  0  0
  188.7250  177.3230  147.8010 C   0  0  0  0  0  3  0  0  0  0  0  0
  189.0730  176.9580  146.5410 N   0  0  0  0  0  0  0  0  0  0  0  0
  186.7270  178.3340  146.9690 C   0  0  0  0  0  3  0  0  0  0  0  0
  187.5380  178.0210  148.0210 C   0  0  0  0  0  3  0  0  0  0  0  0
  182.4960  178.5600  140.4890 C   0  0  0  0  0  0  0  0  0  0  0  0
  182.3430  179.6120  139.3920 C   0  0  0  0  0  1  0  0  0  0  0  0
  181.6230  178.9280  141.6870 C   0  0  0  0  0  1  0  0  0  0  0  0
  182.0860  177.1990  139.9520 C   0  0  0  0  0  1  0  0  0  0  0  0
  1 25  1  0  0  0  0
  2  1  1  0  0  0  0
  3  2  1  0  0  0  0
  4  2  2  0  0  0  0
  5 10  1  0  0  0  0
  6  7  1  0  0  0  0
  6  5  2  0  0  0  0
  7  8  2  0  0  0  0
  8  9  1  0  0  0  0
  9 11  1  0  0  0  0
 10  9  2  0  0  0  0
 10  3  1  0  0  0  0
 12  7  1  0  0  0  0
 13 18  2  0  0  0  0
 13 14  1  0  0  0  0
 14 15  2  0  0  0  0
 15 16  1  0  0  0  0
 15 19  1  0  0  0  0
 17 12  1  0  0  0  0
 17 16  2  0  0  0  0
 18 17  1  0  0  0  0
 19 21  1  0  0  0  0
 20 19  2  0  0  0  0
 21 22  1  0  0  0  0
 23 27  2  0  0  0  0
 24 25  2  0  0  0  0
 24 23  1  0  0  0  0
 25 26  1  0  0  0  0
 26 27  1  0  0  0  0
 26 28  1  0  0  0  0
 28 33  1  0  0  0  0
 29 28  2  0  0  0  0
 29 30  1  0  0  0  0
 30 31  2  0  0  0  0
 31 32  1  0  0  0  0
 31 35  1  0  0  0  0
 32 36  1  0  0  0  0
 33 32  2  0  0  0  0
 34 37  1  0  0  0  0
 35 34  2  0  0  0  0
 36 37  2  0  0  0  0
 38 23  1  0  0  0  0
 38 40  1  0  0  0  0
 39 38  1  0  0  0  0
 41 38  1  0  0  0  0
M  END
>  <MODEL>
3

>  <REMARK>
 VINA RESULT:      -9.9      1.604      4.830
  Name = 8u8b
  7 active torsions:
  status: ('A' for Active; 'I' for Inactive)
    1  A    between atoms: C_1  and  N_26
    2  A    between atoms: C_13  and  C_33
    3  A    between atoms: C_15  and  O_32
    4  A    between atoms: C_19  and  O_32
    5  A    between atoms: C_22  and  N_30
    6  A    between atoms: C_23  and  C_37
    7  A    between atoms: C_25  and  N_28
                            x       y       z     vdW  Elec       q    Type
                         _______ _______ _______ _____ _____    ______ ____

>  <TORSDO>
F 7

$$$$
8u8b
 OpenBabel10242410243D

 41 45  0  0  0  0  0  0  0  0999 V2000
  189.1430  178.2160  142.4590 N   0  0  0  0  0  2  0  0  0  0  0  0
  189.8930  177.2440  141.6510 C   0  0  0  0  0  0  0  0  0  0  0  0
  190.2180  177.6020  140.2660 N   0  0  0  0  0  2  0  0  0  0  0  0
  190.2210  176.2030  142.1170 O   0  0  0  0  0  0  0  0  0  0  0  0
  190.3380  175.9480  138.3630 C   0  0  0  0  0  3  0  0  0  0  0  0
  191.1080  175.2310  137.4600 C   0  0  0  0  0  3  0  0  0  0  0  0
  192.4870  175.3490  137.4610 C   0  0  0  0  0  0  0  0  0  0  0  0
  193.0920  176.2110  138.3610 C   0  0  0  0  0  3  0  0  0  0  0  0
  192.3190  176.9200  139.2620 C   0  0  0  0  0  0  0  0  0  0  0  0
  190.9490  176.7950  139.2810 C   0  0  0  0  0  0  0  0  0  0  0  0
  192.9080  177.7590  140.1560 F   0  0  0  0  0  0  0  0  0  0  0  0
  193.2770  174.6510  136.5310 O   0  0  0  0  0  0  0  0  0  0  0  0
  196.5800  173.6750  137.9390 C   0  0  0  0  0  3  0  0  0  0  0  0
  196.4100  172.3670  138.0410 N   0  0  0  0  0  0  0  0  0  0  0  0
  195.2820  171.7910  137.6770 C   0  0  0  0  0  0  0  0  0  0  0  0
  194.2360  172.5420  137.1720 C   0  0  0  0  0  3  0  0  0  0  0  0
  194.3590  173.9190  137.0560 C   0  0  0  0  0  0  0  0  0  0  0  0
  195.5650  174.4860  137.4420 C   0  0  0  0  0  3  0  0  0  0  0  0
  195.0950  170.2810  137.7960 C   0  0  0  0  0  0  0  0  0  0  0  0
  194.9990  169.7880  138.8680 O   0  0  0  0  0  0  0  0  0  0  0  0
  195.0340  169.4390  136.6180 N   0  0  0  0  0  2  0  0  0  0  0  0
  194.8560  168.0090  136.7900 C   0  0  0  0  0  1  0  0  0  0  0  0
  188.8960  177.4860  146.0350 C   0  0  0  0  0  0  0  0  0  0  0  0
  189.6520  177.6890  144.8850 C   0  0  0  0  0  3  0  0  0  0  0  0
  188.7780  177.9450  143.8540 C   0  0  0  0  0  0  0  0  0  0  0  0
  187.5590  177.9040  144.3600 N   0  0  0  0  0  0  0  0  0  0  0  0
  187.6070  177.6250  145.7060 N   0  0  0  0  0  0  0  0  0  0  0  0
  186.3130  178.1260  143.6280 C   0  0  0  0  0  0  0  0  0  0  0  0
  186.3390  178.1340  142.2310 C   0  0  0  0  0  3  0  0  0  0  0  0
  185.1640  178.3550  141.5140 C   0  0  0  0  0  3  0  0  0  0  0  0
  183.9340  178.5760  142.2050 C   0  0  0  0  0  0  0  0  0  0  0  0
  183.9090  178.5700  143.5680 C   0  0  0  0  0  0  0  0  0  0  0  0
  185.1150  178.3480  144.3060 C   0  0  0  0  0  3  0  0  0  0  0  0
  181.5940  178.9990  142.1200 C   0  0  0  0  0  3  0  0  0  0  0  0
  182.7700  178.7880  141.4770 N   0  0  0  0  0  0  0  0  0  0  0  0
  182.6980  178.7880  144.2290 C   0  0  0  0  0  3  0  0  0  0  0  0
  181.5540  178.9990  143.5140 C   0  0  0  0  0  3  0  0  0  0  0  0
  189.4420  177.1700  147.4300 C   0  0  0  0  0  0  0  0  0  0  0  0
  189.3570  178.4190  148.3060 C   0  0  0  0  0  1  0  0  0  0  0  0
  190.8950  176.7180  147.3090 C   0  0  0  0  0  1  0  0  0  0  0  0
  188.6060  176.0600  148.0420 C   0  0  0  0  0  1  0  0  0  0  0  0
  1 25  1  0  0  0  0
  2  4  2  0  0  0  0
  2  1  1  0  0  0  0
  3  2  1  0  0  0  0
  5 10  1  0  0  0  0
  6  7  1  0  0  0  0
  6  5  2  0  0  0  0
  7  8  2  0  0  0  0
  8  9  1  0  0  0  0
  9 10  2  0  0  0  0
  9 11  1  0  0  0  0
 10  3  1  0  0  0  0
 12 17  1  0  0  0  0
 12  7  1  0  0  0  0
 13 14  1  0  0  0  0
 15 19  1  0  0  0  0
 15 14  2  0  0  0  0
 16 15  1  0  0  0  0
 17 16  2  0  0  0  0
 17 18  1  0  0  0  0
 18 13  2  0  0  0  0
 19 20  2  0  0  0  0
 21 22  1  0  0  0  0
 21 19  1  0  0  0  0
 23 38  1  0  0  0  0
 24 23  1  0  0  0  0
 25 26  1  0  0  0  0
 25 24  2  0  0  0  0
 26 27  1  0  0  0  0
 27 23  2  0  0  0  0
 28 33  1  0  0  0  0
 28 26  1  0  0  0  0
 29 28  2  0  0  0  0
 30 31  2  0  0  0  0
 30 29  1  0  0  0  0
 31 32  1  0  0  0  0
 32 36  1  0  0  0  0
 32 33  2  0  0  0  0
 34 37  1  0  0  0  0
 35 34  2  0  0  0  0
 35 31  1  0  0  0  0
 37 36  2  0  0  0  0
 38 41  1  0  0  0  0
 38 39  1  0  0  0  0
 40 38  1  0  0  0  0
M  END
>  <MODEL>
4

>  <REMARK>
 VINA RESULT:      -9.6      2.115      2.589
  Name = 8u8b
  7 active torsions:
  status: ('A' for Active; 'I' for Inactive)
    1  A    between atoms: C_1  and  N_26
    2  A    between atoms: C_13  and  C_33
    3  A    between atoms: C_15  and  O_32
    4  A    between atoms: C_19  and  O_32
    5  A    between atoms: C_22  and  N_30
    6  A    between atoms: C_23  and  C_37
    7  A    between atoms: C_25  and  N_28
                            x       y       z     vdW  Elec       q    Type
                         _______ _______ _______ _____ _____    ______ ____

>  <TORSDO>
F 7

$$$$
8u8b
 OpenBabel10242410243D

 41 45  0  0  0  0  0  0  0  0999 V2000
  187.3540  178.7800  140.6410 N   0  0  0  0  0  2  0  0  0  0  0  0
  188.0690  178.0080  139.6150 C   0  0  0  0  0  0  0  0  0  0  0  0
  189.5330  178.0750  139.5950 N   0  0  0  0  0  2  0  0  0  0  0  0
  187.4660  177.3510  138.8310 O   0  0  0  0  0  0  0  0  0  0  0  0
  190.0950  176.9910  137.3860 C   0  0  0  0  0  3  0  0  0  0  0  0
  191.0280  176.3660  136.5730 C   0  0  0  0  0  3  0  0  0  0  0  0
  192.3160  176.1390  137.0260 C   0  0  0  0  0  0  0  0  0  0  0  0
  192.6720  176.5650  138.2950 C   0  0  0  0  0  3  0  0  0  0  0  0
  191.7360  177.1840  139.1020 C   0  0  0  0  0  0  0  0  0  0  0  0
  190.4480  177.3960  138.6680 C   0  0  0  0  0  0  0  0  0  0  0  0
  192.0760  177.5940  140.3530 F   0  0  0  0  0  0  0  0  0  0  0  0
  193.2810  175.5330  136.2010 O   0  0  0  0  0  0  0  0  0  0  0  0
  194.9770  172.9920  138.3240 C   0  0  0  0  0  3  0  0  0  0  0  0
  196.2420  173.2940  138.0800 N   0  0  0  0  0  0  0  0  0  0  0  0
  196.5680  174.2760  137.2640 C   0  0  0  0  0  0  0  0  0  0  0  0
  195.5900  175.0270  136.6370 C   0  0  0  0  0  3  0  0  0  0  0  0
  194.2480  174.7430  136.8500 C   0  0  0  0  0  0  0  0  0  0  0  0
  193.9470  173.7070  137.7220 C   0  0  0  0  0  3  0  0  0  0  0  0
  198.0290  174.6190  136.9880 C   0  0  0  0  0  0  0  0  0  0  0  0
  198.7040  175.0420  137.8640 O   0  0  0  0  0  0  0  0  0  0  0  0
  198.6050  174.4370  135.6710 N   0  0  0  0  0  2  0  0  0  0  0  0
  200.0000  174.7800  135.4650 C   0  0  0  0  0  1  0  0  0  0  0  0
  183.7210  178.8500  140.2190 C   0  0  0  0  0  0  0  0  0  0  0  0
  185.0080  178.9180  139.6940 C   0  0  0  0  0  3  0  0  0  0  0  0
  185.8900  178.7700  140.7390 C   0  0  0  0  0  0  0  0  0  0  0  0
  185.1700  178.6160  141.8350 N   0  0  0  0  0  0  0  0  0  0  0  0
  183.8280  178.6580  141.5380 N   0  0  0  0  0  0  0  0  0  0  0  0
  185.6910  178.4160  143.1870 C   0  0  0  0  0  0  0  0  0  0  0  0
  184.9210  178.8280  144.2780 C   0  0  0  0  0  3  0  0  0  0  0  0
  185.4030  178.6560  145.5750 C   0  0  0  0  0  3  0  0  0  0  0  0
  186.6830  178.0620  145.7900 C   0  0  0  0  0  0  0  0  0  0  0  0
  187.4350  177.6610  144.7260 C   0  0  0  0  0  0  0  0  0  0  0  0
  186.9440  177.8410  143.3940 C   0  0  0  0  0  3  0  0  0  0  0  0
  188.3630  177.3280  147.3070 C   0  0  0  0  0  3  0  0  0  0  0  0
  187.1480  177.8910  147.0880 N   0  0  0  0  0  0  0  0  0  0  0  0
  188.6860  177.0830  144.9530 C   0  0  0  0  0  3  0  0  0  0  0  0
  189.1440  176.9170  146.2280 C   0  0  0  0  0  3  0  0  0  0  0  0
  182.4160  178.9640  139.4270 C   0  0  0  0  0  0  0  0  0  0  0  0
  181.2310  178.7090  140.3570 C   0  0  0  0  0  1  0  0  0  0  0  0
  182.4230  177.9350  138.2990 C   0  0  0  0  0  1  0  0  0  0  0  0
  182.3170  180.3640  138.8470 C   0  0  0  0  0  1  0  0  0  0  0  0
  1 25  1  0  0  0  0
  2  1  1  0  0  0  0
  3  2  1  0  0  0  0
  4  2  2  0  0  0  0
  5 10  1  0  0  0  0
  6  7  1  0  0  0  0
  6  5  2  0  0  0  0
  7  8  2  0  0  0  0
  8  9  1  0  0  0  0
  9 11  1  0  0  0  0
 10  9  2  0  0  0  0
 10  3  1  0  0  0  0
 12 17  1  0  0  0  0
 12  7  1  0  0  0  0
 14 13  1  0  0  0  0
 15 14  2  0  0  0  0
 16 17  2  0  0  0  0
 16 15  1  0  0  0  0
 17 18  1  0  0  0  0
 18 13  2  0  0  0  0
 19 15  1  0  0  0  0
 19 20  2  0  0  0  0
 21 19  1  0  0  0  0
 22 21  1  0  0  0  0
 23 27  2  0  0  0  0
 24 23  1  0  0  0  0
 24 25  2  0  0  0  0
 25 26  1  0  0  0  0
 26 28  1  0  0  0  0
 27 26  1  0  0  0  0
 28 33  2  0  0  0  0
 28 29  1  0  0  0  0
 29 30  2  0  0  0  0
 30 31  1  0  0  0  0
 31 35  1  0  0  0  0
 32 36  1  0  0  0  0
 32 31  2  0  0  0  0
 33 32  1  0  0  0  0
 35 34  2  0  0  0  0
 36 37  2  0  0  0  0
 37 34  1  0  0  0  0
 38 23  1  0  0  0  0
 38 39  1  0  0  0  0
 40 38  1  0  0  0  0
 41 38  1  0  0  0  0
M  END
>  <MODEL>
5

>  <REMARK>
 VINA RESULT:      -9.4      1.948      5.266
  Name = 8u8b
  7 active torsions:
  status: ('A' for Active; 'I' for Inactive)
    1  A    between atoms: C_1  and  N_26
    2  A    between atoms: C_13  and  C_33
    3  A    between atoms: C_15  and  O_32
    4  A    between atoms: C_19  and  O_32
    5  A    between atoms: C_22  and  N_30
    6  A    between atoms: C_23  and  C_37
    7  A    between atoms: C_25  and  N_28
                            x       y       z     vdW  Elec       q    Type
                         _______ _______ _______ _____ _____    ______ ____

>  <TORSDO>
F 7

$$$$
8u8b
 OpenBabel10242410243D

 41 45  0  0  0  0  0  0  0  0999 V2000
  189.3970  178.5120  143.2880 N   0  0  0  0  0  2  0  0  0  0  0  0
  189.1630  177.7940  142.0270 C   0  0  0  0  0  0  0  0  0  0  0  0
  189.0120  178.5840  140.8010 N   0  0  0  0  0  2  0  0  0  0  0  0
  189.1010  176.6090  142.0150 O   0  0  0  0  0  0  0  0  0  0  0  0
  189.7720  177.6380  138.5880 C   0  0  0  0  0  3  0  0  0  0  0  0
  189.4510  177.1740  137.3210 C   0  0  0  0  0  3  0  0  0  0  0  0
  188.1360  177.1520  136.8930 C   0  0  0  0  0  0  0  0  0  0  0  0
  187.1360  177.5780  137.7520 C   0  0  0  0  0  3  0  0  0  0  0  0
  187.4640  178.0430  139.0130 C   0  0  0  0  0  0  0  0  0  0  0  0
  188.7700  178.0860  139.4400 C   0  0  0  0  0  0  0  0  0  0  0  0
  186.4880  178.4720  139.8570 F   0  0  0  0  0  0  0  0  0  0  0  0
  187.7930  176.6560  135.6220 O   0  0  0  0  0  0  0  0  0  0  0  0
  188.4460  173.1040  134.7280 C   0  0  0  0  0  3  0  0  0  0  0  0
  187.4100  172.5250  135.3130 N   0  0  0  0  0  0  0  0  0  0  0  0
  186.5160  173.2270  135.9800 C   0  0  0  0  0  0  0  0  0  0  0  0
  186.6350  174.6020  136.0850 C   0  0  0  0  0  3  0  0  0  0  0  0
  187.7090  175.2560  135.5010 C   0  0  0  0  0  0  0  0  0  0  0  0
  188.6230  174.4820  134.8010 C   0  0  0  0  0  3  0  0  0  0  0  0
  185.3240  172.5520  136.6500 C   0  0  0  0  0  0  0  0  0  0  0  0
  185.1330  172.7190  137.8060 O   0  0  0  0  0  0  0  0  0  0  0  0
  184.4200  171.7070  135.8950 N   0  0  0  0  0  2  0  0  0  0  0  0
  183.3030  171.0880  136.5830 C   0  0  0  0  0  1  0  0  0  0  0  0
  190.4540  176.6800  146.2730 C   0  0  0  0  0  0  0  0  0  0  0  0
  190.7320  177.2540  145.0360 C   0  0  0  0  0  3  0  0  0  0  0  0
  189.5640  177.8040  144.5630 C   0  0  0  0  0  0  0  0  0  0  0  0
  188.6330  177.5770  145.4710 N   0  0  0  0  0  0  0  0  0  0  0  0
  189.1600  176.8870  146.5370 N   0  0  0  0  0  0  0  0  0  0  0  0
  187.2330  177.9930  145.3930 C   0  0  0  0  0  0  0  0  0  0  0  0
  186.5740  178.3810  146.5620 C   0  0  0  0  0  3  0  0  0  0  0  0
  185.2360  178.7710  146.5110 C   0  0  0  0  0  3  0  0  0  0  0  0
  184.5370  178.7710  145.2660 C   0  0  0  0  0  0  0  0  0  0  0  0
  185.1800  178.3910  144.1250 C   0  0  0  0  0  0  0  0  0  0  0  0
  186.5510  177.9860  144.1760 C   0  0  0  0  0  3  0  0  0  0  0  0
  182.5300  179.1730  144.0540 C   0  0  0  0  0  3  0  0  0  0  0  0
  183.2060  179.1680  145.2290 N   0  0  0  0  0  0  0  0  0  0  0  0
  184.4810  178.3960  142.9150 C   0  0  0  0  0  3  0  0  0  0  0  0
  183.1730  178.7830  142.8790 C   0  0  0  0  0  3  0  0  0  0  0  0
  191.4540  175.9500  147.1740 C   0  0  0  0  0  0  0  0  0  0  0  0
  190.7560  174.7820  147.8680 C   0  0  0  0  0  1  0  0  0  0  0  0
  191.9950  176.9270  148.2160 C   0  0  0  0  0  1  0  0  0  0  0  0
  192.5940  175.4280  146.3180 C   0  0  0  0  0  1  0  0  0  0  0  0
  1 25  1  0  0  0  0
  2  1  1  0  0  0  0
  3  2  1  0  0  0  0
  4  2  2  0  0  0  0
  5 10  1  0  0  0  0
  6  5  2  0  0  0  0
  7  6  1  0  0  0  0
  7  8  2  0  0  0  0
  8  9  1  0  0  0  0
  9 10  2  0  0  0  0
  9 11  1  0  0  0  0
 10  3  1  0  0  0  0
 12  7  1  0  0  0  0
 13 18  2  0  0  0  0
 13 14  1  0  0  0  0
 14 15  2  0  0  0  0
 15 16  1  0  0  0  0
 15 19  1  0  0  0  0
 17 12  1  0  0  0  0
 17 16  2  0  0  0  0
 18 17  1  0  0  0  0
 19 20  2  0  0  0  0
 21 22  1  0  0  0  0
 21 19  1  0  0  0  0
 23 27  2  0  0  0  0
 23 38  1  0  0  0  0
 24 23  1  0  0  0  0
 25 24  2  0  0  0  0
 25 26  1  0  0  0  0
 26 27  1  0  0  0  0
 28 26  1  0  0  0  0
 28 29  1  0  0  0  0
 30 29  2  0  0  0  0
 31 30  1  0  0  0  0
 32 33  1  0  0  0  0
 32 31  2  0  0  0  0
 33 28  2  0  0  0  0
 34 35  2  0  0  0  0
 35 31  1  0  0  0  0
 36 32  1  0  0  0  0
 37 36  2  0  0  0  0
 37 34  1  0  0  0  0
 38 39  1  0  0  0  0
 38 40  1  0  0  0  0
 41 38  1  0  0  0  0
M  END
>  <MODEL>
6

>  <REMARK>
 VINA RESULT:      -9.2      4.655      6.288
  Name = 8u8b
  7 active torsions:
  status: ('A' for Active; 'I' for Inactive)
    1  A    between atoms: C_1  and  N_26
    2  A    between atoms: C_13  and  C_33
    3  A    between atoms: C_15  and  O_32
    4  A    between atoms: C_19  and  O_32
    5  A    between atoms: C_22  and  N_30
    6  A    between atoms: C_23  and  C_37
    7  A    between atoms: C_25  and  N_28
                            x       y       z     vdW  Elec       q    Type
                         _______ _______ _______ _____ _____    ______ ____

>  <TORSDO>
F 7

$$$$
8u8b
 OpenBabel10242410243D

 41 45  0  0  0  0  0  0  0  0999 V2000
  187.3270  178.7940  141.1070 N   0  0  0  0  0  2  0  0  0  0  0  0
  188.0770  178.0220  140.1060 C   0  0  0  0  0  0  0  0  0  0  0  0
  189.5350  178.1700  140.0690 N   0  0  0  0  0  2  0  0  0  0  0  0
  187.5050  177.3020  139.3540 O   0  0  0  0  0  0  0  0  0  0  0  0
  190.1680  177.1220  137.8620 C   0  0  0  0  0  3  0  0  0  0  0  0
  191.1280  176.5100  137.0700 C   0  0  0  0  0  3  0  0  0  0  0  0
  192.4000  176.2770  137.5600 C   0  0  0  0  0  0  0  0  0  0  0  0
  192.7150  176.6820  138.8470 C   0  0  0  0  0  3  0  0  0  0  0  0
  191.7530  177.2880  139.6330 C   0  0  0  0  0  0  0  0  0  0  0  0
  190.4790  177.5070  139.1610 C   0  0  0  0  0  0  0  0  0  0  0  0
  192.0520  177.6780  140.9010 F   0  0  0  0  0  0  0  0  0  0  0  0
  193.3920  175.6850  136.7580 O   0  0  0  0  0  0  0  0  0  0  0  0
  195.7490  173.7350  138.8740 C   0  0  0  0  0  3  0  0  0  0  0  0
  195.5410  172.5200  138.3930 N   0  0  0  0  0  0  0  0  0  0  0  0
  194.6770  172.3050  137.4210 C   0  0  0  0  0  0  0  0  0  0  0  0
  193.9600  173.3520  136.8700 C   0  0  0  0  0  3  0  0  0  0  0  0
  194.1320  174.6430  137.3470 C   0  0  0  0  0  0  0  0  0  0  0  0
  195.0570  174.8290  138.3650 C   0  0  0  0  0  3  0  0  0  0  0  0
  194.4440  170.9010  136.8710 C   0  0  0  0  0  0  0  0  0  0  0  0
  193.4830  170.6840  136.2140 O   0  0  0  0  0  0  0  0  0  0  0  0
  195.3790  169.8270  137.1390 N   0  0  0  0  0  2  0  0  0  0  0  0
  195.1070  168.5110  136.5910 C   0  0  0  0  0  1  0  0  0  0  0  0
  183.6920  178.6600  140.7190 C   0  0  0  0  0  0  0  0  0  0  0  0
  184.9690  178.7880  140.1810 C   0  0  0  0  0  3  0  0  0  0  0  0
  185.8670  178.7070  141.2190 C   0  0  0  0  0  0  0  0  0  0  0  0
  185.1660  178.5320  142.3240 N   0  0  0  0  0  0  0  0  0  0  0  0
  183.8210  178.4970  142.0400 N   0  0  0  0  0  0  0  0  0  0  0  0
  185.7080  178.3840  143.6750 C   0  0  0  0  0  0  0  0  0  0  0  0
  184.9380  178.7980  144.7650 C   0  0  0  0  0  3  0  0  0  0  0  0
  185.4390  178.6750  146.0590 C   0  0  0  0  0  3  0  0  0  0  0  0
  186.7410  178.1290  146.2740 C   0  0  0  0  0  0  0  0  0  0  0  0
  187.4940  177.7270  145.2110 C   0  0  0  0  0  0  0  0  0  0  0  0
  186.9820  177.8570  143.8800 C   0  0  0  0  0  3  0  0  0  0  0  0
  188.4610  177.4910  147.7880 C   0  0  0  0  0  3  0  0  0  0  0  0
  187.2270  178.0080  147.5700 N   0  0  0  0  0  0  0  0  0  0  0  0
  188.7660  177.1960  145.4370 C   0  0  0  0  0  3  0  0  0  0  0  0
  189.2440  177.0780  146.7100 C   0  0  0  0  0  3  0  0  0  0  0  0
  182.3760  178.6890  139.9370 C   0  0  0  0  0  0  0  0  0  0  0  0
  181.2690  179.2540  140.8250 C   0  0  0  0  0  1  0  0  0  0  0  0
  182.0200  177.2700  139.5010 C   0  0  0  0  0  1  0  0  0  0  0  0
  182.5530  179.5750  138.7160 C   0  0  0  0  0  1  0  0  0  0  0  0
  1 25  1  0  0  0  0
  2  1  1  0  0  0  0
  3  2  1  0  0  0  0
  4  2  2  0  0  0  0
  5 10  1  0  0  0  0
  6  7  1  0  0  0  0
  6  5  2  0  0  0  0
  7  8  2  0  0  0  0
  8  9  1  0  0  0  0
  9 11  1  0  0  0  0
 10  9  2  0  0  0  0
 10  3  1  0  0  0  0
 12 17  1  0  0  0  0
 12  7  1  0  0  0  0
 14 13  1  0  0  0  0
 15 14  2  0  0  0  0
 16 17  2  0  0  0  0
 16 15  1  0  0  0  0
 17 18  1  0  0  0  0
 18 13  2  0  0  0  0
 19 21  1  0  0  0  0
 19 15  1  0  0  0  0
 20 19  2  0  0  0  0
 22 21  1  0  0  0  0
 23 27  2  0  0  0  0
 24 23  1  0  0  0  0
 24 25  2  0  0  0  0
 25 26  1  0  0  0  0
 26 28  1  0  0  0  0
 27 26  1  0  0  0  0
 28 33  2  0  0  0  0
 28 29  1  0  0  0  0
 29 30  2  0  0  0  0
 30 31  1  0  0  0  0
 31 35  1  0  0  0  0
 32 36  1  0  0  0  0
 32 31  2  0  0  0  0
 33 32  1  0  0  0  0
 35 34  2  0  0  0  0
 36 37  2  0  0  0  0
 37 34  1  0  0  0  0
 38 23  1  0  0  0  0
 38 39  1  0  0  0  0
 40 38  1  0  0  0  0
 41 38  1  0  0  0  0
M  END
>  <MODEL>
7

>  <REMARK>
 VINA RESULT:      -9.2      2.466      5.569
  Name = 8u8b
  7 active torsions:
  status: ('A' for Active; 'I' for Inactive)
    1  A    between atoms: C_1  and  N_26
    2  A    between atoms: C_13  and  C_33
    3  A    between atoms: C_15  and  O_32
    4  A    between atoms: C_19  and  O_32
    5  A    between atoms: C_22  and  N_30
    6  A    between atoms: C_23  and  C_37
    7  A    between atoms: C_25  and  N_28
                            x       y       z     vdW  Elec       q    Type
                         _______ _______ _______ _____ _____    ______ ____

>  <TORSDO>
F 7

$$$$
8u8b
 OpenBabel10242410243D

 41 45  0  0  0  0  0  0  0  0999 V2000
  186.0310  179.1900  140.7740 N   0  0  0  0  0  2  0  0  0  0  0  0
  186.6770  178.4070  139.7100 C   0  0  0  0  0  0  0  0  0  0  0  0
  188.0980  178.6470  139.4430 N   0  0  0  0  0  2  0  0  0  0  0  0
  186.0540  177.6070  139.0930 O   0  0  0  0  0  0  0  0  0  0  0  0
  189.9510  177.0830  138.7390 C   0  0  0  0  0  3  0  0  0  0  0  0
  190.6920  176.5010  137.7220 C   0  0  0  0  0  3  0  0  0  0  0  0
  190.4390  176.8170  136.3990 C   0  0  0  0  0  0  0  0  0  0  0  0
  189.4190  177.7050  136.0970 C   0  0  0  0  0  3  0  0  0  0  0  0
  188.6850  178.2830  137.1170 C   0  0  0  0  0  0  0  0  0  0  0  0
  188.9430  177.9900  138.4360 C   0  0  0  0  0  0  0  0  0  0  0  0
  187.6900  179.1640  136.8280 F   0  0  0  0  0  0  0  0  0  0  0  0
  191.1630  176.2130  135.3550 O   0  0  0  0  0  0  0  0  0  0  0  0
  192.6580  172.9180  136.2210 C   0  0  0  0  0  3  0  0  0  0  0  0
  193.8970  173.2920  136.4960 N   0  0  0  0  0  0  0  0  0  0  0  0
  194.2680  174.5530  136.4130 C   0  0  0  0  0  0  0  0  0  0  0  0
  193.3650  175.5320  136.0370 C   0  0  0  0  0  3  0  0  0  0  0  0
  192.0560  175.1900  135.7270 C   0  0  0  0  0  0  0  0  0  0  0  0
  191.7040  173.8530  135.8340 C   0  0  0  0  0  3  0  0  0  0  0  0
  195.6990  174.9770  136.7330 C   0  0  0  0  0  0  0  0  0  0  0  0
  196.1510  175.9410  136.2170 O   0  0  0  0  0  0  0  0  0  0  0  0
  196.5150  174.2160  137.6590 N   0  0  0  0  0  2  0  0  0  0  0  0
  197.8690  174.6640  137.9260 C   0  0  0  0  0  1  0  0  0  0  0  0
  182.3920  178.8720  140.9650 C   0  0  0  0  0  0  0  0  0  0  0  0
  183.5570  179.0990  140.2380 C   0  0  0  0  0  3  0  0  0  0  0  0
  184.6150  179.0150  141.1130 C   0  0  0  0  0  0  0  0  0  0  0  0
  184.1120  178.7470  142.3040 N   0  0  0  0  0  0  0  0  0  0  0  0
  182.7420  178.6510  142.2370 N   0  0  0  0  0  0  0  0  0  0  0  0
  184.8730  178.5620  143.5390 C   0  0  0  0  0  0  0  0  0  0  0  0
  184.2930  178.9320  144.7550 C   0  0  0  0  0  3  0  0  0  0  0  0
  185.0050  178.7730  145.9440 C   0  0  0  0  0  3  0  0  0  0  0  0
  186.3280  178.2360  145.9190 C   0  0  0  0  0  0  0  0  0  0  0  0
  186.8940  177.8770  144.7320 C   0  0  0  0  0  0  0  0  0  0  0  0
  186.1670  178.0430  143.5110 C   0  0  0  0  0  3  0  0  0  0  0  0
  188.2800  177.5690  147.1030 C   0  0  0  0  0  3  0  0  0  0  0  0
  187.0230  178.0780  147.1110 N   0  0  0  0  0  0  0  0  0  0  0  0
  188.1900  177.3540  144.7250 C   0  0  0  0  0  3  0  0  0  0  0  0
  188.8740  177.2010  145.8960 C   0  0  0  0  0  3  0  0  0  0  0  0
  180.9660  178.8670  140.4070 C   0  0  0  0  0  0  0  0  0  0  0  0
  180.1300  179.9180  141.1360 C   0  0  0  0  0  1  0  0  0  0  0  0
  180.3540  177.4830  140.6090 C   0  0  0  0  0  1  0  0  0  0  0  0
  181.0200  179.1960  138.9250 C   0  0  0  0  0  1  0  0  0  0  0  0
  1 25  1  0  0  0  0
  2  1  1  0  0  0  0
  3  2  1  0  0  0  0
  4  2  2  0  0  0  0
  6  5  2  0  0  0  0
  7  6  1  0  0  0  0
  8  7  2  0  0  0  0
  8  9  1  0  0  0  0
  9 10  2  0  0  0  0
 10  5  1  0  0  0  0
 10  3  1  0  0  0  0
 11  9  1  0  0  0  0
 12 17  1  0  0  0  0
 12  7  1  0  0  0  0
 13 14  1  0  0  0  0
 15 14  2  0  0  0  0
 15 19  1  0  0  0  0
 16 15  1  0  0  0  0
 17 18  1  0  0  0  0
 17 16  2  0  0  0  0
 18 13  2  0  0  0  0
 19 21  1  0  0  0  0
 20 19  2  0  0  0  0
 21 22  1  0  0  0  0
 23 27  2  0  0  0  0
 24 23  1  0  0  0  0
 24 25  2  0  0  0  0
 25 26  1  0  0  0  0
 26 28  1  0  0  0  0
 27 26  1  0  0  0  0
 28 29  1  0  0  0  0
 29 30  2  0  0  0  0
 31 30  1  0  0  0  0
 31 35  1  0  0  0  0
 32 31  2  0  0  0  0
 33 28  2  0  0  0  0
 33 32  1  0  0  0  0
 34 35  2  0  0  0  0
 36 32  1  0  0  0  0
 36 37  2  0  0  0  0
 37 34  1  0  0  0  0
 38 40  1  0  0  0  0
 38 23  1  0  0  0  0
 38 39  1  0  0  0  0
 41 38  1  0  0  0  0
M  END
>  <MODEL>
8

>  <REMARK>
 VINA RESULT:      -9.2      2.378      5.689
  Name = 8u8b
  7 active torsions:
  status: ('A' for Active; 'I' for Inactive)
    1  A    between atoms: C_1  and  N_26
    2  A    between atoms: C_13  and  C_33
    3  A    between atoms: C_15  and  O_32
    4  A    between atoms: C_19  and  O_32
    5  A    between atoms: C_22  and  N_30
    6  A    between atoms: C_23  and  C_37
    7  A    between atoms: C_25  and  N_28
                            x       y       z     vdW  Elec       q    Type
                         _______ _______ _______ _____ _____    ______ ____

>  <TORSDO>
F 7

$$$$
8u8b
 OpenBabel10242410243D

 41 45  0  0  0  0  0  0  0  0999 V2000
  188.2700  178.5400  142.7010 N   0  0  0  0  0  2  0  0  0  0  0  0
  188.8750  177.6410  141.7080 C   0  0  0  0  0  0  0  0  0  0  0  0
  188.9910  178.1170  140.3260 N   0  0  0  0  0  2  0  0  0  0  0  0
  189.2550  176.5630  142.0280 O   0  0  0  0  0  0  0  0  0  0  0  0
  190.5700  176.4550  139.2700 C   0  0  0  0  0  3  0  0  0  0  0  0
  191.0320  175.8140  138.1310 C   0  0  0  0  0  3  0  0  0  0  0  0
  190.4900  176.1040  136.8920 C   0  0  0  0  0  0  0  0  0  0  0  0
  189.4600  177.0270  136.8020 C   0  0  0  0  0  3  0  0  0  0  0  0
  189.0060  177.6640  137.9420 C   0  0  0  0  0  0  0  0  0  0  0  0
  189.5530  177.3970  139.1750 C   0  0  0  0  0  0  0  0  0  0  0  0
  188.0040  178.5790  137.8590 F   0  0  0  0  0  0  0  0  0  0  0  0
  190.9290  175.4400  135.7320 O   0  0  0  0  0  0  0  0  0  0  0  0
  190.5020  171.8850  134.7230 C   0  0  0  0  0  3  0  0  0  0  0  0
  189.2590  171.6770  135.1290 N   0  0  0  0  0  0  0  0  0  0  0  0
  188.5590  172.6300  135.7110 C   0  0  0  0  0  0  0  0  0  0  0  0
  189.1050  173.8850  135.9130 C   0  0  0  0  0  3  0  0  0  0  0  0
  190.4080  174.1500  135.5170 C   0  0  0  0  0  0  0  0  0  0  0  0
  191.1090  173.1230  134.9010 C   0  0  0  0  0  3  0  0  0  0  0  0
  187.1270  172.3820  136.1740 C   0  0  0  0  0  0  0  0  0  0  0  0
  186.4470  171.6130  135.5840 O   0  0  0  0  0  0  0  0  0  0  0  0
  186.5820  173.0750  137.3250 N   0  0  0  0  0  2  0  0  0  0  0  0
  185.2130  172.8020  137.7210 C   0  0  0  0  0  1  0  0  0  0  0  0
  188.5590  177.5170  146.2010 C   0  0  0  0  0  0  0  0  0  0  0  0
  189.1350  177.8260  144.9730 C   0  0  0  0  0  3  0  0  0  0  0  0
  188.1170  178.1500  144.1070 C   0  0  0  0  0  0  0  0  0  0  0  0
  186.9870  178.0460  144.7820 N   0  0  0  0  0  0  0  0  0  0  0  0
  187.2350  177.6590  146.0780 N   0  0  0  0  0  0  0  0  0  0  0  0
  185.6440  178.3050  144.2610 C   0  0  0  0  0  0  0  0  0  0  0  0
  184.6680  178.8090  145.1240 C   0  0  0  0  0  3  0  0  0  0  0  0
  183.3800  179.0540  144.6510 C   0  0  0  0  0  3  0  0  0  0  0  0
  183.0560  178.7880  143.2860 C   0  0  0  0  0  0  0  0  0  0  0  0
  184.0080  178.2950  142.4440 C   0  0  0  0  0  0  0  0  0  0  0  0
  185.3300  178.0390  142.9290 C   0  0  0  0  0  3  0  0  0  0  0  0
  181.4480  178.7950  141.5320 C   0  0  0  0  0  3  0  0  0  0  0  0
  181.7690  179.0420  142.8260 N   0  0  0  0  0  0  0  0  0  0  0  0
  183.6750  178.0400  141.1110 C   0  0  0  0  0  3  0  0  0  0  0  0
  182.4110  178.2870  140.6610 C   0  0  0  0  0  3  0  0  0  0  0  0
  189.3070  177.0980  147.4690 C   0  0  0  0  0  0  0  0  0  0  0  0
  188.5610  175.9500  148.1460 C   0  0  0  0  0  1  0  0  0  0  0  0
  189.3950  178.2920  148.4170 C   0  0  0  0  0  1  0  0  0  0  0  0
  190.7040  176.6420  147.0840 C   0  0  0  0  0  1  0  0  0  0  0  0
  1 25  1  0  0  0  0
  2  4  2  0  0  0  0
  2  1  1  0  0  0  0
  3  2  1  0  0  0  0
  6  5  2  0  0  0  0
  7  6  1  0  0  0  0
  8  7  2  0  0  0  0
  8  9  1  0  0  0  0
  9 10  2  0  0  0  0
 10  5  1  0  0  0  0
 10  3  1  0  0  0  0
 11  9  1  0  0  0  0
 12  7  1  0  0  0  0
 13 18  2  0  0  0  0
 13 14  1  0  0  0  0
 14 15  2  0  0  0  0
 15 16  1  0  0  0  0
 15 19  1  0  0  0  0
 17 12  1  0  0  0  0
 17 16  2  0  0  0  0
 18 17  1  0  0  0  0
 19 21  1  0  0  0  0
 20 19  2  0  0  0  0
 21 22  1  0  0  0  0
 23 38  1  0  0  0  0
 24 23  1  0  0  0  0
 25 26  1  0  0  0  0
 25 24  2  0  0  0  0
 26 27  1  0  0  0  0
 27 23  2  0  0  0  0
 28 26  1  0  0  0  0
 28 29  1  0  0  0  0
 30 29  2  0  0  0  0
 31 30  1  0  0  0  0
 32 33  1  0  0  0  0
 32 31  2  0  0  0  0
 33 28  2  0  0  0  0
 34 35  2  0  0  0  0
 35 31  1  0  0  0  0
 36 32  1  0  0  0  0
 37 36  2  0  0  0  0
 37 34  1  0  0  0  0
 38 39  1  0  0  0  0
 38 40  1  0  0  0  0
 41 38  1  0  0  0  0
M  END
>  <MODEL>
9

>  <REMARK>
 VINA RESULT:      -9.2      3.699      5.132
  Name = 8u8b
  7 active torsions:
  status: ('A' for Active; 'I' for Inactive)
    1  A    between atoms: C_1  and  N_26
    2  A    between atoms: C_13  and  C_33
    3  A    between atoms: C_15  and  O_32
    4  A    between atoms: C_19  and  O_32
    5  A    between atoms: C_22  and  N_30
    6  A    between atoms: C_23  and  C_37
    7  A    between atoms: C_25  and  N_28
                            x       y       z     vdW  Elec       q    Type
                         _______ _______ _______ _____ _____    ______ ____

>  <TORSDO>
F 7

$$$$
