8fo7
 OpenBabel10242410253D

 42 47  0  0  1  0  0  0  0  0999 V2000
  183.5050  178.4630  140.5300 C   0  0  0  0  0  3  0  0  0  0  0  0
  184.1540  178.7180  141.7440 C   0  0  0  0  0  3  0  0  0  0  0  0
  181.3720  178.5750  141.6260 C   0  0  0  0  0  3  0  0  0  0  0  0
  182.0910  178.3860  140.4530 C   0  0  0  0  0  0  0  0  0  0  0  0
  183.4060  178.9090  142.9140 C   0  0  0  0  0  0  0  0  0  0  0  0
  182.0150  178.8330  142.8400 C   0  0  0  0  0  0  0  0  0  0  0  0
  187.8640  177.2830  148.6500 C   0  0  0  0  0  1  0  0  0  0  0  0
  187.5520  176.1430  143.2690 C   0  0  0  0  0  1  0  0  0  0  0  0
  191.8550  178.6190  144.1570 C   0  0  0  0  0  3  0  0  0  0  0  0
  191.1280  178.3470  143.0020 C   0  0  0  0  0  3  0  0  0  0  0  0
  191.3070  178.3360  145.4070 C   0  0  0  0  0  3  0  0  0  0  0  0
  189.8480  177.7940  143.0740 C   0  0  0  0  0  3  0  0  0  0  0  0
  183.8810  179.1600  144.1730 N   0  0  0  0  0  2  0  0  0  0  0  0
  190.3700  177.1750  147.6980 O   0  0  0  0  0  0  0  0  0  0  0  0
  189.5130  177.5110  146.8460 C   0  0  0  0  0  0  0  0  0  0  0  0
  190.0180  177.7820  145.5030 C   0  0  0  0  0  0  0  0  0  0  0  0
  189.2690  177.4940  144.3340 C   0  0  0  0  0  0  0  0  0  0  0  0
  188.1700  177.5840  147.2770 N   0  0  0  0  0  0  0  0  0  0  0  0
  187.9990  176.9490  144.3770 N   0  0  0  0  0  0  0  0  0  0  0  0
  184.9870  179.0560  146.1650 N   0  0  0  0  0  0  0  0  0  0  0  0
  184.9550  178.7470  144.8600 C   0  0  0  0  0  0  0  0  0  0  0  0
  185.9480  178.0520  144.2800 N   0  0  0  0  0  0  0  0  0  0  0  0
  187.0100  177.6490  145.0090 C   0  0  2  0  0  3  0  0  0  0  0  0
  187.0990  177.9620  146.3980 C   0  0  0  0  0  0  0  0  0  0  0  0
  185.9990  178.6910  146.9230 C   0  0  0  0  0  3  0  0  0  0  0  0
  180.9330  175.5400  136.4710 C   0  0  0  0  0  2  0  0  0  0  0  0
  183.1810  175.3950  137.8310 C   0  0  0  0  0  2  0  0  0  0  0  0
  180.6570  176.8190  137.2850 C   0  0  0  0  0  2  0  0  0  0  0  0
  182.2400  175.8510  138.9460 C   0  0  0  0  0  2  0  0  0  0  0  0
  180.6610  179.0640  138.8070 O   0  0  0  0  0  0  0  0  0  0  0  0
  181.3910  178.1230  139.2320 C   0  0  0  0  0  0  0  0  0  0  0  0
  182.3970  175.0170  136.5490 C   0  0  1  0  0  3  0  0  0  0  0  0
  181.4260  176.9670  138.5010 N   0  0  0  0  0  0  0  0  0  0  0  0
  184.4880  170.8220  134.9470 C   0  0  0  0  0  1  0  0  0  0  0  0
  182.0840  171.4590  135.0230 C   0  0  0  0  0  2  0  0  0  0  0  0
  183.4270  171.3690  137.0980 C   0  0  0  0  0  2  0  0  0  0  0  0
  182.3220  172.9840  134.9560 C   0  0  0  0  0  2  0  0  0  0  0  0
  183.6730  172.8850  137.0040 C   0  0  0  0  0  2  0  0  0  0  0  0
  183.2290  170.8110  135.7300 N   0  0  0  0  0  0  0  0  0  0  0  0
  182.5220  173.5420  136.3360 N   0  0  0  0  0  0  0  0  0  0  0  0
  180.0280  178.5170  144.1680 C   0  0  0  0  0  1  0  0  0  0  0  0
  181.3650  179.0230  144.0280 O   0  0  0  0  0  0  0  0  0  0  0  0
  1  2  1  0  0  0  0
  2  5  2  0  0  0  0
  3  6  2  0  0  0  0
  4  1  2  0  0  0  0
  4  3  1  0  0  0  0
  5 13  1  0  0  0  0
  6  5  1  0  0  0  0
  6 42  1  0  0  0  0
  8 19  1  0  0  0  0
  9 11  1  0  0  0  0
 10 12  1  0  0  0  0
 10  9  2  0  0  0  0
 11 16  2  0  0  0  0
 12 17  2  0  0  0  0
 13 21  1  0  0  0  0
 15 18  1  0  0  0  0
 15 14  2  0  0  0  0
 16 15  1  0  0  0  0
 17 19  1  0  0  0  0
 17 16  1  0  0  0  0
 18  7  1  0  0  0  0
 19 23  1  0  0  0  0
 20 25  1  0  0  0  0
 21 20  2  0  0  0  0
 22 21  2  0  0  0  0
 23 22  1  6  0  0  0
 23 24  1  0  0  0  0
 24 25  2  0  0  0  0
 24 18  1  0  0  0  0
 26 32  1  0  0  0  0
 26 28  1  0  0  0  0
 27 29  1  0  0  0  0
 28 33  1  0  0  0  0
 30 31  2  0  0  0  0
 31  4  1  0  0  0  0
 32 40  1  1  0  0  0
 32 27  1  0  0  0  0
 33 29  1  0  0  0  0
 33 31  1  0  0  0  0
 34 39  1  0  0  0  0
 35 39  1  0  0  0  0
 37 35  1  0  0  0  0
 37 40  1  0  0  0  0
 38 36  1  0  0  0  0
 39 36  1  0  0  0  0
 40 38  1  0  0  0  0
 42 41  1  0  0  0  0
M  END
>  <MODEL>
1

>  <REMARK>
 VINA RESULT:      -9.9      0.000      0.000
  Name = 8fo7
  4 active torsions:
  status: ('A' for Active; 'I' for Inactive)
    1  A    between atoms: N_20  and  C_26
    2  A    between atoms: O_23  and  C_27
    3  A    between atoms: C_24  and  C_25
    4  A    between atoms: C_31  and  N_34
                            x       y       z     vdW  Elec       q    Type
                         _______ _______ _______ _____ _____    ______ ____

>  <TORSDO>
F 4

$$$$
8fo7
 OpenBabel10242410253D

 42 47  0  0  1  0  0  0  0  0999 V2000
  189.9790  177.2340  138.4970 C   0  0  0  0  0  3  0  0  0  0  0  0
  189.2420  177.9940  139.4130 C   0  0  0  0  0  3  0  0  0  0  0  0
  188.0130  176.9020  137.1600 C   0  0  0  0  0  3  0  0  0  0  0  0
  189.3700  176.6710  137.3470 C   0  0  0  0  0  0  0  0  0  0  0  0
  187.8740  178.2160  139.2000 C   0  0  0  0  0  0  0  0  0  0  0  0
  187.2730  177.6630  138.0690 C   0  0  0  0  0  0  0  0  0  0  0  0
  183.5860  178.8330  145.2540 C   0  0  0  0  0  1  0  0  0  0  0  0
  187.7560  175.6850  143.5070 C   0  0  0  0  0  1  0  0  0  0  0  0
  189.2240  178.1780  147.6370 C   0  0  0  0  0  3  0  0  0  0  0  0
  189.9100  177.4980  146.6350 C   0  0  0  0  0  3  0  0  0  0  0  0
  187.8590  178.4250  147.5020 C   0  0  0  0  0  3  0  0  0  0  0  0
  189.2500  177.0570  145.4870 C   0  0  0  0  0  3  0  0  0  0  0  0
  187.0140  178.9260  139.9940 N   0  0  0  0  0  2  0  0  0  0  0  0
  185.1320  178.2840  147.3770 O   0  0  0  0  0  0  0  0  0  0  0  0
  185.7460  178.2850  146.2830 C   0  0  0  0  0  0  0  0  0  0  0  0
  187.1750  177.9920  146.3510 C   0  0  0  0  0  0  0  0  0  0  0  0
  187.8610  177.2930  145.3260 C   0  0  0  0  0  0  0  0  0  0  0  0
  184.9930  178.5620  145.1210 N   0  0  0  0  0  0  0  0  0  0  0  0
  187.2310  176.8470  144.1780 N   0  0  0  0  0  0  0  0  0  0  0  0
  185.5670  179.5770  141.6320 N   0  0  0  0  0  0  0  0  0  0  0  0
  186.5790  178.7830  141.2530 C   0  0  0  0  0  0  0  0  0  0  0  0
  187.1190  177.8860  142.0950 N   0  0  0  0  0  0  0  0  0  0  0  0
  186.6490  177.7690  143.3550 C   0  0  2  0  0  3  0  0  0  0  0  0
  185.5820  178.5980  143.8120 C   0  0  0  0  0  0  0  0  0  0  0  0
  185.0710  179.5070  142.8490 C   0  0  0  0  0  3  0  0  0  0  0  0
  193.5200  174.4340  135.5930 C   0  0  0  0  0  2  0  0  0  0  0  0
  193.4900  176.5180  137.1980 C   0  0  0  0  0  2  0  0  0  0  0  0
  192.0030  174.6660  135.4500 C   0  0  0  0  0  2  0  0  0  0  0  0
  192.1900  175.8430  137.6370 C   0  0  0  0  0  2  0  0  0  0  0  0
  189.4340  175.5320  135.3690 O   0  0  0  0  0  0  0  0  0  0  0  0
  190.0900  175.8850  136.3910 C   0  0  0  0  0  0  0  0  0  0  0  0
  194.3040  175.6100  136.2440 C   0  0  1  0  0  3  0  0  0  0  0  0
  191.3920  175.4750  136.4820 N   0  0  0  0  0  0  0  0  0  0  0  0
  198.0140  172.5620  137.4640 C   0  0  0  0  0  1  0  0  0  0  0  0
  196.7510  174.1630  138.8910 C   0  0  0  0  0  2  0  0  0  0  0  0
  198.0180  174.9620  136.9220 C   0  0  0  0  0  2  0  0  0  0  0  0
  195.4630  174.1550  138.0370 C   0  0  0  0  0  2  0  0  0  0  0  0
  196.7300  174.9260  136.0800 C   0  0  0  0  0  2  0  0  0  0  0  0
  197.9330  173.9410  138.0040 N   0  0  0  0  0  0  0  0  0  0  0  0
  195.5530  175.1850  136.9470 N   0  0  0  0  0  0  0  0  0  0  0  0
  185.1970  177.2380  136.9190 C   0  0  0  0  0  1  0  0  0  0  0  0
  185.9360  177.9220  137.9440 O   0  0  0  0  0  0  0  0  0  0  0  0
  1  2  1  0  0  0  0
  3  4  1  0  0  0  0
  3  6  2  0  0  0  0
  4  1  2  0  0  0  0
  5  2  2  0  0  0  0
  5 13  1  0  0  0  0
  6  5  1  0  0  0  0
  8 19  1  0  0  0  0
 10  9  2  0  0  0  0
 11  9  1  0  0  0  0
 12 10  1  0  0  0  0
 13 21  1  0  0  0  0
 15 16  1  0  0  0  0
 15 14  2  0  0  0  0
 16 11  2  0  0  0  0
 17 12  2  0  0  0  0
 17 16  1  0  0  0  0
 18  7  1  0  0  0  0
 18 15  1  0  0  0  0
 19 17  1  0  0  0  0
 20 25  1  0  0  0  0
 21 20  2  0  0  0  0
 21 22  2  0  0  0  0
 23 22  1  1  0  0  0
 23 24  1  0  0  0  0
 23 19  1  0  0  0  0
 24 18  1  0  0  0  0
 25 24  2  0  0  0  0
 27 29  1  0  0  0  0
 28 26  1  0  0  0  0
 28 33  1  0  0  0  0
 30 31  2  0  0  0  0
 31 33  1  0  0  0  0
 31  4  1  0  0  0  0
 32 26  1  1  0  0  0
 32 40  1  0  0  0  0
 32 27  1  0  0  0  0
 33 29  1  0  0  0  0
 34 39  1  0  0  0  0
 36 39  1  0  0  0  0
 37 35  1  0  0  0  0
 38 36  1  0  0  0  0
 38 40  1  0  0  0  0
 39 35  1  0  0  0  0
 40 37  1  0  0  0  0
 41 42  1  0  0  0  0
 42  6  1  0  0  0  0
M  END
>  <MODEL>
2

>  <REMARK>
 VINA RESULT:      -9.6      5.903      8.540
  Name = 8fo7
  4 active torsions:
  status: ('A' for Active; 'I' for Inactive)
    1  A    between atoms: N_20  and  C_26
    2  A    between atoms: O_23  and  C_27
    3  A    between atoms: C_24  and  C_25
    4  A    between atoms: C_31  and  N_34
                            x       y       z     vdW  Elec       q    Type
                         _______ _______ _______ _____ _____    ______ ____

>  <TORSDO>
F 4

$$$$
8fo7
 OpenBabel10242410253D

 42 47  0  0  1  0  0  0  0  0999 V2000
  190.5930  176.9810  137.9780 C   0  0  0  0  0  3  0  0  0  0  0  0
  189.8660  177.6100  138.9950 C   0  0  0  0  0  3  0  0  0  0  0  0
  188.7830  177.3300  136.4410 C   0  0  0  0  0  3  0  0  0  0  0  0
  190.0570  176.8300  136.6740 C   0  0  0  0  0  0  0  0  0  0  0  0
  188.5830  178.1110  138.7340 C   0  0  0  0  0  0  0  0  0  0  0  0
  188.0530  177.9620  137.4520 C   0  0  0  0  0  0  0  0  0  0  0  0
  184.6580  178.2540  145.0580 C   0  0  0  0  0  1  0  0  0  0  0  0
  188.8480  175.3890  142.9160 C   0  0  0  0  0  1  0  0  0  0  0  0
  190.4580  177.7650  147.0630 C   0  0  0  0  0  3  0  0  0  0  0  0
  191.1100  177.1630  145.9910 C   0  0  0  0  0  3  0  0  0  0  0  0
  189.0780  177.9520  147.0220 C   0  0  0  0  0  3  0  0  0  0  0  0
  190.4000  176.7420  144.8650 C   0  0  0  0  0  3  0  0  0  0  0  0
  187.7430  178.7430  139.6110 N   0  0  0  0  0  2  0  0  0  0  0  0
  186.3570  177.6860  147.0560 O   0  0  0  0  0  0  0  0  0  0  0  0
  186.9010  177.7650  145.9280 C   0  0  0  0  0  0  0  0  0  0  0  0
  188.3440  177.5380  145.8960 C   0  0  0  0  0  0  0  0  0  0  0  0
  188.9940  176.9180  144.8000 C   0  0  0  0  0  0  0  0  0  0  0  0
  186.0650  178.0570  144.8280 N   0  0  0  0  0  0  0  0  0  0  0  0
  188.3150  176.4940  143.6720 N   0  0  0  0  0  0  0  0  0  0  0  0
  186.3740  179.2510  141.3630 N   0  0  0  0  0  0  0  0  0  0  0  0
  187.3950  178.5230  140.8860 C   0  0  0  0  0  0  0  0  0  0  0  0
  188.0260  177.6170  141.6510 N   0  0  0  0  0  0  0  0  0  0  0  0
  187.6410  177.4220  142.9300 C   0  0  2  0  0  3  0  0  0  0  0  0
  186.5690  178.1780  143.4890 C   0  0  0  0  0  0  0  0  0  0  0  0
  185.9580  179.1040  142.6020 C   0  0  0  0  0  3  0  0  0  0  0  0
  193.0090  173.2210  134.7870 C   0  0  0  0  0  2  0  0  0  0  0  0
  192.9710  173.9790  137.3060 C   0  0  0  0  0  2  0  0  0  0  0  0
  192.1240  174.4540  134.5210 C   0  0  0  0  0  2  0  0  0  0  0  0
  191.5190  174.2770  136.9300 C   0  0  0  0  0  2  0  0  0  0  0  0
  190.7370  176.7840  134.4940 O   0  0  0  0  0  0  0  0  0  0  0  0
  190.7690  176.1890  135.6090 C   0  0  0  0  0  0  0  0  0  0  0  0
  193.6960  173.1960  136.1840 C   0  0  1  0  0  3  0  0  0  0  0  0
  191.4570  175.0080  135.6790 N   0  0  0  0  0  0  0  0  0  0  0  0
  196.0590  168.8460  136.3770 C   0  0  0  0  0  1  0  0  0  0  0  0
  193.6370  169.3420  136.6670 C   0  0  0  0  0  2  0  0  0  0  0  0
  195.3180  170.3540  138.1740 C   0  0  0  0  0  2  0  0  0  0  0  0
  193.6390  170.6370  135.8240 C   0  0  0  0  0  2  0  0  0  0  0  0
  195.3240  171.6280  137.3110 C   0  0  0  0  0  2  0  0  0  0  0  0
  194.9680  169.1790  137.3260 N   0  0  0  0  0  0  0  0  0  0  0  0
  193.9920  171.8180  136.6840 N   0  0  0  0  0  0  0  0  0  0  0  0
  185.7380  177.5780  136.8990 C   0  0  0  0  0  1  0  0  0  0  0  0
  186.7950  178.4710  137.2870 O   0  0  0  0  0  0  0  0  0  0  0  0
  1  2  1  0  0  0  0
  3  4  1  0  0  0  0
  3  6  2  0  0  0  0
  4  1  2  0  0  0  0
  5  2  2  0  0  0  0
  5 13  1  0  0  0  0
  6  5  1  0  0  0  0
  8 19  1  0  0  0  0
 10  9  2  0  0  0  0
 11  9  1  0  0  0  0
 12 10  1  0  0  0  0
 13 21  1  0  0  0  0
 15 14  2  0  0  0  0
 16 15  1  0  0  0  0
 16 11  2  0  0  0  0
 17 12  2  0  0  0  0
 17 16  1  0  0  0  0
 18  7  1  0  0  0  0
 18 15  1  0  0  0  0
 19 17  1  0  0  0  0
 20 25  1  0  0  0  0
 21 20  2  0  0  0  0
 21 22  2  0  0  0  0
 23 22  1  1  0  0  0
 23 24  1  0  0  0  0
 23 19  1  0  0  0  0
 24 18  1  0  0  0  0
 25 24  2  0  0  0  0
 28 26  1  0  0  0  0
 28 33  1  0  0  0  0
 29 27  1  0  0  0  0
 30 31  2  0  0  0  0
 31 33  1  0  0  0  0
 31  4  1  0  0  0  0
 32 26  1  6  0  0  0
 32 40  1  0  0  0  0
 32 27  1  0  0  0  0
 33 29  1  0  0  0  0
 34 39  1  0  0  0  0
 35 39  1  0  0  0  0
 37 35  1  0  0  0  0
 37 40  1  0  0  0  0
 38 36  1  0  0  0  0
 39 36  1  0  0  0  0
 40 38  1  0  0  0  0
 41 42  1  0  0  0  0
 42  6  1  0  0  0  0
M  END
>  <MODEL>
3

>  <REMARK>
 VINA RESULT:      -8.5      6.355      8.018
  Name = 8fo7
  4 active torsions:
  status: ('A' for Active; 'I' for Inactive)
    1  A    between atoms: N_20  and  C_26
    2  A    between atoms: O_23  and  C_27
    3  A    between atoms: C_24  and  C_25
    4  A    between atoms: C_31  and  N_34
                            x       y       z     vdW  Elec       q    Type
                         _______ _______ _______ _____ _____    ______ ____

>  <TORSDO>
F 4

$$$$
8fo7
 OpenBabel10242410253D

 42 47  0  0  1  0  0  0  0  0999 V2000
  181.0630  178.4070  142.6830 C   0  0  0  0  0  3  0  0  0  0  0  0
  181.6640  178.6330  143.9270 C   0  0  0  0  0  3  0  0  0  0  0  0
  183.1230  178.9410  141.5710 C   0  0  0  0  0  3  0  0  0  0  0  0
  181.7900  178.5600  141.4750 C   0  0  0  0  0  0  0  0  0  0  0  0
  183.0120  179.0130  143.9980 C   0  0  0  0  0  0  0  0  0  0  0  0
  183.7280  179.1640  142.8100 C   0  0  0  0  0  0  0  0  0  0  0  0
  188.4970  177.3500  148.7480 C   0  0  0  0  0  1  0  0  0  0  0  0
  187.0470  176.0960  143.5830 C   0  0  0  0  0  1  0  0  0  0  0  0
  191.5210  178.4220  143.4940 C   0  0  0  0  0  3  0  0  0  0  0  0
  190.5630  178.1520  142.5210 C   0  0  0  0  0  3  0  0  0  0  0  0
  191.2320  178.1910  144.8380 C   0  0  0  0  0  3  0  0  0  0  0  0
  189.3080  177.6510  142.8710 C   0  0  0  0  0  3  0  0  0  0  0  0
  183.7440  179.2750  145.1240 N   0  0  0  0  0  2  0  0  0  0  0  0
  190.7490  177.1210  147.3070 O   0  0  0  0  0  0  0  0  0  0  0  0
  189.7460  177.4700  146.6380 C   0  0  0  0  0  0  0  0  0  0  0  0
  189.9730  177.6900  145.2120 C   0  0  0  0  0  0  0  0  0  0  0  0
  188.9900  177.4040  144.2300 C   0  0  0  0  0  0  0  0  0  0  0  0
  188.5240  177.6060  147.3320 N   0  0  0  0  0  0  0  0  0  0  0  0
  187.7390  176.9100  144.5500 N   0  0  0  0  0  0  0  0  0  0  0  0
  185.2320  179.1750  146.8500 N   0  0  0  0  0  0  0  0  0  0  0  0
  184.9210  178.8360  145.5900 C   0  0  0  0  0  0  0  0  0  0  0  0
  185.7500  178.0890  144.8410 N   0  0  0  0  0  0  0  0  0  0  0  0
  186.9250  177.6630  145.3490 C   0  0  2  0  0  3  0  0  0  0  0  0
  187.3090  178.0040  146.6800 C   0  0  0  0  0  0  0  0  0  0  0  0
  186.3650  178.7880  147.3960 C   0  0  0  0  0  3  0  0  0  0  0  0
  181.4850  176.2270  137.0300 C   0  0  0  0  0  2  0  0  0  0  0  0
  183.6630  176.4070  138.4960 C   0  0  0  0  0  2  0  0  0  0  0  0
  180.8760  177.2450  138.0140 C   0  0  0  0  0  2  0  0  0  0  0  0
  182.6090  176.4270  139.6040 C   0  0  0  0  0  2  0  0  0  0  0  0
  180.2780  179.1340  139.8640 O   0  0  0  0  0  0  0  0  0  0  0  0
  181.2100  178.3430  140.1850 C   0  0  0  0  0  0  0  0  0  0  0  0
  183.0310  176.0710  137.1220 C   0  0  1  0  0  3  0  0  0  0  0  0
  181.5530  177.3700  139.2860 N   0  0  0  0  0  0  0  0  0  0  0  0
  183.1890  171.1210  136.9700 C   0  0  0  0  0  1  0  0  0  0  0  0
  185.0580  172.7630  136.9210 C   0  0  0  0  0  2  0  0  0  0  0  0
  183.3150  172.7890  135.1670 C   0  0  0  0  0  2  0  0  0  0  0  0
  184.3020  173.8870  137.6650 C   0  0  0  0  0  2  0  0  0  0  0  0
  182.5630  173.8920  135.9310 C   0  0  0  0  0  2  0  0  0  0  0  0
  184.0850  171.9520  136.1300 N   0  0  0  0  0  0  0  0  0  0  0  0
  183.5270  174.7270  136.6900 N   0  0  0  0  0  0  0  0  0  0  0  0
  185.9480  179.3280  141.8850 C   0  0  0  0  0  1  0  0  0  0  0  0
  185.0320  179.5440  142.9700 O   0  0  0  0  0  0  0  0  0  0  0  0
  1  2  1  0  0  0  0
  2  5  2  0  0  0  0
  3  6  2  0  0  0  0
  4  3  1  0  0  0  0
  4  1  2  0  0  0  0
  5 13  1  0  0  0  0
  6 42  1  0  0  0  0
  6  5  1  0  0  0  0
  8 19  1  0  0  0  0
  9 11  1  0  0  0  0
 10 12  1  0  0  0  0
 10  9  2  0  0  0  0
 11 16  2  0  0  0  0
 12 17  2  0  0  0  0
 13 21  1  0  0  0  0
 15 14  2  0  0  0  0
 15 18  1  0  0  0  0
 16 15  1  0  0  0  0
 17 19  1  0  0  0  0
 17 16  1  0  0  0  0
 18  7  1  0  0  0  0
 19 23  1  0  0  0  0
 20 25  1  0  0  0  0
 21 20  2  0  0  0  0
 22 21  2  0  0  0  0
 23 22  1  6  0  0  0
 23 24  1  0  0  0  0
 24 18  1  0  0  0  0
 24 25  2  0  0  0  0
 26 32  1  0  0  0  0
 26 28  1  0  0  0  0
 27 29  1  0  0  0  0
 28 33  1  0  0  0  0
 30 31  2  0  0  0  0
 31  4  1  0  0  0  0
 32 40  1  1  0  0  0
 32 27  1  0  0  0  0
 33 29  1  0  0  0  0
 33 31  1  0  0  0  0
 35 37  1  0  0  0  0
 36 38  1  0  0  0  0
 36 39  1  0  0  0  0
 38 40  1  0  0  0  0
 39 35  1  0  0  0  0
 39 34  1  0  0  0  0
 40 37  1  0  0  0  0
 41 42  1  0  0  0  0
M  END
>  <MODEL>
4

>  <REMARK>
 VINA RESULT:      -8.5      1.130      1.876
  Name = 8fo7
  4 active torsions:
  status: ('A' for Active; 'I' for Inactive)
    1  A    between atoms: N_20  and  C_26
    2  A    between atoms: O_23  and  C_27
    3  A    between atoms: C_24  and  C_25
    4  A    between atoms: C_31  and  N_34
                            x       y       z     vdW  Elec       q    Type
                         _______ _______ _______ _____ _____    ______ ____

>  <TORSDO>
F 4

$$$$
8fo7
 OpenBabel10242410253D

 42 47  0  0  1  0  0  0  0  0999 V2000
  189.3350  178.2530  139.1890 C   0  0  0  0  0  3  0  0  0  0  0  0
  188.4330  178.2110  138.1200 C   0  0  0  0  0  3  0  0  0  0  0  0
  190.1470  176.0680  138.6140 C   0  0  0  0  0  3  0  0  0  0  0  0
  190.2130  177.1710  139.4560 C   0  0  0  0  0  0  0  0  0  0  0  0
  188.3890  177.0880  137.2820 C   0  0  0  0  0  0  0  0  0  0  0  0
  189.2520  176.0230  137.5420 C   0  0  0  0  0  0  0  0  0  0  0  0
  181.7200  175.5600  134.3490 C   0  0  0  0  0  1  0  0  0  0  0  0
  183.7620  177.3140  139.1550 C   0  0  0  0  0  1  0  0  0  0  0  0
  180.7330  180.8830  137.2800 C   0  0  0  0  0  3  0  0  0  0  0  0
  181.7120  180.8820  138.2700 C   0  0  0  0  0  3  0  0  0  0  0  0
  180.5720  179.7690  136.4580 C   0  0  0  0  0  3  0  0  0  0  0  0
  182.5430  179.7750  138.4540 C   0  0  0  0  0  3  0  0  0  0  0  0
  187.5700  176.8870  136.2030 N   0  0  0  0  0  2  0  0  0  0  0  0
  179.9820  177.3320  135.3700 O   0  0  0  0  0  0  0  0  0  0  0  0
  181.1700  177.5150  135.7280 C   0  0  0  0  0  0  0  0  0  0  0  0
  181.4010  178.6450  136.6240 C   0  0  0  0  0  0  0  0  0  0  0  0
  182.3980  178.6270  137.6330 C   0  0  0  0  0  0  0  0  0  0  0  0
  182.1390  176.6160  135.2310 N   0  0  0  0  0  0  0  0  0  0  0  0
  183.2360  177.5450  137.8340 N   0  0  0  0  0  0  0  0  0  0  0  0
  185.7930  176.4250  134.8500 N   0  0  0  0  0  0  0  0  0  0  0  0
  186.2400  176.8520  136.0400 C   0  0  0  0  0  0  0  0  0  0  0  0
  185.3930  177.2160  137.0170 N   0  0  0  0  0  0  0  0  0  0  0  0
  184.0600  177.1610  136.8150 C   0  0  2  0  0  3  0  0  0  0  0  0
  183.5320  176.7250  135.5630 C   0  0  0  0  0  0  0  0  0  0  0  0
  184.5040  176.3530  134.5970 C   0  0  0  0  0  3  0  0  0  0  0  0
  191.4040  177.1470  144.3430 C   0  0  0  0  0  2  0  0  0  0  0  0
  189.1370  178.0340  143.3440 C   0  0  0  0  0  2  0  0  0  0  0  0
  191.8880  177.0760  142.8810 C   0  0  0  0  0  2  0  0  0  0  0  0
  189.4680  176.9610  142.3060 C   0  0  0  0  0  2  0  0  0  0  0  0
  192.3630  177.2660  140.2180 O   0  0  0  0  0  0  0  0  0  0  0  0
  191.1450  177.1750  140.5430 C   0  0  0  0  0  0  0  0  0  0  0  0
  190.0930  177.9570  144.5600 C   0  0  1  0  0  3  0  0  0  0  0  0
  190.8490  177.0770  141.8750 N   0  0  0  0  0  0  0  0  0  0  0  0
  188.3360  178.2120  149.1850 C   0  0  0  0  0  1  0  0  0  0  0  0
  189.0580  176.2210  147.8780 C   0  0  0  0  0  2  0  0  0  0  0  0
  187.2130  177.6560  147.0680 C   0  0  0  0  0  2  0  0  0  0  0  0
  190.0340  176.9840  146.9540 C   0  0  0  0  0  2  0  0  0  0  0  0
  188.2020  178.4200  146.1700 C   0  0  0  0  0  2  0  0  0  0  0  0
  187.9320  177.1250  148.2610 N   0  0  0  0  0  0  0  0  0  0  0  0
  189.3050  177.5180  145.7530 N   0  0  0  0  0  0  0  0  0  0  0  0
  190.1640  174.7670  135.6980 C   0  0  0  0  0  1  0  0  0  0  0  0
  189.1360  174.9670  136.6830 O   0  0  0  0  0  0  0  0  0  0  0  0
  1  4  1  0  0  0  0
  2  1  2  0  0  0  0
  3  4  2  0  0  0  0
  4 31  1  0  0  0  0
  5  6  2  0  0  0  0
  5  2  1  0  0  0  0
  6  3  1  0  0  0  0
  7 18  1  0  0  0  0
  9 10  1  0  0  0  0
 10 12  2  0  0  0  0
 11 16  1  0  0  0  0
 11  9  2  0  0  0  0
 13  5  1  0  0  0  0
 14 15  2  0  0  0  0
 15 16  1  0  0  0  0
 16 17  2  0  0  0  0
 17 19  1  0  0  0  0
 17 12  1  0  0  0  0
 18 24  1  0  0  0  0
 18 15  1  0  0  0  0
 19  8  1  0  0  0  0
 20 21  2  0  0  0  0
 21 13  1  0  0  0  0
 21 22  2  0  0  0  0
 23 24  1  6  0  0  0
 23 22  1  0  0  0  0
 23 19  1  0  0  0  0
 25 20  1  0  0  0  0
 25 24  2  0  0  0  0
 26 32  1  0  0  0  0
 28 26  1  0  0  0  0
 29 27  1  0  0  0  0
 30 31  2  0  0  0  0
 31 33  1  0  0  0  0
 32 27  1  6  0  0  0
 32 40  1  0  0  0  0
 33 29  1  0  0  0  0
 33 28  1  0  0  0  0
 35 39  1  0  0  0  0
 36 39  1  0  0  0  0
 37 35  1  0  0  0  0
 38 36  1  0  0  0  0
 39 34  1  0  0  0  0
 40 38  1  0  0  0  0
 40 37  1  0  0  0  0
 41 42  1  0  0  0  0
 42  6  1  0  0  0  0
M  END
>  <MODEL>
5

>  <REMARK>
 VINA RESULT:      -7.9      3.716     11.487
  Name = 8fo7
  4 active torsions:
  status: ('A' for Active; 'I' for Inactive)
    1  A    between atoms: N_20  and  C_26
    2  A    between atoms: O_23  and  C_27
    3  A    between atoms: C_24  and  C_25
    4  A    between atoms: C_31  and  N_34
                            x       y       z     vdW  Elec       q    Type
                         _______ _______ _______ _____ _____    ______ ____

>  <TORSDO>
F 4

$$$$
8fo7
 OpenBabel10242410253D

 42 47  0  0  1  0  0  0  0  0999 V2000
  188.3470  177.6790  138.1270 C   0  0  0  0  0  3  0  0  0  0  0  0
  187.9320  178.2820  139.3190 C   0  0  0  0  0  3  0  0  0  0  0  0
  186.0700  177.5460  137.3790 C   0  0  0  0  0  3  0  0  0  0  0  0
  187.4140  177.2980  137.1290 C   0  0  0  0  0  0  0  0  0  0  0  0
  186.5700  178.5260  139.5460 C   0  0  0  0  0  0  0  0  0  0  0  0
  185.6500  178.1510  138.5660 C   0  0  0  0  0  0  0  0  0  0  0  0
  184.5900  178.3060  146.7180 C   0  0  0  0  0  1  0  0  0  0  0  0
  188.0560  175.6550  143.3560 C   0  0  0  0  0  1  0  0  0  0  0  0
  190.7280  177.9170  146.9860 C   0  0  0  0  0  3  0  0  0  0  0  0
  191.0620  177.3770  145.7470 C   0  0  0  0  0  3  0  0  0  0  0  0
  189.3890  178.0630  147.3440 C   0  0  0  0  0  3  0  0  0  0  0  0
  190.0700  176.9780  144.8490 C   0  0  0  0  0  3  0  0  0  0  0  0
  186.0000  179.0980  140.6510 N   0  0  0  0  0  2  0  0  0  0  0  0
  186.7940  177.7130  148.1300 O   0  0  0  0  0  0  0  0  0  0  0  0
  186.9950  177.8520  146.8990 C   0  0  0  0  0  0  0  0  0  0  0  0
  188.3740  177.6710  146.4520 C   0  0  0  0  0  0  0  0  0  0  0  0
  188.7000  177.1130  145.1900 C   0  0  0  0  0  0  0  0  0  0  0  0
  185.8770  178.1600  146.0930 N   0  0  0  0  0  0  0  0  0  0  0  0
  187.7380  176.7120  144.2810 N   0  0  0  0  0  0  0  0  0  0  0  0
  185.1730  179.4960  142.7390 N   0  0  0  0  0  0  0  0  0  0  0  0
  186.0310  178.8190  141.9620 C   0  0  0  0  0  0  0  0  0  0  0  0
  186.8690  177.9030  142.4760 N   0  0  0  0  0  0  0  0  0  0  0  0
  186.8650  177.6480  143.8010 C   0  0  2  0  0  3  0  0  0  0  0  0
  185.9810  178.3480  144.6740 C   0  0  0  0  0  0  0  0  0  0  0  0
  185.1270  179.2890  144.0380 C   0  0  0  0  0  3  0  0  0  0  0  0
  190.3290  174.2870  134.3480 C   0  0  0  0  0  2  0  0  0  0  0  0
  191.0700  175.4670  136.5800 C   0  0  0  0  0  2  0  0  0  0  0  0
  189.0730  175.1770  134.4280 C   0  0  0  0  0  2  0  0  0  0  0  0
  189.5760  175.3030  136.8640 C   0  0  0  0  0  2  0  0  0  0  0  0
  187.1380  177.0210  134.8800 O   0  0  0  0  0  0  0  0  0  0  0  0
  187.8000  176.6740  135.8990 C   0  0  0  0  0  0  0  0  0  0  0  0
  191.4880  174.7020  135.3000 C   0  0  1  0  0  3  0  0  0  0  0  0
  188.7900  175.7470  135.7270 N   0  0  0  0  0  0  0  0  0  0  0  0
  195.4370  171.7210  135.0420 C   0  0  0  0  0  1  0  0  0  0  0  0
  193.0720  171.1670  135.5840 C   0  0  0  0  0  2  0  0  0  0  0  0
  194.3390  172.7700  136.9780 C   0  0  0  0  0  2  0  0  0  0  0  0
  192.4510  172.3530  134.8140 C   0  0  0  0  0  2  0  0  0  0  0  0
  193.7280  173.9400  136.1860 C   0  0  0  0  0  2  0  0  0  0  0  0
  194.4140  171.5640  136.1050 N   0  0  0  0  0  0  0  0  0  0  0  0
  192.3770  173.5660  135.6970 N   0  0  0  0  0  0  0  0  0  0  0  0
  183.3220  177.9760  137.9640 C   0  0  0  0  0  1  0  0  0  0  0  0
  184.3450  178.4170  138.8720 O   0  0  0  0  0  0  0  0  0  0  0  0
  1  2  1  0  0  0  0
  2  5  2  0  0  0  0
  3  6  2  0  0  0  0
  4  3  1  0  0  0  0
  4  1  2  0  0  0  0
  5 13  1  0  0  0  0
  6 42  1  0  0  0  0
  6  5  1  0  0  0  0
  8 19  1  0  0  0  0
  9 11  1  0  0  0  0
 10  9  2  0  0  0  0
 12 17  2  0  0  0  0
 12 10  1  0  0  0  0
 13 21  1  0  0  0  0
 15 14  2  0  0  0  0
 16 15  1  0  0  0  0
 16 11  2  0  0  0  0
 17 16  1  0  0  0  0
 18  7  1  0  0  0  0
 18 15  1  0  0  0  0
 19 17  1  0  0  0  0
 20 25  1  0  0  0  0
 21 22  2  0  0  0  0
 21 20  2  0  0  0  0
 23 22  1  1  0  0  0
 23 19  1  0  0  0  0
 23 24  1  0  0  0  0
 24 18  1  0  0  0  0
 25 24  2  0  0  0  0
 26 28  1  0  0  0  0
 27 29  1  0  0  0  0
 28 33  1  0  0  0  0
 30 31  2  0  0  0  0
 31  4  1  0  0  0  0
 32 26  1  1  0  0  0
 32 40  1  0  0  0  0
 32 27  1  0  0  0  0
 33 31  1  0  0  0  0
 33 29  1  0  0  0  0
 34 39  1  0  0  0  0
 35 39  1  0  0  0  0
 37 35  1  0  0  0  0
 37 40  1  0  0  0  0
 38 36  1  0  0  0  0
 39 36  1  0  0  0  0
 40 38  1  0  0  0  0
 41 42  1  0  0  0  0
M  END
>  <MODEL>
6

>  <REMARK>
 VINA RESULT:      -7.7      5.288      6.473
  Name = 8fo7
  4 active torsions:
  status: ('A' for Active; 'I' for Inactive)
    1  A    between atoms: N_20  and  C_26
    2  A    between atoms: O_23  and  C_27
    3  A    between atoms: C_24  and  C_25
    4  A    between atoms: C_31  and  N_34
                            x       y       z     vdW  Elec       q    Type
                         _______ _______ _______ _____ _____    ______ ____

>  <TORSDO>
F 4

$$$$
8fo7
 OpenBabel10242410253D

 42 47  0  0  1  0  0  0  0  0999 V2000
  182.5640  177.5380  140.1960 C   0  0  0  0  0  3  0  0  0  0  0  0
  182.7090  177.8800  141.5460 C   0  0  0  0  0  3  0  0  0  0  0  0
  184.6920  178.5300  139.6960 C   0  0  0  0  0  3  0  0  0  0  0  0
  183.5620  177.8620  139.2420 C   0  0  0  0  0  0  0  0  0  0  0  0
  183.8610  178.5510  141.9800 C   0  0  0  0  0  0  0  0  0  0  0  0
  184.8440  178.8700  141.0430 C   0  0  0  0  0  0  0  0  0  0  0  0
  187.3570  177.6160  148.4860 C   0  0  0  0  0  1  0  0  0  0  0  0
  187.7950  175.7730  143.3120 C   0  0  0  0  0  1  0  0  0  0  0  0
  192.0170  178.2570  144.5130 C   0  0  0  0  0  3  0  0  0  0  0  0
  191.4570  177.8480  143.3060 C   0  0  0  0  0  3  0  0  0  0  0  0
  191.2800  178.1560  145.6920 C   0  0  0  0  0  3  0  0  0  0  0  0
  190.1600  177.3360  143.2550 C   0  0  0  0  0  3  0  0  0  0  0  0
  184.1560  178.9580  143.2530 N   0  0  0  0  0  2  0  0  0  0  0  0
  189.9700  177.3300  147.9450 O   0  0  0  0  0  0  0  0  0  0  0  0
  189.2620  177.5670  146.9370 C   0  0  0  0  0  0  0  0  0  0  0  0
  189.9690  177.6450  145.6620 C   0  0  0  0  0  0  0  0  0  0  0  0
  189.3890  177.2190  144.4400 C   0  0  0  0  0  0  0  0  0  0  0  0
  187.8740  177.7240  147.1470 N   0  0  0  0  0  0  0  0  0  0  0  0
  188.1060  176.7100  144.3610 N   0  0  0  0  0  0  0  0  0  0  0  0
  184.9510  179.0990  145.3860 N   0  0  0  0  0  0  0  0  0  0  0  0
  185.0990  178.6190  144.1430 C   0  0  0  0  0  0  0  0  0  0  0  0
  186.1380  177.8320  143.8140 N   0  0  0  0  0  0  0  0  0  0  0  0
  187.0640  177.5090  144.7410 C   0  0  2  0  0  3  0  0  0  0  0  0
  186.9600  178.0020  146.0750 C   0  0  0  0  0  0  0  0  0  0  0  0
  185.8250  178.8180  146.3290 C   0  0  0  0  0  3  0  0  0  0  0  0
  185.4560  176.5280  134.7770 C   0  0  0  0  0  2  0  0  0  0  0  0
  186.7890  177.7730  136.6730 C   0  0  0  0  0  2  0  0  0  0  0  0
  184.2040  176.8020  135.6350 C   0  0  0  0  0  2  0  0  0  0  0  0
  185.8050  176.9800  137.5350 C   0  0  0  0  0  2  0  0  0  0  0  0
  182.2860  177.6310  137.3630 O   0  0  0  0  0  0  0  0  0  0  0  0
  183.4470  177.5340  137.8530 C   0  0  0  0  0  0  0  0  0  0  0  0
  186.7220  177.3330  135.1900 C   0  0  1  0  0  3  0  0  0  0  0  0
  184.4540  177.1200  137.0240 N   0  0  0  0  0  0  0  0  0  0  0  0
  190.9840  174.9590  136.0510 C   0  0  0  0  0  1  0  0  0  0  0  0
  190.4590  176.6940  134.3460 C   0  0  0  0  0  2  0  0  0  0  0  0
  189.2260  174.5500  134.3790 C   0  0  0  0  0  2  0  0  0  0  0  0
  189.3060  177.3500  135.1380 C   0  0  0  0  0  2  0  0  0  0  0  0
  188.0960  175.2130  135.1860 C   0  0  0  0  0  2  0  0  0  0  0  0
  190.5160  175.2370  134.6710 N   0  0  0  0  0  0  0  0  0  0  0  0
  188.0080  176.6540  134.8400 N   0  0  0  0  0  0  0  0  0  0  0  0
  187.2400  179.1340  141.1150 C   0  0  0  0  0  1  0  0  0  0  0  0
  185.9290  179.5300  141.5500 O   0  0  0  0  0  0  0  0  0  0  0  0
  1  2  1  0  0  0  0
  2  5  2  0  0  0  0
  3  6  2  0  0  0  0
  4  3  1  0  0  0  0
  4  1  2  0  0  0  0
  5 13  1  0  0  0  0
  6 42  1  0  0  0  0
  6  5  1  0  0  0  0
  8 19  1  0  0  0  0
  9 11  1  0  0  0  0
 10  9  2  0  0  0  0
 12 10  1  0  0  0  0
 12 17  2  0  0  0  0
 13 21  1  0  0  0  0
 15 18  1  0  0  0  0
 15 14  2  0  0  0  0
 16 11  2  0  0  0  0
 16 15  1  0  0  0  0
 17 16  1  0  0  0  0
 18  7  1  0  0  0  0
 19 17  1  0  0  0  0
 19 23  1  0  0  0  0
 20 25  1  0  0  0  0
 21 20  2  0  0  0  0
 22 21  2  0  0  0  0
 23 22  1  6  0  0  0
 23 24  1  0  0  0  0
 24 25  2  0  0  0  0
 24 18  1  0  0  0  0
 26 28  1  0  0  0  0
 27 29  1  0  0  0  0
 28 33  1  0  0  0  0
 30 31  2  0  0  0  0
 31  4  1  0  0  0  0
 32 26  1  1  0  0  0
 32 27  1  0  0  0  0
 33 29  1  0  0  0  0
 33 31  1  0  0  0  0
 35 39  1  0  0  0  0
 35 37  1  0  0  0  0
 36 39  1  0  0  0  0
 36 38  1  0  0  0  0
 39 34  1  0  0  0  0
 40 37  1  0  0  0  0
 40 38  1  0  0  0  0
 40 32  1  0  0  0  0
 41 42  1  0  0  0  0
M  END
>  <MODEL>
7

>  <REMARK>
 VINA RESULT:      -7.6      3.447      4.018
  Name = 8fo7
  4 active torsions:
  status: ('A' for Active; 'I' for Inactive)
    1  A    between atoms: N_20  and  C_26
    2  A    between atoms: O_23  and  C_27
    3  A    between atoms: C_24  and  C_25
    4  A    between atoms: C_31  and  N_34
                            x       y       z     vdW  Elec       q    Type
                         _______ _______ _______ _____ _____    ______ ____

>  <TORSDO>
F 4

$$$$
8fo7
 OpenBabel10242410253D

 42 47  0  0  1  0  0  0  0  0999 V2000
  192.2530  177.2420  140.9240 C   0  0  0  0  0  3  0  0  0  0  0  0
  193.0640  177.2790  139.7840 C   0  0  0  0  0  3  0  0  0  0  0  0
  190.3870  176.5200  139.5970 C   0  0  0  0  0  3  0  0  0  0  0  0
  190.8890  176.8600  140.8470 C   0  0  0  0  0  0  0  0  0  0  0  0
  192.5350  176.9270  138.5340 C   0  0  0  0  0  0  0  0  0  0  0  0
  191.1940  176.5510  138.4560 C   0  0  0  0  0  0  0  0  0  0  0  0
  198.4760  175.3190  134.3470 C   0  0  0  0  0  1  0  0  0  0  0  0
  196.3930  173.8280  139.2240 C   0  0  0  0  0  1  0  0  0  0  0  0
  196.5970  169.7690  136.2370 C   0  0  0  0  0  3  0  0  0  0  0  0
  195.9220  170.0540  137.4200 C   0  0  0  0  0  3  0  0  0  0  0  0
  197.2640  170.7850  135.5550 C   0  0  0  0  0  3  0  0  0  0  0  0
  195.8990  171.3500  137.9380 C   0  0  0  0  0  3  0  0  0  0  0  0
  193.1860  176.9140  137.3300 N   0  0  0  0  0  2  0  0  0  0  0  0
  199.0020  172.7100  134.6890 O   0  0  0  0  0  0  0  0  0  0  0  0
  197.9740  173.1080  135.2880 C   0  0  0  0  0  0  0  0  0  0  0  0
  197.2500  172.0990  136.0570 C   0  0  0  0  0  0  0  0  0  0  0  0
  196.5710  172.4010  137.2650 C   0  0  0  0  0  0  0  0  0  0  0  0
  197.6390  174.4730  135.1560 N   0  0  0  0  0  0  0  0  0  0  0  0
  196.5310  173.6770  137.7980 N   0  0  0  0  0  0  0  0  0  0  0  0
  194.7320  176.6680  135.6710 N   0  0  0  0  0  0  0  0  0  0  0  0
  194.2680  176.2730  136.8660 C   0  0  0  0  0  0  0  0  0  0  0  0
  194.8670  175.2900  137.5600 N   0  0  0  0  0  0  0  0  0  0  0  0
  195.9580  174.6740  137.0600 C   0  0  2  0  0  3  0  0  0  0  0  0
  196.4850  175.0470  135.7880 C   0  0  0  0  0  0  0  0  0  0  0  0
  195.7910  176.1000  135.1350 C   0  0  0  0  0  3  0  0  0  0  0  0
  186.4980  177.6080  143.1830 C   0  0  0  0  0  2  0  0  0  0  0  0
  187.3250  178.9250  141.0610 C   0  0  0  0  0  2  0  0  0  0  0  0
  187.9290  177.0370  143.2450 C   0  0  0  0  0  2  0  0  0  0  0  0
  188.0280  177.5890  140.8180 C   0  0  0  0  0  2  0  0  0  0  0  0
  190.5630  176.4220  143.0640 O   0  0  0  0  0  0  0  0  0  0  0  0
  190.0270  176.8160  141.9890 C   0  0  0  0  0  0  0  0  0  0  0  0
  186.3210  178.8300  142.2360 C   0  0  1  0  0  3  0  0  0  0  0  0
  188.6990  177.1400  142.0240 N   0  0  0  0  0  0  0  0  0  0  0  0
  182.1080  177.3320  140.1030 C   0  0  0  0  0  1  0  0  0  0  0  0
  183.3420  179.4750  139.8280 C   0  0  0  0  0  2  0  0  0  0  0  0
  182.4950  178.7880  142.0480 C   0  0  0  0  0  2  0  0  0  0  0  0
  184.7300  178.9080  140.2010 C   0  0  0  0  0  2  0  0  0  0  0  0
  183.8770  178.2080  142.3950 C   0  0  0  0  0  2  0  0  0  0  0  0
  182.2860  178.7270  140.5740 N   0  0  0  0  0  0  0  0  0  0  0  0
  184.9360  178.9710  141.6880 N   0  0  0  0  0  0  0  0  0  0  0  0
  189.5830  175.4190  137.0650 C   0  0  0  0  0  1  0  0  0  0  0  0
  190.7590  176.2330  137.2000 O   0  0  0  0  0  0  0  0  0  0  0  0
  2  1  2  0  0  0  0
  3  4  2  0  0  0  0
  4  1  1  0  0  0  0
  4 31  1  0  0  0  0
  5  2  1  0  0  0  0
  6  5  2  0  0  0  0
  6  3  1  0  0  0  0
  7 18  1  0  0  0  0
  9 10  1  0  0  0  0
 10 12  2  0  0  0  0
 11 16  1  0  0  0  0
 11  9  2  0  0  0  0
 13  5  1  0  0  0  0
 14 15  2  0  0  0  0
 15 16  1  0  0  0  0
 16 17  2  0  0  0  0
 17 19  1  0  0  0  0
 17 12  1  0  0  0  0
 18 15  1  0  0  0  0
 18 24  1  0  0  0  0
 19  8  1  0  0  0  0
 20 21  2  0  0  0  0
 21 13  1  0  0  0  0
 21 22  2  0  0  0  0
 23 24  1  6  0  0  0
 23 22  1  0  0  0  0
 23 19  1  0  0  0  0
 25 20  1  0  0  0  0
 25 24  2  0  0  0  0
 26 28  1  0  0  0  0
 29 27  1  0  0  0  0
 29 33  1  0  0  0  0
 31 33  1  0  0  0  0
 31 30  2  0  0  0  0
 32 27  1  6  0  0  0
 32 26  1  0  0  0  0
 33 28  1  0  0  0  0
 34 39  1  0  0  0  0
 35 37  1  0  0  0  0
 35 39  1  0  0  0  0
 36 38  1  0  0  0  0
 37 40  1  0  0  0  0
 39 36  1  0  0  0  0
 40 32  1  0  0  0  0
 40 38  1  0  0  0  0
 41 42  1  0  0  0  0
 42  6  1  0  0  0  0
M  END
>  <MODEL>
8

>  <REMARK>
 VINA RESULT:      -7.3      7.827     11.290
  Name = 8fo7
  4 active torsions:
  status: ('A' for Active; 'I' for Inactive)
    1  A    between atoms: N_20  and  C_26
    2  A    between atoms: O_23  and  C_27
    3  A    between atoms: C_24  and  C_25
    4  A    between atoms: C_31  and  N_34
                            x       y       z     vdW  Elec       q    Type
                         _______ _______ _______ _____ _____    ______ ____

>  <TORSDO>
F 4

$$$$
8fo7
 OpenBabel10242410253D

 42 47  0  0  1  0  0  0  0  0999 V2000
  187.2690  176.8620  136.8440 C   0  0  0  0  0  3  0  0  0  0  0  0
  186.5080  177.5100  137.8230 C   0  0  0  0  0  3  0  0  0  0  0  0
  189.2880  177.4180  138.0170 C   0  0  0  0  0  3  0  0  0  0  0  0
  188.6840  176.8060  136.9270 C   0  0  0  0  0  0  0  0  0  0  0  0
  187.1410  178.1170  138.9170 C   0  0  0  0  0  0  0  0  0  0  0  0
  188.5330  178.0640  139.0000 C   0  0  0  0  0  0  0  0  0  0  0  0
  184.7640  178.4670  145.9630 C   0  0  0  0  0  1  0  0  0  0  0  0
  188.2340  175.4080  142.9710 C   0  0  0  0  0  1  0  0  0  0  0  0
  190.8420  177.7310  146.6090 C   0  0  0  0  0  3  0  0  0  0  0  0
  191.2080  177.0950  145.4260 C   0  0  0  0  0  3  0  0  0  0  0  0
  189.4970  177.9790  146.8790 C   0  0  0  0  0  3  0  0  0  0  0  0
  190.2430  176.7000  144.4970 C   0  0  0  0  0  3  0  0  0  0  0  0
  186.5490  178.7900  139.9510 N   0  0  0  0  0  2  0  0  0  0  0  0
  186.8460  177.8350  147.5320 O   0  0  0  0  0  0  0  0  0  0  0  0
  187.1230  177.8830  146.3100 C   0  0  0  0  0  0  0  0  0  0  0  0
  188.5100  177.5930  145.9550 C   0  0  0  0  0  0  0  0  0  0  0  0
  188.8680  176.9380  144.7490 C   0  0  0  0  0  0  0  0  0  0  0  0
  186.0720  178.2060  145.4230 N   0  0  0  0  0  0  0  0  0  0  0  0
  187.9330  176.5390  143.8110 N   0  0  0  0  0  0  0  0  0  0  0  0
  185.6360  179.3680  141.9600 N   0  0  0  0  0  0  0  0  0  0  0  0
  186.4910  178.5930  141.2760 C   0  0  0  0  0  0  0  0  0  0  0  0
  187.2410  177.6630  141.8910 N   0  0  0  0  0  0  0  0  0  0  0  0
  187.1480  177.4930  143.2270 C   0  0  2  0  0  3  0  0  0  0  0  0
  186.2640  178.2980  144.0030 C   0  0  0  0  0  0  0  0  0  0  0  0
  185.5070  179.2460  143.2640 C   0  0  0  0  0  3  0  0  0  0  0  0
  192.9730  174.7350  135.3090 C   0  0  0  0  0  2  0  0  0  0  0  0
  192.7900  176.5380  137.2160 C   0  0  0  0  0  2  0  0  0  0  0  0
  191.4860  175.0380  135.0370 C   0  0  0  0  0  2  0  0  0  0  0  0
  191.4380  175.8460  137.3920 C   0  0  0  0  0  2  0  0  0  0  0  0
  188.9590  175.9930  134.8110 O   0  0  0  0  0  0  0  0  0  0  0  0
  189.4970  176.1570  135.9430 C   0  0  0  0  0  0  0  0  0  0  0  0
  193.6950  175.7660  136.2250 C   0  0  1  0  0  3  0  0  0  0  0  0
  190.7730  175.6940  136.1110 N   0  0  0  0  0  0  0  0  0  0  0  0
  197.1600  172.4160  137.3740 C   0  0  0  0  0  1  0  0  0  0  0  0
  195.7970  173.8580  138.8760 C   0  0  0  0  0  2  0  0  0  0  0  0
  197.2930  174.8650  137.1830 C   0  0  0  0  0  2  0  0  0  0  0  0
  194.6100  174.0250  137.9020 C   0  0  0  0  0  2  0  0  0  0  0  0
  196.1040  175.0040  136.2160 C   0  0  0  0  0  2  0  0  0  0  0  0
  197.0610  173.7090  138.0940 N   0  0  0  0  0  0  0  0  0  0  0  0
  194.8480  175.1920  136.9850 N   0  0  0  0  0  0  0  0  0  0  0  0
  190.1390  178.0390  140.7980 C   0  0  0  0  0  1  0  0  0  0  0  0
  189.0670  178.6870  140.0930 O   0  0  0  0  0  0  0  0  0  0  0  0
  1  4  2  0  0  0  0
  1  2  1  0  0  0  0
  2  5  2  0  0  0  0
  3  6  2  0  0  0  0
  4  3  1  0  0  0  0
  5  6  1  0  0  0  0
  5 13  1  0  0  0  0
  6 42  1  0  0  0  0
  8 19  1  0  0  0  0
  9 11  1  0  0  0  0
 10  9  2  0  0  0  0
 12 17  2  0  0  0  0
 12 10  1  0  0  0  0
 13 21  1  0  0  0  0
 15 14  2  0  0  0  0
 16 15  1  0  0  0  0
 16 11  2  0  0  0  0
 17 16  1  0  0  0  0
 18  7  1  0  0  0  0
 18 15  1  0  0  0  0
 19 17  1  0  0  0  0
 20 25  1  0  0  0  0
 21 22  2  0  0  0  0
 21 20  2  0  0  0  0
 23 22  1  1  0  0  0
 23 19  1  0  0  0  0
 23 24  1  0  0  0  0
 24 18  1  0  0  0  0
 25 24  2  0  0  0  0
 27 29  1  0  0  0  0
 28 26  1  0  0  0  0
 28 33  1  0  0  0  0
 30 31  2  0  0  0  0
 31 33  1  0  0  0  0
 31  4  1  0  0  0  0
 32 26  1  1  0  0  0
 32 40  1  0  0  0  0
 32 27  1  0  0  0  0
 33 29  1  0  0  0  0
 34 39  1  0  0  0  0
 36 39  1  0  0  0  0
 37 35  1  0  0  0  0
 38 40  1  0  0  0  0
 38 36  1  0  0  0  0
 39 35  1  0  0  0  0
 40 37  1  0  0  0  0
 42 41  1  0  0  0  0
M  END
>  <MODEL>
9

>  <REMARK>
 VINA RESULT:      -7.2      5.731      8.082
  Name = 8fo7
  4 active torsions:
  status: ('A' for Active; 'I' for Inactive)
    1  A    between atoms: N_20  and  C_26
    2  A    between atoms: O_23  and  C_27
    3  A    between atoms: C_24  and  C_25
    4  A    between atoms: C_31  and  N_34
                            x       y       z     vdW  Elec       q    Type
                         _______ _______ _______ _____ _____    ______ ____

>  <TORSDO>
F 4

$$$$
