8u7h
 OpenBabel10242410253D

 31 33  0  0  0  0  0  0  0  0999 V2000
  185.8320  178.3200  143.7200 C   0  0  0  0  0  0  0  0  0  0  0  0
  186.6680  178.2890  142.6110 C   0  0  0  0  0  3  0  0  0  0  0  0
  186.1500  178.5050  141.3390 C   0  0  0  0  0  0  0  0  0  0  0  0
  184.8010  178.7760  141.1780 C   0  0  0  0  0  0  0  0  0  0  0  0
  183.9710  178.8190  142.2850 C   0  0  0  0  0  3  0  0  0  0  0  0
  184.4900  178.6140  143.5530 C   0  0  0  0  0  0  0  0  0  0  0  0
  186.9710  178.4550  140.2470 F   0  0  0  0  0  0  0  0  0  0  0  0
  184.1950  179.0270  139.7770 C   0  0  0  0  0  0  0  0  0  0  0  0
  184.4920  180.0230  139.2120 O   0  0  0  0  0  0  0  0  0  0  0  0
  183.2360  178.1150  139.1480 N   0  0  0  0  0  0  0  0  0  0  0  0
  182.7710  176.8700  139.7060 C   0  0  0  0  0  2  0  0  0  0  0  0
  183.1610  175.7940  138.6830 C   0  0  0  0  0  2  0  0  0  0  0  0
  182.4660  175.9660  137.4460 O   0  0  0  0  0  0  0  0  0  0  0  0
  181.7380  177.1870  137.3750 C   0  0  0  0  0  2  0  0  0  0  0  0
  182.6490  178.3400  137.8360 C   0  0  0  0  0  2  0  0  0  0  0  0
  189.8480  177.1760  145.2420 C   0  0  0  0  0  0  0  0  0  0  0  0
  189.9780  176.8770  146.5930 C   0  0  0  0  0  0  0  0  0  0  0  0
  188.8550  177.0220  147.3850 C   0  0  0  0  0  3  0  0  0  0  0  0
  187.7150  177.4170  146.8490 N   0  0  0  0  0  0  0  0  0  0  0  0
  187.6270  177.7020  145.5620 C   0  0  0  0  0  0  0  0  0  0  0  0
  188.6770  177.5750  144.7710 N   0  0  0  0  0  4  0  0  0  0  0  0
  186.3120  178.1290  145.0880 N   0  0  0  0  0  2  0  0  0  0  0  0
  191.3000  176.4150  147.1930 C   0  0  0  0  0  0  0  0  0  0  0  0
  191.6250  177.2440  148.2190 F   0  0  0  0  0  0  0  0  0  0  0  0
  191.1500  175.1480  147.6730 F   0  0  0  0  0  0  0  0  0  0  0  0
  192.2980  176.4340  146.2720 F   0  0  0  0  0  0  0  0  0  0  0  0
  190.9960  177.0450  144.3620 N   0  0  0  0  0  2  0  0  0  0  0  0
  191.5720  179.3960  144.0750 C   0  0  0  0  0  1  0  0  0  0  0  0
  191.2830  178.0710  143.3760 C   0  0  0  0  0  2  0  0  0  0  0  0
  183.6620  178.6570  144.6810 O   0  0  0  0  0  0  0  0  0  0  0  0
  182.2880  178.7510  144.4270 C   0  0  0  0  0  1  0  0  0  0  0  0
  1 22  1  0  0  0  0
  2  1  2  0  0  0  0
  3  2  1  0  0  0  0
  4  3  2  0  0  0  0
  4  5  1  0  0  0  0
  5  6  2  0  0  0  0
  6  1  1  0  0  0  0
  6 30  1  0  0  0  0
  7  3  1  0  0  0  0
  8  4  1  0  0  0  0
  9  8  2  0  0  0  0
 10 11  1  0  0  0  0
 10  8  1  0  0  0  0
 12 11  1  0  0  0  0
 13 12  1  0  0  0  0
 14 13  1  0  0  0  0
 14 15  1  0  0  0  0
 15 10  1  0  0  0  0
 16 17  1  0  0  0  0
 17 23  1  0  0  0  0
 17 18  2  0  0  0  0
 19 18  1  0  0  0  0
 20 19  2  0  0  0  0
 21 16  2  0  0  0  0
 21 20  2  0  0  0  0
 22 20  1  0  0  0  0
 23 25  1  0  0  0  0
 23 24  1  0  0  0  0
 26 23  1  0  0  0  0
 27 16  1  0  0  0  0
 29 28  1  0  0  0  0
 29 27  1  0  0  0  0
 31 30  1  0  0  0  0
M  END
>  <MODEL>
1

>  <REMARK>
 VINA RESULT:      -9.0      0.000      0.000
  Name = 8u7h
  6 active torsions:
  status: ('A' for Active; 'I' for Inactive)
    1  A    between atoms: C_2  and  N_3
    2  A    between atoms: N_3  and  C_4
    3  A    between atoms: C_5  and  C_27
    4  A    between atoms: N_10  and  C_11
    5  A    between atoms: C_14  and  C_19
    6  A    between atoms: C_16  and  O_17
                            x       y       z     vdW  Elec       q    Type
                         _______ _______ _______ _____ _____    ______ ____

>  <TORSDO>
F 6

$$$$
8u7h
 OpenBabel10242410253D

 31 33  0  0  0  0  0  0  0  0999 V2000
  189.8830  177.5180  141.7000 C   0  0  0  0  0  0  0  0  0  0  0  0
  188.5510  177.8430  141.4740 C   0  0  0  0  0  3  0  0  0  0  0  0
  188.1130  178.1380  140.1870 C   0  0  0  0  0  0  0  0  0  0  0  0
  188.9990  178.0830  139.1240 C   0  0  0  0  0  0  0  0  0  0  0  0
  190.3220  177.7470  139.3480 C   0  0  0  0  0  3  0  0  0  0  0  0
  190.7560  177.4440  140.6290 C   0  0  0  0  0  0  0  0  0  0  0  0
  186.8050  178.4750  139.9700 F   0  0  0  0  0  0  0  0  0  0  0  0
  188.5400  178.4000  137.6810 C   0  0  0  0  0  0  0  0  0  0  0  0
  188.6950  179.5010  137.2770 O   0  0  0  0  0  0  0  0  0  0  0  0
  187.8810  177.4150  136.8190 N   0  0  0  0  0  0  0  0  0  0  0  0
  187.6160  176.0410  137.1650 C   0  0  0  0  0  2  0  0  0  0  0  0
  188.3490  175.2060  136.1070 C   0  0  0  0  0  2  0  0  0  0  0  0
  187.7990  175.4070  134.8030 O   0  0  0  0  0  0  0  0  0  0  0  0
  186.8500  176.4650  134.7510 C   0  0  0  0  0  2  0  0  0  0  0  0
  187.4350  177.6980  135.4640 C   0  0  0  0  0  2  0  0  0  0  0  0
  188.0700  177.9430  145.7350 C   0  0  0  0  0  0  0  0  0  0  0  0
  188.8730  177.7090  146.8440 C   0  0  0  0  0  0  0  0  0  0  0  0
  190.1700  177.2910  146.6100 C   0  0  0  0  0  3  0  0  0  0  0  0
  190.6030  177.1450  145.3720 N   0  0  0  0  0  0  0  0  0  0  0  0
  189.8110  177.3680  144.3390 C   0  0  0  0  0  0  0  0  0  0  0  0
  188.5660  177.7690  144.5200 N   0  0  0  0  0  4  0  0  0  0  0  0
  190.4080  177.1710  143.0190 N   0  0  0  0  0  2  0  0  0  0  0  0
  188.3580  177.8900  148.2660 C   0  0  0  0  0  0  0  0  0  0  0  0
  189.4080  178.1940  149.0740 F   0  0  0  0  0  0  0  0  0  0  0  0
  187.4670  178.9200  148.2870 F   0  0  0  0  0  0  0  0  0  0  0  0
  187.7570  176.7620  148.7240 F   0  0  0  0  0  0  0  0  0  0  0  0
  186.6970  178.3800  145.9200 N   0  0  0  0  0  2  0  0  0  0  0  0
  184.3890  178.8230  145.2750 C   0  0  0  0  0  1  0  0  0  0  0  0
  185.7580  178.3310  144.8140 C   0  0  0  0  0  2  0  0  0  0  0  0
  192.0930  177.1010  140.8690 O   0  0  0  0  0  0  0  0  0  0  0  0
  192.9790  177.3170  139.8070 C   0  0  0  0  0  1  0  0  0  0  0  0
  1 22  1  0  0  0  0
  2  1  1  0  0  0  0
  3  2  2  0  0  0  0
  4  5  2  0  0  0  0
  4  3  1  0  0  0  0
  5  6  1  0  0  0  0
  6 30  1  0  0  0  0
  6  1  2  0  0  0  0
  7  3  1  0  0  0  0
  8  4  1  0  0  0  0
  9  8  2  0  0  0  0
 10 11  1  0  0  0  0
 10  8  1  0  0  0  0
 12 11  1  0  0  0  0
 13 12  1  0  0  0  0
 14 13  1  0  0  0  0
 14 15  1  0  0  0  0
 15 10  1  0  0  0  0
 16 27  1  0  0  0  0
 16 17  1  0  0  0  0
 17 23  1  0  0  0  0
 18 17  2  0  0  0  0
 19 18  1  0  0  0  0
 20 21  2  0  0  0  0
 20 19  2  0  0  0  0
 21 16  2  0  0  0  0
 22 20  1  0  0  0  0
 23 25  1  0  0  0  0
 23 26  1  0  0  0  0
 23 24  1  0  0  0  0
 29 28  1  0  0  0  0
 29 27  1  0  0  0  0
 31 30  1  0  0  0  0
M  END
>  <MODEL>
2

>  <REMARK>
 VINA RESULT:      -9.0      3.647      5.218
  Name = 8u7h
  6 active torsions:
  status: ('A' for Active; 'I' for Inactive)
    1  A    between atoms: C_2  and  N_3
    2  A    between atoms: N_3  and  C_4
    3  A    between atoms: C_5  and  C_27
    4  A    between atoms: N_10  and  C_11
    5  A    between atoms: C_14  and  C_19
    6  A    between atoms: C_16  and  O_17
                            x       y       z     vdW  Elec       q    Type
                         _______ _______ _______ _____ _____    ______ ____

>  <TORSDO>
F 6

$$$$
8u7h
 OpenBabel10242410253D

 31 33  0  0  0  0  0  0  0  0999 V2000
  183.6530  179.0120  143.2910 C   0  0  0  0  0  0  0  0  0  0  0  0
  184.5580  179.0200  142.2360 C   0  0  0  0  0  3  0  0  0  0  0  0
  184.1190  178.7800  140.9380 C   0  0  0  0  0  0  0  0  0  0  0  0
  182.7750  178.5550  140.6910 C   0  0  0  0  0  0  0  0  0  0  0  0
  181.8730  178.5600  141.7410 C   0  0  0  0  0  3  0  0  0  0  0  0
  182.3090  178.8090  143.0320 C   0  0  0  0  0  0  0  0  0  0  0  0
  185.0140  178.7700  139.9040 F   0  0  0  0  0  0  0  0  0  0  0  0
  182.2560  178.2910  139.2590 C   0  0  0  0  0  0  0  0  0  0  0  0
  182.2260  177.1720  138.8750 O   0  0  0  0  0  0  0  0  0  0  0  0
  181.8520  179.3630  138.3450 N   0  0  0  0  0  0  0  0  0  0  0  0
  181.8370  180.7700  138.6580 C   0  0  0  0  0  2  0  0  0  0  0  0
  180.3830  181.2170  138.4550 C   0  0  0  0  0  2  0  0  0  0  0  0
  179.9830  181.1030  137.0880 O   0  0  0  0  0  0  0  0  0  0  0  0
  180.9360  180.4260  136.2770 C   0  0  0  0  0  2  0  0  0  0  0  0
  181.3710  179.1330  136.9920 C   0  0  0  0  0  2  0  0  0  0  0  0
  187.2530  177.7780  145.5860 C   0  0  0  0  0  0  0  0  0  0  0  0
  187.2730  178.0140  146.9540 C   0  0  0  0  0  0  0  0  0  0  0  0
  186.1920  178.6830  147.4970 C   0  0  0  0  0  3  0  0  0  0  0  0
  185.1890  179.0560  146.7230 N   0  0  0  0  0  0  0  0  0  0  0  0
  185.2050  178.8220  145.4240 C   0  0  0  0  0  0  0  0  0  0  0  0
  186.2190  178.1850  144.8670 N   0  0  0  0  0  4  0  0  0  0  0  0
  184.0370  179.2830  144.6740 N   0  0  0  0  0  2  0  0  0  0  0  0
  188.4350  177.5710  147.8330 C   0  0  0  0  0  0  0  0  0  0  0  0
  188.2040  177.9890  149.1050 F   0  0  0  0  0  0  0  0  0  0  0  0
  188.5090  176.2100  147.8180 F   0  0  0  0  0  0  0  0  0  0  0  0
  189.6120  178.0930  147.4010 F   0  0  0  0  0  0  0  0  0  0  0  0
  188.3640  177.0820  144.9590 N   0  0  0  0  0  2  0  0  0  0  0  0
  190.2690  178.3940  144.1920 C   0  0  0  0  0  1  0  0  0  0  0  0
  189.0070  177.6390  143.7830 C   0  0  0  0  0  2  0  0  0  0  0  0
  181.4060  178.8180  144.1030 O   0  0  0  0  0  0  0  0  0  0  0  0
  180.0920  178.4420  143.7970 C   0  0  0  0  0  1  0  0  0  0  0  0
  1 22  1  0  0  0  0
  2  1  2  0  0  0  0
  3  2  1  0  0  0  0
  4  3  2  0  0  0  0
  4  5  1  0  0  0  0
  5  6  2  0  0  0  0
  6  1  1  0  0  0  0
  6 30  1  0  0  0  0
  7  3  1  0  0  0  0
  8  4  1  0  0  0  0
  9  8  2  0  0  0  0
 10 11  1  0  0  0  0
 10  8  1  0  0  0  0
 12 11  1  0  0  0  0
 13 12  1  0  0  0  0
 14 15  1  0  0  0  0
 14 13  1  0  0  0  0
 15 10  1  0  0  0  0
 16 17  1  0  0  0  0
 17 18  2  0  0  0  0
 17 23  1  0  0  0  0
 19 18  1  0  0  0  0
 20 19  2  0  0  0  0
 21 20  2  0  0  0  0
 21 16  2  0  0  0  0
 22 20  1  0  0  0  0
 23 24  1  0  0  0  0
 25 23  1  0  0  0  0
 26 23  1  0  0  0  0
 27 16  1  0  0  0  0
 29 28  1  0  0  0  0
 29 27  1  0  0  0  0
 31 30  1  0  0  0  0
M  END
>  <MODEL>
3

>  <REMARK>
 VINA RESULT:      -8.9      2.219      3.013
  Name = 8u7h
  6 active torsions:
  status: ('A' for Active; 'I' for Inactive)
    1  A    between atoms: C_2  and  N_3
    2  A    between atoms: N_3  and  C_4
    3  A    between atoms: C_5  and  C_27
    4  A    between atoms: N_10  and  C_11
    5  A    between atoms: C_14  and  C_19
    6  A    between atoms: C_16  and  O_17
                            x       y       z     vdW  Elec       q    Type
                         _______ _______ _______ _____ _____    ______ ____

>  <TORSDO>
F 6

$$$$
8u7h
 OpenBabel10242410253D

 31 33  0  0  0  0  0  0  0  0999 V2000
  183.5260  178.9690  143.2990 C   0  0  0  0  0  0  0  0  0  0  0  0
  184.4380  178.9010  142.2530 C   0  0  0  0  0  3  0  0  0  0  0  0
  183.9930  178.7030  140.9500 C   0  0  0  0  0  0  0  0  0  0  0  0
  182.6370  178.5960  140.6900 C   0  0  0  0  0  0  0  0  0  0  0  0
  181.7290  178.6760  141.7310 C   0  0  0  0  0  3  0  0  0  0  0  0
  182.1710  178.8840  143.0270 C   0  0  0  0  0  0  0  0  0  0  0  0
  184.8940  178.6190  139.9250 F   0  0  0  0  0  0  0  0  0  0  0  0
  182.1110  178.3810  139.2520 C   0  0  0  0  0  0  0  0  0  0  0  0
  181.7610  179.3310  138.6390 O   0  0  0  0  0  0  0  0  0  0  0  0
  181.9800  177.0560  138.6390 N   0  0  0  0  0  0  0  0  0  0  0  0
  182.3550  175.8070  139.2530 C   0  0  0  0  0  2  0  0  0  0  0  0
  183.4030  175.1920  138.3180 C   0  0  0  0  0  2  0  0  0  0  0  0
  182.8450  174.8630  137.0440 O   0  0  0  0  0  0  0  0  0  0  0  0
  181.5220  175.3560  136.8660 C   0  0  0  0  0  2  0  0  0  0  0  0
  181.4780  176.8350  137.2920 C   0  0  0  0  0  2  0  0  0  0  0  0
  187.2080  177.8030  145.4960 C   0  0  0  0  0  0  0  0  0  0  0  0
  187.2380  177.9870  146.8730 C   0  0  0  0  0  0  0  0  0  0  0  0
  186.1380  178.5870  147.4560 C   0  0  0  0  0  3  0  0  0  0  0  0
  185.1090  178.9460  146.7100 N   0  0  0  0  0  0  0  0  0  0  0  0
  185.1160  178.7630  145.4020 C   0  0  0  0  0  0  0  0  0  0  0  0
  186.1480  178.1930  144.8080 N   0  0  0  0  0  4  0  0  0  0  0  0
  183.9180  179.2030  144.6870 N   0  0  0  0  0  2  0  0  0  0  0  0
  188.4310  177.5600  147.7190 C   0  0  0  0  0  0  0  0  0  0  0  0
  189.5390  178.2000  147.2640 F   0  0  0  0  0  0  0  0  0  0  0  0
  188.2080  177.9190  149.0140 F   0  0  0  0  0  0  0  0  0  0  0  0
  188.6330  176.2180  147.6500 F   0  0  0  0  0  0  0  0  0  0  0  0
  188.3380  177.1800  144.8290 N   0  0  0  0  0  2  0  0  0  0  0  0
  190.3140  178.3590  144.0240 C   0  0  0  0  0  1  0  0  0  0  0  0
  188.9360  177.8070  143.6650 C   0  0  0  0  0  2  0  0  0  0  0  0
  181.2620  178.9680  144.0890 O   0  0  0  0  0  0  0  0  0  0  0  0
  179.9820  178.4590  143.8390 C   0  0  0  0  0  1  0  0  0  0  0  0
  1 22  1  0  0  0  0
  2  1  2  0  0  0  0
  3  2  1  0  0  0  0
  4  3  2  0  0  0  0
  4  5  1  0  0  0  0
  5  6  2  0  0  0  0
  6  1  1  0  0  0  0
  6 30  1  0  0  0  0
  7  3  1  0  0  0  0
  8  4  1  0  0  0  0
  9  8  2  0  0  0  0
 10  8  1  0  0  0  0
 10 11  1  0  0  0  0
 12 11  1  0  0  0  0
 13 12  1  0  0  0  0
 14 13  1  0  0  0  0
 14 15  1  0  0  0  0
 15 10  1  0  0  0  0
 16 17  1  0  0  0  0
 17 18  2  0  0  0  0
 17 23  1  0  0  0  0
 19 18  1  0  0  0  0
 20 19  2  0  0  0  0
 21 20  2  0  0  0  0
 21 16  2  0  0  0  0
 22 20  1  0  0  0  0
 23 25  1  0  0  0  0
 24 23  1  0  0  0  0
 26 23  1  0  0  0  0
 27 16  1  0  0  0  0
 29 28  1  0  0  0  0
 29 27  1  0  0  0  0
 31 30  1  0  0  0  0
M  END
>  <MODEL>
4

>  <REMARK>
 VINA RESULT:      -8.8      1.852      2.526
  Name = 8u7h
  6 active torsions:
  status: ('A' for Active; 'I' for Inactive)
    1  A    between atoms: C_2  and  N_3
    2  A    between atoms: N_3  and  C_4
    3  A    between atoms: C_5  and  C_27
    4  A    between atoms: N_10  and  C_11
    5  A    between atoms: C_14  and  C_19
    6  A    between atoms: C_16  and  O_17
                            x       y       z     vdW  Elec       q    Type
                         _______ _______ _______ _____ _____    ______ ____

>  <TORSDO>
F 6

$$$$
8u7h
 OpenBabel10242410253D

 31 33  0  0  0  0  0  0  0  0999 V2000
  188.0440  178.1850  141.3810 C   0  0  0  0  0  0  0  0  0  0  0  0
  187.0120  178.6120  142.2070 C   0  0  0  0  0  3  0  0  0  0  0  0
  185.7790  178.9570  141.6640 C   0  0  0  0  0  0  0  0  0  0  0  0
  185.5700  178.8520  140.2990 C   0  0  0  0  0  0  0  0  0  0  0  0
  186.5950  178.4150  139.4780 C   0  0  0  0  0  3  0  0  0  0  0  0
  187.8190  178.0620  140.0210 C   0  0  0  0  0  0  0  0  0  0  0  0
  184.7710  179.3940  142.4780 F   0  0  0  0  0  0  0  0  0  0  0  0
  184.2090  179.2230  139.6660 C   0  0  0  0  0  0  0  0  0  0  0  0
  184.1090  180.2770  139.1360 O   0  0  0  0  0  0  0  0  0  0  0  0
  183.0310  178.3530  139.7380 N   0  0  0  0  0  0  0  0  0  0  0  0
  182.9880  177.0490  140.3500 C   0  0  0  0  0  2  0  0  0  0  0  0
  182.5670  176.0880  139.2300 C   0  0  0  0  0  2  0  0  0  0  0  0
  181.2420  176.3620  138.7710 O   0  0  0  0  0  0  0  0  0  0  0  0
  180.7000  177.5650  139.3030 C   0  0  0  0  0  2  0  0  0  0  0  0
  181.7410  178.6900  139.1570 C   0  0  0  0  0  2  0  0  0  0  0  0
  189.3380  177.0180  145.4690 C   0  0  0  0  0  0  0  0  0  0  0  0
  190.6980  176.8650  145.7090 C   0  0  0  0  0  0  0  0  0  0  0  0
  191.5520  177.0200  144.6340 C   0  0  0  0  0  3  0  0  0  0  0  0
  191.0680  177.3190  143.4430 N   0  0  0  0  0  0  0  0  0  0  0  0
  189.7680  177.4500  143.2470 C   0  0  0  0  0  0  0  0  0  0  0  0
  188.9190  177.3090  144.2480 N   0  0  0  0  0  4  0  0  0  0  0  0
  189.3550  177.7810  141.8840 N   0  0  0  0  0  2  0  0  0  0  0  0
  191.2400  176.5280  147.0920 C   0  0  0  0  0  0  0  0  0  0  0  0
  192.5410  176.1560  146.9710 F   0  0  0  0  0  0  0  0  0  0  0  0
  191.1650  177.6370  147.8800 F   0  0  0  0  0  0  0  0  0  0  0  0
  190.5400  175.5160  147.6670 F   0  0  0  0  0  0  0  0  0  0  0  0
  188.3920  176.8620  146.5600 N   0  0  0  0  0  2  0  0  0  0  0  0
  188.0340  178.0270  148.6710 C   0  0  0  0  0  1  0  0  0  0  0  0
  187.7750  178.0270  147.1660 C   0  0  0  0  0  2  0  0  0  0  0  0
  188.8640  177.6170  139.2010 O   0  0  0  0  0  0  0  0  0  0  0  0
  189.1350  178.4040  138.0750 C   0  0  0  0  0  1  0  0  0  0  0  0
  1 22  1  0  0  0  0
  1  2  1  0  0  0  0
  3  2  2  0  0  0  0
  3  7  1  0  0  0  0
  4  3  1  0  0  0  0
  5  6  1  0  0  0  0
  5  4  2  0  0  0  0
  6  1  2  0  0  0  0
  8 10  1  0  0  0  0
  8  4  1  0  0  0  0
  9  8  2  0  0  0  0
 10 11  1  0  0  0  0
 12 11  1  0  0  0  0
 13 12  1  0  0  0  0
 13 14  1  0  0  0  0
 15 14  1  0  0  0  0
 15 10  1  0  0  0  0
 16 17  1  0  0  0  0
 16 27  1  0  0  0  0
 17 23  1  0  0  0  0
 18 17  2  0  0  0  0
 19 18  1  0  0  0  0
 20 19  2  0  0  0  0
 20 21  2  0  0  0  0
 21 16  2  0  0  0  0
 22 20  1  0  0  0  0
 23 26  1  0  0  0  0
 23 25  1  0  0  0  0
 24 23  1  0  0  0  0
 27 29  1  0  0  0  0
 29 28  1  0  0  0  0
 30  6  1  0  0  0  0
 31 30  1  0  0  0  0
M  END
>  <MODEL>
5

>  <REMARK>
 VINA RESULT:      -8.6      1.960      3.499
  Name = 8u7h
  6 active torsions:
  status: ('A' for Active; 'I' for Inactive)
    1  A    between atoms: C_2  and  N_3
    2  A    between atoms: N_3  and  C_4
    3  A    between atoms: C_5  and  C_27
    4  A    between atoms: N_10  and  C_11
    5  A    between atoms: C_14  and  C_19
    6  A    between atoms: C_16  and  O_17
                            x       y       z     vdW  Elec       q    Type
                         _______ _______ _______ _____ _____    ______ ____

>  <TORSDO>
F 6

$$$$
8u7h
 OpenBabel10242410253D

 31 33  0  0  0  0  0  0  0  0999 V2000
  186.4780  178.3990  141.6580 C   0  0  0  0  0  0  0  0  0  0  0  0
  187.8040  178.1690  141.3130 C   0  0  0  0  0  3  0  0  0  0  0  0
  188.1820  178.1330  139.9750 C   0  0  0  0  0  0  0  0  0  0  0  0
  187.2400  178.3500  138.9830 C   0  0  0  0  0  0  0  0  0  0  0  0
  185.9210  178.5900  139.3280 C   0  0  0  0  0  3  0  0  0  0  0  0
  185.5470  178.6370  140.6610 C   0  0  0  0  0  0  0  0  0  0  0  0
  189.4840  177.8890  139.6380 F   0  0  0  0  0  0  0  0  0  0  0  0
  187.6300  178.3220  137.4870 C   0  0  0  0  0  0  0  0  0  0  0  0
  187.7390  179.3550  136.9210 O   0  0  0  0  0  0  0  0  0  0  0  0
  187.8170  177.0790  136.7340 N   0  0  0  0  0  0  0  0  0  0  0  0
  187.7150  175.7460  137.2750 C   0  0  0  0  0  2  0  0  0  0  0  0
  189.0830  175.0990  137.0240 C   0  0  0  0  0  2  0  0  0  0  0  0
  189.3470  174.9480  135.6280 O   0  0  0  0  0  0  0  0  0  0  0  0
  188.3910  175.6020  134.8010 C   0  0  0  0  0  2  0  0  0  0  0  0
  188.1740  177.0340  135.3250 C   0  0  0  0  0  2  0  0  0  0  0  0
  188.6510  177.7350  145.4770 C   0  0  0  0  0  0  0  0  0  0  0  0
  187.9140  177.6870  146.6530 C   0  0  0  0  0  0  0  0  0  0  0  0
  186.5540  177.9180  146.5580 C   0  0  0  0  0  3  0  0  0  0  0  0
  186.0060  178.1570  145.3810 N   0  0  0  0  0  0  0  0  0  0  0  0
  186.7370  178.2030  144.2830 C   0  0  0  0  0  0  0  0  0  0  0  0
  188.0390  177.9880  144.3310 N   0  0  0  0  0  4  0  0  0  0  0  0
  186.0140  178.4770  143.0410 N   0  0  0  0  0  2  0  0  0  0  0  0
  188.5620  177.4020  148.0010 C   0  0  0  0  0  0  0  0  0  0  0  0
  187.5910  177.3560  148.9510 F   0  0  0  0  0  0  0  0  0  0  0  0
  189.1900  176.1940  147.9460 F   0  0  0  0  0  0  0  0  0  0  0  0
  189.4620  178.3650  148.3320 F   0  0  0  0  0  0  0  0  0  0  0  0
  190.0850  177.5040  145.5160 N   0  0  0  0  0  2  0  0  0  0  0  0
  191.5500  178.7330  144.0050 C   0  0  0  0  0  1  0  0  0  0  0  0
  190.8450  177.4080  144.2840 C   0  0  0  0  0  2  0  0  0  0  0  0
  184.2170  178.8800  141.0230 O   0  0  0  0  0  0  0  0  0  0  0  0
  183.3060  177.8590  140.7270 C   0  0  0  0  0  1  0  0  0  0  0  0
  1 22  1  0  0  0  0
  2  1  1  0  0  0  0
  3  2  2  0  0  0  0
  4  5  2  0  0  0  0
  4  3  1  0  0  0  0
  5  6  1  0  0  0  0
  6 30  1  0  0  0  0
  6  1  2  0  0  0  0
  7  3  1  0  0  0  0
  8  4  1  0  0  0  0
  9  8  2  0  0  0  0
 10 11  1  0  0  0  0
 10  8  1  0  0  0  0
 12 11  1  0  0  0  0
 13 12  1  0  0  0  0
 14 15  1  0  0  0  0
 14 13  1  0  0  0  0
 15 10  1  0  0  0  0
 16 27  1  0  0  0  0
 16 17  1  0  0  0  0
 17 23  1  0  0  0  0
 18 17  2  0  0  0  0
 19 18  1  0  0  0  0
 20 21  2  0  0  0  0
 20 19  2  0  0  0  0
 21 16  2  0  0  0  0
 22 20  1  0  0  0  0
 23 26  1  0  0  0  0
 23 24  1  0  0  0  0
 25 23  1  0  0  0  0
 28 29  1  0  0  0  0
 29 27  1  0  0  0  0
 31 30  1  0  0  0  0
M  END
>  <MODEL>
6

>  <REMARK>
 VINA RESULT:      -8.4      3.273      3.752
  Name = 8u7h
  6 active torsions:
  status: ('A' for Active; 'I' for Inactive)
    1  A    between atoms: C_2  and  N_3
    2  A    between atoms: N_3  and  C_4
    3  A    between atoms: C_5  and  C_27
    4  A    between atoms: N_10  and  C_11
    5  A    between atoms: C_14  and  C_19
    6  A    between atoms: C_16  and  O_17
                            x       y       z     vdW  Elec       q    Type
                         _______ _______ _______ _____ _____    ______ ____

>  <TORSDO>
F 6

$$$$
8u7h
 OpenBabel10242410253D

 31 33  0  0  0  0  0  0  0  0999 V2000
  190.4270  177.0210  139.9550 C   0  0  0  0  0  0  0  0  0  0  0  0
  191.7150  177.2820  140.4070 C   0  0  0  0  0  3  0  0  0  0  0  0
  192.8070  177.0440  139.5800 C   0  0  0  0  0  0  0  0  0  0  0  0
  192.6110  176.5680  138.2930 C   0  0  0  0  0  0  0  0  0  0  0  0
  191.3270  176.3200  137.8400 C   0  0  0  0  0  3  0  0  0  0  0  0
  190.2390  176.5680  138.6610 C   0  0  0  0  0  0  0  0  0  0  0  0
  194.0740  177.2840  140.0330 F   0  0  0  0  0  0  0  0  0  0  0  0
  193.8040  176.3000  137.3470 C   0  0  0  0  0  0  0  0  0  0  0  0
  194.1410  177.1670  136.6160 O   0  0  0  0  0  0  0  0  0  0  0  0
  194.4960  175.0090  137.2820 N   0  0  0  0  0  0  0  0  0  0  0  0
  194.2030  173.8580  138.0980 C   0  0  0  0  0  2  0  0  0  0  0  0
  195.5060  173.5490  138.8480 C   0  0  0  0  0  2  0  0  0  0  0  0
  196.5480  173.1550  137.9550 O   0  0  0  0  0  0  0  0  0  0  0  0
  196.2100  173.3300  136.5840 C   0  0  0  0  0  2  0  0  0  0  0  0
  195.6130  174.7360  136.3910 C   0  0  0  0  0  2  0  0  0  0  0  0
  189.9310  177.4030  144.3550 C   0  0  0  0  0  0  0  0  0  0  0  0
  188.6410  177.4510  144.8700 C   0  0  0  0  0  0  0  0  0  0  0  0
  187.5970  177.4440  143.9630 C   0  0  0  0  0  3  0  0  0  0  0  0
  187.8470  177.3790  142.6690 N   0  0  0  0  0  0  0  0  0  0  0  0
  189.0860  177.3420  142.2120 C   0  0  0  0  0  0  0  0  0  0  0  0
  190.1110  177.3470  143.0450 N   0  0  0  0  0  4  0  0  0  0  0  0
  189.2330  177.2720  140.7590 N   0  0  0  0  0  2  0  0  0  0  0  0
  188.3710  177.5180  146.3670 C   0  0  0  0  0  0  0  0  0  0  0  0
  188.7250  176.3320  146.9270 F   0  0  0  0  0  0  0  0  0  0  0  0
  189.1290  178.5110  146.9100 F   0  0  0  0  0  0  0  0  0  0  0  0
  187.0590  177.7570  146.6250 F   0  0  0  0  0  0  0  0  0  0  0  0
  191.0670  177.4110  145.2600 N   0  0  0  0  0  2  0  0  0  0  0  0
  191.9820  176.0730  147.0810 C   0  0  0  0  0  1  0  0  0  0  0  0
  191.7620  176.1760  145.5730 C   0  0  0  0  0  2  0  0  0  0  0  0
  188.9340  176.3220  138.2140 O   0  0  0  0  0  0  0  0  0  0  0  0
  188.4340  177.2220  137.2650 C   0  0  0  0  0  1  0  0  0  0  0  0
  1  2  1  0  0  0  0
  1 22  1  0  0  0  0
  3  7  1  0  0  0  0
  3  2  2  0  0  0  0
  4  3  1  0  0  0  0
  5  4  2  0  0  0  0
  5  6  1  0  0  0  0
  6  1  2  0  0  0  0
  8  4  1  0  0  0  0
  9  8  2  0  0  0  0
 10  8  1  0  0  0  0
 10 11  1  0  0  0  0
 11 12  1  0  0  0  0
 13 12  1  0  0  0  0
 14 13  1  0  0  0  0
 15 14  1  0  0  0  0
 15 10  1  0  0  0  0
 16 17  1  0  0  0  0
 16 27  1  0  0  0  0
 17 23  1  0  0  0  0
 18 17  2  0  0  0  0
 19 18  1  0  0  0  0
 20 19  2  0  0  0  0
 20 21  2  0  0  0  0
 21 16  2  0  0  0  0
 22 20  1  0  0  0  0
 23 26  1  0  0  0  0
 23 25  1  0  0  0  0
 23 24  1  0  0  0  0
 27 29  1  0  0  0  0
 29 28  1  0  0  0  0
 30  6  1  0  0  0  0
 31 30  1  0  0  0  0
M  END
>  <MODEL>
7

>  <REMARK>
 VINA RESULT:      -8.4      5.714      8.031
  Name = 8u7h
  6 active torsions:
  status: ('A' for Active; 'I' for Inactive)
    1  A    between atoms: C_2  and  N_3
    2  A    between atoms: N_3  and  C_4
    3  A    between atoms: C_5  and  C_27
    4  A    between atoms: N_10  and  C_11
    5  A    between atoms: C_14  and  C_19
    6  A    between atoms: C_16  and  O_17
                            x       y       z     vdW  Elec       q    Type
                         _______ _______ _______ _____ _____    ______ ____

>  <TORSDO>
F 6

$$$$
8u7h
 OpenBabel10242410253D

 31 33  0  0  0  0  0  0  0  0999 V2000
  187.8670  178.1560  141.3980 C   0  0  0  0  0  0  0  0  0  0  0  0
  186.7560  178.5650  142.1250 C   0  0  0  0  0  3  0  0  0  0  0  0
  185.5810  178.9140  141.4680 C   0  0  0  0  0  0  0  0  0  0  0  0
  185.5090  178.8320  140.0870 C   0  0  0  0  0  0  0  0  0  0  0  0
  186.6120  178.4130  139.3650 C   0  0  0  0  0  3  0  0  0  0  0  0
  187.7790  178.0550  140.0200 C   0  0  0  0  0  0  0  0  0  0  0  0
  184.4950  179.3340  142.1850 F   0  0  0  0  0  0  0  0  0  0  0  0
  184.2150  179.2080  139.3290 C   0  0  0  0  0  0  0  0  0  0  0  0
  184.1470  180.2860  138.8440 O   0  0  0  0  0  0  0  0  0  0  0  0
  183.0580  178.3140  139.2300 N   0  0  0  0  0  0  0  0  0  0  0  0
  182.9820  176.9790  139.7680 C   0  0  0  0  0  2  0  0  0  0  0  0
  182.7080  176.0690  138.5640 C   0  0  0  0  0  2  0  0  0  0  0  0
  181.4340  176.3400  137.9770 O   0  0  0  0  0  0  0  0  0  0  0  0
  180.8080  177.5040  138.5060 C   0  0  0  0  0  2  0  0  0  0  0  0
  181.8310  178.6550  138.5290 C   0  0  0  0  0  2  0  0  0  0  0  0
  188.8470  177.3250  145.6520 C   0  0  0  0  0  0  0  0  0  0  0  0
  190.1810  177.1400  145.9950 C   0  0  0  0  0  0  0  0  0  0  0  0
  191.1070  177.1610  144.9700 C   0  0  0  0  0  3  0  0  0  0  0  0
  190.7120  177.3660  143.7270 N   0  0  0  0  0  0  0  0  0  0  0  0
  189.4350  177.5300  143.4340 C   0  0  0  0  0  0  0  0  0  0  0  0
  188.5190  177.5170  144.3850 N   0  0  0  0  0  4  0  0  0  0  0  0
  189.1240  177.7480  142.0210 N   0  0  0  0  0  2  0  0  0  0  0  0
  190.6190  176.9130  147.4360 C   0  0  0  0  0  0  0  0  0  0  0  0
  190.1570  175.7030  147.8460 F   0  0  0  0  0  0  0  0  0  0  0  0
  191.9800  176.9120  147.4910 F   0  0  0  0  0  0  0  0  0  0  0  0
  190.1340  177.8760  148.2610 F   0  0  0  0  0  0  0  0  0  0  0  0
  187.8290  177.3090  146.6880 N   0  0  0  0  0  2  0  0  0  0  0  0
  185.9770  178.8950  146.6780 C   0  0  0  0  0  1  0  0  0  0  0  0
  186.4290  177.4760  146.3400 C   0  0  0  0  0  2  0  0  0  0  0  0
  188.9020  177.6280  139.3010 O   0  0  0  0  0  0  0  0  0  0  0  0
  188.7500  177.5680  137.9100 C   0  0  0  0  0  1  0  0  0  0  0  0
  1 22  1  0  0  0  0
  1  2  1  0  0  0  0
  3  2  2  0  0  0  0
  3  7  1  0  0  0  0
  4  3  1  0  0  0  0
  5  6  1  0  0  0  0
  5  4  2  0  0  0  0
  6  1  2  0  0  0  0
  8  4  1  0  0  0  0
  9  8  2  0  0  0  0
 10  8  1  0  0  0  0
 10 11  1  0  0  0  0
 12 11  1  0  0  0  0
 13 14  1  0  0  0  0
 13 12  1  0  0  0  0
 14 15  1  0  0  0  0
 15 10  1  0  0  0  0
 16 17  1  0  0  0  0
 16 27  1  0  0  0  0
 17 23  1  0  0  0  0
 18 17  2  0  0  0  0
 19 18  1  0  0  0  0
 20 19  2  0  0  0  0
 20 21  2  0  0  0  0
 21 16  2  0  0  0  0
 22 20  1  0  0  0  0
 23 25  1  0  0  0  0
 23 24  1  0  0  0  0
 23 26  1  0  0  0  0
 29 28  1  0  0  0  0
 29 27  1  0  0  0  0
 30  6  1  0  0  0  0
 31 30  1  0  0  0  0
M  END
>  <MODEL>
8

>  <REMARK>
 VINA RESULT:      -8.4      1.905      3.475
  Name = 8u7h
  6 active torsions:
  status: ('A' for Active; 'I' for Inactive)
    1  A    between atoms: C_2  and  N_3
    2  A    between atoms: N_3  and  C_4
    3  A    between atoms: C_5  and  C_27
    4  A    between atoms: N_10  and  C_11
    5  A    between atoms: C_14  and  C_19
    6  A    between atoms: C_16  and  O_17
                            x       y       z     vdW  Elec       q    Type
                         _______ _______ _______ _____ _____    ______ ____

>  <TORSDO>
F 6

$$$$
8u7h
 OpenBabel10242410253D

 31 33  0  0  0  0  0  0  0  0999 V2000
  186.8840  178.4140  139.4840 C   0  0  0  0  0  0  0  0  0  0  0  0
  188.2650  178.3700  139.6270 C   0  0  0  0  0  3  0  0  0  0  0  0
  189.0610  177.9060  138.5860 C   0  0  0  0  0  0  0  0  0  0  0  0
  188.4800  177.5100  137.3930 C   0  0  0  0  0  0  0  0  0  0  0  0
  187.1040  177.5660  137.2460 C   0  0  0  0  0  3  0  0  0  0  0  0
  186.3130  178.0370  138.2810 C   0  0  0  0  0  0  0  0  0  0  0  0
  190.4190  177.8470  138.7360 F   0  0  0  0  0  0  0  0  0  0  0  0
  189.3380  176.9960  136.2140 C   0  0  0  0  0  0  0  0  0  0  0  0
  189.3810  177.6510  135.2290 O   0  0  0  0  0  0  0  0  0  0  0  0
  190.0530  175.7180  136.2450 N   0  0  0  0  0  0  0  0  0  0  0  0
  190.0960  174.8070  137.3620 C   0  0  0  0  0  2  0  0  0  0  0  0
  191.5820  174.6690  137.7180 C   0  0  0  0  0  2  0  0  0  0  0  0
  192.3210  174.0490  136.6640 O   0  0  0  0  0  0  0  0  0  0  0  0
  191.5680  173.8880  135.4680 C   0  0  0  0  0  2  0  0  0  0  0  0
  190.8570  175.2140  135.1420 C   0  0  0  0  0  2  0  0  0  0  0  0
  186.9560  177.8220  143.8880 C   0  0  0  0  0  0  0  0  0  0  0  0
  185.8620  178.2560  144.6270 C   0  0  0  0  0  0  0  0  0  0  0  0
  184.8530  178.9070  143.9430 C   0  0  0  0  0  3  0  0  0  0  0  0
  184.9460  179.0800  142.6370 N   0  0  0  0  0  0  0  0  0  0  0  0
  186.0030  178.6620  141.9650 C   0  0  0  0  0  0  0  0  0  0  0  0
  186.9880  178.0350  142.5820 N   0  0  0  0  0  4  0  0  0  0  0  0
  185.9880  178.9130  140.5250 N   0  0  0  0  0  2  0  0  0  0  0  0
  185.7690  178.0400  146.1320 C   0  0  0  0  0  0  0  0  0  0  0  0
  186.1390  176.7630  146.4130 F   0  0  0  0  0  0  0  0  0  0  0  0
  186.6210  178.8990  146.7570 F   0  0  0  0  0  0  0  0  0  0  0  0
  184.5050  178.2470  146.5850 F   0  0  0  0  0  0  0  0  0  0  0  0
  188.0480  177.1350  144.5540 N   0  0  0  0  0  2  0  0  0  0  0  0
  189.7750  177.2980  146.2660 C   0  0  0  0  0  1  0  0  0  0  0  0
  189.2360  177.8660  144.9560 C   0  0  0  0  0  2  0  0  0  0  0  0
  184.9200  178.1000  138.1450 O   0  0  0  0  0  0  0  0  0  0  0  0
  184.3230  177.0270  137.4700 C   0  0  0  0  0  1  0  0  0  0  0  0
  1  2  1  0  0  0  0
  1 22  1  0  0  0  0
  3  7  1  0  0  0  0
  3  2  2  0  0  0  0
  4  3  1  0  0  0  0
  5  4  2  0  0  0  0
  5  6  1  0  0  0  0
  6  1  2  0  0  0  0
  8 10  1  0  0  0  0
  8  4  1  0  0  0  0
  9  8  2  0  0  0  0
 10 11  1  0  0  0  0
 11 12  1  0  0  0  0
 13 12  1  0  0  0  0
 14 13  1  0  0  0  0
 15 14  1  0  0  0  0
 15 10  1  0  0  0  0
 16 27  1  0  0  0  0
 16 17  1  0  0  0  0
 17 23  1  0  0  0  0
 18 17  2  0  0  0  0
 19 18  1  0  0  0  0
 20 21  2  0  0  0  0
 20 19  2  0  0  0  0
 21 16  2  0  0  0  0
 22 20  1  0  0  0  0
 23 24  1  0  0  0  0
 23 26  1  0  0  0  0
 23 25  1  0  0  0  0
 27 29  1  0  0  0  0
 29 28  1  0  0  0  0
 30  6  1  0  0  0  0
 31 30  1  0  0  0  0
M  END
>  <MODEL>
9

>  <REMARK>
 VINA RESULT:      -8.1      4.836      6.160
  Name = 8u7h
  6 active torsions:
  status: ('A' for Active; 'I' for Inactive)
    1  A    between atoms: C_2  and  N_3
    2  A    between atoms: N_3  and  C_4
    3  A    between atoms: C_5  and  C_27
    4  A    between atoms: N_10  and  C_11
    5  A    between atoms: C_14  and  C_19
    6  A    between atoms: C_16  and  O_17
                            x       y       z     vdW  Elec       q    Type
                         _______ _______ _______ _____ _____    ______ ____

>  <TORSDO>
F 6

$$$$
