8tzc
 OpenBabel10232413103D

 28 32  0  0  1  0  0  0  0  0999 V2000
  183.4850  178.7810  143.4780 N   0  0  0  0  0  0  0  0  0  0  0  0
  184.0960  178.6670  141.3100 N   0  0  0  0  0  0  0  0  0  0  0  0
  185.2800  178.5420  141.6220 C   0  0  0  0  0  0  0  0  0  0  0  0
  185.7140  178.5200  142.8420 C   0  0  0  0  0  3  0  0  0  0  0  0
  184.7980  178.6460  143.8180 C   0  0  0  0  0  0  0  0  0  0  0  0
  183.2000  178.7850  142.1850 C   0  0  0  0  0  3  0  0  0  0  0  0
  184.5550  179.0330  145.9950 N   0  0  0  0  0  0  0  0  0  0  0  0
  185.2290  178.8900  147.0960 N   0  0  0  0  0  0  0  0  0  0  0  0
  185.2810  178.6210  145.2220 C   0  0  0  0  0  0  0  0  0  0  0  0
  186.4870  178.3240  146.8630 C   0  0  0  0  0  0  0  0  0  0  0  0
  187.5200  177.9800  147.6140 C   0  0  0  0  0  3  0  0  0  0  0  0
  188.5520  177.4620  147.0110 C   0  0  0  0  0  3  0  0  0  0  0  0
  188.5740  177.2800  145.6930 C   0  0  0  0  0  0  0  0  0  0  0  0
  187.5140  177.6310  144.9710 C   0  0  0  0  0  3  0  0  0  0  0  0
  186.4690  178.1530  145.5150 C   0  0  1  0  0  3  0  0  0  0  0  0
  189.7290  176.7100  145.1460 O   0  0  0  0  0  0  0  0  0  0  0  0
  190.1760  177.0870  143.9260 C   0  0  0  0  0  0  0  0  0  0  0  0
  190.4490  178.5500  143.6910 C   0  0  0  0  0  1  0  0  0  0  0  0
  190.1030  176.1800  142.7320 C   0  0  0  0  0  2  0  0  0  0  0  0
  191.2710  176.1080  143.6560 C   0  0  0  0  0  2  0  0  0  0  0  0
  185.9980  177.3350  137.1460 C   0  0  0  0  0  1  0  0  0  0  0  0
  186.2100  178.4160  140.5780 N   0  0  0  0  0  0  0  0  0  0  0  0
  187.7360  177.6510  138.6000 O   0  0  0  0  0  0  0  0  0  0  0  0
  186.6110  178.2120  138.1760 C   0  0  2  0  0  3  0  0  0  0  0  0
  185.6470  178.4740  139.2700 C   0  0  0  0  0  2  0  0  0  0  0  0
  187.6110  178.2400  140.8150 C   0  0  0  0  0  2  0  0  0  0  0  0
  188.3400  178.3830  139.5320 C   0  0  1  0  0  3  0  0  0  0  0  0
  189.7800  177.9750  139.5740 C   0  0  0  0  0  1  0  0  0  0  0  0
  1  5  1  0  0  0  0
  2  3  2  0  0  0  0
  2  6  1  0  0  0  0
  3  4  1  0  0  0  0
  4  5  2  0  0  0  0
  5  9  1  0  0  0  0
  6  1  2  0  0  0  0
  7  8  1  0  0  0  0
  9 15  1  0  0  0  0
  9  7  2  0  0  0  0
 10  8  2  0  0  0  0
 10 11  1  0  0  0  0
 12 11  2  0  0  0  0
 13 12  1  0  0  0  0
 14 13  2  0  0  0  0
 15 14  1  1  0  0  0
 15 10  1  0  0  0  0
 16 13  1  0  0  0  0
 17 16  1  0  0  0  0
 18 17  1  0  0  0  0
 19 20  1  0  0  0  0
 19 17  1  0  0  0  0
 20 17  1  0  0  0  0
 22 26  1  0  0  0  0
 22  3  1  0  0  0  0
 23 27  1  0  0  0  0
 24 21  1  6  0  0  0
 24 23  1  0  0  0  0
 24 25  1  0  0  0  0
 25 22  1  0  0  0  0
 27 28  1  1  0  0  0
 27 26  1  0  0  0  0
M  END
>  <MODEL>
1

>  <REMARK>
 VINA RESULT:      -9.8      0.000      0.000
  Name = 8tzc
  4 active torsions:
  status: ('A' for Active; 'I' for Inactive)
    1  A    between atoms: N_2  and  C_14
    2  A    between atoms: O_6  and  C_22
    3  A    between atoms: O_6  and  C_23
    4  A    between atoms: C_16  and  C_18
                            x       y       z     vdW  Elec       q    Type
                         _______ _______ _______ _____ _____    ______ ____

>  <TORSDO>
F 4

$$$$
8tzc
 OpenBabel10232413103D

 28 32  0  0  1  0  0  0  0  0999 V2000
  191.8420  177.2660  142.1920 N   0  0  0  0  0  0  0  0  0  0  0  0
  190.5500  177.5900  140.3720 N   0  0  0  0  0  0  0  0  0  0  0  0
  189.5450  177.7040  141.0730 C   0  0  0  0  0  0  0  0  0  0  0  0
  189.5430  177.6220  142.3650 C   0  0  0  0  0  3  0  0  0  0  0  0
  190.7250  177.3910  142.9630 C   0  0  0  0  0  0  0  0  0  0  0  0
  191.6790  177.3770  140.8830 C   0  0  0  0  0  3  0  0  0  0  0  0
  191.7700  177.2250  144.9200 N   0  0  0  0  0  0  0  0  0  0  0  0
  191.4770  177.1510  146.1830 N   0  0  0  0  0  0  0  0  0  0  0  0
  190.7390  177.2940  144.4450 C   0  0  0  0  0  0  0  0  0  0  0  0
  190.0950  177.1850  146.3960 C   0  0  0  0  0  0  0  0  0  0  0  0
  189.3040  177.1440  147.4550 C   0  0  0  0  0  3  0  0  0  0  0  0
  188.0200  177.2020  147.2460 C   0  0  0  0  0  3  0  0  0  0  0  0
  187.5160  177.3020  146.0180 C   0  0  0  0  0  0  0  0  0  0  0  0
  188.3430  177.3480  144.9770 C   0  0  0  0  0  3  0  0  0  0  0  0
  189.6210  177.2880  145.1270 C   0  0  1  0  0  3  0  0  0  0  0  0
  186.1220  177.3650  145.9020 O   0  0  0  0  0  0  0  0  0  0  0  0
  185.4650  178.5360  146.0630 C   0  0  0  0  0  0  0  0  0  0  0  0
  185.9840  179.5040  147.0940 C   0  0  0  0  0  1  0  0  0  0  0  0
  184.0900  178.7660  145.5050 C   0  0  0  0  0  2  0  0  0  0  0  0
  185.2940  179.0160  144.6600 C   0  0  0  0  0  2  0  0  0  0  0  0
  187.3980  178.4950  136.9770 C   0  0  0  0  0  1  0  0  0  0  0  0
  188.3260  177.9420  140.4150 N   0  0  0  0  0  0  0  0  0  0  0  0
  186.3360  178.8320  138.9760 O   0  0  0  0  0  0  0  0  0  0  0  0
  187.0730  177.9460  138.3180 C   0  0  2  0  0  3  0  0  0  0  0  0
  188.3140  177.5760  139.0380 C   0  0  0  0  0  2  0  0  0  0  0  0
  187.1930  178.5090  141.0810 C   0  0  0  0  0  2  0  0  0  0  0  0
  186.0100  178.4060  140.1930 C   0  0  1  0  0  3  0  0  0  0  0  0
  184.8110  179.1830  140.6450 C   0  0  0  0  0  1  0  0  0  0  0  0
  1  5  1  0  0  0  0
  2  6  1  0  0  0  0
  2  3  2  0  0  0  0
  3  4  1  0  0  0  0
  4  5  2  0  0  0  0
  5  9  1  0  0  0  0
  6  1  2  0  0  0  0
  7  8  1  0  0  0  0
  8 10  2  0  0  0  0
  9  7  2  0  0  0  0
  9 15  1  0  0  0  0
 10 11  1  0  0  0  0
 12 11  2  0  0  0  0
 13 12  1  0  0  0  0
 14 13  2  0  0  0  0
 15 14  1  1  0  0  0
 15 10  1  0  0  0  0
 16 13  1  0  0  0  0
 16 17  1  0  0  0  0
 17 18  1  0  0  0  0
 19 17  1  0  0  0  0
 20 19  1  0  0  0  0
 20 17  1  0  0  0  0
 22  3  1  0  0  0  0
 22 26  1  0  0  0  0
 23 27  1  0  0  0  0
 24 21  1  6  0  0  0
 24 23  1  0  0  0  0
 24 25  1  0  0  0  0
 25 22  1  0  0  0  0
 27 28  1  1  0  0  0
 27 26  1  0  0  0  0
M  END
>  <MODEL>
2

>  <REMARK>
 VINA RESULT:      -9.4      2.680      4.829
  Name = 8tzc
  4 active torsions:
  status: ('A' for Active; 'I' for Inactive)
    1  A    between atoms: N_2  and  C_14
    2  A    between atoms: O_6  and  C_22
    3  A    between atoms: O_6  and  C_23
    4  A    between atoms: C_16  and  C_18
                            x       y       z     vdW  Elec       q    Type
                         _______ _______ _______ _____ _____    ______ ____

>  <TORSDO>
F 4

$$$$
8tzc
 OpenBabel10232413103D

 28 32  0  0  1  0  0  0  0  0999 V2000
  184.4300  179.1020  141.8830 N   0  0  0  0  0  0  0  0  0  0  0  0
  185.7630  178.7720  140.0940 N   0  0  0  0  0  0  0  0  0  0  0  0
  186.7060  178.4580  140.8200 C   0  0  0  0  0  0  0  0  0  0  0  0
  186.6500  178.4220  142.1130 C   0  0  0  0  0  3  0  0  0  0  0  0
  185.4780  178.7560  142.6830 C   0  0  0  0  0  0  0  0  0  0  0  0
  184.6460  179.0900  140.5770 C   0  0  0  0  0  3  0  0  0  0  0  0
  184.4200  179.0900  144.6110 N   0  0  0  0  0  0  0  0  0  0  0  0
  184.6360  178.9470  145.8830 N   0  0  0  0  0  0  0  0  0  0  0  0
  185.3990  178.7180  144.1650 C   0  0  0  0  0  0  0  0  0  0  0  0
  185.9110  178.4280  146.1370 C   0  0  0  0  0  0  0  0  0  0  0  0
  186.5980  178.1040  147.2190 C   0  0  0  0  0  3  0  0  0  0  0  0
  187.8000  177.6330  147.0460 C   0  0  0  0  0  3  0  0  0  0  0  0
  188.3220  177.4790  145.8320 C   0  0  0  0  0  0  0  0  0  0  0  0
  187.5990  177.8090  144.7660 C   0  0  0  0  0  3  0  0  0  0  0  0
  186.4070  178.2840  144.8800 C   0  0  1  0  0  3  0  0  0  0  0  0
  189.6210  176.9590  145.7560 O   0  0  0  0  0  0  0  0  0  0  0  0
  190.4070  177.2160  144.6860 C   0  0  0  0  0  0  0  0  0  0  0  0
  190.5910  178.6510  144.2670 C   0  0  0  0  0  1  0  0  0  0  0  0
  190.8300  176.1390  143.7280 C   0  0  0  0  0  2  0  0  0  0  0  0
  191.6240  176.3960  144.9640 C   0  0  0  0  0  2  0  0  0  0  0  0
  188.7600  176.5080  137.0800 C   0  0  0  0  0  1  0  0  0  0  0  0
  187.9150  178.1180  140.1920 N   0  0  0  0  0  0  0  0  0  0  0  0
  189.9300  176.9680  138.9910 O   0  0  0  0  0  0  0  0  0  0  0  0
  189.0770  177.5080  138.1310 C   0  0  2  0  0  3  0  0  0  0  0  0
  187.8340  177.9920  138.7750 C   0  0  0  0  0  2  0  0  0  0  0  0
  189.1280  177.9130  140.9240 C   0  0  0  0  0  2  0  0  0  0  0  0
  190.2570  177.8100  139.9680 C   0  0  1  0  0  3  0  0  0  0  0  0
  191.5490  177.3410  140.5640 C   0  0  0  0  0  1  0  0  0  0  0  0
  1  5  1  0  0  0  0
  2  6  1  0  0  0  0
  2  3  2  0  0  0  0
  3  4  1  0  0  0  0
  4  5  2  0  0  0  0
  5  9  1  0  0  0  0
  6  1  2  0  0  0  0
  7  8  1  0  0  0  0
  8 10  2  0  0  0  0
  9  7  2  0  0  0  0
  9 15  1  0  0  0  0
 10 11  1  0  0  0  0
 12 11  2  0  0  0  0
 13 12  1  0  0  0  0
 14 13  2  0  0  0  0
 15 14  1  6  0  0  0
 15 10  1  0  0  0  0
 16 13  1  0  0  0  0
 17 20  1  0  0  0  0
 17 16  1  0  0  0  0
 18 17  1  0  0  0  0
 19 17  1  0  0  0  0
 19 20  1  0  0  0  0
 22  3  1  0  0  0  0
 22 26  1  0  0  0  0
 23 27  1  0  0  0  0
 24 21  1  6  0  0  0
 24 25  1  0  0  0  0
 24 23  1  0  0  0  0
 25 22  1  0  0  0  0
 27 28  1  1  0  0  0
 27 26  1  0  0  0  0
M  END
>  <MODEL>
3

>  <REMARK>
 VINA RESULT:      -9.3      1.216      1.595
  Name = 8tzc
  4 active torsions:
  status: ('A' for Active; 'I' for Inactive)
    1  A    between atoms: N_2  and  C_14
    2  A    between atoms: O_6  and  C_22
    3  A    between atoms: O_6  and  C_23
    4  A    between atoms: C_16  and  C_18
                            x       y       z     vdW  Elec       q    Type
                         _______ _______ _______ _____ _____    ______ ____

>  <TORSDO>
F 4

$$$$
8tzc
 OpenBabel10232413103D

 28 32  0  0  1  0  0  0  0  0999 V2000
  190.8570  177.5790  141.0270 N   0  0  0  0  0  0  0  0  0  0  0  0
  191.6420  177.1830  143.1040 N   0  0  0  0  0  0  0  0  0  0  0  0
  190.5260  177.3630  143.5900 C   0  0  0  0  0  0  0  0  0  0  0  0
  189.4700  177.6610  142.9020 C   0  0  0  0  0  3  0  0  0  0  0  0
  189.6230  177.7800  141.5710 C   0  0  0  0  0  0  0  0  0  0  0  0
  191.8360  177.2800  141.8650 C   0  0  0  0  0  3  0  0  0  0  0  0
  188.6090  178.3030  139.6620 N   0  0  0  0  0  0  0  0  0  0  0  0
  187.4140  178.5740  139.2300 N   0  0  0  0  0  0  0  0  0  0  0  0
  188.4200  178.1210  140.7680 C   0  0  0  0  0  0  0  0  0  0  0  0
  186.4690  178.5290  140.2600 C   0  0  1  0  0  3  0  0  0  0  0  0
  185.1630  178.7180  140.3500 C   0  0  0  0  0  3  0  0  0  0  0  0
  184.6180  178.5810  141.5250 C   0  0  0  0  0  3  0  0  0  0  0  0
  185.3390  178.2630  142.5970 C   0  0  0  0  0  0  0  0  0  0  0  0
  186.6490  178.0740  142.4680 C   0  0  0  0  0  3  0  0  0  0  0  0
  187.2400  178.2010  141.3300 C   0  0  0  0  0  0  0  0  0  0  0  0
  184.6550  178.1350  143.8130 O   0  0  0  0  0  0  0  0  0  0  0  0
  184.7880  179.0670  144.7830 C   0  0  0  0  0  0  0  0  0  0  0  0
  184.4830  180.5010  144.4370 C   0  0  0  0  0  1  0  0  0  0  0  0
  185.5190  178.7890  146.0650 C   0  0  0  0  0  2  0  0  0  0  0  0
  184.0730  178.4480  145.9390 C   0  0  0  0  0  2  0  0  0  0  0  0
  192.3390  175.5730  147.5290 C   0  0  0  0  0  1  0  0  0  0  0  0
  190.4020  177.2330  144.9830 N   0  0  0  0  0  0  0  0  0  0  0  0
  190.2220  176.4350  147.4640 O   0  0  0  0  0  0  0  0  0  0  0  0
  191.4730  176.7050  147.1160 C   0  0  2  0  0  3  0  0  0  0  0  0
  191.6250  176.9700  145.6650 C   0  0  0  0  0  2  0  0  0  0  0  0
  189.1450  177.3540  145.6570 C   0  0  0  0  0  2  0  0  0  0  0  0
  189.3840  177.4090  147.1190 C   0  0  1  0  0  3  0  0  0  0  0  0
  188.1550  177.2790  147.9660 C   0  0  0  0  0  1  0  0  0  0  0  0
  1  5  2  0  0  0  0
  1  6  1  0  0  0  0
  2  3  1  0  0  0  0
  3 22  1  0  0  0  0
  4  3  2  0  0  0  0
  5  4  1  0  0  0  0
  6  2  2  0  0  0  0
  7  9  1  0  0  0  0
  8  7  2  0  0  0  0
  8 10  1  0  0  0  0
  9 15  2  0  0  0  0
  9  5  1  0  0  0  0
 10 11  1  6  0  0  0
 10 15  1  0  0  0  0
 11 12  2  0  0  0  0
 12 13  1  0  0  0  0
 13 16  1  0  0  0  0
 14 13  2  0  0  0  0
 15 14  1  0  0  0  0
 16 17  1  0  0  0  0
 17 20  1  0  0  0  0
 17 19  1  0  0  0  0
 18 17  1  0  0  0  0
 20 19  1  0  0  0  0
 22 26  1  0  0  0  0
 22 25  1  0  0  0  0
 24 23  1  0  0  0  0
 24 21  1  6  0  0  0
 25 24  1  0  0  0  0
 26 27  1  0  0  0  0
 27 23  1  0  0  0  0
 27 28  1  1  0  0  0
M  END
>  <MODEL>
4

>  <REMARK>
 VINA RESULT:      -9.2      2.736      7.201
  Name = 8tzc
  4 active torsions:
  status: ('A' for Active; 'I' for Inactive)
    1  A    between atoms: N_2  and  C_14
    2  A    between atoms: O_6  and  C_22
    3  A    between atoms: O_6  and  C_23
    4  A    between atoms: C_16  and  C_18
                            x       y       z     vdW  Elec       q    Type
                         _______ _______ _______ _____ _____    ______ ____

>  <TORSDO>
F 4

$$$$
8tzc
 OpenBabel10232413103D

 28 32  0  0  1  0  0  0  0  0999 V2000
  184.8620  179.1600  140.9820 N   0  0  0  0  0  0  0  0  0  0  0  0
  186.6800  178.5700  139.7860 N   0  0  0  0  0  0  0  0  0  0  0  0
  187.2900  178.2680  140.8110 C   0  0  0  0  0  0  0  0  0  0  0  0
  186.8000  178.3620  142.0060 C   0  0  0  0  0  3  0  0  0  0  0  0
  185.5430  178.8270  142.1150 C   0  0  0  0  0  0  0  0  0  0  0  0
  185.5010  179.0060  139.8340 C   0  0  0  0  0  3  0  0  0  0  0  0
  183.9540  179.4530  143.5400 N   0  0  0  0  0  0  0  0  0  0  0  0
  183.7100  179.4110  144.8150 N   0  0  0  0  0  0  0  0  0  0  0  0
  184.9670  178.9410  143.4800 C   0  0  0  0  0  0  0  0  0  0  0  0
  184.7470  178.7890  145.5200 C   0  0  0  0  0  0  0  0  0  0  0  0
  184.9830  178.5020  146.7890 C   0  0  0  0  0  3  0  0  0  0  0  0
  186.1010  177.8940  147.0660 C   0  0  0  0  0  3  0  0  0  0  0  0
  186.9750  177.5700  146.1160 C   0  0  0  0  0  0  0  0  0  0  0  0
  186.7010  177.8700  144.8500 C   0  0  0  0  0  3  0  0  0  0  0  0
  185.6120  178.4750  144.5200 C   0  0  1  0  0  3  0  0  0  0  0  0
  188.1440  176.9130  146.5200 O   0  0  0  0  0  0  0  0  0  0  0  0
  189.2190  177.6130  146.9490 C   0  0  0  0  0  0  0  0  0  0  0  0
  189.0890  178.4000  148.2280 C   0  0  0  0  0  1  0  0  0  0  0  0
  190.3970  177.8950  146.0620 C   0  0  0  0  0  2  0  0  0  0  0  0
  190.3290  176.6210  146.8360 C   0  0  0  0  0  2  0  0  0  0  0  0
  191.5440  177.8420  142.7430 C   0  0  0  0  0  1  0  0  0  0  0  0
  188.6020  177.7890  140.6620 N   0  0  0  0  0  0  0  0  0  0  0  0
  191.1860  177.4320  140.5210 O   0  0  0  0  0  0  0  0  0  0  0  0
  190.7080  177.1550  141.7270 C   0  0  2  0  0  3  0  0  0  0  0  0
  189.2850  177.5350  141.8860 C   0  0  0  0  0  2  0  0  0  0  0  0
  189.2000  177.5790  139.3780 C   0  0  0  0  0  2  0  0  0  0  0  0
  190.4800  176.8500  139.5550 C   0  0  1  0  0  3  0  0  0  0  0  0
  191.3430  176.7820  138.3330 C   0  0  0  0  0  1  0  0  0  0  0  0
  1  5  1  0  0  0  0
  2  6  1  0  0  0  0
  2  3  2  0  0  0  0
  3  4  1  0  0  0  0
  4  5  2  0  0  0  0
  5  9  1  0  0  0  0
  6  1  2  0  0  0  0
  7  8  1  0  0  0  0
  8 10  2  0  0  0  0
  9  7  2  0  0  0  0
  9 15  1  0  0  0  0
 10 11  1  0  0  0  0
 11 12  2  0  0  0  0
 13 16  1  0  0  0  0
 13 12  1  0  0  0  0
 14 13  2  0  0  0  0
 15 14  1  6  0  0  0
 15 10  1  0  0  0  0
 16 17  1  0  0  0  0
 17 18  1  0  0  0  0
 19 20  1  0  0  0  0
 19 17  1  0  0  0  0
 20 17  1  0  0  0  0
 22  3  1  0  0  0  0
 22 25  1  0  0  0  0
 23 24  1  0  0  0  0
 24 25  1  0  0  0  0
 24 21  1  1  0  0  0
 26 27  1  0  0  0  0
 26 22  1  0  0  0  0
 27 28  1  6  0  0  0
 27 23  1  0  0  0  0
M  END
>  <MODEL>
5

>  <REMARK>
 VINA RESULT:      -9.1      1.646      3.248
  Name = 8tzc
  4 active torsions:
  status: ('A' for Active; 'I' for Inactive)
    1  A    between atoms: N_2  and  C_14
    2  A    between atoms: O_6  and  C_22
    3  A    between atoms: O_6  and  C_23
    4  A    between atoms: C_16  and  C_18
                            x       y       z     vdW  Elec       q    Type
                         _______ _______ _______ _____ _____    ______ ____

>  <TORSDO>
F 4

$$$$
8tzc
 OpenBabel10232413103D

 28 32  0  0  1  0  0  0  0  0999 V2000
  185.3430  178.6490  146.5210 N   0  0  0  0  0  0  0  0  0  0  0  0
  187.4000  178.1700  147.3110 N   0  0  0  0  0  0  0  0  0  0  0  0
  187.8120  177.9380  146.1750 C   0  0  0  0  0  0  0  0  0  0  0  0
  187.0880  178.0250  145.1040 C   0  0  0  0  0  3  0  0  0  0  0  0
  185.8030  178.3890  145.2650 C   0  0  0  0  0  0  0  0  0  0  0  0
  186.2080  178.5160  147.5140 C   0  0  0  0  0  3  0  0  0  0  0  0
  183.8380  178.4850  144.2280 N   0  0  0  0  0  0  0  0  0  0  0  0
  183.3730  178.5830  143.0190 N   0  0  0  0  0  0  0  0  0  0  0  0
  184.9610  178.4930  144.0460 C   0  0  0  0  0  0  0  0  0  0  0  0
  184.4010  178.6510  142.0730 C   0  0  1  0  0  3  0  0  0  0  0  0
  184.4640  178.7550  140.7560 C   0  0  0  0  0  3  0  0  0  0  0  0
  185.6480  178.7900  140.2140 C   0  0  0  0  0  3  0  0  0  0  0  0
  186.7550  178.7250  140.9500 C   0  0  0  0  0  0  0  0  0  0  0  0
  186.6530  178.6270  142.2720 C   0  0  0  0  0  3  0  0  0  0  0  0
  185.5070  178.5830  142.8590 C   0  0  0  0  0  0  0  0  0  0  0  0
  187.9780  178.7760  140.2700 O   0  0  0  0  0  0  0  0  0  0  0  0
  188.4480  177.6950  139.6070 C   0  0  0  0  0  0  0  0  0  0  0  0
  187.7570  177.2880  138.3320 C   0  0  0  0  0  1  0  0  0  0  0  0
  189.3960  176.7170  140.2420 C   0  0  0  0  0  2  0  0  0  0  0  0
  189.9200  177.9420  139.5700 C   0  0  0  0  0  2  0  0  0  0  0  0
  191.3900  177.1580  143.2420 C   0  0  0  0  0  1  0  0  0  0  0  0
  189.1580  177.5570  146.0440 N   0  0  0  0  0  0  0  0  0  0  0  0
  191.4530  176.4740  145.4240 O   0  0  0  0  0  0  0  0  0  0  0  0
  191.1750  177.5250  144.6640 C   0  0  2  0  0  3  0  0  0  0  0  0
  189.7980  178.0350  144.8630 C   0  0  0  0  0  2  0  0  0  0  0  0
  189.8260  176.7500  147.0200 C   0  0  0  0  0  2  0  0  0  0  0  0
  191.2770  176.7300  146.7180 C   0  0  1  0  0  3  0  0  0  0  0  0
  192.0710  175.7250  147.4960 C   0  0  0  0  0  1  0  0  0  0  0  0
  1  6  1  0  0  0  0
  2  6  2  0  0  0  0
  3  2  1  0  0  0  0
  4  5  1  0  0  0  0
  4  3  2  0  0  0  0
  5  1  2  0  0  0  0
  8  7  2  0  0  0  0
  9  7  1  0  0  0  0
  9  5  1  0  0  0  0
 10 11  1  1  0  0  0
 10 15  1  0  0  0  0
 10  8  1  0  0  0  0
 12 11  2  0  0  0  0
 12 13  1  0  0  0  0
 13 14  2  0  0  0  0
 14 15  1  0  0  0  0
 15  9  2  0  0  0  0
 16 13  1  0  0  0  0
 17 19  1  0  0  0  0
 17 16  1  0  0  0  0
 18 17  1  0  0  0  0
 20 17  1  0  0  0  0
 20 19  1  0  0  0  0
 22  3  1  0  0  0  0
 22 26  1  0  0  0  0
 23 27  1  0  0  0  0
 24 21  1  6  0  0  0
 24 25  1  0  0  0  0
 24 23  1  0  0  0  0
 25 22  1  0  0  0  0
 27 26  1  0  0  0  0
 27 28  1  1  0  0  0
M  END
>  <MODEL>
6

>  <REMARK>
 VINA RESULT:      -9.0      1.648      5.755
  Name = 8tzc
  4 active torsions:
  status: ('A' for Active; 'I' for Inactive)
    1  A    between atoms: N_2  and  C_14
    2  A    between atoms: O_6  and  C_22
    3  A    between atoms: O_6  and  C_23
    4  A    between atoms: C_16  and  C_18
                            x       y       z     vdW  Elec       q    Type
                         _______ _______ _______ _____ _____    ______ ____

>  <TORSDO>
F 4

$$$$
8tzc
 OpenBabel10232413103D

 28 32  0  0  1  0  0  0  0  0999 V2000
  183.0730  178.8710  143.1190 N   0  0  0  0  0  0  0  0  0  0  0  0
  183.6230  178.7080  140.9380 N   0  0  0  0  0  0  0  0  0  0  0  0
  184.8080  178.5340  141.2220 C   0  0  0  0  0  0  0  0  0  0  0  0
  185.2720  178.5050  142.4310 C   0  0  0  0  0  3  0  0  0  0  0  0
  184.3870  178.6820  143.4280 C   0  0  0  0  0  0  0  0  0  0  0  0
  182.7560  178.8740  141.8340 C   0  0  0  0  0  3  0  0  0  0  0  0
  184.1940  179.0500  145.6130 N   0  0  0  0  0  0  0  0  0  0  0  0
  184.8960  178.9040  146.6960 N   0  0  0  0  0  0  0  0  0  0  0  0
  184.9040  178.6500  144.8200 C   0  0  0  0  0  0  0  0  0  0  0  0
  186.1530  178.3510  146.4280 C   0  0  0  0  0  0  0  0  0  0  0  0
  187.2060  178.0120  147.1510 C   0  0  0  0  0  3  0  0  0  0  0  0
  188.2280  177.5080  146.5200 C   0  0  0  0  0  3  0  0  0  0  0  0
  188.2190  177.3360  145.2000 C   0  0  0  0  0  0  0  0  0  0  0  0
  187.1390  177.6830  144.5060 C   0  0  0  0  0  3  0  0  0  0  0  0
  186.1030  178.1910  145.0790 C   0  0  1  0  0  3  0  0  0  0  0  0
  189.3670  176.7810  144.6200 O   0  0  0  0  0  0  0  0  0  0  0  0
  190.5700  177.3840  144.7520 C   0  0  0  0  0  0  0  0  0  0  0  0
  191.5060  176.8740  145.8160 C   0  0  0  0  0  1  0  0  0  0  0  0
  190.8730  178.7120  144.1190 C   0  0  0  0  0  2  0  0  0  0  0  0
  191.0640  177.4510  143.3440 C   0  0  0  0  0  2  0  0  0  0  0  0
  189.2560  178.8330  139.7600 C   0  0  0  0  0  1  0  0  0  0  0  0
  185.7050  178.3570  140.1560 N   0  0  0  0  0  0  0  0  0  0  0  0
  187.5230  178.5630  138.2910 O   0  0  0  0  0  0  0  0  0  0  0  0
  188.0200  178.0820  139.4230 C   0  0  2  0  0  3  0  0  0  0  0  0
  187.0580  178.1400  140.5480 C   0  0  0  0  0  2  0  0  0  0  0  0
  185.2880  178.3950  138.7870 C   0  0  0  0  0  2  0  0  0  0  0  0
  186.4070  177.9370  137.9280 C   0  0  1  0  0  3  0  0  0  0  0  0
  186.2110  178.1630  136.4600 C   0  0  0  0  0  1  0  0  0  0  0  0
  1  5  1  0  0  0  0
  2  3  2  0  0  0  0
  2  6  1  0  0  0  0
  3  4  1  0  0  0  0
  4  5  2  0  0  0  0
  5  9  1  0  0  0  0
  6  1  2  0  0  0  0
  7  8  1  0  0  0  0
  9 15  1  0  0  0  0
  9  7  2  0  0  0  0
 10  8  2  0  0  0  0
 10 11  1  0  0  0  0
 12 11  2  0  0  0  0
 13 12  1  0  0  0  0
 14 13  2  0  0  0  0
 15 14  1  1  0  0  0
 15 10  1  0  0  0  0
 16 17  1  0  0  0  0
 16 13  1  0  0  0  0
 17 18  1  0  0  0  0
 19 17  1  0  0  0  0
 20 19  1  0  0  0  0
 20 17  1  0  0  0  0
 22 25  1  0  0  0  0
 22  3  1  0  0  0  0
 23 24  1  0  0  0  0
 24 21  1  1  0  0  0
 24 25  1  0  0  0  0
 26 22  1  0  0  0  0
 27 28  1  6  0  0  0
 27 23  1  0  0  0  0
 27 26  1  0  0  0  0
M  END
>  <MODEL>
7

>  <REMARK>
 VINA RESULT:      -9.0      0.802      1.818
  Name = 8tzc
  4 active torsions:
  status: ('A' for Active; 'I' for Inactive)
    1  A    between atoms: N_2  and  C_14
    2  A    between atoms: O_6  and  C_22
    3  A    between atoms: O_6  and  C_23
    4  A    between atoms: C_16  and  C_18
                            x       y       z     vdW  Elec       q    Type
                         _______ _______ _______ _____ _____    ______ ____

>  <TORSDO>
F 4

$$$$
8tzc
 OpenBabel10232413103D

 28 32  0  0  1  0  0  0  0  0999 V2000
  187.1230  178.4130  139.5880 N   0  0  0  0  0  0  0  0  0  0  0  0
  185.1240  178.9050  140.5070 N   0  0  0  0  0  0  0  0  0  0  0  0
  185.5540  178.6730  141.6360 C   0  0  0  0  0  0  0  0  0  0  0  0
  186.7670  178.2980  141.8910 C   0  0  0  0  0  3  0  0  0  0  0  0
  187.5950  178.1540  140.8410 C   0  0  0  0  0  0  0  0  0  0  0  0
  185.8580  178.7890  139.4930 C   0  0  0  0  0  3  0  0  0  0  0  0
  189.5750  177.3590  140.2140 N   0  0  0  0  0  0  0  0  0  0  0  0
  190.7220  177.0580  140.7450 N   0  0  0  0  0  0  0  0  0  0  0  0
  188.9900  177.7250  141.1170 C   0  0  0  0  0  0  0  0  0  0  0  0
  190.7340  177.3010  142.1220 C   0  0  1  0  0  3  0  0  0  0  0  0
  191.6210  177.1710  143.0940 C   0  0  0  0  0  3  0  0  0  0  0  0
  191.2490  177.5150  144.2940 C   0  0  0  0  0  3  0  0  0  0  0  0
  190.0280  177.9810  144.5400 C   0  0  0  0  0  0  0  0  0  0  0  0
  189.1640  178.1050  143.5370 C   0  0  0  0  0  3  0  0  0  0  0  0
  189.4780  177.7750  142.3320 C   0  0  0  0  0  0  0  0  0  0  0  0
  189.7310  178.3270  145.8650 O   0  0  0  0  0  0  0  0  0  0  0  0
  189.5990  177.3760  146.8160 C   0  0  0  0  0  0  0  0  0  0  0  0
  190.8050  176.5380  147.1540 C   0  0  0  0  0  1  0  0  0  0  0  0
  188.2560  176.9130  147.3050 C   0  0  0  0  0  2  0  0  0  0  0  0
  188.9080  178.1050  147.9210 C   0  0  0  0  0  2  0  0  0  0  0  0
  184.9510  178.4630  146.2840 C   0  0  0  0  0  1  0  0  0  0  0  0
  184.6620  178.8300  142.7100 N   0  0  0  0  0  0  0  0  0  0  0  0
  183.1760  178.5970  144.8460 O   0  0  0  0  0  0  0  0  0  0  0  0
  184.3520  179.1510  145.1120 C   0  0  2  0  0  3  0  0  0  0  0  0
  185.2830  179.1140  143.9600 C   0  0  0  0  0  2  0  0  0  0  0  0
  183.2450  178.7090  142.5540 C   0  0  0  0  0  2  0  0  0  0  0  0
  182.5810  179.1630  143.8000 C   0  0  1  0  0  3  0  0  0  0  0  0
  181.1170  178.8580  143.8840 C   0  0  0  0  0  1  0  0  0  0  0  0
  1  5  1  0  0  0  0
  2  3  2  0  0  0  0
  3  4  1  0  0  0  0
  3 22  1  0  0  0  0
  5  9  1  0  0  0  0
  5  4  2  0  0  0  0
  6  1  2  0  0  0  0
  6  2  1  0  0  0  0
  7  8  2  0  0  0  0
  7  9  1  0  0  0  0
  8 10  1  0  0  0  0
  9 15  2  0  0  0  0
 10 15  1  0  0  0  0
 10 11  1  6  0  0  0
 11 12  2  0  0  0  0
 12 13  1  0  0  0  0
 13 16  1  0  0  0  0
 14 13  2  0  0  0  0
 15 14  1  0  0  0  0
 16 17  1  0  0  0  0
 17 18  1  0  0  0  0
 17 19  1  0  0  0  0
 17 20  1  0  0  0  0
 19 20  1  0  0  0  0
 22 25  1  0  0  0  0
 23 24  1  0  0  0  0
 24 21  1  1  0  0  0
 25 24  1  0  0  0  0
 26 22  1  0  0  0  0
 26 27  1  0  0  0  0
 27 28  1  6  0  0  0
 27 23  1  0  0  0  0
M  END
>  <MODEL>
8

>  <REMARK>
 VINA RESULT:      -9.0      2.208      5.453
  Name = 8tzc
  4 active torsions:
  status: ('A' for Active; 'I' for Inactive)
    1  A    between atoms: N_2  and  C_14
    2  A    between atoms: O_6  and  C_22
    3  A    between atoms: O_6  and  C_23
    4  A    between atoms: C_16  and  C_18
                            x       y       z     vdW  Elec       q    Type
                         _______ _______ _______ _____ _____    ______ ____

>  <TORSDO>
F 4

$$$$
8tzc
 OpenBabel10232413103D

 28 32  0  0  1  0  0  0  0  0999 V2000
  187.0390  178.3590  147.5290 N   0  0  0  0  0  0  0  0  0  0  0  0
  185.1350  178.7960  146.4040 N   0  0  0  0  0  0  0  0  0  0  0  0
  185.6340  178.4000  145.3510 C   0  0  0  0  0  0  0  0  0  0  0  0
  186.8440  177.9500  145.2410 C   0  0  0  0  0  3  0  0  0  0  0  0
  187.5890  177.9250  146.3600 C   0  0  0  0  0  0  0  0  0  0  0  0
  185.7890  178.7890  147.4780 C   0  0  0  0  0  3  0  0  0  0  0  0
  189.5670  177.3850  147.2220 N   0  0  0  0  0  0  0  0  0  0  0  0
  190.7090  176.9080  146.8290 N   0  0  0  0  0  0  0  0  0  0  0  0
  188.9780  177.4100  146.2500 C   0  0  0  0  0  0  0  0  0  0  0  0
  190.7160  176.6500  145.4540 C   0  0  0  0  0  0  0  0  0  0  0  0
  191.5970  176.1760  144.5890 C   0  0  0  0  0  2  0  0  0  0  0  0
  191.2210  176.0770  143.3450 C   0  0  0  0  0  3  0  0  0  0  0  0
  190.0000  176.4350  142.9540 C   0  0  0  0  0  0  0  0  0  0  0  0
  189.1390  176.9010  143.8530 C   0  0  0  0  0  3  0  0  0  0  0  0
  189.4600  177.0240  145.0950 C   0  0  0  0  0  0  0  0  0  0  0  0
  189.6950  176.2830  141.5950 O   0  0  0  0  0  0  0  0  0  0  0  0
  190.0380  177.2360  140.6980 C   0  0  0  0  0  0  0  0  0  0  0  0
  191.4830  177.3340  140.2850 C   0  0  0  0  0  1  0  0  0  0  0  0
  189.1240  178.3770  140.3550 C   0  0  0  0  0  2  0  0  0  0  0  0
  189.0030  177.0770  139.6340 C   0  0  0  0  0  2  0  0  0  0  0  0
  185.5050  178.7910  140.6770 C   0  0  0  0  0  1  0  0  0  0  0  0
  184.8290  178.4440  144.2010 N   0  0  0  0  0  0  0  0  0  0  0  0
  183.6190  179.0050  141.9540 O   0  0  0  0  0  0  0  0  0  0  0  0
  184.6760  178.2250  141.7710 C   0  0  2  0  0  3  0  0  0  0  0  0
  185.4890  178.0540  142.9990 C   0  0  0  0  0  2  0  0  0  0  0  0
  183.4570  178.8520  144.2390 C   0  0  0  0  0  2  0  0  0  0  0  0
  182.8300  178.5590  142.9280 C   0  0  1  0  0  3  0  0  0  0  0  0
  181.4720  179.1600  142.7290 C   0  0  0  0  0  1  0  0  0  0  0  0
  2  6  2  0  0  0  0
  3  2  1  0  0  0  0
  4  3  2  0  0  0  0
  4  5  1  0  0  0  0
  5  1  2  0  0  0  0
  6  1  1  0  0  0  0
  8  7  1  0  0  0  0
  9  5  1  0  0  0  0
  9  7  2  0  0  0  0
 10  8  2  0  0  0  0
 11 10  1  0  0  0  0
 12 11  1  0  0  0  0
 13 12  2  0  0  0  0
 13 14  1  0  0  0  0
 14 15  2  0  0  0  0
 15 10  1  0  0  0  0
 15  9  1  0  0  0  0
 16 13  1  0  0  0  0
 17 16  1  0  0  0  0
 18 17  1  0  0  0  0
 19 17  1  0  0  0  0
 20 19  1  0  0  0  0
 20 17  1  0  0  0  0
 22 26  1  0  0  0  0
 22  3  1  0  0  0  0
 23 27  1  0  0  0  0
 24 21  1  6  0  0  0
 24 23  1  0  0  0  0
 24 25  1  0  0  0  0
 25 22  1  0  0  0  0
 27 28  1  1  0  0  0
 27 26  1  0  0  0  0
M  END
>  <MODEL>
9

>  <REMARK>
 VINA RESULT:      -8.9      2.162      4.703
  Name = 8tzc
  4 active torsions:
  status: ('A' for Active; 'I' for Inactive)
    1  A    between atoms: N_2  and  C_14
    2  A    between atoms: O_6  and  C_22
    3  A    between atoms: O_6  and  C_23
    4  A    between atoms: C_16  and  C_18
                            x       y       z     vdW  Elec       q    Type
                         _______ _______ _______ _____ _____    ______ ____

>  <TORSDO>
F 4

$$$$
