=
 OpenBabel10272413293D

 32 35  0  0  1  0  0  0  0  0999 V2000
  186.5600  178.6970  141.3420 N   0  0  1  0  0  0  0  0  0  0  0  0
  186.2160  177.4790  146.0690 C   0  0  0  0  0  3  0  0  0  0  0  0
  185.1800  178.3050  146.1860 C   0  0  0  0  0  3  0  0  0  0  0  0
  184.3800  179.1420  140.2430 C   0  0  0  0  0  0  0  0  0  0  0  0
  182.9460  179.2080  140.3120 N   0  0  0  0  0  0  0  0  0  0  0  0
  188.7300  177.9740  140.6110 C   0  0  2  0  0  3  0  0  0  0  0  0
  188.6810  177.9210  142.1290 C   0  0  2  0  0  3  0  0  0  0  0  0
  186.8070  177.1780  144.7280 C   0  0  0  0  0  2  0  0  0  0  0  0
  187.1910  177.9300  142.4050 C   0  0  1  0  0  3  0  0  0  0  0  0
  185.3150  178.9730  143.7290 C   0  0  1  0  0  3  0  0  0  0  0  0
  184.4500  178.2700  142.6630 C   0  0  1  0  0  3  0  0  0  0  0  0
  184.6650  178.9970  145.0430 N   0  0  0  0  0  2  0  0  0  0  0  0
  186.7490  178.3900  143.7960 C   0  0  1  0  0  3  0  0  0  0  0  0
  183.0050  178.7920  142.6970 C   0  0  0  0  0  2  0  0  0  0  0  0
  187.2960  178.2470  140.1650 C   0  0  0  0  0  2  0  0  0  0  0  0
  184.9950  179.7420  139.3190 O   0  0  0  0  0  0  0  0  0  0  0  0
  185.1420  178.2990  141.2510 C   0  0  2  0  0  3  0  0  0  0  0  0
  182.2800  178.4820  141.4000 C   0  0  1  0  0  3  0  0  0  0  0  0
  180.6190  179.5940  142.7110 O   0  0  0  0  0  1  0  0  0  0  0  0
  180.8070  178.8420  141.5520 C   0  0  0  0  0  2  0  0  0  0  0  0
  181.8910  179.0690  138.1080 C   0  0  0  0  0  1  0  0  0  0  0  0
  182.1960  179.9550  139.3030 C   0  0  0  0  0  2  0  0  0  0  0  0
  189.2050  176.6420  140.0610 C   0  0  0  0  0  2  0  0  0  0  0  0
  190.3620  176.2380  140.7270 O   0  0  0  0  0  1  0  0  0  0  0  0
  189.3090  179.1200  142.6670 N   0  0  0  0  0  2  0  0  0  0  0  0
  190.5050  178.6960  143.3770 C   0  0  0  0  0  2  0  0  0  0  0  0
  190.2040  178.5470  144.8610 C   0  0  0  0  0  2  0  0  0  0  0  0
  190.4050  177.1090  145.3180 C   0  0  0  0  0  2  0  0  0  0  0  0
  190.2330  176.9990  146.8290 C   0  0  0  0  0  2  0  0  0  0  0  0
  191.3780  176.2320  147.4810 C   0  0  2  0  0  3  0  0  0  0  0  0
  192.1650  177.0860  148.2560 O   0  0  0  0  0  1  0  0  0  0  0  0
  192.2360  175.5330  146.4420 C   0  0  0  0  0  1  0  0  0  0  0  0
  1 15  1  6  0  0  0
  1  9  1  0  0  0  0
  2  3  2  0  0  0  0
  4  5  1  0  0  0  0
  4 17  1  0  0  0  0
  5 18  1  0  0  0  0
  6 23  1  6  0  0  0
  6  7  1  0  0  0  0
  7  9  1  0  0  0  0
  7 25  1  1  0  0  0
  8  2  1  0  0  0  0
  9 13  1  0  0  0  0
 10 13  1  0  0  0  0
 10 12  1  0  0  0  0
 11 14  1  0  0  0  0
 11 10  1  0  0  0  0
 12  3  1  0  0  0  0
 13  8  1  0  0  0  0
 15  6  1  0  0  0  0
 16  4  2  0  0  0  0
 17  1  1  0  0  0  0
 17 11  1  0  0  0  0
 18 20  1  0  0  0  0
 18 14  1  0  0  0  0
 20 19  1  0  0  0  0
 21 22  1  0  0  0  0
 22  5  1  0  0  0  0
 23 24  1  0  0  0  0
 25 26  1  0  0  0  0
 26 27  1  0  0  0  0
 27 28  1  0  0  0  0
 28 29  1  0  0  0  0
 29 30  1  0  0  0  0
 30 31  1  0  0  0  0
 32 30  1  0  0  0  0
M  END
>  <MODEL>
1

>  <REMARK>
 VINA RESULT:      -7.5      0.000      0.000
  Name = 
  9 active torsions:
  status: ('A' for Active; 'I' for Inactive)
    1  A    between atoms: C_1  and  C_24
    2  A    between atoms: C_2  and  C_10
    3  A    between atoms: C_2  and  C_12
    4  A    between atoms: N_7  and  C_22
    5  A    between atoms: C_8  and  C_19
    6  A    between atoms: C_9  and  N_21
    7  A    between atoms: C_10  and  C_24
    8  A    between atoms: C_12  and  N_21
    9  A    between atoms: C_30  and  C_32
                            x       y       z     vdW  Elec       q    Type
                         _______ _______ _______ _____ _____    ______ ____

>  <TORSDO>
F 9

$$$$
=
 OpenBabel10272413293D

 32 35  0  0  1  0  0  0  0  0999 V2000
  190.7230  177.2530  141.7940 N   0  0  1  0  0  0  0  0  0  0  0  0
  185.9400  178.0730  142.4250 C   0  0  0  0  0  3  0  0  0  0  0  0
  185.9110  178.6920  141.2470 C   0  0  0  0  0  3  0  0  0  0  0  0
  191.3840  176.8370  139.4390 C   0  0  0  0  0  0  0  0  0  0  0  0
  191.0210  176.6910  138.0550 N   0  0  0  0  0  0  0  0  0  0  0  0
  191.5990  176.6570  143.9490 C   0  0  2  0  0  3  0  0  0  0  0  0
  190.2050  177.2330  144.1290 C   0  0  2  0  0  3  0  0  0  0  0  0
  187.1660  177.3430  142.8760 C   0  0  0  0  0  2  0  0  0  0  0  0
  189.6230  177.1120  142.7350 C   0  0  1  0  0  3  0  0  0  0  0  0
  188.4000  178.2890  140.8690 C   0  0  1  0  0  3  0  0  0  0  0  0
  188.8970  177.0760  140.0580 C   0  0  1  0  0  3  0  0  0  0  0  0
  187.0810  178.7510  140.4250 N   0  0  0  0  0  2  0  0  0  0  0  0
  188.4460  178.0290  142.3960 C   0  0  1  0  0  3  0  0  0  0  0  0
  188.7350  177.3210  138.5500 C   0  0  0  0  0  2  0  0  0  0  0  0
  191.7780  176.4810  142.4430 C   0  0  0  0  0  2  0  0  0  0  0  0
  192.5780  177.0910  139.7540 O   0  0  0  0  0  0  0  0  0  0  0  0
  190.3330  176.6280  140.5160 C   0  0  2  0  0  3  0  0  0  0  0  0
  189.6190  176.3850  137.7450 C   0  0  1  0  0  3  0  0  0  0  0  0
  188.7440  177.7910  136.0210 O   0  0  0  0  0  1  0  0  0  0  0  0
  189.2840  176.5300  136.2650 C   0  0  0  0  0  2  0  0  0  0  0  0
  192.7150  175.4800  136.7710 C   0  0  0  0  0  1  0  0  0  0  0  0
  192.0390  176.8170  137.0130 C   0  0  0  0  0  2  0  0  0  0  0  0
  191.7000  175.3140  144.6480 C   0  0  0  0  0  2  0  0  0  0  0  0
  192.0910  175.4960  145.9740 O   0  0  0  0  0  1  0  0  0  0  0  0
  190.3150  178.6320  144.5190 N   0  0  0  0  0  2  0  0  0  0  0  0
  189.7990  178.7420  145.8740 C   0  0  0  0  0  2  0  0  0  0  0  0
  189.0410  177.4770  146.2470 C   0  0  0  0  0  2  0  0  0  0  0  0
  187.7830  177.8040  147.0380 C   0  0  0  0  0  2  0  0  0  0  0  0
  186.5480  177.6820  146.1530 C   0  0  0  0  0  2  0  0  0  0  0  0
  185.7480  178.9790  146.1040 C   0  0  2  0  0  3  0  0  0  0  0  0
  185.7850  179.6280  147.3390 O   0  0  0  0  0  1  0  0  0  0  0  0
  184.3090  178.7240  145.6920 C   0  0  0  0  0  1  0  0  0  0  0  0
  1 15  1  1  0  0  0
  1  9  1  0  0  0  0
  2  8  1  0  0  0  0
  3  2  2  0  0  0  0
  4 16  2  0  0  0  0
  4 17  1  0  0  0  0
  5  4  1  0  0  0  0
  6  7  1  0  0  0  0
  6 23  1  1  0  0  0
  7 25  1  6  0  0  0
  9  7  1  0  0  0  0
 10 13  1  0  0  0  0
 11 17  1  0  0  0  0
 11 10  1  0  0  0  0
 12 10  1  0  0  0  0
 12  3  1  0  0  0  0
 13  9  1  0  0  0  0
 13  8  1  0  0  0  0
 14 11  1  0  0  0  0
 15  6  1  0  0  0  0
 17  1  1  0  0  0  0
 18  5  1  0  0  0  0
 18 14  1  0  0  0  0
 19 20  1  0  0  0  0
 20 18  1  0  0  0  0
 21 22  1  0  0  0  0
 22  5  1  0  0  0  0
 23 24  1  0  0  0  0
 25 26  1  0  0  0  0
 26 27  1  0  0  0  0
 27 28  1  0  0  0  0
 29 28  1  0  0  0  0
 30 29  1  0  0  0  0
 30 31  1  0  0  0  0
 32 30  1  0  0  0  0
M  END
>  <MODEL>
2

>  <REMARK>
 VINA RESULT:      -6.9      2.921      6.325
  Name = 
  9 active torsions:
  status: ('A' for Active; 'I' for Inactive)
    1  A    between atoms: C_1  and  C_24
    2  A    between atoms: C_2  and  C_10
    3  A    between atoms: C_2  and  C_12
    4  A    between atoms: N_7  and  C_22
    5  A    between atoms: C_8  and  C_19
    6  A    between atoms: C_9  and  N_21
    7  A    between atoms: C_10  and  C_24
    8  A    between atoms: C_12  and  N_21
    9  A    between atoms: C_30  and  C_32
                            x       y       z     vdW  Elec       q    Type
                         _______ _______ _______ _____ _____    ______ ____

>  <TORSDO>
F 9

$$$$
=
 OpenBabel10272413293D

 32 35  0  0  1  0  0  0  0  0999 V2000
  186.6330  177.9540  141.4440 N   0  0  1  0  0  0  0  0  0  0  0  0
  191.2690  178.0140  143.0100 C   0  0  0  0  0  3  0  0  0  0  0  0
  191.6170  177.2950  141.9460 C   0  0  0  0  0  3  0  0  0  0  0  0
  186.3910  178.0160  138.9750 C   0  0  0  0  0  0  0  0  0  0  0  0
  186.9910  178.0820  137.6700 N   0  0  0  0  0  0  0  0  0  0  0  0
  185.2770  178.6080  143.3140 C   0  0  2  0  0  3  0  0  0  0  0  0
  186.6780  178.2950  143.8110 C   0  0  2  0  0  3  0  0  0  0  0  0
  189.8860  178.5710  143.1390 C   0  0  0  0  0  2  0  0  0  0  0  0
  187.4970  178.3710  142.5380 C   0  0  1  0  0  3  0  0  0  0  0  0
  189.2180  177.2350  141.0860 C   0  0  1  0  0  3  0  0  0  0  0  0
  188.7170  178.2600  140.0490 C   0  0  1  0  0  3  0  0  0  0  0  0
  190.6510  176.9590  140.9450 N   0  0  0  0  0  2  0  0  0  0  0  0
  188.8380  177.6350  142.5340 C   0  0  1  0  0  3  0  0  0  0  0  0
  189.2030  177.8970  138.6380 C   0  0  0  0  0  2  0  0  0  0  0  0
  185.3710  178.5990  141.7910 C   0  0  0  0  0  2  0  0  0  0  0  0
  185.2080  177.5990  139.1050 O   0  0  0  0  0  0  0  0  0  0  0  0
  187.1690  178.5050  140.1840 C   0  0  2  0  0  3  0  0  0  0  0  0
  188.3660  178.5860  137.5750 C   0  0  1  0  0  3  0  0  0  0  0  0
  189.6270  177.1070  136.1830 O   0  0  0  0  0  1  0  0  0  0  0  0
  189.0010  178.3520  136.2090 C   0  0  0  0  0  2  0  0  0  0  0  0
  186.2460  176.1730  136.3330 C   0  0  0  0  0  1  0  0  0  0  0  0
  186.2250  177.6830  136.4900 C   0  0  0  0  0  2  0  0  0  0  0  0
  184.8470  179.9780  143.8050 C   0  0  0  0  0  2  0  0  0  0  0  0
  183.5300  179.9290  144.2610 O   0  0  0  0  0  1  0  0  0  0  0  0
  186.6990  176.9430  144.3540 N   0  0  0  0  0  2  0  0  0  0  0  0
  186.7400  177.0620  145.8020 C   0  0  0  0  0  2  0  0  0  0  0  0
  187.9740  177.8450  146.2250 C   0  0  0  0  0  2  0  0  0  0  0  0
  189.2170  176.9680  146.1960 C   0  0  0  0  0  2  0  0  0  0  0  0
  190.0280  177.1450  147.4750 C   0  0  0  0  0  2  0  0  0  0  0  0
  191.3180  176.3330  147.4510 C   0  0  2  0  0  3  0  0  0  0  0  0
  192.2930  176.9340  148.2500 O   0  0  0  0  0  1  0  0  0  0  0  0
  191.8370  176.1640  146.0350 C   0  0  0  0  0  1  0  0  0  0  0  0
  1 15  1  1  0  0  0
  1  9  1  0  0  0  0
  2  8  1  0  0  0  0
  3  2  2  0  0  0  0
  4 16  2  0  0  0  0
  4 17  1  0  0  0  0
  5  4  1  0  0  0  0
  6 23  1  1  0  0  0
  6  7  1  0  0  0  0
  7 25  1  6  0  0  0
  9  7  1  0  0  0  0
 10 13  1  0  0  0  0
 11 17  1  0  0  0  0
 11 10  1  0  0  0  0
 12 10  1  0  0  0  0
 12  3  1  0  0  0  0
 13  9  1  0  0  0  0
 13  8  1  0  0  0  0
 14 11  1  0  0  0  0
 15  6  1  0  0  0  0
 17  1  1  0  0  0  0
 18  5  1  0  0  0  0
 18 14  1  0  0  0  0
 19 20  1  0  0  0  0
 20 18  1  0  0  0  0
 21 22  1  0  0  0  0
 22  5  1  0  0  0  0
 23 24  1  0  0  0  0
 25 26  1  0  0  0  0
 26 27  1  0  0  0  0
 28 27  1  0  0  0  0
 28 29  1  0  0  0  0
 30 29  1  0  0  0  0
 30 31  1  0  0  0  0
 32 30  1  0  0  0  0
M  END
>  <MODEL>
3

>  <REMARK>
 VINA RESULT:      -6.6      2.307      5.173
  Name = 
  9 active torsions:
  status: ('A' for Active; 'I' for Inactive)
    1  A    between atoms: C_1  and  C_24
    2  A    between atoms: C_2  and  C_10
    3  A    between atoms: C_2  and  C_12
    4  A    between atoms: N_7  and  C_22
    5  A    between atoms: C_8  and  C_19
    6  A    between atoms: C_9  and  N_21
    7  A    between atoms: C_10  and  C_24
    8  A    between atoms: C_12  and  N_21
    9  A    between atoms: C_30  and  C_32
                            x       y       z     vdW  Elec       q    Type
                         _______ _______ _______ _____ _____    ______ ____

>  <TORSDO>
F 9

$$$$
=
 OpenBabel10272413293D

 32 35  0  0  1  0  0  0  0  0999 V2000
  190.5300  176.7560  142.6880 N   0  0  1  0  0  0  0  0  0  0  0  0
  186.3100  178.9240  141.4890 C   0  0  0  0  0  3  0  0  0  0  0  0
  185.7360  178.3440  142.5400 C   0  0  0  0  0  3  0  0  0  0  0  0
  190.8930  176.5140  145.1300 C   0  0  0  0  0  0  0  0  0  0  0  0
  190.4450  176.7290  146.4790 N   0  0  0  0  0  0  0  0  0  0  0  0
  191.9430  176.9070  140.7520 C   0  0  2  0  0  3  0  0  0  0  0  0
  190.5230  177.2660  140.3500 C   0  0  2  0  0  3  0  0  0  0  0  0
  187.7890  178.8400  141.2810 C   0  0  0  0  0  2  0  0  0  0  0  0
  189.8810  177.5870  141.6850 C   0  0  1  0  0  3  0  0  0  0  0  0
  187.9100  177.1910  143.2080 C   0  0  1  0  0  3  0  0  0  0  0  0
  188.8550  177.8170  144.2520 C   0  0  1  0  0  3  0  0  0  0  0  0
  186.5070  177.5480  143.4460 N   0  0  0  0  0  2  0  0  0  0  0  0
  188.3550  177.5010  141.7570 C   0  0  1  0  0  3  0  0  0  0  0  0
  188.3280  177.5890  145.6770 C   0  0  0  0  0  2  0  0  0  0  0  0
  191.9280  176.8200  142.2770 C   0  0  0  0  0  2  0  0  0  0  0  0
  191.7700  175.6400  144.8890 O   0  0  0  0  0  0  0  0  0  0  0  0
  190.3470  177.3830  144.0110 C   0  0  2  0  0  3  0  0  0  0  0  0
  189.4310  177.7660  146.7050 C   0  0  1  0  0  3  0  0  0  0  0  0
  187.4810  178.0870  148.0500 O   0  0  0  0  0  1  0  0  0  0  0  0
  188.8250  177.7210  148.1030 C   0  0  0  0  0  2  0  0  0  0  0  0
  192.3370  176.5540  148.0210 C   0  0  0  0  0  1  0  0  0  0  0  0
  191.0180  175.9490  147.5760 C   0  0  0  0  0  2  0  0  0  0  0  0
  192.9010  177.9930  140.2990 C   0  0  0  0  0  2  0  0  0  0  0  0
  193.8300  177.4640  139.4030 O   0  0  0  0  0  1  0  0  0  0  0  0
  189.8910  176.1010  139.7450 N   0  0  0  0  0  2  0  0  0  0  0  0
  189.9620  176.2760  138.3030 C   0  0  0  0  0  2  0  0  0  0  0  0
  189.6470  177.7190  137.9370 C   0  0  0  0  0  2  0  0  0  0  0  0
  188.9060  177.7980  136.6110 C   0  0  0  0  0  2  0  0  0  0  0  0
  187.5200  178.4030  136.8070 C   0  0  0  0  0  2  0  0  0  0  0  0
  186.6600  177.5690  137.7500 C   0  0  2  0  0  3  0  0  0  0  0  0
  186.4410  176.2960  137.2210 O   0  0  0  0  0  1  0  0  0  0  0  0
  185.3330  178.2500  138.0330 C   0  0  0  0  0  1  0  0  0  0  0  0
  1 15  1  6  0  0  0
  1 17  1  0  0  0  0
  2  3  2  0  0  0  0
  3 12  1  0  0  0  0
  4  5  1  0  0  0  0
  5 18  1  0  0  0  0
  5 22  1  0  0  0  0
  6 23  1  1  0  0  0
  6 15  1  0  0  0  0
  7 25  1  1  0  0  0
  7  6  1  0  0  0  0
  7  9  1  0  0  0  0
  8  2  1  0  0  0  0
  8 13  1  0  0  0  0
  9 13  1  0  0  0  0
  9  1  1  0  0  0  0
 10 12  1  0  0  0  0
 10 11  1  0  0  0  0
 11 14  1  0  0  0  0
 13 10  1  0  0  0  0
 14 18  1  0  0  0  0
 16  4  2  0  0  0  0
 17 11  1  0  0  0  0
 17  4  1  0  0  0  0
 18 20  1  0  0  0  0
 19 20  1  0  0  0  0
 22 21  1  0  0  0  0
 24 23  1  0  0  0  0
 26 25  1  0  0  0  0
 27 26  1  0  0  0  0
 28 29  1  0  0  0  0
 28 27  1  0  0  0  0
 29 30  1  0  0  0  0
 30 32  1  0  0  0  0
 31 30  1  0  0  0  0
M  END
>  <MODEL>
4

>  <REMARK>
 VINA RESULT:      -6.6      3.015      7.659
  Name = 
  9 active torsions:
  status: ('A' for Active; 'I' for Inactive)
    1  A    between atoms: C_1  and  C_24
    2  A    between atoms: C_2  and  C_10
    3  A    between atoms: C_2  and  C_12
    4  A    between atoms: N_7  and  C_22
    5  A    between atoms: C_8  and  C_19
    6  A    between atoms: C_9  and  N_21
    7  A    between atoms: C_10  and  C_24
    8  A    between atoms: C_12  and  N_21
    9  A    between atoms: C_30  and  C_32
                            x       y       z     vdW  Elec       q    Type
                         _______ _______ _______ _____ _____    ______ ____

>  <TORSDO>
F 9

$$$$
=
 OpenBabel10272413293D

 32 35  0  0  1  0  0  0  0  0999 V2000
  186.6960  178.5860  140.3950 N   0  0  1  0  0  0  0  0  0  0  0  0
  191.1670  176.6470  140.8450 C   0  0  0  0  0  3  0  0  0  0  0  0
  191.3060  177.2880  142.0030 C   0  0  0  0  0  3  0  0  0  0  0  0
  185.4850  178.8660  142.5420 C   0  0  0  0  0  0  0  0  0  0  0  0
  185.4410  178.7130  143.9710 N   0  0  0  0  0  0  0  0  0  0  0  0
  186.0610  178.3000  138.0960 C   0  0  2  0  0  3  0  0  0  0  0  0
  187.5480  178.0180  138.2330 C   0  0  2  0  0  3  0  0  0  0  0  0
  189.8520  176.6360  140.1300 C   0  0  0  0  0  2  0  0  0  0  0  0
  187.6940  177.7700  139.7200 C   0  0  1  0  0  3  0  0  0  0  0  0
  188.9830  178.3230  141.8170 C   0  0  1  0  0  3  0  0  0  0  0  0
  187.7620  177.6670  142.4920 C   0  0  1  0  0  3  0  0  0  0  0  0
  190.2280  178.0580  142.5450 N   0  0  0  0  0  2  0  0  0  0  0  0
  189.0920  177.9500  140.3170 C   0  0  1  0  0  3  0  0  0  0  0  0
  187.7430  177.9630  143.9990 C   0  0  0  0  0  2  0  0  0  0  0  0
  185.5360  178.4260  139.5240 C   0  0  0  0  0  2  0  0  0  0  0  0
  184.7080  179.6790  141.9710 O   0  0  0  0  0  0  0  0  0  0  0  0
  186.4310  178.0040  141.7250 C   0  0  2  0  0  3  0  0  0  0  0  0
  186.3590  177.7450  144.5840 C   0  0  1  0  0  3  0  0  0  0  0  0
  187.7640  177.9070  146.5110 O   0  0  0  0  0  1  0  0  0  0  0  0
  186.4320  177.8610  146.1020 C   0  0  0  0  0  2  0  0  0  0  0  0
  183.1320  178.7890  144.7790 C   0  0  0  0  0  1  0  0  0  0  0  0
  184.4820  179.4840  144.7620 C   0  0  0  0  0  2  0  0  0  0  0  0
  185.3780  177.1470  137.3850 C   0  0  0  0  0  2  0  0  0  0  0  0
  185.5930  177.2410  136.0110 O   0  0  0  0  0  1  0  0  0  0  0  0
  188.2960  179.2030  137.8350 N   0  0  0  0  0  2  0  0  0  0  0  0
  189.3570  178.7620  136.9440 C   0  0  0  0  0  2  0  0  0  0  0  0
  188.9710  177.4470  136.2850 C   0  0  0  0  0  2  0  0  0  0  0  0
  190.2030  176.6810  135.8260 C   0  0  0  0  0  2  0  0  0  0  0  0
  191.2020  176.5390  136.9690 C   0  0  0  0  0  2  0  0  0  0  0  0
  191.7880  175.1340  137.0450 C   0  0  2  0  0  3  0  0  0  0  0  0
  190.9210  174.2740  137.7210 O   0  0  0  0  0  1  0  0  0  0  0  0
  193.1480  175.1400  137.7210 C   0  0  0  0  0  1  0  0  0  0  0  0
  1 15  1  6  0  0  0
  1 17  1  0  0  0  0
  2  3  2  0  0  0  0
  3 12  1  0  0  0  0
  4  5  1  0  0  0  0
  5 18  1  0  0  0  0
  5 22  1  0  0  0  0
  6 23  1  1  0  0  0
  6  7  1  0  0  0  0
  6 15  1  0  0  0  0
  7 25  1  1  0  0  0
  7  9  1  0  0  0  0
  8 13  1  0  0  0  0
  8  2  1  0  0  0  0
  9 13  1  0  0  0  0
  9  1  1  0  0  0  0
 10 11  1  0  0  0  0
 10 12  1  0  0  0  0
 11 14  1  0  0  0  0
 13 10  1  0  0  0  0
 14 18  1  0  0  0  0
 16  4  2  0  0  0  0
 17 11  1  0  0  0  0
 17  4  1  0  0  0  0
 18 20  1  0  0  0  0
 20 19  1  0  0  0  0
 22 21  1  0  0  0  0
 24 23  1  0  0  0  0
 26 25  1  0  0  0  0
 27 26  1  0  0  0  0
 28 27  1  0  0  0  0
 28 29  1  0  0  0  0
 29 30  1  0  0  0  0
 30 31  1  0  0  0  0
 30 32  1  0  0  0  0
M  END
>  <MODEL>
5

>  <REMARK>
 VINA RESULT:      -6.3      2.751      6.286
  Name = 
  9 active torsions:
  status: ('A' for Active; 'I' for Inactive)
    1  A    between atoms: C_1  and  C_24
    2  A    between atoms: C_2  and  C_10
    3  A    between atoms: C_2  and  C_12
    4  A    between atoms: N_7  and  C_22
    5  A    between atoms: C_8  and  C_19
    6  A    between atoms: C_9  and  N_21
    7  A    between atoms: C_10  and  C_24
    8  A    between atoms: C_12  and  N_21
    9  A    between atoms: C_30  and  C_32
                            x       y       z     vdW  Elec       q    Type
                         _______ _______ _______ _____ _____    ______ ____

>  <TORSDO>
F 9

$$$$
=
 OpenBabel10272413293D

 32 35  0  0  1  0  0  0  0  0999 V2000
  188.4050  177.9870  141.5560 N   0  0  1  0  0  0  0  0  0  0  0  0
  191.6400  175.7760  144.4870 C   0  0  0  0  0  3  0  0  0  0  0  0
  191.2670  176.5850  145.4760 C   0  0  0  0  0  3  0  0  0  0  0  0
  186.3290  178.7200  142.6990 C   0  0  0  0  0  0  0  0  0  0  0  0
  185.5350  178.8090  143.8940 N   0  0  0  0  0  0  0  0  0  0  0  0
  189.0000  177.3810  139.3100 C   0  0  2  0  0  3  0  0  0  0  0  0
  190.1410  177.0000  140.2380 C   0  0  2  0  0  3  0  0  0  0  0  0
  190.8950  175.7590  143.1900 C   0  0  0  0  0  2  0  0  0  0  0  0
  189.4630  176.9890  141.5940 C   0  0  1  0  0  3  0  0  0  0  0  0
  189.5660  177.7690  143.9910 C   0  0  1  0  0  3  0  0  0  0  0  0
  188.0850  177.3400  143.9760 C   0  0  1  0  0  3  0  0  0  0  0  0
  190.2020  177.5230  145.2890 N   0  0  0  0  0  2  0  0  0  0  0  0
  190.3660  177.1460  142.8190 C   0  0  1  0  0  3  0  0  0  0  0  0
  187.3450  177.8800  145.2090 C   0  0  0  0  0  2  0  0  0  0  0  0
  187.8460  177.7850  140.2230 C   0  0  0  0  0  2  0  0  0  0  0  0
  186.0940  179.4900  141.7280 O   0  0  0  0  0  0  0  0  0  0  0  0
  187.4080  177.6570  142.5930 C   0  0  2  0  0  3  0  0  0  0  0  0
  185.8430  177.8810  144.9900 C   0  0  1  0  0  3  0  0  0  0  0  0
  185.8230  179.2840  146.9250 O   0  0  0  0  0  1  0  0  0  0  0  0
  185.1460  178.2400  146.2970 C   0  0  0  0  0  2  0  0  0  0  0  0
  183.1350  179.1400  143.5510 C   0  0  0  0  0  1  0  0  0  0  0  0
  184.4440  179.7790  143.9800 C   0  0  0  0  0  2  0  0  0  0  0  0
  188.6040  176.1890  138.4590 C   0  0  0  0  0  2  0  0  0  0  0  0
  188.6570  176.5300  137.1080 O   0  0  0  0  0  1  0  0  0  0  0  0
  191.1640  178.0350  140.1850 N   0  0  0  0  0  2  0  0  0  0  0  0
  192.4140  177.3850  139.8250 C   0  0  0  0  0  2  0  0  0  0  0  0
  192.2040  176.4880  138.6140 C   0  0  0  0  0  2  0  0  0  0  0  0
  193.4030  176.5400  137.6790 C   0  0  0  0  0  2  0  0  0  0  0  0
  193.4750  175.2760  136.8300 C   0  0  0  0  0  2  0  0  0  0  0  0
  194.8980  174.7370  136.7240 C   0  0  2  0  0  3  0  0  0  0  0  0
  195.5500  174.8250  137.9550 O   0  0  0  0  0  1  0  0  0  0  0  0
  195.6900  175.4770  135.6610 C   0  0  0  0  0  1  0  0  0  0  0  0
  1 15  1  6  0  0  0
  1  9  1  0  0  0  0
  1 17  1  0  0  0  0
  2  3  2  0  0  0  0
  4  5  1  0  0  0  0
  5 22  1  0  0  0  0
  5 18  1  0  0  0  0
  6 23  1  1  0  0  0
  6 15  1  0  0  0  0
  6  7  1  0  0  0  0
  7 25  1  1  0  0  0
  7  9  1  0  0  0  0
  8  2  1  0  0  0  0
  9 13  1  0  0  0  0
 10 12  1  0  0  0  0
 11 10  1  0  0  0  0
 11 14  1  0  0  0  0
 12  3  1  0  0  0  0
 13  8  1  0  0  0  0
 13 10  1  0  0  0  0
 16  4  2  0  0  0  0
 17  4  1  0  0  0  0
 17 11  1  0  0  0  0
 18 14  1  0  0  0  0
 18 20  1  0  0  0  0
 20 19  1  0  0  0  0
 21 22  1  0  0  0  0
 24 23  1  0  0  0  0
 26 25  1  0  0  0  0
 27 26  1  0  0  0  0
 28 27  1  0  0  0  0
 29 28  1  0  0  0  0
 30 29  1  0  0  0  0
 30 31  1  0  0  0  0
 32 30  1  0  0  0  0
M  END
>  <MODEL>
6

>  <REMARK>
 VINA RESULT:      -6.3      3.304      5.859
  Name = 
  9 active torsions:
  status: ('A' for Active; 'I' for Inactive)
    1  A    between atoms: C_1  and  C_24
    2  A    between atoms: C_2  and  C_10
    3  A    between atoms: C_2  and  C_12
    4  A    between atoms: N_7  and  C_22
    5  A    between atoms: C_8  and  C_19
    6  A    between atoms: C_9  and  N_21
    7  A    between atoms: C_10  and  C_24
    8  A    between atoms: C_12  and  N_21
    9  A    between atoms: C_30  and  C_32
                            x       y       z     vdW  Elec       q    Type
                         _______ _______ _______ _____ _____    ______ ____

>  <TORSDO>
F 9

$$$$
=
 OpenBabel10272413293D

 32 35  0  0  1  0  0  0  0  0999 V2000
  186.7300  177.8030  140.4390 N   0  0  1  0  0  0  0  0  0  0  0  0
  182.4080  179.7250  139.1840 C   0  0  0  0  0  3  0  0  0  0  0  0
  181.8700  179.1720  140.2670 C   0  0  0  0  0  3  0  0  0  0  0  0
  187.1260  177.6960  142.8850 C   0  0  0  0  0  0  0  0  0  0  0  0
  186.6810  177.9570  144.2270 N   0  0  0  0  0  0  0  0  0  0  0  0
  188.1190  177.9220  138.4830 C   0  0  2  0  0  3  0  0  0  0  0  0
  186.6800  178.1990  138.0790 C   0  0  2  0  0  3  0  0  0  0  0  0
  183.8880  179.6960  138.9640 C   0  0  0  0  0  2  0  0  0  0  0  0
  186.0370  178.5560  139.4040 C   0  0  1  0  0  3  0  0  0  0  0  0
  184.0990  178.1490  140.9660 C   0  0  1  0  0  3  0  0  0  0  0  0
  185.0250  178.8660  141.9690 C   0  0  1  0  0  3  0  0  0  0  0  0
  182.6840  178.4550  141.2020 N   0  0  0  0  0  2  0  0  0  0  0  0
  184.5170  178.4070  139.4970 C   0  0  1  0  0  3  0  0  0  0  0  0
  184.5210  178.6840  143.4090 C   0  0  0  0  0  2  0  0  0  0  0  0
  188.1210  177.9090  140.0090 C   0  0  0  0  0  2  0  0  0  0  0  0
  188.0390  176.8510  142.6770 O   0  0  0  0  0  0  0  0  0  0  0  0
  186.5320  178.4860  141.7310 C   0  0  2  0  0  3  0  0  0  0  0  0
  185.6240  178.9580  144.4150 C   0  0  1  0  0  3  0  0  0  0  0  0
  183.6460  179.0810  145.7510 O   0  0  0  0  0  1  0  0  0  0  0  0
  185.0330  178.9550  145.8200 C   0  0  0  0  0  2  0  0  0  0  0  0
  188.6000  177.9310  145.7450 C   0  0  0  0  0  1  0  0  0  0  0  0
  187.2980  177.2560  145.3540 C   0  0  0  0  0  2  0  0  0  0  0  0
  189.0230  179.0260  137.9670 C   0  0  0  0  0  2  0  0  0  0  0  0
  188.3340  179.8130  137.0450 O   0  0  0  0  0  1  0  0  0  0  0  0
  186.0950  176.9800  137.5380 N   0  0  0  0  0  2  0  0  0  0  0  0
  185.6710  177.2750  136.1790 C   0  0  0  0  0  2  0  0  0  0  0  0
  184.3770  176.5400  135.8660 C   0  0  0  0  0  2  0  0  0  0  0  0
  183.1680  177.4340  136.1020 C   0  0  0  0  0  2  0  0  0  0  0  0
  182.0550  176.6570  136.7970 C   0  0  0  0  0  2  0  0  0  0  0  0
  182.5880  175.4410  137.5460 C   0  0  2  0  0  3  0  0  0  0  0  0
  182.0240  174.2660  137.0430 O   0  0  0  0  0  1  0  0  0  0  0  0
  182.3210  175.5500  139.0360 C   0  0  0  0  0  1  0  0  0  0  0  0
  1 15  1  6  0  0  0
  1 17  1  0  0  0  0
  2  3  2  0  0  0  0
  3 12  1  0  0  0  0
  4  5  1  0  0  0  0
  5 18  1  0  0  0  0
  5 22  1  0  0  0  0
  6 23  1  1  0  0  0
  6 15  1  0  0  0  0
  7 25  1  1  0  0  0
  7  6  1  0  0  0  0
  7  9  1  0  0  0  0
  8  2  1  0  0  0  0
  8 13  1  0  0  0  0
  9 13  1  0  0  0  0
  9  1  1  0  0  0  0
 10 12  1  0  0  0  0
 10 11  1  0  0  0  0
 11 14  1  0  0  0  0
 13 10  1  0  0  0  0
 14 18  1  0  0  0  0
 16  4  2  0  0  0  0
 17 11  1  0  0  0  0
 17  4  1  0  0  0  0
 18 20  1  0  0  0  0
 19 20  1  0  0  0  0
 22 21  1  0  0  0  0
 24 23  1  0  0  0  0
 26 25  1  0  0  0  0
 27 28  1  0  0  0  0
 27 26  1  0  0  0  0
 28 29  1  0  0  0  0
 29 30  1  0  0  0  0
 30 32  1  0  0  0  0
 31 30  1  0  0  0  0
M  END
>  <MODEL>
7

>  <REMARK>
 VINA RESULT:      -6.2      2.680      7.361
  Name = 
  9 active torsions:
  status: ('A' for Active; 'I' for Inactive)
    1  A    between atoms: C_1  and  C_24
    2  A    between atoms: C_2  and  C_10
    3  A    between atoms: C_2  and  C_12
    4  A    between atoms: N_7  and  C_22
    5  A    between atoms: C_8  and  C_19
    6  A    between atoms: C_9  and  N_21
    7  A    between atoms: C_10  and  C_24
    8  A    between atoms: C_12  and  N_21
    9  A    between atoms: C_30  and  C_32
                            x       y       z     vdW  Elec       q    Type
                         _______ _______ _______ _____ _____    ______ ____

>  <TORSDO>
F 9

$$$$
=
 OpenBabel10272413293D

 32 35  0  0  1  0  0  0  0  0999 V2000
  186.7130  177.7930  140.5030 N   0  0  1  0  0  0  0  0  0  0  0  0
  182.4480  179.7780  139.1530 C   0  0  0  0  0  3  0  0  0  0  0  0
  181.8760  179.2270  140.2210 C   0  0  0  0  0  3  0  0  0  0  0  0
  187.0480  177.6700  142.9580 C   0  0  0  0  0  0  0  0  0  0  0  0
  186.5740  177.9310  144.2900 N   0  0  0  0  0  0  0  0  0  0  0  0
  188.1490  177.9020  138.5820 C   0  0  2  0  0  3  0  0  0  0  0  0
  186.7240  178.2000  138.1450 C   0  0  2  0  0  3  0  0  0  0  0  0
  183.9320  179.7300  138.9690 C   0  0  0  0  0  2  0  0  0  0  0  0
  186.0540  178.5600  139.4560 C   0  0  1  0  0  3  0  0  0  0  0  0
  184.0740  178.1710  140.9690 C   0  0  1  0  0  3  0  0  0  0  0  0
  184.9850  178.8710  141.9960 C   0  0  1  0  0  3  0  0  0  0  0  0
  182.6580  178.4950  141.1710 N   0  0  0  0  0  2  0  0  0  0  0  0
  184.5300  178.4300  139.5110 C   0  0  1  0  0  3  0  0  0  0  0  0
  184.4440  178.6900  143.4230 C   0  0  0  0  0  2  0  0  0  0  0  0
  188.1140  177.8820  140.1080 C   0  0  0  0  0  2  0  0  0  0  0  0
  187.9540  176.8140  142.7680 O   0  0  0  0  0  0  0  0  0  0  0  0
  186.4920  178.4720  141.7940 C   0  0  2  0  0  3  0  0  0  0  0  0
  185.5260  178.9450  144.4560 C   0  0  1  0  0  3  0  0  0  0  0  0
  183.5140  179.0340  145.7440 O   0  0  0  0  0  1  0  0  0  0  0  0
  184.9010  178.9440  145.8470 C   0  0  0  0  0  2  0  0  0  0  0  0
  188.4710  177.8540  145.8330 C   0  0  0  0  0  1  0  0  0  0  0  0
  187.1540  177.2170  145.4280 C   0  0  0  0  0  2  0  0  0  0  0  0
  189.0800  178.9950  138.0920 C   0  0  0  0  0  2  0  0  0  0  0  0
  188.4470  179.7550  137.1090 O   0  0  0  0  0  1  0  0  0  0  0  0
  186.1370  176.9910  137.5840 N   0  0  0  0  0  2  0  0  0  0  0  0
  187.2080  176.2560  136.9310 C   0  0  0  0  0  2  0  0  0  0  0  0
  186.6330  175.3200  135.8790 C   0  0  0  0  0  2  0  0  0  0  0  0
  186.9330  173.8670  136.2150 C   0  0  0  0  0  2  0  0  0  0  0  0
  186.0920  173.4070  137.4010 C   0  0  0  0  0  2  0  0  0  0  0  0
  184.5980  173.4860  137.1080 C   0  0  2  0  0  3  0  0  0  0  0  0
  183.9590  174.3170  138.0300 O   0  0  0  0  0  1  0  0  0  0  0  0
  183.9610  172.1090  137.1190 C   0  0  0  0  0  1  0  0  0  0  0  0
  1 15  1  6  0  0  0
  1 17  1  0  0  0  0
  2  3  2  0  0  0  0
  3 12  1  0  0  0  0
  4  5  1  0  0  0  0
  5 18  1  0  0  0  0
  5 22  1  0  0  0  0
  6 23  1  1  0  0  0
  6 15  1  0  0  0  0
  7 25  1  1  0  0  0
  7  6  1  0  0  0  0
  7  9  1  0  0  0  0
  8  2  1  0  0  0  0
  8 13  1  0  0  0  0
  9 13  1  0  0  0  0
  9  1  1  0  0  0  0
 10 12  1  0  0  0  0
 10 11  1  0  0  0  0
 11 14  1  0  0  0  0
 13 10  1  0  0  0  0
 14 18  1  0  0  0  0
 16  4  2  0  0  0  0
 17 11  1  0  0  0  0
 17  4  1  0  0  0  0
 18 20  1  0  0  0  0
 19 20  1  0  0  0  0
 22 21  1  0  0  0  0
 24 23  1  0  0  0  0
 26 25  1  0  0  0  0
 27 28  1  0  0  0  0
 27 26  1  0  0  0  0
 28 29  1  0  0  0  0
 30 32  1  0  0  0  0
 30 29  1  0  0  0  0
 30 31  1  0  0  0  0
M  END
>  <MODEL>
8

>  <REMARK>
 VINA RESULT:      -6.1      3.181      6.971
  Name = 
  9 active torsions:
  status: ('A' for Active; 'I' for Inactive)
    1  A    between atoms: C_1  and  C_24
    2  A    between atoms: C_2  and  C_10
    3  A    between atoms: C_2  and  C_12
    4  A    between atoms: N_7  and  C_22
    5  A    between atoms: C_8  and  C_19
    6  A    between atoms: C_9  and  N_21
    7  A    between atoms: C_10  and  C_24
    8  A    between atoms: C_12  and  N_21
    9  A    between atoms: C_30  and  C_32
                            x       y       z     vdW  Elec       q    Type
                         _______ _______ _______ _____ _____    ______ ____

>  <TORSDO>
F 9

$$$$
=
 OpenBabel10272413293D

 32 35  0  0  1  0  0  0  0  0999 V2000
  186.6480  177.8310  140.5520 N   0  0  1  0  0  0  0  0  0  0  0  0
  182.3150  179.7210  139.2860 C   0  0  0  0  0  3  0  0  0  0  0  0
  181.7680  179.1190  140.3380 C   0  0  0  0  0  3  0  0  0  0  0  0
  187.0000  177.6400  143.0010 C   0  0  0  0  0  0  0  0  0  0  0  0
  186.5260  177.8430  144.3420 N   0  0  0  0  0  0  0  0  0  0  0  0
  188.0700  178.0460  138.6290 C   0  0  2  0  0  3  0  0  0  0  0  0
  186.6340  178.3130  138.2090 C   0  0  2  0  0  3  0  0  0  0  0  0
  183.7990  179.7260  139.0940 C   0  0  0  0  0  2  0  0  0  0  0  0
  185.9600  178.6090  139.5330 C   0  0  1  0  0  3  0  0  0  0  0  0
  184.0010  178.1100  141.0420 C   0  0  1  0  0  3  0  0  0  0  0  0
  184.8950  178.8050  142.0870 C   0  0  1  0  0  3  0  0  0  0  0  0
  182.5770  178.3820  141.2610 N   0  0  0  0  0  2  0  0  0  0  0  0
  184.4410  178.4300  139.5910 C   0  0  1  0  0  3  0  0  0  0  0  0
  184.3680  178.5620  143.5100 C   0  0  0  0  0  2  0  0  0  0  0  0
  188.0440  177.9770  140.1540 C   0  0  0  0  0  2  0  0  0  0  0  0
  187.9320  176.8190  142.7790 O   0  0  0  0  0  0  0  0  0  0  0  0
  186.4130  178.4610  141.8650 C   0  0  2  0  0  3  0  0  0  0  0  0
  185.4470  178.8180  144.5460 C   0  0  1  0  0  3  0  0  0  0  0  0
  185.5250  179.5930  146.8060 O   0  0  0  0  0  1  0  0  0  0  0  0
  184.8300  178.7520  145.9380 C   0  0  0  0  0  2  0  0  0  0  0  0
  188.4290  177.7810  145.8790 C   0  0  0  0  0  1  0  0  0  0  0  0
  187.1340  177.1120  145.4540 C   0  0  0  0  0  2  0  0  0  0  0  0
  188.9640  179.1840  138.1710 C   0  0  0  0  0  2  0  0  0  0  0  0
  189.2990  179.0140  136.8290 O   0  0  0  0  0  1  0  0  0  0  0  0
  186.0820  177.1040  137.6120 N   0  0  0  0  0  2  0  0  0  0  0  0
  186.4970  177.0860  136.2180 C   0  0  0  0  0  2  0  0  0  0  0  0
  187.0070  175.7030  135.8450 C   0  0  0  0  0  2  0  0  0  0  0  0
  188.5270  175.6780  135.7840 C   0  0  0  0  0  2  0  0  0  0  0  0
  189.0960  174.8750  136.9480 C   0  0  0  0  0  2  0  0  0  0  0  0
  190.6190  174.8010  136.9030 C   0  0  2  0  0  3  0  0  0  0  0  0
  191.1430  174.6440  138.1870 O   0  0  0  0  0  1  0  0  0  0  0  0
  191.2110  176.0350  136.2460 C   0  0  0  0  0  1  0  0  0  0  0  0
  1 15  1  6  0  0  0
  1 17  1  0  0  0  0
  2  3  2  0  0  0  0
  3 12  1  0  0  0  0
  4  5  1  0  0  0  0
  5 18  1  0  0  0  0
  5 22  1  0  0  0  0
  6 23  1  1  0  0  0
  6 15  1  0  0  0  0
  7 25  1  1  0  0  0
  7  6  1  0  0  0  0
  7  9  1  0  0  0  0
  8  2  1  0  0  0  0
  8 13  1  0  0  0  0
  9 13  1  0  0  0  0
  9  1  1  0  0  0  0
 10 12  1  0  0  0  0
 10 11  1  0  0  0  0
 11 14  1  0  0  0  0
 13 10  1  0  0  0  0
 14 18  1  0  0  0  0
 16  4  2  0  0  0  0
 17 11  1  0  0  0  0
 17  4  1  0  0  0  0
 18 20  1  0  0  0  0
 20 19  1  0  0  0  0
 22 21  1  0  0  0  0
 24 23  1  0  0  0  0
 26 25  1  0  0  0  0
 27 26  1  0  0  0  0
 28 27  1  0  0  0  0
 28 29  1  0  0  0  0
 30 29  1  0  0  0  0
 30 31  1  0  0  0  0
 32 30  1  0  0  0  0
M  END
>  <MODEL>
9

>  <REMARK>
 VINA RESULT:      -6.0      2.801      6.551
  Name = 
  9 active torsions:
  status: ('A' for Active; 'I' for Inactive)
    1  A    between atoms: C_1  and  C_24
    2  A    between atoms: C_2  and  C_10
    3  A    between atoms: C_2  and  C_12
    4  A    between atoms: N_7  and  C_22
    5  A    between atoms: C_8  and  C_19
    6  A    between atoms: C_9  and  N_21
    7  A    between atoms: C_10  and  C_24
    8  A    between atoms: C_12  and  N_21
    9  A    between atoms: C_30  and  C_32
                            x       y       z     vdW  Elec       q    Type
                         _______ _______ _______ _____ _____    ______ ____

>  <TORSDO>
F 9

$$$$
