=
 OpenBabel10272415243D

 34 39  0  0  1  0  0  0  0  0999 V2000
  188.8540  177.9780  141.1510 C   0  0  0  0  0  0  0  0  0  0  0  0
  190.4900  176.0650  138.9900 C   0  0  0  0  0  2  0  0  0  0  0  0
  191.5750  177.4840  140.6310 O   0  0  0  0  0  0  0  0  0  0  0  0
  187.8610  177.6040  143.7600 C   0  0  0  0  0  3  0  0  0  0  0  0
  187.5060  178.2290  141.4500 C   0  0  0  0  0  3  0  0  0  0  0  0
  189.2110  177.3750  143.4930 C   0  0  0  0  0  0  0  0  0  0  0  0
  191.4310  176.7900  144.2600 C   0  0  0  0  0  3  0  0  0  0  0  0
  190.0730  176.9910  144.5230 C   0  0  0  0  0  3  0  0  0  0  0  0
  186.9930  178.0300  142.7420 C   0  0  0  0  0  0  0  0  0  0  0  0
  191.0740  177.3340  141.9260 C   0  0  0  0  0  0  0  0  0  0  0  0
  189.7120  177.5560  142.1840 C   0  0  0  0  0  0  0  0  0  0  0  0
  191.9310  176.9640  142.9660 C   0  0  0  0  0  3  0  0  0  0  0  0
  189.7930  175.9660  137.6240 C   0  0  0  0  0  2  0  0  0  0  0  0
  189.8940  177.2530  136.8010 C   0  0  2  0  0  3  0  0  0  0  0  0
  188.8970  178.3360  137.2530 C   0  0  0  0  0  2  0  0  0  0  0  0
  190.7160  177.5000  139.4920 C   0  0  2  0  0  3  0  0  0  0  0  0
  188.3500  178.1470  138.6730 C   0  0  0  0  0  2  0  0  0  0  0  0
  189.4120  178.2880  139.7750 C   0  0  1  0  0  3  0  0  0  0  0  0
  183.7730  178.7530  144.6360 C   0  0  0  0  0  3  0  0  0  0  0  0
  184.6130  178.2980  141.9870 C   0  0  0  0  0  3  0  0  0  0  0  0
  180.9280  178.9000  142.2180 C   0  0  2  0  0  3  0  0  0  0  0  0
  181.4110  179.0070  143.6730 C   0  0  0  0  0  2  0  0  0  0  0  0
  182.8650  178.7590  143.5790 C   0  0  0  0  0  0  0  0  0  0  0  0
  182.1470  178.5990  141.3300 C   0  0  1  0  0  3  0  0  0  0  0  0
  183.2710  178.5350  142.2900 C   0  0  0  0  0  0  0  0  0  0  0  0
  181.9770  177.3570  140.7170 O   0  0  0  0  0  1  0  0  0  0  0  0
  185.5610  178.2810  143.0300 C   0  0  0  0  0  0  0  0  0  0  0  0
  185.1260  178.5110  144.3550 C   0  0  0  0  0  3  0  0  0  0  0  0
  180.2730  180.1720  141.7910 C   0  0  0  0  0  0  0  0  0  0  0  0
  179.9820  181.0420  142.6510 O   0  0  0  0  0  1  0  0  0  0  0  0
  179.9820  180.4020  140.4510 O   0  0  0  0  0  0  0  0  0  0  0  0
  189.6850  176.9320  135.3330 C   0  0  0  0  0  2  0  0  0  0  0  0
  188.3160  177.4010  134.8780 C   0  0  0  0  0  2  0  0  0  0  0  0
  187.3880  176.2110  134.7590 C   0  0  0  0  0  1  0  0  0  0  0  0
  1  5  2  0  0  0  0
  1 11  1  0  0  0  0
  3 10  1  0  0  0  0
  5  9  1  0  0  0  0
  6  4  1  0  0  0  0
  6  8  1  0  0  0  0
  7  8  2  0  0  0  0
  9 27  1  0  0  0  0
  9  4  2  0  0  0  0
 10 11  1  0  0  0  0
 10 12  2  0  0  0  0
 11  6  2  0  0  0  0
 12  7  1  0  0  0  0
 13  2  1  0  0  0  0
 14 32  1  6  0  0  0
 14 15  1  0  0  0  0
 14 13  1  0  0  0  0
 15 17  1  0  0  0  0
 16  2  1  1  0  0  0
 16 18  1  0  0  0  0
 16  3  1  0  0  0  0
 18 17  1  6  0  0  0
 18  1  1  0  0  0  0
 20 25  2  0  0  0  0
 20 27  1  0  0  0  0
 21 29  1  6  0  0  0
 21 22  1  0  0  0  0
 23 22  1  0  0  0  0
 23 19  2  0  0  0  0
 24 26  1  1  0  0  0
 24 21  1  0  0  0  0
 24 25  1  0  0  0  0
 25 23  1  0  0  0  0
 27 28  2  0  0  0  0
 28 19  1  0  0  0  0
 29 30  1  0  0  0  0
 31 29  2  0  0  0  0
 33 32  1  0  0  0  0
 34 33  1  0  0  0  0
M  END
>  <MODEL>
1

>  <REMARK>
 VINA RESULT:     -10.3      0.000      0.000
  Name = 
  4 active torsions:
  status: ('A' for Active; 'I' for Inactive)
    1  A    between atoms: C_3  and  C_13
    2  A    between atoms: C_3  and  C_25
    3  A    between atoms: C_7  and  C_11
    4  A    between atoms: C_18  and  C_30
                            x       y       z     vdW  Elec       q    Type
                         _______ _______ _______ _____ _____    ______ ____

>  <TORSDO>
F 4

$$$$
=
 OpenBabel10272415243D

 34 39  0  0  1  0  0  0  0  0999 V2000
  187.6860  177.4130  144.2060 C   0  0  0  0  0  0  0  0  0  0  0  0
  185.4810  179.5550  145.4520 C   0  0  0  0  0  2  0  0  0  0  0  0
  186.3310  177.6320  146.6620 O   0  0  0  0  0  0  0  0  0  0  0  0
  190.4990  177.2590  144.1930 C   0  0  0  0  0  3  0  0  0  0  0  0
  188.3940  177.2880  143.0000 C   0  0  0  0  0  3  0  0  0  0  0  0
  189.8150  177.3550  145.4060 C   0  0  0  0  0  0  0  0  0  0  0  0
  189.8340  177.4110  147.8260 C   0  0  0  0  0  3  0  0  0  0  0  0
  190.5220  177.3450  146.6110 C   0  0  0  0  0  3  0  0  0  0  0  0
  189.7970  177.2280  142.9770 C   0  0  0  0  0  0  0  0  0  0  0  0
  187.7240  177.5240  146.6410 C   0  0  0  0  0  0  0  0  0  0  0  0
  188.4040  177.4380  145.4150 C   0  0  0  0  0  0  0  0  0  0  0  0
  188.4390  177.4980  147.8410 C   0  0  0  0  0  3  0  0  0  0  0  0
  184.4970  180.0890  144.3980 C   0  0  0  0  0  2  0  0  0  0  0  0
  183.4680  179.0470  143.9520 C   0  0  2  0  0  3  0  0  0  0  0  0
  184.0360  178.0380  142.9370 C   0  0  0  0  0  2  0  0  0  0  0  0
  185.5920  178.0230  145.5050 C   0  0  2  0  0  3  0  0  0  0  0  0
  185.5660  177.9410  142.9210 C   0  0  0  0  0  2  0  0  0  0  0  0
  186.1700  177.3810  144.2190 C   0  0  1  0  0  3  0  0  0  0  0  0
  192.5800  177.3940  140.3880 C   0  0  0  0  0  3  0  0  0  0  0  0
  189.8750  176.6260  140.5410 C   0  0  0  0  0  3  0  0  0  0  0  0
  191.2870  176.1510  137.1090 C   0  0  2  0  0  3  0  0  0  0  0  0
  192.4670  176.7110  137.9200 C   0  0  0  0  0  2  0  0  0  0  0  0
  191.9030  176.9070  139.2720 C   0  0  0  0  0  0  0  0  0  0  0  0
  190.0740  176.0360  138.0470 C   0  0  1  0  0  3  0  0  0  0  0  0
  190.5860  176.5350  139.3430 C   0  0  0  0  0  0  0  0  0  0  0  0
  189.0540  176.8700  137.5900 O   0  0  0  0  0  1  0  0  0  0  0  0
  190.5250  177.1170  141.6910 C   0  0  0  0  0  0  0  0  0  0  0  0
  191.8830  177.5000  141.6000 C   0  0  0  0  0  3  0  0  0  0  0  0
  191.6340  174.8160  136.5390 C   0  0  0  0  0  0  0  0  0  0  0  0
  192.2790  174.7470  135.4620 O   0  0  0  0  0  0  0  0  0  0  0  0
  191.2480  173.6480  137.1880 O   0  0  0  0  0  1  0  0  0  0  0  0
  182.2580  179.7510  143.3650 C   0  0  0  0  0  2  0  0  0  0  0  0
  181.2340  178.7380  142.8900 C   0  0  0  0  0  2  0  0  0  0  0  0
  180.2660  178.4350  144.0130 C   0  0  0  0  0  1  0  0  0  0  0  0
  1 18  1  0  0  0  0
  1 11  1  0  0  0  0
  4  6  1  0  0  0  0
  5  1  2  0  0  0  0
  6 11  2  0  0  0  0
  6  8  1  0  0  0  0
  7 12  1  0  0  0  0
  8  7  2  0  0  0  0
  9  5  1  0  0  0  0
  9  4  2  0  0  0  0
 10  3  1  0  0  0  0
 10 12  2  0  0  0  0
 11 10  1  0  0  0  0
 13  2  1  0  0  0  0
 14 32  1  6  0  0  0
 14 13  1  0  0  0  0
 15 14  1  0  0  0  0
 16  2  1  6  0  0  0
 16  3  1  0  0  0  0
 17 15  1  0  0  0  0
 18 17  1  6  0  0  0
 18 16  1  0  0  0  0
 19 28  1  0  0  0  0
 20 27  1  0  0  0  0
 21 29  1  1  0  0  0
 21 22  1  0  0  0  0
 21 24  1  0  0  0  0
 22 23  1  0  0  0  0
 23 25  1  0  0  0  0
 23 19  2  0  0  0  0
 24 26  1  6  0  0  0
 24 25  1  0  0  0  0
 25 20  2  0  0  0  0
 27  9  1  0  0  0  0
 28 27  2  0  0  0  0
 29 31  1  0  0  0  0
 30 29  2  0  0  0  0
 33 32  1  0  0  0  0
 33 34  1  0  0  0  0
M  END
>  <MODEL>
2

>  <REMARK>
 VINA RESULT:     -10.1      3.054      8.510
  Name = 
  4 active torsions:
  status: ('A' for Active; 'I' for Inactive)
    1  A    between atoms: C_3  and  C_13
    2  A    between atoms: C_3  and  C_25
    3  A    between atoms: C_7  and  C_11
    4  A    between atoms: C_18  and  C_30
                            x       y       z     vdW  Elec       q    Type
                         _______ _______ _______ _____ _____    ______ ____

>  <TORSDO>
F 4

$$$$
=
 OpenBabel10272415243D

 34 39  0  0  1  0  0  0  0  0999 V2000
  187.9460  178.1490  143.4070 C   0  0  0  0  0  0  0  0  0  0  0  0
  190.4160  176.1330  142.4920 C   0  0  0  0  0  2  0  0  0  0  0  0
  190.5730  177.7220  144.3180 O   0  0  0  0  0  0  0  0  0  0  0  0
  185.8060  177.9480  145.2290 C   0  0  0  0  0  3  0  0  0  0  0  0
  186.6230  178.3700  142.9910 C   0  0  0  0  0  3  0  0  0  0  0  0
  187.1150  177.7520  145.6720 C   0  0  0  0  0  0  0  0  0  0  0  0
  188.6790  177.3170  147.4690 C   0  0  0  0  0  3  0  0  0  0  0  0
  187.3650  177.4860  147.0200 C   0  0  0  0  0  3  0  0  0  0  0  0
  185.5450  178.2560  143.8840 C   0  0  0  0  0  0  0  0  0  0  0  0
  189.5050  177.6570  145.2160 C   0  0  0  0  0  0  0  0  0  0  0  0
  188.1900  177.8460  144.7600 C   0  0  0  0  0  0  0  0  0  0  0  0
  189.7450  177.4060  146.5690 C   0  0  0  0  0  3  0  0  0  0  0  0
  190.4710  175.8970  140.9740 C   0  0  0  0  0  2  0  0  0  0  0  0
  190.9670  177.1170  140.1930 C   0  0  2  0  0  3  0  0  0  0  0  0
  189.8810  178.1930  140.0050 C   0  0  0  0  0  2  0  0  0  0  0  0
  190.3770  177.6120  142.9090 C   0  0  2  0  0  3  0  0  0  0  0  0
  188.7110  178.0980  140.9920 C   0  0  0  0  0  2  0  0  0  0  0  0
  189.1040  178.3680  142.4540 C   0  0  1  0  0  3  0  0  0  0  0  0
  181.7980  178.9120  143.9140 C   0  0  0  0  0  3  0  0  0  0  0  0
  183.8520  178.4590  142.0420 C   0  0  0  0  0  3  0  0  0  0  0  0
  180.5290  178.9700  140.4000 C   0  0  2  0  0  3  0  0  0  0  0  0
  180.2230  179.1000  141.9000 C   0  0  0  0  0  2  0  0  0  0  0  0
  181.5360  178.8880  142.5460 C   0  0  0  0  0  0  0  0  0  0  0  0
  182.0330  178.6930  140.2410 C   0  0  1  0  0  3  0  0  0  0  0  0
  182.5330  178.6640  141.6340 C   0  0  0  0  0  0  0  0  0  0  0  0
  182.2140  177.4440  139.6480 O   0  0  0  0  0  1  0  0  0  0  0  0
  184.1560  178.4730  143.4180 C   0  0  0  0  0  0  0  0  0  0  0  0
  183.1150  178.7020  144.3470 C   0  0  0  0  0  3  0  0  0  0  0  0
  180.1500  180.2220  139.6800 C   0  0  0  0  0  0  0  0  0  0  0  0
  179.9830  180.1980  138.4340 O   0  0  0  0  0  0  0  0  0  0  0  0
  179.9820  181.4140  140.3760 O   0  0  0  0  0  1  0  0  0  0  0  0
  191.4960  176.6700  138.8420 C   0  0  0  0  0  2  0  0  0  0  0  0
  190.4780  175.7950  138.1360 C   0  0  0  0  0  2  0  0  0  0  0  0
  191.1950  174.7070  137.3660 C   0  0  0  0  0  1  0  0  0  0  0  0
  1 11  1  0  0  0  0
  3 10  1  0  0  0  0
  4  6  1  0  0  0  0
  5  1  2  0  0  0  0
  5  9  1  0  0  0  0
  6  8  1  0  0  0  0
  8  7  2  0  0  0  0
  9  4  2  0  0  0  0
 10 12  2  0  0  0  0
 11 10  1  0  0  0  0
 11  6  2  0  0  0  0
 12  7  1  0  0  0  0
 13  2  1  0  0  0  0
 14 32  1  6  0  0  0
 14 13  1  0  0  0  0
 15 14  1  0  0  0  0
 15 17  1  0  0  0  0
 16  2  1  1  0  0  0
 16  3  1  0  0  0  0
 18 17  1  6  0  0  0
 18 16  1  0  0  0  0
 18  1  1  0  0  0  0
 19 28  1  0  0  0  0
 20 27  1  0  0  0  0
 21 29  1  6  0  0  0
 21 22  1  0  0  0  0
 22 23  1  0  0  0  0
 23 19  2  0  0  0  0
 24 26  1  1  0  0  0
 24 21  1  0  0  0  0
 24 25  1  0  0  0  0
 25 20  2  0  0  0  0
 25 23  1  0  0  0  0
 27  9  1  0  0  0  0
 27 28  2  0  0  0  0
 29 31  1  0  0  0  0
 30 29  2  0  0  0  0
 33 32  1  0  0  0  0
 34 33  1  0  0  0  0
M  END
>  <MODEL>
3

>  <REMARK>
 VINA RESULT:      -9.8      1.802      2.930
  Name = 
  4 active torsions:
  status: ('A' for Active; 'I' for Inactive)
    1  A    between atoms: C_3  and  C_13
    2  A    between atoms: C_3  and  C_25
    3  A    between atoms: C_7  and  C_11
    4  A    between atoms: C_18  and  C_30
                            x       y       z     vdW  Elec       q    Type
                         _______ _______ _______ _____ _____    ______ ____

>  <TORSDO>
F 4

$$$$
=
 OpenBabel10272415243D

 34 39  0  0  1  0  0  0  0  0999 V2000
  190.2710  177.4450  139.8520 C   0  0  0  0  0  0  0  0  0  0  0  0
  188.3970  176.7510  142.4990 C   0  0  0  0  0  2  0  0  0  0  0  0
  187.8380  178.4420  140.8520 O   0  0  0  0  0  0  0  0  0  0  0  0
  190.3830  176.4860  137.2060 C   0  0  0  0  0  3  0  0  0  0  0  0
  191.4720  176.9550  139.3140 C   0  0  0  0  0  3  0  0  0  0  0  0
  189.1850  176.9950  137.7090 C   0  0  0  0  0  0  0  0  0  0  0  0
  186.8600  177.5920  137.3880 C   0  0  0  0  0  3  0  0  0  0  0  0
  188.0520  177.0560  136.8930 C   0  0  0  0  0  3  0  0  0  0  0  0
  191.5380  176.4560  138.0030 C   0  0  0  0  0  0  0  0  0  0  0  0
  187.9170  177.9920  139.5320 C   0  0  0  0  0  0  0  0  0  0  0  0
  189.1240  177.4710  139.0380 C   0  0  0  0  0  0  0  0  0  0  0  0
  186.7940  178.0620  138.7030 C   0  0  0  0  0  3  0  0  0  0  0  0
  189.2220  176.3770  143.7410 C   0  0  0  0  0  2  0  0  0  0  0  0
  189.9420  177.5740  144.3680 C   0  0  2  0  0  3  0  0  0  0  0  0
  191.2240  177.9680  143.6120 C   0  0  0  0  0  2  0  0  0  0  0  0
  188.8090  178.0720  141.8300 C   0  0  2  0  0  3  0  0  0  0  0  0
  191.2970  177.4550  142.1690 C   0  0  0  0  0  2  0  0  0  0  0  0
  190.2390  178.0650  141.2350 C   0  0  1  0  0  3  0  0  0  0  0  0
  194.3830  175.6700  135.6030 C   0  0  0  0  0  3  0  0  0  0  0  0
  193.6760  175.1700  138.2830 C   0  0  0  0  0  3  0  0  0  0  0  0
  196.9720  173.6460  137.3830 C   0  0  2  0  0  3  0  0  0  0  0  0
  196.5170  174.3340  136.0860 C   0  0  0  0  0  2  0  0  0  0  0  0
  195.2110  174.9260  136.4420 C   0  0  0  0  0  0  0  0  0  0  0  0
  195.8940  173.8830  138.4540 C   0  0  1  0  0  3  0  0  0  0  0  0
  194.8670  174.6790  137.7450 C   0  0  0  0  0  0  0  0  0  0  0  0
  195.3550  172.6590  138.8470 O   0  0  0  0  0  1  0  0  0  0  0  0
  192.8110  175.9240  137.4630 C   0  0  0  0  0  0  0  0  0  0  0  0
  193.1780  176.1670  136.1210 C   0  0  0  0  0  3  0  0  0  0  0  0
  198.2840  174.1980  137.8330 C   0  0  0  0  0  0  0  0  0  0  0  0
  199.3420  173.5570  137.6020 O   0  0  0  0  0  0  0  0  0  0  0  0
  198.3470  175.4130  138.5060 O   0  0  0  0  0  1  0  0  0  0  0  0
  190.2660  177.2640  145.8180 C   0  0  0  0  0  2  0  0  0  0  0  0
  191.5970  176.5430  145.9210 C   0  0  0  0  0  2  0  0  0  0  0  0
  191.8250  176.1060  147.3530 C   0  0  0  0  0  1  0  0  0  0  0  0
  1 18  1  0  0  0  0
  2 13  1  0  0  0  0
  3 16  1  0  0  0  0
  4  6  2  0  0  0  0
  4  9  1  0  0  0  0
  5  1  1  0  0  0  0
  6 11  1  0  0  0  0
  7 12  1  0  0  0  0
  8  7  2  0  0  0  0
  8  6  1  0  0  0  0
  9  5  2  0  0  0  0
 10  3  1  0  0  0  0
 11 10  1  0  0  0  0
 11  1  2  0  0  0  0
 12 10  2  0  0  0  0
 13 14  1  0  0  0  0
 14 32  1  1  0  0  0
 15 14  1  0  0  0  0
 16  2  1  6  0  0  0
 17 15  1  0  0  0  0
 18 16  1  0  0  0  0
 18 17  1  1  0  0  0
 19 28  2  0  0  0  0
 19 23  1  0  0  0  0
 21 29  1  1  0  0  0
 21 24  1  0  0  0  0
 22 23  1  0  0  0  0
 22 21  1  0  0  0  0
 23 25  2  0  0  0  0
 24 26  1  6  0  0  0
 25 20  1  0  0  0  0
 25 24  1  0  0  0  0
 27  9  1  0  0  0  0
 27 20  2  0  0  0  0
 28 27  1  0  0  0  0
 29 31  1  0  0  0  0
 30 29  2  0  0  0  0
 32 33  1  0  0  0  0
 33 34  1  0  0  0  0
M  END
>  <MODEL>
4

>  <REMARK>
 VINA RESULT:      -9.5      4.011     11.049
  Name = 
  4 active torsions:
  status: ('A' for Active; 'I' for Inactive)
    1  A    between atoms: C_3  and  C_13
    2  A    between atoms: C_3  and  C_25
    3  A    between atoms: C_7  and  C_11
    4  A    between atoms: C_18  and  C_30
                            x       y       z     vdW  Elec       q    Type
                         _______ _______ _______ _____ _____    ______ ____

>  <TORSDO>
F 4

$$$$
=
 OpenBabel10272415243D

 34 39  0  0  1  0  0  0  0  0999 V2000
  189.2100  177.7780  140.0850 C   0  0  0  0  0  0  0  0  0  0  0  0
  187.7920  176.9990  142.9810 C   0  0  0  0  0  2  0  0  0  0  0  0
  187.0250  178.7930  141.5400 O   0  0  0  0  0  0  0  0  0  0  0  0
  188.8280  176.9610  137.4170 C   0  0  0  0  0  3  0  0  0  0  0  0
  190.2800  177.2810  139.3250 C   0  0  0  0  0  3  0  0  0  0  0  0
  187.7550  177.4780  138.1440 C   0  0  0  0  0  0  0  0  0  0  0  0
  185.4350  178.1620  138.2610 C   0  0  0  0  0  3  0  0  0  0  0  0
  186.5020  177.6170  137.5410 C   0  0  0  0  0  3  0  0  0  0  0  0
  190.1000  176.8530  137.9990 C   0  0  0  0  0  0  0  0  0  0  0  0
  186.8590  178.4130  140.2060 C   0  0  0  0  0  0  0  0  0  0  0  0
  187.9410  177.8840  139.4850 C   0  0  0  0  0  0  0  0  0  0  0  0
  185.6140  178.5620  139.5890 C   0  0  0  0  0  3  0  0  0  0  0  0
  188.8020  176.5330  144.0410 C   0  0  0  0  0  2  0  0  0  0  0  0
  189.6660  177.6710  144.5920 C   0  0  2  0  0  3  0  0  0  0  0  0
  190.8140  178.0670  143.6440 C   0  0  0  0  0  2  0  0  0  0  0  0
  188.1350  178.3410  142.3160 C   0  0  2  0  0  3  0  0  0  0  0  0
  190.6180  177.6310  142.1870 C   0  0  0  0  0  2  0  0  0  0  0  0
  189.4400  178.3230  141.4820 C   0  0  1  0  0  3  0  0  0  0  0  0
  192.2210  175.6550  135.0760 C   0  0  0  0  0  3  0  0  0  0  0  0
  192.4370  175.9430  137.8690 C   0  0  0  0  0  3  0  0  0  0  0  0
  195.5610  174.5610  136.3450 C   0  0  2  0  0  3  0  0  0  0  0  0
  194.6220  174.7610  135.1450 C   0  0  0  0  0  2  0  0  0  0  0  0
  193.3860  175.2980  135.7520 C   0  0  0  0  0  0  0  0  0  0  0  0
  194.8170  175.0070  137.6140 C   0  0  1  0  0  3  0  0  0  0  0  0
  193.4920  175.4340  137.1100 C   0  0  0  0  0  0  0  0  0  0  0  0
  194.6680  173.9170  138.4710 O   0  0  0  0  0  1  0  0  0  0  0  0
  191.2400  176.3130  137.2220 C   0  0  0  0  0  0  0  0  0  0  0  0
  191.1450  176.1630  135.8200 C   0  0  0  0  0  3  0  0  0  0  0  0
  196.8120  175.3560  136.1670 C   0  0  0  0  0  0  0  0  0  0  0  0
  197.6520  175.4140  137.1010 O   0  0  0  0  0  1  0  0  0  0  0  0
  197.0550  176.0350  134.9780 O   0  0  0  0  0  0  0  0  0  0  0  0
  190.2220  177.2740  145.9460 C   0  0  0  0  0  2  0  0  0  0  0  0
  191.5740  176.6040  145.7890 C   0  0  0  0  0  2  0  0  0  0  0  0
  191.9820  175.9730  147.1030 C   0  0  0  0  0  1  0  0  0  0  0  0
  1 18  1  0  0  0  0
  2 13  1  0  0  0  0
  3 16  1  0  0  0  0
  4  9  2  0  0  0  0
  4  6  1  0  0  0  0
  5  1  2  0  0  0  0
  6 11  1  0  0  0  0
  7 12  2  0  0  0  0
  8  6  2  0  0  0  0
  8  7  1  0  0  0  0
  9  5  1  0  0  0  0
 10  3  1  0  0  0  0
 11  1  1  0  0  0  0
 11 10  2  0  0  0  0
 12 10  1  0  0  0  0
 13 14  1  0  0  0  0
 14 32  1  1  0  0  0
 15 14  1  0  0  0  0
 16  2  1  6  0  0  0
 17 15  1  0  0  0  0
 18 17  1  1  0  0  0
 18 16  1  0  0  0  0
 19 23  2  0  0  0  0
 19 28  1  0  0  0  0
 21 29  1  6  0  0  0
 21 24  1  0  0  0  0
 22 23  1  0  0  0  0
 22 21  1  0  0  0  0
 23 25  1  0  0  0  0
 24 26  1  1  0  0  0
 25 24  1  0  0  0  0
 25 20  2  0  0  0  0
 27 20  1  0  0  0  0
 27  9  1  0  0  0  0
 28 27  2  0  0  0  0
 29 30  1  0  0  0  0
 31 29  2  0  0  0  0
 33 32  1  0  0  0  0
 33 34  1  0  0  0  0
M  END
>  <MODEL>
5

>  <REMARK>
 VINA RESULT:      -9.0      3.425     10.428
  Name = 
  4 active torsions:
  status: ('A' for Active; 'I' for Inactive)
    1  A    between atoms: C_3  and  C_13
    2  A    between atoms: C_3  and  C_25
    3  A    between atoms: C_7  and  C_11
    4  A    between atoms: C_18  and  C_30
                            x       y       z     vdW  Elec       q    Type
                         _______ _______ _______ _____ _____    ______ ____

>  <TORSDO>
F 4

$$$$
=
 OpenBabel10272415243D

 34 39  0  0  1  0  0  0  0  0999 V2000
  188.2650  178.1680  140.4390 C   0  0  0  0  0  0  0  0  0  0  0  0
  187.0760  177.1380  143.3590 C   0  0  0  0  0  2  0  0  0  0  0  0
  186.2100  179.0510  142.1460 O   0  0  0  0  0  0  0  0  0  0  0  0
  187.6660  177.5870  137.7490 C   0  0  0  0  0  3  0  0  0  0  0  0
  189.2680  177.7400  139.5550 C   0  0  0  0  0  3  0  0  0  0  0  0
  186.6580  178.0380  138.6010 C   0  0  0  0  0  0  0  0  0  0  0  0
  184.3600  178.7090  138.9620 C   0  0  0  0  0  3  0  0  0  0  0  0
  185.3620  178.2290  138.1140 C   0  0  0  0  0  3  0  0  0  0  0  0
  188.9800  177.4290  138.2160 C   0  0  0  0  0  0  0  0  0  0  0  0
  185.9350  178.7890  140.8010 C   0  0  0  0  0  0  0  0  0  0  0  0
  186.9530  178.3250  139.9530 C   0  0  0  0  0  0  0  0  0  0  0  0
  184.6460  178.9910  140.3010 C   0  0  0  0  0  3  0  0  0  0  0  0
  188.1650  176.5810  144.2910 C   0  0  0  0  0  2  0  0  0  0  0  0
  189.0770  177.6670  144.8680 C   0  0  2  0  0  3  0  0  0  0  0  0
  190.1480  178.1450  143.8700 C   0  0  0  0  0  2  0  0  0  0  0  0
  187.3740  178.5330  142.7880 C   0  0  2  0  0  3  0  0  0  0  0  0
  189.8340  177.8380  142.4010 C   0  0  0  0  0  2  0  0  0  0  0  0
  188.6090  178.5880  141.8540 C   0  0  1  0  0  3  0  0  0  0  0  0
  190.8360  176.4420  135.0440 C   0  0  0  0  0  3  0  0  0  0  0  0
  191.3100  176.5830  137.8170 C   0  0  0  0  0  3  0  0  0  0  0  0
  194.3010  175.3600  135.9310 C   0  0  2  0  0  3  0  0  0  0  0  0
  193.2490  175.6030  134.8370 C   0  0  0  0  0  2  0  0  0  0  0  0
  192.0660  176.0770  135.5860 C   0  0  0  0  0  0  0  0  0  0  0  0
  193.6720  175.7190  137.2870 C   0  0  1  0  0  3  0  0  0  0  0  0
  192.2980  176.1410  136.9340 C   0  0  0  0  0  0  0  0  0  0  0  0
  193.6250  174.5800  138.0910 O   0  0  0  0  0  1  0  0  0  0  0  0
  190.0510  176.9590  137.3060 C   0  0  0  0  0  0  0  0  0  0  0  0
  189.8260  176.8830  135.9130 C   0  0  0  0  0  3  0  0  0  0  0  0
  195.5140  176.1930  135.6810 C   0  0  0  0  0  0  0  0  0  0  0  0
  196.6490  175.6510  135.6610 O   0  0  0  0  0  1  0  0  0  0  0  0
  195.4000  177.5630  135.4720 O   0  0  0  0  0  0  0  0  0  0  0  0
  189.7360  177.1530  146.1340 C   0  0  0  0  0  2  0  0  0  0  0  0
  188.6980  176.9180  147.2150 C   0  0  0  0  0  2  0  0  0  0  0  0
  188.3210  178.2400  147.8490 C   0  0  0  0  0  1  0  0  0  0  0  0
  1 18  1  0  0  0  0
  2 13  1  0  0  0  0
  3 16  1  0  0  0  0
  4  9  2  0  0  0  0
  4  6  1  0  0  0  0
  5  1  2  0  0  0  0
  6 11  1  0  0  0  0
  7 12  2  0  0  0  0
  8  6  2  0  0  0  0
  8  7  1  0  0  0  0
  9  5  1  0  0  0  0
 10  3  1  0  0  0  0
 11  1  1  0  0  0  0
 11 10  2  0  0  0  0
 12 10  1  0  0  0  0
 13 14  1  0  0  0  0
 14 32  1  1  0  0  0
 15 14  1  0  0  0  0
 16  2  1  6  0  0  0
 17 15  1  0  0  0  0
 18 17  1  1  0  0  0
 18 16  1  0  0  0  0
 19 23  2  0  0  0  0
 19 28  1  0  0  0  0
 21 29  1  6  0  0  0
 21 24  1  0  0  0  0
 22 23  1  0  0  0  0
 22 21  1  0  0  0  0
 23 25  1  0  0  0  0
 24 26  1  1  0  0  0
 25 24  1  0  0  0  0
 25 20  2  0  0  0  0
 27 20  1  0  0  0  0
 27  9  1  0  0  0  0
 28 27  2  0  0  0  0
 30 29  1  0  0  0  0
 31 29  2  0  0  0  0
 32 33  1  0  0  0  0
 33 34  1  0  0  0  0
M  END
>  <MODEL>
6

>  <REMARK>
 VINA RESULT:      -8.9      3.017      9.975
  Name = 
  4 active torsions:
  status: ('A' for Active; 'I' for Inactive)
    1  A    between atoms: C_3  and  C_13
    2  A    between atoms: C_3  and  C_25
    3  A    between atoms: C_7  and  C_11
    4  A    between atoms: C_18  and  C_30
                            x       y       z     vdW  Elec       q    Type
                         _______ _______ _______ _____ _____    ______ ____

>  <TORSDO>
F 4

$$$$
=
 OpenBabel10272415243D

 34 39  0  0  1  0  0  0  0  0999 V2000
  189.0870  177.6530  140.3680 C   0  0  0  0  0  0  0  0  0  0  0  0
  187.1940  177.2150  143.0570 C   0  0  0  0  0  2  0  0  0  0  0  0
  186.7730  178.9040  141.3680 O   0  0  0  0  0  0  0  0  0  0  0  0
  189.0690  176.6120  137.7510 C   0  0  0  0  0  3  0  0  0  0  0  0
  190.2280  177.0360  139.8310 C   0  0  0  0  0  3  0  0  0  0  0  0
  187.9320  177.2470  138.2520 C   0  0  0  0  0  0  0  0  0  0  0  0
  185.6690  178.0520  137.9420 C   0  0  0  0  0  3  0  0  0  0  0  0
  186.7980  177.3910  137.4490 C   0  0  0  0  0  3  0  0  0  0  0  0
  190.2270  176.4970  138.5350 C   0  0  0  0  0  0  0  0  0  0  0  0
  186.7900  178.4110  140.0600 C   0  0  0  0  0  0  0  0  0  0  0  0
  187.9350  177.7650  139.5670 C   0  0  0  0  0  0  0  0  0  0  0  0
  185.6670  178.5630  139.2430 C   0  0  0  0  0  3  0  0  0  0  0  0
  187.9980  176.8000  144.3000 C   0  0  0  0  0  2  0  0  0  0  0  0
  188.8360  177.9400  144.8830 C   0  0  2  0  0  3  0  0  0  0  0  0
  190.1390  178.1900  144.1000 C   0  0  0  0  0  2  0  0  0  0  0  0
  187.7190  178.4720  142.3450 C   0  0  2  0  0  3  0  0  0  0  0  0
  190.1420  177.6320  142.6720 C   0  0  0  0  0  2  0  0  0  0  0  0
  189.1330  178.3120  141.7330 C   0  0  1  0  0  3  0  0  0  0  0  0
  193.8590  175.8030  137.6380 C   0  0  0  0  0  3  0  0  0  0  0  0
  191.3360  174.5900  137.3350 C   0  0  0  0  0  3  0  0  0  0  0  0
  194.0810  172.5370  135.8360 C   0  0  2  0  0  3  0  0  0  0  0  0
  194.8080  173.7660  136.4050 C   0  0  0  0  0  2  0  0  0  0  0  0
  193.7200  174.5790  136.9870 C   0  0  0  0  0  0  0  0  0  0  0  0
  192.5800  172.6920  136.1290 C   0  0  1  0  0  3  0  0  0  0  0  0
  192.4930  173.9890  136.8360 C   0  0  0  0  0  0  0  0  0  0  0  0
  191.8790  172.7620  134.9250 O   0  0  0  0  0  1  0  0  0  0  0  0
  191.4370  175.8310  137.9960 C   0  0  0  0  0  0  0  0  0  0  0  0
  192.7090  176.4290  138.1420 C   0  0  0  0  0  3  0  0  0  0  0  0
  194.6070  171.2860  136.4590 C   0  0  0  0  0  0  0  0  0  0  0  0
  193.8360  170.3100  136.6440 O   0  0  0  0  0  0  0  0  0  0  0  0
  195.9420  171.1920  136.8360 O   0  0  0  0  0  1  0  0  0  0  0  0
  189.1510  177.6430  146.3370 C   0  0  0  0  0  2  0  0  0  0  0  0
  187.8830  177.6660  147.1700 C   0  0  0  0  0  2  0  0  0  0  0  0
  188.2250  178.0280  148.6000 C   0  0  0  0  0  1  0  0  0  0  0  0
  1 18  1  0  0  0  0
  2 13  1  0  0  0  0
  3 16  1  0  0  0  0
  4  6  2  0  0  0  0
  4  9  1  0  0  0  0
  5  1  1  0  0  0  0
  6 11  1  0  0  0  0
  7 12  1  0  0  0  0
  8  7  2  0  0  0  0
  8  6  1  0  0  0  0
  9  5  2  0  0  0  0
 10  3  1  0  0  0  0
 11 10  1  0  0  0  0
 11  1  2  0  0  0  0
 12 10  2  0  0  0  0
 13 14  1  0  0  0  0
 14 32  1  1  0  0  0
 15 14  1  0  0  0  0
 16  2  1  6  0  0  0
 17 15  1  0  0  0  0
 18 16  1  0  0  0  0
 18 17  1  1  0  0  0
 19 28  1  0  0  0  0
 20 27  1  0  0  0  0
 21 24  1  0  0  0  0
 21 22  1  0  0  0  0
 21 29  1  1  0  0  0
 22 23  1  0  0  0  0
 23 19  2  0  0  0  0
 24 26  1  6  0  0  0
 24 25  1  0  0  0  0
 25 23  1  0  0  0  0
 25 20  2  0  0  0  0
 27 28  2  0  0  0  0
 27  9  1  0  0  0  0
 29 30  2  0  0  0  0
 29 31  1  0  0  0  0
 32 33  1  0  0  0  0
 33 34  1  0  0  0  0
M  END
>  <MODEL>
7

>  <REMARK>
 VINA RESULT:      -8.8      3.769     10.333
  Name = 
  4 active torsions:
  status: ('A' for Active; 'I' for Inactive)
    1  A    between atoms: C_3  and  C_13
    2  A    between atoms: C_3  and  C_25
    3  A    between atoms: C_7  and  C_11
    4  A    between atoms: C_18  and  C_30
                            x       y       z     vdW  Elec       q    Type
                         _______ _______ _______ _____ _____    ______ ____

>  <TORSDO>
F 4

$$$$
=
 OpenBabel10272415243D

 34 39  0  0  1  0  0  0  0  0999 V2000
  186.0930  178.4040  140.1510 C   0  0  0  0  0  0  0  0  0  0  0  0
  183.7970  176.9970  138.2130 C   0  0  0  0  0  2  0  0  0  0  0  0
  185.2120  178.8390  137.5140 O   0  0  0  0  0  0  0  0  0  0  0  0
  188.8290  177.9340  140.6290 C   0  0  0  0  0  3  0  0  0  0  0  0
  186.5710  178.1970  141.4550 C   0  0  0  0  0  3  0  0  0  0  0  0
  188.3820  178.1650  139.3270 C   0  0  0  0  0  0  0  0  0  0  0  0
  188.8490  178.4520  136.9690 C   0  0  0  0  0  3  0  0  0  0  0  0
  189.2940  178.1920  138.2680 C   0  0  0  0  0  3  0  0  0  0  0  0
  187.9290  177.9440  141.7060 C   0  0  0  0  0  0  0  0  0  0  0  0
  186.5700  178.6360  137.7710 C   0  0  0  0  0  0  0  0  0  0  0  0
  187.0100  178.3950  139.0830 C   0  0  0  0  0  0  0  0  0  0  0  0
  187.4920  178.6760  136.7220 C   0  0  0  0  0  3  0  0  0  0  0  0
  182.5480  176.5460  138.9880 C   0  0  0  0  0  2  0  0  0  0  0  0
  181.6710  177.7130  139.4470 C   0  0  2  0  0  3  0  0  0  0  0  0
  182.2180  178.4190  140.7030 C   0  0  0  0  0  2  0  0  0  0  0  0
  184.2060  178.4590  138.4530 C   0  0  2  0  0  3  0  0  0  0  0  0
  183.7070  178.1750  140.9740 C   0  0  0  0  0  2  0  0  0  0  0  0
  184.6420  178.7680  139.9070 C   0  0  1  0  0  3  0  0  0  0  0  0
  187.9310  177.3040  145.4570 C   0  0  0  0  0  3  0  0  0  0  0  0
  189.7880  177.6540  143.3690 C   0  0  0  0  0  3  0  0  0  0  0  0
  191.4590  177.0710  146.6650 C   0  0  2  0  0  3  0  0  0  0  0  0
  189.9590  177.0200  146.9970 C   0  0  0  0  0  2  0  0  0  0  0  0
  189.3030  177.2600  145.6950 C   0  0  0  0  0  0  0  0  0  0  0  0
  191.6060  177.3340  145.1570 C   0  0  1  0  0  3  0  0  0  0  0  0
  190.2080  177.4320  144.6820 C   0  0  0  0  0  0  0  0  0  0  0  0
  192.2590  178.5510  144.9600 O   0  0  0  0  0  1  0  0  0  0  0  0
  188.4070  177.7080  143.0890 C   0  0  0  0  0  0  0  0  0  0  0  0
  187.4860  177.5320  144.1460 C   0  0  0  0  0  3  0  0  0  0  0  0
  192.1200  175.7850  147.0370 C   0  0  0  0  0  0  0  0  0  0  0  0
  192.2060  174.8610  146.1890 O   0  0  0  0  0  0  0  0  0  0  0  0
  192.6400  175.6020  148.3130 O   0  0  0  0  0  1  0  0  0  0  0  0
  180.2600  177.2150  139.7030 C   0  0  0  0  0  2  0  0  0  0  0  0
  180.2810  176.0230  140.6420 C   0  0  0  0  0  2  0  0  0  0  0  0
  179.9820  174.7610  139.8620 C   0  0  0  0  0  1  0  0  0  0  0  0
  1  5  1  0  0  0  0
  2 13  1  0  0  0  0
  3 10  1  0  0  0  0
  3 16  1  0  0  0  0
  4  9  1  0  0  0  0
  5  9  2  0  0  0  0
  6  4  2  0  0  0  0
  7  8  2  0  0  0  0
  8  6  1  0  0  0  0
  9 27  1  0  0  0  0
 10 11  1  0  0  0  0
 11  6  1  0  0  0  0
 11  1  2  0  0  0  0
 12  7  1  0  0  0  0
 12 10  2  0  0  0  0
 13 14  1  0  0  0  0
 14 32  1  1  0  0  0
 14 15  1  0  0  0  0
 15 17  1  0  0  0  0
 16  2  1  1  0  0  0
 16 18  1  0  0  0  0
 18  1  1  0  0  0  0
 18 17  1  1  0  0  0
 19 23  1  0  0  0  0
 20 25  1  0  0  0  0
 21 22  1  0  0  0  0
 21 29  1  6  0  0  0
 23 22  1  0  0  0  0
 24 26  1  1  0  0  0
 24 21  1  0  0  0  0
 25 24  1  0  0  0  0
 25 23  2  0  0  0  0
 27 20  2  0  0  0  0
 27 28  1  0  0  0  0
 28 19  2  0  0  0  0
 29 31  1  0  0  0  0
 30 29  2  0  0  0  0
 32 33  1  0  0  0  0
 34 33  1  0  0  0  0
M  END
>  <MODEL>
8

>  <REMARK>
 VINA RESULT:      -8.8      2.863      8.017
  Name = 
  4 active torsions:
  status: ('A' for Active; 'I' for Inactive)
    1  A    between atoms: C_3  and  C_13
    2  A    between atoms: C_3  and  C_25
    3  A    between atoms: C_7  and  C_11
    4  A    between atoms: C_18  and  C_30
                            x       y       z     vdW  Elec       q    Type
                         _______ _______ _______ _____ _____    ______ ____

>  <TORSDO>
F 4

$$$$
=
 OpenBabel10272415243D

 34 39  0  0  1  0  0  0  0  0999 V2000
  188.1780  177.8220  139.3310 C   0  0  0  0  0  0  0  0  0  0  0  0
  185.8940  176.7710  137.1680 C   0  0  0  0  0  2  0  0  0  0  0  0
  187.8930  177.9920  136.5370 O   0  0  0  0  0  0  0  0  0  0  0  0
  190.5320  176.7140  140.4110 C   0  0  0  0  0  3  0  0  0  0  0  0
  188.3610  177.7350  140.7210 C   0  0  0  0  0  3  0  0  0  0  0  0
  190.3850  176.8150  139.0270 C   0  0  0  0  0  0  0  0  0  0  0  0
  191.2780  176.5250  136.7950 C   0  0  0  0  0  3  0  0  0  0  0  0
  191.4150  176.3960  138.1800 C   0  0  0  0  0  3  0  0  0  0  0  0
  189.5220  177.1680  141.2730 C   0  0  0  0  0  0  0  0  0  0  0  0
  189.0680  177.4740  137.0880 C   0  0  0  0  0  0  0  0  0  0  0  0
  189.2030  177.3650  138.4820 C   0  0  0  0  0  0  0  0  0  0  0  0
  190.1090  177.0650  136.2510 C   0  0  0  0  0  3  0  0  0  0  0  0
  184.4630  176.8310  137.7240 C   0  0  0  0  0  2  0  0  0  0  0  0
  183.9220  178.2580  137.8420 C   0  0  2  0  0  3  0  0  0  0  0  0
  184.4550  179.0040  139.0800 C   0  0  0  0  0  2  0  0  0  0  0  0
  186.6860  178.0820  137.2930 C   0  0  2  0  0  3  0  0  0  0  0  0
  185.7380  178.4130  139.6760 C   0  0  0  0  0  2  0  0  0  0  0  0
  186.9630  178.5200  138.7530 C   0  0  1  0  0  3  0  0  0  0  0  0
  191.0950  176.6180  144.6930 C   0  0  0  0  0  3  0  0  0  0  0  0
  188.5980  177.3290  143.6020 C   0  0  0  0  0  3  0  0  0  0  0  0
  188.5280  177.2210  147.3410 C   0  0  2  0  0  3  0  0  0  0  0  0
  189.9770  176.8460  146.9880 C   0  0  0  0  0  2  0  0  0  0  0  0
  189.9980  176.8800  145.5100 C   0  0  0  0  0  0  0  0  0  0  0  0
  187.7650  177.4690  146.0290 C   0  0  1  0  0  3  0  0  0  0  0  0
  188.7810  177.2230  144.9820 C   0  0  0  0  0  0  0  0  0  0  0  0
  186.7320  176.5390  145.9120 O   0  0  0  0  0  1  0  0  0  0  0  0
  189.6840  177.0680  142.7420 C   0  0  0  0  0  0  0  0  0  0  0  0
  190.9320  176.7120  143.3030 C   0  0  0  0  0  3  0  0  0  0  0  0
  188.5000  178.4420  148.1990 C   0  0  0  0  0  0  0  0  0  0  0  0
  187.4700  179.1630  148.2240 O   0  0  0  0  0  0  0  0  0  0  0  0
  189.6040  178.7890  148.9710 O   0  0  0  0  0  1  0  0  0  0  0  0
  182.4050  178.2230  137.8680 C   0  0  0  0  0  2  0  0  0  0  0  0
  181.8950  178.3900  139.2880 C   0  0  0  0  0  2  0  0  0  0  0  0
  181.3340  177.0730  139.7810 C   0  0  0  0  0  1  0  0  0  0  0  0
  1  5  1  0  0  0  0
  2 13  1  0  0  0  0
  3 10  1  0  0  0  0
  3 16  1  0  0  0  0
  4  9  1  0  0  0  0
  5  9  2  0  0  0  0
  6  4  2  0  0  0  0
  7  8  2  0  0  0  0
  8  6  1  0  0  0  0
  9 27  1  0  0  0  0
 10 11  1  0  0  0  0
 11  6  1  0  0  0  0
 11  1  2  0  0  0  0
 12  7  1  0  0  0  0
 12 10  2  0  0  0  0
 13 14  1  0  0  0  0
 14 32  1  1  0  0  0
 14 15  1  0  0  0  0
 15 17  1  0  0  0  0
 16  2  1  1  0  0  0
 16 18  1  0  0  0  0
 18  1  1  0  0  0  0
 18 17  1  1  0  0  0
 19 23  1  0  0  0  0
 20 25  1  0  0  0  0
 21 29  1  1  0  0  0
 22 21  1  0  0  0  0
 23 22  1  0  0  0  0
 24 26  1  6  0  0  0
 24 21  1  0  0  0  0
 25 23  2  0  0  0  0
 25 24  1  0  0  0  0
 27 28  1  0  0  0  0
 27 20  2  0  0  0  0
 28 19  2  0  0  0  0
 29 30  2  0  0  0  0
 29 31  1  0  0  0  0
 32 33  1  0  0  0  0
 33 34  1  0  0  0  0
M  END
>  <MODEL>
9

>  <REMARK>
 VINA RESULT:      -8.4      3.423      6.629
  Name = 
  4 active torsions:
  status: ('A' for Active; 'I' for Inactive)
    1  A    between atoms: C_3  and  C_13
    2  A    between atoms: C_3  and  C_25
    3  A    between atoms: C_7  and  C_11
    4  A    between atoms: C_18  and  C_30
                            x       y       z     vdW  Elec       q    Type
                         _______ _______ _______ _____ _____    ______ ____

>  <TORSDO>
F 4

$$$$
