=
 OpenBabel10272413273D

 32 36  0  0  1  0  0  0  0  0999 V2000
  184.2110  179.2760  139.6660 C   0  0  1  0  0  3  0  0  0  0  0  0
  186.8340  177.3530  142.9740 C   0  0  0  0  0  2  0  0  0  0  0  0
  189.9710  177.2120  138.2000 C   0  0  0  0  0  2  0  0  0  0  0  0
  190.8760  176.4430  139.1750 C   0  0  0  0  0  2  0  0  0  0  0  0
  184.7270  178.0470  141.8230 C   0  0  2  0  0  3  0  0  0  0  0  0
  186.5520  179.4340  140.5590 C   0  0  0  0  0  2  0  0  0  0  0  0
  184.4490  180.4360  138.9250 O   0  0  0  0  0  1  0  0  0  0  0  0
  188.5880  177.4930  138.7820 C   0  0  0  0  0  2  0  0  0  0  0  0
  187.4250  178.2230  140.8650 C   0  0  1  0  0  3  0  0  0  0  0  0
  188.7140  178.2920  140.0820 C   0  0  1  0  0  3  0  0  0  0  0  0
  189.0970  177.6340  142.3790 C   0  0  2  0  0  3  0  0  0  0  0  0
  182.4020  177.9780  140.8520 C   0  0  1  0  0  3  0  0  0  0  0  0
  185.0650  179.2770  140.9430 C   0  0  1  0  0  3  0  0  0  0  0  0
  183.2320  178.0010  142.1320 C   0  0  0  0  0  2  0  0  0  0  0  0
  182.7230  179.2060  140.0010 C   0  0  0  0  0  2  0  0  0  0  0  0
  190.3340  176.3940  140.6060 C   0  0  0  0  0  2  0  0  0  0  0  0
  189.7860  177.7570  141.0320 C   0  0  1  0  0  3  0  0  0  0  0  0
  185.4890  178.0470  143.1410 C   0  0  0  0  0  2  0  0  0  0  0  0
  187.7680  178.2280  142.2810 N   0  0  2  0  0  0  0  0  0  0  0  0
  182.6470  176.7760  140.1300 O   0  0  0  0  0  0  0  0  0  0  0  0
  181.6120  176.0140  139.5870 C   0  0  0  0  0  0  0  0  0  0  0  0
  180.3080  176.1530  140.0480 O   0  0  0  0  0  1  0  0  0  0  0  0
  181.8620  175.1870  138.6720 O   0  0  0  0  0  0  0  0  0  0  0  0
  189.9280  178.2520  143.5170 C   0  0  0  0  0  2  0  0  0  0  0  0
  189.3060  178.0040  145.9710 C   0  0  0  0  0  2  0  0  0  0  0  0
  189.3180  177.0170  147.1380 C   0  0  1  0  0  3  0  0  0  0  0  0
  191.7000  176.5460  146.5390 C   0  0  0  0  0  3  0  0  0  0  0  0
  190.7070  176.5160  147.4410 C   0  0  0  0  0  3  0  0  0  0  0  0
  191.5500  177.1760  145.1790 C   0  0  0  0  0  2  0  0  0  0  0  0
  190.0870  177.4180  144.7980 C   0  0  2  0  0  3  0  0  0  0  0  0
  188.7280  177.6370  148.3610 C   0  0  0  0  0  3  0  0  0  0  0  0
  187.6500  178.4130  148.2820 C   0  0  0  0  0  2  0  0  0  0  0  0
  1  7  1  1  0  0  0
  1 15  1  0  0  0  0
  1 13  1  0  0  0  0
  2 18  1  0  0  0  0
  3  8  1  0  0  0  0
  3  4  1  0  0  0  0
  4 16  1  0  0  0  0
  5 14  1  1  0  0  0
  5 18  1  0  0  0  0
  9  6  1  1  0  0  0
  9 19  1  0  0  0  0
 10  8  1  6  0  0  0
 10  9  1  0  0  0  0
 10 17  1  0  0  0  0
 11 24  1  1  0  0  0
 12 20  1  6  0  0  0
 12 14  1  0  0  0  0
 13  6  1  6  0  0  0
 13  5  1  0  0  0  0
 15 12  1  0  0  0  0
 17 16  1  6  0  0  0
 17 11  1  0  0  0  0
 19 11  1  0  0  0  0
 19  2  1  1  0  0  0
 21 22  1  0  0  0  0
 21 20  1  0  0  0  0
 23 21  2  0  0  0  0
 25 26  1  0  0  0  0
 26 28  1  0  0  0  0
 26 31  1  1  0  0  0
 27 28  2  0  0  0  0
 29 27  1  0  0  0  0
 30 24  1  6  0  0  0
 30 29  1  0  0  0  0
 30 25  1  0  0  0  0
 32 31  2  0  0  0  0
M  END
>  <MODEL>
1

>  <REMARK>
 VINA RESULT:      -8.5      0.000      0.000
  Name = 
  5 active torsions:
  status: ('A' for Active; 'I' for Inactive)
    1  A    between atoms: C_1  and  O_17
    2  A    between atoms: C_7  and  C_22
    3  A    between atoms: C_16  and  C_27
    4  A    between atoms: O_17  and  C_19
    5  A    between atoms: C_27  and  C_32
                            x       y       z     vdW  Elec       q    Type
                         _______ _______ _______ _____ _____    ______ ____

>  <TORSDO>
F 5

$$$$
=
 OpenBabel10272413273D

 32 36  0  0  1  0  0  0  0  0999 V2000
  191.6390  176.1760  137.6500 C   0  0  1  0  0  3  0  0  0  0  0  0
  187.3630  177.2760  139.0750 C   0  0  0  0  0  2  0  0  0  0  0  0
  190.3900  176.2650  143.8160 C   0  0  0  0  0  2  0  0  0  0  0  0
  188.9850  176.4850  144.3990 C   0  0  0  0  0  2  0  0  0  0  0  0
  189.1190  176.4180  137.5160 C   0  0  2  0  0  3  0  0  0  0  0  0
  190.5280  177.6800  139.3240 C   0  0  0  0  0  2  0  0  0  0  0  0
  192.8410  176.8440  137.8940 O   0  0  0  0  0  1  0  0  0  0  0  0
  190.3840  176.1800  142.2910 C   0  0  0  0  0  2  0  0  0  0  0  0
  189.4050  177.2320  140.2520 C   0  0  1  0  0  3  0  0  0  0  0  0
  189.7900  177.4590  141.6940 C   0  0  1  0  0  3  0  0  0  0  0  0
  187.5160  178.1590  141.2550 C   0  0  2  0  0  3  0  0  0  0  0  0
  190.3380  174.9550  135.8660 C   0  0  1  0  0  3  0  0  0  0  0  0
  190.4500  177.1180  137.8890 C   0  0  1  0  0  3  0  0  0  0  0  0
  189.1640  175.9060  136.0780 C   0  0  0  0  0  2  0  0  0  0  0  0
  191.6490  175.6590  136.2130 C   0  0  0  0  0  2  0  0  0  0  0  0
  187.9410  176.8810  143.3520 C   0  0  0  0  0  2  0  0  0  0  0  0
  188.5050  177.9210  142.3810 C   0  0  1  0  0  3  0  0  0  0  0  0
  187.9160  177.3410  137.6570 C   0  0  0  0  0  2  0  0  0  0  0  0
  188.2170  178.0310  139.9820 N   0  0  2  0  0  0  0  0  0  0  0  0
  190.1660  173.7790  136.6510 O   0  0  0  0  0  0  0  0  0  0  0  0
  189.1640  172.8470  136.3790 C   0  0  0  0  0  0  0  0  0  0  0  0
  189.1670  172.1240  135.1930 O   0  0  0  0  0  0  0  0  0  0  0  0
  188.2440  172.6610  137.2170 O   0  0  0  0  0  1  0  0  0  0  0  0
  186.7960  179.5130  141.3890 C   0  0  0  0  0  2  0  0  0  0  0  0
  185.3070  179.1580  143.4190 C   0  0  0  0  0  2  0  0  0  0  0  0
  183.8870  179.3730  143.9420 C   0  0  1  0  0  3  0  0  0  0  0  0
  183.0870  178.3890  141.7870 C   0  0  0  0  0  3  0  0  0  0  0  0
  182.8540  178.7060  143.0710 C   0  0  0  0  0  3  0  0  0  0  0  0
  184.4310  178.5720  141.1310 C   0  0  0  0  0  2  0  0  0  0  0  0
  185.3590  179.4900  141.9310 C   0  0  2  0  0  3  0  0  0  0  0  0
  183.7590  178.8780  145.3450 C   0  0  0  0  0  3  0  0  0  0  0  0
  184.8350  178.5490  146.0550 C   0  0  0  0  0  2  0  0  0  0  0  0
  1 13  1  0  0  0  0
  1  7  1  6  0  0  0
  3  4  1  0  0  0  0
  5 14  1  6  0  0  0
  5 18  1  0  0  0  0
  5 13  1  0  0  0  0
  8  3  1  0  0  0  0
  9  6  1  6  0  0  0
  9 10  1  0  0  0  0
 10  8  1  1  0  0  0
 10 17  1  0  0  0  0
 11 24  1  1  0  0  0
 11 17  1  0  0  0  0
 12 14  1  0  0  0  0
 12 15  1  0  0  0  0
 12 20  1  1  0  0  0
 13  6  1  1  0  0  0
 15  1  1  0  0  0  0
 16  4  1  0  0  0  0
 17 16  1  1  0  0  0
 18  2  1  0  0  0  0
 19  2  1  6  0  0  0
 19  9  1  0  0  0  0
 19 11  1  0  0  0  0
 21 20  1  0  0  0  0
 21 23  1  0  0  0  0
 22 21  2  0  0  0  0
 25 26  1  0  0  0  0
 26 31  1  1  0  0  0
 27 28  2  0  0  0  0
 28 26  1  0  0  0  0
 29 27  1  0  0  0  0
 29 30  1  0  0  0  0
 30 24  1  6  0  0  0
 30 25  1  0  0  0  0
 31 32  2  0  0  0  0
M  END
>  <MODEL>
2

>  <REMARK>
 VINA RESULT:      -7.5      3.485      6.734
  Name = 
  5 active torsions:
  status: ('A' for Active; 'I' for Inactive)
    1  A    between atoms: C_1  and  O_17
    2  A    between atoms: C_7  and  C_22
    3  A    between atoms: C_16  and  C_27
    4  A    between atoms: O_17  and  C_19
    5  A    between atoms: C_27  and  C_32
                            x       y       z     vdW  Elec       q    Type
                         _______ _______ _______ _____ _____    ______ ____

>  <TORSDO>
F 5

$$$$
=
 OpenBabel10272413273D

 32 36  0  0  1  0  0  0  0  0999 V2000
  181.5070  178.6100  140.0700 C   0  0  1  0  0  3  0  0  0  0  0  0
  186.1090  178.7750  140.6310 C   0  0  0  0  0  2  0  0  0  0  0  0
  183.8740  179.0350  145.8840 C   0  0  0  0  0  2  0  0  0  0  0  0
  185.3680  179.2290  146.1860 C   0  0  0  0  0  2  0  0  0  0  0  0
  183.9230  179.0720  139.4560 C   0  0  2  0  0  3  0  0  0  0  0  0
  183.2860  177.5170  141.4630 C   0  0  0  0  0  2  0  0  0  0  0  0
  180.6050  177.6420  140.5190 O   0  0  0  0  0  1  0  0  0  0  0  0
  183.5670  179.0770  144.3890 C   0  0  0  0  0  2  0  0  0  0  0  0
  184.3950  178.2840  142.1730 C   0  0  1  0  0  3  0  0  0  0  0  0
  184.3680  177.9980  143.6560 C   0  0  1  0  0  3  0  0  0  0  0  0
  186.6220  177.9430  142.7760 C   0  0  2  0  0  3  0  0  0  0  0  0
  182.0570  180.0960  138.1070 C   0  0  1  0  0  3  0  0  0  0  0  0
  182.9330  178.0410  140.0550 C   0  0  1  0  0  3  0  0  0  0  0  0
  183.4660  179.5120  138.0670 C   0  0  0  0  0  2  0  0  0  0  0  0
  181.0830  179.0650  138.6750 C   0  0  0  0  0  2  0  0  0  0  0  0
  186.2640  179.1090  144.9490 C   0  0  0  0  0  2  0  0  0  0  0  0
  185.8370  177.9290  144.0750 C   0  0  1  0  0  3  0  0  0  0  0  0
  185.3380  178.5220  139.3420 C   0  0  0  0  0  2  0  0  0  0  0  0
  185.6850  177.8390  141.6620 N   0  0  2  0  0  0  0  0  0  0  0  0
  182.0420  181.2930  138.8770 O   0  0  0  0  0  0  0  0  0  0  0  0
  181.4450  182.4660  138.4120 C   0  0  0  0  0  0  0  0  0  0  0  0
  180.0620  182.5930  138.3710 O   0  0  0  0  0  1  0  0  0  0  0  0
  182.1680  183.4190  138.0220 O   0  0  0  0  0  0  0  0  0  0  0  0
  187.7000  176.8460  142.7340 C   0  0  0  0  0  2  0  0  0  0  0  0
  188.9500  176.9780  144.9460 C   0  0  0  0  0  2  0  0  0  0  0  0
  190.3500  177.0710  145.5500 C   0  0  1  0  0  3  0  0  0  0  0  0
  190.7920  178.9050  143.9090 C   0  0  0  0  0  3  0  0  0  0  0  0
  191.1030  178.2790  145.0550 C   0  0  0  0  0  3  0  0  0  0  0  0
  189.6020  178.5250  143.0670 C   0  0  0  0  0  2  0  0  0  0  0  0
  189.0350  177.1510  143.4320 C   0  0  2  0  0  3  0  0  0  0  0  0
  190.2820  177.0970  147.0420 C   0  0  0  0  0  3  0  0  0  0  0  0
  189.1960  177.5410  147.6690 C   0  0  0  0  0  2  0  0  0  0  0  0
  1  7  1  6  0  0  0
  3  4  1  0  0  0  0
  5 14  1  6  0  0  0
  5 13  1  0  0  0  0
  8  3  1  0  0  0  0
  9  6  1  6  0  0  0
  9 10  1  0  0  0  0
 10 17  1  0  0  0  0
 10  8  1  1  0  0  0
 11 24  1  1  0  0  0
 11 17  1  0  0  0  0
 12 15  1  0  0  0  0
 12 20  1  1  0  0  0
 13  1  1  0  0  0  0
 13  6  1  1  0  0  0
 14 12  1  0  0  0  0
 15  1  1  0  0  0  0
 16  4  1  0  0  0  0
 17 16  1  1  0  0  0
 18  5  1  0  0  0  0
 18  2  1  0  0  0  0
 19  2  1  6  0  0  0
 19  9  1  0  0  0  0
 19 11  1  0  0  0  0
 21 20  1  0  0  0  0
 22 21  1  0  0  0  0
 23 21  2  0  0  0  0
 25 26  1  0  0  0  0
 26 31  1  1  0  0  0
 27 28  2  0  0  0  0
 28 26  1  0  0  0  0
 29 30  1  0  0  0  0
 29 27  1  0  0  0  0
 30 24  1  6  0  0  0
 30 25  1  0  0  0  0
 31 32  2  0  0  0  0
M  END
>  <MODEL>
3

>  <REMARK>
 VINA RESULT:      -7.2      2.071      4.753
  Name = 
  5 active torsions:
  status: ('A' for Active; 'I' for Inactive)
    1  A    between atoms: C_1  and  O_17
    2  A    between atoms: C_7  and  C_22
    3  A    between atoms: C_16  and  C_27
    4  A    between atoms: O_17  and  C_19
    5  A    between atoms: C_27  and  C_32
                            x       y       z     vdW  Elec       q    Type
                         _______ _______ _______ _____ _____    ______ ____

>  <TORSDO>
F 5

$$$$
=
 OpenBabel10272413273D

 32 36  0  0  1  0  0  0  0  0999 V2000
  188.5460  177.3000  135.8380 C   0  0  1  0  0  3  0  0  0  0  0  0
  185.5050  177.9120  139.2880 C   0  0  0  0  0  2  0  0  0  0  0  0
  190.4610  176.5470  141.7840 C   0  0  0  0  0  2  0  0  0  0  0  0
  189.5180  176.5930  142.9970 C   0  0  0  0  0  2  0  0  0  0  0  0
  186.2790  177.3770  136.9720 C   0  0  2  0  0  3  0  0  0  0  0  0
  188.3890  178.5060  138.0340 C   0  0  0  0  0  2  0  0  0  0  0  0
  189.7130  178.0160  135.5640 O   0  0  0  0  0  1  0  0  0  0  0  0
  189.7130  176.6490  140.4560 C   0  0  0  0  0  2  0  0  0  0  0  0
  187.8620  177.8690  139.3140 C   0  0  1  0  0  3  0  0  0  0  0  0
  188.9000  177.9450  140.4070 C   0  0  1  0  0  3  0  0  0  0  0  0
  186.6990  178.5310  141.2240 C   0  0  2  0  0  3  0  0  0  0  0  0
  186.5430  176.2160  134.7510 C   0  0  1  0  0  3  0  0  0  0  0  0
  187.6220  178.1190  136.7510 C   0  0  1  0  0  3  0  0  0  0  0  0
  185.6200  177.0490  135.6340 C   0  0  0  0  0  2  0  0  0  0  0  0
  187.8550  176.9640  134.5180 C   0  0  0  0  0  2  0  0  0  0  0  0
  188.0950  177.0400  142.6510 C   0  0  0  0  0  2  0  0  0  0  0  0
  188.1110  178.2270  141.6860 C   0  0  1  0  0  3  0  0  0  0  0  0
  185.2960  178.1890  137.8050 C   0  0  0  0  0  2  0  0  0  0  0  0
  186.6900  178.6090  139.7660 N   0  0  2  0  0  0  0  0  0  0  0  0
  186.7780  174.9450  135.3470 O   0  0  0  0  0  0  0  0  0  0  0  0
  185.7600  174.0050  135.5130 C   0  0  0  0  0  0  0  0  0  0  0  0
  185.0080  173.5710  134.4280 O   0  0  0  0  0  0  0  0  0  0  0  0
  185.5190  173.5470  136.6590 O   0  0  0  0  0  1  0  0  0  0  0  0
  186.1320  179.8040  141.8770 C   0  0  0  0  0  2  0  0  0  0  0  0
  185.5940  179.0520  144.2460 C   0  0  0  0  0  2  0  0  0  0  0  0
  184.5130  179.1030  145.3260 C   0  0  1  0  0  3  0  0  0  0  0  0
  182.8910  178.4270  143.5460 C   0  0  0  0  0  3  0  0  0  0  0  0
  183.2060  178.5260  144.8470 C   0  0  0  0  0  3  0  0  0  0  0  0
  183.8540  178.7860  142.4430 C   0  0  0  0  0  2  0  0  0  0  0  0
  185.0400  179.6160  142.9420 C   0  0  2  0  0  3  0  0  0  0  0  0
  184.9600  178.3860  146.5570 C   0  0  0  0  0  3  0  0  0  0  0  0
  186.2260  178.0050  146.7050 C   0  0  0  0  0  2  0  0  0  0  0  0
  1  7  1  6  0  0  0
  1 13  1  0  0  0  0
  3  4  1  0  0  0  0
  5 14  1  6  0  0  0
  5 18  1  0  0  0  0
  8  3  1  0  0  0  0
  9  6  1  6  0  0  0
  9 19  1  0  0  0  0
  9 10  1  0  0  0  0
 10  8  1  1  0  0  0
 10 17  1  0  0  0  0
 11 17  1  0  0  0  0
 11 24  1  1  0  0  0
 12 20  1  1  0  0  0
 12 14  1  0  0  0  0
 13  5  1  0  0  0  0
 13  6  1  1  0  0  0
 15 12  1  0  0  0  0
 15  1  1  0  0  0  0
 16  4  1  0  0  0  0
 17 16  1  1  0  0  0
 18  2  1  0  0  0  0
 19  2  1  6  0  0  0
 19 11  1  0  0  0  0
 20 21  1  0  0  0  0
 21 23  1  0  0  0  0
 22 21  2  0  0  0  0
 25 26  1  0  0  0  0
 26 31  1  1  0  0  0
 27 28  2  0  0  0  0
 28 26  1  0  0  0  0
 29 30  1  0  0  0  0
 29 27  1  0  0  0  0
 30 24  1  6  0  0  0
 30 25  1  0  0  0  0
 31 32  2  0  0  0  0
M  END
>  <MODEL>
4

>  <REMARK>
 VINA RESULT:      -7.1      3.107      5.407
  Name = 
  5 active torsions:
  status: ('A' for Active; 'I' for Inactive)
    1  A    between atoms: C_1  and  O_17
    2  A    between atoms: C_7  and  C_22
    3  A    between atoms: C_16  and  C_27
    4  A    between atoms: O_17  and  C_19
    5  A    between atoms: C_27  and  C_32
                            x       y       z     vdW  Elec       q    Type
                         _______ _______ _______ _____ _____    ______ ____

>  <TORSDO>
F 5

$$$$
=
 OpenBabel10272413273D

 32 36  0  0  1  0  0  0  0  0999 V2000
  192.8660  174.1240  134.9880 C   0  0  1  0  0  3  0  0  0  0  0  0
  192.5100  176.4870  138.9650 C   0  0  0  0  0  2  0  0  0  0  0  0
  187.9560  177.9640  135.8450 C   0  0  0  0  0  2  0  0  0  0  0  0
  187.8000  178.8930  137.0590 C   0  0  0  0  0  2  0  0  0  0  0  0
  193.6580  175.2760  137.1040 C   0  0  2  0  0  3  0  0  0  0  0  0
  191.1490  174.6200  136.7500 C   0  0  0  0  0  2  0  0  0  0  0  0
  192.0060  173.1570  134.4660 O   0  0  0  0  0  1  0  0  0  0  0  0
  189.2940  177.2280  135.8380 C   0  0  0  0  0  2  0  0  0  0  0  0
  190.8940  176.0120  137.3160 C   0  0  1  0  0  3  0  0  0  0  0  0
  189.4490  176.4050  137.1190 C   0  0  1  0  0  3  0  0  0  0  0  0
  190.2320  176.9620  139.3400 C   0  0  2  0  0  3  0  0  0  0  0  0
  195.3040  174.7070  135.2820 C   0  0  1  0  0  3  0  0  0  0  0  0
  192.6340  174.2830  136.4980 C   0  0  1  0  0  3  0  0  0  0  0  0
  195.0860  174.8360  136.7870 C   0  0  0  0  0  2  0  0  0  0  0  0
  194.3070  173.7090  134.6960 C   0  0  0  0  0  2  0  0  0  0  0  0
  188.8500  178.6590  138.1490 C   0  0  0  0  0  2  0  0  0  0  0  0
  189.0660  177.1640  138.3900 C   0  0  1  0  0  3  0  0  0  0  0  0
  193.5210  175.4030  138.6150 C   0  0  0  0  0  2  0  0  0  0  0  0
  191.1550  175.9990  138.7500 N   0  0  2  0  0  0  0  0  0  0  0  0
  195.1820  175.9800  134.6570 O   0  0  0  0  0  0  0  0  0  0  0  0
  195.9110  177.0890  135.0860 C   0  0  0  0  0  0  0  0  0  0  0  0
  197.2400  176.9630  135.4710 O   0  0  0  0  0  1  0  0  0  0  0  0
  195.3570  178.2180  135.1290 O   0  0  0  0  0  0  0  0  0  0  0  0
  189.7710  176.5380  140.7470 C   0  0  0  0  0  2  0  0  0  0  0  0
  190.6900  176.1980  143.0940 C   0  0  0  0  0  2  0  0  0  0  0  0
  191.6070  176.8210  144.1460 C   0  0  1  0  0  3  0  0  0  0  0  0
  190.4120  178.9760  143.7180 C   0  0  0  0  0  3  0  0  0  0  0  0
  191.1770  178.2170  144.5180 C   0  0  0  0  0  3  0  0  0  0  0  0
  189.8290  178.4700  142.4240 C   0  0  0  0  0  2  0  0  0  0  0  0
  190.4950  177.1790  141.9410 C   0  0  2  0  0  3  0  0  0  0  0  0
  191.6640  175.9680  145.3690 C   0  0  0  0  0  3  0  0  0  0  0  0
  191.5990  176.5080  146.5840 C   0  0  0  0  0  2  0  0  0  0  0  0
  1  7  1  1  0  0  0
  1 13  1  0  0  0  0
  3  4  1  0  0  0  0
  4 16  1  0  0  0  0
  5 14  1  1  0  0  0
  5 18  1  0  0  0  0
  8  3  1  0  0  0  0
  9  6  1  1  0  0  0
  9 19  1  0  0  0  0
 10  8  1  6  0  0  0
 10  9  1  0  0  0  0
 10 17  1  0  0  0  0
 11 24  1  1  0  0  0
 12 20  1  6  0  0  0
 12 14  1  0  0  0  0
 13  6  1  6  0  0  0
 13  5  1  0  0  0  0
 15  1  1  0  0  0  0
 15 12  1  0  0  0  0
 17 16  1  6  0  0  0
 17 11  1  0  0  0  0
 18  2  1  0  0  0  0
 19  2  1  6  0  0  0
 19 11  1  0  0  0  0
 20 21  1  0  0  0  0
 21 23  2  0  0  0  0
 21 22  1  0  0  0  0
 25 26  1  0  0  0  0
 26 28  1  0  0  0  0
 26 31  1  1  0  0  0
 27 28  2  0  0  0  0
 29 27  1  0  0  0  0
 30 24  1  6  0  0  0
 30 29  1  0  0  0  0
 30 25  1  0  0  0  0
 31 32  2  0  0  0  0
M  END
>  <MODEL>
5

>  <REMARK>
 VINA RESULT:      -6.7      5.445      8.735
  Name = 
  5 active torsions:
  status: ('A' for Active; 'I' for Inactive)
    1  A    between atoms: C_1  and  O_17
    2  A    between atoms: C_7  and  C_22
    3  A    between atoms: C_16  and  C_27
    4  A    between atoms: O_17  and  C_19
    5  A    between atoms: C_27  and  C_32
                            x       y       z     vdW  Elec       q    Type
                         _______ _______ _______ _____ _____    ______ ____

>  <TORSDO>
F 5

$$$$
=
 OpenBabel10272413273D

 32 36  0  0  1  0  0  0  0  0999 V2000
  180.5330  177.4170  138.7070 C   0  0  1  0  0  3  0  0  0  0  0  0
  184.7220  179.3220  139.2960 C   0  0  0  0  0  2  0  0  0  0  0  0
  182.4870  178.7880  144.5280 C   0  0  0  0  0  2  0  0  0  0  0  0
  183.7930  179.5380  144.8360 C   0  0  0  0  0  2  0  0  0  0  0  0
  182.6020  178.7520  138.1010 C   0  0  2  0  0  3  0  0  0  0  0  0
  182.5750  177.1000  140.1310 C   0  0  0  0  0  2  0  0  0  0  0  0
  180.0590  176.1870  139.1670 O   0  0  0  0  0  1  0  0  0  0  0  0
  182.2070  178.6910  143.0310 C   0  0  0  0  0  2  0  0  0  0  0  0
  183.3020  178.2390  140.8350 C   0  0  1  0  0  3  0  0  0  0  0  0
  183.3660  177.9850  142.3230 C   0  0  1  0  0  3  0  0  0  0  0  0
  185.4840  178.7760  141.4590 C   0  0  2  0  0  3  0  0  0  0  0  0
  180.5050  178.9730  136.7210 C   0  0  1  0  0  3  0  0  0  0  0  0
  182.0680  177.4310  138.7110 C   0  0  1  0  0  3  0  0  0  0  0  0
  182.0300  178.9670  136.7010 C   0  0  0  0  0  2  0  0  0  0  0  0
  179.9860  177.6590  137.3020 C   0  0  0  0  0  2  0  0  0  0  0  0
  184.6830  179.7490  143.6080 C   0  0  0  0  0  2  0  0  0  0  0  0
  184.7460  178.4830  142.7520 C   0  0  1  0  0  3  0  0  0  0  0  0
  184.1210  178.7770  138.0070 C   0  0  0  0  0  2  0  0  0  0  0  0
  184.6710  178.3090  140.3410 N   0  0  2  0  0  0  0  0  0  0  0  0
  180.0280  180.0870  137.4700 O   0  0  0  0  0  0  0  0  0  0  0  0
  180.5550  181.3690  137.3080 C   0  0  0  0  0  0  0  0  0  0  0  0
  180.8150  182.1750  138.4100 O   0  0  0  0  0  1  0  0  0  0  0  0
  180.7960  181.8010  136.1520 O   0  0  0  0  0  0  0  0  0  0  0  0
  186.8980  178.1680  141.4440 C   0  0  0  0  0  2  0  0  0  0  0  0
  189.1810  178.3520  142.5500 C   0  0  0  0  0  2  0  0  0  0  0  0
  189.8680  178.5890  143.8940 C   0  0  1  0  0  3  0  0  0  0  0  0
  188.3040  176.8850  144.8440 C   0  0  0  0  0  3  0  0  0  0  0  0
  189.4490  177.5800  144.9320 C   0  0  0  0  0  3  0  0  0  0  0  0
  187.3840  176.9730  143.6540 C   0  0  0  0  0  2  0  0  0  0  0  0
  187.6800  178.1850  142.7670 C   0  0  2  0  0  3  0  0  0  0  0  0
  191.3530  178.5670  143.7400 C   0  0  0  0  0  3  0  0  0  0  0  0
  191.9530  177.6120  143.0350 C   0  0  0  0  0  2  0  0  0  0  0  0
  1 13  1  0  0  0  0
  1  7  1  6  0  0  0
  3  4  1  0  0  0  0
  5 14  1  6  0  0  0
  5 13  1  0  0  0  0
  8  3  1  0  0  0  0
  9  6  1  6  0  0  0
  9 10  1  0  0  0  0
 10 17  1  0  0  0  0
 10  8  1  1  0  0  0
 11 24  1  1  0  0  0
 11 17  1  0  0  0  0
 12 15  1  0  0  0  0
 12 20  1  1  0  0  0
 13  6  1  1  0  0  0
 14 12  1  0  0  0  0
 15  1  1  0  0  0  0
 16  4  1  0  0  0  0
 17 16  1  1  0  0  0
 18  5  1  0  0  0  0
 18  2  1  0  0  0  0
 19  2  1  6  0  0  0
 19  9  1  0  0  0  0
 19 11  1  0  0  0  0
 21 20  1  0  0  0  0
 21 22  1  0  0  0  0
 23 21  2  0  0  0  0
 25 30  1  0  0  0  0
 25 26  1  0  0  0  0
 26 31  1  6  0  0  0
 26 28  1  0  0  0  0
 27 28  2  0  0  0  0
 29 27  1  0  0  0  0
 30 24  1  6  0  0  0
 30 29  1  0  0  0  0
 32 31  2  0  0  0  0
M  END
>  <MODEL>
6

>  <REMARK>
 VINA RESULT:      -6.6      2.394      5.488
  Name = 
  5 active torsions:
  status: ('A' for Active; 'I' for Inactive)
    1  A    between atoms: C_1  and  O_17
    2  A    between atoms: C_7  and  C_22
    3  A    between atoms: C_16  and  C_27
    4  A    between atoms: O_17  and  C_19
    5  A    between atoms: C_27  and  C_32
                            x       y       z     vdW  Elec       q    Type
                         _______ _______ _______ _____ _____    ______ ____

>  <TORSDO>
F 5

$$$$
=
 OpenBabel10272413273D

 32 36  0  0  1  0  0  0  0  0999 V2000
  186.2330  178.3020  140.0140 C   0  0  1  0  0  3  0  0  0  0  0  0
  190.4280  176.6250  138.9610 C   0  0  0  0  0  2  0  0  0  0  0  0
  186.6730  173.3020  136.2200 C   0  0  0  0  0  2  0  0  0  0  0  0
  187.9930  172.5810  135.9070 C   0  0  0  0  0  2  0  0  0  0  0  0
  188.7020  177.8180  140.3200 C   0  0  2  0  0  3  0  0  0  0  0  0
  187.5320  177.5820  137.9910 C   0  0  0  0  0  2  0  0  0  0  0  0
  185.2710  178.8510  139.1620 O   0  0  0  0  0  1  0  0  0  0  0  0
  186.8420  174.4120  137.2560 C   0  0  0  0  0  2  0  0  0  0  0  0
  188.3400  176.2920  137.9180 C   0  0  1  0  0  3  0  0  0  0  0  0
  187.8670  175.4380  136.7670 C   0  0  1  0  0  3  0  0  0  0  0  0
  190.2830  175.5240  136.8820 C   0  0  2  0  0  3  0  0  0  0  0  0
  187.3090  178.5740  142.2790 C   0  0  1  0  0  3  0  0  0  0  0  0
  187.6130  178.3250  139.3420 C   0  0  1  0  0  3  0  0  0  0  0  0
  188.6810  178.6280  141.6150 C   0  0  0  0  0  2  0  0  0  0  0  0
  186.2440  179.0980  141.3170 C   0  0  0  0  0  2  0  0  0  0  0  0
  189.2310  173.3080  136.4430 C   0  0  0  0  0  2  0  0  0  0  0  0
  189.1360  174.8130  136.1870 C   0  0  1  0  0  3  0  0  0  0  0  0
  190.1020  177.9010  139.7270 C   0  0  0  0  0  2  0  0  0  0  0  0
  189.7400  176.6200  137.6780 N   0  0  2  0  0  0  0  0  0  0  0  0
  187.0150  177.2440  142.6930 O   0  0  0  0  0  0  0  0  0  0  0  0
  187.8830  176.5120  143.5050 C   0  0  0  0  0  0  0  0  0  0  0  0
  188.0890  176.8690  144.8320 O   0  0  0  0  0  1  0  0  0  0  0  0
  188.4890  175.5170  143.0280 O   0  0  0  0  0  0  0  0  0  0  0  0
  191.3590  176.0020  135.8920 C   0  0  0  0  0  2  0  0  0  0  0  0
  193.0870  174.6450  137.1740 C   0  0  0  0  0  2  0  0  0  0  0  0
  194.2340  173.6520  136.9940 C   0  0  1  0  0  3  0  0  0  0  0  0
  195.1110  175.1880  135.2270 C   0  0  0  0  0  3  0  0  0  0  0  0
  195.3240  174.1970  136.1080 C   0  0  0  0  0  3  0  0  0  0  0  0
  193.7960  175.9150  135.1170 C   0  0  0  0  0  2  0  0  0  0  0  0
  192.6510  175.1730  135.8100 C   0  0  2  0  0  3  0  0  0  0  0  0
  194.8080  173.2620  138.3160 C   0  0  0  0  0  3  0  0  0  0  0  0
  195.7160  174.0250  138.9190 C   0  0  0  0  0  2  0  0  0  0  0  0
  1  7  1  6  0  0  0
  1 15  1  0  0  0  0
  2 18  1  0  0  0  0
  3  8  1  0  0  0  0
  4  3  1  0  0  0  0
  4 16  1  0  0  0  0
  5 18  1  6  0  0  0
  5 14  1  0  0  0  0
  9  6  1  6  0  0  0
 10  8  1  1  0  0  0
 10  9  1  0  0  0  0
 11 24  1  6  0  0  0
 11 19  1  0  0  0  0
 12 20  1  6  0  0  0
 13  6  1  6  0  0  0
 13  1  1  0  0  0  0
 13  5  1  0  0  0  0
 14 12  1  0  0  0  0
 15 12  1  0  0  0  0
 17 16  1  1  0  0  0
 17 10  1  0  0  0  0
 17 11  1  0  0  0  0
 19  9  1  0  0  0  0
 19  2  1  1  0  0  0
 20 21  1  0  0  0  0
 21 22  1  0  0  0  0
 23 21  2  0  0  0  0
 26 25  1  0  0  0  0
 26 31  1  1  0  0  0
 27 28  2  0  0  0  0
 28 26  1  0  0  0  0
 29 27  1  0  0  0  0
 29 30  1  0  0  0  0
 30 24  1  1  0  0  0
 30 25  1  0  0  0  0
 31 32  2  0  0  0  0
M  END
>  <MODEL>
7

>  <REMARK>
 VINA RESULT:      -6.3      3.938      7.453
  Name = 
  5 active torsions:
  status: ('A' for Active; 'I' for Inactive)
    1  A    between atoms: C_1  and  O_17
    2  A    between atoms: C_7  and  C_22
    3  A    between atoms: C_16  and  C_27
    4  A    between atoms: O_17  and  C_19
    5  A    between atoms: C_27  and  C_32
                            x       y       z     vdW  Elec       q    Type
                         _______ _______ _______ _____ _____    ______ ____

>  <TORSDO>
F 5

$$$$
=
 OpenBabel10272413273D

 32 36  0  0  1  0  0  0  0  0999 V2000
  187.9970  177.7200  139.3110 C   0  0  1  0  0  3  0  0  0  0  0  0
  191.2100  174.8300  137.6240 C   0  0  0  0  0  2  0  0  0  0  0  0
  186.1620  172.6550  136.0600 C   0  0  0  0  0  2  0  0  0  0  0  0
  187.1240  171.5620  135.5670 C   0  0  0  0  0  2  0  0  0  0  0  0
  190.2360  176.5390  139.1660 C   0  0  2  0  0  3  0  0  0  0  0  0
  188.5590  176.5600  137.1570 C   0  0  0  0  0  2  0  0  0  0  0  0
  187.0630  178.4920  138.6160 O   0  0  0  0  0  1  0  0  0  0  0  0
  186.8610  173.7080  136.9160 C   0  0  0  0  0  2  0  0  0  0  0  0
  188.9350  175.0870  137.0610 C   0  0  1  0  0  3  0  0  0  0  0  0
  187.9970  174.3620  136.1260 C   0  0  1  0  0  3  0  0  0  0  0  0
  190.3030  173.7320  135.7450 C   0  0  2  0  0  3  0  0  0  0  0  0
  189.5830  177.7580  141.2730 C   0  0  1  0  0  3  0  0  0  0  0  0
  189.1420  177.3030  138.3770 C   0  0  1  0  0  3  0  0  0  0  0  0
  190.7310  177.3740  140.3450 C   0  0  0  0  0  2  0  0  0  0  0  0
  188.5210  178.5320  140.4940 C   0  0  0  0  0  2  0  0  0  0  0  0
  188.6020  171.9120  135.7640 C   0  0  0  0  0  2  0  0  0  0  0  0
  188.8790  173.3650  135.3730 C   0  0  1  0  0  3  0  0  0  0  0  0
  191.4340  176.1770  138.2990 C   0  0  0  0  0  2  0  0  0  0  0  0
  190.2800  174.9740  136.5130 N   0  0  2  0  0  0  0  0  0  0  0  0
  189.0280  176.5940  141.8760 O   0  0  0  0  0  0  0  0  0  0  0  0
  189.5530  176.0430  143.0460 C   0  0  0  0  0  0  0  0  0  0  0  0
  189.1840  176.5330  144.2930 O   0  0  0  0  0  1  0  0  0  0  0  0
  190.3740  175.0930  142.9710 O   0  0  0  0  0  0  0  0  0  0  0  0
  191.2210  173.8260  134.5140 C   0  0  0  0  0  2  0  0  0  0  0  0
  192.6970  172.0780  135.6250 C   0  0  0  0  0  2  0  0  0  0  0  0
  194.0730  171.4180  135.5480 C   0  0  1  0  0  3  0  0  0  0  0  0
  195.0220  173.7250  135.3660 C   0  0  0  0  0  3  0  0  0  0  0  0
  195.1910  172.4240  135.6500 C   0  0  0  0  0  3  0  0  0  0  0  0
  193.6810  174.3180  135.0220 C   0  0  0  0  0  2  0  0  0  0  0  0
  192.6410  173.2560  134.6560 C   0  0  2  0  0  3  0  0  0  0  0  0
  194.2260  170.3860  136.6160 C   0  0  0  0  0  3  0  0  0  0  0  0
  195.1820  170.4890  137.5350 C   0  0  0  0  0  2  0  0  0  0  0  0
  1  7  1  6  0  0  0
  1 15  1  0  0  0  0
  2 18  1  0  0  0  0
  3  8  1  0  0  0  0
  4 16  1  0  0  0  0
  4  3  1  0  0  0  0
  5 18  1  6  0  0  0
  5 14  1  0  0  0  0
  9  6  1  6  0  0  0
 10  8  1  1  0  0  0
 10  9  1  0  0  0  0
 11 24  1  6  0  0  0
 11 19  1  0  0  0  0
 12 20  1  6  0  0  0
 13  6  1  6  0  0  0
 13  5  1  0  0  0  0
 13  1  1  0  0  0  0
 14 12  1  0  0  0  0
 15 12  1  0  0  0  0
 17 11  1  0  0  0  0
 17 16  1  1  0  0  0
 17 10  1  0  0  0  0
 19  9  1  0  0  0  0
 19  2  1  1  0  0  0
 20 21  1  0  0  0  0
 21 22  1  0  0  0  0
 23 21  2  0  0  0  0
 26 25  1  0  0  0  0
 26 28  1  0  0  0  0
 26 31  1  1  0  0  0
 27 28  2  0  0  0  0
 29 27  1  0  0  0  0
 30 24  1  1  0  0  0
 30 29  1  0  0  0  0
 30 25  1  0  0  0  0
 31 32  2  0  0  0  0
M  END
>  <MODEL>
8

>  <REMARK>
 VINA RESULT:      -6.2      5.088      8.890
  Name = 
  5 active torsions:
  status: ('A' for Active; 'I' for Inactive)
    1  A    between atoms: C_1  and  O_17
    2  A    between atoms: C_7  and  C_22
    3  A    between atoms: C_16  and  C_27
    4  A    between atoms: O_17  and  C_19
    5  A    between atoms: C_27  and  C_32
                            x       y       z     vdW  Elec       q    Type
                         _______ _______ _______ _____ _____    ______ ____

>  <TORSDO>
F 5

$$$$
=
 OpenBabel10272413273D

 32 36  0  0  1  0  0  0  0  0999 V2000
  192.6780  176.3820  137.6910 C   0  0  1  0  0  3  0  0  0  0  0  0
  188.2310  176.6810  138.9800 C   0  0  0  0  0  2  0  0  0  0  0  0
  191.2460  176.2460  143.8160 C   0  0  0  0  0  2  0  0  0  0  0  0
  189.8070  176.2050  144.3550 C   0  0  0  0  0  2  0  0  0  0  0  0
  190.1610  176.1580  137.4800 C   0  0  2  0  0  3  0  0  0  0  0  0
  191.2600  177.6580  139.3210 C   0  0  0  0  0  2  0  0  0  0  0  0
  193.7290  177.2590  137.9660 O   0  0  0  0  0  1  0  0  0  0  0  0
  191.3020  176.1600  142.2920 C   0  0  0  0  0  2  0  0  0  0  0  0
  190.2100  177.0130  140.2180 C   0  0  1  0  0  3  0  0  0  0  0  0
  190.5030  177.3080  141.6700 C   0  0  1  0  0  3  0  0  0  0  0  0
  188.1530  177.5790  141.1580 C   0  0  2  0  0  3  0  0  0  0  0  0
  191.6780  174.9410  135.8770 C   0  0  1  0  0  3  0  0  0  0  0  0
  191.3300  177.0900  137.8880 C   0  0  1  0  0  3  0  0  0  0  0  0
  190.3440  175.6610  136.0470 C   0  0  0  0  0  2  0  0  0  0  0  0
  192.8260  175.8740  136.2580 C   0  0  0  0  0  2  0  0  0  0  0  0
  188.7400  176.4020  143.2750 C   0  0  0  0  0  2  0  0  0  0  0  0
  189.1340  177.5270  142.3150 C   0  0  1  0  0  3  0  0  0  0  0  0
  188.8060  176.8450  137.5790 C   0  0  0  0  0  2  0  0  0  0  0  0
  188.9040  177.5800  139.9070 N   0  0  2  0  0  0  0  0  0  0  0  0
  191.7000  173.7550  136.6640 O   0  0  0  0  0  0  0  0  0  0  0  0
  192.4700  172.6460  136.3120 C   0  0  0  0  0  0  0  0  0  0  0  0
  191.9710  171.6770  135.4490 O   0  0  0  0  0  0  0  0  0  0  0  0
  193.6290  172.5190  136.7830 O   0  0  0  0  0  1  0  0  0  0  0  0
  187.1940  178.7780  141.2610 C   0  0  0  0  0  2  0  0  0  0  0  0
  184.6750  178.8210  140.9110 C   0  0  0  0  0  2  0  0  0  0  0  0
  183.3540  178.3290  141.5010 C   0  0  1  0  0  3  0  0  0  0  0  0
  184.1870  179.1530  143.7100 C   0  0  0  0  0  3  0  0  0  0  0  0
  183.1620  178.7870  142.9240 C   0  0  0  0  0  3  0  0  0  0  0  0
  185.6070  179.2410  143.2140 C   0  0  0  0  0  2  0  0  0  0  0  0
  185.8120  178.5160  141.8810 C   0  0  2  0  0  3  0  0  0  0  0  0
  182.2010  178.7790  140.6670 C   0  0  0  0  0  3  0  0  0  0  0  0
  181.0410  179.1130  141.2270 C   0  0  0  0  0  2  0  0  0  0  0  0
  1 13  1  0  0  0  0
  1  7  1  6  0  0  0
  3  4  1  0  0  0  0
  5 14  1  6  0  0  0
  5 18  1  0  0  0  0
  5 13  1  0  0  0  0
  8  3  1  0  0  0  0
  9  6  1  6  0  0  0
  9 10  1  0  0  0  0
 10  8  1  1  0  0  0
 10 17  1  0  0  0  0
 11 24  1  1  0  0  0
 11 17  1  0  0  0  0
 12 14  1  0  0  0  0
 12 15  1  0  0  0  0
 12 20  1  1  0  0  0
 13  6  1  1  0  0  0
 15  1  1  0  0  0  0
 16  4  1  0  0  0  0
 17 16  1  1  0  0  0
 18  2  1  0  0  0  0
 19  2  1  6  0  0  0
 19  9  1  0  0  0  0
 19 11  1  0  0  0  0
 21 20  1  0  0  0  0
 21 23  1  0  0  0  0
 22 21  2  0  0  0  0
 25 26  1  0  0  0  0
 25 30  1  0  0  0  0
 26 31  1  6  0  0  0
 26 28  1  0  0  0  0
 28 27  2  0  0  0  0
 29 27  1  0  0  0  0
 30 24  1  6  0  0  0
 30 29  1  0  0  0  0
 31 32  2  0  0  0  0
M  END
>  <MODEL>
9

>  <REMARK>
 VINA RESULT:      -6.1      4.254      7.822
  Name = 
  5 active torsions:
  status: ('A' for Active; 'I' for Inactive)
    1  A    between atoms: C_1  and  O_17
    2  A    between atoms: C_7  and  C_22
    3  A    between atoms: C_16  and  C_27
    4  A    between atoms: O_17  and  C_19
    5  A    between atoms: C_27  and  C_32
                            x       y       z     vdW  Elec       q    Type
                         _______ _______ _______ _____ _____    ______ ____

>  <TORSDO>
F 5

$$$$
