=
 OpenBabel10272413423D

 30 35  0  0  1  0  0  0  0  0999 V2000
  186.5420  178.4270  139.3270 C   0  0  1  0  0  3  0  0  0  0  0  0
  189.1190  178.5280  138.9950 C   0  0  2  0  0  3  0  0  0  0  0  0
  187.1260  176.1350  137.0690 C   0  0  1  0  0  3  0  0  0  0  0  0
  185.1660  177.9080  138.7620 C   0  0  1  0  0  3  0  0  0  0  0  0
  186.6270  178.1810  140.8500 C   0  0  0  0  0  2  0  0  0  0  0  0
  183.1790  178.7260  141.8890 N   0  0  0  0  0  0  0  0  0  0  0  0
  184.1370  178.5440  140.9660 C   0  0  2  0  0  3  0  0  0  0  0  0
  185.2130  178.5780  142.8980 N   0  0  0  0  0  0  0  0  0  0  0  0
  186.0150  176.2050  136.0000 C   0  0  2  0  0  3  0  0  0  0  0  0
  185.3560  178.4840  141.5670 C   0  0  0  0  0  0  0  0  0  0  0  0
  183.9400  178.5260  139.4880 C   0  0  1  0  0  3  0  0  0  0  0  0
  190.2640  177.5460  139.2230 C   0  0  0  0  0  2  0  0  0  0  0  0
  183.2300  178.9000  144.3770 C   0  0  0  0  0  1  0  0  0  0  0  0
  189.0300  179.3700  140.0910 F   0  0  0  0  0  0  0  0  0  0  0  0
  188.5530  176.4000  136.6120 C   0  0  2  0  0  3  0  0  0  0  0  0
  190.6370  176.7740  137.9600 C   0  0  0  0  0  2  0  0  0  0  0  0
  183.8770  178.7370  143.0480 C   0  0  0  0  0  0  0  0  0  0  0  0
  187.8130  177.7630  138.7280 C   0  0  2  0  0  3  0  0  0  0  0  0
  184.9650  178.0570  137.2340 C   0  0  0  0  0  2  0  0  0  0  0  0
  186.3990  176.8330  134.6610 C   0  0  0  0  0  1  0  0  0  0  0  0
  184.7570  176.7830  136.5070 N   0  0  2  0  0  0  0  0  0  0  0  0
  189.5490  175.7750  137.5860 C   0  0  0  0  0  2  0  0  0  0  0  0
  187.7160  177.5220  137.2310 C   0  0  2  0  0  3  0  0  0  0  0  0
  183.7920  174.5340  136.4700 C   0  0  2  0  0  3  0  0  0  0  0  0
  184.0310  175.7830  137.2990 C   0  0  2  0  0  3  0  0  0  0  0  0
  182.6410  175.4830  136.7300 C   0  0  1  0  0  3  0  0  0  0  0  0
  182.3760  176.2150  135.5700 O   0  0  0  0  0  1  0  0  0  0  0  0
  183.6720  173.3420  137.3950 C   0  0  0  0  0  1  0  0  0  0  0  0
  182.0460  180.0060  138.6340 C   0  0  0  0  0  1  0  0  0  0  0  0
  183.5260  179.9140  138.9730 C   0  0  0  0  0  2  0  0  0  0  0  0
  1  5  1  1  0  0  0
  2 12  1  0  0  0  0
  2 14  1  1  0  0  0
  3 23  1  0  0  0  0
  4  1  1  0  0  0  0
  4 11  1  0  0  0  0
  5 10  1  0  0  0  0
  6 17  2  0  0  0  0
  7 10  1  0  0  0  0
  7  6  1  0  0  0  0
  8 17  1  0  0  0  0
  9 21  1  0  0  0  0
  9  3  1  0  0  0  0
 10  8  2  0  0  0  0
 11  7  1  0  0  0  0
 15  3  1  0  0  0  0
 15 23  1  0  0  0  0
 15 22  1  0  0  0  0
 16 12  1  0  0  0  0
 17 13  1  0  0  0  0
 18  2  1  0  0  0  0
 18  1  1  0  0  0  0
 19  4  1  0  0  0  0
 20  9  1  0  0  0  0
 21 19  1  0  0  0  0
 21 25  1  0  0  0  0
 22 16  1  0  0  0  0
 23 18  1  0  0  0  0
 24 26  1  0  0  0  0
 24 25  1  0  0  0  0
 24 28  1  0  0  0  0
 26 25  1  0  0  0  0
 27 26  1  0  0  0  0
 29 30  1  0  0  0  0
 30 11  1  0  0  0  0
M  END
>  <MODEL>
1

>  <REMARK>
 VINA RESULT:      -5.8      0.000      0.000
  Name = 
  2 active torsions:
  status: ('A' for Active; 'I' for Inactive)
    1  A    between atoms: C_10  and  N_25
    2  A    between atoms: C_13  and  C_30
                            x       y       z     vdW  Elec       q    Type
                         _______ _______ _______ _____ _____    ______ ____

>  <TORSDO>
F 2

$$$$
=
 OpenBabel10272413423D

 30 35  0  0  1  0  0  0  0  0999 V2000
  184.0450  174.8210  136.7030 C   0  0  1  0  0  3  0  0  0  0  0  0
  182.0030  173.2700  136.2780 C   0  0  2  0  0  3  0  0  0  0  0  0
  181.7690  175.9530  138.7590 C   0  0  1  0  0  3  0  0  0  0  0  0
  184.5620  176.1650  137.3430 C   0  0  1  0  0  3  0  0  0  0  0  0
  185.0110  173.6610  137.0350 C   0  0  0  0  0  2  0  0  0  0  0  0
  188.2440  175.3340  136.9680 N   0  0  0  0  0  0  0  0  0  0  0  0
  186.9020  175.3230  136.9760 C   0  0  2  0  0  3  0  0  0  0  0  0
  187.4840  173.1900  136.9400 N   0  0  0  0  0  0  0  0  0  0  0  0
  181.8240  177.4950  138.7530 C   0  0  2  0  0  3  0  0  0  0  0  0
  186.4470  174.0410  136.9320 C   0  0  0  0  0  0  0  0  0  0  0  0
  186.0140  176.5200  136.9220 C   0  0  1  0  0  3  0  0  0  0  0  0
  181.2220  172.2740  137.1310 C   0  0  0  0  0  2  0  0  0  0  0  0
  189.9570  173.5210  136.9500 C   0  0  0  0  0  1  0  0  0  0  0  0
  182.9350  172.5760  135.5250 F   0  0  0  0  0  0  0  0  0  0  0  0
  180.4750  175.2960  138.3000 C   0  0  2  0  0  3  0  0  0  0  0  0
  179.9820  172.8940  137.7710 C   0  0  0  0  0  2  0  0  0  0  0  0
  188.5550  174.0180  136.9510 C   0  0  0  0  0  0  0  0  0  0  0  0
  182.6440  174.3430  137.1730 C   0  0  2  0  0  3  0  0  0  0  0  0
  183.6640  177.4060  137.1200 C   0  0  0  0  0  2  0  0  0  0  0  0
  180.7040  178.2100  137.9980 C   0  0  0  0  0  1  0  0  0  0  0  0
  183.1410  178.0270  138.3600 N   0  0  2  0  0  0  0  0  0  0  0  0
  180.3640  173.8820  138.8650 C   0  0  0  0  0  2  0  0  0  0  0  0
  181.6430  175.4760  137.3260 C   0  0  2  0  0  3  0  0  0  0  0  0
  183.5480  178.7150  140.6730 C   0  0  2  0  0  3  0  0  0  0  0  0
  184.0750  177.9280  139.4880 C   0  0  2  0  0  3  0  0  0  0  0  0
  184.6910  179.2810  139.8580 C   0  0  1  0  0  3  0  0  0  0  0  0
  184.2140  180.3170  139.0510 O   0  0  0  0  0  1  0  0  0  0  0  0
  184.0970  178.1150  141.9500 C   0  0  0  0  0  1  0  0  0  0  0  0
  187.1150  178.3860  135.5750 C   0  0  0  0  0  1  0  0  0  0  0  0
  186.1290  177.2270  135.5620 C   0  0  0  0  0  2  0  0  0  0  0  0
  1  5  1  1  0  0  0
  1 18  1  0  0  0  0
  1  4  1  0  0  0  0
  2 14  1  1  0  0  0
  2 12  1  0  0  0  0
  2 18  1  0  0  0  0
  6  7  1  0  0  0  0
  8 17  1  0  0  0  0
  9  3  1  0  0  0  0
 10  8  2  0  0  0  0
 10  7  1  0  0  0  0
 10  5  1  0  0  0  0
 11  7  1  0  0  0  0
 11  4  1  0  0  0  0
 12 16  1  0  0  0  0
 13 17  1  0  0  0  0
 15  3  1  0  0  0  0
 15 22  1  0  0  0  0
 16 22  1  0  0  0  0
 17  6  2  0  0  0  0
 18 23  1  0  0  0  0
 19  4  1  0  0  0  0
 19 21  1  0  0  0  0
 20  9  1  0  0  0  0
 21  9  1  0  0  0  0
 21 25  1  0  0  0  0
 23 15  1  0  0  0  0
 23  3  1  0  0  0  0
 24 28  1  0  0  0  0
 25 26  1  0  0  0  0
 25 24  1  0  0  0  0
 26 24  1  0  0  0  0
 27 26  1  0  0  0  0
 30 29  1  0  0  0  0
 30 11  1  0  0  0  0
M  END
>  <MODEL>
2

>  <REMARK>
 VINA RESULT:      -5.6      3.117      7.074
  Name = 
  2 active torsions:
  status: ('A' for Active; 'I' for Inactive)
    1  A    between atoms: C_10  and  N_25
    2  A    between atoms: C_13  and  C_30
                            x       y       z     vdW  Elec       q    Type
                         _______ _______ _______ _____ _____    ______ ____

>  <TORSDO>
F 2

$$$$
=
 OpenBabel10272413423D

 30 35  0  0  1  0  0  0  0  0999 V2000
  185.0520  177.8430  140.7110 C   0  0  1  0  0  3  0  0  0  0  0  0
  185.2320  177.6630  143.2970 C   0  0  2  0  0  3  0  0  0  0  0  0
  182.3920  179.4130  141.7860 C   0  0  1  0  0  3  0  0  0  0  0  0
  184.1270  178.1780  139.4800 C   0  0  1  0  0  3  0  0  0  0  0  0
  186.4370  178.5070  140.5390 C   0  0  0  0  0  2  0  0  0  0  0  0
  186.9460  178.2620  136.9420 N   0  0  0  0  0  0  0  0  0  0  0  0
  186.1970  178.1810  138.0530 C   0  0  2  0  0  3  0  0  0  0  0  0
  188.2240  178.6940  138.7730 N   0  0  0  0  0  0  0  0  0  0  0  0
  181.2020  179.0430  140.8760 C   0  0  2  0  0  3  0  0  0  0  0  0
  186.9680  178.4130  139.1500 C   0  0  0  0  0  0  0  0  0  0  0  0
  184.7610  177.7840  138.1180 C   0  0  1  0  0  3  0  0  0  0  0  0
  185.3820  178.6740  144.4310 C   0  0  0  0  0  2  0  0  0  0  0  0
  189.3510  178.7920  136.5500 C   0  0  0  0  0  1  0  0  0  0  0  0
  186.4820  177.1620  142.9790 F   0  0  0  0  0  0  0  0  0  0  0  0
  182.2920  179.0360  143.2570 C   0  0  2  0  0  3  0  0  0  0  0  0
  184.0430  179.0630  145.0530 C   0  0  0  0  0  2  0  0  0  0  0  0
  188.1680  178.5790  137.4260 C   0  0  0  0  0  0  0  0  0  0  0  0
  184.5320  178.3180  142.0960 C   0  0  2  0  0  3  0  0  0  0  0  0
  182.6900  177.6060  139.5410 C   0  0  0  0  0  2  0  0  0  0  0  0
  180.1810  178.0660  141.4570 C   0  0  0  0  0  1  0  0  0  0  0  0
  181.6140  178.6250  139.5230 N   0  0  2  0  0  0  0  0  0  0  0  0
  183.2190  179.9130  144.0960 C   0  0  0  0  0  2  0  0  0  0  0  0
  183.0350  178.1300  142.2720 C   0  0  2  0  0  3  0  0  0  0  0  0
  180.7710  180.7530  138.6570 C   0  0  2  0  0  3  0  0  0  0  0  0
  181.9530  179.8040  138.7190 C   0  0  2  0  0  3  0  0  0  0  0  0
  181.1060  179.9080  137.4460 C   0  0  1  0  0  3  0  0  0  0  0  0
  180.1820  178.8660  137.3410 O   0  0  0  0  0  1  0  0  0  0  0  0
  181.2780  182.1620  138.4360 C   0  0  0  0  0  1  0  0  0  0  0  0
  184.0230  176.1170  136.3340 C   0  0  0  0  0  1  0  0  0  0  0  0
  184.5840  176.3060  137.7360 C   0  0  0  0  0  2  0  0  0  0  0  0
  1  5  1  6  0  0  0
  1 18  1  0  0  0  0
  2 14  1  6  0  0  0
  2 12  1  0  0  0  0
  3 23  1  0  0  0  0
  3 15  1  0  0  0  0
  4 19  1  0  0  0  0
  4  1  1  0  0  0  0
  6 17  2  0  0  0  0
  6  7  1  0  0  0  0
  7 11  1  0  0  0  0
  7 10  1  0  0  0  0
  8 10  2  0  0  0  0
  9 20  1  0  0  0  0
  9  3  1  0  0  0  0
 10  5  1  0  0  0  0
 11  4  1  0  0  0  0
 12 16  1  0  0  0  0
 13 17  1  0  0  0  0
 15 22  1  0  0  0  0
 17  8  1  0  0  0  0
 18 23  1  0  0  0  0
 18  2  1  0  0  0  0
 21 19  1  0  0  0  0
 21  9  1  0  0  0  0
 22 16  1  0  0  0  0
 23 15  1  0  0  0  0
 24 25  1  0  0  0  0
 25 21  1  0  0  0  0
 26 24  1  0  0  0  0
 26 25  1  0  0  0  0
 27 26  1  0  0  0  0
 28 24  1  0  0  0  0
 29 30  1  0  0  0  0
 30 11  1  0  0  0  0
M  END
>  <MODEL>
3

>  <REMARK>
 VINA RESULT:      -5.5      2.277      6.263
  Name = 
  2 active torsions:
  status: ('A' for Active; 'I' for Inactive)
    1  A    between atoms: C_10  and  N_25
    2  A    between atoms: C_13  and  C_30
                            x       y       z     vdW  Elec       q    Type
                         _______ _______ _______ _____ _____    ______ ____

>  <TORSDO>
F 2

$$$$
=
 OpenBabel10272413423D

 30 35  0  0  1  0  0  0  0  0999 V2000
  186.8090  175.5320  136.6140 C   0  0  1  0  0  3  0  0  0  0  0  0
  185.8310  173.4100  135.4760 C   0  0  2  0  0  3  0  0  0  0  0  0
  183.7540  175.3690  137.7680 C   0  0  1  0  0  3  0  0  0  0  0  0
  186.4980  176.8510  137.4180 C   0  0  1  0  0  3  0  0  0  0  0  0
  188.0110  174.7900  137.2410 C   0  0  0  0  0  2  0  0  0  0  0  0
  190.1110  177.5560  138.3360 N   0  0  0  0  0  0  0  0  0  0  0  0
  188.9640  177.0340  137.8750 C   0  0  2  0  0  3  0  0  0  0  0  0
  190.3530  175.3180  138.0060 N   0  0  0  0  0  0  0  0  0  0  0  0
  183.1670  176.7960  137.8090 C   0  0  2  0  0  3  0  0  0  0  0  0
  189.1170  175.7000  137.6520 C   0  0  0  0  0  0  0  0  0  0  0  0
  187.7260  177.7940  137.5360 C   0  0  1  0  0  3  0  0  0  0  0  0
  185.3080  172.0700  135.9840 C   0  0  0  0  0  2  0  0  0  0  0  0
  192.3310  176.5580  138.8830 C   0  0  0  0  0  1  0  0  0  0  0  0
  187.1490  173.2530  135.0830 F   0  0  0  0  0  0  0  0  0  0  0  0
  183.0590  174.3520  136.8740 C   0  0  2  0  0  3  0  0  0  0  0  0
  183.7920  172.0600  136.1630 C   0  0  0  0  0  2  0  0  0  0  0  0
  190.9260  176.4780  138.4040 C   0  0  0  0  0  0  0  0  0  0  0  0
  185.6590  174.4880  136.5570 C   0  0  2  0  0  3  0  0  0  0  0  0
  185.2870  177.6760  136.9190 C   0  0  0  0  0  2  0  0  0  0  0  0
  182.1480  177.1420  136.7250 C   0  0  0  0  0  1  0  0  0  0  0  0
  184.1990  177.8440  137.9100 N   0  0  2  0  0  0  0  0  0  0  0  0
  183.3710  172.9320  137.3400 C   0  0  0  0  0  2  0  0  0  0  0  0
  184.2880  175.1150  136.3730 C   0  0  2  0  0  3  0  0  0  0  0  0
  183.5800  178.4070  140.2100 C   0  0  2  0  0  3  0  0  0  0  0  0
  184.6880  177.9300  139.2910 C   0  0  2  0  0  3  0  0  0  0  0  0
  184.6860  179.3660  139.8250 C   0  0  1  0  0  3  0  0  0  0  0  0
  184.1990  180.2780  138.8850 O   0  0  0  0  0  1  0  0  0  0  0  0
  183.8370  177.8870  141.6080 C   0  0  0  0  0  1  0  0  0  0  0  0
  188.6290  177.9760  135.1570 C   0  0  0  0  0  1  0  0  0  0  0  0
  187.9560  178.6990  136.3150 C   0  0  0  0  0  2  0  0  0  0  0  0
  1  5  1  1  0  0  0
  1  4  1  0  0  0  0
  2 14  1  1  0  0  0
  2 12  1  0  0  0  0
  2 18  1  0  0  0  0
  3  9  1  0  0  0  0
  4 11  1  0  0  0  0
  5 10  1  0  0  0  0
  6 17  2  0  0  0  0
  7  6  1  0  0  0  0
  8 17  1  0  0  0  0
  9 21  1  0  0  0  0
 10  7  1  0  0  0  0
 10  8  2  0  0  0  0
 11  7  1  0  0  0  0
 12 16  1  0  0  0  0
 15 22  1  0  0  0  0
 15  3  1  0  0  0  0
 16 22  1  0  0  0  0
 17 13  1  0  0  0  0
 18  1  1  0  0  0  0
 19  4  1  0  0  0  0
 19 21  1  0  0  0  0
 20  9  1  0  0  0  0
 21 25  1  0  0  0  0
 23 18  1  0  0  0  0
 23 15  1  0  0  0  0
 23  3  1  0  0  0  0
 24 28  1  0  0  0  0
 25 26  1  0  0  0  0
 25 24  1  0  0  0  0
 26 24  1  0  0  0  0
 27 26  1  0  0  0  0
 29 30  1  0  0  0  0
 30 11  1  0  0  0  0
M  END
>  <MODEL>
4

>  <REMARK>
 VINA RESULT:      -5.3      2.686      6.061
  Name = 
  2 active torsions:
  status: ('A' for Active; 'I' for Inactive)
    1  A    between atoms: C_10  and  N_25
    2  A    between atoms: C_13  and  C_30
                            x       y       z     vdW  Elec       q    Type
                         _______ _______ _______ _____ _____    ______ ____

>  <TORSDO>
F 2

$$$$
=
 OpenBabel10272413423D

 30 35  0  0  1  0  0  0  0  0999 V2000
  191.2960  176.9580  138.6850 C   0  0  1  0  0  3  0  0  0  0  0  0
  193.8600  176.7080  139.0310 C   0  0  2  0  0  3  0  0  0  0  0  0
  192.0650  174.3140  136.9200 C   0  0  1  0  0  3  0  0  0  0  0  0
  190.0380  176.5280  137.8390 C   0  0  1  0  0  3  0  0  0  0  0  0
  190.9670  176.9240  140.1950 C   0  0  0  0  0  2  0  0  0  0  0  0
  187.4920  178.0110  140.2280 N   0  0  0  0  0  0  0  0  0  0  0  0
  188.6080  177.5880  139.6130 C   0  0  2  0  0  3  0  0  0  0  0  0
  189.1700  177.7720  141.7440 N   0  0  0  0  0  0  0  0  0  0  0  0
  191.2720  174.3590  135.5970 C   0  0  2  0  0  3  0  0  0  0  0  0
  189.6190  177.4720  140.5160 C   0  0  0  0  0  0  0  0  0  0  0  0
  188.7780  177.3820  138.1460 C   0  0  1  0  0  3  0  0  0  0  0  0
  194.7550  175.6420  139.6560 C   0  0  0  0  0  2  0  0  0  0  0  0
  186.9570  178.5320  142.6080 C   0  0  0  0  0  1  0  0  0  0  0  0
  193.6330  177.7020  139.9670 F   0  0  0  0  0  0  0  0  0  0  0  0
  193.5840  174.3420  136.8280 C   0  0  2  0  0  3  0  0  0  0  0  0
  195.3050  174.6580  138.6260 C   0  0  0  0  0  2  0  0  0  0  0  0
  187.8780  178.1060  141.5210 C   0  0  0  0  0  0  0  0  0  0  0  0
  192.5600  176.0710  138.5150 C   0  0  2  0  0  3  0  0  0  0  0  0
  190.2420  176.4790  136.3050 C   0  0  0  0  0  2  0  0  0  0  0  0
  192.0620  174.7410  134.3460 C   0  0  0  0  0  1  0  0  0  0  0  0
  190.0300  175.1480  135.6910 N   0  0  2  0  0  0  0  0  0  0  0  0
  194.2050  173.7500  138.0910 C   0  0  0  0  0  2  0  0  0  0  0  0
  192.7970  175.6310  137.0810 C   0  0  2  0  0  3  0  0  0  0  0  0
  188.6490  173.1320  135.5490 C   0  0  2  0  0  3  0  0  0  0  0  0
  188.9910  174.3620  136.3680 C   0  0  2  0  0  3  0  0  0  0  0  0
  187.6880  174.3020  135.5660 C   0  0  1  0  0  3  0  0  0  0  0  0
  187.7800  174.9930  134.3560 O   0  0  0  0  0  1  0  0  0  0  0  0
  188.1320  172.0500  136.4730 C   0  0  0  0  0  1  0  0  0  0  0  0
  187.4290  178.8980  136.6010 C   0  0  0  0  0  1  0  0  0  0  0  0
  188.7160  178.7210  137.3940 C   0  0  0  0  0  2  0  0  0  0  0  0
  1  5  1  1  0  0  0
  2 12  1  0  0  0  0
  2 14  1  1  0  0  0
  3 23  1  0  0  0  0
  4 11  1  0  0  0  0
  4  1  1  0  0  0  0
  5 10  1  0  0  0  0
  6 17  2  0  0  0  0
  7  6  1  0  0  0  0
  7 10  1  0  0  0  0
  9 21  1  0  0  0  0
  9  3  1  0  0  0  0
 10  8  2  0  0  0  0
 11  7  1  0  0  0  0
 15  3  1  0  0  0  0
 15 23  1  0  0  0  0
 15 22  1  0  0  0  0
 16 12  1  0  0  0  0
 17  8  1  0  0  0  0
 17 13  1  0  0  0  0
 18  1  1  0  0  0  0
 18  2  1  0  0  0  0
 19  4  1  0  0  0  0
 20  9  1  0  0  0  0
 21 19  1  0  0  0  0
 21 25  1  0  0  0  0
 22 16  1  0  0  0  0
 23 18  1  0  0  0  0
 24 26  1  0  0  0  0
 24 25  1  0  0  0  0
 24 28  1  0  0  0  0
 26 25  1  0  0  0  0
 27 26  1  0  0  0  0
 29 30  1  0  0  0  0
 30 11  1  0  0  0  0
M  END
>  <MODEL>
5

>  <REMARK>
 VINA RESULT:      -5.2      3.511      5.126
  Name = 
  2 active torsions:
  status: ('A' for Active; 'I' for Inactive)
    1  A    between atoms: C_10  and  N_25
    2  A    between atoms: C_13  and  C_30
                            x       y       z     vdW  Elec       q    Type
                         _______ _______ _______ _____ _____    ______ ____

>  <TORSDO>
F 2

$$$$
=
 OpenBabel10272413423D

 30 35  0  0  1  0  0  0  0  0999 V2000
  190.9330  176.8180  138.9490 C   0  0  1  0  0  3  0  0  0  0  0  0
  193.4800  176.5410  138.5080 C   0  0  2  0  0  3  0  0  0  0  0  0
  191.0820  174.4090  136.7430 C   0  0  1  0  0  3  0  0  0  0  0  0
  189.4730  176.4870  138.4600 C   0  0  1  0  0  3  0  0  0  0  0  0
  191.0520  176.6020  140.4750 C   0  0  0  0  0  2  0  0  0  0  0  0
  187.7670  177.6610  141.6380 N   0  0  0  0  0  0  0  0  0  0  0  0
  188.6460  177.3200  140.6820 C   0  0  2  0  0  3  0  0  0  0  0  0
  189.8030  177.2500  142.5660 N   0  0  0  0  0  0  0  0  0  0  0  0
  189.9440  174.6090  135.7200 C   0  0  2  0  0  3  0  0  0  0  0  0
  189.8710  177.1010  141.2340 C   0  0  0  0  0  0  0  0  0  0  0  0
  188.3810  177.2920  139.2150 C   0  0  1  0  0  3  0  0  0  0  0  0
  194.4840  175.4110  138.7190 C   0  0  0  0  0  2  0  0  0  0  0  0
  187.9560  177.8900  144.1150 C   0  0  0  0  0  1  0  0  0  0  0  0
  193.5610  177.4150  139.5780 F   0  0  0  0  0  0  0  0  0  0  0  0
  192.5100  174.4550  136.2200 C   0  0  2  0  0  3  0  0  0  0  0  0
  194.6850  174.5610  137.4660 C   0  0  0  0  0  2  0  0  0  0  0  0
  188.5120  177.6010  142.7660 C   0  0  0  0  0  0  0  0  0  0  0  0
  192.0680  175.9640  138.3190 C   0  0  2  0  0  3  0  0  0  0  0  0
  189.2250  176.6240  136.9370 C   0  0  0  0  0  2  0  0  0  0  0  0
  190.3510  175.1410  134.3470 C   0  0  0  0  0  1  0  0  0  0  0  0
  188.8060  175.3740  136.2610 N   0  0  2  0  0  0  0  0  0  0  0  0
  193.4510  173.7180  137.1710 C   0  0  0  0  0  2  0  0  0  0  0  0
  191.8690  175.7010  136.8370 C   0  0  2  0  0  3  0  0  0  0  0  0
  187.2320  173.4990  136.2640 C   0  0  2  0  0  3  0  0  0  0  0  0
  187.9820  174.5090  137.1130 C   0  0  2  0  0  3  0  0  0  0  0  0
  186.4830  174.6790  136.8470 C   0  0  1  0  0  3  0  0  0  0  0  0
  186.2300  175.6100  135.8360 O   0  0  0  0  0  1  0  0  0  0  0  0
  186.9450  172.2680  137.0960 C   0  0  0  0  0  1  0  0  0  0  0  0
  186.9610  178.7960  137.7220 C   0  0  0  0  0  1  0  0  0  0  0  0
  188.1450  178.7110  138.6740 C   0  0  0  0  0  2  0  0  0  0  0  0
  1  5  1  1  0  0  0
  2 12  1  0  0  0  0
  2 14  1  1  0  0  0
  3 23  1  0  0  0  0
  4  1  1  0  0  0  0
  4 11  1  0  0  0  0
  5 10  1  0  0  0  0
  6 17  2  0  0  0  0
  7 10  1  0  0  0  0
  7  6  1  0  0  0  0
  8 17  1  0  0  0  0
  9 21  1  0  0  0  0
  9  3  1  0  0  0  0
 10  8  2  0  0  0  0
 11  7  1  0  0  0  0
 15  3  1  0  0  0  0
 15 23  1  0  0  0  0
 15 22  1  0  0  0  0
 16 12  1  0  0  0  0
 17 13  1  0  0  0  0
 18  2  1  0  0  0  0
 18  1  1  0  0  0  0
 19  4  1  0  0  0  0
 20  9  1  0  0  0  0
 21 19  1  0  0  0  0
 21 25  1  0  0  0  0
 22 16  1  0  0  0  0
 23 18  1  0  0  0  0
 24 26  1  0  0  0  0
 24 28  1  0  0  0  0
 24 25  1  0  0  0  0
 26 25  1  0  0  0  0
 27 26  1  0  0  0  0
 29 30  1  0  0  0  0
 30 11  1  0  0  0  0
M  END
>  <MODEL>
6

>  <REMARK>
 VINA RESULT:      -4.9      3.146      4.516
  Name = 
  2 active torsions:
  status: ('A' for Active; 'I' for Inactive)
    1  A    between atoms: C_10  and  N_25
    2  A    between atoms: C_13  and  C_30
                            x       y       z     vdW  Elec       q    Type
                         _______ _______ _______ _____ _____    ______ ____

>  <TORSDO>
F 2

$$$$
=
 OpenBabel10272413423D

 30 35  0  0  1  0  0  0  0  0999 V2000
  186.0660  178.4080  138.6820 C   0  0  1  0  0  3  0  0  0  0  0  0
  188.4340  178.2920  137.6170 C   0  0  2  0  0  3  0  0  0  0  0  0
  185.8090  176.0080  136.4750 C   0  0  1  0  0  3  0  0  0  0  0  0
  184.5530  177.9830  138.5660 C   0  0  1  0  0  3  0  0  0  0  0  0
  186.5740  178.2030  140.1270 C   0  0  0  0  0  2  0  0  0  0  0  0
  183.6230  179.0540  142.0850 N   0  0  0  0  0  0  0  0  0  0  0  0
  184.2560  178.7670  140.9360 C   0  0  2  0  0  3  0  0  0  0  0  0
  185.8480  178.7750  142.4710 N   0  0  0  0  0  0  0  0  0  0  0  0
  184.4420  176.1330  135.7700 C   0  0  2  0  0  3  0  0  0  0  0  0
  185.5900  178.6280  141.1630 C   0  0  0  0  0  0  0  0  0  0  0  0
  183.6360  178.7190  139.5800 C   0  0  1  0  0  3  0  0  0  0  0  0
  189.5270  177.2300  137.5560 C   0  0  0  0  0  2  0  0  0  0  0  0
  184.4080  179.3000  144.4400 C   0  0  0  0  0  1  0  0  0  0  0  0
  188.7250  179.1720  138.6450 F   0  0  0  0  0  0  0  0  0  0  0  0
  187.0570  176.1430  135.6130 C   0  0  2  0  0  3  0  0  0  0  0  0
  189.4620  176.3910  136.2810 C   0  0  0  0  0  2  0  0  0  0  0  0
  184.6270  179.0440  142.9910 C   0  0  0  0  0  0  0  0  0  0  0  0
  187.0580  177.6260  137.7770 C   0  0  2  0  0  3  0  0  0  0  0  0
  183.9250  178.1000  137.1550 C   0  0  0  0  0  2  0  0  0  0  0  0
  184.4610  176.6870  134.3470 C   0  0  0  0  0  1  0  0  0  0  0  0
  183.4300  176.8250  136.5870 N   0  0  2  0  0  0  0  0  0  0  0  0
  188.2480  175.4710  136.2910 C   0  0  0  0  0  2  0  0  0  0  0  0
  186.5130  177.3470  136.3870 C   0  0  2  0  0  3  0  0  0  0  0  0
  182.1470  174.7710  136.9450 C   0  0  2  0  0  3  0  0  0  0  0  0
  182.9000  175.9110  137.6060 C   0  0  2  0  0  3  0  0  0  0  0  0
  181.3690  175.8780  137.6240 C   0  0  1  0  0  3  0  0  0  0  0  0
  180.8110  176.7130  136.6520 O   0  0  0  0  0  1  0  0  0  0  0  0
  182.1850  173.5610  137.8530 C   0  0  0  0  0  1  0  0  0  0  0  0
  181.7170  180.1720  138.7350 C   0  0  0  0  0  1  0  0  0  0  0  0
  183.1850  180.1190  139.1340 C   0  0  0  0  0  2  0  0  0  0  0  0
  1  5  1  1  0  0  0
  2 18  1  0  0  0  0
  2 14  1  1  0  0  0
  4  1  1  0  0  0  0
  4 11  1  0  0  0  0
  5 10  1  0  0  0  0
  6 17  2  0  0  0  0
  7 10  1  0  0  0  0
  7  6  1  0  0  0  0
  8 17  1  0  0  0  0
  9  3  1  0  0  0  0
  9 21  1  0  0  0  0
 10  8  2  0  0  0  0
 11  7  1  0  0  0  0
 12  2  1  0  0  0  0
 15 22  1  0  0  0  0
 15 23  1  0  0  0  0
 15  3  1  0  0  0  0
 16 22  1  0  0  0  0
 16 12  1  0  0  0  0
 17 13  1  0  0  0  0
 18  1  1  0  0  0  0
 19  4  1  0  0  0  0
 20  9  1  0  0  0  0
 21 19  1  0  0  0  0
 21 25  1  0  0  0  0
 23  3  1  0  0  0  0
 23 18  1  0  0  0  0
 24 25  1  0  0  0  0
 24 26  1  0  0  0  0
 24 28  1  0  0  0  0
 25 26  1  0  0  0  0
 27 26  1  0  0  0  0
 29 30  1  0  0  0  0
 30 11  1  0  0  0  0
M  END
>  <MODEL>
7

>  <REMARK>
 VINA RESULT:      -4.9      1.141      1.330
  Name = 
  2 active torsions:
  status: ('A' for Active; 'I' for Inactive)
    1  A    between atoms: C_10  and  N_25
    2  A    between atoms: C_13  and  C_30
                            x       y       z     vdW  Elec       q    Type
                         _______ _______ _______ _____ _____    ______ ____

>  <TORSDO>
F 2

$$$$
=
 OpenBabel10272413423D

 30 35  0  0  1  0  0  0  0  0999 V2000
  185.1910  175.5680  136.4180 C   0  0  1  0  0  3  0  0  0  0  0  0
  182.6120  175.3000  136.5990 C   0  0  2  0  0  3  0  0  0  0  0  0
  184.4270  177.2180  139.1360 C   0  0  1  0  0  3  0  0  0  0  0  0
  186.4670  176.3450  136.9160 C   0  0  1  0  0  3  0  0  0  0  0  0
  185.4670  174.0480  136.3780 C   0  0  0  0  0  2  0  0  0  0  0  0
  188.9610  173.9490  135.3570 N   0  0  0  0  0  0  0  0  0  0  0  0
  187.8580  174.5790  135.7900 C   0  0  2  0  0  3  0  0  0  0  0  0
  187.2270  172.4820  135.4830 N   0  0  0  0  0  0  0  0  0  0  0  0
  185.2660  178.5130  139.1760 C   0  0  2  0  0  3  0  0  0  0  0  0
  186.8140  173.7080  135.8390 C   0  0  0  0  0  0  0  0  0  0  0  0
  187.7340  176.0390  136.0710 C   0  0  1  0  0  3  0  0  0  0  0  0
  181.6740  174.6530  137.6140 C   0  0  0  0  0  2  0  0  0  0  0  0
  189.4250  171.5820  134.7210 C   0  0  0  0  0  1  0  0  0  0  0  0
  182.8280  174.4100  135.5620 F   0  0  0  0  0  0  0  0  0  0  0  0
  182.9130  177.3650  139.0840 C   0  0  2  0  0  3  0  0  0  0  0  0
  181.1380  175.6490  138.6400 C   0  0  0  0  0  2  0  0  0  0  0  0
  188.5330  172.6770  135.1870 C   0  0  0  0  0  0  0  0  0  0  0  0
  183.9150  175.7360  137.2880 C   0  0  2  0  0  3  0  0  0  0  0  0
  186.3160  177.8810  137.0410 C   0  0  0  0  0  2  0  0  0  0  0  0
  184.5270  179.8100  138.8460 C   0  0  0  0  0  1  0  0  0  0  0  0
  186.5200  178.4160  138.4070 N   0  0  2  0  0  0  0  0  0  0  0  0
  182.2370  176.0960  139.5960 C   0  0  0  0  0  2  0  0  0  0  0  0
  183.7170  177.1530  137.7980 C   0  0  2  0  0  3  0  0  0  0  0  0
  188.0730  178.5230  140.2960 C   0  0  2  0  0  3  0  0  0  0  0  0
  187.5180  177.6630  139.1750 C   0  0  2  0  0  3  0  0  0  0  0  0
  188.9210  178.2700  139.0670 C   0  0  1  0  0  3  0  0  0  0  0  0
  188.9380  179.4210  138.2750 O   0  0  0  0  0  1  0  0  0  0  0  0
  188.5470  177.6260  141.4200 C   0  0  0  0  0  1  0  0  0  0  0  0
  189.2080  177.5240  134.6120 C   0  0  0  0  0  1  0  0  0  0  0  0
  187.8500  176.8570  134.7750 C   0  0  0  0  0  2  0  0  0  0  0  0
  1  5  1  1  0  0  0
  1  4  1  0  0  0  0
  1 18  1  0  0  0  0
  2 14  1  6  0  0  0
  2 18  1  0  0  0  0
  2 12  1  0  0  0  0
  3  9  1  0  0  0  0
  4 19  1  0  0  0  0
  6  7  1  0  0  0  0
  7 10  1  0  0  0  0
  7 11  1  0  0  0  0
  8 10  2  0  0  0  0
 10  5  1  0  0  0  0
 11  4  1  0  0  0  0
 12 16  1  0  0  0  0
 13 17  1  0  0  0  0
 15  3  1  0  0  0  0
 15 22  1  0  0  0  0
 16 22  1  0  0  0  0
 17  6  2  0  0  0  0
 17  8  1  0  0  0  0
 18 23  1  0  0  0  0
 19 21  1  0  0  0  0
 20  9  1  0  0  0  0
 21 25  1  0  0  0  0
 21  9  1  0  0  0  0
 23 15  1  0  0  0  0
 23  3  1  0  0  0  0
 24 28  1  0  0  0  0
 25 24  1  0  0  0  0
 26 25  1  0  0  0  0
 26 24  1  0  0  0  0
 27 26  1  0  0  0  0
 29 30  1  0  0  0  0
 30 11  1  0  0  0  0
M  END
>  <MODEL>
8

>  <REMARK>
 VINA RESULT:      -4.8      3.198      7.287
  Name = 
  2 active torsions:
  status: ('A' for Active; 'I' for Inactive)
    1  A    between atoms: C_10  and  N_25
    2  A    between atoms: C_13  and  C_30
                            x       y       z     vdW  Elec       q    Type
                         _______ _______ _______ _____ _____    ______ ____

>  <TORSDO>
F 2

$$$$
=
 OpenBabel10272413423D

 30 35  0  0  1  0  0  0  0  0999 V2000
  191.0690  174.0280  135.7370 C   0  0  1  0  0  3  0  0  0  0  0  0
  189.5890  172.1030  134.8110 C   0  0  2  0  0  3  0  0  0  0  0  0
  188.0320  174.9190  136.5590 C   0  0  1  0  0  3  0  0  0  0  0  0
  191.1070  175.4970  136.3070 C   0  0  1  0  0  3  0  0  0  0  0  0
  191.9580  173.0960  136.5920 C   0  0  0  0  0  2  0  0  0  0  0  0
  194.7010  175.3100  137.5080 N   0  0  0  0  0  0  0  0  0  0  0  0
  193.4820  175.0590  137.0020 C   0  0  2  0  0  3  0  0  0  0  0  0
  194.2970  173.0710  137.5270 N   0  0  0  0  0  0  0  0  0  0  0  0
  187.8870  176.4390  136.3310 C   0  0  2  0  0  3  0  0  0  0  0  0
  193.2530  173.7180  136.9880 C   0  0  0  0  0  0  0  0  0  0  0  0
  192.5470  176.0660  136.4240 C   0  0  1  0  0  3  0  0  0  0  0  0
  188.6640  171.0670  135.4440 C   0  0  0  0  0  2  0  0  0  0  0  0
  196.4910  173.8400  138.4320 C   0  0  0  0  0  1  0  0  0  0  0  0
  190.8260  171.5210  134.5910 F   0  0  0  0  0  0  0  0  0  0  0  0
  187.1290  174.0010  135.7470 C   0  0  2  0  0  3  0  0  0  0  0  0
  187.2040  171.5100  135.4540 C   0  0  0  0  0  2  0  0  0  0  0  0
  195.1580  174.0750  137.8170 C   0  0  0  0  0  0  0  0  0  0  0  0
  189.6710  173.3520  135.7020 C   0  0  2  0  0  3  0  0  0  0  0  0
  190.2240  176.5310  135.5650 C   0  0  0  0  0  2  0  0  0  0  0  0
  187.0860  176.8680  135.1030 C   0  0  0  0  0  1  0  0  0  0  0  0
  189.1720  177.1600  136.3960 N   0  0  2  0  0  0  0  0  0  0  0  0
  186.9820  172.6490  136.4410 C   0  0  0  0  0  2  0  0  0  0  0  0
  188.5580  174.2960  135.2810 C   0  0  2  0  0  3  0  0  0  0  0  0
  188.3760  177.7270  138.6400 C   0  0  2  0  0  3  0  0  0  0  0  0
  189.5750  177.3360  137.7960 C   0  0  2  0  0  3  0  0  0  0  0  0
  189.4020  178.7800  138.2780 C   0  0  1  0  0  3  0  0  0  0  0  0
  188.8800  179.6090  137.2820 O   0  0  0  0  0  1  0  0  0  0  0  0
  188.6070  177.2780  140.0670 C   0  0  0  0  0  1  0  0  0  0  0  0
  193.9770  175.6670  134.3500 C   0  0  0  0  0  1  0  0  0  0  0  0
  193.1100  176.6530  135.1200 C   0  0  0  0  0  2  0  0  0  0  0  0
  1  4  1  0  0  0  0
  1  5  1  1  0  0  0
  2 14  1  1  0  0  0
  2 12  1  0  0  0  0
  2 18  1  0  0  0  0
  4 11  1  0  0  0  0
  5 10  1  0  0  0  0
  6 17  2  0  0  0  0
  7  6  1  0  0  0  0
  8 17  1  0  0  0  0
  9 21  1  0  0  0  0
  9  3  1  0  0  0  0
 10  7  1  0  0  0  0
 10  8  2  0  0  0  0
 11  7  1  0  0  0  0
 12 16  1  0  0  0  0
 15 22  1  0  0  0  0
 15  3  1  0  0  0  0
 16 22  1  0  0  0  0
 17 13  1  0  0  0  0
 18  1  1  0  0  0  0
 19  4  1  0  0  0  0
 19 21  1  0  0  0  0
 20  9  1  0  0  0  0
 21 25  1  0  0  0  0
 23 18  1  0  0  0  0
 23 15  1  0  0  0  0
 23  3  1  0  0  0  0
 24 28  1  0  0  0  0
 25 26  1  0  0  0  0
 25 24  1  0  0  0  0
 26 24  1  0  0  0  0
 27 26  1  0  0  0  0
 29 30  1  0  0  0  0
 30 11  1  0  0  0  0
M  END
>  <MODEL>
9

>  <REMARK>
 VINA RESULT:      -4.8      4.717      8.409
  Name = 
  2 active torsions:
  status: ('A' for Active; 'I' for Inactive)
    1  A    between atoms: C_10  and  N_25
    2  A    between atoms: C_13  and  C_30
                            x       y       z     vdW  Elec       q    Type
                         _______ _______ _______ _____ _____    ______ ____

>  <TORSDO>
F 2

$$$$
