=
 OpenBabel10272413193D

 32 34  0  0  1  0  0  0  0  0999 V2000
  186.7530  177.6790  144.5610 C   0  0  0  0  0  2  0  0  0  0  0  0
  184.5330  178.6130  145.6210 C   0  0  2  0  0  3  0  0  0  0  0  0
  185.7850  179.2340  146.2070 C   0  0  0  0  0  2  0  0  0  0  0  0
  185.8130  177.7790  145.7750 C   0  0  2  0  0  3  0  0  0  0  0  0
  184.2210  179.0680  144.2140 C   0  0  0  0  0  0  0  0  0  0  0  0
  184.6240  180.1870  143.7930 O   0  0  0  0  0  0  0  0  0  0  0  0
  183.4570  178.2660  143.3540 O   0  0  0  0  0  0  0  0  0  0  0  0
  183.0450  178.6400  142.0350 C   0  0  1  0  0  3  0  0  0  0  0  0
  183.7960  177.8690  140.9510 C   0  0  0  0  0  2  0  0  0  0  0  0
  184.5960  178.8020  140.0620 C   0  0  2  0  0  3  0  0  0  0  0  0
  185.3500  179.6770  140.8450 O   0  0  0  0  0  1  0  0  0  0  0  0
  183.6430  179.6010  139.1980 C   0  0  0  0  0  1  0  0  0  0  0  0
  181.5380  178.4860  141.8770 C   0  0  0  0  0  2  0  0  0  0  0  0
  180.6950  180.4460  142.9420 O   0  0  0  0  0  0  0  0  0  0  0  0
  180.2850  178.4560  144.0680 N   0  0  0  0  0  1  0  0  0  0  0  0
  180.8150  179.1930  142.9720 C   0  0  0  0  0  0  0  0  0  0  0  0
  188.1760  177.9340  144.8630 N   0  0  0  0  0  0  0  0  0  0  0  0
  188.9490  177.8070  143.6790 N   0  0  0  0  0  0  0  0  0  0  0  0
  189.3840  176.4050  143.5760 C   0  0  0  0  0  2  0  0  0  0  0  0
  189.0580  178.2140  138.8490 C   0  0  0  0  0  3  0  0  0  0  0  0
  188.0780  178.0380  142.5120 C   0  0  0  0  0  2  0  0  0  0  0  0
  190.5460  176.6640  139.9680 C   0  0  0  0  0  3  0  0  0  0  0  0
  189.8860  176.8980  141.1780 C   0  0  0  0  0  0  0  0  0  0  0  0
  190.3840  176.2420  142.4310 C   0  0  0  0  0  2  0  0  0  0  0  0
  188.8210  177.8180  141.2260 C   0  0  0  0  0  0  0  0  0  0  0  0
  190.1310  177.3190  138.8040 C   0  0  0  0  0  3  0  0  0  0  0  0
  188.4010  178.4600  140.0580 C   0  0  0  0  0  3  0  0  0  0  0  0
  188.6260  176.9700  145.8780 C   0  0  0  0  0  2  0  0  0  0  0  0
  189.4340  177.6760  146.9530 C   0  0  1  0  0  3  0  0  0  0  0  0
  188.6110  177.8000  148.2230 C   0  0  0  0  0  1  0  0  0  0  0  0
  191.6460  177.1310  146.2410 O   0  0  0  0  0  1  0  0  0  0  0  0
  190.6940  176.8790  147.2300 C   0  0  0  0  0  2  0  0  0  0  0  0
  1 17  1  0  0  0  0
  2  5  1  6  0  0  0
  2  4  1  0  0  0  0
  2  3  1  0  0  0  0
  4  1  1  6  0  0  0
  4  3  1  0  0  0  0
  6  5  2  0  0  0  0
  7  5  1  0  0  0  0
  8  9  1  6  0  0  0
  8  7  1  0  0  0  0
 10 12  1  1  0  0  0
 10 11  1  0  0  0  0
 10  9  1  0  0  0  0
 13  8  1  0  0  0  0
 13 16  1  0  0  0  0
 14 16  2  0  0  0  0
 16 15  1  0  0  0  0
 17 28  1  0  0  0  0
 18 17  1  0  0  0  0
 19 18  1  0  0  0  0
 20 27  1  0  0  0  0
 21 18  1  0  0  0  0
 22 23  2  0  0  0  0
 23 25  1  0  0  0  0
 23 24  1  0  0  0  0
 24 19  1  0  0  0  0
 25 21  1  0  0  0  0
 26 20  2  0  0  0  0
 26 22  1  0  0  0  0
 27 25  2  0  0  0  0
 28 29  1  0  0  0  0
 29 32  1  0  0  0  0
 29 30  1  1  0  0  0
 31 32  1  0  0  0  0
M  END
>  <MODEL>
1

>  <REMARK>
 VINA RESULT:      -7.9      0.000      0.000
  Name = 
  13 active torsions:
  status: ('A' for Active; 'I' for Inactive)
    1  A    between atoms: C_1  and  N_5
    2  A    between atoms: C_1  and  C_30
    3  A    between atoms: N_2  and  N_5
    4  A    between atoms: C_3  and  C_8
    5  A    between atoms: C_3  and  C_20
    6  A    between atoms: C_4  and  C_24
    7  A    between atoms: N_5  and  C_14
    8  A    between atoms: C_13  and  C_14
    9  A    between atoms: C_13  and  C_29
   10  A    between atoms: C_15  and  C_20
   11  A    between atoms: C_15  and  C_26
   12  A    between atoms: O_16  and  C_20
   13  A    between atoms: O_16  and  C_24
                            x       y       z     vdW  Elec       q    Type
                         _______ _______ _______ _____ _____    ______ ____

>  <TORSDO>
F 13

$$$$
=
 OpenBabel10272413193D

 32 34  0  0  1  0  0  0  0  0999 V2000
  188.9830  177.3380  143.6880 C   0  0  0  0  0  2  0  0  0  0  0  0
  191.3170  177.8460  142.5830 C   0  0  2  0  0  3  0  0  0  0  0  0
  191.4210  177.0390  143.8620 C   0  0  0  0  0  2  0  0  0  0  0  0
  190.3290  178.0850  143.7330 C   0  0  2  0  0  3  0  0  0  0  0  0
  190.7700  177.0690  141.4080 C   0  0  0  0  0  0  0  0  0  0  0  0
  190.5230  175.8360  141.5080 O   0  0  0  0  0  0  0  0  0  0  0  0
  190.5460  177.6990  140.1750 O   0  0  0  0  0  0  0  0  0  0  0  0
  189.7310  177.1710  139.1220 C   0  0  1  0  0  3  0  0  0  0  0  0
  188.5070  178.0420  138.8430 C   0  0  0  0  0  2  0  0  0  0  0  0
  188.5400  178.6070  137.4360 C   0  0  2  0  0  3  0  0  0  0  0  0
  188.8980  179.9560  137.4730 O   0  0  0  0  0  1  0  0  0  0  0  0
  187.1670  178.4720  136.8150 C   0  0  0  0  0  1  0  0  0  0  0  0
  190.5550  176.9570  137.8580 C   0  0  0  0  0  2  0  0  0  0  0  0
  191.2660  174.7080  138.2060 O   0  0  0  0  0  0  0  0  0  0  0  0
  192.9690  176.2870  138.1670 N   0  0  0  0  0  1  0  0  0  0  0  0
  191.5990  175.9160  138.0760 C   0  0  0  0  0  0  0  0  0  0  0  0
  188.3770  177.0850  145.0100 N   0  0  0  0  0  0  0  0  0  0  0  0
  186.9780  177.3200  144.9500 N   0  0  0  0  0  0  0  0  0  0  0  0
  186.6650  178.4050  145.8950 C   0  0  0  0  0  2  0  0  0  0  0  0
  183.2010  178.6080  142.1960 C   0  0  0  0  0  3  0  0  0  0  0  0
  186.6380  177.8480  143.6160 C   0  0  0  0  0  2  0  0  0  0  0  0
  183.1500  179.0070  144.5850 C   0  0  0  0  0  3  0  0  0  0  0  0
  184.4920  178.6280  144.6800 C   0  0  0  0  0  0  0  0  0  0  0  0
  185.1510  178.5740  146.0270 C   0  0  0  0  0  2  0  0  0  0  0  0
  185.1840  178.2110  143.5270 C   0  0  0  0  0  0  0  0  0  0  0  0
  182.5060  179.0000  143.3440 C   0  0  0  0  0  3  0  0  0  0  0  0
  184.5410  178.2180  142.2870 C   0  0  0  0  0  3  0  0  0  0  0  0
  189.0060  177.9710  145.9990 C   0  0  0  0  0  2  0  0  0  0  0  0
  189.3310  177.1990  147.2670 C   0  0  1  0  0  3  0  0  0  0  0  0
  190.7740  176.7300  147.2330 C   0  0  0  0  0  1  0  0  0  0  0  0
  187.9200  177.7520  149.1110 O   0  0  0  0  0  1  0  0  0  0  0  0
  189.1090  178.0990  148.4670 C   0  0  0  0  0  2  0  0  0  0  0  0
  1 17  1  0  0  0  0
  2  5  1  6  0  0  0
  2  4  1  0  0  0  0
  2  3  1  0  0  0  0
  4  1  1  6  0  0  0
  4  3  1  0  0  0  0
  5  6  2  0  0  0  0
  7  5  1  0  0  0  0
  8 13  1  6  0  0  0
  8  7  1  0  0  0  0
  9  8  1  0  0  0  0
 10 12  1  1  0  0  0
 10 11  1  0  0  0  0
 10  9  1  0  0  0  0
 13 16  1  0  0  0  0
 16 15  1  0  0  0  0
 16 14  2  0  0  0  0
 17 28  1  0  0  0  0
 18 17  1  0  0  0  0
 18 19  1  0  0  0  0
 19 24  1  0  0  0  0
 20 27  2  0  0  0  0
 20 26  1  0  0  0  0
 21 18  1  0  0  0  0
 22 23  1  0  0  0  0
 23 24  1  0  0  0  0
 25 21  1  0  0  0  0
 25 23  2  0  0  0  0
 26 22  2  0  0  0  0
 27 25  1  0  0  0  0
 28 29  1  0  0  0  0
 29 30  1  6  0  0  0
 29 32  1  0  0  0  0
 32 31  1  0  0  0  0
M  END
>  <MODEL>
2

>  <REMARK>
 VINA RESULT:      -7.8      3.246      6.777
  Name = 
  13 active torsions:
  status: ('A' for Active; 'I' for Inactive)
    1  A    between atoms: C_1  and  N_5
    2  A    between atoms: C_1  and  C_30
    3  A    between atoms: N_2  and  N_5
    4  A    between atoms: C_3  and  C_8
    5  A    between atoms: C_3  and  C_20
    6  A    between atoms: C_4  and  C_24
    7  A    between atoms: N_5  and  C_14
    8  A    between atoms: C_13  and  C_14
    9  A    between atoms: C_13  and  C_29
   10  A    between atoms: C_15  and  C_20
   11  A    between atoms: C_15  and  C_26
   12  A    between atoms: O_16  and  C_20
   13  A    between atoms: O_16  and  C_24
                            x       y       z     vdW  Elec       q    Type
                         _______ _______ _______ _____ _____    ______ ____

>  <TORSDO>
F 13

$$$$
=
 OpenBabel10272413193D

 32 34  0  0  1  0  0  0  0  0999 V2000
  188.6320  176.7570  143.7820 C   0  0  0  0  0  2  0  0  0  0  0  0
  190.3870  178.0160  142.2770 C   0  0  2  0  0  3  0  0  0  0  0  0
  190.8670  176.6590  142.7520 C   0  0  0  0  0  2  0  0  0  0  0  0
  189.9800  177.4910  143.6620 C   0  0  2  0  0  3  0  0  0  0  0  0
  189.3110  177.9510  141.2180 C   0  0  0  0  0  0  0  0  0  0  0  0
  188.3470  178.7640  141.2260 O   0  0  0  0  0  0  0  0  0  0  0  0
  189.3510  176.9710  140.2150 O   0  0  0  0  0  0  0  0  0  0  0  0
  189.9720  177.1320  138.9360 C   0  0  1  0  0  3  0  0  0  0  0  0
  191.0650  176.0950  138.6850 C   0  0  0  0  0  2  0  0  0  0  0  0
  190.8220  175.3360  137.3940 C   0  0  2  0  0  3  0  0  0  0  0  0
  190.6180  173.9830  137.6680 O   0  0  0  0  0  1  0  0  0  0  0  0
  192.0300  175.4880  136.4960 C   0  0  0  0  0  1  0  0  0  0  0  0
  188.9300  177.1150  137.8240 C   0  0  0  0  0  2  0  0  0  0  0  0
  188.9840  179.4850  137.5790 O   0  0  0  0  0  0  0  0  0  0  0  0
  186.8600  178.5540  137.7070 N   0  0  0  0  0  1  0  0  0  0  0  0
  188.2790  178.4480  137.6870 C   0  0  0  0  0  0  0  0  0  0  0  0
  188.0310  176.7950  145.1300 N   0  0  0  0  0  0  0  0  0  0  0  0
  186.6590  177.1490  145.0350 N   0  0  0  0  0  0  0  0  0  0  0  0
  186.4210  178.2730  145.9550 C   0  0  0  0  0  2  0  0  0  0  0  0
  183.0680  178.7080  142.1750 C   0  0  0  0  0  3  0  0  0  0  0  0
  186.3950  177.6810  143.6850 C   0  0  0  0  0  2  0  0  0  0  0  0
  183.0000  179.1520  144.5560 C   0  0  0  0  0  3  0  0  0  0  0  0
  184.3020  178.6610  144.6880 C   0  0  0  0  0  0  0  0  0  0  0  0
  184.9250  178.5740  146.0490 C   0  0  0  0  0  2  0  0  0  0  0  0
  184.9790  178.1650  143.5570 C   0  0  0  0  0  0  0  0  0  0  0  0
  182.3840  179.1780  143.3010 C   0  0  0  0  0  3  0  0  0  0  0  0
  184.3660  178.2060  142.3030 C   0  0  0  0  0  3  0  0  0  0  0  0
  188.7600  177.7750  145.9480 C   0  0  0  0  0  2  0  0  0  0  0  0
  189.2890  177.1160  147.2110 C   0  0  1  0  0  3  0  0  0  0  0  0
  190.7340  176.6960  147.0080 C   0  0  0  0  0  1  0  0  0  0  0  0
  187.9300  178.0280  148.9480 O   0  0  0  0  0  1  0  0  0  0  0  0
  189.1950  178.1010  148.3610 C   0  0  0  0  0  2  0  0  0  0  0  0
  1 17  1  0  0  0  0
  2  5  1  6  0  0  0
  2  3  1  0  0  0  0
  2  4  1  0  0  0  0
  3  4  1  0  0  0  0
  4  1  1  6  0  0  0
  5  6  2  0  0  0  0
  7  5  1  0  0  0  0
  8 13  1  6  0  0  0
  8  7  1  0  0  0  0
  9  8  1  0  0  0  0
 10 12  1  6  0  0  0
 10 11  1  0  0  0  0
 10  9  1  0  0  0  0
 14 16  2  0  0  0  0
 16 15  1  0  0  0  0
 16 13  1  0  0  0  0
 17 28  1  0  0  0  0
 18 17  1  0  0  0  0
 18 19  1  0  0  0  0
 19 24  1  0  0  0  0
 20 27  2  0  0  0  0
 20 26  1  0  0  0  0
 21 18  1  0  0  0  0
 22 23  1  0  0  0  0
 23 24  1  0  0  0  0
 25 21  1  0  0  0  0
 25 23  2  0  0  0  0
 26 22  2  0  0  0  0
 27 25  1  0  0  0  0
 28 29  1  0  0  0  0
 29 30  1  6  0  0  0
 29 32  1  0  0  0  0
 32 31  1  0  0  0  0
M  END
>  <MODEL>
3

>  <REMARK>
 VINA RESULT:      -7.7      2.724      6.430
  Name = 
  13 active torsions:
  status: ('A' for Active; 'I' for Inactive)
    1  A    between atoms: C_1  and  N_5
    2  A    between atoms: C_1  and  C_30
    3  A    between atoms: N_2  and  N_5
    4  A    between atoms: C_3  and  C_8
    5  A    between atoms: C_3  and  C_20
    6  A    between atoms: C_4  and  C_24
    7  A    between atoms: N_5  and  C_14
    8  A    between atoms: C_13  and  C_14
    9  A    between atoms: C_13  and  C_29
   10  A    between atoms: C_15  and  C_20
   11  A    between atoms: C_15  and  C_26
   12  A    between atoms: O_16  and  C_20
   13  A    between atoms: O_16  and  C_24
                            x       y       z     vdW  Elec       q    Type
                         _______ _______ _______ _____ _____    ______ ____

>  <TORSDO>
F 13

$$$$
=
 OpenBabel10272413193D

 32 34  0  0  1  0  0  0  0  0999 V2000
  188.9030  177.4630  141.1630 C   0  0  0  0  0  2  0  0  0  0  0  0
  191.0270  177.2180  142.6980 C   0  0  2  0  0  3  0  0  0  0  0  0
  190.4140  178.6040  142.7380 C   0  0  0  0  0  2  0  0  0  0  0  0
  190.3750  177.8150  141.4420 C   0  0  2  0  0  3  0  0  0  0  0  0
  190.2130  176.1640  143.4120 C   0  0  0  0  0  0  0  0  0  0  0  0
  190.3830  174.9390  143.1630 O   0  0  0  0  0  0  0  0  0  0  0  0
  189.2360  176.5270  144.3500 O   0  0  0  0  0  0  0  0  0  0  0  0
  189.4970  176.8560  145.7190 C   0  0  1  0  0  3  0  0  0  0  0  0
  190.9850  177.0730  145.9900 C   0  0  0  0  0  2  0  0  0  0  0  0
  191.4410  176.3040  147.2170 C   0  0  2  0  0  3  0  0  0  0  0  0
  192.0310  177.1760  148.1320 O   0  0  0  0  0  1  0  0  0  0  0  0
  192.4510  175.2590  146.7990 C   0  0  0  0  0  1  0  0  0  0  0  0
  188.6770  178.0660  146.1480 C   0  0  0  0  0  2  0  0  0  0  0  0
  188.1440  176.7740  148.0800 O   0  0  0  0  0  0  0  0  0  0  0  0
  186.6710  178.5090  147.6160 N   0  0  0  0  0  1  0  0  0  0  0  0
  187.8370  177.7430  147.3370 C   0  0  0  0  0  0  0  0  0  0  0  0
  188.1890  178.4370  140.3130 N   0  0  0  0  0  0  0  0  0  0  0  0
  186.9910  178.8470  140.9550 N   0  0  0  0  0  0  0  0  0  0  0  0
  185.8620  178.4050  140.1210 C   0  0  0  0  0  2  0  0  0  0  0  0
  184.2070  178.5440  144.9130 C   0  0  0  0  0  3  0  0  0  0  0  0
  186.8540  178.1130  142.2260 C   0  0  0  0  0  2  0  0  0  0  0  0
  183.2060  179.0390  142.7630 C   0  0  0  0  0  3  0  0  0  0  0  0
  184.4270  178.7840  142.1320 C   0  0  0  0  0  0  0  0  0  0  0  0
  184.5510  178.9870  140.6510 C   0  0  0  0  0  2  0  0  0  0  0  0
  185.5520  178.4330  142.9030 C   0  0  0  0  0  0  0  0  0  0  0  0
  183.0950  178.9160  144.1520 C   0  0  0  0  0  3  0  0  0  0  0  0
  185.4340  178.2980  144.2890 C   0  0  0  0  0  3  0  0  0  0  0  0
  187.8910  177.8080  139.0180 C   0  0  0  0  0  2  0  0  0  0  0  0
  189.0910  177.9140  138.0930 C   0  0  1  0  0  3  0  0  0  0  0  0
  189.1060  176.7420  137.1280 C   0  0  0  0  0  1  0  0  0  0  0  0
  187.6950  179.4440  136.9070 O   0  0  0  0  0  1  0  0  0  0  0  0
  189.0090  179.2170  137.3200 C   0  0  0  0  0  2  0  0  0  0  0  0
  2  3  1  0  0  0  0
  2  5  1  1  0  0  0
  4  1  1  1  0  0  0
  4  2  1  0  0  0  0
  4  3  1  0  0  0  0
  5  7  1  0  0  0  0
  6  5  2  0  0  0  0
  7  8  1  0  0  0  0
  8  9  1  6  0  0  0
  8 13  1  0  0  0  0
  9 10  1  0  0  0  0
 10 12  1  6  0  0  0
 10 11  1  0  0  0  0
 13 16  1  0  0  0  0
 16 15  1  0  0  0  0
 16 14  2  0  0  0  0
 17 18  1  0  0  0  0
 17  1  1  0  0  0  0
 18 21  1  0  0  0  0
 19 24  1  0  0  0  0
 19 18  1  0  0  0  0
 21 25  1  0  0  0  0
 22 26  1  0  0  0  0
 23 22  2  0  0  0  0
 23 25  1  0  0  0  0
 24 23  1  0  0  0  0
 25 27  2  0  0  0  0
 26 20  2  0  0  0  0
 27 20  1  0  0  0  0
 28 17  1  0  0  0  0
 29 30  1  6  0  0  0
 29 28  1  0  0  0  0
 31 32  1  0  0  0  0
 32 29  1  0  0  0  0
M  END
>  <MODEL>
4

>  <REMARK>
 VINA RESULT:      -7.5      3.078      7.767
  Name = 
  13 active torsions:
  status: ('A' for Active; 'I' for Inactive)
    1  A    between atoms: C_1  and  N_5
    2  A    between atoms: C_1  and  C_30
    3  A    between atoms: N_2  and  N_5
    4  A    between atoms: C_3  and  C_8
    5  A    between atoms: C_3  and  C_20
    6  A    between atoms: C_4  and  C_24
    7  A    between atoms: N_5  and  C_14
    8  A    between atoms: C_13  and  C_14
    9  A    between atoms: C_13  and  C_29
   10  A    between atoms: C_15  and  C_20
   11  A    between atoms: C_15  and  C_26
   12  A    between atoms: O_16  and  C_20
   13  A    between atoms: O_16  and  C_24
                            x       y       z     vdW  Elec       q    Type
                         _______ _______ _______ _____ _____    ______ ____

>  <TORSDO>
F 13

$$$$
=
 OpenBabel10272413193D

 32 34  0  0  1  0  0  0  0  0999 V2000
  188.9150  178.4840  141.4160 C   0  0  0  0  0  2  0  0  0  0  0  0
  189.9870  176.3420  142.5070 C   0  0  2  0  0  3  0  0  0  0  0  0
  191.0120  177.3710  142.0720 C   0  0  0  0  0  2  0  0  0  0  0  0
  189.7440  177.1970  141.2550 C   0  0  2  0  0  3  0  0  0  0  0  0
  189.1940  176.7420  143.7300 C   0  0  0  0  0  0  0  0  0  0  0  0
  188.0760  176.2120  143.9760 O   0  0  0  0  0  0  0  0  0  0  0  0
  189.6740  177.7280  144.6040 O   0  0  0  0  0  0  0  0  0  0  0  0
  190.1690  177.4810  145.9250 C   0  0  1  0  0  3  0  0  0  0  0  0
  189.0840  176.9530  146.8620 C   0  0  0  0  0  2  0  0  0  0  0  0
  188.3500  178.0880  147.5520 C   0  0  2  0  0  3  0  0  0  0  0  0
  188.4010  177.9160  148.9350 O   0  0  0  0  0  1  0  0  0  0  0  0
  186.9060  178.0910  147.1010 C   0  0  0  0  0  1  0  0  0  0  0  0
  191.3670  176.5400  145.8840 C   0  0  0  0  0  2  0  0  0  0  0  0
  191.8770  174.9520  147.5870 O   0  0  0  0  0  0  0  0  0  0  0  0
  192.0800  177.1770  148.2210 N   0  0  0  0  0  1  0  0  0  0  0  0
  191.7940  176.1650  147.2620 C   0  0  0  0  0  0  0  0  0  0  0  0
  188.0440  178.8000  140.2670 N   0  0  0  0  0  0  0  0  0  0  0  0
  186.7270  179.0740  140.7230 N   0  0  0  0  0  0  0  0  0  0  0  0
  185.7910  178.3440  139.8540 C   0  0  0  0  0  2  0  0  0  0  0  0
  183.5700  178.7880  144.3920 C   0  0  0  0  0  3  0  0  0  0  0  0
  186.5560  178.4910  142.0660 C   0  0  0  0  0  2  0  0  0  0  0  0
  182.7700  178.8310  142.1050 C   0  0  0  0  0  3  0  0  0  0  0  0
  184.0830  178.7160  141.6400 C   0  0  0  0  0  0  0  0  0  0  0  0
  184.3500  178.7510  140.1650 C   0  0  0  0  0  2  0  0  0  0  0  0
  185.1480  178.6630  142.5600 C   0  0  0  0  0  0  0  0  0  0  0  0
  182.5130  178.8650  143.4800 C   0  0  0  0  0  3  0  0  0  0  0  0
  184.8860  178.6820  143.9320 C   0  0  0  0  0  3  0  0  0  0  0  0
  188.0410  177.6570  139.3430 C   0  0  0  0  0  2  0  0  0  0  0  0
  189.1250  177.8280  138.2910 C   0  0  1  0  0  3  0  0  0  0  0  0
  189.0800  176.6710  137.3090 C   0  0  0  0  0  1  0  0  0  0  0  0
  187.6320  179.1470  136.9760 O   0  0  0  0  0  1  0  0  0  0  0  0
  188.9010  179.1370  137.5580 C   0  0  0  0  0  2  0  0  0  0  0  0
  2  5  1  1  0  0  0
  3  2  1  0  0  0  0
  4  1  1  1  0  0  0
  4  3  1  0  0  0  0
  4  2  1  0  0  0  0
  5  6  2  0  0  0  0
  5  7  1  0  0  0  0
  7  8  1  0  0  0  0
  8 13  1  6  0  0  0
  8  9  1  0  0  0  0
  9 10  1  0  0  0  0
 10 12  1  6  0  0  0
 10 11  1  0  0  0  0
 13 16  1  0  0  0  0
 16 14  2  0  0  0  0
 16 15  1  0  0  0  0
 17 18  1  0  0  0  0
 17  1  1  0  0  0  0
 18 21  1  0  0  0  0
 19 24  1  0  0  0  0
 19 18  1  0  0  0  0
 21 25  1  0  0  0  0
 22 26  1  0  0  0  0
 23 22  2  0  0  0  0
 23 25  1  0  0  0  0
 24 23  1  0  0  0  0
 25 27  2  0  0  0  0
 26 20  2  0  0  0  0
 27 20  1  0  0  0  0
 28 17  1  0  0  0  0
 29 30  1  6  0  0  0
 29 28  1  0  0  0  0
 31 32  1  0  0  0  0
 32 29  1  0  0  0  0
M  END
>  <MODEL>
5

>  <REMARK>
 VINA RESULT:      -7.2      2.943      8.016
  Name = 
  13 active torsions:
  status: ('A' for Active; 'I' for Inactive)
    1  A    between atoms: C_1  and  N_5
    2  A    between atoms: C_1  and  C_30
    3  A    between atoms: N_2  and  N_5
    4  A    between atoms: C_3  and  C_8
    5  A    between atoms: C_3  and  C_20
    6  A    between atoms: C_4  and  C_24
    7  A    between atoms: N_5  and  C_14
    8  A    between atoms: C_13  and  C_14
    9  A    between atoms: C_13  and  C_29
   10  A    between atoms: C_15  and  C_20
   11  A    between atoms: C_15  and  C_26
   12  A    between atoms: O_16  and  C_20
   13  A    between atoms: O_16  and  C_24
                            x       y       z     vdW  Elec       q    Type
                         _______ _______ _______ _____ _____    ______ ____

>  <TORSDO>
F 13

$$$$
=
 OpenBabel10272413193D

 32 34  0  0  1  0  0  0  0  0999 V2000
  188.9720  177.4350  143.5410 C   0  0  0  0  0  2  0  0  0  0  0  0
  191.2520  177.5070  142.2280 C   0  0  2  0  0  3  0  0  0  0  0  0
  191.1680  176.3670  143.2240 C   0  0  0  0  0  2  0  0  0  0  0  0
  190.4910  177.6860  143.5490 C   0  0  2  0  0  3  0  0  0  0  0  0
  190.3890  177.3180  141.0020 C   0  0  0  0  0  0  0  0  0  0  0  0
  189.5870  178.2190  140.6320 O   0  0  0  0  0  0  0  0  0  0  0  0
  190.4440  176.1270  140.2640 O   0  0  0  0  0  0  0  0  0  0  0  0
  190.8520  176.0310  138.8950 C   0  0  1  0  0  3  0  0  0  0  0  0
  189.6640  175.9310  137.9400 C   0  0  0  0  0  2  0  0  0  0  0  0
  189.6920  174.6320  137.1560 C   0  0  2  0  0  3  0  0  0  0  0  0
  190.9040  173.9750  137.3680 O   0  0  0  0  0  1  0  0  0  0  0  0
  189.5420  174.9400  135.6820 C   0  0  0  0  0  1  0  0  0  0  0  0
  191.7630  177.1930  138.5210 C   0  0  0  0  0  2  0  0  0  0  0  0
  193.8760  177.0530  139.6160 O   0  0  0  0  0  0  0  0  0  0  0  0
  193.8050  176.1290  137.4860 N   0  0  0  0  0  1  0  0  0  0  0  0
  193.1960  176.7880  138.5900 C   0  0  0  0  0  0  0  0  0  0  0  0
  188.3930  177.1280  144.8630 N   0  0  0  0  0  0  0  0  0  0  0  0
  186.9940  177.3710  144.8440 N   0  0  0  0  0  0  0  0  0  0  0  0
  186.7100  178.4290  145.8260 C   0  0  0  0  0  2  0  0  0  0  0  0
  183.1600  178.7550  142.2200 C   0  0  0  0  0  3  0  0  0  0  0  0
  186.6260  177.9390  143.5340 C   0  0  0  0  0  2  0  0  0  0  0  0
  183.1680  179.0850  144.6200 C   0  0  0  0  0  3  0  0  0  0  0  0
  184.5100  178.6980  144.6720 C   0  0  0  0  0  0  0  0  0  0  0  0
  185.2010  178.6010  145.9990 C   0  0  0  0  0  2  0  0  0  0  0  0
  185.1710  178.3100  143.4910 C   0  0  0  0  0  0  0  0  0  0  0  0
  182.4940  179.1160  143.3950 C   0  0  0  0  0  3  0  0  0  0  0  0
  184.4990  178.3570  142.2670 C   0  0  0  0  0  3  0  0  0  0  0  0
  189.0480  177.9680  145.8760 C   0  0  0  0  0  2  0  0  0  0  0  0
  189.4460  177.1290  147.0780 C   0  0  1  0  0  3  0  0  0  0  0  0
  190.8770  176.6460  146.9220 C   0  0  0  0  0  1  0  0  0  0  0  0
  188.0790  177.7500  148.9340 O   0  0  0  0  0  1  0  0  0  0  0  0
  189.3200  177.9700  148.3340 C   0  0  0  0  0  2  0  0  0  0  0  0
  1 17  1  0  0  0  0
  2  5  1  6  0  0  0
  2  3  1  0  0  0  0
  2  4  1  0  0  0  0
  3  4  1  0  0  0  0
  4  1  1  6  0  0  0
  6  5  2  0  0  0  0
  7  5  1  0  0  0  0
  8  9  1  6  0  0  0
  8  7  1  0  0  0  0
 10 12  1  6  0  0  0
 10 11  1  0  0  0  0
 10  9  1  0  0  0  0
 13 16  1  0  0  0  0
 13  8  1  0  0  0  0
 15 16  1  0  0  0  0
 16 14  2  0  0  0  0
 17 28  1  0  0  0  0
 18 17  1  0  0  0  0
 18 19  1  0  0  0  0
 19 24  1  0  0  0  0
 20 27  2  0  0  0  0
 20 26  1  0  0  0  0
 21 18  1  0  0  0  0
 22 23  1  0  0  0  0
 23 24  1  0  0  0  0
 25 21  1  0  0  0  0
 25 23  2  0  0  0  0
 26 22  2  0  0  0  0
 27 25  1  0  0  0  0
 28 29  1  0  0  0  0
 29 30  1  6  0  0  0
 29 32  1  0  0  0  0
 32 31  1  0  0  0  0
M  END
>  <MODEL>
6

>  <REMARK>
 VINA RESULT:      -7.2      3.231      7.360
  Name = 
  13 active torsions:
  status: ('A' for Active; 'I' for Inactive)
    1  A    between atoms: C_1  and  N_5
    2  A    between atoms: C_1  and  C_30
    3  A    between atoms: N_2  and  N_5
    4  A    between atoms: C_3  and  C_8
    5  A    between atoms: C_3  and  C_20
    6  A    between atoms: C_4  and  C_24
    7  A    between atoms: N_5  and  C_14
    8  A    between atoms: C_13  and  C_14
    9  A    between atoms: C_13  and  C_29
   10  A    between atoms: C_15  and  C_20
   11  A    between atoms: C_15  and  C_26
   12  A    between atoms: O_16  and  C_20
   13  A    between atoms: O_16  and  C_24
                            x       y       z     vdW  Elec       q    Type
                         _______ _______ _______ _____ _____    ______ ____

>  <TORSDO>
F 13

$$$$
=
 OpenBabel10272413193D

 32 34  0  0  1  0  0  0  0  0999 V2000
  188.3130  178.3340  141.5910 C   0  0  0  0  0  2  0  0  0  0  0  0
  190.0070  176.6140  142.6400 C   0  0  2  0  0  3  0  0  0  0  0  0
  190.6390  177.5240  141.6060 C   0  0  0  0  0  2  0  0  0  0  0  0
  189.1970  177.0850  141.4230 C   0  0  2  0  0  3  0  0  0  0  0  0
  189.6760  177.3010  143.9440 C   0  0  0  0  0  0  0  0  0  0  0  0
  190.4060  178.2300  144.3880 O   0  0  0  0  0  0  0  0  0  0  0  0
  188.5630  176.9050  144.7000 O   0  0  0  0  0  0  0  0  0  0  0  0
  188.0050  177.6500  145.7880 C   0  0  1  0  0  3  0  0  0  0  0  0
  186.5210  177.9490  145.5860 C   0  0  0  0  0  2  0  0  0  0  0  0
  185.8610  178.3770  146.8830 C   0  0  2  0  0  3  0  0  0  0  0  0
  184.4750  178.4120  146.7240 O   0  0  0  0  0  1  0  0  0  0  0  0
  186.3560  179.7570  147.2580 C   0  0  0  0  0  1  0  0  0  0  0  0
  188.2490  176.9370  147.1120 C   0  0  0  0  0  2  0  0  0  0  0  0
  189.3890  178.4150  148.5960 O   0  0  0  0  0  0  0  0  0  0  0  0
  190.7470  176.9030  147.4710 N   0  0  0  0  0  1  0  0  0  0  0  0
  189.4750  177.4600  147.7790 C   0  0  0  0  0  0  0  0  0  0  0  0
  187.7400  178.8540  140.3340 N   0  0  0  0  0  0  0  0  0  0  0  0
  186.3500  179.0910  140.5010 N   0  0  0  0  0  0  0  0  0  0  0  0
  185.6320  178.2750  139.5100 C   0  0  0  0  0  2  0  0  0  0  0  0
  182.5320  178.8590  143.4800 C   0  0  0  0  0  3  0  0  0  0  0  0
  185.9320  178.5740  141.8170 C   0  0  0  0  0  2  0  0  0  0  0  0
  182.2060  178.7450  141.0820 C   0  0  0  0  0  3  0  0  0  0  0  0
  183.5890  178.6640  140.8950 C   0  0  0  0  0  0  0  0  0  0  0  0
  184.1460  178.6330  139.5030 C   0  0  0  0  0  2  0  0  0  0  0  0
  184.4480  178.7080  142.0090 C   0  0  0  0  0  0  0  0  0  0  0  0
  181.6780  178.8400  142.3730 C   0  0  0  0  0  3  0  0  0  0  0  0
  183.9160  178.7890  143.2980 C   0  0  0  0  0  3  0  0  0  0  0  0
  187.9680  177.8700  139.2650 C   0  0  0  0  0  2  0  0  0  0  0  0
  188.9320  178.4300  138.2320 C   0  0  1  0  0  3  0  0  0  0  0  0
  190.0030  177.4020  137.9130 C   0  0  0  0  0  1  0  0  0  0  0  0
  187.4960  177.6530  136.4920 O   0  0  0  0  0  1  0  0  0  0  0  0
  188.1620  178.7810  136.9740 C   0  0  0  0  0  2  0  0  0  0  0  0
  2  5  1  1  0  0  0
  3  2  1  0  0  0  0
  4  1  1  1  0  0  0
  4  3  1  0  0  0  0
  4  2  1  0  0  0  0
  5  6  2  0  0  0  0
  5  7  1  0  0  0  0
  7  8  1  0  0  0  0
  8  9  1  6  0  0  0
  8 13  1  0  0  0  0
  9 10  1  0  0  0  0
 10 12  1  6  0  0  0
 11 10  1  0  0  0  0
 13 16  1  0  0  0  0
 15 16  1  0  0  0  0
 16 14  2  0  0  0  0
 17 18  1  0  0  0  0
 17  1  1  0  0  0  0
 18 21  1  0  0  0  0
 19 18  1  0  0  0  0
 21 25  1  0  0  0  0
 22 26  1  0  0  0  0
 23 22  2  0  0  0  0
 23 25  1  0  0  0  0
 24 19  1  0  0  0  0
 24 23  1  0  0  0  0
 25 27  2  0  0  0  0
 26 20  2  0  0  0  0
 27 20  1  0  0  0  0
 28 17  1  0  0  0  0
 29 30  1  6  0  0  0
 29 28  1  0  0  0  0
 31 32  1  0  0  0  0
 32 29  1  0  0  0  0
M  END
>  <MODEL>
7

>  <REMARK>
 VINA RESULT:      -7.1      2.476      7.461
  Name = 
  13 active torsions:
  status: ('A' for Active; 'I' for Inactive)
    1  A    between atoms: C_1  and  N_5
    2  A    between atoms: C_1  and  C_30
    3  A    between atoms: N_2  and  N_5
    4  A    between atoms: C_3  and  C_8
    5  A    between atoms: C_3  and  C_20
    6  A    between atoms: C_4  and  C_24
    7  A    between atoms: N_5  and  C_14
    8  A    between atoms: C_13  and  C_14
    9  A    between atoms: C_13  and  C_29
   10  A    between atoms: C_15  and  C_20
   11  A    between atoms: C_15  and  C_26
   12  A    between atoms: O_16  and  C_20
   13  A    between atoms: O_16  and  C_24
                            x       y       z     vdW  Elec       q    Type
                         _______ _______ _______ _____ _____    ______ ____

>  <TORSDO>
F 13

$$$$
=
 OpenBabel10272413193D

 32 34  0  0  1  0  0  0  0  0999 V2000
  188.8150  177.2270  141.5700 C   0  0  0  0  0  2  0  0  0  0  0  0
  189.9970  177.8310  139.2970 C   0  0  2  0  0  3  0  0  0  0  0  0
  190.6890  176.7160  140.0550 C   0  0  0  0  0  2  0  0  0  0  0  0
  190.0210  177.8360  140.8320 C   0  0  2  0  0  3  0  0  0  0  0  0
  188.6830  177.4260  138.6700 C   0  0  0  0  0  0  0  0  0  0  0  0
  188.5330  176.2780  138.1700 O   0  0  0  0  0  0  0  0  0  0  0  0
  187.6090  178.3270  138.6120 O   0  0  0  0  0  0  0  0  0  0  0  0
  186.2270  177.9530  138.5940 C   0  0  1  0  0  3  0  0  0  0  0  0
  185.3870  178.7870  139.5600 C   0  0  0  0  0  2  0  0  0  0  0  0
  184.1070  179.2690  138.9050 C   0  0  2  0  0  3  0  0  0  0  0  0
  184.0960  180.6630  138.8490 O   0  0  0  0  0  1  0  0  0  0  0  0
  182.9240  178.7920  139.7180 C   0  0  0  0  0  1  0  0  0  0  0  0
  185.6690  178.0210  137.1780 C   0  0  0  0  0  2  0  0  0  0  0  0
  185.8740  176.1970  135.6560 O   0  0  0  0  0  0  0  0  0  0  0  0
  184.3140  175.8980  137.3510 N   0  0  0  0  0  1  0  0  0  0  0  0
  185.3120  176.6610  136.6830 C   0  0  0  0  0  0  0  0  0  0  0  0
  189.0620  176.9040  142.9890 N   0  0  0  0  0  0  0  0  0  0  0  0
  187.8600  177.0480  143.7310 N   0  0  0  0  0  0  0  0  0  0  0  0
  188.1780  177.7910  144.9600 C   0  0  0  0  0  2  0  0  0  0  0  0
  183.3410  178.8010  143.8210 C   0  0  0  0  0  3  0  0  0  0  0  0
  186.9320  177.9100  142.9760 C   0  0  0  0  0  2  0  0  0  0  0  0
  184.5620  178.4940  145.8910 C   0  0  0  0  0  3  0  0  0  0  0  0
  185.7210  178.1990  145.1670 C   0  0  0  0  0  0  0  0  0  0  0  0
  186.9710  177.8080  145.8980 C   0  0  0  0  0  2  0  0  0  0  0  0
  185.6790  178.1790  143.7590 C   0  0  0  0  0  0  0  0  0  0  0  0
  183.3740  178.7970  145.2190 C   0  0  0  0  0  3  0  0  0  0  0  0
  184.4940  178.4960  143.0920 C   0  0  0  0  0  3  0  0  0  0  0  0
  190.0990  177.8070  143.5080 C   0  0  0  0  0  2  0  0  0  0  0  0
  191.2940  177.0090  144.0010 C   0  0  1  0  0  3  0  0  0  0  0  0
  191.4350  177.1640  145.5050 C   0  0  0  0  0  1  0  0  0  0  0  0
  192.1790  174.7940  144.0980 O   0  0  0  0  0  1  0  0  0  0  0  0
  191.0920  175.5470  143.6500 C   0  0  0  0  0  2  0  0  0  0  0  0
  1 17  1  0  0  0  0
  2  5  1  1  0  0  0
  2  3  1  0  0  0  0
  2  4  1  0  0  0  0
  3  4  1  0  0  0  0
  4  1  1  1  0  0  0
  6  5  2  0  0  0  0
  7  5  1  0  0  0  0
  8 13  1  6  0  0  0
  8  7  1  0  0  0  0
  8  9  1  0  0  0  0
 10  9  1  0  0  0  0
 10 12  1  1  0  0  0
 11 10  1  0  0  0  0
 14 16  2  0  0  0  0
 16 13  1  0  0  0  0
 16 15  1  0  0  0  0
 17 28  1  0  0  0  0
 17 18  1  0  0  0  0
 18 19  1  0  0  0  0
 19 24  1  0  0  0  0
 20 26  1  0  0  0  0
 21 18  1  0  0  0  0
 21 25  1  0  0  0  0
 23 22  1  0  0  0  0
 23 24  1  0  0  0  0
 25 23  2  0  0  0  0
 26 22  2  0  0  0  0
 27 25  1  0  0  0  0
 27 20  2  0  0  0  0
 28 29  1  0  0  0  0
 29 30  1  1  0  0  0
 32 29  1  0  0  0  0
 32 31  1  0  0  0  0
M  END
>  <MODEL>
8

>  <REMARK>
 VINA RESULT:      -7.1      2.662      5.748
  Name = 
  13 active torsions:
  status: ('A' for Active; 'I' for Inactive)
    1  A    between atoms: C_1  and  N_5
    2  A    between atoms: C_1  and  C_30
    3  A    between atoms: N_2  and  N_5
    4  A    between atoms: C_3  and  C_8
    5  A    between atoms: C_3  and  C_20
    6  A    between atoms: C_4  and  C_24
    7  A    between atoms: N_5  and  C_14
    8  A    between atoms: C_13  and  C_14
    9  A    between atoms: C_13  and  C_29
   10  A    between atoms: C_15  and  C_20
   11  A    between atoms: C_15  and  C_26
   12  A    between atoms: O_16  and  C_20
   13  A    between atoms: O_16  and  C_24
                            x       y       z     vdW  Elec       q    Type
                         _______ _______ _______ _____ _____    ______ ____

>  <TORSDO>
F 13

$$$$
=
 OpenBabel10272413193D

 32 34  0  0  1  0  0  0  0  0999 V2000
  188.9430  176.6500  142.1320 C   0  0  0  0  0  2  0  0  0  0  0  0
  190.0710  178.0410  140.2030 C   0  0  2  0  0  3  0  0  0  0  0  0
  190.9270  176.8900  140.6920 C   0  0  0  0  0  2  0  0  0  0  0  0
  190.0440  177.6280  141.6820 C   0  0  2  0  0  3  0  0  0  0  0  0
  188.8730  177.6130  139.3880 C   0  0  0  0  0  0  0  0  0  0  0  0
  187.7740  178.2250  139.4850 O   0  0  0  0  0  0  0  0  0  0  0  0
  188.9510  176.5120  138.5230 O   0  0  0  0  0  0  0  0  0  0  0  0
  188.8750  176.5850  137.0950 C   0  0  1  0  0  3  0  0  0  0  0  0
  188.9530  178.0210  136.5820 C   0  0  0  0  0  2  0  0  0  0  0  0
  187.6340  178.4660  135.9800 C   0  0  2  0  0  3  0  0  0  0  0  0
  187.1330  179.5600  136.6850 O   0  0  0  0  0  1  0  0  0  0  0  0
  186.6440  177.3250  136.0580 C   0  0  0  0  0  1  0  0  0  0  0  0
  189.9450  175.7100  136.4530 C   0  0  0  0  0  2  0  0  0  0  0  0
  191.3240  174.6610  138.0900 O   0  0  0  0  0  0  0  0  0  0  0  0
  189.5330  173.3840  137.3440 N   0  0  0  0  0  1  0  0  0  0  0  0
  190.3100  174.5760  137.3480 C   0  0  0  0  0  0  0  0  0  0  0  0
  188.9400  176.3530  143.5780 N   0  0  0  0  0  0  0  0  0  0  0  0
  187.6910  176.7230  144.1420 N   0  0  0  0  0  0  0  0  0  0  0  0
  187.9610  177.5920  145.2990 C   0  0  0  0  0  2  0  0  0  0  0  0
  183.4330  178.9370  143.4530 C   0  0  0  0  0  3  0  0  0  0  0  0
  186.9620  177.5660  143.1770 C   0  0  0  0  0  2  0  0  0  0  0  0
  184.3760  178.7920  145.6800 C   0  0  0  0  0  3  0  0  0  0  0  0
  185.5630  178.2800  145.1470 C   0  0  0  0  0  0  0  0  0  0  0  0
  186.6700  177.8640  146.0710 C   0  0  0  0  0  2  0  0  0  0  0  0
  185.6730  178.0710  143.7590 C   0  0  0  0  0  0  0  0  0  0  0  0
  183.3130  179.1220  144.8340 C   0  0  0  0  0  3  0  0  0  0  0  0
  184.6140  178.4160  142.9160 C   0  0  0  0  0  3  0  0  0  0  0  0
  190.0350  177.0970  144.2180 C   0  0  0  0  0  2  0  0  0  0  0  0
  190.9270  176.1500  145.0020 C   0  0  1  0  0  3  0  0  0  0  0  0
  191.9700  175.5400  144.0820 C   0  0  0  0  0  1  0  0  0  0  0  0
  192.3510  176.0460  146.9160 O   0  0  0  0  0  1  0  0  0  0  0  0
  191.6100  176.9200  146.1170 C   0  0  0  0  0  2  0  0  0  0  0  0
  1 17  1  0  0  0  0
  2  5  1  6  0  0  0
  2  3  1  0  0  0  0
  2  4  1  0  0  0  0
  3  4  1  0  0  0  0
  4  1  1  6  0  0  0
  5  6  2  0  0  0  0
  7  5  1  0  0  0  0
  8 13  1  6  0  0  0
  8  7  1  0  0  0  0
  9  8  1  0  0  0  0
 10 12  1  1  0  0  0
 10  9  1  0  0  0  0
 10 11  1  0  0  0  0
 13 16  1  0  0  0  0
 15 16  1  0  0  0  0
 16 14  2  0  0  0  0
 17 18  1  0  0  0  0
 17 28  1  0  0  0  0
 18 19  1  0  0  0  0
 19 24  1  0  0  0  0
 20 26  1  0  0  0  0
 21 25  1  0  0  0  0
 21 18  1  0  0  0  0
 23 22  1  0  0  0  0
 23 24  1  0  0  0  0
 25 23  2  0  0  0  0
 26 22  2  0  0  0  0
 27 20  2  0  0  0  0
 27 25  1  0  0  0  0
 28 29  1  0  0  0  0
 29 30  1  6  0  0  0
 29 32  1  0  0  0  0
 32 31  1  0  0  0  0
M  END
>  <MODEL>
9

>  <REMARK>
 VINA RESULT:      -6.9      2.998      6.726
  Name = 
  13 active torsions:
  status: ('A' for Active; 'I' for Inactive)
    1  A    between atoms: C_1  and  N_5
    2  A    between atoms: C_1  and  C_30
    3  A    between atoms: N_2  and  N_5
    4  A    between atoms: C_3  and  C_8
    5  A    between atoms: C_3  and  C_20
    6  A    between atoms: C_4  and  C_24
    7  A    between atoms: N_5  and  C_14
    8  A    between atoms: C_13  and  C_14
    9  A    between atoms: C_13  and  C_29
   10  A    between atoms: C_15  and  C_20
   11  A    between atoms: C_15  and  C_26
   12  A    between atoms: O_16  and  C_20
   13  A    between atoms: O_16  and  C_24
                            x       y       z     vdW  Elec       q    Type
                         _______ _______ _______ _____ _____    ______ ____

>  <TORSDO>
F 13

$$$$
