=
 OpenBabel10272414083D

 43 50  0  0  1  0  0  0  0  0999 V2000
  181.4320  179.0110  140.3040 C   0  0  0  0  0  0  0  0  0  0  0  0
  184.4530  178.4230  144.3310 C   0  0  0  0  0  0  0  0  0  0  0  0
  186.9960  177.7100  143.3400 C   0  0  0  0  0  0  0  0  0  0  0  0
  182.3220  178.8980  142.5540 C   0  0  0  0  0  0  0  0  0  0  0  0
  182.6740  178.6360  139.7880 C   0  0  0  0  0  3  0  0  0  0  0  0
  180.3960  179.2520  139.4650 F   0  0  0  0  0  0  0  0  0  0  0  0
  183.5890  178.5250  142.0410 C   0  0  0  0  0  0  0  0  0  0  0  0
  181.2570  179.1400  141.6840 C   0  0  0  0  0  3  0  0  0  0  0  0
  183.7480  178.3960  140.6500 C   0  0  0  0  0  3  0  0  0  0  0  0
  185.9300  177.9340  142.4590 C   0  0  0  0  0  3  0  0  0  0  0  0
  184.6590  178.2910  142.9320 C   0  0  0  0  0  0  0  0  0  0  0  0
  183.1880  178.7930  144.8080 C   0  0  0  0  0  3  0  0  0  0  0  0
  185.5140  178.1760  145.2260 C   0  0  0  0  0  0  0  0  0  0  0  0
  186.7750  177.8350  144.7170 C   0  0  0  0  0  3  0  0  0  0  0  0
  182.1320  179.0290  143.9290 C   0  0  0  0  0  3  0  0  0  0  0  0
  185.3070  178.3010  146.7300 C   0  0  2  0  0  3  0  0  0  0  0  0
  187.6510  177.7450  146.8630 C   0  0  2  0  0  3  0  0  0  0  0  0
  188.5790  176.9950  147.7960 C   0  0  2  0  0  3  0  0  0  0  0  0
  187.9130  179.0080  147.5740 C   0  0  1  0  0  3  0  0  0  0  0  0
  185.7900  179.5090  147.1800 O   0  0  0  0  0  0  0  0  0  0  0  0
  186.5080  178.3880  147.6850 C   0  0  2  0  0  0  0  0  0  0  0  0
  188.8600  178.2930  148.5180 C   0  0  0  0  0  2  0  0  0  0  0  0
  190.3470  177.3160  146.1210 C   0  0  0  0  0  2  0  0  0  0  0  0
  189.7890  176.5380  147.0440 C   0  0  0  0  0  3  0  0  0  0  0  0
  188.2970  177.3430  142.8400 N   0  0  0  0  0  0  0  0  0  0  0  0
  188.8660  176.0350  143.1330 C   0  0  0  0  0  1  0  0  0  0  0  0
  189.0450  178.2210  141.9470 C   0  0  0  0  0  2  0  0  0  0  0  0
  189.8250  177.3990  140.9300 C   0  0  2  0  0  3  0  0  0  0  0  0
  191.1580  177.3170  141.3270 O   0  0  0  0  0  1  0  0  0  0  0  0
  189.7530  178.0180  139.5430 C   0  0  0  0  0  2  0  0  0  0  0  0
  188.9990  177.1770  138.6220 N   0  0  0  0  0  0  0  0  0  0  0  0
  188.4450  175.5600  137.1870 N   0  0  0  0  0  0  0  0  0  0  0  0
  187.7260  177.3850  138.2500 C   0  0  0  0  0  3  0  0  0  0  0  0
  189.4110  176.0750  137.9700 C   0  0  0  0  0  0  0  0  0  0  0  0
  187.3840  176.3800  137.3640 C   0  0  0  0  0  3  0  0  0  0  0  0
  190.8040  175.4950  138.0640 C   0  0  1  0  0  3  0  0  0  0  0  0
  190.8010  174.1560  137.6730 O   0  0  0  0  0  1  0  0  0  0  0  0
  191.8290  176.2380  137.3120 N   0  0  0  0  0  0  0  0  0  0  0  0
  194.3290  173.8570  136.4570 C   0  0  0  0  0  1  0  0  0  0  0  0
  194.1000  175.8090  137.8790 N   0  0  0  0  0  2  0  0  0  0  0  0
  193.8750  175.2970  136.5420 C   0  0  2  0  0  3  0  0  0  0  0  0
  192.9460  176.6520  138.1630 C   0  0  0  0  0  2  0  0  0  0  0  0
  192.3920  175.3730  136.2900 C   0  0  0  0  0  2  0  0  0  0  0  0
  1  8  1  0  0  0  0
  2 12  1  0  0  0  0
  2 13  1  0  0  0  0
  3 14  1  0  0  0  0
  4 15  1  0  0  0  0
  5  1  2  0  0  0  0
  5  9  1  0  0  0  0
  6  1  1  0  0  0  0
  7  4  1  0  0  0  0
  7 11  1  0  0  0  0
  8  4  2  0  0  0  0
  9  7  2  0  0  0  0
 10 11  1  0  0  0  0
 10  3  2  0  0  0  0
 11  2  2  0  0  0  0
 14 13  2  0  0  0  0
 15 12  2  0  0  0  0
 16 13  1  6  0  0  0
 16 20  1  0  0  0  0
 16 21  1  0  0  0  0
 17 19  1  0  0  0  0
 17 21  1  0  0  0  0
 17 18  1  0  0  0  0
 18 22  1  0  0  0  0
 19 21  1  0  0  0  0
 19 22  1  0  0  0  0
 20 21  1  0  0  0  0
 23 24  2  0  0  0  0
 24 18  1  0  0  0  0
 25 26  1  0  0  0  0
 25  3  1  0  0  0  0
 27 25  1  0  0  0  0
 28 29  1  0  0  0  0
 28 27  1  0  0  0  0
 30 28  1  0  0  0  0
 31 30  1  0  0  0  0
 32 35  1  0  0  0  0
 32 34  2  0  0  0  0
 33 31  1  0  0  0  0
 34 36  1  0  0  0  0
 34 31  1  0  0  0  0
 35 33  2  0  0  0  0
 37 36  1  0  0  0  0
 38 36  1  0  0  0  0
 38 42  1  0  0  0  0
 39 41  1  0  0  0  0
 40 42  1  0  0  0  0
 41 40  1  0  0  0  0
 43 41  1  0  0  0  0
 43 38  1  0  0  0  0
M  END
>  <MODEL>
1

>  <REMARK>
 VINA RESULT:     -10.9      0.000      0.000
  Name = 
  9 active torsions:
  status: ('A' for Active; 'I' for Inactive)
    1  A    between atoms: C_1  and  C_34
    2  A    between atoms: N_2  and  C_6
    3  A    between atoms: N_2  and  C_13
    4  A    between atoms: C_3  and  N_4
    5  A    between atoms: C_3  and  C_12
    6  A    between atoms: C_6  and  C_12
    7  A    between atoms: N_11  and  C_14
    8  A    between atoms: C_14  and  C_22
    9  A    between atoms: C_19  and  C_37
                            x       y       z     vdW  Elec       q    Type
                         _______ _______ _______ _____ _____    ______ ____

>  <TORSDO>
F 9

$$$$
=
 OpenBabel10272414083D

 43 50  0  0  1  0  0  0  0  0999 V2000
  181.8450  179.2530  141.2700 C   0  0  0  0  0  0  0  0  0  0  0  0
  185.2880  178.1040  144.8070 C   0  0  0  0  0  0  0  0  0  0  0  0
  187.6530  177.4030  143.4390 C   0  0  0  0  0  0  0  0  0  0  0  0
  182.9890  178.8560  143.3670 C   0  0  0  0  0  0  0  0  0  0  0  0
  182.9950  178.8880  140.5670 C   0  0  0  0  0  3  0  0  0  0  0  0
  180.7300  179.6260  140.5950 F   0  0  0  0  0  0  0  0  0  0  0  0
  184.1640  178.4920  142.6650 C   0  0  0  0  0  0  0  0  0  0  0  0
  181.8410  179.2350  142.6670 C   0  0  0  0  0  3  0  0  0  0  0  0
  184.1490  178.5110  141.2590 C   0  0  0  0  0  3  0  0  0  0  0  0
  186.5030  177.7660  142.7250 C   0  0  0  0  0  3  0  0  0  0  0  0
  185.3180  178.1190  143.3870 C   0  0  0  0  0  0  0  0  0  0  0  0
  184.1090  178.4670  145.4730 C   0  0  0  0  0  3  0  0  0  0  0  0
  186.4330  177.7170  145.5320 C   0  0  0  0  0  0  0  0  0  0  0  0
  187.6050  177.3840  144.8380 C   0  0  0  0  0  3  0  0  0  0  0  0
  182.9710  178.8410  144.7610 C   0  0  0  0  0  3  0  0  0  0  0  0
  186.4130  177.6830  147.0550 C   0  0  2  0  0  3  0  0  0  0  0  0
  188.8090  177.4810  146.8490 C   0  0  2  0  0  3  0  0  0  0  0  0
  189.9490  176.8060  147.5820 C   0  0  2  0  0  3  0  0  0  0  0  0
  188.9830  178.7050  147.6490 C   0  0  1  0  0  3  0  0  0  0  0  0
  186.7770  178.9080  147.5650 O   0  0  0  0  0  0  0  0  0  0  0  0
  187.7070  177.8720  147.8640 C   0  0  2  0  0  0  0  0  0  0  0  0
  190.1380  178.0660  148.3950 C   0  0  0  0  0  2  0  0  0  0  0  0
  192.1120  175.8080  146.9830 C   0  0  0  0  0  2  0  0  0  0  0  0
  191.0990  176.6030  146.6480 C   0  0  0  0  0  3  0  0  0  0  0  0
  188.8640  177.0440  142.7450 N   0  0  0  0  0  0  0  0  0  0  0  0
  189.5080  175.7610  142.9900 C   0  0  0  0  0  1  0  0  0  0  0  0
  189.4330  177.8990  141.7100 C   0  0  0  0  0  2  0  0  0  0  0  0
  189.0620  177.3740  140.3300 C   0  0  2  0  0  3  0  0  0  0  0  0
  190.1610  176.7250  139.7730 O   0  0  0  0  0  1  0  0  0  0  0  0
  188.6260  178.5010  139.4060 C   0  0  0  0  0  2  0  0  0  0  0  0
  188.5750  178.0630  138.0170 N   0  0  0  0  0  0  0  0  0  0  0  0
  187.8350  177.3050  136.0530 N   0  0  0  0  0  0  0  0  0  0  0  0
  189.6310  177.9800  137.1930 C   0  0  0  0  0  3  0  0  0  0  0  0
  187.5060  177.6520  137.3120 C   0  0  0  0  0  0  0  0  0  0  0  0
  189.1690  177.5140  135.9750 C   0  0  0  0  0  3  0  0  0  0  0  0
  186.1030  177.5460  137.8640 C   0  0  1  0  0  3  0  0  0  0  0  0
  185.6110  178.8110  138.1850 O   0  0  0  0  0  1  0  0  0  0  0  0
  185.1510  176.8420  136.9890 N   0  0  0  0  0  0  0  0  0  0  0  0
  182.5420  175.6870  139.1120 C   0  0  0  0  0  1  0  0  0  0  0  0
  184.3260  174.7480  137.7620 N   0  0  0  0  0  2  0  0  0  0  0  0
  183.2200  175.6860  137.7600 C   0  0  2  0  0  3  0  0  0  0  0  0
  185.3730  175.3950  136.9830 C   0  0  0  0  0  2  0  0  0  0  0  0
  183.8020  177.0470  137.4870 C   0  0  0  0  0  2  0  0  0  0  0  0
  1  8  1  0  0  0  0
  2 12  1  0  0  0  0
  2 13  1  0  0  0  0
  3 14  1  0  0  0  0
  4 15  1  0  0  0  0
  5  9  1  0  0  0  0
  5  1  2  0  0  0  0
  6  1  1  0  0  0  0
  7  4  1  0  0  0  0
  7 11  1  0  0  0  0
  8  4  2  0  0  0  0
  9  7  2  0  0  0  0
 10 11  1  0  0  0  0
 10  3  2  0  0  0  0
 11  2  2  0  0  0  0
 14 13  2  0  0  0  0
 15 12  2  0  0  0  0
 16 13  1  6  0  0  0
 16 20  1  0  0  0  0
 16 21  1  0  0  0  0
 17 18  1  0  0  0  0
 17 19  1  0  0  0  0
 17 21  1  0  0  0  0
 18 22  1  0  0  0  0
 19 21  1  0  0  0  0
 19 22  1  0  0  0  0
 20 21  1  0  0  0  0
 24 23  2  0  0  0  0
 24 18  1  0  0  0  0
 25 26  1  0  0  0  0
 25  3  1  0  0  0  0
 27 25  1  0  0  0  0
 28 27  1  0  0  0  0
 29 28  1  0  0  0  0
 30 28  1  0  0  0  0
 31 30  1  0  0  0  0
 32 34  2  0  0  0  0
 33 31  1  0  0  0  0
 34 36  1  0  0  0  0
 34 31  1  0  0  0  0
 35 32  1  0  0  0  0
 35 33  2  0  0  0  0
 36 37  1  0  0  0  0
 38 43  1  0  0  0  0
 38 36  1  0  0  0  0
 41 40  1  0  0  0  0
 41 39  1  0  0  0  0
 42 38  1  0  0  0  0
 42 40  1  0  0  0  0
 43 41  1  0  0  0  0
M  END
>  <MODEL>
2

>  <REMARK>
 VINA RESULT:     -10.4      2.181      3.992
  Name = 
  9 active torsions:
  status: ('A' for Active; 'I' for Inactive)
    1  A    between atoms: C_1  and  C_34
    2  A    between atoms: N_2  and  C_6
    3  A    between atoms: N_2  and  C_13
    4  A    between atoms: C_3  and  N_4
    5  A    between atoms: C_3  and  C_12
    6  A    between atoms: C_6  and  C_12
    7  A    between atoms: N_11  and  C_14
    8  A    between atoms: C_14  and  C_22
    9  A    between atoms: C_19  and  C_37
                            x       y       z     vdW  Elec       q    Type
                         _______ _______ _______ _____ _____    ______ ____

>  <TORSDO>
F 9

$$$$
=
 OpenBabel10272414083D

 43 50  0  0  1  0  0  0  0  0999 V2000
  187.7940  177.5510  147.4670 C   0  0  0  0  0  0  0  0  0  0  0  0
  185.4760  178.6060  143.0850 C   0  0  0  0  0  0  0  0  0  0  0  0
  187.3520  178.1130  141.0370 C   0  0  0  0  0  0  0  0  0  0  0  0
  186.1790  178.1910  145.7790 C   0  0  0  0  0  0  0  0  0  0  0  0
  188.7480  177.3210  146.4750 C   0  0  0  0  0  3  0  0  0  0  0  0
  188.1090  177.3480  148.7690 F   0  0  0  0  0  0  0  0  0  0  0  0
  187.1370  177.9540  144.7630 C   0  0  0  0  0  0  0  0  0  0  0  0
  186.5120  177.9860  147.1200 C   0  0  0  0  0  3  0  0  0  0  0  0
  188.4230  177.5190  145.1300 C   0  0  0  0  0  3  0  0  0  0  0  0
  187.7020  177.9190  142.3790 C   0  0  0  0  0  3  0  0  0  0  0  0
  186.7830  178.1580  143.4120 C   0  0  0  0  0  0  0  0  0  0  0  0
  184.5500  178.8340  144.1130 C   0  0  0  0  0  3  0  0  0  0  0  0
  185.1230  178.8260  141.7380 C   0  0  0  0  0  0  0  0  0  0  0  0
  186.0620  178.5640  140.7310 C   0  0  0  0  0  3  0  0  0  0  0  0
  184.8970  178.6280  145.4470 C   0  0  0  0  0  3  0  0  0  0  0  0
  183.7290  179.3200  141.3720 C   0  0  2  0  0  3  0  0  0  0  0  0
  183.9250  177.7810  139.5230 C   0  0  2  0  0  3  0  0  0  0  0  0
  183.4700  177.6900  138.0810 C   0  0  2  0  0  3  0  0  0  0  0  0
  182.7150  177.0760  139.9780 C   0  0  1  0  0  3  0  0  0  0  0  0
  182.7800  178.3990  141.7550 O   0  0  0  0  0  0  0  0  0  0  0  0
  182.8710  178.5630  140.3440 C   0  0  2  0  0  0  0  0  0  0  0  0
  182.2340  176.9540  138.5450 C   0  0  0  0  0  2  0  0  0  0  0  0
  185.0260  177.2000  136.2440 C   0  0  0  0  0  2  0  0  0  0  0  0
  184.3770  176.7720  137.3240 C   0  0  0  0  0  3  0  0  0  0  0  0
  188.3060  177.8630  139.9860 N   0  0  0  0  0  0  0  0  0  0  0  0
  189.6910  177.5410  140.2990 C   0  0  0  0  0  1  0  0  0  0  0  0
  187.9040  177.8270  138.5840 C   0  0  0  0  0  2  0  0  0  0  0  0
  189.0880  178.1590  137.6870 C   0  0  2  0  0  3  0  0  0  0  0  0
  189.0610  179.5150  137.3690 O   0  0  0  0  0  1  0  0  0  0  0  0
  189.0590  177.3440  136.4030 C   0  0  0  0  0  2  0  0  0  0  0  0
  189.0620  175.9130  136.6800 N   0  0  0  0  0  0  0  0  0  0  0  0
  189.7250  173.8570  137.2420 N   0  0  0  0  0  0  0  0  0  0  0  0
  188.0080  175.0940  136.5320 C   0  0  0  0  0  3  0  0  0  0  0  0
  190.0820  175.1480  137.1060 C   0  0  0  0  0  0  0  0  0  0  0  0
  188.4210  173.8220  136.8840 C   0  0  0  0  0  3  0  0  0  0  0  0
  191.4820  175.6550  137.3680 C   0  0  1  0  0  3  0  0  0  0  0  0
  191.8340  175.4480  138.7010 O   0  0  0  0  0  1  0  0  0  0  0  0
  192.5140  175.0910  136.4810 N   0  0  0  0  0  0  0  0  0  0  0  0
  195.3010  174.3620  138.5670 C   0  0  0  0  0  1  0  0  0  0  0  0
  194.7360  175.8930  136.7720 N   0  0  0  0  0  2  0  0  0  0  0  0
  194.7110  174.5030  137.1820 C   0  0  2  0  0  3  0  0  0  0  0  0
  193.4850  176.1000  136.0540 C   0  0  0  0  0  2  0  0  0  0  0  0
  193.2650  174.0800  137.2050 C   0  0  0  0  0  2  0  0  0  0  0  0
  1  6  1  0  0  0  0
  2 11  1  0  0  0  0
  2 12  1  0  0  0  0
  3 10  1  0  0  0  0
  4  8  2  0  0  0  0
  5  1  2  0  0  0  0
  7  9  2  0  0  0  0
  7  4  1  0  0  0  0
  8  1  1  0  0  0  0
  9  5  1  0  0  0  0
 10 11  2  0  0  0  0
 11  7  1  0  0  0  0
 12 15  2  0  0  0  0
 13  2  2  0  0  0  0
 14  3  2  0  0  0  0
 14 13  1  0  0  0  0
 15  4  1  0  0  0  0
 16 13  1  6  0  0  0
 16 20  1  0  0  0  0
 17 19  1  0  0  0  0
 17 21  1  0  0  0  0
 18 22  1  0  0  0  0
 18 17  1  0  0  0  0
 19 21  1  0  0  0  0
 21 16  1  0  0  0  0
 21 20  1  0  0  0  0
 22 19  1  0  0  0  0
 23 24  2  0  0  0  0
 24 18  1  0  0  0  0
 25 26  1  0  0  0  0
 25  3  1  0  0  0  0
 27 25  1  0  0  0  0
 28 27  1  0  0  0  0
 29 28  1  0  0  0  0
 30 31  1  0  0  0  0
 30 28  1  0  0  0  0
 31 34  1  0  0  0  0
 33 31  1  0  0  0  0
 33 35  2  0  0  0  0
 34 32  2  0  0  0  0
 34 36  1  0  0  0  0
 35 32  1  0  0  0  0
 36 37  1  0  0  0  0
 38 43  1  0  0  0  0
 38 36  1  0  0  0  0
 40 41  1  0  0  0  0
 41 43  1  0  0  0  0
 41 39  1  0  0  0  0
 42 38  1  0  0  0  0
 42 40  1  0  0  0  0
M  END
>  <MODEL>
3

>  <REMARK>
 VINA RESULT:     -10.2      2.685      5.858
  Name = 
  9 active torsions:
  status: ('A' for Active; 'I' for Inactive)
    1  A    between atoms: C_1  and  C_34
    2  A    between atoms: N_2  and  C_6
    3  A    between atoms: N_2  and  C_13
    4  A    between atoms: C_3  and  N_4
    5  A    between atoms: C_3  and  C_12
    6  A    between atoms: C_6  and  C_12
    7  A    between atoms: N_11  and  C_14
    8  A    between atoms: C_14  and  C_22
    9  A    between atoms: C_19  and  C_37
                            x       y       z     vdW  Elec       q    Type
                         _______ _______ _______ _____ _____    ______ ____

>  <TORSDO>
F 9

$$$$
=
 OpenBabel10272414083D

 43 50  0  0  1  0  0  0  0  0999 V2000
  184.6420  178.7860  144.9150 C   0  0  0  0  0  0  0  0  0  0  0  0
  182.4070  178.5120  140.3750 C   0  0  0  0  0  0  0  0  0  0  0  0
  184.4310  177.8890  138.5110 C   0  0  0  0  0  0  0  0  0  0  0  0
  183.0330  178.7950  143.1040 C   0  0  0  0  0  0  0  0  0  0  0  0
  185.6660  178.5000  144.0110 C   0  0  0  0  0  3  0  0  0  0  0  0
  184.9210  178.9170  146.2350 F   0  0  0  0  0  0  0  0  0  0  0  0
  184.0630  178.4970  142.1790 C   0  0  0  0  0  0  0  0  0  0  0  0
  183.3280  178.9340  144.4630 C   0  0  0  0  0  3  0  0  0  0  0  0
  185.3810  178.3550  142.6510 C   0  0  0  0  0  3  0  0  0  0  0  0
  184.7410  178.0430  139.8690 C   0  0  0  0  0  3  0  0  0  0  0  0
  183.7490  178.3510  140.8100 C   0  0  0  0  0  0  0  0  0  0  0  0
  181.4100  178.8080  141.3140 C   0  0  0  0  0  3  0  0  0  0  0  0
  182.0900  178.3830  139.0070 C   0  0  0  0  0  0  0  0  0  0  0  0
  183.1050  178.0600  138.0950 C   0  0  0  0  0  3  0  0  0  0  0  0
  181.7190  178.9470  142.6660 C   0  0  0  0  0  3  0  0  0  0  0  0
  180.6580  178.5660  138.5210 C   0  0  2  0  0  3  0  0  0  0  0  0
  181.3730  180.8080  137.9880 C   0  0  2  0  0  3  0  0  0  0  0  0
  180.7810  182.2020  137.9590 C   0  0  2  0  0  3  0  0  0  0  0  0
  181.0050  180.5930  136.5780 C   0  0  1  0  0  3  0  0  0  0  0  0
  180.6060  178.4890  137.1480 O   0  0  0  0  0  0  0  0  0  0  0  0
  180.2690  179.7750  137.6550 C   0  0  2  0  0  0  0  0  0  0  0  0
  180.4150  181.9880  136.5080 C   0  0  0  0  0  2  0  0  0  0  0  0
  181.8530  184.3260  137.3500 C   0  0  0  0  0  2  0  0  0  0  0  0
  181.8730  183.2160  138.0830 C   0  0  0  0  0  3  0  0  0  0  0  0
  185.4610  177.5720  137.5540 N   0  0  0  0  0  0  0  0  0  0  0  0
  185.1620  177.5190  136.1300 C   0  0  0  0  0  1  0  0  0  0  0  0
  186.8500  177.3910  137.9610 C   0  0  0  0  0  2  0  0  0  0  0  0
  187.7110  178.5200  137.4120 C   0  0  2  0  0  3  0  0  0  0  0  0
  188.1020  178.2120  136.1110 O   0  0  0  0  0  1  0  0  0  0  0  0
  188.9500  178.7390  138.2670 C   0  0  0  0  0  2  0  0  0  0  0  0
  189.7420  177.5200  138.3810 N   0  0  0  0  0  0  0  0  0  0  0  0
  190.8720  175.7900  139.2240 N   0  0  0  0  0  0  0  0  0  0  0  0
  190.2360  176.8200  137.3490 C   0  0  0  0  0  3  0  0  0  0  0  0
  190.1370  176.8840  139.4980 C   0  0  0  0  0  0  0  0  0  0  0  0
  190.9330  175.7470  137.8730 C   0  0  0  0  0  3  0  0  0  0  0  0
  189.8340  177.3520  140.9030 C   0  0  1  0  0  3  0  0  0  0  0  0
  188.4620  177.2980  141.1490 O   0  0  0  0  0  1  0  0  0  0  0  0
  190.5640  176.6310  141.9610 N   0  0  0  0  0  0  0  0  0  0  0  0
  189.0080  177.5520  145.0240 C   0  0  0  0  0  1  0  0  0  0  0  0
  191.1390  177.8720  143.9080 N   0  0  0  0  0  2  0  0  0  0  0  0
  190.1500  176.8840  144.2900 C   0  0  2  0  0  3  0  0  0  0  0  0
  191.5930  177.4630  142.5850 C   0  0  0  0  0  2  0  0  0  0  0  0
  189.6370  176.2640  143.0170 C   0  0  0  0  0  2  0  0  0  0  0  0
  1  6  1  0  0  0  0
  2 11  1  0  0  0  0
  2 12  1  0  0  0  0
  3 10  1  0  0  0  0
  4  8  2  0  0  0  0
  5  1  2  0  0  0  0
  7  9  2  0  0  0  0
  7  4  1  0  0  0  0
  8  1  1  0  0  0  0
  9  5  1  0  0  0  0
 10 11  2  0  0  0  0
 11  7  1  0  0  0  0
 12 15  2  0  0  0  0
 13  2  2  0  0  0  0
 14  3  2  0  0  0  0
 14 13  1  0  0  0  0
 15  4  1  0  0  0  0
 16 13  1  6  0  0  0
 18 17  1  0  0  0  0
 18 24  1  0  0  0  0
 19 21  1  0  0  0  0
 19 17  1  0  0  0  0
 20 21  1  0  0  0  0
 20 16  1  0  0  0  0
 21 17  1  0  0  0  0
 21 16  1  0  0  0  0
 22 19  1  0  0  0  0
 22 18  1  0  0  0  0
 23 24  2  0  0  0  0
 25 27  1  0  0  0  0
 25  3  1  0  0  0  0
 26 25  1  0  0  0  0
 28 27  1  0  0  0  0
 28 30  1  0  0  0  0
 29 28  1  0  0  0  0
 30 31  1  0  0  0  0
 31 34  1  0  0  0  0
 32 34  2  0  0  0  0
 33 35  2  0  0  0  0
 33 31  1  0  0  0  0
 34 36  1  0  0  0  0
 35 32  1  0  0  0  0
 36 37  1  0  0  0  0
 36 38  1  0  0  0  0
 38 42  1  0  0  0  0
 38 43  1  0  0  0  0
 40 41  1  0  0  0  0
 41 39  1  0  0  0  0
 42 40  1  0  0  0  0
 43 41  1  0  0  0  0
M  END
>  <MODEL>
4

>  <REMARK>
 VINA RESULT:     -10.2      3.206      7.449
  Name = 
  9 active torsions:
  status: ('A' for Active; 'I' for Inactive)
    1  A    between atoms: C_1  and  C_34
    2  A    between atoms: N_2  and  C_6
    3  A    between atoms: N_2  and  C_13
    4  A    between atoms: C_3  and  N_4
    5  A    between atoms: C_3  and  C_12
    6  A    between atoms: C_6  and  C_12
    7  A    between atoms: N_11  and  C_14
    8  A    between atoms: C_14  and  C_22
    9  A    between atoms: C_19  and  C_37
                            x       y       z     vdW  Elec       q    Type
                         _______ _______ _______ _____ _____    ______ ____

>  <TORSDO>
F 9

$$$$
=
 OpenBabel10272414083D

 43 50  0  0  1  0  0  0  0  0999 V2000
  191.1360  176.3960  147.0310 C   0  0  0  0  0  0  0  0  0  0  0  0
  187.3510  178.1130  144.1300 C   0  0  0  0  0  0  0  0  0  0  0  0
  188.2420  177.9560  141.4580 C   0  0  0  0  0  0  0  0  0  0  0  0
  189.0280  177.2840  146.2330 C   0  0  0  0  0  0  0  0  0  0  0  0
  191.6100  176.3300  145.7200 C   0  0  0  0  0  3  0  0  0  0  0  0
  191.9240  175.9940  148.0570 F   0  0  0  0  0  0  0  0  0  0  0  0
  189.4960  177.2140  144.8980 C   0  0  0  0  0  0  0  0  0  0  0  0
  189.8480  176.8730  147.2870 C   0  0  0  0  0  3  0  0  0  0  0  0
  190.7960  176.7350  144.6580 C   0  0  0  0  0  3  0  0  0  0  0  0
  189.0790  177.5570  142.5080 C   0  0  0  0  0  3  0  0  0  0  0  0
  188.6540  177.6260  143.8430 C   0  0  0  0  0  0  0  0  0  0  0  0
  186.9170  178.1720  145.4610 C   0  0  0  0  0  3  0  0  0  0  0  0
  186.5110  178.5390  143.0810 C   0  0  0  0  0  0  0  0  0  0  0  0
  186.9640  178.4430  141.7570 C   0  0  0  0  0  3  0  0  0  0  0  0
  187.7460  177.7610  146.5030 C   0  0  0  0  0  3  0  0  0  0  0  0
  185.1160  179.0760  143.3730 C   0  0  2  0  0  3  0  0  0  0  0  0
  184.6960  178.5890  141.0470 C   0  0  2  0  0  3  0  0  0  0  0  0
  183.8770  179.1580  139.9070 C   0  0  2  0  0  3  0  0  0  0  0  0
  183.5920  177.6940  141.4310 C   0  0  1  0  0  3  0  0  0  0  0  0
  184.2270  178.0370  143.5270 O   0  0  0  0  0  0  0  0  0  0  0  0
  183.9610  178.8440  142.3850 C   0  0  2  0  0  0  0  0  0  0  0  0
  182.7470  178.2290  140.2920 C   0  0  0  0  0  2  0  0  0  0  0  0
  183.7680  178.0380  137.7230 C   0  0  0  0  0  2  0  0  0  0  0  0
  184.4760  178.7450  138.6000 C   0  0  0  0  0  3  0  0  0  0  0  0
  188.6920  177.8800  140.0910 N   0  0  0  0  0  0  0  0  0  0  0  0
  190.0990  177.6630  139.7820 C   0  0  0  0  0  1  0  0  0  0  0  0
  187.7530  177.9170  138.9760 C   0  0  0  0  0  2  0  0  0  0  0  0
  188.4900  178.2000  137.6750 C   0  0  2  0  0  3  0  0  0  0  0  0
  188.3470  179.5450  137.3460 O   0  0  0  0  0  1  0  0  0  0  0  0
  187.9530  177.3460  136.5350 C   0  0  0  0  0  2  0  0  0  0  0  0
  188.7690  176.1560  136.3300 N   0  0  0  0  0  0  0  0  0  0  0  0
  189.3980  174.0520  135.9360 N   0  0  0  0  0  0  0  0  0  0  0  0
  190.1080  176.1130  136.4140 C   0  0  0  0  0  3  0  0  0  0  0  0
  188.3640  174.9070  136.0430 C   0  0  0  0  0  0  0  0  0  0  0  0
  190.4960  174.8080  136.1660 C   0  0  0  0  0  3  0  0  0  0  0  0
  186.9190  174.4870  135.8950 C   0  0  1  0  0  3  0  0  0  0  0  0
  186.8080  173.4370  134.9850 O   0  0  0  0  0  1  0  0  0  0  0  0
  186.2510  174.1320  137.1590 N   0  0  0  0  0  0  0  0  0  0  0  0
  183.9640  171.5290  136.3560 C   0  0  0  0  0  1  0  0  0  0  0  0
  183.8900  173.8430  137.0830 N   0  0  0  0  0  2  0  0  0  0  0  0
  184.4860  172.5480  137.3450 C   0  0  2  0  0  3  0  0  0  0  0  0
  184.9610  174.8050  137.3090 C   0  0  0  0  0  2  0  0  0  0  0  0
  185.9730  172.7060  137.1670 C   0  0  0  0  0  2  0  0  0  0  0  0
  1  8  1  0  0  0  0
  1  6  1  0  0  0  0
  2 12  1  0  0  0  0
  3 14  2  0  0  0  0
  3 10  1  0  0  0  0
  4 15  1  0  0  0  0
  4  8  2  0  0  0  0
  5  1  2  0  0  0  0
  7  4  1  0  0  0  0
  9  7  2  0  0  0  0
  9  5  1  0  0  0  0
 10 11  2  0  0  0  0
 11  2  1  0  0  0  0
 11  7  1  0  0  0  0
 12 15  2  0  0  0  0
 13  2  2  0  0  0  0
 14 13  1  0  0  0  0
 16 13  1  6  0  0  0
 16 20  1  0  0  0  0
 17 19  1  0  0  0  0
 17 21  1  0  0  0  0
 18 22  1  0  0  0  0
 18 17  1  0  0  0  0
 19 21  1  0  0  0  0
 21 16  1  0  0  0  0
 21 20  1  0  0  0  0
 22 19  1  0  0  0  0
 23 24  2  0  0  0  0
 24 18  1  0  0  0  0
 25  3  1  0  0  0  0
 26 25  1  0  0  0  0
 27 25  1  0  0  0  0
 28 27  1  0  0  0  0
 29 28  1  0  0  0  0
 30 28  1  0  0  0  0
 31 33  1  0  0  0  0
 31 30  1  0  0  0  0
 32 34  2  0  0  0  0
 32 35  1  0  0  0  0
 34 31  1  0  0  0  0
 35 33  2  0  0  0  0
 36 34  1  0  0  0  0
 36 38  1  0  0  0  0
 37 36  1  0  0  0  0
 38 43  1  0  0  0  0
 38 42  1  0  0  0  0
 39 41  1  0  0  0  0
 40 42  1  0  0  0  0
 40 41  1  0  0  0  0
 43 41  1  0  0  0  0
M  END
>  <MODEL>
5

>  <REMARK>
 VINA RESULT:     -10.2      3.301      6.993
  Name = 
  9 active torsions:
  status: ('A' for Active; 'I' for Inactive)
    1  A    between atoms: C_1  and  C_34
    2  A    between atoms: N_2  and  C_6
    3  A    between atoms: N_2  and  C_13
    4  A    between atoms: C_3  and  N_4
    5  A    between atoms: C_3  and  C_12
    6  A    between atoms: C_6  and  C_12
    7  A    between atoms: N_11  and  C_14
    8  A    between atoms: C_14  and  C_22
    9  A    between atoms: C_19  and  C_37
                            x       y       z     vdW  Elec       q    Type
                         _______ _______ _______ _____ _____    ______ ____

>  <TORSDO>
F 9

$$$$
=
 OpenBabel10272414083D

 43 50  0  0  1  0  0  0  0  0999 V2000
  187.8680  177.6290  147.7750 C   0  0  0  0  0  0  0  0  0  0  0  0
  185.5330  178.5560  143.3730 C   0  0  0  0  0  0  0  0  0  0  0  0
  187.4360  178.1180  141.3370 C   0  0  0  0  0  0  0  0  0  0  0  0
  186.2380  178.1920  146.0740 C   0  0  0  0  0  0  0  0  0  0  0  0
  188.8350  177.4280  146.7890 C   0  0  0  0  0  3  0  0  0  0  0  0
  188.1850  177.4500  149.0800 F   0  0  0  0  0  0  0  0  0  0  0  0
  187.2090  177.9830  145.0640 C   0  0  0  0  0  0  0  0  0  0  0  0
  186.5720  178.0110  147.4180 C   0  0  0  0  0  3  0  0  0  0  0  0
  188.5100  177.6020  145.4400 C   0  0  0  0  0  3  0  0  0  0  0  0
  187.7870  177.9500  142.6830 C   0  0  0  0  0  3  0  0  0  0  0  0
  186.8550  178.1620  143.7090 C   0  0  0  0  0  0  0  0  0  0  0  0
  184.5930  178.7560  144.3940 C   0  0  0  0  0  3  0  0  0  0  0  0
  185.1770  178.7500  142.0230 C   0  0  0  0  0  0  0  0  0  0  0  0
  186.1310  178.5160  141.0220 C   0  0  0  0  0  3  0  0  0  0  0  0
  184.9420  178.5750  145.7320 C   0  0  0  0  0  3  0  0  0  0  0  0
  183.7670  179.1860  141.6460 C   0  0  2  0  0  3  0  0  0  0  0  0
  184.1480  177.8800  139.6520 C   0  0  2  0  0  3  0  0  0  0  0  0
  183.7600  177.9190  138.1890 C   0  0  2  0  0  3  0  0  0  0  0  0
  182.9750  177.0480  139.9700 C   0  0  1  0  0  3  0  0  0  0  0  0
  182.8730  178.1660  141.8810 O   0  0  0  0  0  0  0  0  0  0  0  0
  183.0080  178.4920  140.5020 C   0  0  2  0  0  0  0  0  0  0  0  0
  182.5630  177.0540  138.5110 C   0  0  0  0  0  2  0  0  0  0  0  0
  184.3910  176.5170  136.2740 C   0  0  0  0  0  2  0  0  0  0  0  0
  184.7600  177.1550  137.3810 C   0  0  0  0  0  3  0  0  0  0  0  0
  188.4040  177.8970  140.2930 N   0  0  0  0  0  0  0  0  0  0  0  0
  189.8030  177.6500  140.6150 C   0  0  0  0  0  1  0  0  0  0  0  0
  188.0080  177.8150  138.8920 C   0  0  0  0  0  2  0  0  0  0  0  0
  189.1640  178.2290  137.9920 C   0  0  2  0  0  3  0  0  0  0  0  0
  188.9820  179.5480  137.5840 O   0  0  0  0  0  1  0  0  0  0  0  0
  189.2610  177.3340  136.7650 C   0  0  0  0  0  2  0  0  0  0  0  0
  189.9790  176.1010  137.0600 N   0  0  0  0  0  0  0  0  0  0  0  0
  190.4920  173.9400  137.2820 N   0  0  0  0  0  0  0  0  0  0  0  0
  191.2100  176.0310  137.5910 C   0  0  0  0  0  3  0  0  0  0  0  0
  189.5670  174.8330  136.8830 C   0  0  0  0  0  0  0  0  0  0  0  0
  191.5270  174.6910  137.7240 C   0  0  0  0  0  3  0  0  0  0  0  0
  188.2110  174.4410  136.3400 C   0  0  1  0  0  3  0  0  0  0  0  0
  188.2710  174.2740  134.9570 O   0  0  0  0  0  1  0  0  0  0  0  0
  187.6220  173.2460  136.9670 N   0  0  0  0  0  0  0  0  0  0  0  0
  185.8930  171.5340  134.3730 C   0  0  0  0  0  1  0  0  0  0  0  0
  185.3640  172.7420  136.4100 N   0  0  0  0  0  2  0  0  0  0  0  0
  186.2010  171.7030  135.8450 C   0  0  2  0  0  3  0  0  0  0  0  0
  186.2240  173.4540  137.3460 C   0  0  0  0  0  2  0  0  0  0  0  0
  187.6290  172.1520  136.0120 C   0  0  0  0  0  2  0  0  0  0  0  0
  1  6  1  0  0  0  0
  2 11  1  0  0  0  0
  2 12  1  0  0  0  0
  3 10  1  0  0  0  0
  4  8  2  0  0  0  0
  5  1  2  0  0  0  0
  7  9  2  0  0  0  0
  7  4  1  0  0  0  0
  8  1  1  0  0  0  0
  9  5  1  0  0  0  0
 10 11  2  0  0  0  0
 11  7  1  0  0  0  0
 12 15  2  0  0  0  0
 13  2  2  0  0  0  0
 14  3  2  0  0  0  0
 14 13  1  0  0  0  0
 15  4  1  0  0  0  0
 16 20  1  0  0  0  0
 16 13  1  6  0  0  0
 17 19  1  0  0  0  0
 17 21  1  0  0  0  0
 18 22  1  0  0  0  0
 18 17  1  0  0  0  0
 19 21  1  0  0  0  0
 21 16  1  0  0  0  0
 21 20  1  0  0  0  0
 22 19  1  0  0  0  0
 23 24  2  0  0  0  0
 24 18  1  0  0  0  0
 25 26  1  0  0  0  0
 25  3  1  0  0  0  0
 27 25  1  0  0  0  0
 28 27  1  0  0  0  0
 29 28  1  0  0  0  0
 30 31  1  0  0  0  0
 30 28  1  0  0  0  0
 31 33  1  0  0  0  0
 32 35  1  0  0  0  0
 33 35  2  0  0  0  0
 34 31  1  0  0  0  0
 34 32  2  0  0  0  0
 36 34  1  0  0  0  0
 36 38  1  0  0  0  0
 37 36  1  0  0  0  0
 38 42  1  0  0  0  0
 39 41  1  0  0  0  0
 40 42  1  0  0  0  0
 41 43  1  0  0  0  0
 41 40  1  0  0  0  0
 43 38  1  0  0  0  0
M  END
>  <MODEL>
6

>  <REMARK>
 VINA RESULT:     -10.1      3.142      6.556
  Name = 
  9 active torsions:
  status: ('A' for Active; 'I' for Inactive)
    1  A    between atoms: C_1  and  C_34
    2  A    between atoms: N_2  and  C_6
    3  A    between atoms: N_2  and  C_13
    4  A    between atoms: C_3  and  N_4
    5  A    between atoms: C_3  and  C_12
    6  A    between atoms: C_6  and  C_12
    7  A    between atoms: N_11  and  C_14
    8  A    between atoms: C_14  and  C_22
    9  A    between atoms: C_19  and  C_37
                            x       y       z     vdW  Elec       q    Type
                         _______ _______ _______ _____ _____    ______ ____

>  <TORSDO>
F 9

$$$$
=
 OpenBabel10272414083D

 43 50  0  0  1  0  0  0  0  0999 V2000
  188.1780  177.4250  146.9170 C   0  0  0  0  0  0  0  0  0  0  0  0
  185.5600  178.5030  142.7130 C   0  0  0  0  0  0  0  0  0  0  0  0
  187.3480  178.2190  140.5500 C   0  0  0  0  0  0  0  0  0  0  0  0
  186.4350  178.0260  145.3460 C   0  0  0  0  0  0  0  0  0  0  0  0
  189.0890  177.2990  145.8670 C   0  0  0  0  0  3  0  0  0  0  0  0
  188.5770  177.1910  148.1910 F   0  0  0  0  0  0  0  0  0  0  0  0
  187.3490  177.8940  144.2720 C   0  0  0  0  0  0  0  0  0  0  0  0
  186.8540  177.7890  146.6570 C   0  0  0  0  0  3  0  0  0  0  0  0
  188.6790  177.5310  144.5510 C   0  0  0  0  0  3  0  0  0  0  0  0
  187.7830  177.9940  141.8620 C   0  0  0  0  0  3  0  0  0  0  0  0
  186.9090  178.1290  142.9510 C   0  0  0  0  0  0  0  0  0  0  0  0
  184.6800  178.6280  143.7970 C   0  0  0  0  0  3  0  0  0  0  0  0
  185.1200  178.7540  141.3980 C   0  0  0  0  0  0  0  0  0  0  0  0
  186.0170  178.5960  140.3320 C   0  0  0  0  0  3  0  0  0  0  0  0
  185.1120  178.3900  145.1010 C   0  0  0  0  0  3  0  0  0  0  0  0
  183.6790  179.1700  141.1270 C   0  0  2  0  0  3  0  0  0  0  0  0
  183.7730  177.5020  139.3850 C   0  0  2  0  0  3  0  0  0  0  0  0
  183.1950  177.2840  138.0020 C   0  0  2  0  0  3  0  0  0  0  0  0
  182.6390  176.7920  140.0010 C   0  0  1  0  0  3  0  0  0  0  0  0
  182.8080  178.2490  141.6630 O   0  0  0  0  0  0  0  0  0  0  0  0
  182.7650  178.3070  140.2410 C   0  0  2  0  0  0  0  0  0  0  0  0
  182.0370  176.5430  138.6320 C   0  0  0  0  0  2  0  0  0  0  0  0
  184.8150  176.7840  136.2260 C   0  0  0  0  0  2  0  0  0  0  0  0
  184.0670  176.3440  137.2340 C   0  0  0  0  0  3  0  0  0  0  0  0
  188.2570  178.0760  139.4400 N   0  0  0  0  0  0  0  0  0  0  0  0
  187.7580  178.0150  138.0730 C   0  0  0  0  0  1  0  0  0  0  0  0
  189.7020  178.0860  139.6330 C   0  0  0  0  0  2  0  0  0  0  0  0
  190.2640  176.6790  139.4830 C   0  0  2  0  0  3  0  0  0  0  0  0
  190.5780  176.1710  140.7410 O   0  0  0  0  0  1  0  0  0  0  0  0
  191.5120  176.6690  138.6140 C   0  0  0  0  0  2  0  0  0  0  0  0
  191.5650  175.4810  137.7710 N   0  0  0  0  0  0  0  0  0  0  0  0
  192.3090  173.8410  136.4520 N   0  0  0  0  0  0  0  0  0  0  0  0
  190.5090  174.7250  137.4320 C   0  0  0  0  0  3  0  0  0  0  0  0
  192.6360  174.9320  137.1710 C   0  0  0  0  0  0  0  0  0  0  0  0
  190.9730  173.7080  136.6180 C   0  0  0  0  0  3  0  0  0  0  0  0
  194.0410  175.4860  137.2500 C   0  0  1  0  0  3  0  0  0  0  0  0
  194.5050  175.4490  138.5640 O   0  0  0  0  0  1  0  0  0  0  0  0
  195.0100  174.8300  136.3540 N   0  0  0  0  0  0  0  0  0  0  0  0
  198.0610  174.6630  138.1730 C   0  0  0  0  0  1  0  0  0  0  0  0
  197.1780  175.8020  136.2210 N   0  0  0  0  0  2  0  0  0  0  0  0
  197.3100  174.5120  136.8680 C   0  0  2  0  0  3  0  0  0  0  0  0
  195.8420  175.7980  135.6390 C   0  0  0  0  0  2  0  0  0  0  0  0
  195.9160  174.0160  137.1450 C   0  0  0  0  0  2  0  0  0  0  0  0
  1  6  1  0  0  0  0
  2 11  1  0  0  0  0
  2 12  1  0  0  0  0
  3 10  1  0  0  0  0
  4  8  2  0  0  0  0
  5  1  2  0  0  0  0
  7  9  2  0  0  0  0
  7  4  1  0  0  0  0
  8  1  1  0  0  0  0
  9  5  1  0  0  0  0
 10 11  2  0  0  0  0
 11  7  1  0  0  0  0
 12 15  2  0  0  0  0
 13  2  2  0  0  0  0
 14  3  2  0  0  0  0
 14 13  1  0  0  0  0
 15  4  1  0  0  0  0
 16 13  1  6  0  0  0
 16 20  1  0  0  0  0
 17 19  1  0  0  0  0
 17 21  1  0  0  0  0
 18 22  1  0  0  0  0
 18 17  1  0  0  0  0
 19 21  1  0  0  0  0
 21 16  1  0  0  0  0
 21 20  1  0  0  0  0
 22 19  1  0  0  0  0
 23 24  2  0  0  0  0
 24 18  1  0  0  0  0
 25 27  1  0  0  0  0
 25  3  1  0  0  0  0
 26 25  1  0  0  0  0
 28 27  1  0  0  0  0
 28 29  1  0  0  0  0
 30 28  1  0  0  0  0
 31 30  1  0  0  0  0
 32 35  1  0  0  0  0
 32 34  2  0  0  0  0
 33 31  1  0  0  0  0
 34 36  1  0  0  0  0
 34 31  1  0  0  0  0
 35 33  2  0  0  0  0
 36 37  1  0  0  0  0
 38 43  1  0  0  0  0
 38 36  1  0  0  0  0
 40 41  1  0  0  0  0
 41 43  1  0  0  0  0
 41 39  1  0  0  0  0
 42 40  1  0  0  0  0
 42 38  1  0  0  0  0
M  END
>  <MODEL>
7

>  <REMARK>
 VINA RESULT:     -10.1      2.812      6.135
  Name = 
  9 active torsions:
  status: ('A' for Active; 'I' for Inactive)
    1  A    between atoms: C_1  and  C_34
    2  A    between atoms: N_2  and  C_6
    3  A    between atoms: N_2  and  C_13
    4  A    between atoms: C_3  and  N_4
    5  A    between atoms: C_3  and  C_12
    6  A    between atoms: C_6  and  C_12
    7  A    between atoms: N_11  and  C_14
    8  A    between atoms: C_14  and  C_22
    9  A    between atoms: C_19  and  C_37
                            x       y       z     vdW  Elec       q    Type
                         _______ _______ _______ _____ _____    ______ ____

>  <TORSDO>
F 9

$$$$
=
 OpenBabel10272414083D

 43 50  0  0  1  0  0  0  0  0999 V2000
  193.7150  173.4710  135.7080 C   0  0  0  0  0  0  0  0  0  0  0  0
  190.1200  176.8810  136.7720 C   0  0  0  0  0  0  0  0  0  0  0  0
  190.2760  177.3850  139.5430 C   0  0  0  0  0  0  0  0  0  0  0  0
  191.8880  175.0540  135.5630 C   0  0  0  0  0  0  0  0  0  0  0  0
  193.7980  173.6840  137.0850 C   0  0  0  0  0  3  0  0  0  0  0  0
  194.5630  172.6020  135.1050 F   0  0  0  0  0  0  0  0  0  0  0  0
  191.9680  175.2850  136.9580 C   0  0  0  0  0  0  0  0  0  0  0  0
  192.7610  174.1540  134.9490 C   0  0  0  0  0  3  0  0  0  0  0  0
  192.9320  174.5870  137.7080 C   0  0  0  0  0  3  0  0  0  0  0  0
  191.1460  176.4670  138.9400 C   0  0  0  0  0  3  0  0  0  0  0  0
  191.0850  176.2040  137.5640 C   0  0  0  0  0  0  0  0  0  0  0  0
  190.0630  176.6310  135.3940 C   0  0  0  0  0  3  0  0  0  0  0  0
  189.2250  177.7890  137.3750 C   0  0  0  0  0  0  0  0  0  0  0  0
  189.3240  178.0380  138.7510 C   0  0  0  0  0  3  0  0  0  0  0  0
  190.9390  175.7270  134.7950 C   0  0  0  0  0  3  0  0  0  0  0  0
  188.1760  178.5130  136.5410 C   0  0  2  0  0  3  0  0  0  0  0  0
  186.7860  176.6100  137.0620 C   0  0  2  0  0  3  0  0  0  0  0  0
  185.6900  175.8020  136.4000 C   0  0  2  0  0  3  0  0  0  0  0  0
  185.7920  177.5020  137.6820 C   0  0  1  0  0  3  0  0  0  0  0  0
  187.2590  179.1320  137.3610 O   0  0  0  0  0  0  0  0  0  0  0  0
  186.7010  178.0790  136.5820 C   0  0  2  0  0  0  0  0  0  0  0  0
  184.6680  176.7080  137.0480 C   0  0  0  0  0  2  0  0  0  0  0  0
  186.7320  173.6800  137.0680 C   0  0  0  0  0  2  0  0  0  0  0  0
  185.6380  174.4340  137.0020 C   0  0  0  0  0  3  0  0  0  0  0  0
  190.3500  177.6460  140.9590 N   0  0  0  0  0  0  0  0  0  0  0  0
  189.1490  177.9580  141.7220 C   0  0  0  0  0  1  0  0  0  0  0  0
  191.6020  177.5140  141.6940 C   0  0  0  0  0  2  0  0  0  0  0  0
  191.3520  176.8630  143.0480 C   0  0  2  0  0  3  0  0  0  0  0  0
  190.4310  175.8290  142.9000 O   0  0  0  0  0  1  0  0  0  0  0  0
  190.8180  177.8690  144.0570 C   0  0  0  0  0  2  0  0  0  0  0  0
  190.6710  177.2710  145.3780 N   0  0  0  0  0  0  0  0  0  0  0  0
  189.7950  176.5530  147.3010 N   0  0  0  0  0  0  0  0  0  0  0  0
  191.6700  176.7450  146.1050 C   0  0  0  0  0  3  0  0  0  0  0  0
  189.5540  177.1460  146.1170 C   0  0  0  0  0  0  0  0  0  0  0  0
  191.1240  176.2970  147.2940 C   0  0  0  0  0  3  0  0  0  0  0  0
  188.1900  177.6440  145.6980 C   0  0  1  0  0  3  0  0  0  0  0  0
  187.7710  176.9970  144.5360 O   0  0  0  0  0  1  0  0  0  0  0  0
  187.1520  177.5340  146.7370 N   0  0  0  0  0  0  0  0  0  0  0  0
  184.2040  178.9370  145.3260 C   0  0  0  0  0  1  0  0  0  0  0  0
  185.7830  179.4470  147.0970 N   0  0  0  0  0  2  0  0  0  0  0  0
  184.9480  178.4060  146.5310 C   0  0  2  0  0  3  0  0  0  0  0  0
  187.0070  178.7710  147.5060 C   0  0  0  0  0  2  0  0  0  0  0  0
  185.8670  177.2910  146.1060 C   0  0  0  0  0  2  0  0  0  0  0  0
  1  5  1  0  0  0  0
  2 13  2  0  0  0  0
  2 11  1  0  0  0  0
  3 25  1  0  0  0  0
  4  7  2  0  0  0  0
  5  9  2  0  0  0  0
  6  1  1  0  0  0  0
  7 11  1  0  0  0  0
  7  9  1  0  0  0  0
  8  4  1  0  0  0  0
  8  1  2  0  0  0  0
 10  3  1  0  0  0  0
 11 10  2  0  0  0  0
 12  2  1  0  0  0  0
 13 14  1  0  0  0  0
 14  3  2  0  0  0  0
 15 12  2  0  0  0  0
 15  4  1  0  0  0  0
 16 21  1  0  0  0  0
 16 20  1  0  0  0  0
 16 13  1  1  0  0  0
 17 19  1  0  0  0  0
 18 24  1  0  0  0  0
 18 22  1  0  0  0  0
 18 17  1  0  0  0  0
 21 17  1  0  0  0  0
 21 20  1  0  0  0  0
 21 19  1  0  0  0  0
 22 19  1  0  0  0  0
 24 23  2  0  0  0  0
 25 27  1  0  0  0  0
 25 26  1  0  0  0  0
 27 28  1  0  0  0  0
 28 30  1  0  0  0  0
 29 28  1  0  0  0  0
 30 31  1  0  0  0  0
 31 33  1  0  0  0  0
 31 34  1  0  0  0  0
 33 35  2  0  0  0  0
 34 32  2  0  0  0  0
 35 32  1  0  0  0  0
 36 34  1  0  0  0  0
 36 38  1  0  0  0  0
 37 36  1  0  0  0  0
 38 42  1  0  0  0  0
 39 41  1  0  0  0  0
 40 42  1  0  0  0  0
 41 40  1  0  0  0  0
 43 41  1  0  0  0  0
 43 38  1  0  0  0  0
M  END
>  <MODEL>
8

>  <REMARK>
 VINA RESULT:      -9.7      3.649     10.186
  Name = 
  9 active torsions:
  status: ('A' for Active; 'I' for Inactive)
    1  A    between atoms: C_1  and  C_34
    2  A    between atoms: N_2  and  C_6
    3  A    between atoms: N_2  and  C_13
    4  A    between atoms: C_3  and  N_4
    5  A    between atoms: C_3  and  C_12
    6  A    between atoms: C_6  and  C_12
    7  A    between atoms: N_11  and  C_14
    8  A    between atoms: C_14  and  C_22
    9  A    between atoms: C_19  and  C_37
                            x       y       z     vdW  Elec       q    Type
                         _______ _______ _______ _____ _____    ______ ____

>  <TORSDO>
F 9

$$$$
=
 OpenBabel10272414083D

 43 50  0  0  1  0  0  0  0  0999 V2000
  182.9380  179.3280  139.5370 C   0  0  0  0  0  0  0  0  0  0  0  0
  185.5570  178.1250  143.7050 C   0  0  0  0  0  0  0  0  0  0  0  0
  188.2300  177.7250  142.8970 C   0  0  0  0  0  0  0  0  0  0  0  0
  183.5960  178.8320  141.8140 C   0  0  0  0  0  0  0  0  0  0  0  0
  184.2490  179.1130  139.1060 C   0  0  0  0  0  3  0  0  0  0  0  0
  181.9810  179.6770  138.6430 F   0  0  0  0  0  0  0  0  0  0  0  0
  184.9300  178.6190  141.3900 C   0  0  0  0  0  0  0  0  0  0  0  0
  182.6120  179.1860  140.8880 C   0  0  0  0  0  3  0  0  0  0  0  0
  185.2410  178.7620  140.0260 C   0  0  0  0  0  3  0  0  0  0  0  0
  187.2490  178.0650  141.9560 C   0  0  0  0  0  3  0  0  0  0  0  0
  185.9150  178.2690  142.3390 C   0  0  0  0  0  0  0  0  0  0  0  0
  184.2280  178.3410  144.0950 C   0  0  0  0  0  3  0  0  0  0  0  0
  186.5340  177.7610  144.6550 C   0  0  0  0  0  0  0  0  0  0  0  0
  187.8600  177.5780  144.2390 C   0  0  0  0  0  3  0  0  0  0  0  0
  183.2560  178.6920  143.1590 C   0  0  0  0  0  3  0  0  0  0  0  0
  186.1640  177.5900  146.1230 C   0  0  2  0  0  3  0  0  0  0  0  0
  188.5500  177.4800  146.4700 C   0  0  2  0  0  3  0  0  0  0  0  0
  189.5220  176.7770  147.3930 C   0  0  2  0  0  3  0  0  0  0  0  0
  188.4730  178.6330  147.3830 C   0  0  1  0  0  3  0  0  0  0  0  0
  186.3390  178.7750  146.8010 O   0  0  0  0  0  0  0  0  0  0  0  0
  187.2250  177.7450  147.2250 C   0  0  2  0  0  0  0  0  0  0  0  0
  189.4550  177.9660  148.3250 C   0  0  0  0  0  2  0  0  0  0  0  0
  191.8960  176.1480  147.3820 C   0  0  0  0  0  2  0  0  0  0  0  0
  190.8660  176.6940  146.7420 C   0  0  0  0  0  3  0  0  0  0  0  0
  189.5970  177.5180  142.4900 N   0  0  0  0  0  0  0  0  0  0  0  0
  190.6770  178.2870  143.0920 C   0  0  0  0  0  1  0  0  0  0  0  0
  189.9590  176.4730  141.5400 C   0  0  0  0  0  2  0  0  0  0  0  0
  190.4170  177.0910  140.2260 C   0  0  2  0  0  3  0  0  0  0  0  0
  189.6590  178.2290  139.9610 O   0  0  0  0  0  1  0  0  0  0  0  0
  190.2690  176.1120  139.0700 C   0  0  0  0  0  2  0  0  0  0  0  0
  191.4750  176.0650  138.2530 N   0  0  0  0  0  0  0  0  0  0  0  0
  192.9440  175.5320  136.6600 N   0  0  0  0  0  0  0  0  0  0  0  0
  192.5990  176.7580  138.4930 C   0  0  0  0  0  3  0  0  0  0  0  0
  191.7050  175.3340  137.1480 C   0  0  0  0  0  0  0  0  0  0  0  0
  193.5060  176.4290  137.5020 C   0  0  0  0  0  3  0  0  0  0  0  0
  190.7150  174.3690  136.5380 C   0  0  1  0  0  3  0  0  0  0  0  0
  189.9300  173.7840  137.5310 O   0  0  0  0  0  1  0  0  0  0  0  0
  189.8550  174.9510  135.4930 N   0  0  0  0  0  0  0  0  0  0  0  0
  189.1260  178.2630  136.5640 C   0  0  0  0  0  1  0  0  0  0  0  0
  187.9470  176.1690  136.2270 N   0  0  0  0  0  2  0  0  0  0  0  0
  188.8660  177.1110  135.6180 C   0  0  2  0  0  3  0  0  0  0  0  0
  188.4340  174.8540  135.8310 C   0  0  0  0  0  2  0  0  0  0  0  0
  190.1500  176.3670  135.3660 C   0  0  0  0  0  2  0  0  0  0  0  0
  1  8  1  0  0  0  0
  2 12  1  0  0  0  0
  2 13  1  0  0  0  0
  3 14  1  0  0  0  0
  4 15  1  0  0  0  0
  5  1  2  0  0  0  0
  5  9  1  0  0  0  0
  6  1  1  0  0  0  0
  7  4  1  0  0  0  0
  7 11  1  0  0  0  0
  8  4  2  0  0  0  0
  9  7  2  0  0  0  0
 10 11  1  0  0  0  0
 10  3  2  0  0  0  0
 11  2  2  0  0  0  0
 14 13  2  0  0  0  0
 15 12  2  0  0  0  0
 16 13  1  6  0  0  0
 16 20  1  0  0  0  0
 16 21  1  0  0  0  0
 17 21  1  0  0  0  0
 17 19  1  0  0  0  0
 17 18  1  0  0  0  0
 18 22  1  0  0  0  0
 19 22  1  0  0  0  0
 20 21  1  0  0  0  0
 21 19  1  0  0  0  0
 24 23  2  0  0  0  0
 24 18  1  0  0  0  0
 25  3  1  0  0  0  0
 25 26  1  0  0  0  0
 27 25  1  0  0  0  0
 28 27  1  0  0  0  0
 29 28  1  0  0  0  0
 30 28  1  0  0  0  0
 31 33  1  0  0  0  0
 31 30  1  0  0  0  0
 32 34  2  0  0  0  0
 32 35  1  0  0  0  0
 34 31  1  0  0  0  0
 35 33  2  0  0  0  0
 36 34  1  0  0  0  0
 36 37  1  0  0  0  0
 38 42  1  0  0  0  0
 38 36  1  0  0  0  0
 41 40  1  0  0  0  0
 41 39  1  0  0  0  0
 42 40  1  0  0  0  0
 43 38  1  0  0  0  0
 43 41  1  0  0  0  0
M  END
>  <MODEL>
9

>  <REMARK>
 VINA RESULT:      -9.6      1.431      2.783
  Name = 
  9 active torsions:
  status: ('A' for Active; 'I' for Inactive)
    1  A    between atoms: C_1  and  C_34
    2  A    between atoms: N_2  and  C_6
    3  A    between atoms: N_2  and  C_13
    4  A    between atoms: C_3  and  N_4
    5  A    between atoms: C_3  and  C_12
    6  A    between atoms: C_6  and  C_12
    7  A    between atoms: N_11  and  C_14
    8  A    between atoms: C_14  and  C_22
    9  A    between atoms: C_19  and  C_37
                            x       y       z     vdW  Elec       q    Type
                         _______ _______ _______ _____ _____    ______ ____

>  <TORSDO>
F 9

$$$$
