=
 OpenBabel10272413573D

 30 34  0  0  1  0  0  0  0  0999 V2000
  188.7300  177.8600  140.5120 C   0  0  1  0  0  3  0  0  0  0  0  0
  190.1920  178.0060  138.6920 C   0  0  0  0  0  2  0  0  0  0  0  0
  184.7040  178.0750  139.3080 C   0  0  0  0  0  0  0  0  0  0  0  0
  187.6250  178.0440  142.7800 C   0  0  2  0  0  3  0  0  0  0  0  0
  188.5540  177.2220  141.8950 C   0  0  2  0  0  3  0  0  0  0  0  0
  189.9190  176.8980  145.2240 C   0  0  0  0  0  2  0  0  0  0  0  0
  185.2300  179.9230  143.2710 C   0  0  0  0  0  2  0  0  0  0  0  0
  189.4230  177.7560  144.0570 C   0  0  1  0  0  3  0  0  0  0  0  0
  190.3960  175.8000  142.7410 C   0  0  0  0  0  2  0  0  0  0  0  0
  183.9370  178.5320  141.5910 C   0  0  1  0  0  3  0  0  0  0  0  0
  183.9320  177.7390  140.3080 C   0  0  0  0  0  0  0  0  0  0  0  0
  189.8350  177.2200  142.6780 C   0  0  1  0  0  3  0  0  0  0  0  0
  188.0230  177.8690  144.1110 O   0  0  0  0  0  0  0  0  0  0  0  0
  189.3120  177.9850  137.4490 C   0  0  0  0  0  2  0  0  0  0  0  0
  183.1330  177.9280  142.5670 O   0  0  0  0  0  0  0  0  0  0  0  0
  183.0180  179.4370  144.4590 C   0  0  0  0  0  2  0  0  0  0  0  0
  191.5870  175.7210  143.7010 C   0  0  0  0  0  2  0  0  0  0  0  0
  189.6650  177.0970  139.6990 N   0  0  0  0  0  2  0  0  0  0  0  0
  185.5790  178.3780  138.3760 C   0  0  0  0  0  3  0  0  0  0  0  0
  187.7220  179.6460  136.8480 O   0  0  0  0  0  0  0  0  0  0  0  0
  191.3780  176.5040  145.0060 C   0  0  0  0  0  2  0  0  0  0  0  0
  187.3870  177.8700  139.8730 C   0  0  0  0  0  3  0  0  0  0  0  0
  186.1540  177.6530  142.6010 C   0  0  0  0  0  2  0  0  0  0  0  0
  183.0790  176.6520  140.1650 O   0  0  0  0  0  1  0  0  0  0  0  0
  185.3360  178.8740  142.1540 C   0  0  2  0  0  3  0  0  0  0  0  0
  182.4100  178.9890  143.1260 C   0  0  0  0  0  2  0  0  0  0  0  0
  184.9980  180.0450  145.6450 O   0  0  0  0  0  1  0  0  0  0  0  0
  188.0130  178.7140  137.6430 C   0  0  0  0  0  0  0  0  0  0  0  0
  187.0290  178.2930  138.6600 C   0  0  0  0  0  0  0  0  0  0  0  0
  184.5470  179.3600  144.5180 C   0  0  2  0  0  3  0  0  0  0  0  0
  1 22  1  6  0  0  0
  1  5  1  0  0  0  0
  2 18  1  0  0  0  0
  3 11  2  0  0  0  0
  4 23  1  1  0  0  0
  4 13  1  0  0  0  0
  5 12  1  0  0  0  0
  5  4  1  0  0  0  0
  7 30  1  0  0  0  0
  8 13  1  0  0  0  0
  8  6  1  0  0  0  0
  9 17  1  0  0  0  0
 10 25  1  0  0  0  0
 10 15  1  0  0  0  0
 11 10  1  0  0  0  0
 12  9  1  0  0  0  0
 12  8  1  0  0  0  0
 14 28  1  0  0  0  0
 14  2  1  0  0  0  0
 15 26  1  0  0  0  0
 16 30  1  0  0  0  0
 17 21  1  0  0  0  0
 18  1  1  0  0  0  0
 19 29  1  0  0  0  0
 19  3  2  0  0  0  0
 20 28  2  0  0  0  0
 21  6  1  0  0  0  0
 24 11  1  0  0  0  0
 25 23  1  0  0  0  0
 25  7  1  0  0  0  0
 26 16  1  0  0  0  0
 28 29  1  0  0  0  0
 29 22  2  0  0  0  0
 30 27  1  0  0  0  0
M  END
>  <MODEL>
1

>  <REMARK>
 VINA RESULT:      -8.6      0.000      0.000
  Name = 
  0 active torsions:
  status: ('A' for Active; 'I' for Inactive)
                            x       y       z     vdW  Elec       q    Type
                         _______ _______ _______ _____ _____    ______ ____

>  <TORSDO>
F 0

$$$$
=
 OpenBabel10272413573D

 30 34  0  0  1  0  0  0  0  0999 V2000
  186.7730  178.5580  141.0890 C   0  0  1  0  0  3  0  0  0  0  0  0
  189.1020  178.7430  140.9720 C   0  0  0  0  0  2  0  0  0  0  0  0
  185.1040  177.4360  137.3930 C   0  0  0  0  0  0  0  0  0  0  0  0
  184.3210  178.8680  141.6260 C   0  0  2  0  0  3  0  0  0  0  0  0
  185.6190  178.1750  142.0220 C   0  0  2  0  0  3  0  0  0  0  0  0
  183.9540  178.8800  145.1500 C   0  0  0  0  0  2  0  0  0  0  0  0
  182.3540  180.0840  139.5880 C   0  0  0  0  0  2  0  0  0  0  0  0
  184.5050  179.3310  143.7950 C   0  0  1  0  0  3  0  0  0  0  0  0
  186.1940  177.4960  144.3330 C   0  0  0  0  0  2  0  0  0  0  0  0
  182.8500  178.0990  138.0920 C   0  0  1  0  0  3  0  0  0  0  0  0
  183.8520  177.1020  137.5640 C   0  0  0  0  0  0  0  0  0  0  0  0
  185.8420  178.6710  143.4210 C   0  0  1  0  0  3  0  0  0  0  0  0
  183.5620  179.0680  142.7860 O   0  0  0  0  0  0  0  0  0  0  0  0
  189.4900  178.2440  139.5860 C   0  0  0  0  0  2  0  0  0  0  0  0
  181.6030  177.4990  138.3140 O   0  0  0  0  0  0  0  0  0  0  0  0
  180.0360  179.2550  138.8910 C   0  0  0  0  0  2  0  0  0  0  0  0
  186.2250  177.9300  145.8020 C   0  0  0  0  0  2  0  0  0  0  0  0
  188.0180  177.9360  141.5140 N   0  0  0  0  0  2  0  0  0  0  0  0
  186.3720  177.7800  137.3480 C   0  0  0  0  0  3  0  0  0  0  0  0
  188.8820  179.2640  137.5270 O   0  0  0  0  0  0  0  0  0  0  0  0
  185.0690  178.8640  146.1930 C   0  0  0  0  0  2  0  0  0  0  0  0
  186.4000  178.0800  139.7300 C   0  0  0  0  0  3  0  0  0  0  0  0
  183.5250  178.0660  140.5910 C   0  0  0  0  0  2  0  0  0  0  0  0
  183.4440  175.8180  137.2250 O   0  0  0  0  0  1  0  0  0  0  0  0
  183.3070  178.9100  139.3270 C   0  0  2  0  0  3  0  0  0  0  0  0
  180.6800  178.4100  137.7870 C   0  0  0  0  0  2  0  0  0  0  0  0
  180.3820  180.5940  140.8370 O   0  0  0  0  0  1  0  0  0  0  0  0
  188.4860  178.6170  138.5330 C   0  0  0  0  0  0  0  0  0  0  0  0
  187.0880  178.1480  138.5910 C   0  0  0  0  0  0  0  0  0  0  0  0
  180.9750  179.6080  140.0490 C   0  0  2  0  0  3  0  0  0  0  0  0
  1 22  1  6  0  0  0
  1 18  1  0  0  0  0
  1  5  1  0  0  0  0
  2 18  1  0  0  0  0
  3 11  2  0  0  0  0
  4 23  1  6  0  0  0
  4  5  1  0  0  0  0
  4 13  1  0  0  0  0
  5 12  1  0  0  0  0
  6 21  1  0  0  0  0
  7 30  1  0  0  0  0
  8  6  1  0  0  0  0
  9 17  1  0  0  0  0
 10 15  1  0  0  0  0
 10 25  1  0  0  0  0
 11 10  1  0  0  0  0
 12  8  1  0  0  0  0
 12  9  1  0  0  0  0
 13  8  1  0  0  0  0
 14  2  1  0  0  0  0
 16 30  1  0  0  0  0
 17 21  1  0  0  0  0
 19  3  2  0  0  0  0
 19 29  1  0  0  0  0
 20 28  2  0  0  0  0
 24 11  1  0  0  0  0
 25  7  1  0  0  0  0
 25 23  1  0  0  0  0
 26 15  1  0  0  0  0
 26 16  1  0  0  0  0
 28 29  1  0  0  0  0
 28 14  1  0  0  0  0
 29 22  2  0  0  0  0
 30 27  1  0  0  0  0
M  END
>  <MODEL>
2

>  <REMARK>
 VINA RESULT:      -8.4      2.409      4.154
  Name = 
  0 active torsions:
  status: ('A' for Active; 'I' for Inactive)
                            x       y       z     vdW  Elec       q    Type
                         _______ _______ _______ _____ _____    ______ ____

>  <TORSDO>
F 0

$$$$
=
 OpenBabel10272413573D

 30 34  0  0  1  0  0  0  0  0999 V2000
  184.6070  178.7490  142.9710 C   0  0  1  0  0  3  0  0  0  0  0  0
  183.3510  179.3460  144.8520 C   0  0  0  0  0  2  0  0  0  0  0  0
  188.2680  176.9670  144.0340 C   0  0  0  0  0  0  0  0  0  0  0  0
  185.7040  178.6560  140.6940 C   0  0  2  0  0  3  0  0  0  0  0  0
  184.4900  178.2580  141.5240 C   0  0  2  0  0  3  0  0  0  0  0  0
  183.1720  178.9620  138.2340 C   0  0  0  0  0  2  0  0  0  0  0  0
  188.6990  179.2750  140.3080 C   0  0  0  0  0  2  0  0  0  0  0  0
  183.9900  179.3650  139.4630 C   0  0  1  0  0  3  0  0  0  0  0  0
  182.2120  177.9370  140.6060 C   0  0  0  0  0  2  0  0  0  0  0  0
  189.1890  177.2720  141.7820 C   0  0  1  0  0  3  0  0  0  0  0  0
  188.8130  176.4280  142.9750 C   0  0  0  0  0  0  0  0  0  0  0  0
  183.3610  178.9270  140.7950 C   0  0  1  0  0  3  0  0  0  0  0  0
  185.2870  178.8310  139.3680 O   0  0  0  0  0  0  0  0  0  0  0  0
  184.1070  178.7880  146.0510 C   0  0  0  0  0  2  0  0  0  0  0  0
  189.6390  176.4790  140.7180 O   0  0  0  0  0  0  0  0  0  0  0  0
  190.4590  177.9670  138.9900 C   0  0  0  0  0  2  0  0  0  0  0  0
  181.1300  178.5170  139.6900 C   0  0  0  0  0  2  0  0  0  0  0  0
  183.4160  178.4130  143.7360 N   0  0  0  0  0  2  0  0  0  0  0  0
  187.6160  177.5320  145.0260 C   0  0  0  0  0  3  0  0  0  0  0  0
  186.2730  179.4620  146.7590 O   0  0  0  0  0  0  0  0  0  0  0  0
  181.6920  179.2570  138.4660 C   0  0  0  0  0  2  0  0  0  0  0  0
  185.7970  178.0740  143.5550 C   0  0  0  0  0  3  0  0  0  0  0  0
  186.8290  177.6200  140.7730 C   0  0  0  0  0  2  0  0  0  0  0  0
  189.0710  175.0630  142.9710 O   0  0  0  0  0  1  0  0  0  0  0  0
  188.1100  178.2750  141.3120 C   0  0  2  0  0  3  0  0  0  0  0  0
  190.7750  177.1460  140.2450 C   0  0  0  0  0  2  0  0  0  0  0  0
  188.9930  179.5380  137.9510 O   0  0  0  0  0  1  0  0  0  0  0  0
  185.5980  178.8600  145.8830 C   0  0  0  0  0  0  0  0  0  0  0  0
  186.2920  178.1510  144.7900 C   0  0  0  0  0  0  0  0  0  0  0  0
  189.0650  178.6030  138.9830 C   0  0  2  0  0  3  0  0  0  0  0  0
  1 22  1  1  0  0  0
  1 18  1  0  0  0  0
  2 14  1  0  0  0  0
  3 19  2  0  0  0  0
  4 23  1  6  0  0  0
  4  5  1  0  0  0  0
  5  1  1  0  0  0  0
  6 21  1  0  0  0  0
  6  8  1  0  0  0  0
  7 25  1  0  0  0  0
  8 12  1  0  0  0  0
  9 12  1  0  0  0  0
 10 11  1  0  0  0  0
 11  3  2  0  0  0  0
 12  5  1  0  0  0  0
 13  8  1  0  0  0  0
 13  4  1  0  0  0  0
 15 10  1  0  0  0  0
 16 26  1  0  0  0  0
 17  9  1  0  0  0  0
 18  2  1  0  0  0  0
 21 17  1  0  0  0  0
 22 29  2  0  0  0  0
 23 25  1  0  0  0  0
 24 11  1  0  0  0  0
 25 10  1  0  0  0  0
 26 15  1  0  0  0  0
 27 30  1  0  0  0  0
 28 14  1  0  0  0  0
 28 20  2  0  0  0  0
 29 19  1  0  0  0  0
 29 28  1  0  0  0  0
 30 16  1  0  0  0  0
 30  7  1  0  0  0  0
M  END
>  <MODEL>
3

>  <REMARK>
 VINA RESULT:      -8.2      2.340      7.483
  Name = 
  0 active torsions:
  status: ('A' for Active; 'I' for Inactive)
                            x       y       z     vdW  Elec       q    Type
                         _______ _______ _______ _____ _____    ______ ____

>  <TORSDO>
F 0

$$$$
=
 OpenBabel10272413573D

 30 34  0  0  1  0  0  0  0  0999 V2000
  186.9700  177.8320  141.9260 C   0  0  1  0  0  3  0  0  0  0  0  0
  185.1350  178.1430  143.3430 C   0  0  0  0  0  2  0  0  0  0  0  0
  186.0460  178.7880  137.9340 C   0  0  0  0  0  0  0  0  0  0  0  0
  189.0710  176.9900  140.7970 C   0  0  2  0  0  3  0  0  0  0  0  0
  188.4990  177.9130  141.8660 C   0  0  2  0  0  3  0  0  0  0  0  0
  191.6070  176.7030  143.2550 C   0  0  0  0  0  2  0  0  0  0  0  0
  188.9780  175.5070  138.0960 C   0  0  0  0  0  2  0  0  0  0  0  0
  190.2390  176.4540  142.6130 C   0  0  1  0  0  3  0  0  0  0  0  0
  189.6930  178.5660  143.9350 C   0  0  0  0  0  2  0  0  0  0  0  0
  188.0350  177.6330  137.0880 C   0  0  1  0  0  3  0  0  0  0  0  0
  187.1480  178.8450  137.2330 C   0  0  0  0  0  0  0  0  0  0  0  0
  189.1380  177.3970  143.1220 C   0  0  1  0  0  3  0  0  0  0  0  0
  190.3400  176.5710  141.2160 O   0  0  0  0  0  0  0  0  0  0  0  0
  184.0530  178.7880  142.4870 C   0  0  0  0  0  2  0  0  0  0  0  0
  189.2190  177.9470  136.4050 O   0  0  0  0  0  0  0  0  0  0  0  0
  190.4070  175.8740  136.0060 C   0  0  0  0  0  2  0  0  0  0  0  0
  190.5300  178.0670  145.1170 C   0  0  0  0  0  2  0  0  0  0  0  0
  186.4430  178.6750  142.9890 N   0  0  0  0  0  2  0  0  0  0  0  0
  185.0120  178.7190  138.7420 C   0  0  0  0  0  3  0  0  0  0  0  0
  182.9800  177.7830  140.6200 O   0  0  0  0  0  0  0  0  0  0  0  0
  191.4560  176.8920  144.7620 C   0  0  0  0  0  2  0  0  0  0  0  0
  186.4650  178.2980  140.6070 C   0  0  0  0  0  3  0  0  0  0  0  0
  189.1510  177.6650  139.4250 C   0  0  0  0  0  2  0  0  0  0  0  0
  187.4820  180.0330  136.5960 O   0  0  0  0  0  1  0  0  0  0  0  0
  188.3340  176.8670  138.3970 C   0  0  2  0  0  3  0  0  0  0  0  0
  189.3850  176.8950  135.4970 C   0  0  0  0  0  2  0  0  0  0  0  0
  191.1420  174.5290  137.8360 O   0  0  0  0  0  1  0  0  0  0  0  0
  184.0450  178.2750  141.0750 C   0  0  0  0  0  0  0  0  0  0  0  0
  185.2100  178.4390  140.1820 C   0  0  0  0  0  0  0  0  0  0  0  0
  190.3890  175.6590  137.5230 C   0  0  2  0  0  3  0  0  0  0  0  0
  1 22  1  6  0  0  0
  1 18  1  0  0  0  0
  3 19  2  0  0  0  0
  4 23  1  6  0  0  0
  4 13  1  0  0  0  0
  4  5  1  0  0  0  0
  5  1  1  0  0  0  0
  5 12  1  0  0  0  0
  6 21  1  0  0  0  0
  7 25  1  0  0  0  0
  8 12  1  0  0  0  0
  8  6  1  0  0  0  0
  9 17  1  0  0  0  0
 10 11  1  0  0  0  0
 10 25  1  0  0  0  0
 11  3  2  0  0  0  0
 12  9  1  0  0  0  0
 13  8  1  0  0  0  0
 14  2  1  0  0  0  0
 15 10  1  0  0  0  0
 16 30  1  0  0  0  0
 18  2  1  0  0  0  0
 19 29  1  0  0  0  0
 20 28  2  0  0  0  0
 21 17  1  0  0  0  0
 24 11  1  0  0  0  0
 25 23  1  0  0  0  0
 26 16  1  0  0  0  0
 26 15  1  0  0  0  0
 28 14  1  0  0  0  0
 29 22  2  0  0  0  0
 29 28  1  0  0  0  0
 30 27  1  0  0  0  0
 30  7  1  0  0  0  0
M  END
>  <MODEL>
4

>  <REMARK>
 VINA RESULT:      -8.0      2.102      5.839
  Name = 
  0 active torsions:
  status: ('A' for Active; 'I' for Inactive)
                            x       y       z     vdW  Elec       q    Type
                         _______ _______ _______ _____ _____    ______ ____

>  <TORSDO>
F 0

$$$$
=
 OpenBabel10272413573D

 30 34  0  0  1  0  0  0  0  0999 V2000
  186.8970  178.3790  145.5680 C   0  0  1  0  0  3  0  0  0  0  0  0
  186.6980  178.8950  147.8420 C   0  0  0  0  0  2  0  0  0  0  0  0
  190.4440  176.2700  144.7450 C   0  0  0  0  0  0  0  0  0  0  0  0
  186.8230  178.4080  143.0400 C   0  0  2  0  0  3  0  0  0  0  0  0
  186.0860  178.0230  144.3170 C   0  0  2  0  0  3  0  0  0  0  0  0
  183.4940  179.0930  142.0390 C   0  0  0  0  0  2  0  0  0  0  0  0
  189.3610  178.8550  141.3480 C   0  0  0  0  0  2  0  0  0  0  0  0
  184.8180  179.3330  142.7700 C   0  0  1  0  0  3  0  0  0  0  0  0
  183.6210  177.9350  144.5370 C   0  0  0  0  0  2  0  0  0  0  0  0
  190.2660  176.7040  142.3390 C   0  0  1  0  0  3  0  0  0  0  0  0
  190.3920  175.7880  143.5310 C   0  0  0  0  0  0  0  0  0  0  0  0
  184.8220  178.8260  144.2210 C   0  0  1  0  0  3  0  0  0  0  0  0
  185.8700  178.7240  142.0640 O   0  0  0  0  0  0  0  0  0  0  0  0
  187.8570  178.1870  148.5310 C   0  0  0  0  0  2  0  0  0  0  0  0
  190.1030  175.9770  141.1520 O   0  0  0  0  0  0  0  0  0  0  0  0
  190.1900  177.5500  139.3100 C   0  0  0  0  0  2  0  0  0  0  0  0
  182.3040  178.6630  144.2490 C   0  0  0  0  0  2  0  0  0  0  0  0
  186.1560  178.0590  146.7800 N   0  0  0  0  0  2  0  0  0  0  0  0
  190.3730  176.7900  145.9500 C   0  0  0  0  0  3  0  0  0  0  0  0
  190.1630  178.6500  148.1930 O   0  0  0  0  0  0  0  0  0  0  0  0
  182.3190  179.4670  142.9390 C   0  0  0  0  0  2  0  0  0  0  0  0
  188.1490  177.5770  145.5080 C   0  0  0  0  0  3  0  0  0  0  0  0
  187.7530  177.2960  142.5460 C   0  0  0  0  0  2  0  0  0  0  0  0
  190.4830  174.4150  143.3460 O   0  0  0  0  0  1  0  0  0  0  0  0
  189.1970  177.8150  142.4640 C   0  0  2  0  0  3  0  0  0  0  0  0
  190.9590  176.6050  140.2400 C   0  0  0  0  0  2  0  0  0  0  0  0
  188.5770  179.3000  139.1350 O   0  0  0  0  0  1  0  0  0  0  0  0
  189.1080  178.1720  147.7000 C   0  0  0  0  0  0  0  0  0  0  0  0
  189.1560  177.5140  146.3790 C   0  0  0  0  0  0  0  0  0  0  0  0
  189.0160  178.2770  139.9740 C   0  0  2  0  0  3  0  0  0  0  0  0
  1 22  1  1  0  0  0
  1 18  1  0  0  0  0
  2 14  1  0  0  0  0
  3 19  2  0  0  0  0
  4 23  1  6  0  0  0
  4  5  1  0  0  0  0
  5  1  1  0  0  0  0
  6  8  1  0  0  0  0
  6 21  1  0  0  0  0
  7 25  1  0  0  0  0
  8 12  1  0  0  0  0
 10 25  1  0  0  0  0
 10 11  1  0  0  0  0
 11  3  2  0  0  0  0
 12  5  1  0  0  0  0
 12  9  1  0  0  0  0
 13  8  1  0  0  0  0
 13  4  1  0  0  0  0
 15 10  1  0  0  0  0
 16 30  1  0  0  0  0
 16 26  1  0  0  0  0
 17  9  1  0  0  0  0
 18  2  1  0  0  0  0
 19 29  1  0  0  0  0
 21 17  1  0  0  0  0
 22 29  2  0  0  0  0
 24 11  1  0  0  0  0
 25 23  1  0  0  0  0
 26 15  1  0  0  0  0
 27 30  1  0  0  0  0
 28 20  2  0  0  0  0
 28 14  1  0  0  0  0
 29 28  1  0  0  0  0
 30  7  1  0  0  0  0
M  END
>  <MODEL>
5

>  <REMARK>
 VINA RESULT:      -7.9      2.658      7.545
  Name = 
  0 active torsions:
  status: ('A' for Active; 'I' for Inactive)
                            x       y       z     vdW  Elec       q    Type
                         _______ _______ _______ _____ _____    ______ ____

>  <TORSDO>
F 0

$$$$
=
 OpenBabel10272413573D

 30 34  0  0  1  0  0  0  0  0999 V2000
  187.5500  177.6710  139.8110 C   0  0  1  0  0  3  0  0  0  0  0  0
  188.0880  177.0550  137.6190 C   0  0  0  0  0  2  0  0  0  0  0  0
  190.9650  177.8960  142.2580 C   0  0  0  0  0  0  0  0  0  0  0  0
  186.4330  177.9720  142.0600 C   0  0  2  0  0  3  0  0  0  0  0  0
  186.5770  178.5140  140.6430 C   0  0  2  0  0  3  0  0  0  0  0  0
  183.1170  179.0900  141.5060 C   0  0  0  0  0  2  0  0  0  0  0  0
  187.4780  176.5600  144.5930 C   0  0  0  0  0  2  0  0  0  0  0  0
  184.3260  178.1620  141.3690 C   0  0  1  0  0  3  0  0  0  0  0  0
  184.8060  179.7480  139.4300 C   0  0  0  0  0  2  0  0  0  0  0  0
  189.6230  177.8820  144.3100 C   0  0  1  0  0  3  0  0  0  0  0  0
  190.6550  178.4810  143.3860 C   0  0  0  0  0  0  0  0  0  0  0  0
  185.1740  178.4330  140.1170 C   0  0  1  0  0  3  0  0  0  0  0  0
  185.1410  178.2680  142.5100 O   0  0  0  0  0  0  0  0  0  0  0  0
  189.6100  177.0350  137.5550 C   0  0  0  0  0  2  0  0  0  0  0  0
  189.3560  178.7290  145.3930 O   0  0  0  0  0  0  0  0  0  0  0  0
  187.9050  177.5320  146.9200 C   0  0  0  0  0  2  0  0  0  0  0  0
  183.3190  179.7800  139.0630 C   0  0  0  0  0  2  0  0  0  0  0  0
  187.6330  178.1640  138.4440 N   0  0  0  0  0  2  0  0  0  0  0  0
  191.1590  177.3390  141.0840 C   0  0  0  0  0  3  0  0  0  0  0  0
  191.0290  175.5640  138.7670 O   0  0  0  0  0  0  0  0  0  0  0  0
  182.4010  179.2260  140.1640 C   0  0  0  0  0  2  0  0  0  0  0  0
  188.8780  177.7740  140.4730 C   0  0  0  0  0  3  0  0  0  0  0  0
  187.4830  178.5500  143.0140 C   0  0  0  0  0  2  0  0  0  0  0  0
  191.3100  179.6520  143.7410 O   0  0  0  0  0  1  0  0  0  0  0  0
  188.3140  177.4150  143.6310 C   0  0  2  0  0  3  0  0  0  0  0  0
  189.3380  177.8770  146.5040 C   0  0  0  0  0  2  0  0  0  0  0  0
  185.7430  176.8050  146.2170 O   0  0  0  0  0  1  0  0  0  0  0  0
  190.2390  176.5430  138.8270 C   0  0  0  0  0  0  0  0  0  0  0  0
  190.0470  177.2440  140.1120 C   0  0  0  0  0  0  0  0  0  0  0  0
  186.9220  177.3870  145.7540 C   0  0  2  0  0  3  0  0  0  0  0  0
  1 22  1  1  0  0  0
  1  5  1  0  0  0  0
  2 18  1  0  0  0  0
  3 11  2  0  0  0  0
  4 13  1  0  0  0  0
  4 23  1  1  0  0  0
  5  4  1  0  0  0  0
  7 30  1  0  0  0  0
  8  6  1  0  0  0  0
  8 13  1  0  0  0  0
  9 12  1  0  0  0  0
 10 15  1  0  0  0  0
 11 24  1  0  0  0  0
 11 10  1  0  0  0  0
 12  5  1  0  0  0  0
 12  8  1  0  0  0  0
 14  2  1  0  0  0  0
 14 28  1  0  0  0  0
 15 26  1  0  0  0  0
 17  9  1  0  0  0  0
 17 21  1  0  0  0  0
 18  1  1  0  0  0  0
 19  3  2  0  0  0  0
 20 28  2  0  0  0  0
 21  6  1  0  0  0  0
 23 25  1  0  0  0  0
 25 10  1  0  0  0  0
 25  7  1  0  0  0  0
 26 16  1  0  0  0  0
 28 29  1  0  0  0  0
 29 22  2  0  0  0  0
 29 19  1  0  0  0  0
 30 27  1  0  0  0  0
 30 16  1  0  0  0  0
M  END
>  <MODEL>
6

>  <REMARK>
 VINA RESULT:      -7.3      2.166      5.679
  Name = 
  0 active torsions:
  status: ('A' for Active; 'I' for Inactive)
                            x       y       z     vdW  Elec       q    Type
                         _______ _______ _______ _____ _____    ______ ____

>  <TORSDO>
F 0

$$$$
=
 OpenBabel10272413573D

 30 34  0  0  1  0  0  0  0  0999 V2000
  188.2420  177.2050  138.9900 C   0  0  1  0  0  3  0  0  0  0  0  0
  189.9370  177.2880  140.6010 C   0  0  0  0  0  2  0  0  0  0  0  0
  184.7810  179.2390  140.2520 C   0  0  0  0  0  0  0  0  0  0  0  0
  186.6550  176.5150  137.1460 C   0  0  2  0  0  3  0  0  0  0  0  0
  187.9880  177.1730  137.4790 C   0  0  2  0  0  3  0  0  0  0  0  0
  188.5830  175.3910  134.3930 C   0  0  0  0  0  2  0  0  0  0  0  0
  183.7130  175.7980  137.7200 C   0  0  0  0  0  2  0  0  0  0  0  0
  188.0990  175.4310  135.8450 C   0  0  1  0  0  3  0  0  0  0  0  0
  189.9650  177.1650  135.9870 C   0  0  0  0  0  2  0  0  0  0  0  0
  183.4040  178.1830  138.5210 C   0  0  1  0  0  3  0  0  0  0  0  0
  183.9680  179.3840  139.2390 C   0  0  0  0  0  0  0  0  0  0  0  0
  188.9750  176.2980  136.7630 C   0  0  1  0  0  3  0  0  0  0  0  0
  186.7740  175.8990  135.8940 O   0  0  0  0  0  0  0  0  0  0  0  0
  189.4280  178.2200  141.6930 C   0  0  0  0  0  2  0  0  0  0  0  0
  182.6600  178.5650  137.3960 O   0  0  0  0  0  0  0  0  0  0  0  0
  181.5980  176.5760  136.5090 C   0  0  0  0  0  2  0  0  0  0  0  0
  190.8560  176.3090  135.0820 C   0  0  0  0  0  2  0  0  0  0  0  0
  189.5440  177.7840  139.2900 N   0  0  0  0  0  2  0  0  0  0  0  0
  185.6850  179.0480  141.1870 C   0  0  0  0  0  3  0  0  0  0  0  0
  187.5410  177.8260  143.0830 O   0  0  0  0  0  0  0  0  0  0  0  0
  190.0960  175.1950  134.3460 C   0  0  0  0  0  2  0  0  0  0  0  0
  187.1630  178.0380  139.5870 C   0  0  0  0  0  3  0  0  0  0  0  0
  185.4950  177.5150  137.1470 C   0  0  0  0  0  2  0  0  0  0  0  0
  183.6030  180.6650  138.8460 O   0  0  0  0  0  1  0  0  0  0  0  0
  184.4280  177.0810  138.1640 C   0  0  2  0  0  3  0  0  0  0  0  0
  181.5060  177.7750  137.4580 C   0  0  0  0  0  2  0  0  0  0  0  0
  182.9170  174.7460  135.7280 O   0  0  0  0  0  1  0  0  0  0  0  0
  187.9490  178.0940  141.9220 C   0  0  0  0  0  0  0  0  0  0  0  0
  186.9680  178.3870  140.8580 C   0  0  0  0  0  0  0  0  0  0  0  0
  183.0020  175.9770  136.3770 C   0  0  2  0  0  3  0  0  0  0  0  0
  1 18  1  0  0  0  0
  1 22  1  1  0  0  0
  2 14  1  0  0  0  0
  3 19  2  0  0  0  0
  4 23  1  6  0  0  0
  4  5  1  0  0  0  0
  5  1  1  0  0  0  0
  6  8  1  0  0  0  0
  7 25  1  0  0  0  0
  8 13  1  0  0  0  0
  8 12  1  0  0  0  0
  9 12  1  0  0  0  0
 10 11  1  0  0  0  0
 11  3  2  0  0  0  0
 12  5  1  0  0  0  0
 13  4  1  0  0  0  0
 14 28  1  0  0  0  0
 15 26  1  0  0  0  0
 15 10  1  0  0  0  0
 16 26  1  0  0  0  0
 17  9  1  0  0  0  0
 18  2  1  0  0  0  0
 21  6  1  0  0  0  0
 21 17  1  0  0  0  0
 22 29  2  0  0  0  0
 23 25  1  0  0  0  0
 24 11  1  0  0  0  0
 25 10  1  0  0  0  0
 27 30  1  0  0  0  0
 28 20  2  0  0  0  0
 29 19  1  0  0  0  0
 29 28  1  0  0  0  0
 30 16  1  0  0  0  0
 30  7  1  0  0  0  0
M  END
>  <MODEL>
7

>  <REMARK>
 VINA RESULT:      -6.6      2.708      6.274
  Name = 
  0 active torsions:
  status: ('A' for Active; 'I' for Inactive)
                            x       y       z     vdW  Elec       q    Type
                         _______ _______ _______ _____ _____    ______ ____

>  <TORSDO>
F 0

$$$$
=
 OpenBabel10272413573D

 30 34  0  0  1  0  0  0  0  0999 V2000
  190.5910  176.5190  139.6270 C   0  0  1  0  0  3  0  0  0  0  0  0
  191.4480  177.0070  141.7490 C   0  0  0  0  0  2  0  0  0  0  0  0
  186.8700  178.3740  138.9780 C   0  0  0  0  0  0  0  0  0  0  0  0
  189.9460  175.4100  137.4480 C   0  0  2  0  0  3  0  0  0  0  0  0
  190.9980  176.2370  138.1770 C   0  0  2  0  0  3  0  0  0  0  0  0
  192.8800  174.0780  135.9740 C   0  0  0  0  0  2  0  0  0  0  0  0
  187.0530  174.5050  136.8820 C   0  0  0  0  0  2  0  0  0  0  0  0
  191.8300  174.2880  137.0680 C   0  0  1  0  0  3  0  0  0  0  0  0
  193.4180  176.1970  137.6540 C   0  0  0  0  0  2  0  0  0  0  0  0
  186.3760  176.9420  137.0500 C   0  0  1  0  0  3  0  0  0  0  0  0
  186.5550  178.2860  137.7120 C   0  0  0  0  0  0  0  0  0  0  0  0
  192.2150  175.3640  138.0960 C   0  0  1  0  0  3  0  0  0  0  0  0
  190.5960  174.6270  136.4860 O   0  0  0  0  0  0  0  0  0  0  0  0
  190.5040  178.0380  142.3520 C   0  0  0  0  0  2  0  0  0  0  0  0
  186.1650  177.0770  135.6710 O   0  0  0  0  0  0  0  0  0  0  0  0
  185.6260  174.8830  134.7940 C   0  0  0  0  0  2  0  0  0  0  0  0
  194.6280  175.3050  137.3610 C   0  0  0  0  0  2  0  0  0  0  0  0
  191.6310  177.2600  140.3270 N   0  0  0  0  0  2  0  0  0  0  0  0
  187.3010  178.4130  140.2190 C   0  0  0  0  0  3  0  0  0  0  0  0
  188.2180  177.6760  142.8920 O   0  0  0  0  0  0  0  0  0  0  0  0
  194.2770  174.0250  136.5880 C   0  0  0  0  0  2  0  0  0  0  0  0
  189.3410  177.3240  139.5710 C   0  0  0  0  0  3  0  0  0  0  0  0
  188.8670  176.2810  136.7970 C   0  0  0  0  0  2  0  0  0  0  0  0
  186.3570  179.4520  136.9840 O   0  0  0  0  0  1  0  0  0  0  0  0
  187.4830  175.9030  137.3460 C   0  0  2  0  0  3  0  0  0  0  0  0
  185.1120  176.1960  135.3940 C   0  0  0  0  0  2  0  0  0  0  0  0
  187.1960  173.0940  134.9600 O   0  0  0  0  0  1  0  0  0  0  0  0
  189.0690  177.8050  141.9730 C   0  0  0  0  0  0  0  0  0  0  0  0
  188.6200  177.8390  140.5670 C   0  0  0  0  0  0  0  0  0  0  0  0
  186.9690  174.4100  135.3580 C   0  0  2  0  0  3  0  0  0  0  0  0
  1 22  1  6  0  0  0
  1 18  1  0  0  0  0
  2 14  1  0  0  0  0
  3 19  2  0  0  0  0
  4 23  1  6  0  0  0
  4  5  1  0  0  0  0
  5  1  1  0  0  0  0
  6 21  1  0  0  0  0
  6  8  1  0  0  0  0
  7 25  1  0  0  0  0
  8 12  1  0  0  0  0
  9 12  1  0  0  0  0
 10 25  1  0  0  0  0
 10 11  1  0  0  0  0
 11  3  2  0  0  0  0
 12  5  1  0  0  0  0
 13  8  1  0  0  0  0
 13  4  1  0  0  0  0
 15 10  1  0  0  0  0
 16 30  1  0  0  0  0
 16 26  1  0  0  0  0
 17  9  1  0  0  0  0
 18  2  1  0  0  0  0
 19 29  1  0  0  0  0
 21 17  1  0  0  0  0
 22 29  2  0  0  0  0
 23 25  1  0  0  0  0
 24 11  1  0  0  0  0
 26 15  1  0  0  0  0
 27 30  1  0  0  0  0
 28 14  1  0  0  0  0
 28 20  2  0  0  0  0
 29 28  1  0  0  0  0
 30  7  1  0  0  0  0
M  END
>  <MODEL>
8

>  <REMARK>
 VINA RESULT:      -6.5      3.451      6.823
  Name = 
  0 active torsions:
  status: ('A' for Active; 'I' for Inactive)
                            x       y       z     vdW  Elec       q    Type
                         _______ _______ _______ _____ _____    ______ ____

>  <TORSDO>
F 0

$$$$
=
 OpenBabel10272413573D

 30 34  0  0  1  0  0  0  0  0999 V2000
  184.6570  178.0080  141.0070 C   0  0  1  0  0  3  0  0  0  0  0  0
  182.4210  177.8240  140.3450 C   0  0  0  0  0  2  0  0  0  0  0  0
  187.2420  178.3730  137.7070 C   0  0  0  0  0  0  0  0  0  0  0  0
  186.8810  177.7880  142.1910 C   0  0  2  0  0  3  0  0  0  0  0  0
  185.5670  178.5550  142.1120 C   0  0  2  0  0  3  0  0  0  0  0  0
  186.3720  178.4600  145.6330 C   0  0  0  0  0  2  0  0  0  0  0  0
  189.2150  176.1810  140.9770 C   0  0  0  0  0  2  0  0  0  0  0  0
  186.1450  177.7580  144.2910 C   0  0  1  0  0  3  0  0  0  0  0  0
  184.4830  179.6770  144.0350 C   0  0  0  0  0  2  0  0  0  0  0  0
  189.2150  177.8410  139.0610 C   0  0  1  0  0  3  0  0  0  0  0  0
  188.4310  178.7240  138.1220 C   0  0  0  0  0  0  0  0  0  0  0  0
  184.9810  178.3440  143.4770 C   0  0  1  0  0  3  0  0  0  0  0  0
  187.3200  177.8120  143.5210 O   0  0  0  0  0  0  0  0  0  0  0  0
  182.4140  178.0450  138.8380 C   0  0  0  0  0  2  0  0  0  0  0  0
  190.4020  178.4620  139.4740 O   0  0  0  0  0  0  0  0  0  0  0  0
  191.6760  176.8390  140.7440 C   0  0  0  0  0  2  0  0  0  0  0  0
  184.0680  179.5380  145.5030 C   0  0  0  0  0  2  0  0  0  0  0  0
  183.3840  178.7120  140.9810 N   0  0  0  0  0  2  0  0  0  0  0  0
  186.0070  178.0380  137.4100 C   0  0  0  0  0  3  0  0  0  0  0  0
  183.4490  176.6390  137.2260 O   0  0  0  0  0  0  0  0  0  0  0  0
  185.0380  178.6890  146.3400 C   0  0  0  0  0  2  0  0  0  0  0  0
  185.3780  178.2090  139.7210 C   0  0  0  0  0  3  0  0  0  0  0  0
  187.9510  178.3660  141.2590 C   0  0  0  0  0  2  0  0  0  0  0  0
  188.9820  179.9130  137.6630 O   0  0  0  0  0  1  0  0  0  0  0  0
  188.4240  177.2900  140.2700 C   0  0  2  0  0  3  0  0  0  0  0  0
  191.3720  177.4570  139.3760 C   0  0  0  0  0  2  0  0  0  0  0  0
  190.7880  175.9080  142.7550 O   0  0  0  0  0  1  0  0  0  0  0  0
  183.6220  177.4660  138.1590 C   0  0  0  0  0  0  0  0  0  0  0  0
  184.9890  177.9250  138.4790 C   0  0  0  0  0  0  0  0  0  0  0  0
  190.4630  176.7260  141.6730 C   0  0  2  0  0  3  0  0  0  0  0  0
  1 22  1  6  0  0  0
  1  5  1  0  0  0  0
  2 18  1  0  0  0  0
  3 11  2  0  0  0  0
  4 23  1  6  0  0  0
  4 13  1  0  0  0  0
  5  4  1  0  0  0  0
  5 12  1  0  0  0  0
  6 21  1  0  0  0  0
  7 30  1  0  0  0  0
  8  6  1  0  0  0  0
  9 17  1  0  0  0  0
 10 15  1  0  0  0  0
 10 25  1  0  0  0  0
 11 10  1  0  0  0  0
 12  9  1  0  0  0  0
 12  8  1  0  0  0  0
 13  8  1  0  0  0  0
 14  2  1  0  0  0  0
 16 30  1  0  0  0  0
 17 21  1  0  0  0  0
 18  1  1  0  0  0  0
 19  3  2  0  0  0  0
 19 29  1  0  0  0  0
 20 28  2  0  0  0  0
 24 11  1  0  0  0  0
 25  7  1  0  0  0  0
 25 23  1  0  0  0  0
 26 15  1  0  0  0  0
 26 16  1  0  0  0  0
 28 29  1  0  0  0  0
 28 14  1  0  0  0  0
 29 22  2  0  0  0  0
 30 27  1  0  0  0  0
M  END
>  <MODEL>
9

>  <REMARK>
 VINA RESULT:      -6.5      2.271      5.803
  Name = 
  0 active torsions:
  status: ('A' for Active; 'I' for Inactive)
                            x       y       z     vdW  Elec       q    Type
                         _______ _______ _______ _____ _____    ______ ____

>  <TORSDO>
F 0

$$$$
