=
 OpenBabel10272400033D

 34 38  0  0  1  0  0  0  0  0999 V2000
  185.1720  178.6550  141.9660 C   0  0  0  0  0  0  0  0  0  0  0  0
  186.9360  177.5660  143.3530 C   0  0  0  0  0  3  0  0  0  0  0  0
  187.4210  178.6500  141.0340 C   0  0  2  0  0  3  0  0  0  0  0  0
  189.4360  177.4260  140.1790 C   0  0  0  0  0  0  0  0  0  0  0  0
  184.2250  178.7180  144.2480 C   0  0  0  0  0  3  0  0  0  0  0  0
  185.2680  178.4190  145.0200 C   0  0  0  0  0  3  0  0  0  0  0  0
  189.6170  178.4000  142.2610 N   0  0  0  0  0  0  0  0  0  0  0  0
  186.4600  178.3080  142.1570 C   0  0  0  0  0  0  0  0  0  0  0  0
  191.0180  177.0800  140.6170 S   0  0  0  0  0  0  0  0  0  0  0  0
  184.0700  178.1920  142.8610 C   0  0  0  0  0  2  0  0  0  0  0  0
  186.8080  178.2930  139.7300 N   0  0  0  0  0  0  0  0  0  0  0  0
  184.7920  179.3960  140.7160 C   0  0  0  0  0  2  0  0  0  0  0  0
  186.4290  177.6180  144.5900 C   0  0  0  0  0  3  0  0  0  0  0  0
  188.7770  177.1240  138.9180 C   0  0  0  0  0  3  0  0  0  0  0  0
  187.5190  177.5320  138.7080 C   0  0  0  0  0  0  0  0  0  0  0  0
  190.8500  177.8650  142.1020 C   0  0  0  0  0  0  0  0  0  0  0  0
  188.8230  178.1290  141.1910 C   0  0  0  0  0  0  0  0  0  0  0  0
  185.4220  178.7300  139.4860 C   0  0  0  0  0  2  0  0  0  0  0  0
  185.6520  175.5890  136.0380 C   0  0  0  0  0  0  0  0  0  0  0  0
  185.7430  176.4610  134.9500 C   0  0  0  0  0  3  0  0  0  0  0  0
  186.8840  177.1690  137.4180 C   0  0  0  0  0  0  0  0  0  0  0  0
  186.4070  177.6820  135.0880 C   0  0  0  0  0  3  0  0  0  0  0  0
  186.2250  175.9400  137.2640 C   0  0  0  0  0  3  0  0  0  0  0  0
  186.9790  178.0330  136.3140 C   0  0  0  0  0  3  0  0  0  0  0  0
  185.0130  174.4030  135.9050 F   0  0  0  0  0  0  0  0  0  0  0  0
  191.9490  178.0380  143.0960 C   0  0  0  0  0  2  0  0  0  0  0  0
  191.4200  177.9190  144.4890 C   0  0  0  0  0  3  0  0  0  0  0  0
  191.4420  176.7760  145.1820 C   0  0  0  0  0  0  0  0  0  0  0  0
  191.7050  176.8860  147.5430 O   0  0  0  0  0  0  0  0  0  0  0  0
  190.9110  176.7740  146.5670 C   0  0  0  0  0  0  0  0  0  0  0  0
  188.8150  177.6470  147.5230 C   0  0  0  0  0  1  0  0  0  0  0  0
  189.5390  176.6610  146.8020 O   0  0  0  0  0  0  0  0  0  0  0  0
  192.3360  174.4460  145.2570 C   0  0  0  0  0  1  0  0  0  0  0  0
  191.9590  175.6260  144.5650 O   0  0  0  0  0  0  0  0  0  0  0  0
  1  8  2  0  0  0  0
  1 10  1  0  0  0  0
  2 13  2  0  0  0  0
  3 17  1  1  0  0  0
  3  8  1  0  0  0  0
  4  9  1  0  0  0  0
  4 17  2  0  0  0  0
  5  6  2  0  0  0  0
  8  2  1  0  0  0  0
  9 16  1  0  0  0  0
 10  5  1  0  0  0  0
 11  3  1  0  0  0  0
 12  1  1  0  0  0  0
 13  6  1  0  0  0  0
 14  4  1  0  0  0  0
 15 14  2  0  0  0  0
 15 11  1  0  0  0  0
 16  7  2  0  0  0  0
 16 26  1  0  0  0  0
 17  7  1  0  0  0  0
 18 11  1  0  0  0  0
 18 12  1  0  0  0  0
 19 23  1  0  0  0  0
 20 22  1  0  0  0  0
 20 19  2  0  0  0  0
 21 15  1  0  0  0  0
 22 24  2  0  0  0  0
 23 21  2  0  0  0  0
 24 21  1  0  0  0  0
 25 19  1  0  0  0  0
 26 27  1  0  0  0  0
 27 28  2  0  0  0  0
 28 30  1  0  0  0  0
 30 32  1  0  0  0  0
 30 29  2  0  0  0  0
 32 31  1  0  0  0  0
 34 28  1  0  0  0  0
 34 33  1  0  0  0  0
M  END
>  <MODEL>
1

>  <REMARK>
 VINA RESULT:      -8.6      0.000      0.000
  Name = 
  6 active torsions:
  status: ('A' for Active; 'I' for Inactive)
    1  A    between atoms: C_3  and  C_17
    2  A    between atoms: C_12  and  C_28
    3  A    between atoms: C_13  and  C_14
    4  A    between atoms: C_13  and  O_33
    5  A    between atoms: C_14  and  O_34
    6  A    between atoms: C_17  and  C_29
                            x       y       z     vdW  Elec       q    Type
                         _______ _______ _______ _____ _____    ______ ____

>  <TORSDO>
F 6

$$$$
=
 OpenBabel10272400033D

 34 38  0  0  1  0  0  0  0  0999 V2000
  184.8500  178.6800  141.3990 C   0  0  0  0  0  0  0  0  0  0  0  0
  186.3640  177.8420  143.1960 C   0  0  0  0  0  3  0  0  0  0  0  0
  187.2320  178.7030  140.8970 C   0  0  2  0  0  3  0  0  0  0  0  0
  189.4130  177.5120  140.5630 C   0  0  0  0  0  0  0  0  0  0  0  0
  183.4940  178.9270  143.4500 C   0  0  0  0  0  3  0  0  0  0  0  0
  184.3850  178.7680  144.4270 C   0  0  0  0  0  3  0  0  0  0  0  0
  189.1690  178.7060  142.5200 N   0  0  0  0  0  0  0  0  0  0  0  0
  186.0920  178.4270  141.8580 C   0  0  0  0  0  0  0  0  0  0  0  0
  190.8980  177.3020  141.3160 S   0  0  0  0  0  0  0  0  0  0  0  0
  183.6190  178.2520  142.1270 C   0  0  0  0  0  2  0  0  0  0  0  0
  186.8860  178.1800  139.5510 N   0  0  0  0  0  0  0  0  0  0  0  0
  184.6840  179.2650  140.0260 C   0  0  0  0  0  2  0  0  0  0  0  0
  185.6340  177.9930  144.3070 C   0  0  0  0  0  3  0  0  0  0  0  0
  189.0120  177.0440  139.2460 C   0  0  0  0  0  3  0  0  0  0  0  0
  187.8010  177.3570  138.7670 C   0  0  0  0  0  0  0  0  0  0  0  0
  190.4290  178.2270  142.6480 C   0  0  0  0  0  0  0  0  0  0  0  0
  188.5980  178.2810  141.3620 C   0  0  0  0  0  0  0  0  0  0  0  0
  185.5540  178.5110  139.0130 C   0  0  0  0  0  2  0  0  0  0  0  0
  186.6330  175.0090  136.0270 C   0  0  0  0  0  0  0  0  0  0  0  0
  186.7950  175.8090  134.8920 C   0  0  0  0  0  3  0  0  0  0  0  0
  187.4310  176.8270  137.4330 C   0  0  0  0  0  0  0  0  0  0  0  0
  187.2790  177.1140  135.0210 C   0  0  0  0  0  3  0  0  0  0  0  0
  186.9550  175.5150  137.2890 C   0  0  0  0  0  3  0  0  0  0  0  0
  187.6000  177.6180  136.2850 C   0  0  0  0  0  3  0  0  0  0  0  0
  186.1690  173.7440  135.9020 F   0  0  0  0  0  0  0  0  0  0  0  0
  191.3170  178.5630  143.7990 C   0  0  0  0  0  2  0  0  0  0  0  0
  191.8260  177.3160  144.4490 C   0  0  0  0  0  3  0  0  0  0  0  0
  191.3240  176.8320  145.5890 C   0  0  0  0  0  0  0  0  0  0  0  0
  192.4080  174.7280  145.3550 O   0  0  0  0  0  0  0  0  0  0  0  0
  191.8880  175.5740  146.1370 C   0  0  0  0  0  0  0  0  0  0  0  0
  192.8320  175.8580  148.3950 C   0  0  0  0  0  1  0  0  0  0  0  0
  191.8600  175.3200  147.5100 O   0  0  0  0  0  0  0  0  0  0  0  0
  188.9140  177.2120  146.1200 C   0  0  0  0  0  1  0  0  0  0  0  0
  190.2910  177.5410  146.2230 O   0  0  0  0  0  0  0  0  0  0  0  0
  1  8  2  0  0  0  0
  1 10  1  0  0  0  0
  2 13  2  0  0  0  0
  3 17  1  1  0  0  0
  3  8  1  0  0  0  0
  4  9  1  0  0  0  0
  4 17  2  0  0  0  0
  5  6  2  0  0  0  0
  7 16  2  0  0  0  0
  8  2  1  0  0  0  0
  9 16  1  0  0  0  0
 10  5  1  0  0  0  0
 11  3  1  0  0  0  0
 12  1  1  0  0  0  0
 13  6  1  0  0  0  0
 14  4  1  0  0  0  0
 15 14  2  0  0  0  0
 15 11  1  0  0  0  0
 16 26  1  0  0  0  0
 17  7  1  0  0  0  0
 18 11  1  0  0  0  0
 18 12  1  0  0  0  0
 19 23  1  0  0  0  0
 20 22  1  0  0  0  0
 20 19  2  0  0  0  0
 21 15  1  0  0  0  0
 22 24  2  0  0  0  0
 23 21  2  0  0  0  0
 24 21  1  0  0  0  0
 25 19  1  0  0  0  0
 26 27  1  0  0  0  0
 27 28  2  0  0  0  0
 28 30  1  0  0  0  0
 28 34  1  0  0  0  0
 29 30  2  0  0  0  0
 30 32  1  0  0  0  0
 32 31  1  0  0  0  0
 33 34  1  0  0  0  0
M  END
>  <MODEL>
2

>  <REMARK>
 VINA RESULT:      -8.3      0.999      1.600
  Name = 
  6 active torsions:
  status: ('A' for Active; 'I' for Inactive)
    1  A    between atoms: C_3  and  C_17
    2  A    between atoms: C_12  and  C_28
    3  A    between atoms: C_13  and  C_14
    4  A    between atoms: C_13  and  O_33
    5  A    between atoms: C_14  and  O_34
    6  A    between atoms: C_17  and  C_29
                            x       y       z     vdW  Elec       q    Type
                         _______ _______ _______ _____ _____    ______ ____

>  <TORSDO>
F 6

$$$$
=
 OpenBabel10272400033D

 34 38  0  0  1  0  0  0  0  0999 V2000
  185.1790  178.6520  141.6750 C   0  0  0  0  0  0  0  0  0  0  0  0
  186.9460  177.3500  142.8600 C   0  0  0  0  0  3  0  0  0  0  0  0
  187.3160  178.4490  140.5270 C   0  0  2  0  0  3  0  0  0  0  0  0
  189.1030  177.0540  139.4540 C   0  0  0  0  0  0  0  0  0  0  0  0
  184.4660  178.7420  144.0400 C   0  0  0  0  0  3  0  0  0  0  0  0
  185.5410  178.3160  144.6990 C   0  0  0  0  0  3  0  0  0  0  0  0
  189.5820  177.9420  141.5270 N   0  0  0  0  0  0  0  0  0  0  0  0
  186.4370  178.1710  141.7320 C   0  0  0  0  0  0  0  0  0  0  0  0
  190.6760  176.5370  139.7270 S   0  0  0  0  0  0  0  0  0  0  0  0
  184.1260  178.2760  142.6650 C   0  0  0  0  0  2  0  0  0  0  0  0
  186.5480  178.1950  139.2820 N   0  0  0  0  0  0  0  0  0  0  0  0
  184.7600  179.4660  140.4830 C   0  0  0  0  0  2  0  0  0  0  0  0
  186.5670  177.4160  144.1410 C   0  0  0  0  0  3  0  0  0  0  0  0
  188.2990  176.8590  138.2580 C   0  0  0  0  0  3  0  0  0  0  0  0
  187.0750  177.3970  138.1800 C   0  0  0  0  0  0  0  0  0  0  0  0
  190.7320  177.2910  141.2370 C   0  0  0  0  0  0  0  0  0  0  0  0
  188.6650  177.7850  140.5350 C   0  0  0  0  0  0  0  0  0  0  0  0
  185.1970  178.7770  139.1840 C   0  0  0  0  0  2  0  0  0  0  0  0
  184.5470  175.9110  135.7750 C   0  0  0  0  0  0  0  0  0  0  0  0
  184.8410  176.6100  134.6010 C   0  0  0  0  0  3  0  0  0  0  0  0
  186.2860  177.1390  136.9520 C   0  0  0  0  0  0  0  0  0  0  0  0
  185.8590  177.5670  134.5950 C   0  0  0  0  0  3  0  0  0  0  0  0
  185.2700  176.1720  136.9430 C   0  0  0  0  0  3  0  0  0  0  0  0
  186.5810  177.8270  135.7630 C   0  0  0  0  0  3  0  0  0  0  0  0
  183.5640  174.9800  135.7810 F   0  0  0  0  0  0  0  0  0  0  0  0
  191.9330  177.3220  142.1210 C   0  0  0  0  0  2  0  0  0  0  0  0
  191.5900  176.8270  143.4900 C   0  0  0  0  0  3  0  0  0  0  0  0
  191.5920  177.6140  144.5700 C   0  0  0  0  0  0  0  0  0  0  0  0
  190.0080  176.7080  146.0970 O   0  0  0  0  0  0  0  0  0  0  0  0
  191.2120  177.0250  145.8790 C   0  0  0  0  0  0  0  0  0  0  0  0
  192.3420  175.5400  147.4870 C   0  0  0  0  0  1  0  0  0  0  0  0
  192.1740  176.8060  146.8660 O   0  0  0  0  0  0  0  0  0  0  0  0
  191.0620  180.0070  144.0990 C   0  0  0  0  0  1  0  0  0  0  0  0
  191.9620  178.9590  144.4220 O   0  0  0  0  0  0  0  0  0  0  0  0
  1  8  2  0  0  0  0
  1 10  1  0  0  0  0
  2 13  2  0  0  0  0
  3 17  1  1  0  0  0
  3  8  1  0  0  0  0
  4  9  1  0  0  0  0
  4 17  2  0  0  0  0
  5  6  2  0  0  0  0
  8  2  1  0  0  0  0
  9 16  1  0  0  0  0
 10  5  1  0  0  0  0
 11  3  1  0  0  0  0
 12  1  1  0  0  0  0
 13  6  1  0  0  0  0
 14  4  1  0  0  0  0
 15 14  2  0  0  0  0
 15 11  1  0  0  0  0
 16  7  2  0  0  0  0
 16 26  1  0  0  0  0
 17  7  1  0  0  0  0
 18 11  1  0  0  0  0
 18 12  1  0  0  0  0
 19 25  1  0  0  0  0
 19 23  1  0  0  0  0
 20 19  2  0  0  0  0
 21 15  1  0  0  0  0
 22 20  1  0  0  0  0
 22 24  2  0  0  0  0
 23 21  2  0  0  0  0
 24 21  1  0  0  0  0
 26 27  1  0  0  0  0
 27 28  2  0  0  0  0
 28 30  1  0  0  0  0
 30 29  2  0  0  0  0
 30 32  1  0  0  0  0
 32 31  1  0  0  0  0
 33 34  1  0  0  0  0
 34 28  1  0  0  0  0
M  END
>  <MODEL>
3

>  <REMARK>
 VINA RESULT:      -8.1      1.093      1.666
  Name = 
  6 active torsions:
  status: ('A' for Active; 'I' for Inactive)
    1  A    between atoms: C_3  and  C_17
    2  A    between atoms: C_12  and  C_28
    3  A    between atoms: C_13  and  C_14
    4  A    between atoms: C_13  and  O_33
    5  A    between atoms: C_14  and  O_34
    6  A    between atoms: C_17  and  C_29
                            x       y       z     vdW  Elec       q    Type
                         _______ _______ _______ _____ _____    ______ ____

>  <TORSDO>
F 6

$$$$
=
 OpenBabel10272400033D

 34 38  0  0  1  0  0  0  0  0999 V2000
  190.4950  176.4290  145.0550 C   0  0  0  0  0  0  0  0  0  0  0  0
  188.7500  178.1600  145.4840 C   0  0  0  0  0  3  0  0  0  0  0  0
  188.7700  176.6610  143.3540 C   0  0  2  0  0  3  0  0  0  0  0  0
  187.5700  178.0200  141.6200 C   0  0  0  0  0  0  0  0  0  0  0  0
  190.5860  176.7380  147.5060 C   0  0  0  0  0  3  0  0  0  0  0  0
  189.4750  177.4230  147.7690 C   0  0  0  0  0  3  0  0  0  0  0  0
  186.4550  177.6440  143.6030 N   0  0  0  0  0  0  0  0  0  0  0  0
  189.3650  177.0670  144.6880 C   0  0  0  0  0  0  0  0  0  0  0  0
  186.0940  178.7760  141.3670 S   0  0  0  0  0  0  0  0  0  0  0  0
  191.3260  176.8650  146.2170 C   0  0  0  0  0  2  0  0  0  0  0  0
  189.8490  176.5540  142.3400 N   0  0  0  0  0  0  0  0  0  0  0  0
  191.0410  175.3420  144.1740 C   0  0  0  0  0  2  0  0  0  0  0  0
  188.7890  178.3120  146.8130 C   0  0  0  0  0  3  0  0  0  0  0  0
  188.6610  177.8620  140.6720 C   0  0  0  0  0  3  0  0  0  0  0  0
  189.7530  177.1690  141.0200 C   0  0  0  0  0  0  0  0  0  0  0  0
  185.5410  178.3620  142.9080 C   0  0  0  0  0  0  0  0  0  0  0  0
  187.5970  177.4770  142.8850 C   0  0  0  0  0  0  0  0  0  0  0  0
  191.0600  175.7990  142.7100 C   0  0  0  0  0  2  0  0  0  0  0  0
  191.6570  176.4080  137.8290 C   0  0  0  0  0  0  0  0  0  0  0  0
  192.9470  176.8200  138.1740 C   0  0  0  0  0  3  0  0  0  0  0  0
  190.8490  177.0680  140.0270 C   0  0  0  0  0  0  0  0  0  0  0  0
  193.1950  177.3490  139.4430 C   0  0  0  0  0  3  0  0  0  0  0  0
  190.6150  176.5270  138.7530 C   0  0  0  0  0  3  0  0  0  0  0  0
  192.1520  177.4680  140.3660 C   0  0  0  0  0  3  0  0  0  0  0  0
  191.4160  175.8910  136.6010 F   0  0  0  0  0  0  0  0  0  0  0  0
  184.1750  178.6650  143.4250 C   0  0  0  0  0  2  0  0  0  0  0  0
  183.1910  178.7240  142.3010 C   0  0  0  0  0  3  0  0  0  0  0  0
  181.8730  178.8420  142.4920 C   0  0  0  0  0  0  0  0  0  0  0  0
  180.8420  177.8990  140.5670 O   0  0  0  0  0  0  0  0  0  0  0  0
  180.9870  178.9150  141.3040 C   0  0  0  0  0  0  0  0  0  0  0  0
  180.4270  180.7320  139.7370 C   0  0  0  0  0  1  0  0  0  0  0  0
  180.3020  180.0930  140.9990 O   0  0  0  0  0  0  0  0  0  0  0  0
  180.0670  178.5160  144.1850 C   0  0  0  0  0  1  0  0  0  0  0  0
  181.3850  178.8830  143.8080 O   0  0  0  0  0  0  0  0  0  0  0  0
  1 10  1  0  0  0  0
  2 13  2  0  0  0  0
  3 17  1  6  0  0  0
  3  8  1  0  0  0  0
  4 17  2  0  0  0  0
  5  6  2  0  0  0  0
  8  1  2  0  0  0  0
  8  2  1  0  0  0  0
  9  4  1  0  0  0  0
  9 16  1  0  0  0  0
 10  5  1  0  0  0  0
 11 18  1  0  0  0  0
 11  3  1  0  0  0  0
 12  1  1  0  0  0  0
 13  6  1  0  0  0  0
 14 15  2  0  0  0  0
 14  4  1  0  0  0  0
 15 11  1  0  0  0  0
 16 26  1  0  0  0  0
 16  7  2  0  0  0  0
 17  7  1  0  0  0  0
 18 12  1  0  0  0  0
 19 20  2  0  0  0  0
 19 23  1  0  0  0  0
 20 22  1  0  0  0  0
 21 24  1  0  0  0  0
 21 15  1  0  0  0  0
 22 24  2  0  0  0  0
 23 21  2  0  0  0  0
 25 19  1  0  0  0  0
 27 28  2  0  0  0  0
 27 26  1  0  0  0  0
 28 34  1  0  0  0  0
 29 30  2  0  0  0  0
 30 28  1  0  0  0  0
 31 32  1  0  0  0  0
 32 30  1  0  0  0  0
 34 33  1  0  0  0  0
M  END
>  <MODEL>
4

>  <REMARK>
 VINA RESULT:      -8.0      4.321      7.406
  Name = 
  6 active torsions:
  status: ('A' for Active; 'I' for Inactive)
    1  A    between atoms: C_3  and  C_17
    2  A    between atoms: C_12  and  C_28
    3  A    between atoms: C_13  and  C_14
    4  A    between atoms: C_13  and  O_33
    5  A    between atoms: C_14  and  O_34
    6  A    between atoms: C_17  and  C_29
                            x       y       z     vdW  Elec       q    Type
                         _______ _______ _______ _____ _____    ______ ____

>  <TORSDO>
F 6

$$$$
=
 OpenBabel10272400033D

 34 38  0  0  1  0  0  0  0  0999 V2000
  190.9260  177.2550  140.0380 C   0  0  0  0  0  0  0  0  0  0  0  0
  188.6420  176.7900  139.1490 C   0  0  0  0  0  3  0  0  0  0  0  0
  189.0760  178.2980  141.2280 C   0  0  2  0  0  3  0  0  0  0  0  0
  186.9650  178.1360  142.5720 C   0  0  0  0  0  0  0  0  0  0  0  0
  191.3490  176.5990  137.6930 C   0  0  0  0  0  3  0  0  0  0  0  0
  190.1380  176.6410  137.1410 C   0  0  0  0  0  3  0  0  0  0  0  0
  186.7490  178.7890  140.3710 N   0  0  0  0  0  0  0  0  0  0  0  0
  189.5920  177.4380  140.0900 C   0  0  0  0  0  0  0  0  0  0  0  0
  185.3150  178.4030  142.4220 S   0  0  0  0  0  0  0  0  0  0  0  0
  191.5700  176.2600  139.1290 C   0  0  0  0  0  2  0  0  0  0  0  0
  189.7590  177.9150  142.4890 N   0  0  0  0  0  0  0  0  0  0  0  0
  191.7990  177.9500  141.0440 C   0  0  0  0  0  2  0  0  0  0  0  0
  188.8730  176.4530  137.8750 C   0  0  0  0  0  3  0  0  0  0  0  0
  187.7010  177.7770  143.7740 C   0  0  0  0  0  3  0  0  0  0  0  0
  189.0350  177.6640  143.7310 C   0  0  0  0  0  0  0  0  0  0  0  0
  185.4650  178.8300  140.7950 C   0  0  0  0  0  0  0  0  0  0  0  0
  187.5810  178.3760  141.3640 C   0  0  0  0  0  0  0  0  0  0  0  0
  191.2260  177.7810  142.4570 C   0  0  0  0  0  2  0  0  0  0  0  0
  189.9080  177.2930  147.4030 C   0  0  0  0  0  0  0  0  0  0  0  0
  191.0940  176.5580  147.3310 C   0  0  0  0  0  3  0  0  0  0  0  0
  189.7310  177.2640  144.9770 C   0  0  0  0  0  0  0  0  0  0  0  0
  191.6060  176.1790  146.0870 C   0  0  0  0  0  3  0  0  0  0  0  0
  189.2340  177.6490  146.2320 C   0  0  0  0  0  3  0  0  0  0  0  0
  190.9300  176.5350  144.9160 C   0  0  0  0  0  3  0  0  0  0  0  0
  189.4140  177.6650  148.6080 F   0  0  0  0  0  0  0  0  0  0  0  0
  184.3350  179.2900  139.9350 C   0  0  0  0  0  2  0  0  0  0  0  0
  183.5710  178.1190  139.4040 C   0  0  0  0  0  3  0  0  0  0  0  0
  183.8860  177.5010  138.2620 C   0  0  0  0  0  0  0  0  0  0  0  0
  182.1620  176.4830  136.9770 O   0  0  0  0  0  0  0  0  0  0  0  0
  183.0740  176.3330  137.8390 C   0  0  0  0  0  0  0  0  0  0  0  0
  184.1440  174.1170  137.7210 C   0  0  0  0  0  1  0  0  0  0  0  0
  183.3160  175.0670  138.3750 O   0  0  0  0  0  0  0  0  0  0  0  0
  185.5820  177.2840  136.4420 C   0  0  0  0  0  1  0  0  0  0  0  0
  184.9650  177.9890  137.5090 O   0  0  0  0  0  0  0  0  0  0  0  0
  1  8  2  0  0  0  0
  1 12  1  0  0  0  0
  2  8  1  0  0  0  0
  3  8  1  6  0  0  0
  3 17  1  0  0  0  0
  3 11  1  0  0  0  0
  4 14  1  0  0  0  0
  5 10  1  0  0  0  0
  6  5  2  0  0  0  0
  6 13  1  0  0  0  0
  7 16  2  0  0  0  0
  7 17  1  0  0  0  0
  9  4  1  0  0  0  0
 10  1  1  0  0  0  0
 11 15  1  0  0  0  0
 12 18  1  0  0  0  0
 13  2  2  0  0  0  0
 15 14  2  0  0  0  0
 15 21  1  0  0  0  0
 16  9  1  0  0  0  0
 17  4  2  0  0  0  0
 18 11  1  0  0  0  0
 19 25  1  0  0  0  0
 20 19  1  0  0  0  0
 21 23  1  0  0  0  0
 22 20  2  0  0  0  0
 23 19  2  0  0  0  0
 24 21  2  0  0  0  0
 24 22  1  0  0  0  0
 26 16  1  0  0  0  0
 27 26  1  0  0  0  0
 28 27  2  0  0  0  0
 29 30  2  0  0  0  0
 30 28  1  0  0  0  0
 30 32  1  0  0  0  0
 31 32  1  0  0  0  0
 33 34  1  0  0  0  0
 34 28  1  0  0  0  0
M  END
>  <MODEL>
5

>  <REMARK>
 VINA RESULT:      -8.0      4.439      8.837
  Name = 
  6 active torsions:
  status: ('A' for Active; 'I' for Inactive)
    1  A    between atoms: C_3  and  C_17
    2  A    between atoms: C_12  and  C_28
    3  A    between atoms: C_13  and  C_14
    4  A    between atoms: C_13  and  O_33
    5  A    between atoms: C_14  and  O_34
    6  A    between atoms: C_17  and  C_29
                            x       y       z     vdW  Elec       q    Type
                         _______ _______ _______ _____ _____    ______ ____

>  <TORSDO>
F 6

$$$$
=
 OpenBabel10272400033D

 34 38  0  0  1  0  0  0  0  0999 V2000
  189.8240  177.0880  146.3760 C   0  0  0  0  0  0  0  0  0  0  0  0
  191.0350  175.8170  144.6030 C   0  0  0  0  0  3  0  0  0  0  0  0
  189.6370  177.9590  144.1100 C   0  0  2  0  0  3  0  0  0  0  0  0
  188.9280  177.7080  141.7180 C   0  0  0  0  0  0  0  0  0  0  0  0
  191.5560  175.8560  147.6370 C   0  0  0  0  0  3  0  0  0  0  0  0
  192.3770  175.4210  146.6840 C   0  0  0  0  0  3  0  0  0  0  0  0
  191.1870  177.5630  142.1540 N   0  0  0  0  0  0  0  0  0  0  0  0
  190.1930  176.9410  145.0880 C   0  0  0  0  0  0  0  0  0  0  0  0
  189.5900  177.4980  140.1900 S   0  0  0  0  0  0  0  0  0  0  0  0
  190.0940  176.0500  147.4160 C   0  0  0  0  0  2  0  0  0  0  0  0
  188.1930  178.1720  144.3830 N   0  0  0  0  0  0  0  0  0  0  0  0
  188.9620  178.2560  146.7610 C   0  0  0  0  0  2  0  0  0  0  0  0
  191.9820  175.1650  145.2870 C   0  0  0  0  0  3  0  0  0  0  0  0
  187.5320  177.9390  142.0570 C   0  0  0  0  0  3  0  0  0  0  0  0
  187.1810  178.1520  143.3320 C   0  0  0  0  0  0  0  0  0  0  0  0
  191.1590  177.4160  140.8090 C   0  0  0  0  0  0  0  0  0  0  0  0
  189.9330  177.7020  142.6590 C   0  0  0  0  0  0  0  0  0  0  0  0
  187.7900  178.4030  145.7820 C   0  0  0  0  0  2  0  0  0  0  0  0
  183.4410  178.5760  142.8680 C   0  0  0  0  0  0  0  0  0  0  0  0
  183.0230  178.7880  144.1840 C   0  0  0  0  0  3  0  0  0  0  0  0
  185.7420  178.3490  143.6250 C   0  0  0  0  0  0  0  0  0  0  0  0
  183.9590  178.7880  145.2220 C   0  0  0  0  0  3  0  0  0  0  0  0
  184.7950  178.3630  142.5900 C   0  0  0  0  0  3  0  0  0  0  0  0
  185.3120  178.5740  144.9430 C   0  0  0  0  0  3  0  0  0  0  0  0
  182.5360  178.5810  141.8610 F   0  0  0  0  0  0  0  0  0  0  0  0
  192.3890  177.2880  139.9750 C   0  0  0  0  0  2  0  0  0  0  0  0
  192.0390  176.8570  138.5860 C   0  0  0  0  0  3  0  0  0  0  0  0
  192.8700  176.1560  137.8090 C   0  0  0  0  0  0  0  0  0  0  0  0
  193.0460  176.1590  135.4370 O   0  0  0  0  0  0  0  0  0  0  0  0
  192.4120  175.7600  136.4540 C   0  0  0  0  0  0  0  0  0  0  0  0
  191.3420  173.5430  136.5410 C   0  0  0  0  0  1  0  0  0  0  0  0
  191.2930  174.9400  136.2930 O   0  0  0  0  0  0  0  0  0  0  0  0
  194.7890  174.5850  138.1030 C   0  0  0  0  0  1  0  0  0  0  0  0
  194.1430  175.8330  138.3050 O   0  0  0  0  0  0  0  0  0  0  0  0
  1 12  1  0  0  0  0
  1 10  1  0  0  0  0
  2  8  1  0  0  0  0
  2 13  2  0  0  0  0
  3 17  1  6  0  0  0
  3 11  1  0  0  0  0
  3  8  1  0  0  0  0
  4 14  1  0  0  0  0
  4 17  2  0  0  0  0
  6  5  2  0  0  0  0
  7 17  1  0  0  0  0
  8  1  2  0  0  0  0
  9 16  1  0  0  0  0
  9  4  1  0  0  0  0
 10  5  1  0  0  0  0
 11 18  1  0  0  0  0
 13  6  1  0  0  0  0
 14 15  2  0  0  0  0
 15 21  1  0  0  0  0
 15 11  1  0  0  0  0
 16  7  2  0  0  0  0
 18 12  1  0  0  0  0
 19 20  1  0  0  0  0
 20 22  2  0  0  0  0
 21 24  2  0  0  0  0
 23 19  2  0  0  0  0
 23 21  1  0  0  0  0
 24 22  1  0  0  0  0
 25 19  1  0  0  0  0
 26 16  1  0  0  0  0
 27 26  1  0  0  0  0
 28 34  1  0  0  0  0
 28 27  2  0  0  0  0
 29 30  2  0  0  0  0
 30 28  1  0  0  0  0
 32 30  1  0  0  0  0
 32 31  1  0  0  0  0
 33 34  1  0  0  0  0
M  END
>  <MODEL>
6

>  <REMARK>
 VINA RESULT:      -7.7      4.131      7.098
  Name = 
  6 active torsions:
  status: ('A' for Active; 'I' for Inactive)
    1  A    between atoms: C_3  and  C_17
    2  A    between atoms: C_12  and  C_28
    3  A    between atoms: C_13  and  C_14
    4  A    between atoms: C_13  and  O_33
    5  A    between atoms: C_14  and  O_34
    6  A    between atoms: C_17  and  C_29
                            x       y       z     vdW  Elec       q    Type
                         _______ _______ _______ _____ _____    ______ ____

>  <TORSDO>
F 6

$$$$
=
 OpenBabel10272400033D

 34 38  0  0  1  0  0  0  0  0999 V2000
  186.1440  178.2700  143.8520 C   0  0  0  0  0  0  0  0  0  0  0  0
  187.9330  176.9980  142.6660 C   0  0  0  0  0  3  0  0  0  0  0  0
  186.4540  178.7940  141.4950 C   0  0  2  0  0  3  0  0  0  0  0  0
  186.4420  178.1190  139.0800 C   0  0  0  0  0  0  0  0  0  0  0  0
  187.6230  177.5190  145.6850 C   0  0  0  0  0  3  0  0  0  0  0  0
  188.7160  177.1070  145.0460 C   0  0  0  0  0  3  0  0  0  0  0  0
  188.5050  178.4100  140.0680 N   0  0  0  0  0  0  0  0  0  0  0  0
  186.8570  178.0190  142.7350 C   0  0  0  0  0  0  0  0  0  0  0  0
  187.5060  177.8240  137.8160 S   0  0  0  0  0  0  0  0  0  0  0  0
  186.2600  177.4360  145.0860 C   0  0  0  0  0  2  0  0  0  0  0  0
  184.9750  178.7980  141.3700 N   0  0  0  0  0  0  0  0  0  0  0  0
  185.0700  179.3190  143.8140 C   0  0  0  0  0  2  0  0  0  0  0  0
  188.7410  176.6080  143.6590 C   0  0  0  0  0  3  0  0  0  0  0  0
  184.9890  178.1560  139.0270 C   0  0  0  0  0  3  0  0  0  0  0  0
  184.2890  178.4730  140.1240 C   0  0  0  0  0  0  0  0  0  0  0  0
  188.8530  178.0860  138.8010 C   0  0  0  0  0  0  0  0  0  0  0  0
  187.1540  178.4030  140.2230 C   0  0  0  0  0  0  0  0  0  0  0  0
  184.1900  179.1390  142.5700 C   0  0  0  0  0  2  0  0  0  0  0  0
  180.6820  177.3070  140.2520 C   0  0  0  0  0  0  0  0  0  0  0  0
  180.0120  178.4330  139.7640 C   0  0  0  0  0  3  0  0  0  0  0  0
  182.8100  178.4630  140.0220 C   0  0  0  0  0  0  0  0  0  0  0  0
  180.7350  179.5720  139.3980 C   0  0  0  0  0  3  0  0  0  0  0  0
  182.0740  177.3220  140.3750 C   0  0  0  0  0  3  0  0  0  0  0  0
  182.1280  179.5850  139.5230 C   0  0  0  0  0  3  0  0  0  0  0  0
  179.9830  176.2020  140.6010 F   0  0  0  0  0  0  0  0  0  0  0  0
  190.2660  178.0570  138.3240 C   0  0  0  0  0  2  0  0  0  0  0  0
  190.7580  176.6480  138.2270 C   0  0  0  0  0  3  0  0  0  0  0  0
  190.7880  175.9640  137.0790 C   0  0  0  0  0  0  0  0  0  0  0  0
  190.5580  173.6190  137.4140 O   0  0  0  0  0  0  0  0  0  0  0  0
  191.3170  174.5770  137.0920 C   0  0  0  0  0  0  0  0  0  0  0  0
  193.0940  173.0160  136.4040 C   0  0  0  0  0  1  0  0  0  0  0  0
  192.6440  174.3190  136.7410 O   0  0  0  0  0  0  0  0  0  0  0  0
  189.9410  175.8900  134.7320 C   0  0  0  0  0  1  0  0  0  0  0  0
  190.3090  176.5830  135.9140 O   0  0  0  0  0  0  0  0  0  0  0  0
  1 10  1  0  0  0  0
  2  8  1  0  0  0  0
  2 13  2  0  0  0  0
  3 17  1  6  0  0  0
  3  8  1  0  0  0  0
  4 17  2  0  0  0  0
  6  5  2  0  0  0  0
  7 17  1  0  0  0  0
  8  1  2  0  0  0  0
  9 16  1  0  0  0  0
  9  4  1  0  0  0  0
 10  5  1  0  0  0  0
 11  3  1  0  0  0  0
 11 18  1  0  0  0  0
 12  1  1  0  0  0  0
 13  6  1  0  0  0  0
 14  4  1  0  0  0  0
 14 15  2  0  0  0  0
 15 11  1  0  0  0  0
 16  7  2  0  0  0  0
 18 12  1  0  0  0  0
 19 23  1  0  0  0  0
 19 25  1  0  0  0  0
 20 19  2  0  0  0  0
 21 15  1  0  0  0  0
 21 23  2  0  0  0  0
 22 24  2  0  0  0  0
 22 20  1  0  0  0  0
 24 21  1  0  0  0  0
 26 16  1  0  0  0  0
 27 26  1  0  0  0  0
 28 30  1  0  0  0  0
 28 27  2  0  0  0  0
 30 29  2  0  0  0  0
 31 32  1  0  0  0  0
 32 30  1  0  0  0  0
 33 34  1  0  0  0  0
 34 28  1  0  0  0  0
M  END
>  <MODEL>
7

>  <REMARK>
 VINA RESULT:      -7.4      3.868      6.152
  Name = 
  6 active torsions:
  status: ('A' for Active; 'I' for Inactive)
    1  A    between atoms: C_3  and  C_17
    2  A    between atoms: C_12  and  C_28
    3  A    between atoms: C_13  and  C_14
    4  A    between atoms: C_13  and  O_33
    5  A    between atoms: C_14  and  O_34
    6  A    between atoms: C_17  and  C_29
                            x       y       z     vdW  Elec       q    Type
                         _______ _______ _______ _____ _____    ______ ____

>  <TORSDO>
F 6

$$$$
=
 OpenBabel10272400033D

 34 38  0  0  1  0  0  0  0  0999 V2000
  186.9510  177.1790  135.6110 C   0  0  0  0  0  0  0  0  0  0  0  0
  185.4580  176.9900  137.6010 C   0  0  0  0  0  3  0  0  0  0  0  0
  187.8760  177.9490  137.7270 C   0  0  2  0  0  3  0  0  0  0  0  0
  188.6000  177.5180  140.0890 C   0  0  0  0  0  0  0  0  0  0  0  0
  184.6880  177.0920  134.6210 C   0  0  0  0  0  3  0  0  0  0  0  0
  183.8890  177.2910  135.6680 C   0  0  0  0  0  3  0  0  0  0  0  0
  186.6310  178.6810  139.8010 N   0  0  0  0  0  0  0  0  0  0  0  0
  186.7250  177.3740  136.9260 C   0  0  0  0  0  0  0  0  0  0  0  0
  188.1290  177.8500  141.6650 S   0  0  0  0  0  0  0  0  0  0  0  0
  186.0120  176.4160  134.7350 C   0  0  0  0  0  2  0  0  0  0  0  0
  189.1370  177.2620  137.3490 N   0  0  0  0  0  0  0  0  0  0  0  0
  188.2710  177.5950  135.0270 C   0  0  0  0  0  2  0  0  0  0  0  0
  184.2330  176.9610  137.0630 C   0  0  0  0  0  3  0  0  0  0  0  0
  189.8230  176.8680  139.6460 C   0  0  0  0  0  3  0  0  0  0  0  0
  190.0750  176.7380  138.3370 C   0  0  0  0  0  0  0  0  0  0  0  0
  186.7330  178.6490  141.1500 C   0  0  0  0  0  0  0  0  0  0  0  0
  187.6660  178.0250  139.2140 C   0  0  0  0  0  0  0  0  0  0  0  0
  189.4250  177.1070  135.9120 C   0  0  0  0  0  2  0  0  0  0  0  0
  192.4540  174.0690  137.0710 C   0  0  0  0  0  0  0  0  0  0  0  0
  193.6910  174.6930  137.2570 C   0  0  0  0  0  3  0  0  0  0  0  0
  191.3200  176.0380  137.9420 C   0  0  0  0  0  0  0  0  0  0  0  0
  193.7480  175.9840  137.7900 C   0  0  0  0  0  3  0  0  0  0  0  0
  191.2750  174.7370  137.4170 C   0  0  0  0  0  3  0  0  0  0  0  0
  192.5690  176.6510  138.1340 C   0  0  0  0  0  3  0  0  0  0  0  0
  192.3970  172.8170  136.5600 F   0  0  0  0  0  0  0  0  0  0  0  0
  185.7620  179.3250  142.0590 C   0  0  0  0  0  2  0  0  0  0  0  0
  185.9110  178.8140  143.4570 C   0  0  0  0  0  3  0  0  0  0  0  0
  184.9880  179.0050  144.4040 C   0  0  0  0  0  0  0  0  0  0  0  0
  184.4780  178.7670  146.7160 O   0  0  0  0  0  0  0  0  0  0  0  0
  185.2260  178.4340  145.7540 C   0  0  0  0  0  0  0  0  0  0  0  0
  187.3180  177.7840  146.8800 C   0  0  0  0  0  1  0  0  0  0  0  0
  186.2620  177.5230  145.9670 O   0  0  0  0  0  0  0  0  0  0  0  0
  182.5890  179.1700  143.7310 C   0  0  0  0  0  1  0  0  0  0  0  0
  183.8380  179.7440  144.0840 O   0  0  0  0  0  0  0  0  0  0  0  0
  1  8  2  0  0  0  0
  3  8  1  6  0  0  0
  3 17  1  0  0  0  0
  4  9  1  0  0  0  0
  5 10  1  0  0  0  0
  5  6  2  0  0  0  0
  6 13  1  0  0  0  0
  7 16  2  0  0  0  0
  8  2  1  0  0  0  0
 10  1  1  0  0  0  0
 11  3  1  0  0  0  0
 11 15  1  0  0  0  0
 12  1  1  0  0  0  0
 12 18  1  0  0  0  0
 13  2  2  0  0  0  0
 14  4  1  0  0  0  0
 15 14  2  0  0  0  0
 16  9  1  0  0  0  0
 16 26  1  0  0  0  0
 17  7  1  0  0  0  0
 17  4  2  0  0  0  0
 18 11  1  0  0  0  0
 19 20  2  0  0  0  0
 19 23  1  0  0  0  0
 20 22  1  0  0  0  0
 21 24  1  0  0  0  0
 21 15  1  0  0  0  0
 22 24  2  0  0  0  0
 23 21  2  0  0  0  0
 25 19  1  0  0  0  0
 26 27  1  0  0  0  0
 27 28  2  0  0  0  0
 28 30  1  0  0  0  0
 30 32  1  0  0  0  0
 30 29  2  0  0  0  0
 32 31  1  0  0  0  0
 33 34  1  0  0  0  0
 34 28  1  0  0  0  0
M  END
>  <MODEL>
8

>  <REMARK>
 VINA RESULT:      -7.3      3.139      6.301
  Name = 
  6 active torsions:
  status: ('A' for Active; 'I' for Inactive)
    1  A    between atoms: C_3  and  C_17
    2  A    between atoms: C_12  and  C_28
    3  A    between atoms: C_13  and  C_14
    4  A    between atoms: C_13  and  O_33
    5  A    between atoms: C_14  and  O_34
    6  A    between atoms: C_17  and  C_29
                            x       y       z     vdW  Elec       q    Type
                         _______ _______ _______ _____ _____    ______ ____

>  <TORSDO>
F 6

$$$$
=
 OpenBabel10272400033D

 34 38  0  0  1  0  0  0  0  0999 V2000
  186.4660  178.3870  143.3380 C   0  0  0  0  0  0  0  0  0  0  0  0
  188.2650  176.7680  142.7320 C   0  0  0  0  0  3  0  0  0  0  0  0
  187.3960  178.6000  141.0980 C   0  0  2  0  0  3  0  0  0  0  0  0
  187.8460  177.6680  138.8140 C   0  0  0  0  0  0  0  0  0  0  0  0
  187.3410  177.6580  145.5310 C   0  0  0  0  0  3  0  0  0  0  0  0
  188.4770  177.0380  145.2170 C   0  0  0  0  0  3  0  0  0  0  0  0
  189.6390  177.7950  140.2560 N   0  0  0  0  0  0  0  0  0  0  0  0
  187.3730  177.9230  142.4550 C   0  0  0  0  0  0  0  0  0  0  0  0
  189.1180  177.0970  137.8790 S   0  0  0  0  0  0  0  0  0  0  0  0
  186.1600  177.6880  144.6220 C   0  0  0  0  0  2  0  0  0  0  0  0
  186.0060  178.7840  140.6100 N   0  0  0  0  0  0  0  0  0  0  0  0
  185.6050  179.5560  142.9550 C   0  0  0  0  0  2  0  0  0  0  0  0
  188.7490  176.3890  143.9210 C   0  0  0  0  0  3  0  0  0  0  0  0
  186.4690  177.8890  138.4000 C   0  0  0  0  0  3  0  0  0  0  0  0
  185.5890  178.4140  139.2620 C   0  0  0  0  0  0  0  0  0  0  0  0
  190.2200  177.2890  139.1440 C   0  0  0  0  0  0  0  0  0  0  0  0
  188.3060  177.9820  140.0730 C   0  0  0  0  0  0  0  0  0  0  0  0
  185.0240  179.3560  141.5490 C   0  0  0  0  0  2  0  0  0  0  0  0
  182.2450  179.9990  138.4300 C   0  0  0  0  0  0  0  0  0  0  0  0
  181.5210  178.8920  137.9790 C   0  0  0  0  0  3  0  0  0  0  0  0
  184.1920  178.5870  138.7980 C   0  0  0  0  0  0  0  0  0  0  0  0
  182.1240  177.6320  137.9410 C   0  0  0  0  0  3  0  0  0  0  0  0
  183.5720  179.8450  138.8430 C   0  0  0  0  0  3  0  0  0  0  0  0
  183.4510  177.4800  138.3530 C   0  0  0  0  0  3  0  0  0  0  0  0
  181.6600  181.2190  138.4720 F   0  0  0  0  0  0  0  0  0  0  0  0
  191.6840  177.0230  139.0350 C   0  0  0  0  0  2  0  0  0  0  0  0
  192.0320  176.5600  137.6560 C   0  0  0  0  0  3  0  0  0  0  0  0
  193.1880  175.9600  137.3590 C   0  0  0  0  0  0  0  0  0  0  0  0
  193.9350  176.3200  135.1290 O   0  0  0  0  0  0  0  0  0  0  0  0
  193.4220  175.5200  135.9610 C   0  0  0  0  0  0  0  0  0  0  0  0
  194.0710  173.2970  135.1200 C   0  0  0  0  0  1  0  0  0  0  0  0
  193.0890  174.2250  135.5580 O   0  0  0  0  0  0  0  0  0  0  0  0
  195.0140  174.6700  138.4720 C   0  0  0  0  0  1  0  0  0  0  0  0
  194.1350  175.7810  138.3800 O   0  0  0  0  0  0  0  0  0  0  0  0
  1 10  1  0  0  0  0
  2 13  2  0  0  0  0
  3 17  1  6  0  0  0
  3  8  1  0  0  0  0
  4 17  2  0  0  0  0
  6  5  2  0  0  0  0
  8  2  1  0  0  0  0
  8  1  2  0  0  0  0
  9  4  1  0  0  0  0
  9 16  1  0  0  0  0
 10  5  1  0  0  0  0
 11  3  1  0  0  0  0
 11 18  1  0  0  0  0
 12  1  1  0  0  0  0
 13  6  1  0  0  0  0
 14  4  1  0  0  0  0
 14 15  2  0  0  0  0
 15 11  1  0  0  0  0
 16  7  2  0  0  0  0
 17  7  1  0  0  0  0
 18 12  1  0  0  0  0
 19 25  1  0  0  0  0
 19 23  1  0  0  0  0
 20 19  2  0  0  0  0
 21 23  2  0  0  0  0
 21 15  1  0  0  0  0
 22 20  1  0  0  0  0
 22 24  2  0  0  0  0
 24 21  1  0  0  0  0
 26 16  1  0  0  0  0
 27 26  1  0  0  0  0
 28 27  2  0  0  0  0
 28 34  1  0  0  0  0
 29 30  2  0  0  0  0
 30 28  1  0  0  0  0
 31 32  1  0  0  0  0
 32 30  1  0  0  0  0
 34 33  1  0  0  0  0
M  END
>  <MODEL>
9

>  <REMARK>
 VINA RESULT:      -7.3      4.048      5.860
  Name = 
  6 active torsions:
  status: ('A' for Active; 'I' for Inactive)
    1  A    between atoms: C_3  and  C_17
    2  A    between atoms: C_12  and  C_28
    3  A    between atoms: C_13  and  C_14
    4  A    between atoms: C_13  and  O_33
    5  A    between atoms: C_14  and  O_34
    6  A    between atoms: C_17  and  C_29
                            x       y       z     vdW  Elec       q    Type
                         _______ _______ _______ _____ _____    ______ ____

>  <TORSDO>
F 6

$$$$
