=
 OpenBabel10272400453D

 25 29  0  0  1  0  0  0  0  0999 V2000
  185.9440  178.3800  142.9450 C   0  0  0  0  0  0  0  0  0  0  0  0
  186.9950  178.2750  142.0040 C   0  0  0  0  0  0  0  0  0  0  0  0
  184.3610  178.7140  141.1350 C   0  0  0  0  0  3  0  0  0  0  0  0
  185.3960  178.6200  140.2060 C   0  0  0  0  0  3  0  0  0  0  0  0
  184.6340  178.5920  142.4970 C   0  0  0  0  0  3  0  0  0  0  0  0
  186.7090  178.3990  140.6290 C   0  0  0  0  0  0  0  0  0  0  0  0
  186.1810  178.2550  144.3970 C   0  0  0  0  0  0  0  0  0  0  0  0
  186.7150  178.0010  147.1400 C   0  0  0  0  0  3  0  0  0  0  0  0
  185.2020  178.6160  145.3480 C   0  0  0  0  0  0  0  0  0  0  0  0
  185.4770  178.4860  146.7120 C   0  0  0  0  0  3  0  0  0  0  0  0
  187.6830  177.6340  146.2030 C   0  0  0  0  0  3  0  0  0  0  0  0
  183.8520  179.1050  144.9390 C   0  0  0  0  0  1  0  0  0  0  0  0
  187.4150  177.7570  144.8380 C   0  0  0  0  0  3  0  0  0  0  0  0
  187.7420  178.2950  139.6510 N   0  0  0  0  0  0  0  0  0  0  0  0
  188.4070  177.6110  138.5040 C   0  0  0  0  0  2  0  0  0  0  0  0
  188.9870  178.7690  138.9770 C   0  0  0  0  0  2  0  0  0  0  0  0
  188.3930  177.9670  142.4490 C   0  0  0  0  0  2  0  0  0  0  0  0
  190.1170  176.3810  141.5630 C   0  0  2  0  0  3  0  0  0  0  0  0
  189.8900  176.0360  142.9900 C   0  0  1  0  0  3  0  0  0  0  0  0
  191.1890  176.5710  142.5520 N   0  0  0  0  0  0  0  0  0  0  0  0
  188.7290  176.5150  142.1480 C   0  0  1  0  0  3  0  0  0  0  0  0
  191.5660  179.8200  144.5180 C   0  0  0  0  0  1  0  0  0  0  0  0
  191.4810  178.3670  144.2190 C   0  0  0  0  0  0  0  0  0  0  0  0
  191.6300  177.5070  145.1730 N   0  0  0  0  0  2  0  0  0  0  0  0
  191.2350  177.9350  142.8820 N   0  0  0  0  0  2  0  0  0  0  0  0
  1  7  1  0  0  0  0
  2 17  1  0  0  0  0
  2  1  2  0  0  0  0
  3  5  2  0  0  0  0
  4  6  2  0  0  0  0
  4  3  1  0  0  0  0
  5  1  1  0  0  0  0
  6  2  1  0  0  0  0
  7 13  2  0  0  0  0
  7  9  1  0  0  0  0
  9 10  2  0  0  0  0
 10  8  1  0  0  0  0
 11  8  2  0  0  0  0
 12  9  1  0  0  0  0
 13 11  1  0  0  0  0
 14  6  1  0  0  0  0
 15 16  1  0  0  0  0
 15 14  1  0  0  0  0
 16 14  1  0  0  0  0
 18 21  1  0  0  0  0
 18 20  1  1  0  0  0
 18 19  1  0  0  0  0
 19 20  1  1  0  0  0
 20 25  1  0  0  0  0
 21 17  1  1  0  0  0
 21 19  1  0  0  0  0
 23 22  1  0  0  0  0
 23 24  2  0  0  0  0
 25 23  1  0  0  0  0
M  END
>  <MODEL>
1

>  <REMARK>
 VINA RESULT:      -8.5      0.000      0.000
  Name = 
  5 active torsions:
  status: ('A' for Active; 'I' for Inactive)
    1  A    between atoms: C_1  and  C_5
    2  A    between atoms: C_3  and  C_16
    3  A    between atoms: N_13  and  C_24
    4  A    between atoms: N_15  and  N_25
    5  A    between atoms: C_16  and  C_23
                            x       y       z     vdW  Elec       q    Type
                         _______ _______ _______ _____ _____    ______ ____

>  <TORSDO>
F 5

$$$$
=
 OpenBabel10272400453D

 25 29  0  0  1  0  0  0  0  0999 V2000
  185.5560  178.3090  144.8780 C   0  0  0  0  0  0  0  0  0  0  0  0
  185.4330  178.2420  143.4710 C   0  0  0  0  0  0  0  0  0  0  0  0
  183.2060  178.8900  145.0550 C   0  0  0  0  0  3  0  0  0  0  0  0
  183.0830  178.8330  143.6670 C   0  0  0  0  0  3  0  0  0  0  0  0
  184.4370  178.6270  145.6560 C   0  0  0  0  0  3  0  0  0  0  0  0
  184.1850  178.5090  142.8720 C   0  0  0  0  0  0  0  0  0  0  0  0
  186.8360  178.0370  145.5630 C   0  0  0  0  0  0  0  0  0  0  0  0
  189.3030  177.4950  146.7860 C   0  0  0  0  0  3  0  0  0  0  0  0
  187.0640  178.4180  146.9030 C   0  0  0  0  0  0  0  0  0  0  0  0
  188.2960  178.1440  147.5040 C   0  0  0  0  0  3  0  0  0  0  0  0
  189.0800  177.1070  145.4640 C   0  0  0  0  0  3  0  0  0  0  0  0
  186.0060  179.0810  147.7210 C   0  0  0  0  0  1  0  0  0  0  0  0
  187.8500  177.3740  144.8570 C   0  0  0  0  0  3  0  0  0  0  0  0
  184.0200  178.4460  141.4560 N   0  0  0  0  0  0  0  0  0  0  0  0
  184.0000  179.0720  140.1020 C   0  0  0  0  0  2  0  0  0  0  0  0
  183.7390  177.7210  140.1820 C   0  0  0  0  0  2  0  0  0  0  0  0
  186.5940  177.8240  142.6180 C   0  0  0  0  0  2  0  0  0  0  0  0
  188.3670  179.0850  141.3780 C   0  0  2  0  0  3  0  0  0  0  0  0
  187.6010  178.2990  140.3770 C   0  0  1  0  0  3  0  0  0  0  0  0
  189.0130  177.9850  140.6440 N   0  0  0  0  0  0  0  0  0  0  0  0
  186.8800  178.8870  141.5700 C   0  0  1  0  0  3  0  0  0  0  0  0
  190.2730  175.3150  143.0620 C   0  0  0  0  0  1  0  0  0  0  0  0
  190.2740  176.4760  142.1340 C   0  0  0  0  0  0  0  0  0  0  0  0
  191.3740  177.1180  141.9140 N   0  0  0  0  0  2  0  0  0  0  0  0
  189.0610  176.8690  141.4940 N   0  0  0  0  0  2  0  0  0  0  0  0
  1  7  1  0  0  0  0
  1  5  1  0  0  0  0
  2  1  2  0  0  0  0
  3  5  2  0  0  0  0
  4  3  1  0  0  0  0
  6  2  1  0  0  0  0
  6  4  2  0  0  0  0
  7  9  1  0  0  0  0
  8 10  1  0  0  0  0
  9 10  2  0  0  0  0
  9 12  1  0  0  0  0
 11  8  2  0  0  0  0
 13 11  1  0  0  0  0
 13  7  2  0  0  0  0
 14  6  1  0  0  0  0
 15 16  1  0  0  0  0
 15 14  1  0  0  0  0
 16 14  1  0  0  0  0
 17  2  1  0  0  0  0
 18 20  1  1  0  0  0
 18 21  1  0  0  0  0
 19 20  1  1  0  0  0
 19 18  1  0  0  0  0
 19 21  1  0  0  0  0
 20 25  1  0  0  0  0
 21 17  1  1  0  0  0
 23 22  1  0  0  0  0
 24 23  2  0  0  0  0
 25 23  1  0  0  0  0
M  END
>  <MODEL>
2

>  <REMARK>
 VINA RESULT:      -8.5      1.610      3.329
  Name = 
  5 active torsions:
  status: ('A' for Active; 'I' for Inactive)
    1  A    between atoms: C_1  and  C_5
    2  A    between atoms: C_3  and  C_16
    3  A    between atoms: N_13  and  C_24
    4  A    between atoms: N_15  and  N_25
    5  A    between atoms: C_16  and  C_23
                            x       y       z     vdW  Elec       q    Type
                         _______ _______ _______ _____ _____    ______ ____

>  <TORSDO>
F 5

$$$$
=
 OpenBabel10272400453D

 25 29  0  0  1  0  0  0  0  0999 V2000
  185.8990  178.3100  145.4220 C   0  0  0  0  0  0  0  0  0  0  0  0
  186.1350  178.3960  144.0300 C   0  0  0  0  0  0  0  0  0  0  0  0
  183.5280  178.6630  145.0390 C   0  0  0  0  0  3  0  0  0  0  0  0
  183.7590  178.7570  143.6670 C   0  0  0  0  0  3  0  0  0  0  0  0
  184.5930  178.4390  145.9110 C   0  0  0  0  0  3  0  0  0  0  0  0
  185.0530  178.6220  143.1560 C   0  0  0  0  0  0  0  0  0  0  0  0
  186.9920  178.0710  146.3860 C   0  0  0  0  0  0  0  0  0  0  0  0
  189.1060  177.5620  148.1590 C   0  0  0  0  0  3  0  0  0  0  0  0
  187.1330  178.8390  147.5620 C   0  0  0  0  0  0  0  0  0  0  0  0
  188.1890  178.5780  148.4400 C   0  0  0  0  0  3  0  0  0  0  0  0
  188.9650  176.7940  147.0030 C   0  0  0  0  0  3  0  0  0  0  0  0
  186.1580  179.9100  147.9220 C   0  0  0  0  0  1  0  0  0  0  0  0
  187.9110  177.0460  146.1220 C   0  0  0  0  0  3  0  0  0  0  0  0
  185.2510  178.7100  141.7470 N   0  0  0  0  0  0  0  0  0  0  0  0
  184.7440  178.8000  140.3470 C   0  0  0  0  0  2  0  0  0  0  0  0
  186.1100  178.7830  140.5280 C   0  0  0  0  0  2  0  0  0  0  0  0
  187.5100  178.1810  143.4720 C   0  0  0  0  0  2  0  0  0  0  0  0
  188.7020  176.6920  141.8480 C   0  0  2  0  0  3  0  0  0  0  0  0
  188.9950  176.1830  143.2130 C   0  0  1  0  0  3  0  0  0  0  0  0
  190.0700  176.7510  142.3850 N   0  0  0  0  0  0  0  0  0  0  0  0
  187.6340  176.7710  142.9150 C   0  0  1  0  0  3  0  0  0  0  0  0
  191.4000  179.7450  144.3430 C   0  0  0  0  0  1  0  0  0  0  0  0
  191.1380  178.3380  143.9450 C   0  0  0  0  0  0  0  0  0  0  0  0
  191.6650  177.3720  144.6230 N   0  0  0  0  0  2  0  0  0  0  0  0
  190.3070  178.0660  142.8180 N   0  0  0  0  0  2  0  0  0  0  0  0
  1  5  1  0  0  0  0
  1  7  1  0  0  0  0
  2  1  2  0  0  0  0
  3  5  2  0  0  0  0
  4  3  1  0  0  0  0
  6  4  2  0  0  0  0
  6  2  1  0  0  0  0
  7  9  1  0  0  0  0
  8 10  1  0  0  0  0
  9 12  1  0  0  0  0
  9 10  2  0  0  0  0
 11  8  2  0  0  0  0
 13  7  2  0  0  0  0
 13 11  1  0  0  0  0
 14  6  1  0  0  0  0
 15 16  1  0  0  0  0
 15 14  1  0  0  0  0
 16 14  1  0  0  0  0
 17  2  1  0  0  0  0
 18 20  1  1  0  0  0
 18 21  1  0  0  0  0
 18 19  1  0  0  0  0
 19 20  1  1  0  0  0
 20 25  1  0  0  0  0
 21 19  1  0  0  0  0
 21 17  1  1  0  0  0
 23 22  1  0  0  0  0
 23 24  2  0  0  0  0
 25 23  1  0  0  0  0
M  END
>  <MODEL>
3

>  <REMARK>
 VINA RESULT:      -8.5      1.433      2.550
  Name = 
  5 active torsions:
  status: ('A' for Active; 'I' for Inactive)
    1  A    between atoms: C_1  and  C_5
    2  A    between atoms: C_3  and  C_16
    3  A    between atoms: N_13  and  C_24
    4  A    between atoms: N_15  and  N_25
    5  A    between atoms: C_16  and  C_23
                            x       y       z     vdW  Elec       q    Type
                         _______ _______ _______ _____ _____    ______ ____

>  <TORSDO>
F 5

$$$$
=
 OpenBabel10272400453D

 25 29  0  0  1  0  0  0  0  0999 V2000
  185.1950  178.5180  143.9830 C   0  0  0  0  0  0  0  0  0  0  0  0
  186.4260  178.1670  144.5830 C   0  0  0  0  0  0  0  0  0  0  0  0
  184.1760  178.6910  146.1790 C   0  0  0  0  0  3  0  0  0  0  0  0
  185.3860  178.3370  146.7740 C   0  0  0  0  0  3  0  0  0  0  0  0
  184.0820  178.7830  144.7910 C   0  0  0  0  0  3  0  0  0  0  0  0
  186.5110  178.0770  145.9870 C   0  0  0  0  0  0  0  0  0  0  0  0
  185.0450  178.6310  142.5180 C   0  0  0  0  0  0  0  0  0  0  0  0
  184.8480  178.8360  139.7270 C   0  0  0  0  0  3  0  0  0  0  0  0
  183.7790  178.6270  141.8930 C   0  0  0  0  0  0  0  0  0  0  0  0
  183.6910  178.7290  140.5020 C   0  0  0  0  0  3  0  0  0  0  0  0
  186.1020  178.8500  140.3400 C   0  0  0  0  0  3  0  0  0  0  0  0
  182.5140  178.5520  142.6820 C   0  0  0  0  0  1  0  0  0  0  0  0
  186.1980  178.7510  141.7300 C   0  0  0  0  0  3  0  0  0  0  0  0
  187.7370  177.7300  146.6290 N   0  0  0  0  0  0  0  0  0  0  0  0
  188.6820  176.7370  147.2180 C   0  0  0  0  0  2  0  0  0  0  0  0
  189.0630  178.0620  147.2300 C   0  0  0  0  0  2  0  0  0  0  0  0
  187.6540  177.9570  143.7480 C   0  0  0  0  0  2  0  0  0  0  0  0
  188.8220  176.2740  142.3080 C   0  0  2  0  0  3  0  0  0  0  0  0
  189.2110  175.9980  143.7150 C   0  0  1  0  0  3  0  0  0  0  0  0
  190.2140  176.4670  142.7460 N   0  0  0  0  0  0  0  0  0  0  0  0
  187.8110  176.4820  143.4120 C   0  0  1  0  0  3  0  0  0  0  0  0
  191.4360  179.7810  144.1910 C   0  0  0  0  0  1  0  0  0  0  0  0
  191.2120  178.3200  144.0340 C   0  0  0  0  0  0  0  0  0  0  0  0
  191.7420  177.4970  144.8770 N   0  0  0  0  0  2  0  0  0  0  0  0
  190.4140  177.8410  142.9520 N   0  0  0  0  0  2  0  0  0  0  0  0
  1  2  2  0  0  0  0
  1  5  1  0  0  0  0
  2  6  1  0  0  0  0
  3  4  1  0  0  0  0
  5  3  2  0  0  0  0
  6 14  1  0  0  0  0
  6  4  2  0  0  0  0
  7  1  1  0  0  0  0
  8 11  2  0  0  0  0
  8 10  1  0  0  0  0
  9  7  1  0  0  0  0
  9 12  1  0  0  0  0
 10  9  2  0  0  0  0
 11 13  1  0  0  0  0
 13  7  2  0  0  0  0
 14 15  1  0  0  0  0
 14 16  1  0  0  0  0
 15 16  1  0  0  0  0
 17  2  1  0  0  0  0
 18 20  1  1  0  0  0
 18 21  1  0  0  0  0
 18 19  1  0  0  0  0
 19 20  1  1  0  0  0
 20 25  1  0  0  0  0
 21 19  1  0  0  0  0
 21 17  1  1  0  0  0
 23 22  1  0  0  0  0
 23 24  2  0  0  0  0
 25 23  1  0  0  0  0
M  END
>  <MODEL>
4

>  <REMARK>
 VINA RESULT:      -8.2      1.504      4.444
  Name = 
  5 active torsions:
  status: ('A' for Active; 'I' for Inactive)
    1  A    between atoms: C_1  and  C_5
    2  A    between atoms: C_3  and  C_16
    3  A    between atoms: N_13  and  C_24
    4  A    between atoms: N_15  and  N_25
    5  A    between atoms: C_16  and  C_23
                            x       y       z     vdW  Elec       q    Type
                         _______ _______ _______ _____ _____    ______ ____

>  <TORSDO>
F 5

$$$$
=
 OpenBabel10272400453D

 25 29  0  0  1  0  0  0  0  0999 V2000
  188.3370  177.6380  145.1280 C   0  0  0  0  0  0  0  0  0  0  0  0
  187.0850  177.9930  144.5730 C   0  0  0  0  0  0  0  0  0  0  0  0
  187.4970  178.1590  147.3450 C   0  0  0  0  0  3  0  0  0  0  0  0
  186.2650  178.5170  146.8000 C   0  0  0  0  0  3  0  0  0  0  0  0
  188.5270  177.7200  146.5130 C   0  0  0  0  0  3  0  0  0  0  0  0
  186.0510  178.4350  145.4220 C   0  0  0  0  0  0  0  0  0  0  0  0
  189.4570  177.1660  144.2900 C   0  0  0  0  0  0  0  0  0  0  0  0
  191.5370  176.1970  142.6750 C   0  0  0  0  0  3  0  0  0  0  0  0
  190.5870  177.9700  144.0290 C   0  0  0  0  0  0  0  0  0  0  0  0
  191.6180  177.4790  143.2230 C   0  0  0  0  0  3  0  0  0  0  0  0
  190.4260  175.3930  142.9380 C   0  0  0  0  0  3  0  0  0  0  0  0
  190.7360  179.3320  144.6210 C   0  0  0  0  0  1  0  0  0  0  0  0
  189.3920  175.8750  143.7450 C   0  0  0  0  0  3  0  0  0  0  0  0
  184.7740  178.7960  144.8990 N   0  0  0  0  0  0  0  0  0  0  0  0
  183.9020  179.5610  143.9600 C   0  0  0  0  0  2  0  0  0  0  0  0
  183.2840  178.7130  144.8540 C   0  0  0  0  0  2  0  0  0  0  0  0
  186.8280  177.8380  143.1030 C   0  0  0  0  0  2  0  0  0  0  0  0
  187.9050  177.9970  140.8490 C   0  0  2  0  0  3  0  0  0  0  0  0
  187.5410  179.3760  141.2640 C   0  0  1  0  0  3  0  0  0  0  0  0
  186.8760  178.7470  140.1120 N   0  0  0  0  0  0  0  0  0  0  0  0
  188.0020  178.3830  142.3070 C   0  0  1  0  0  3  0  0  0  0  0  0
  183.1030  178.3500  140.5240 C   0  0  0  0  0  1  0  0  0  0  0  0
  184.4130  178.9010  140.0910 C   0  0  0  0  0  0  0  0  0  0  0  0
  184.4480  179.9370  139.3190 N   0  0  0  0  0  2  0  0  0  0  0  0
  185.6200  178.2810  140.5330 N   0  0  0  0  0  2  0  0  0  0  0  0
  1  5  1  0  0  0  0
  2  1  2  0  0  0  0
  2  6  1  0  0  0  0
  4  3  1  0  0  0  0
  5  3  2  0  0  0  0
  6  4  2  0  0  0  0
  7  1  1  0  0  0  0
  8 11  2  0  0  0  0
  8 10  1  0  0  0  0
  9  7  1  0  0  0  0
  9 12  1  0  0  0  0
 10  9  2  0  0  0  0
 11 13  1  0  0  0  0
 13  7  2  0  0  0  0
 14  6  1  0  0  0  0
 15 16  1  0  0  0  0
 15 14  1  0  0  0  0
 16 14  1  0  0  0  0
 17  2  1  0  0  0  0
 18 20  1  1  0  0  0
 18 19  1  0  0  0  0
 18 21  1  0  0  0  0
 19 20  1  1  0  0  0
 19 21  1  0  0  0  0
 20 25  1  0  0  0  0
 21 17  1  1  0  0  0
 23 22  1  0  0  0  0
 23 25  1  0  0  0  0
 24 23  2  0  0  0  0
M  END
>  <MODEL>
5

>  <REMARK>
 VINA RESULT:      -8.2      2.376      5.978
  Name = 
  5 active torsions:
  status: ('A' for Active; 'I' for Inactive)
    1  A    between atoms: C_1  and  C_5
    2  A    between atoms: C_3  and  C_16
    3  A    between atoms: N_13  and  C_24
    4  A    between atoms: N_15  and  N_25
    5  A    between atoms: C_16  and  C_23
                            x       y       z     vdW  Elec       q    Type
                         _______ _______ _______ _____ _____    ______ ____

>  <TORSDO>
F 5

$$$$
=
 OpenBabel10272400453D

 25 29  0  0  1  0  0  0  0  0999 V2000
  187.1970  177.8810  145.6000 C   0  0  0  0  0  0  0  0  0  0  0  0
  188.5200  177.4060  145.7560 C   0  0  0  0  0  0  0  0  0  0  0  0
  186.8840  177.7930  148.0060 C   0  0  0  0  0  3  0  0  0  0  0  0
  188.1850  177.3160  148.1620 C   0  0  0  0  0  3  0  0  0  0  0  0
  186.3940  178.0760  146.7310 C   0  0  0  0  0  3  0  0  0  0  0  0
  189.0060  177.1230  147.0490 C   0  0  0  0  0  0  0  0  0  0  0  0
  186.6320  178.1970  144.2730 C   0  0  0  0  0  0  0  0  0  0  0  0
  185.6310  178.7620  141.7130 C   0  0  0  0  0  3  0  0  0  0  0  0
  185.3070  178.6570  144.1130 C   0  0  0  0  0  0  0  0  0  0  0  0
  184.8170  178.9350  142.8340 C   0  0  0  0  0  3  0  0  0  0  0  0
  186.9460  178.3180  141.8660 C   0  0  0  0  0  3  0  0  0  0  0  0
  184.4110  178.8910  145.2840 C   0  0  0  0  0  1  0  0  0  0  0  0
  187.4440  178.0400  143.1410 C   0  0  0  0  0  3  0  0  0  0  0  0
  190.3360  176.6470  147.2460 N   0  0  0  0  0  0  0  0  0  0  0  0
  191.7410  176.8180  147.7170 C   0  0  0  0  0  2  0  0  0  0  0  0
  191.4040  175.6090  147.1470 C   0  0  0  0  0  2  0  0  0  0  0  0
  189.4280  177.2660  144.5710 C   0  0  0  0  0  2  0  0  0  0  0  0
  191.8050  177.5580  143.8420 C   0  0  2  0  0  3  0  0  0  0  0  0
  191.1280  178.8710  143.6800 C   0  0  1  0  0  3  0  0  0  0  0  0
  191.6060  178.1310  142.5010 N   0  0  0  0  0  0  0  0  0  0  0  0
  190.7460  177.9750  144.8370 C   0  0  1  0  0  3  0  0  0  0  0  0
  189.3310  176.4240  139.9570 C   0  0  0  0  0  1  0  0  0  0  0  0
  190.4940  177.1490  140.5280 C   0  0  0  0  0  0  0  0  0  0  0  0
  191.4860  177.4720  139.7650 N   0  0  0  0  0  2  0  0  0  0  0  0
  190.5060  177.4840  141.9160 N   0  0  0  0  0  2  0  0  0  0  0  0
  1  2  2  0  0  0  0
  1  5  1  0  0  0  0
  2  6  1  0  0  0  0
  3  4  1  0  0  0  0
  5  3  2  0  0  0  0
  6 14  1  0  0  0  0
  6  4  2  0  0  0  0
  7  1  1  0  0  0  0
  8 11  2  0  0  0  0
  8 10  1  0  0  0  0
  9  7  1  0  0  0  0
  9 12  1  0  0  0  0
 10  9  2  0  0  0  0
 11 13  1  0  0  0  0
 13  7  2  0  0  0  0
 14 15  1  0  0  0  0
 16 14  1  0  0  0  0
 16 15  1  0  0  0  0
 17  2  1  0  0  0  0
 18 20  1  6  0  0  0
 18 21  1  0  0  0  0
 19 20  1  6  0  0  0
 19 18  1  0  0  0  0
 19 21  1  0  0  0  0
 21 17  1  6  0  0  0
 22 23  1  0  0  0  0
 23 25  1  0  0  0  0
 24 23  2  0  0  0  0
 25 20  1  0  0  0  0
M  END
>  <MODEL>
6

>  <REMARK>
 VINA RESULT:      -8.0      1.723      5.165
  Name = 
  5 active torsions:
  status: ('A' for Active; 'I' for Inactive)
    1  A    between atoms: C_1  and  C_5
    2  A    between atoms: C_3  and  C_16
    3  A    between atoms: N_13  and  C_24
    4  A    between atoms: N_15  and  N_25
    5  A    between atoms: C_16  and  C_23
                            x       y       z     vdW  Elec       q    Type
                         _______ _______ _______ _____ _____    ______ ____

>  <TORSDO>
F 5

$$$$
=
 OpenBabel10272400453D

 25 29  0  0  1  0  0  0  0  0999 V2000
  187.8480  177.5950  143.4730 C   0  0  0  0  0  0  0  0  0  0  0  0
  187.2040  177.8680  142.2440 C   0  0  0  0  0  0  0  0  0  0  0  0
  185.9070  178.4230  144.6730 C   0  0  0  0  0  3  0  0  0  0  0  0
  185.2730  178.7020  143.4630 C   0  0  0  0  0  3  0  0  0  0  0  0
  187.1880  177.8700  144.6770 C   0  0  0  0  0  3  0  0  0  0  0  0
  185.9100  178.4270  142.2500 C   0  0  0  0  0  0  0  0  0  0  0  0
  189.2020  177.0080  143.5310 C   0  0  0  0  0  0  0  0  0  0  0  0
  191.7420  175.8180  143.6080 C   0  0  0  0  0  3  0  0  0  0  0  0
  190.3460  177.7900  143.8050 C   0  0  0  0  0  0  0  0  0  0  0  0
  191.6070  177.1880  143.8410 C   0  0  0  0  0  3  0  0  0  0  0  0
  190.6140  175.0380  143.3460 C   0  0  0  0  0  3  0  0  0  0  0  0
  190.2470  179.2500  144.0960 C   0  0  0  0  0  1  0  0  0  0  0  0
  189.3500  175.6310  143.3110 C   0  0  0  0  0  3  0  0  0  0  0  0
  185.2260  178.7120  141.0310 N   0  0  0  0  0  0  0  0  0  0  0  0
  184.0280  179.1630  140.2660 C   0  0  0  0  0  2  0  0  0  0  0  0
  185.1420  178.7940  139.5430 C   0  0  0  0  0  2  0  0  0  0  0  0
  187.8540  177.5090  140.9410 C   0  0  0  0  0  2  0  0  0  0  0  0
  190.0080  177.9110  139.7300 C   0  0  2  0  0  3  0  0  0  0  0  0
  188.9820  178.7880  139.1110 C   0  0  1  0  0  3  0  0  0  0  0  0
  189.5800  177.6870  138.3400 N   0  0  0  0  0  0  0  0  0  0  0  0
  188.9330  178.5240  140.5990 C   0  0  1  0  0  3  0  0  0  0  0  0
  186.9680  175.1440  137.2090 C   0  0  0  0  0  1  0  0  0  0  0  0
  187.8810  176.3170  137.1890 C   0  0  0  0  0  0  0  0  0  0  0  0
  187.9470  177.0580  136.1320 N   0  0  0  0  0  2  0  0  0  0  0  0
  188.6750  176.6130  138.3370 N   0  0  0  0  0  2  0  0  0  0  0  0
  1  7  1  0  0  0  0
  1  5  1  0  0  0  0
  2  6  1  0  0  0  0
  2  1  2  0  0  0  0
  3  5  2  0  0  0  0
  4  3  1  0  0  0  0
  6  4  2  0  0  0  0
  7  9  1  0  0  0  0
  8 10  1  0  0  0  0
  9 10  2  0  0  0  0
  9 12  1  0  0  0  0
 11  8  2  0  0  0  0
 13 11  1  0  0  0  0
 13  7  2  0  0  0  0
 14  6  1  0  0  0  0
 15 14  1  0  0  0  0
 16 15  1  0  0  0  0
 16 14  1  0  0  0  0
 17  2  1  0  0  0  0
 18 20  1  6  0  0  0
 18 21  1  0  0  0  0
 19 20  1  6  0  0  0
 19 18  1  0  0  0  0
 19 21  1  0  0  0  0
 21 17  1  6  0  0  0
 23 22  1  0  0  0  0
 23 25  1  0  0  0  0
 24 23  2  0  0  0  0
 25 20  1  0  0  0  0
M  END
>  <MODEL>
7

>  <REMARK>
 VINA RESULT:      -8.0      2.372      5.090
  Name = 
  5 active torsions:
  status: ('A' for Active; 'I' for Inactive)
    1  A    between atoms: C_1  and  C_5
    2  A    between atoms: C_3  and  C_16
    3  A    between atoms: N_13  and  C_24
    4  A    between atoms: N_15  and  N_25
    5  A    between atoms: C_16  and  C_23
                            x       y       z     vdW  Elec       q    Type
                         _______ _______ _______ _____ _____    ______ ____

>  <TORSDO>
F 5

$$$$
=
 OpenBabel10272400453D

 25 29  0  0  1  0  0  0  0  0999 V2000
  185.2810  178.4890  143.1710 C   0  0  0  0  0  0  0  0  0  0  0  0
  184.0720  178.4720  142.4370 C   0  0  0  0  0  0  0  0  0  0  0  0
  184.0620  179.1670  145.1580 C   0  0  0  0  0  3  0  0  0  0  0  0
  182.8700  179.1590  144.4350 C   0  0  0  0  0  3  0  0  0  0  0  0
  185.2610  178.8310  144.5290 C   0  0  0  0  0  3  0  0  0  0  0  0
  182.8660  178.8130  143.0820 C   0  0  0  0  0  0  0  0  0  0  0  0
  186.5750  178.1400  142.5520 C   0  0  0  0  0  0  0  0  0  0  0  0
  189.0230  177.5430  141.3180 C   0  0  0  0  0  3  0  0  0  0  0  0
  187.4490  177.1920  143.1280 C   0  0  0  0  0  0  0  0  0  0  0  0
  188.6660  176.9020  142.5060 C   0  0  0  0  0  3  0  0  0  0  0  0
  188.1590  178.4730  140.7380 C   0  0  0  0  0  3  0  0  0  0  0  0
  187.0950  176.4550  144.3770 C   0  0  0  0  0  1  0  0  0  0  0  0
  186.9390  178.7670  141.3520 C   0  0  0  0  0  3  0  0  0  0  0  0
  181.6260  178.8020  142.3750 N   0  0  0  0  0  0  0  0  0  0  0  0
  180.5170  179.4860  141.6490 C   0  0  0  0  0  2  0  0  0  0  0  0
  180.4370  178.1170  141.7890 C   0  0  0  0  0  2  0  0  0  0  0  0
  184.0520  178.0320  141.0040 C   0  0  0  0  0  2  0  0  0  0  0  0
  184.3610  178.8020  138.6410 C   0  0  2  0  0  3  0  0  0  0  0  0
  183.0880  179.3870  139.1340 C   0  0  1  0  0  3  0  0  0  0  0  0
  183.0760  178.3880  138.0550 N   0  0  0  0  0  0  0  0  0  0  0  0
  184.2510  179.2290  140.0870 C   0  0  1  0  0  3  0  0  0  0  0  0
  181.0770  175.3110  139.1020 C   0  0  0  0  0  1  0  0  0  0  0  0
  181.3930  176.6500  138.5420 C   0  0  0  0  0  0  0  0  0  0  0  0
  180.4560  177.3540  137.9960 N   0  0  0  0  0  2  0  0  0  0  0  0
  182.7290  177.1460  138.6100 N   0  0  0  0  0  2  0  0  0  0  0  0
  1  5  1  0  0  0  0
  2  6  1  0  0  0  0
  2  1  2  0  0  0  0
  4  3  1  0  0  0  0
  5  3  2  0  0  0  0
  6  4  2  0  0  0  0
  7  9  1  0  0  0  0
  7  1  1  0  0  0  0
  8 10  1  0  0  0  0
  9 12  1  0  0  0  0
 10  9  2  0  0  0  0
 11  8  2  0  0  0  0
 11 13  1  0  0  0  0
 13  7  2  0  0  0  0
 14  6  1  0  0  0  0
 15 16  1  0  0  0  0
 15 14  1  0  0  0  0
 16 14  1  0  0  0  0
 17  2  1  0  0  0  0
 18 20  1  1  0  0  0
 18 19  1  0  0  0  0
 18 21  1  0  0  0  0
 19 20  1  1  0  0  0
 19 21  1  0  0  0  0
 20 25  1  0  0  0  0
 21 17  1  1  0  0  0
 23 25  1  0  0  0  0
 23 22  1  0  0  0  0
 24 23  2  0  0  0  0
M  END
>  <MODEL>
8

>  <REMARK>
 VINA RESULT:      -8.0      3.947      7.075
  Name = 
  5 active torsions:
  status: ('A' for Active; 'I' for Inactive)
    1  A    between atoms: C_1  and  C_5
    2  A    between atoms: C_3  and  C_16
    3  A    between atoms: N_13  and  C_24
    4  A    between atoms: N_15  and  N_25
    5  A    between atoms: C_16  and  C_23
                            x       y       z     vdW  Elec       q    Type
                         _______ _______ _______ _____ _____    ______ ____

>  <TORSDO>
F 5

$$$$
=
 OpenBabel10272400453D

 25 29  0  0  1  0  0  0  0  0999 V2000
  186.2960  178.2450  144.4180 C   0  0  0  0  0  0  0  0  0  0  0  0
  187.5040  177.8460  145.0360 C   0  0  0  0  0  0  0  0  0  0  0  0
  185.2340  178.3910  146.5960 C   0  0  0  0  0  3  0  0  0  0  0  0
  186.4210  177.9890  147.2070 C   0  0  0  0  0  3  0  0  0  0  0  0
  185.1730  178.5200  145.2090 C   0  0  0  0  0  3  0  0  0  0  0  0
  187.5560  177.7180  146.4390 C   0  0  0  0  0  0  0  0  0  0  0  0
  186.1810  178.3980  142.9540 C   0  0  0  0  0  0  0  0  0  0  0  0
  186.0480  178.6650  140.1640 C   0  0  0  0  0  3  0  0  0  0  0  0
  184.9390  178.6170  142.3200 C   0  0  0  0  0  0  0  0  0  0  0  0
  184.8820  178.7490  140.9290 C   0  0  0  0  0  3  0  0  0  0  0  0
  187.2800  178.4580  140.7870 C   0  0  0  0  0  3  0  0  0  0  0  0
  183.6720  178.7500  143.0980 C   0  0  0  0  0  1  0  0  0  0  0  0
  187.3450  178.3290  142.1760 C   0  0  0  0  0  3  0  0  0  0  0  0
  188.7580  177.3230  147.0970 N   0  0  0  0  0  0  0  0  0  0  0  0
  189.9420  177.6030  147.9600 C   0  0  0  0  0  2  0  0  0  0  0  0
  189.8060  176.3250  147.4630 C   0  0  0  0  0  2  0  0  0  0  0  0
  188.7430  177.6230  144.2210 C   0  0  0  0  0  2  0  0  0  0  0  0
  191.2390  177.7760  144.3650 C   0  0  2  0  0  3  0  0  0  0  0  0
  190.7460  179.0730  143.8330 C   0  0  1  0  0  3  0  0  0  0  0  0
  191.5620  178.1850  142.9890 N   0  0  0  0  0  0  0  0  0  0  0  0
  189.9250  178.3320  144.8650 C   0  0  1  0  0  3  0  0  0  0  0  0
  190.1620  176.4250  139.9050 C   0  0  0  0  0  1  0  0  0  0  0  0
  191.0830  177.1990  140.7780 C   0  0  0  0  0  0  0  0  0  0  0  0
  192.2210  177.5970  140.3140 N   0  0  0  0  0  2  0  0  0  0  0  0
  190.7010  177.4940  142.1210 N   0  0  0  0  0  2  0  0  0  0  0  0
  1  2  2  0  0  0  0
  1  5  1  0  0  0  0
  2  6  1  0  0  0  0
  3  4  1  0  0  0  0
  5  3  2  0  0  0  0
  6 14  1  0  0  0  0
  6  4  2  0  0  0  0
  7  1  1  0  0  0  0
  8 11  2  0  0  0  0
  8 10  1  0  0  0  0
  9  7  1  0  0  0  0
  9 12  1  0  0  0  0
 10  9  2  0  0  0  0
 11 13  1  0  0  0  0
 13  7  2  0  0  0  0
 14 16  1  0  0  0  0
 14 15  1  0  0  0  0
 16 15  1  0  0  0  0
 17  2  1  0  0  0  0
 18 20  1  6  0  0  0
 18 21  1  0  0  0  0
 19 20  1  6  0  0  0
 19 18  1  0  0  0  0
 19 21  1  0  0  0  0
 21 17  1  6  0  0  0
 22 23  1  0  0  0  0
 23 25  1  0  0  0  0
 24 23  2  0  0  0  0
 25 20  1  0  0  0  0
M  END
>  <MODEL>
9

>  <REMARK>
 VINA RESULT:      -8.0      1.484      4.951
  Name = 
  5 active torsions:
  status: ('A' for Active; 'I' for Inactive)
    1  A    between atoms: C_1  and  C_5
    2  A    between atoms: C_3  and  C_16
    3  A    between atoms: N_13  and  C_24
    4  A    between atoms: N_15  and  N_25
    5  A    between atoms: C_16  and  C_23
                            x       y       z     vdW  Elec       q    Type
                         _______ _______ _______ _____ _____    ______ ____

>  <TORSDO>
F 5

$$$$
