=
 OpenBabel10272402003D

 28 31  0  0  1  0  0  0  0  0999 V2000
  187.4160  179.5150  136.4780 O   0  0  0  0  0  1  0  0  0  0  0  0
  188.2760  177.6730  138.7050 C   0  0  2  0  0  3  0  0  0  0  0  0
  189.3150  179.8190  138.4330 F   0  0  0  0  0  0  0  0  0  0  0  0
  188.3360  177.3750  135.7510 C   0  0  1  0  0  0  0  0  0  0  0  0
  188.1250  176.2990  138.0570 C   0  0  0  0  0  2  0  0  0  0  0  0
  189.5780  176.7750  135.5350 O   0  0  0  0  0  1  0  0  0  0  0  0
  188.5790  178.7390  136.4320 C   0  0  2  0  0  3  0  0  0  0  0  0
  187.7050  177.5840  134.3810 C   0  0  0  0  0  1  0  0  0  0  0  0
  189.1630  178.5770  137.8410 C   0  0  2  0  0  3  0  0  0  0  0  0
  187.5000  176.4240  136.6590 C   0  0  1  0  0  3  0  0  0  0  0  0
  185.9270  176.4550  136.6040 C   0  0  1  0  0  0  0  0  0  0  0  0
  185.9880  173.9180  137.2210 C   0  0  0  0  0  2  0  0  0  0  0  0
  185.3320  175.0350  136.4340 C   0  0  0  0  0  0  0  0  0  0  0  0
  183.2230  175.7030  137.8930 C   0  0  1  0  0  3  0  0  0  0  0  0
  186.1220  173.9700  135.7030 C   0  0  0  0  0  2  0  0  0  0  0  0
  183.8060  177.1070  137.8740 C   0  0  0  0  0  2  0  0  0  0  0  0
  185.3310  177.0540  137.8920 C   0  0  0  0  0  2  0  0  0  0  0  0
  181.4360  175.7990  138.1870 S   0  0  0  0  0  1  0  0  0  0  0  0
  185.4950  177.2430  135.5340 O   0  0  0  0  0  1  0  0  0  0  0  0
  183.5240  174.8630  136.3040 S   0  0  0  0  0  0  0  0  0  0  0  0
  189.9970  176.8310  140.3500 C   0  0  0  0  0  3  0  0  0  0  0  0
  188.1070  178.1090  141.1740 C   0  0  0  0  0  0  0  0  0  0  0  0
  189.7790  177.2800  142.7180 C   0  0  0  0  0  0  0  0  0  0  0  0
  188.8080  177.5360  140.1010 C   0  0  0  0  0  0  0  0  0  0  0  0
  188.5940  177.9800  142.4780 C   0  0  0  0  0  3  0  0  0  0  0  0
  186.9540  178.7900  140.9590 F   0  0  0  0  0  0  0  0  0  0  0  0
  190.2480  177.1570  143.9830 F   0  0  0  0  0  0  0  0  0  0  0  0
  190.4800  176.7050  141.6550 C   0  0  0  0  0  3  0  0  0  0  0  0
  2 24  1  1  0  0  0
  4  8  1  6  0  0  0
  4  7  1  0  0  0  0
  4 10  1  0  0  0  0
  5  2  1  0  0  0  0
  6  4  1  0  0  0  0
  7  1  1  1  0  0  0
  7  9  1  0  0  0  0
  9  3  1  1  0  0  0
  9  2  1  0  0  0  0
 10  5  1  1  0  0  0
 11 19  1  6  0  0  0
 11 10  1  0  0  0  0
 11 17  1  0  0  0  0
 13 11  1  0  0  0  0
 13 12  1  0  0  0  0
 14 18  1  6  0  0  0
 15 13  1  0  0  0  0
 15 12  1  0  0  0  0
 16 17  1  0  0  0  0
 16 14  1  0  0  0  0
 20 13  1  0  0  0  0
 20 14  1  0  0  0  0
 21 28  1  0  0  0  0
 22 25  2  0  0  0  0
 23 27  1  0  0  0  0
 24 21  2  0  0  0  0
 24 22  1  0  0  0  0
 25 23  1  0  0  0  0
 26 22  1  0  0  0  0
 28 23  2  0  0  0  0
M  END
>  <MODEL>
1

>  <REMARK>
 VINA RESULT:      -6.3      0.000      0.000
  Name = 
  2 active torsions:
  status: ('A' for Active; 'I' for Inactive)
    1  A    between atoms: C_1  and  C_27
    2  A    between atoms: C_10  and  C_13
                            x       y       z     vdW  Elec       q    Type
                         _______ _______ _______ _____ _____    ______ ____

>  <TORSDO>
F 2

$$$$
=
 OpenBabel10272402003D

 28 31  0  0  1  0  0  0  0  0999 V2000
  188.1670  178.4040  135.8780 O   0  0  0  0  0  1  0  0  0  0  0  0
  188.8370  177.2290  138.5740 C   0  0  2  0  0  3  0  0  0  0  0  0
  189.3160  179.5320  138.0980 F   0  0  0  0  0  0  0  0  0  0  0  0
  189.7730  176.5670  135.8350 C   0  0  1  0  0  0  0  0  0  0  0  0
  189.2300  175.8000  138.2090 C   0  0  0  0  0  2  0  0  0  0  0  0
  191.1390  176.3500  136.0280 O   0  0  0  0  0  1  0  0  0  0  0  0
  189.4580  178.0190  136.2540 C   0  0  2  0  0  3  0  0  0  0  0  0
  189.5060  176.3870  134.3460 C   0  0  0  0  0  1  0  0  0  0  0  0
  189.6590  178.2350  137.7590 C   0  0  2  0  0  3  0  0  0  0  0  0
  188.9980  175.5390  136.7120 C   0  0  1  0  0  3  0  0  0  0  0  0
  187.5480  175.0820  136.3060 C   0  0  1  0  0  0  0  0  0  0  0  0
  188.2550  172.6680  137.0080 C   0  0  0  0  0  2  0  0  0  0  0  0
  187.4770  173.5550  136.0570 C   0  0  0  0  0  0  0  0  0  0  0  0
  184.9950  173.4790  136.9830 C   0  0  1  0  0  3  0  0  0  0  0  0
  188.7010  172.8160  135.5580 C   0  0  0  0  0  2  0  0  0  0  0  0
  185.1020  174.9950  137.0470 C   0  0  0  0  0  2  0  0  0  0  0  0
  186.5240  175.4180  137.4070 C   0  0  0  0  0  2  0  0  0  0  0  0
  183.2490  173.0050  136.8670 S   0  0  0  0  0  1  0  0  0  0  0  0
  187.1430  175.7370  135.1400 O   0  0  0  0  0  1  0  0  0  0  0  0
  185.8890  172.8340  135.5320 S   0  0  0  0  0  0  0  0  0  0  0  0
  190.1200  176.9870  140.7350 C   0  0  0  0  0  3  0  0  0  0  0  0
  187.9770  178.1210  140.7600 C   0  0  0  0  0  0  0  0  0  0  0  0
  189.2400  177.8630  142.8110 C   0  0  0  0  0  0  0  0  0  0  0  0
  188.9860  177.4510  140.0500 C   0  0  0  0  0  0  0  0  0  0  0  0
  188.1070  178.3260  142.1370 C   0  0  0  0  0  3  0  0  0  0  0  0
  186.8690  178.5750  140.1210 F   0  0  0  0  0  0  0  0  0  0  0  0
  189.3620  178.0640  144.1450 F   0  0  0  0  0  0  0  0  0  0  0  0
  190.2470  177.1940  142.1100 C   0  0  0  0  0  3  0  0  0  0  0  0
  2 24  1  1  0  0  0
  4  8  1  6  0  0  0
  4  6  1  0  0  0  0
  4  7  1  0  0  0  0
  4 10  1  0  0  0  0
  5  2  1  0  0  0  0
  7  1  1  1  0  0  0
  7  9  1  0  0  0  0
  9  3  1  1  0  0  0
  9  2  1  0  0  0  0
 10  5  1  1  0  0  0
 11 19  1  6  0  0  0
 11 10  1  0  0  0  0
 11 17  1  0  0  0  0
 13 11  1  0  0  0  0
 13 12  1  0  0  0  0
 14 18  1  6  0  0  0
 14 16  1  0  0  0  0
 15 13  1  0  0  0  0
 15 12  1  0  0  0  0
 16 17  1  0  0  0  0
 20 13  1  0  0  0  0
 20 14  1  0  0  0  0
 21 28  1  0  0  0  0
 22 25  2  0  0  0  0
 23 27  1  0  0  0  0
 24 21  2  0  0  0  0
 24 22  1  0  0  0  0
 25 23  1  0  0  0  0
 26 22  1  0  0  0  0
 28 23  2  0  0  0  0
M  END
>  <MODEL>
2

>  <REMARK>
 VINA RESULT:      -6.0      1.529      1.875
  Name = 
  2 active torsions:
  status: ('A' for Active; 'I' for Inactive)
    1  A    between atoms: C_1  and  C_27
    2  A    between atoms: C_10  and  C_13
                            x       y       z     vdW  Elec       q    Type
                         _______ _______ _______ _____ _____    ______ ____

>  <TORSDO>
F 2

$$$$
=
 OpenBabel10272402003D

 28 31  0  0  1  0  0  0  0  0999 V2000
  186.4590  177.4520  138.5690 O   0  0  0  0  0  1  0  0  0  0  0  0
  189.1640  177.2060  139.8800 C   0  0  2  0  0  3  0  0  0  0  0  0
  187.3540  178.2940  141.0200 F   0  0  0  0  0  0  0  0  0  0  0  0
  188.2840  178.5610  137.3890 C   0  0  1  0  0  0  0  0  0  0  0  0
  190.1080  177.3340  138.6870 C   0  0  0  0  0  2  0  0  0  0  0  0
  188.9980  179.7610  137.4310 O   0  0  0  0  0  1  0  0  0  0  0  0
  187.3810  178.5010  138.6400 C   0  0  2  0  0  3  0  0  0  0  0  0
  187.4260  178.6050  136.1310 C   0  0  0  0  0  1  0  0  0  0  0  0
  188.2020  178.3990  139.9310 C   0  0  2  0  0  3  0  0  0  0  0  0
  189.3160  177.3940  137.3720 C   0  0  1  0  0  3  0  0  0  0  0  0
  188.9350  176.0090  136.7280 C   0  0  1  0  0  0  0  0  0  0  0  0
  190.8620  176.4250  135.0160 C   0  0  0  0  0  2  0  0  0  0  0  0
  189.4720  175.8820  135.2810 C   0  0  0  0  0  0  0  0  0  0  0  0
  189.8440  173.2790  135.6050 C   0  0  1  0  0  3  0  0  0  0  0  0
  189.6400  177.1240  134.4300 C   0  0  0  0  0  2  0  0  0  0  0  0
  189.1620  173.4710  136.9500 C   0  0  0  0  0  2  0  0  0  0  0  0
  189.5150  174.8340  137.5400 C   0  0  0  0  0  2  0  0  0  0  0  0
  189.6650  171.5510  135.0830 S   0  0  0  0  0  1  0  0  0  0  0  0
  187.5470  175.8540  136.6970 O   0  0  0  0  0  1  0  0  0  0  0  0
  189.0980  174.3650  134.3470 S   0  0  0  0  0  0  0  0  0  0  0  0
  191.3100  177.3890  141.1970 C   0  0  0  0  0  3  0  0  0  0  0  0
  189.3120  176.5870  142.3110 C   0  0  0  0  0  0  0  0  0  0  0  0
  191.3930  176.7750  143.5350 C   0  0  0  0  0  0  0  0  0  0  0  0
  189.9450  177.0630  141.1520 C   0  0  0  0  0  0  0  0  0  0  0  0
  190.0360  176.4450  143.4980 C   0  0  0  0  0  3  0  0  0  0  0  0
  187.9950  176.2600  142.2920 F   0  0  0  0  0  0  0  0  0  0  0  0
  192.0920  176.6360  144.6880 F   0  0  0  0  0  0  0  0  0  0  0  0
  192.0310  177.2470  142.3850 C   0  0  0  0  0  3  0  0  0  0  0  0
  2  9  1  0  0  0  0
  2 24  1  1  0  0  0
  4  8  1  6  0  0  0
  4  6  1  0  0  0  0
  4  7  1  0  0  0  0
  5  2  1  0  0  0  0
  7  1  1  6  0  0  0
  7  9  1  0  0  0  0
  9  3  1  1  0  0  0
 10  4  1  0  0  0  0
 10  5  1  1  0  0  0
 11 19  1  6  0  0  0
 11 10  1  0  0  0  0
 11 17  1  0  0  0  0
 12 13  1  0  0  0  0
 13 11  1  0  0  0  0
 14 18  1  6  0  0  0
 14 16  1  0  0  0  0
 15 12  1  0  0  0  0
 15 13  1  0  0  0  0
 16 17  1  0  0  0  0
 20 13  1  0  0  0  0
 20 14  1  0  0  0  0
 21 28  1  0  0  0  0
 22 25  2  0  0  0  0
 23 27  1  0  0  0  0
 24 21  2  0  0  0  0
 24 22  1  0  0  0  0
 25 23  1  0  0  0  0
 26 22  1  0  0  0  0
 28 23  2  0  0  0  0
M  END
>  <MODEL>
3

>  <REMARK>
 VINA RESULT:      -5.9      3.030      4.007
  Name = 
  2 active torsions:
  status: ('A' for Active; 'I' for Inactive)
    1  A    between atoms: C_1  and  C_27
    2  A    between atoms: C_10  and  C_13
                            x       y       z     vdW  Elec       q    Type
                         _______ _______ _______ _____ _____    ______ ____

>  <TORSDO>
F 2

$$$$
=
 OpenBabel10272402003D

 28 31  0  0  1  0  0  0  0  0999 V2000
  187.2970  179.0550  135.8420 O   0  0  0  0  0  1  0  0  0  0  0  0
  188.0060  177.6590  138.4190 C   0  0  2  0  0  3  0  0  0  0  0  0
  189.4850  179.2980  137.4770 F   0  0  0  0  0  0  0  0  0  0  0  0
  187.5450  176.6340  135.6700 C   0  0  1  0  0  0  0  0  0  0  0  0
  187.4280  176.2640  138.1940 C   0  0  0  0  0  2  0  0  0  0  0  0
  188.5560  175.6800  135.5310 O   0  0  0  0  0  1  0  0  0  0  0  0
  188.2140  178.0030  135.9220 C   0  0  2  0  0  3  0  0  0  0  0  0
  186.7850  176.6630  134.3510 C   0  0  0  0  0  1  0  0  0  0  0  0
  188.9470  178.0390  137.2690 C   0  0  2  0  0  3  0  0  0  0  0  0
  186.6490  176.2060  136.8700 C   0  0  1  0  0  3  0  0  0  0  0  0
  185.1410  176.6550  136.9340 C   0  0  1  0  0  0  0  0  0  0  0  0
  184.5760  174.1970  137.6120 C   0  0  0  0  0  2  0  0  0  0  0  0
  184.1790  175.4450  136.8480 C   0  0  0  0  0  0  0  0  0  0  0  0
  182.4470  176.6590  138.4450 C   0  0  1  0  0  3  0  0  0  0  0  0
  184.5970  174.2040  136.0870 C   0  0  0  0  0  2  0  0  0  0  0  0
  183.3790  177.8560  138.3450 C   0  0  0  0  0  2  0  0  0  0  0  0
  184.8320  177.3980  138.2480 C   0  0  0  0  0  2  0  0  0  0  0  0
  180.7800  177.2290  138.8720 S   0  0  0  0  0  1  0  0  0  0  0  0
  184.8500  177.5240  135.8800 O   0  0  0  0  0  1  0  0  0  0  0  0
  182.3850  175.7600  136.8610 S   0  0  0  0  0  0  0  0  0  0  0  0
  190.0200  177.2960  139.8980 C   0  0  0  0  0  3  0  0  0  0  0  0
  188.0010  178.2270  140.8660 C   0  0  0  0  0  0  0  0  0  0  0  0
  189.9560  177.8600  142.2500 C   0  0  0  0  0  0  0  0  0  0  0  0
  188.6930  177.7310  139.7500 C   0  0  0  0  0  0  0  0  0  0  0  0
  188.6330  178.2910  142.1110 C   0  0  0  0  0  3  0  0  0  0  0  0
  186.7170  178.6490  140.7500 F   0  0  0  0  0  0  0  0  0  0  0  0
  190.5650  177.9240  143.4580 F   0  0  0  0  0  0  0  0  0  0  0  0
  190.6490  177.3620  141.1430 C   0  0  0  0  0  3  0  0  0  0  0  0
  2 24  1  1  0  0  0
  4  8  1  6  0  0  0
  4  7  1  0  0  0  0
  4 10  1  0  0  0  0
  5  2  1  0  0  0  0
  6  4  1  0  0  0  0
  7  1  1  1  0  0  0
  7  9  1  0  0  0  0
  9  3  1  1  0  0  0
  9  2  1  0  0  0  0
 10 11  1  0  0  0  0
 10  5  1  1  0  0  0
 11 19  1  6  0  0  0
 11 17  1  0  0  0  0
 13 20  1  0  0  0  0
 13 11  1  0  0  0  0
 13 12  1  0  0  0  0
 14 18  1  6  0  0  0
 15 13  1  0  0  0  0
 15 12  1  0  0  0  0
 16 14  1  0  0  0  0
 17 16  1  0  0  0  0
 20 14  1  0  0  0  0
 21 28  1  0  0  0  0
 22 25  2  0  0  0  0
 23 27  1  0  0  0  0
 24 21  2  0  0  0  0
 24 22  1  0  0  0  0
 25 23  1  0  0  0  0
 26 22  1  0  0  0  0
 28 23  2  0  0  0  0
M  END
>  <MODEL>
4

>  <REMARK>
 VINA RESULT:      -5.6      1.007      1.032
  Name = 
  2 active torsions:
  status: ('A' for Active; 'I' for Inactive)
    1  A    between atoms: C_1  and  C_27
    2  A    between atoms: C_10  and  C_13
                            x       y       z     vdW  Elec       q    Type
                         _______ _______ _______ _____ _____    ______ ____

>  <TORSDO>
F 2

$$$$
=
 OpenBabel10272402003D

 28 31  0  0  1  0  0  0  0  0999 V2000
  187.6140  177.6790  134.5940 O   0  0  0  0  0  1  0  0  0  0  0  0
  187.2350  177.3940  137.5730 C   0  0  2  0  0  3  0  0  0  0  0  0
  187.7000  179.5410  136.6060 F   0  0  0  0  0  0  0  0  0  0  0  0
  189.2300  176.2280  135.7070 C   0  0  1  0  0  0  0  0  0  0  0  0
  187.8410  176.0190  137.8400 C   0  0  0  0  0  2  0  0  0  0  0  0
  190.4170  176.3280  136.4360 O   0  0  0  0  0  1  0  0  0  0  0  0
  188.6720  177.6540  135.5090 C   0  0  2  0  0  3  0  0  0  0  0  0
  189.5920  175.6200  134.3590 C   0  0  0  0  0  1  0  0  0  0  0  0
  188.2410  178.2880  136.8370 C   0  0  2  0  0  3  0  0  0  0  0  0
  188.2440  175.3380  136.5220 C   0  0  1  0  0  3  0  0  0  0  0  0
  187.1130  174.5290  135.7870 C   0  0  1  0  0  0  0  0  0  0  0  0
  187.8650  172.4590  137.1900 C   0  0  0  0  0  2  0  0  0  0  0  0
  187.3540  173.0010  135.8700 C   0  0  0  0  0  0  0  0  0  0  0  0
  184.7440  172.5530  135.9520 C   0  0  1  0  0  3  0  0  0  0  0  0
  188.7690  172.4670  135.9610 C   0  0  0  0  0  2  0  0  0  0  0  0
  184.6020  174.0470  135.7110 C   0  0  0  0  0  2  0  0  0  0  0  0
  185.7290  174.8110  136.4030 C   0  0  0  0  0  2  0  0  0  0  0  0
  183.2390  171.7090  135.3940 S   0  0  0  0  0  1  0  0  0  0  0  0
  187.0550  174.8920  134.4390 O   0  0  0  0  0  1  0  0  0  0  0  0
  186.1750  171.8900  135.0390 S   0  0  0  0  0  0  0  0  0  0  0  0
  187.6550  178.2080  139.9260 C   0  0  0  0  0  3  0  0  0  0  0  0
  185.4250  178.4040  138.9930 C   0  0  0  0  0  0  0  0  0  0  0  0
  185.8710  179.1690  141.2480 C   0  0  0  0  0  0  0  0  0  0  0  0
  186.7670  178.0170  138.8550 C   0  0  0  0  0  0  0  0  0  0  0  0
  184.9810  178.9790  140.1870 C   0  0  0  0  0  3  0  0  0  0  0  0
  184.5470  178.2260  137.9740 F   0  0  0  0  0  0  0  0  0  0  0  0
  185.4370  179.7270  142.4030 F   0  0  0  0  0  0  0  0  0  0  0  0
  187.2080  178.7830  141.1180 C   0  0  0  0  0  3  0  0  0  0  0  0
  2  5  1  0  0  0  0
  2 24  1  1  0  0  0
  4  8  1  6  0  0  0
  4  6  1  0  0  0  0
  4 10  1  0  0  0  0
  7  1  1  6  0  0  0
  7  4  1  0  0  0  0
  7  9  1  0  0  0  0
  9  3  1  6  0  0  0
  9  2  1  0  0  0  0
 10  5  1  1  0  0  0
 11 19  1  6  0  0  0
 11 13  1  0  0  0  0
 11 17  1  0  0  0  0
 11 10  1  0  0  0  0
 13 15  1  0  0  0  0
 13 12  1  0  0  0  0
 14 18  1  6  0  0  0
 15 12  1  0  0  0  0
 16 14  1  0  0  0  0
 16 17  1  0  0  0  0
 20 13  1  0  0  0  0
 20 14  1  0  0  0  0
 21 28  1  0  0  0  0
 22 25  2  0  0  0  0
 23 27  1  0  0  0  0
 24 22  1  0  0  0  0
 24 21  2  0  0  0  0
 25 23  1  0  0  0  0
 26 22  1  0  0  0  0
 28 23  2  0  0  0  0
M  END
>  <MODEL>
5

>  <REMARK>
 VINA RESULT:      -5.5      2.455      3.178
  Name = 
  2 active torsions:
  status: ('A' for Active; 'I' for Inactive)
    1  A    between atoms: C_1  and  C_27
    2  A    between atoms: C_10  and  C_13
                            x       y       z     vdW  Elec       q    Type
                         _______ _______ _______ _____ _____    ______ ____

>  <TORSDO>
F 2

$$$$
=
 OpenBabel10272402003D

 28 31  0  0  1  0  0  0  0  0999 V2000
  187.9370  177.4900  134.6000 O   0  0  0  0  0  1  0  0  0  0  0  0
  186.8190  175.2350  136.2620 C   0  0  2  0  0  3  0  0  0  0  0  0
  185.5240  176.1920  134.4820 F   0  0  0  0  0  0  0  0  0  0  0  0
  187.6910  177.9820  136.9780 C   0  0  1  0  0  0  0  0  0  0  0  0
  187.4100  175.5310  137.6380 C   0  0  0  0  0  2  0  0  0  0  0  0
  186.7030  178.3850  137.8780 O   0  0  0  0  0  1  0  0  0  0  0  0
  187.0070  177.6750  135.6270 C   0  0  2  0  0  3  0  0  0  0  0  0
  188.6470  179.1560  136.8200 C   0  0  0  0  0  1  0  0  0  0  0  0
  186.0740  176.4620  135.7240 C   0  0  2  0  0  3  0  0  0  0  0  0
  188.3850  176.7170  137.5660 C   0  0  1  0  0  3  0  0  0  0  0  0
  189.8690  176.3710  137.1730 C   0  0  1  0  0  0  0  0  0  0  0  0
  190.3960  176.3240  139.7300 C   0  0  0  0  0  2  0  0  0  0  0  0
  190.8540  176.6750  138.3280 C   0  0  0  0  0  0  0  0  0  0  0  0
  192.3820  174.6310  137.6150 C   0  0  1  0  0  3  0  0  0  0  0  0
  190.5410  177.7840  139.3110 C   0  0  0  0  0  2  0  0  0  0  0  0
  191.4480  174.5050  136.4220 C   0  0  0  0  0  2  0  0  0  0  0  0
  190.0220  174.8790  136.8160 C   0  0  0  0  0  2  0  0  0  0  0  0
  193.9840  173.8870  137.2040 S   0  0  0  0  0  1  0  0  0  0  0  0
  190.2590  177.1130  136.0550 O   0  0  0  0  0  1  0  0  0  0  0  0
  192.6300  176.3820  138.0530 S   0  0  0  0  0  0  0  0  0  0  0  0
  184.9670  173.8930  137.3310 C   0  0  0  0  0  3  0  0  0  0  0  0
  186.0800  173.0050  135.3680 C   0  0  0  0  0  0  0  0  0  0  0  0
  184.3000  171.7500  136.4280 C   0  0  0  0  0  0  0  0  0  0  0  0
  185.9350  174.0250  136.3220 C   0  0  0  0  0  0  0  0  0  0  0  0
  185.2640  171.8720  135.4230 C   0  0  0  0  0  3  0  0  0  0  0  0
  187.0120  173.1070  134.3870 F   0  0  0  0  0  0  0  0  0  0  0  0
  183.5100  170.6510  136.4780 F   0  0  0  0  0  0  0  0  0  0  0  0
  184.1520  172.7600  137.3820 C   0  0  0  0  0  3  0  0  0  0  0  0
  2 24  1  1  0  0  0
  2  5  1  0  0  0  0
  4  8  1  6  0  0  0
  4 10  1  0  0  0  0
  4  6  1  0  0  0  0
  7  1  1  6  0  0  0
  7  9  1  0  0  0  0
  7  4  1  0  0  0  0
  9  3  1  6  0  0  0
  9  2  1  0  0  0  0
 10  5  1  6  0  0  0
 11 19  1  6  0  0  0
 11 10  1  0  0  0  0
 11 13  1  0  0  0  0
 13 15  1  0  0  0  0
 13 12  1  0  0  0  0
 14 18  1  6  0  0  0
 14 20  1  0  0  0  0
 15 12  1  0  0  0  0
 16 17  1  0  0  0  0
 16 14  1  0  0  0  0
 17 11  1  0  0  0  0
 20 13  1  0  0  0  0
 21 28  1  0  0  0  0
 22 25  2  0  0  0  0
 22 24  1  0  0  0  0
 23 27  1  0  0  0  0
 23 28  2  0  0  0  0
 24 21  2  0  0  0  0
 25 23  1  0  0  0  0
 26 22  1  0  0  0  0
M  END
>  <MODEL>
6

>  <REMARK>
 VINA RESULT:      -5.3      4.270      6.910
  Name = 
  2 active torsions:
  status: ('A' for Active; 'I' for Inactive)
    1  A    between atoms: C_1  and  C_27
    2  A    between atoms: C_10  and  C_13
                            x       y       z     vdW  Elec       q    Type
                         _______ _______ _______ _____ _____    ______ ____

>  <TORSDO>
F 2

$$$$
=
 OpenBabel10272402003D

 28 31  0  0  1  0  0  0  0  0999 V2000
  184.0900  177.7710  141.1670 O   0  0  0  0  0  1  0  0  0  0  0  0
  186.1180  177.7520  138.9340 C   0  0  2  0  0  3  0  0  0  0  0  0
  186.7750  178.3280  141.1690 F   0  0  0  0  0  0  0  0  0  0  0  0
  183.6450  179.3430  139.3530 C   0  0  1  0  0  0  0  0  0  0  0  0
  185.2860  178.2280  137.7450 C   0  0  0  0  0  2  0  0  0  0  0  0
  184.0340  180.6180  138.9380 O   0  0  0  0  0  1  0  0  0  0  0  0
  184.5520  178.9290  140.5330 C   0  0  2  0  0  3  0  0  0  0  0  0
  182.2010  179.4550  139.8230 C   0  0  0  0  0  1  0  0  0  0  0  0
  186.0100  178.7490  140.0950 C   0  0  2  0  0  3  0  0  0  0  0  0
  183.8090  178.3770  138.1420 C   0  0  1  0  0  3  0  0  0  0  0  0
  182.9300  177.0750  138.0410 C   0  0  1  0  0  0  0  0  0  0  0  0
  182.3250  177.8300  135.6160 C   0  0  0  0  0  2  0  0  0  0  0  0
  181.8780  177.1800  136.9090 C   0  0  0  0  0  0  0  0  0  0  0  0
  182.0770  174.5810  136.4300 C   0  0  1  0  0  3  0  0  0  0  0  0
  181.3210  178.5340  136.5230 C   0  0  0  0  0  2  0  0  0  0  0  0
  182.9800  174.5470  137.6540 C   0  0  0  0  0  2  0  0  0  0  0  0
  183.7960  175.8340  137.7520 C   0  0  0  0  0  2  0  0  0  0  0  0
  181.3630  172.9350  136.1660 S   0  0  0  0  0  1  0  0  0  0  0  0
  182.2590  176.8490  139.2450 O   0  0  0  0  0  1  0  0  0  0  0  0
  180.7310  175.7880  136.6600 S   0  0  0  0  0  0  0  0  0  0  0  0
  188.5380  178.4650  138.8370 C   0  0  0  0  0  3  0  0  0  0  0  0
  187.8840  176.3760  137.7950 C   0  0  0  0  0  0  0  0  0  0  0  0
  190.1950  177.1000  137.7220 C   0  0  0  0  0  0  0  0  0  0  0  0
  187.5420  177.5280  138.5190 C   0  0  0  0  0  0  0  0  0  0  0  0
  189.2080  176.1640  137.3990 C   0  0  0  0  0  3  0  0  0  0  0  0
  186.9390  175.4580  137.4710 F   0  0  0  0  0  0  0  0  0  0  0  0
  191.4770  176.8910  137.3370 F   0  0  0  0  0  0  0  0  0  0  0  0
  189.8600  178.2510  138.4400 C   0  0  0  0  0  3  0  0  0  0  0  0
  2 24  1  6  0  0  0
  2  9  1  0  0  0  0
  4  8  1  1  0  0  0
  4  7  1  0  0  0  0
  5  2  1  0  0  0  0
  6  4  1  0  0  0  0
  7  1  1  6  0  0  0
  9  7  1  0  0  0  0
  9  3  1  1  0  0  0
 10  5  1  1  0  0  0
 10  4  1  0  0  0  0
 11 10  1  0  0  0  0
 11 19  1  1  0  0  0
 12 15  1  0  0  0  0
 12 13  1  0  0  0  0
 13 11  1  0  0  0  0
 14 18  1  1  0  0  0
 14 20  1  0  0  0  0
 14 16  1  0  0  0  0
 15 13  1  0  0  0  0
 16 17  1  0  0  0  0
 17 11  1  0  0  0  0
 20 13  1  0  0  0  0
 22 24  2  0  0  0  0
 23 28  1  0  0  0  0
 24 21  1  0  0  0  0
 25 23  2  0  0  0  0
 25 22  1  0  0  0  0
 26 22  1  0  0  0  0
 27 23  1  0  0  0  0
 28 21  2  0  0  0  0
M  END
>  <MODEL>
7

>  <REMARK>
 VINA RESULT:      -5.1      3.086      4.720
  Name = 
  2 active torsions:
  status: ('A' for Active; 'I' for Inactive)
    1  A    between atoms: C_1  and  C_27
    2  A    between atoms: C_10  and  C_13
                            x       y       z     vdW  Elec       q    Type
                         _______ _______ _______ _____ _____    ______ ____

>  <TORSDO>
F 2

$$$$
=
 OpenBabel10272402003D

 28 31  0  0  1  0  0  0  0  0999 V2000
  183.9610  174.9220  138.0400 O   0  0  0  0  0  1  0  0  0  0  0  0
  184.1700  177.3840  139.7700 C   0  0  2  0  0  3  0  0  0  0  0  0
  182.3490  175.8470  140.0570 F   0  0  0  0  0  0  0  0  0  0  0  0
  183.8710  177.0430  136.8350 C   0  0  1  0  0  0  0  0  0  0  0  0
  184.7660  178.4030  138.8020 C   0  0  0  0  0  2  0  0  0  0  0  0
  182.9450  178.0370  136.5100 O   0  0  0  0  0  1  0  0  0  0  0  0
  183.1990  176.0770  137.8350 C   0  0  2  0  0  3  0  0  0  0  0  0
  184.1970  176.3070  135.5420 C   0  0  0  0  0  1  0  0  0  0  0  0
  182.9010  176.7600  139.1750 C   0  0  2  0  0  3  0  0  0  0  0  0
  185.1160  177.7370  137.4610 C   0  0  1  0  0  3  0  0  0  0  0  0
  186.5320  177.0550  137.3760 C   0  0  1  0  0  0  0  0  0  0  0  0
  187.3150  179.1520  136.0310 C   0  0  0  0  0  2  0  0  0  0  0  0
  187.3880  177.6510  136.2310 C   0  0  0  0  0  0  0  0  0  0  0  0
  189.6000  177.2920  137.6440 C   0  0  1  0  0  3  0  0  0  0  0  0
  186.7100  178.2090  134.9970 C   0  0  0  0  0  2  0  0  0  0  0  0
  188.7020  176.5810  138.6450 C   0  0  0  0  0  2  0  0  0  0  0  0
  187.3230  177.2360  138.6860 C   0  0  0  0  0  2  0  0  0  0  0  0
  191.3030  176.7020  137.8430 S   0  0  0  0  0  1  0  0  0  0  0  0
  186.3950  175.6830  137.1530 O   0  0  0  0  0  1  0  0  0  0  0  0
  189.0480  176.9620  135.9390 S   0  0  0  0  0  0  0  0  0  0  0  0
  182.6040  178.3610  141.4920 C   0  0  0  0  0  3  0  0  0  0  0  0
  184.9800  178.2900  141.9690 C   0  0  0  0  0  0  0  0  0  0  0  0
  183.4420  179.2220  143.5920 C   0  0  0  0  0  0  0  0  0  0  0  0
  183.9090  178.0200  141.1030 C   0  0  0  0  0  0  0  0  0  0  0  0
  184.7450  178.8890  143.2100 C   0  0  0  0  0  3  0  0  0  0  0  0
  186.2510  177.9750  141.6130 F   0  0  0  0  0  0  0  0  0  0  0  0
  183.2180  179.8020  144.7950 F   0  0  0  0  0  0  0  0  0  0  0  0
  182.3720  178.9590  142.7330 C   0  0  0  0  0  3  0  0  0  0  0  0
  2 24  1  1  0  0  0
  4  8  1  6  0  0  0
  4 10  1  0  0  0  0
  4  7  1  0  0  0  0
  5  2  1  0  0  0  0
  6  4  1  0  0  0  0
  7  1  1  1  0  0  0
  7  9  1  0  0  0  0
  9  2  1  0  0  0  0
  9  3  1  1  0  0  0
 10  5  1  1  0  0  0
 11 19  1  6  0  0  0
 11 10  1  0  0  0  0
 11 17  1  0  0  0  0
 12 13  1  0  0  0  0
 13 11  1  0  0  0  0
 14 18  1  6  0  0  0
 14 16  1  0  0  0  0
 15 12  1  0  0  0  0
 15 13  1  0  0  0  0
 16 17  1  0  0  0  0
 20 13  1  0  0  0  0
 20 14  1  0  0  0  0
 21 28  1  0  0  0  0
 22 25  2  0  0  0  0
 23 27  1  0  0  0  0
 24 21  2  0  0  0  0
 24 22  1  0  0  0  0
 25 23  1  0  0  0  0
 26 22  1  0  0  0  0
 28 23  2  0  0  0  0
M  END
>  <MODEL>
8

>  <REMARK>
 VINA RESULT:      -5.0      3.423      5.572
  Name = 
  2 active torsions:
  status: ('A' for Active; 'I' for Inactive)
    1  A    between atoms: C_1  and  C_27
    2  A    between atoms: C_10  and  C_13
                            x       y       z     vdW  Elec       q    Type
                         _______ _______ _______ _____ _____    ______ ____

>  <TORSDO>
F 2

$$$$
=
 OpenBabel10272402003D

 28 31  0  0  1  0  0  0  0  0999 V2000
  182.7580  175.8140  139.5220 O   0  0  0  0  0  1  0  0  0  0  0  0
  182.1630  178.2250  137.8100 C   0  0  2  0  0  3  0  0  0  0  0  0
  180.7370  177.6620  139.6570 F   0  0  0  0  0  0  0  0  0  0  0  0
  182.3180  175.3280  137.1710 C   0  0  1  0  0  0  0  0  0  0  0  0
  182.6160  177.7540  136.4300 C   0  0  0  0  0  2  0  0  0  0  0  0
  181.2310  175.1510  136.3120 O   0  0  0  0  0  1  0  0  0  0  0  0
  181.7750  175.8310  138.5270 C   0  0  2  0  0  3  0  0  0  0  0  0
  182.9670  173.9620  137.3460 C   0  0  0  0  0  1  0  0  0  0  0  0
  181.1610  177.2310  138.4110 C   0  0  2  0  0  3  0  0  0  0  0  0
  183.2760  176.3690  136.5190 C   0  0  1  0  0  3  0  0  0  0  0  0
  184.8130  176.3560  136.8600 C   0  0  1  0  0  0  0  0  0  0  0  0
  185.2320  177.1110  134.3960 C   0  0  0  0  0  2  0  0  0  0  0  0
  185.6830  176.2820  135.5810 C   0  0  0  0  0  0  0  0  0  0  0  0
  187.5620  177.7590  136.7270 C   0  0  1  0  0  3  0  0  0  0  0  0
  185.1480  175.5890  134.3460 C   0  0  0  0  0  2  0  0  0  0  0  0
  186.7130  177.6460  137.9840 C   0  0  0  0  0  2  0  0  0  0  0  0
  185.2290  177.6250  137.6290 C   0  0  0  0  0  2  0  0  0  0  0  0
  189.2810  178.0960  137.1920 S   0  0  0  0  0  1  0  0  0  0  0  0
  185.1200  175.2560  137.6650 O   0  0  0  0  0  1  0  0  0  0  0  0
  187.4930  176.2110  135.7670 S   0  0  0  0  0  0  0  0  0  0  0  0
  180.4990  179.8900  136.8970 C   0  0  0  0  0  3  0  0  0  0  0  0
  182.1720  180.6460  138.4820 C   0  0  0  0  0  0  0  0  0  0  0  0
  180.5580  182.2110  137.5790 C   0  0  0  0  0  0  0  0  0  0  0  0
  181.5950  179.6110  137.7290 C   0  0  0  0  0  0  0  0  0  0  0  0
  181.6520  181.9410  138.4060 C   0  0  0  0  0  3  0  0  0  0  0  0
  183.2350  180.4020  139.2890 F   0  0  0  0  0  0  0  0  0  0  0  0
  180.0570  183.4670  137.5080 F   0  0  0  0  0  0  0  0  0  0  0  0
  179.9820  181.1860  136.8240 C   0  0  0  0  0  3  0  0  0  0  0  0
  2 24  1  6  0  0  0
  2  9  1  0  0  0  0
  4  8  1  1  0  0  0
  4  7  1  0  0  0  0
  5  2  1  0  0  0  0
  6  4  1  0  0  0  0
  7  1  1  1  0  0  0
  9  7  1  0  0  0  0
  9  3  1  1  0  0  0
 10  5  1  1  0  0  0
 10 11  1  0  0  0  0
 10  4  1  0  0  0  0
 11 17  1  0  0  0  0
 11 19  1  1  0  0  0
 12 13  1  0  0  0  0
 13 20  1  0  0  0  0
 13 11  1  0  0  0  0
 14 18  1  1  0  0  0
 14 16  1  0  0  0  0
 15 12  1  0  0  0  0
 15 13  1  0  0  0  0
 17 16  1  0  0  0  0
 20 14  1  0  0  0  0
 21 24  1  0  0  0  0
 22 26  1  0  0  0  0
 23 25  2  0  0  0  0
 24 22  2  0  0  0  0
 25 22  1  0  0  0  0
 27 23  1  0  0  0  0
 28 21  2  0  0  0  0
 28 23  1  0  0  0  0
M  END
>  <MODEL>
9

>  <REMARK>
 VINA RESULT:      -5.0      3.996      7.205
  Name = 
  2 active torsions:
  status: ('A' for Active; 'I' for Inactive)
    1  A    between atoms: C_1  and  C_27
    2  A    between atoms: C_10  and  C_13
                            x       y       z     vdW  Elec       q    Type
                         _______ _______ _______ _____ _____    ______ ____

>  <TORSDO>
F 2

$$$$
