=
 OpenBabel10262423533D

 34 38  0  0  0  0  0  0  0  0999 V2000
  184.6990  178.7960  145.0070 C   0  0  0  0  0  0  0  0  0  0  0  0
  186.7030  177.4310  144.8850 C   0  0  0  0  0  0  0  0  0  0  0  0
  185.6440  178.3760  142.7830 C   0  0  0  0  0  0  0  0  0  0  0  0
  186.5210  178.3130  140.5220 C   0  0  0  0  0  0  0  0  0  0  0  0
  185.8360  178.1380  147.0360 C   0  0  0  0  0  3  0  0  0  0  0  0
  181.9950  176.9050  139.0040 C   0  0  0  0  0  2  0  0  0  0  0  0
  181.7480  177.9250  137.8970 C   0  0  0  0  0  2  0  0  0  0  0  0
  186.7750  177.4430  146.2800 C   0  0  0  0  0  3  0  0  0  0  0  0
  188.0280  178.0220  142.2250 N   0  0  0  0  0  0  0  0  0  0  0  0
  183.0130  179.2980  140.1810 N   0  0  0  0  0  0  0  0  0  0  0  0
  185.7200  178.2090  144.2070 C   0  0  0  0  0  0  0  0  0  0  0  0
  182.9560  178.8460  137.7610 C   0  0  0  0  0  2  0  0  0  0  0  0
  190.2310  177.7580  141.1900 N   0  0  0  0  0  2  0  0  0  0  0  0
  187.9640  178.1390  139.6850 S   0  0  0  0  0  0  0  0  0  0  0  0
  184.7840  178.7870  146.4000 C   0  0  0  0  0  3  0  0  0  0  0  0
  183.4190  179.3560  143.0450 C   0  0  0  0  0  3  0  0  0  0  0  0
  181.7270  178.8380  140.6970 C   0  0  0  0  0  2  0  0  0  0  0  0
  183.5690  179.3540  144.4240 C   0  0  0  0  0  3  0  0  0  0  0  0
  187.5500  176.5550  144.2200 O   0  0  0  0  0  1  0  0  0  0  0  0
  185.3290  178.6520  139.9880 N   0  0  0  0  0  0  0  0  0  0  0  0
  182.9970  179.9100  138.8570 C   0  0  0  0  0  2  0  0  0  0  0  0
  184.2630  178.9180  140.7940 C   0  0  0  0  0  0  0  0  0  0  0  0
  188.8190  177.9490  141.1280 C   0  0  0  0  0  0  0  0  0  0  0  0
  181.4840  177.3610  140.3760 C   0  0  0  0  0  2  0  0  0  0  0  0
  186.7230  178.1910  141.8860 C   0  0  0  0  0  0  0  0  0  0  0  0
  184.4220  178.8570  142.2090 C   0  0  0  0  0  0  0  0  0  0  0  0
  190.9240  177.6090  142.4570 C   0  0  0  0  0  2  0  0  0  0  0  0
  190.6520  176.2320  143.0210 C   0  0  0  0  0  2  0  0  0  0  0  0
  191.7290  175.8580  143.9220 N   0  0  0  0  0  2  0  0  0  0  0  0
  189.9690  176.6930  145.7020 O   0  0  0  0  0  0  0  0  0  0  0  0
  191.9820  178.0510  145.3860 O   0  0  0  0  0  0  0  0  0  0  0  0
  191.4470  176.6470  145.4370 S   0  0  0  0  0  0  0  0  0  0  0  0
  192.2610  176.5370  147.9080 O   0  0  0  0  0  1  0  0  0  0  0  0
  192.2490  175.7570  146.7540 C   0  0  0  0  0  2  0  0  0  0  0  0
  1 15  2  0  0  0  0
  2  8  1  0  0  0  0
  3 11  1  0  0  0  0
  4 25  1  0  0  0  0
  6 24  1  0  0  0  0
  7  6  1  0  0  0  0
  8  5  2  0  0  0  0
 10 17  1  0  0  0  0
 10 22  1  0  0  0  0
 11  2  2  0  0  0  0
 11  1  1  0  0  0  0
 12  7  1  0  0  0  0
 12 21  1  0  0  0  0
 13 27  1  0  0  0  0
 14  4  1  0  0  0  0
 14 23  1  0  0  0  0
 15  5  1  0  0  0  0
 16 18  2  0  0  0  0
 18  1  1  0  0  0  0
 19  2  1  0  0  0  0
 20  4  2  0  0  0  0
 20 22  1  0  0  0  0
 21 10  1  0  0  0  0
 22 26  2  0  0  0  0
 23 13  1  0  0  0  0
 23  9  2  0  0  0  0
 24 17  1  0  0  0  0
 25  9  1  0  0  0  0
 25  3  2  0  0  0  0
 26  3  1  0  0  0  0
 26 16  1  0  0  0  0
 27 28  1  0  0  0  0
 28 29  1  0  0  0  0
 29 32  1  0  0  0  0
 31 32  2  0  0  0  0
 32 30  2  0  0  0  0
 32 34  1  0  0  0  0
 34 33  1  0  0  0  0
M  END
>  <MODEL>
1

>  <REMARK>
 VINA RESULT:      -9.9      0.000      0.000
  Name = 
  5 active torsions:
  status: ('A' for Active; 'I' for Inactive)
    1  A    between atoms: C_3  and  C_13
    2  A    between atoms: C_3  and  N_17
    3  A    between atoms: C_13  and  N_33
    4  A    between atoms: C_14  and  S_34
    5  A    between atoms: N_33  and  S_34
                            x       y       z     vdW  Elec       q    Type
                         _______ _______ _______ _____ _____    ______ ____

>  <TORSDO>
F 5

$$$$
=
 OpenBabel10262423533D

 34 38  0  0  0  0  0  0  0  0999 V2000
  185.0650  178.8620  142.5020 C   0  0  0  0  0  0  0  0  0  0  0  0
  186.7520  177.7320  143.8330 C   0  0  0  0  0  0  0  0  0  0  0  0
  187.0860  178.0950  141.3450 C   0  0  0  0  0  0  0  0  0  0  0  0
  189.0830  177.6590  140.0380 C   0  0  0  0  0  0  0  0  0  0  0  0
  184.8420  178.7710  144.9070 C   0  0  0  0  0  3  0  0  0  0  0  0
  186.1640  175.4720  136.6510 C   0  0  0  0  0  2  0  0  0  0  0  0
  186.6100  176.2050  135.3900 C   0  0  0  0  0  2  0  0  0  0  0  0
  186.0250  178.0430  144.9860 C   0  0  0  0  0  3  0  0  0  0  0  0
  189.3600  177.8990  142.3010 N   0  0  0  0  0  0  0  0  0  0  0  0
  186.4050  178.1560  137.5940 N   0  0  0  0  0  0  0  0  0  0  0  0
  186.3420  178.2380  142.5650 C   0  0  0  0  0  0  0  0  0  0  0  0
  187.7090  177.2060  135.7330 C   0  0  0  0  0  2  0  0  0  0  0  0
  191.7550  177.6710  142.7540 N   0  0  0  0  0  2  0  0  0  0  0  0
  190.7420  177.4760  140.2080 S   0  0  0  0  0  0  0  0  0  0  0  0
  184.3490  179.1530  143.6650 C   0  0  0  0  0  3  0  0  0  0  0  0
  185.1280  178.8540  140.0940 C   0  0  0  0  0  3  0  0  0  0  0  0
  185.0400  177.6740  137.4020 C   0  0  0  0  0  2  0  0  0  0  0  0
  184.4750  179.1570  141.2790 C   0  0  0  0  0  3  0  0  0  0  0  0
  187.8020  176.8370  143.9750 O   0  0  0  0  0  1  0  0  0  0  0  0
  188.4080  177.7450  138.8720 N   0  0  0  0  0  0  0  0  0  0  0  0
  187.1540  178.4730  136.3830 C   0  0  0  0  0  2  0  0  0  0  0  0
  187.0820  178.0530  138.8640 C   0  0  0  0  0  0  0  0  0  0  0  0
  190.6290  177.6870  141.8790 C   0  0  0  0  0  0  0  0  0  0  0  0
  184.9810  176.1440  137.3590 C   0  0  0  0  0  2  0  0  0  0  0  0
  188.4780  177.8480  141.2680 C   0  0  0  0  0  0  0  0  0  0  0  0
  186.4140  178.3070  140.0970 C   0  0  0  0  0  0  0  0  0  0  0  0
  191.6090  177.8670  144.1850 C   0  0  0  0  0  2  0  0  0  0  0  0
  191.1320  176.5820  144.8240 C   0  0  0  0  0  2  0  0  0  0  0  0
  192.1170  176.1280  145.7910 N   0  0  0  0  0  2  0  0  0  0  0  0
  192.1630  177.2350  148.1860 O   0  0  0  0  0  0  0  0  0  0  0  0
  191.4550  174.8940  148.0410 O   0  0  0  0  0  0  0  0  0  0  0  0
  191.4000  176.2350  147.3630 S   0  0  0  0  0  0  0  0  0  0  0  0
  189.4730  177.8230  148.1040 O   0  0  0  0  0  1  0  0  0  0  0  0
  189.7040  176.7610  147.2310 C   0  0  0  0  0  2  0  0  0  0  0  0
  1 11  1  0  0  0  0
  1 15  2  0  0  0  0
  2 19  1  0  0  0  0
  2  8  1  0  0  0  0
  3 11  1  0  0  0  0
  4 14  1  0  0  0  0
  4 25  2  0  0  0  0
  5  8  2  0  0  0  0
  6 24  1  0  0  0  0
  7 12  1  0  0  0  0
  7  6  1  0  0  0  0
 10 22  1  0  0  0  0
 11  2  2  0  0  0  0
 12 21  1  0  0  0  0
 13 27  1  0  0  0  0
 14 23  1  0  0  0  0
 15  5  1  0  0  0  0
 16 26  1  0  0  0  0
 16 18  2  0  0  0  0
 17 10  1  0  0  0  0
 18  1  1  0  0  0  0
 20  4  1  0  0  0  0
 21 10  1  0  0  0  0
 22 20  2  0  0  0  0
 22 26  1  0  0  0  0
 23  9  2  0  0  0  0
 23 13  1  0  0  0  0
 24 17  1  0  0  0  0
 25  3  1  0  0  0  0
 25  9  1  0  0  0  0
 26  3  2  0  0  0  0
 27 28  1  0  0  0  0
 28 29  1  0  0  0  0
 29 32  1  0  0  0  0
 32 31  2  0  0  0  0
 32 30  2  0  0  0  0
 34 32  1  0  0  0  0
 34 33  1  0  0  0  0
M  END
>  <MODEL>
2

>  <REMARK>
 VINA RESULT:      -9.4      2.336      3.232
  Name = 
  5 active torsions:
  status: ('A' for Active; 'I' for Inactive)
    1  A    between atoms: C_3  and  C_13
    2  A    between atoms: C_3  and  N_17
    3  A    between atoms: C_13  and  N_33
    4  A    between atoms: C_14  and  S_34
    5  A    between atoms: N_33  and  S_34
                            x       y       z     vdW  Elec       q    Type
                         _______ _______ _______ _____ _____    ______ ____

>  <TORSDO>
F 5

$$$$
=
 OpenBabel10262423533D

 34 38  0  0  0  0  0  0  0  0999 V2000
  186.4330  178.2800  144.5300 C   0  0  0  0  0  0  0  0  0  0  0  0
  188.3530  176.9640  143.8400 C   0  0  0  0  0  0  0  0  0  0  0  0
  186.8470  178.0680  142.1230 C   0  0  0  0  0  0  0  0  0  0  0  0
  187.1890  178.2130  139.7250 C   0  0  0  0  0  0  0  0  0  0  0  0
  187.9970  177.4690  146.1850 C   0  0  0  0  0  3  0  0  0  0  0  0
  182.4330  176.8650  139.1520 C   0  0  0  0  0  2  0  0  0  0  0  0
  181.9440  177.9720  138.2230 C   0  0  0  0  0  2  0  0  0  0  0  0
  188.7390  176.8580  145.1790 C   0  0  0  0  0  3  0  0  0  0  0  0
  189.0420  177.8030  141.0110 N   0  0  0  0  0  0  0  0  0  0  0  0
  183.6980  179.1640  140.2730 N   0  0  0  0  0  0  0  0  0  0  0  0
  187.2440  177.7810  143.4720 C   0  0  0  0  0  0  0  0  0  0  0  0
  183.0930  178.9210  137.8980 C   0  0  0  0  0  2  0  0  0  0  0  0
  190.9520  177.6660  139.4860 N   0  0  0  0  0  2  0  0  0  0  0  0
  188.4050  178.1360  138.5720 S   0  0  0  0  0  0  0  0  0  0  0  0
  186.8310  178.1530  145.8620 C   0  0  0  0  0  3  0  0  0  0  0  0
  184.7420  178.9840  142.9640 C   0  0  0  0  0  3  0  0  0  0  0  0
  182.5610  178.6410  141.0240 C   0  0  0  0  0  2  0  0  0  0  0  0
  185.2010  178.8670  144.2680 C   0  0  0  0  0  3  0  0  0  0  0  0
  189.0240  176.1630  142.9270 O   0  0  0  0  0  1  0  0  0  0  0  0
  185.9080  178.5770  139.5060 N   0  0  0  0  0  0  0  0  0  0  0  0
  183.3840  179.8880  139.0450 C   0  0  0  0  0  2  0  0  0  0  0  0
  185.0540  178.7550  140.5520 C   0  0  0  0  0  0  0  0  0  0  0  0
  189.5640  177.8380  139.7620 C   0  0  0  0  0  0  0  0  0  0  0  0
  182.2470  177.1920  140.6380 C   0  0  0  0  0  2  0  0  0  0  0  0
  187.6950  177.9790  140.9920 C   0  0  0  0  0  0  0  0  0  0  0  0
  185.5290  178.5760  141.8830 C   0  0  0  0  0  0  0  0  0  0  0  0
  191.9140  177.4200  140.5460 C   0  0  0  0  0  2  0  0  0  0  0  0
  193.2340  176.9970  139.9410 C   0  0  0  0  0  2  0  0  0  0  0  0
  193.1380  177.0390  138.4920 N   0  0  0  0  0  2  0  0  0  0  0  0
  195.0760  175.2770  138.8110 O   0  0  0  0  0  0  0  0  0  0  0  0
  194.5540  175.9740  136.5220 O   0  0  0  0  0  0  0  0  0  0  0  0
  193.9680  175.6530  137.8680 S   0  0  0  0  0  0  0  0  0  0  0  0
  191.5350  174.7250  137.8940 O   0  0  0  0  0  1  0  0  0  0  0  0
  192.8430  174.2810  137.7120 C   0  0  0  0  0  2  0  0  0  0  0  0
  1 15  2  0  0  0  0
  2  8  1  0  0  0  0
  3 11  1  0  0  0  0
  4 25  1  0  0  0  0
  6 24  1  0  0  0  0
  7  6  1  0  0  0  0
  8  5  2  0  0  0  0
 10 22  1  0  0  0  0
 10 17  1  0  0  0  0
 11  2  2  0  0  0  0
 11  1  1  0  0  0  0
 12  7  1  0  0  0  0
 12 21  1  0  0  0  0
 13 23  1  0  0  0  0
 13 27  1  0  0  0  0
 14  4  1  0  0  0  0
 14 23  1  0  0  0  0
 15  5  1  0  0  0  0
 16 18  2  0  0  0  0
 18  1  1  0  0  0  0
 19  2  1  0  0  0  0
 20  4  2  0  0  0  0
 20 22  1  0  0  0  0
 21 10  1  0  0  0  0
 22 26  2  0  0  0  0
 23  9  2  0  0  0  0
 24 17  1  0  0  0  0
 25  9  1  0  0  0  0
 25  3  2  0  0  0  0
 26  3  1  0  0  0  0
 26 16  1  0  0  0  0
 28 27  1  0  0  0  0
 29 28  1  0  0  0  0
 31 32  2  0  0  0  0
 32 29  1  0  0  0  0
 32 30  2  0  0  0  0
 34 32  1  0  0  0  0
 34 33  1  0  0  0  0
M  END
>  <MODEL>
3

>  <REMARK>
 VINA RESULT:      -9.4      3.253      3.940
  Name = 
  5 active torsions:
  status: ('A' for Active; 'I' for Inactive)
    1  A    between atoms: C_3  and  C_13
    2  A    between atoms: C_3  and  N_17
    3  A    between atoms: C_13  and  N_33
    4  A    between atoms: C_14  and  S_34
    5  A    between atoms: N_33  and  S_34
                            x       y       z     vdW  Elec       q    Type
                         _______ _______ _______ _____ _____    ______ ____

>  <TORSDO>
F 5

$$$$
=
 OpenBabel10262423533D

 34 38  0  0  0  0  0  0  0  0999 V2000
  184.7060  178.7110  144.8670 C   0  0  0  0  0  0  0  0  0  0  0  0
  186.6790  177.4960  144.1420 C   0  0  0  0  0  0  0  0  0  0  0  0
  185.0310  178.4250  142.4530 C   0  0  0  0  0  0  0  0  0  0  0  0
  185.2590  178.4900  140.0380 C   0  0  0  0  0  0  0  0  0  0  0  0
  186.3900  178.0760  146.4790 C   0  0  0  0  0  3  0  0  0  0  0  0
  180.5840  176.8110  139.7350 C   0  0  0  0  0  2  0  0  0  0  0  0
  179.9830  177.8430  138.7870 C   0  0  0  0  0  2  0  0  0  0  0  0
  187.1280  177.4720  145.4650 C   0  0  0  0  0  3  0  0  0  0  0  0
  187.1880  178.2570  141.2550 N   0  0  0  0  0  0  0  0  0  0  0  0
  181.7390  179.2340  140.7060 N   0  0  0  0  0  0  0  0  0  0  0  0
  185.5030  178.2210  143.7940 C   0  0  0  0  0  0  0  0  0  0  0  0
  181.0510  178.8510  138.3730 C   0  0  0  0  0  2  0  0  0  0  0  0
  189.0370  178.1800  139.6510 N   0  0  0  0  0  2  0  0  0  0  0  0
  186.4270  178.4430  138.8350 S   0  0  0  0  0  0  0  0  0  0  0  0
  185.1680  178.6670  146.1830 C   0  0  0  0  0  3  0  0  0  0  0  0
  182.9070  179.2360  143.3520 C   0  0  0  0  0  3  0  0  0  0  0  0
  180.6720  178.6690  141.5280 C   0  0  0  0  0  2  0  0  0  0  0  0
  183.4280  179.2050  144.6380 C   0  0  0  0  0  3  0  0  0  0  0  0
  187.3630  176.7020  143.2330 O   0  0  0  0  0  1  0  0  0  0  0  0
  183.9490  178.7600  139.8640 N   0  0  0  0  0  0  0  0  0  0  0  0
  181.3250  179.8820  139.4660 C   0  0  0  0  0  2  0  0  0  0  0  0
  183.1300  178.9260  140.9390 C   0  0  0  0  0  0  0  0  0  0  0  0
  187.6530  178.2720  139.9820 C   0  0  0  0  0  0  0  0  0  0  0  0
  180.4410  177.1890  141.2150 C   0  0  0  0  0  2  0  0  0  0  0  0
  185.8330  178.3430  141.2890 C   0  0  0  0  0  0  0  0  0  0  0  0
  183.6720  178.8350  142.2540 C   0  0  0  0  0  0  0  0  0  0  0  0
  190.0570  178.0430  140.6750 C   0  0  0  0  0  2  0  0  0  0  0  0
  191.1610  177.1400  140.1700 C   0  0  0  0  0  2  0  0  0  0  0  0
  190.5770  175.9900  139.5000 N   0  0  0  0  0  2  0  0  0  0  0  0
  191.0740  176.5320  136.9660 O   0  0  0  0  0  0  0  0  0  0  0  0
  191.3700  174.2140  137.7010 O   0  0  0  0  0  0  0  0  0  0  0  0
  191.5330  175.6550  138.0970 S   0  0  0  0  0  0  0  0  0  0  0  0
  193.7300  176.9320  137.5270 O   0  0  0  0  0  1  0  0  0  0  0  0
  193.2510  175.9860  138.4300 C   0  0  0  0  0  2  0  0  0  0  0  0
  1 15  2  0  0  0  0
  2  8  1  0  0  0  0
  3 11  1  0  0  0  0
  4 25  1  0  0  0  0
  6 24  1  0  0  0  0
  7  6  1  0  0  0  0
  8  5  2  0  0  0  0
  9 25  1  0  0  0  0
 10 22  1  0  0  0  0
 10 17  1  0  0  0  0
 11  2  2  0  0  0  0
 11  1  1  0  0  0  0
 12  7  1  0  0  0  0
 12 21  1  0  0  0  0
 13 23  1  0  0  0  0
 13 27  1  0  0  0  0
 14 23  1  0  0  0  0
 14  4  1  0  0  0  0
 15  5  1  0  0  0  0
 16 18  2  0  0  0  0
 18  1  1  0  0  0  0
 19  2  1  0  0  0  0
 20  4  2  0  0  0  0
 20 22  1  0  0  0  0
 21 10  1  0  0  0  0
 22 26  2  0  0  0  0
 23  9  2  0  0  0  0
 24 17  1  0  0  0  0
 25  3  2  0  0  0  0
 26  3  1  0  0  0  0
 26 16  1  0  0  0  0
 28 27  1  0  0  0  0
 29 28  1  0  0  0  0
 30 32  2  0  0  0  0
 31 32  2  0  0  0  0
 32 34  1  0  0  0  0
 32 29  1  0  0  0  0
 33 34  1  0  0  0  0
M  END
>  <MODEL>
4

>  <REMARK>
 VINA RESULT:      -9.2      2.913      3.691
  Name = 
  5 active torsions:
  status: ('A' for Active; 'I' for Inactive)
    1  A    between atoms: C_3  and  C_13
    2  A    between atoms: C_3  and  N_17
    3  A    between atoms: C_13  and  N_33
    4  A    between atoms: C_14  and  S_34
    5  A    between atoms: N_33  and  S_34
                            x       y       z     vdW  Elec       q    Type
                         _______ _______ _______ _____ _____    ______ ____

>  <TORSDO>
F 5

$$$$
=
 OpenBabel10262423533D

 34 38  0  0  0  0  0  0  0  0999 V2000
  185.5110  178.7170  141.5460 C   0  0  0  0  0  0  0  0  0  0  0  0
  186.9070  177.7390  143.2740 C   0  0  0  0  0  0  0  0  0  0  0  0
  187.7340  177.9230  140.8830 C   0  0  0  0  0  0  0  0  0  0  0  0
  189.9600  177.4480  140.0420 C   0  0  0  0  0  0  0  0  0  0  0  0
  184.8070  178.8000  143.8570 C   0  0  0  0  0  3  0  0  0  0  0  0
  187.8160  174.9330  136.3220 C   0  0  0  0  0  2  0  0  0  0  0  0
  188.4990  175.5820  135.1230 C   0  0  0  0  0  2  0  0  0  0  0  0
  185.9580  178.1140  144.2290 C   0  0  0  0  0  3  0  0  0  0  0  0
  189.7690  177.8640  142.2890 N   0  0  0  0  0  0  0  0  0  0  0  0
  187.8260  177.6850  137.0790 N   0  0  0  0  0  0  0  0  0  0  0  0
  186.7570  178.1360  141.9140 C   0  0  0  0  0  0  0  0  0  0  0  0
  189.4930  176.6360  135.5990 C   0  0  0  0  0  2  0  0  0  0  0  0
  192.0260  177.7390  143.2300 N   0  0  0  0  0  2  0  0  0  0  0  0
  191.5520  177.3250  140.5570 S   0  0  0  0  0  0  0  0  0  0  0  0
  184.5710  179.0740  142.5150 C   0  0  0  0  0  3  0  0  0  0  0  0
  186.0600  178.5310  139.2080 C   0  0  0  0  0  3  0  0  0  0  0  0
  186.5350  177.1510  136.6550 C   0  0  0  0  0  2  0  0  0  0  0  0
  185.1770  178.9030  140.2110 C   0  0  0  0  0  3  0  0  0  0  0  0
  187.9180  176.8860  143.6950 O   0  0  0  0  0  1  0  0  0  0  0  0
  189.5340  177.4280  138.7620 N   0  0  0  0  0  0  0  0  0  0  0  0
  188.8010  177.9310  136.0220 C   0  0  0  0  0  2  0  0  0  0  0  0
  188.2330  177.6970  138.4630 C   0  0  0  0  0  0  0  0  0  0  0  0
  191.1010  177.6570  142.1480 C   0  0  0  0  0  0  0  0  0  0  0  0
  186.5050  175.6220  136.7220 C   0  0  0  0  0  2  0  0  0  0  0  0
  189.1160  177.7110  141.1080 C   0  0  0  0  0  0  0  0  0  0  0  0
  187.3260  178.0220  139.5130 C   0  0  0  0  0  0  0  0  0  0  0  0
  191.5910  178.0370  144.5830 C   0  0  0  0  0  2  0  0  0  0  0  0
  191.2450  176.7490  145.2970 C   0  0  0  0  0  2  0  0  0  0  0  0
  191.1550  176.9970  146.7260 N   0  0  0  0  0  2  0  0  0  0  0  0
  188.6650  176.1900  147.0580 O   0  0  0  0  0  0  0  0  0  0  0  0
  189.0080  178.3970  146.0530 O   0  0  0  0  0  0  0  0  0  0  0  0
  189.5170  177.4280  147.0830 S   0  0  0  0  0  0  0  0  0  0  0  0
  188.0990  178.1210  149.1550 O   0  0  0  0  0  1  0  0  0  0  0  0
  189.4140  178.1740  148.6970 C   0  0  0  0  0  2  0  0  0  0  0  0
  1 11  1  0  0  0  0
  1 15  2  0  0  0  0
  2 19  1  0  0  0  0
  2  8  1  0  0  0  0
  3 25  1  0  0  0  0
  3 11  1  0  0  0  0
  4 14  1  0  0  0  0
  4 25  2  0  0  0  0
  5  8  2  0  0  0  0
  6 24  1  0  0  0  0
  7 12  1  0  0  0  0
  7  6  1  0  0  0  0
 10 22  1  0  0  0  0
 11  2  2  0  0  0  0
 12 21  1  0  0  0  0
 13 27  1  0  0  0  0
 14 23  1  0  0  0  0
 15  5  1  0  0  0  0
 16 26  1  0  0  0  0
 16 18  2  0  0  0  0
 17 24  1  0  0  0  0
 17 10  1  0  0  0  0
 18  1  1  0  0  0  0
 20  4  1  0  0  0  0
 21 10  1  0  0  0  0
 22 20  2  0  0  0  0
 22 26  1  0  0  0  0
 23  9  2  0  0  0  0
 23 13  1  0  0  0  0
 25  9  1  0  0  0  0
 26  3  2  0  0  0  0
 27 28  1  0  0  0  0
 28 29  1  0  0  0  0
 29 32  1  0  0  0  0
 30 32  2  0  0  0  0
 31 32  2  0  0  0  0
 32 34  1  0  0  0  0
 34 33  1  0  0  0  0
M  END
>  <MODEL>
5

>  <REMARK>
 VINA RESULT:      -8.5      2.953      4.258
  Name = 
  5 active torsions:
  status: ('A' for Active; 'I' for Inactive)
    1  A    between atoms: C_3  and  C_13
    2  A    between atoms: C_3  and  N_17
    3  A    between atoms: C_13  and  N_33
    4  A    between atoms: C_14  and  S_34
    5  A    between atoms: N_33  and  S_34
                            x       y       z     vdW  Elec       q    Type
                         _______ _______ _______ _____ _____    ______ ____

>  <TORSDO>
F 5

$$$$
=
 OpenBabel10262423533D

 34 38  0  0  0  0  0  0  0  0999 V2000
  185.7640  177.3160  136.0570 C   0  0  0  0  0  0  0  0  0  0  0  0
  187.7140  178.2260  137.1810 C   0  0  0  0  0  0  0  0  0  0  0  0
  185.4420  178.2300  138.3100 C   0  0  0  0  0  0  0  0  0  0  0  0
  184.9250  178.8390  140.6010 C   0  0  0  0  0  0  0  0  0  0  0  0
  187.9550  177.0550  135.0720 C   0  0  0  0  0  3  0  0  0  0  0  0
  181.1210  181.5190  138.8350 C   0  0  0  0  0  2  0  0  0  0  0  0
  179.9820  180.9750  139.6910 C   0  0  0  0  0  2  0  0  0  0  0  0
  188.5140  177.7550  136.1370 C   0  0  0  0  0  3  0  0  0  0  0  0
  187.0980  178.2690  140.1470 N   0  0  0  0  0  0  0  0  0  0  0  0
  181.7030  178.7250  138.8700 N   0  0  0  0  0  0  0  0  0  0  0  0
  186.3230  177.9150  137.2210 C   0  0  0  0  0  0  0  0  0  0  0  0
  180.5170  179.9280  140.6620 C   0  0  0  0  0  2  0  0  0  0  0  0
  188.3280  178.4110  142.2600 N   0  0  0  0  0  2  0  0  0  0  0  0
  185.6460  178.9840  142.1090 S   0  0  0  0  0  0  0  0  0  0  0  0
  186.5800  176.8630  135.0190 C   0  0  0  0  0  3  0  0  0  0  0  0
  183.5310  177.6760  136.8890 C   0  0  0  0  0  3  0  0  0  0  0  0
  181.1510  179.2390  137.6200 C   0  0  0  0  0  2  0  0  0  0  0  0
  184.3880  177.2070  135.9030 C   0  0  0  0  0  3  0  0  0  0  0  0
  188.3120  179.0840  138.0930 O   0  0  0  0  0  1  0  0  0  0  0  0
  183.6040  178.9290  140.3400 N   0  0  0  0  0  0  0  0  0  0  0  0
  180.7670  178.5840  139.9800 C   0  0  0  0  0  2  0  0  0  0  0  0
  183.1250  178.6350  139.0990 C   0  0  0  0  0  0  0  0  0  0  0  0
  187.1430  178.5310  141.4750 C   0  0  0  0  0  0  0  0  0  0  0  0
  181.3060  180.7580  137.5160 C   0  0  0  0  0  2  0  0  0  0  0  0
  185.8550  178.4760  139.6420 C   0  0  0  0  0  0  0  0  0  0  0  0
  184.0270  178.2080  138.0820 C   0  0  0  0  0  0  0  0  0  0  0  0
  189.5930  178.0080  141.6710 C   0  0  0  0  0  2  0  0  0  0  0  0
  190.0880  176.7510  142.3500 C   0  0  0  0  0  2  0  0  0  0  0  0
  189.7180  176.7820  143.7550 N   0  0  0  0  0  2  0  0  0  0  0  0
  191.9810  178.0050  144.3420 O   0  0  0  0  0  0  0  0  0  0  0  0
  191.9870  175.5560  144.3630 O   0  0  0  0  0  0  0  0  0  0  0  0
  191.1790  176.7820  144.6850 S   0  0  0  0  0  0  0  0  0  0  0  0
  191.9800  176.9020  147.1600 O   0  0  0  0  0  1  0  0  0  0  0  0
  190.8000  176.8000  146.4250 C   0  0  0  0  0  2  0  0  0  0  0  0
  1 11  1  0  0  0  0
  2 11  1  0  0  0  0
  2 19  1  0  0  0  0
  3 25  1  0  0  0  0
  4 14  1  0  0  0  0
  5  8  1  0  0  0  0
  6  7  1  0  0  0  0
  7 12  1  0  0  0  0
  8  2  2  0  0  0  0
  9 23  2  0  0  0  0
 10 22  1  0  0  0  0
 10 21  1  0  0  0  0
 11  3  2  0  0  0  0
 15  5  2  0  0  0  0
 15  1  1  0  0  0  0
 16 26  2  0  0  0  0
 17 10  1  0  0  0  0
 18  1  2  0  0  0  0
 18 16  1  0  0  0  0
 20  4  1  0  0  0  0
 21 12  1  0  0  0  0
 22 20  2  0  0  0  0
 23 14  1  0  0  0  0
 23 13  1  0  0  0  0
 24 17  1  0  0  0  0
 24  6  1  0  0  0  0
 25  9  1  0  0  0  0
 25  4  2  0  0  0  0
 26  3  1  0  0  0  0
 26 22  1  0  0  0  0
 27 13  1  0  0  0  0
 27 28  1  0  0  0  0
 28 29  1  0  0  0  0
 29 32  1  0  0  0  0
 30 32  2  0  0  0  0
 31 32  2  0  0  0  0
 32 34  1  0  0  0  0
 34 33  1  0  0  0  0
M  END
>  <MODEL>
6

>  <REMARK>
 VINA RESULT:      -7.9      2.717      5.287
  Name = 
  5 active torsions:
  status: ('A' for Active; 'I' for Inactive)
    1  A    between atoms: C_3  and  C_13
    2  A    between atoms: C_3  and  N_17
    3  A    between atoms: C_13  and  N_33
    4  A    between atoms: C_14  and  S_34
    5  A    between atoms: N_33  and  S_34
                            x       y       z     vdW  Elec       q    Type
                         _______ _______ _______ _____ _____    ______ ____

>  <TORSDO>
F 5

$$$$
=
 OpenBabel10262423533D

 34 38  0  0  0  0  0  0  0  0999 V2000
  185.6060  178.6670  140.1920 C   0  0  0  0  0  0  0  0  0  0  0  0
  186.7390  178.0340  142.2430 C   0  0  0  0  0  0  0  0  0  0  0  0
  187.9020  177.8260  139.9990 C   0  0  0  0  0  0  0  0  0  0  0  0
  190.2250  177.2680  139.5770 C   0  0  0  0  0  0  0  0  0  0  0  0
  184.5770  179.1280  142.3300 C   0  0  0  0  0  3  0  0  0  0  0  0
  188.6360  174.1000  136.0820 C   0  0  0  0  0  2  0  0  0  0  0  0
  189.4850  174.5500  134.8980 C   0  0  0  0  0  2  0  0  0  0  0  0
  185.6630  178.5440  142.9740 C   0  0  0  0  0  3  0  0  0  0  0  0
  189.7130  178.0580  141.6670 N   0  0  0  0  0  0  0  0  0  0  0  0
  188.5400  176.9410  136.3450 N   0  0  0  0  0  0  0  0  0  0  0  0
  186.7860  178.1880  140.8270 C   0  0  0  0  0  0  0  0  0  0  0  0
  190.4010  175.6940  135.3210 C   0  0  0  0  0  2  0  0  0  0  0  0
  191.8110  178.1510  142.9270 N   0  0  0  0  0  2  0  0  0  0  0  0
  191.7260  177.2730  140.3250 S   0  0  0  0  0  0  0  0  0  0  0  0
  184.5370  179.1620  140.9410 C   0  0  0  0  0  3  0  0  0  0  0  0
  186.4870  178.0970  138.0230 C   0  0  0  0  0  3  0  0  0  0  0  0
  187.3220  176.3110  135.8420 C   0  0  0  0  0  2  0  0  0  0  0  0
  185.4690  178.6140  138.8110 C   0  0  0  0  0  3  0  0  0  0  0  0
  187.6790  177.2910  142.9440 O   0  0  0  0  0  1  0  0  0  0  0  0
  189.9880  177.0180  138.2720 N   0  0  0  0  0  0  0  0  0  0  0  0
  189.6570  177.0260  135.4100 C   0  0  0  0  0  2  0  0  0  0  0  0
  188.7430  177.2000  137.7500 C   0  0  0  0  0  0  0  0  0  0  0  0
  191.0510  177.8620  141.7550 C   0  0  0  0  0  0  0  0  0  0  0  0
  187.2830  174.8160  136.1670 C   0  0  0  0  0  2  0  0  0  0  0  0
  189.2370  177.6890  140.4500 C   0  0  0  0  0  0  0  0  0  0  0  0
  187.6950  177.6790  138.5880 C   0  0  0  0  0  0  0  0  0  0  0  0
  191.1860  178.6660  144.1320 C   0  0  0  0  0  2  0  0  0  0  0  0
  190.6180  177.5170  144.9360 C   0  0  0  0  0  2  0  0  0  0  0  0
  189.4950  177.9900  145.7270 N   0  0  0  0  0  2  0  0  0  0  0  0
  188.8160  176.1630  147.5060 O   0  0  0  0  0  0  0  0  0  0  0  0
  189.2760  178.4220  148.3320 O   0  0  0  0  0  0  0  0  0  0  0  0
  189.6870  177.3750  147.3340 S   0  0  0  0  0  0  0  0  0  0  0  0
  191.4860  175.5350  147.7340 O   0  0  0  0  0  1  0  0  0  0  0  0
  191.3840  176.9200  147.6200 C   0  0  0  0  0  2  0  0  0  0  0  0
  1 11  1  0  0  0  0
  1 15  2  0  0  0  0
  2 19  1  0  0  0  0
  2  8  1  0  0  0  0
  3 25  1  0  0  0  0
  3 11  1  0  0  0  0
  4 14  1  0  0  0  0
  4 25  2  0  0  0  0
  5  8  2  0  0  0  0
  6 24  1  0  0  0  0
  7 12  1  0  0  0  0
  7  6  1  0  0  0  0
  9 23  2  0  0  0  0
 10 22  1  0  0  0  0
 11  2  2  0  0  0  0
 12 21  1  0  0  0  0
 13 27  1  0  0  0  0
 14 23  1  0  0  0  0
 15  5  1  0  0  0  0
 16 26  1  0  0  0  0
 16 18  2  0  0  0  0
 17 24  1  0  0  0  0
 17 10  1  0  0  0  0
 18  1  1  0  0  0  0
 20  4  1  0  0  0  0
 21 10  1  0  0  0  0
 22 20  2  0  0  0  0
 22 26  1  0  0  0  0
 23 13  1  0  0  0  0
 25  9  1  0  0  0  0
 26  3  2  0  0  0  0
 27 28  1  0  0  0  0
 28 29  1  0  0  0  0
 29 32  1  0  0  0  0
 32 30  2  0  0  0  0
 32 34  1  0  0  0  0
 32 31  2  0  0  0  0
 34 33  1  0  0  0  0
M  END
>  <MODEL>
7

>  <REMARK>
 VINA RESULT:      -7.9      3.305      4.968
  Name = 
  5 active torsions:
  status: ('A' for Active; 'I' for Inactive)
    1  A    between atoms: C_3  and  C_13
    2  A    between atoms: C_3  and  N_17
    3  A    between atoms: C_13  and  N_33
    4  A    between atoms: C_14  and  S_34
    5  A    between atoms: N_33  and  S_34
                            x       y       z     vdW  Elec       q    Type
                         _______ _______ _______ _____ _____    ______ ____

>  <TORSDO>
F 5

$$$$
=
 OpenBabel10262423533D

 34 38  0  0  0  0  0  0  0  0999 V2000
  185.8750  178.5520  139.6740 C   0  0  0  0  0  0  0  0  0  0  0  0
  186.7960  178.0950  141.8740 C   0  0  0  0  0  0  0  0  0  0  0  0
  188.1820  177.7260  139.7820 C   0  0  0  0  0  0  0  0  0  0  0  0
  190.5380  177.1640  139.6430 C   0  0  0  0  0  0  0  0  0  0  0  0
  184.6320  179.1670  141.6540 C   0  0  0  0  0  3  0  0  0  0  0  0
  189.3260  173.7120  136.2680 C   0  0  0  0  0  2  0  0  0  0  0  0
  190.2900  174.0780  135.1440 C   0  0  0  0  0  2  0  0  0  0  0  0
  185.6490  178.6480  142.4490 C   0  0  0  0  0  3  0  0  0  0  0  0
  189.8130  178.1100  141.6010 N   0  0  0  0  0  0  0  0  0  0  0  0
  189.1920  176.5630  136.2930 N   0  0  0  0  0  0  0  0  0  0  0  0
  186.9860  178.1380  140.4620 C   0  0  0  0  0  0  0  0  0  0  0  0
  191.1530  175.2630  135.5650 C   0  0  0  0  0  2  0  0  0  0  0  0
  191.7710  178.3270  143.0550 N   0  0  0  0  0  2  0  0  0  0  0  0
  191.9560  177.2460  140.5360 S   0  0  0  0  0  0  0  0  0  0  0  0
  184.7340  179.0910  140.2690 C   0  0  0  0  0  3  0  0  0  0  0  0
  186.9740  177.8230  137.6580 C   0  0  0  0  0  3  0  0  0  0  0  0
  188.0350  175.8820  135.7210 C   0  0  0  0  0  2  0  0  0  0  0  0
  185.8790  178.3880  138.2950 C   0  0  0  0  0  3  0  0  0  0  0  0
  187.6620  177.4210  142.7230 O   0  0  0  0  0  1  0  0  0  0  0  0
  190.4360  176.8090  138.3450 N   0  0  0  0  0  0  0  0  0  0  0  0
  190.3980  176.5890  135.4730 C   0  0  0  0  0  2  0  0  0  0  0  0
  189.2500  176.9350  137.6870 C   0  0  0  0  0  0  0  0  0  0  0  0
  191.1360  177.9380  141.8390 C   0  0  0  0  0  0  0  0  0  0  0  0
  187.9680  174.4160  136.1580 C   0  0  0  0  0  2  0  0  0  0  0  0
  189.4640  177.6400  140.3750 C   0  0  0  0  0  0  0  0  0  0  0  0
  188.1200  177.4650  138.3740 C   0  0  0  0  0  0  0  0  0  0  0  0
  191.0250  178.9270  144.1460 C   0  0  0  0  0  2  0  0  0  0  0  0
  190.5870  177.8480  145.1120 C   0  0  0  0  0  2  0  0  0  0  0  0
  191.7530  177.2850  145.7700 N   0  0  0  0  0  2  0  0  0  0  0  0
  191.9910  177.2880  148.3970 O   0  0  0  0  0  0  0  0  0  0  0  0
  191.5140  175.1440  147.3130 O   0  0  0  0  0  0  0  0  0  0  0  0
  191.2360  176.6210  147.2830 S   0  0  0  0  0  0  0  0  0  0  0  0
  189.2930  178.1050  148.1820 O   0  0  0  0  0  1  0  0  0  0  0  0
  189.4920  176.8990  147.5120 C   0  0  0  0  0  2  0  0  0  0  0  0
  1 15  2  0  0  0  0
  1 11  1  0  0  0  0
  2  8  1  0  0  0  0
  2 19  1  0  0  0  0
  3 25  1  0  0  0  0
  3 11  1  0  0  0  0
  4 25  2  0  0  0  0
  4 14  1  0  0  0  0
  5  8  2  0  0  0  0
  7 12  1  0  0  0  0
  7  6  1  0  0  0  0
  9 23  2  0  0  0  0
 10 22  1  0  0  0  0
 11  2  2  0  0  0  0
 13 27  1  0  0  0  0
 14 23  1  0  0  0  0
 15  5  1  0  0  0  0
 16 18  2  0  0  0  0
 16 26  1  0  0  0  0
 17 24  1  0  0  0  0
 17 10  1  0  0  0  0
 18  1  1  0  0  0  0
 20  4  1  0  0  0  0
 21 12  1  0  0  0  0
 21 10  1  0  0  0  0
 22 20  2  0  0  0  0
 22 26  1  0  0  0  0
 23 13  1  0  0  0  0
 24  6  1  0  0  0  0
 25  9  1  0  0  0  0
 26  3  2  0  0  0  0
 27 28  1  0  0  0  0
 28 29  1  0  0  0  0
 29 32  1  0  0  0  0
 32 31  2  0  0  0  0
 32 34  1  0  0  0  0
 32 30  2  0  0  0  0
 34 33  1  0  0  0  0
M  END
>  <MODEL>
8

>  <REMARK>
 VINA RESULT:      -7.9      3.405      5.444
  Name = 
  5 active torsions:
  status: ('A' for Active; 'I' for Inactive)
    1  A    between atoms: C_3  and  C_13
    2  A    between atoms: C_3  and  N_17
    3  A    between atoms: C_13  and  N_33
    4  A    between atoms: C_14  and  S_34
    5  A    between atoms: N_33  and  S_34
                            x       y       z     vdW  Elec       q    Type
                         _______ _______ _______ _____ _____    ______ ____

>  <TORSDO>
F 5

$$$$
=
 OpenBabel10262423533D

 34 38  0  0  0  0  0  0  0  0999 V2000
  190.1470  176.8600  137.7510 C   0  0  0  0  0  0  0  0  0  0  0  0
  187.7600  176.5490  137.4370 C   0  0  0  0  0  0  0  0  0  0  0  0
  188.6690  177.5590  139.5790 C   0  0  0  0  0  0  0  0  0  0  0  0
  187.4120  178.5480  141.4030 C   0  0  0  0  0  0  0  0  0  0  0  0
  189.2950  176.1500  135.6030 C   0  0  0  0  0  3  0  0  0  0  0  0
  190.2570  175.9310  144.5370 C   0  0  0  0  0  2  0  0  0  0  0  0
  190.7240  177.0390  145.4740 C   0  0  0  0  0  2  0  0  0  0  0  0
  188.0010  176.1680  136.1140 C   0  0  0  0  0  3  0  0  0  0  0  0
  186.3530  178.4050  139.3750 N   0  0  0  0  0  0  0  0  0  0  0  0
  190.7960  178.0520  142.7050 N   0  0  0  0  0  0  0  0  0  0  0  0
  188.8260  177.0170  138.2580 C   0  0  0  0  0  0  0  0  0  0  0  0
  190.1120  178.3700  145.0490 C   0  0  0  0  0  2  0  0  0  0  0  0
  184.1340  179.3990  139.6580 N   0  0  0  0  0  2  0  0  0  0  0  0
  185.9230  179.2460  141.7360 S   0  0  0  0  0  0  0  0  0  0  0  0
  190.3670  176.4670  136.4300 C   0  0  0  0  0  3  0  0  0  0  0  0
  191.0880  177.4050  139.9010 C   0  0  0  0  0  3  0  0  0  0  0  0
  191.7770  176.9710  142.7260 C   0  0  0  0  0  2  0  0  0  0  0  0
  191.2530  177.0500  138.5700 C   0  0  0  0  0  3  0  0  0  0  0  0
  186.4760  176.3460  137.9250 O   0  0  0  0  0  1  0  0  0  0  0  0
  188.4760  178.5100  142.2330 N   0  0  0  0  0  0  0  0  0  0  0  0
  190.8230  178.9710  143.8380 C   0  0  0  0  0  2  0  0  0  0  0  0
  189.6800  178.0560  141.7890 C   0  0  0  0  0  0  0  0  0  0  0  0
  185.4120  179.0000  140.1470 C   0  0  0  0  0  0  0  0  0  0  0  0
  191.2030  175.6980  143.3520 C   0  0  0  0  0  2  0  0  0  0  0  0
  187.4710  178.1160  140.0890 C   0  0  0  0  0  0  0  0  0  0  0  0
  189.8170  177.6420  140.4320 C   0  0  0  0  0  0  0  0  0  0  0  0
  183.7420  179.1740  138.2780 C   0  0  0  0  0  2  0  0  0  0  0  0
  182.4630  178.3680  138.2420 C   0  0  0  0  0  2  0  0  0  0  0  0
  182.6680  177.1720  137.4420 N   0  0  0  0  0  2  0  0  0  0  0  0
  182.5560  176.2460  139.9110 O   0  0  0  0  0  0  0  0  0  0  0  0
  183.5220  174.7810  138.2020 O   0  0  0  0  0  0  0  0  0  0  0  0
  182.4530  175.8020  138.4790 S   0  0  0  0  0  0  0  0  0  0  0  0
  180.3760  174.5310  139.4020 O   0  0  0  0  0  1  0  0  0  0  0  0
  180.8530  175.0700  138.2090 C   0  0  0  0  0  2  0  0  0  0  0  0
  1 11  2  0  0  0  0
  1 18  1  0  0  0  0
  2 19  1  0  0  0  0
  2 11  1  0  0  0  0
  3 25  2  0  0  0  0
  3 26  1  0  0  0  0
  4 14  1  0  0  0  0
  4 20  2  0  0  0  0
  5  8  1  0  0  0  0
  5 15  2  0  0  0  0
  6  7  1  0  0  0  0
  8  2  2  0  0  0  0
  9 25  1  0  0  0  0
  9 23  2  0  0  0  0
 10 17  1  0  0  0  0
 10 21  1  0  0  0  0
 11  3  1  0  0  0  0
 12  7  1  0  0  0  0
 13 23  1  0  0  0  0
 15  1  1  0  0  0  0
 16 26  1  0  0  0  0
 17 24  1  0  0  0  0
 18 16  2  0  0  0  0
 21 12  1  0  0  0  0
 22 20  1  0  0  0  0
 22 10  1  0  0  0  0
 23 14  1  0  0  0  0
 24  6  1  0  0  0  0
 25  4  1  0  0  0  0
 26 22  2  0  0  0  0
 27 13  1  0  0  0  0
 28 27  1  0  0  0  0
 29 28  1  0  0  0  0
 29 32  1  0  0  0  0
 31 32  2  0  0  0  0
 32 30  2  0  0  0  0
 34 32  1  0  0  0  0
 34 33  1  0  0  0  0
M  END
>  <MODEL>
9

>  <REMARK>
 VINA RESULT:      -7.3      4.186      8.996
  Name = 
  5 active torsions:
  status: ('A' for Active; 'I' for Inactive)
    1  A    between atoms: C_3  and  C_13
    2  A    between atoms: C_3  and  N_17
    3  A    between atoms: C_13  and  N_33
    4  A    between atoms: C_14  and  S_34
    5  A    between atoms: N_33  and  S_34
                            x       y       z     vdW  Elec       q    Type
                         _______ _______ _______ _____ _____    ______ ____

>  <TORSDO>
F 5

$$$$
