=
 OpenBabel10272415223D

 34 38  0  0  1  0  0  0  0  0999 V2000
  187.2920  177.6040  145.2930 C   0  0  2  0  0  3  0  0  0  0  0  0
  191.0610  176.7140  145.7270 C   0  0  0  0  0  2  0  0  0  0  0  0
  189.1300  177.1360  147.3560 C   0  0  0  0  0  2  0  0  0  0  0  0
  186.4200  176.9010  143.1110 N   0  0  0  0  0  1  0  0  0  0  0  0
  186.3160  177.9190  144.1470 C   0  0  1  0  0  3  0  0  0  0  0  0
  185.7840  178.9060  146.8360 C   0  0  0  0  0  0  0  0  0  0  0  0
  185.5250  179.4310  147.9500 O   0  0  0  0  0  0  0  0  0  0  0  0
  184.7250  178.7050  145.9000 N   0  0  0  0  0  2  0  0  0  0  0  0
  184.8760  177.9130  144.6820 C   0  0  1  0  0  3  0  0  0  0  0  0
  188.1280  178.2430  147.5610 C   0  0  0  0  0  0  0  0  0  0  0  0
  187.2100  178.6460  146.4220 C   0  0  1  0  0  3  0  0  0  0  0  0
  188.1130  178.8450  148.6220 O   0  0  0  0  0  0  0  0  0  0  0  0
  191.7500  177.4950  144.6150 C   0  0  0  0  0  2  0  0  0  0  0  0
  191.5750  176.8270  143.3190 N   0  0  0  0  0  0  0  0  0  0  0  0
  190.1670  176.5390  143.0010 C   0  0  0  0  0  2  0  0  0  0  0  0
  189.6240  177.1270  145.9290 C   0  0  2  0  0  3  0  0  0  0  0  0
  189.2070  177.6240  143.4900 C   0  0  0  0  0  2  0  0  0  0  0  0
  188.7520  177.3900  144.9140 C   0  0  2  0  0  3  0  0  0  0  0  0
  181.6770  179.1790  143.0350 C   0  0  0  0  0  3  0  0  0  0  0  0
  184.2900  178.4170  142.3030 C   0  0  0  0  0  3  0  0  0  0  0  0
  182.2450  179.4720  139.3510 C   0  0  1  0  0  3  0  0  0  0  0  0
  181.2820  179.6240  140.5410 C   0  0  0  0  0  2  0  0  0  0  0  0
  182.0960  179.2200  141.7060 C   0  0  0  0  0  0  0  0  0  0  0  0
  183.5910  178.9570  139.8890 C   0  0  2  0  0  3  0  0  0  0  0  0
  183.3670  178.8510  141.3480 C   0  0  0  0  0  0  0  0  0  0  0  0
  184.5840  179.9020  139.6310 O   0  0  0  0  0  1  0  0  0  0  0  0
  183.8950  178.3700  143.6490 C   0  0  0  0  0  0  0  0  0  0  0  0
  182.5870  178.7530  144.0120 C   0  0  0  0  0  3  0  0  0  0  0  0
  181.6860  178.5310  138.3350 C   0  0  0  0  0  0  0  0  0  0  0  0
  180.5160  178.0790  138.4510 O   0  0  0  0  0  1  0  0  0  0  0  0
  182.4660  178.1510  137.2520 O   0  0  0  0  0  0  0  0  0  0  0  0
  192.0850  177.7260  142.2930 C   0  0  0  0  0  2  0  0  0  0  0  0
  192.5750  177.3630  139.9850 O   0  0  0  0  0  1  0  0  0  0  0  0
  191.5480  177.3260  140.9290 C   0  0  0  0  0  2  0  0  0  0  0  0
  1 11  1  0  0  0  0
  2 16  1  0  0  0  0
  3 10  1  0  0  0  0
  4  5  1  0  0  0  0
  5  9  1  0  0  0  0
  5  1  1  0  0  0  0
  6  7  2  0  0  0  0
  8  6  1  0  0  0  0
  9  8  1  0  0  0  0
 10 12  2  0  0  0  0
 11  6  1  0  0  0  0
 11 10  1  0  0  0  0
 13  2  1  0  0  0  0
 14 13  1  0  0  0  0
 15 14  1  0  0  0  0
 15 17  1  0  0  0  0
 16  3  1  0  0  0  0
 17 18  1  0  0  0  0
 18  1  1  0  0  0  0
 18 16  1  0  0  0  0
 19 28  1  0  0  0  0
 20 27  1  0  0  0  0
 21 24  1  0  0  0  0
 21 22  1  0  0  0  0
 22 23  1  0  0  0  0
 23 19  2  0  0  0  0
 24 25  1  0  0  0  0
 25 23  1  0  0  0  0
 25 20  2  0  0  0  0
 26 24  1  0  0  0  0
 27 28  2  0  0  0  0
 27  9  1  0  0  0  0
 29 30  1  0  0  0  0
 29 21  1  0  0  0  0
 31 29  2  0  0  0  0
 32 14  1  0  0  0  0
 33 34  1  0  0  0  0
 34 32  1  0  0  0  0
M  END
>  <MODEL>
1

>  <REMARK>
 VINA RESULT:      -9.4      0.000      0.000
  Name = 
  4 active torsions:
  status: ('A' for Active; 'I' for Inactive)
    1  A    between atoms: C_3  and  C_24
    2  A    between atoms: C_3  and  N_25
    3  A    between atoms: C_7  and  C_11
    4  A    between atoms: C_18  and  C_30
                            x       y       z     vdW  Elec       q    Type
                         _______ _______ _______ _____ _____    ______ ____

>  <TORSDO>
F 4

$$$$
=
 OpenBabel10272415223D

 34 38  0  0  1  0  0  0  0  0999 V2000
  186.6630  178.3840  143.1580 C   0  0  2  0  0  3  0  0  0  0  0  0
  183.0900  179.2090  144.4790 C   0  0  0  0  0  2  0  0  0  0  0  0
  185.3790  178.9120  145.5920 C   0  0  0  0  0  2  0  0  0  0  0  0
  186.9410  178.9970  140.7990 N   0  0  0  0  0  1  0  0  0  0  0  0
  187.3340  178.0350  141.8180 C   0  0  1  0  0  3  0  0  0  0  0  0
  188.5500  177.1950  144.3290 C   0  0  0  0  0  0  0  0  0  0  0  0
  189.0950  176.7310  145.3650 O   0  0  0  0  0  0  0  0  0  0  0  0
  189.3360  177.3730  143.1510 N   0  0  0  0  0  2  0  0  0  0  0  0
  188.8600  178.1000  141.9770 C   0  0  1  0  0  3  0  0  0  0  0  0
  186.4370  177.8400  145.5870 C   0  0  0  0  0  0  0  0  0  0  0  0
  187.0580  177.4020  144.2730 C   0  0  1  0  0  3  0  0  0  0  0  0
  186.7360  177.2920  146.6350 O   0  0  0  0  0  0  0  0  0  0  0  0
  182.1750  178.3590  143.6090 C   0  0  0  0  0  2  0  0  0  0  0  0
  182.0000  178.9660  142.2830 N   0  0  0  0  0  0  0  0  0  0  0  0
  183.2740  179.2700  141.6120 C   0  0  0  0  0  2  0  0  0  0  0  0
  184.5460  178.8390  144.3340 C   0  0  2  0  0  3  0  0  0  0  0  0
  184.3620  178.2320  141.8920 C   0  0  0  0  0  2  0  0  0  0  0  0
  185.1480  178.5470  143.1450 C   0  0  2  0  0  3  0  0  0  0  0  0
  189.5270  176.8290  138.4420 C   0  0  0  0  0  3  0  0  0  0  0  0
  190.9680  177.4940  140.7720 C   0  0  0  0  0  3  0  0  0  0  0  0
  193.2080  176.3380  138.0060 C   0  0  1  0  0  3  0  0  0  0  0  0
  191.7970  176.2520  137.3990 C   0  0  0  0  0  2  0  0  0  0  0  0
  190.9170  176.7210  138.4890 C   0  0  0  0  0  0  0  0  0  0  0  0
  193.0750  176.8430  139.4530 C   0  0  2  0  0  3  0  0  0  0  0  0
  191.6190  177.0450  139.6210 C   0  0  0  0  0  0  0  0  0  0  0  0
  193.7400  178.0630  139.5800 O   0  0  0  0  0  1  0  0  0  0  0  0
  189.5690  177.6150  140.7520 C   0  0  0  0  0  0  0  0  0  0  0  0
  188.8520  177.2820  139.5840 C   0  0  0  0  0  3  0  0  0  0  0  0
  193.8820  175.0050  137.9700 C   0  0  0  0  0  0  0  0  0  0  0  0
  193.2670  173.9840  137.5620 O   0  0  0  0  0  0  0  0  0  0  0  0
  195.1990  174.8930  138.3910 O   0  0  0  0  0  1  0  0  0  0  0  0
  181.2820  178.0060  141.4550 C   0  0  0  0  0  2  0  0  0  0  0  0
  179.9820  179.9880  141.1780 O   0  0  0  0  0  1  0  0  0  0  0  0
  179.9820  178.6110  140.9550 C   0  0  0  0  0  2  0  0  0  0  0  0
  1 11  1  0  0  0  0
  4  5  1  0  0  0  0
  5  9  1  0  0  0  0
  5  1  1  0  0  0  0
  6  7  2  0  0  0  0
  8  6  1  0  0  0  0
  9  8  1  0  0  0  0
 10  3  1  0  0  0  0
 10 12  2  0  0  0  0
 11  6  1  0  0  0  0
 11 10  1  0  0  0  0
 13  2  1  0  0  0  0
 14 13  1  0  0  0  0
 15 17  1  0  0  0  0
 15 14  1  0  0  0  0
 16  2  1  0  0  0  0
 16  3  1  0  0  0  0
 17 18  1  0  0  0  0
 18  1  1  0  0  0  0
 18 16  1  0  0  0  0
 19 23  2  0  0  0  0
 19 28  1  0  0  0  0
 21 24  1  0  0  0  0
 22 21  1  0  0  0  0
 22 23  1  0  0  0  0
 23 25  1  0  0  0  0
 24 26  1  0  0  0  0
 24 25  1  0  0  0  0
 25 20  2  0  0  0  0
 27 20  1  0  0  0  0
 27  9  1  0  0  0  0
 28 27  2  0  0  0  0
 29 21  1  0  0  0  0
 29 31  1  0  0  0  0
 30 29  2  0  0  0  0
 32 14  1  0  0  0  0
 34 33  1  0  0  0  0
 34 32  1  0  0  0  0
M  END
>  <MODEL>
2

>  <REMARK>
 VINA RESULT:      -9.3      2.502      8.301
  Name = 
  4 active torsions:
  status: ('A' for Active; 'I' for Inactive)
    1  A    between atoms: C_3  and  C_24
    2  A    between atoms: C_3  and  N_25
    3  A    between atoms: C_7  and  C_11
    4  A    between atoms: C_18  and  C_30
                            x       y       z     vdW  Elec       q    Type
                         _______ _______ _______ _____ _____    ______ ____

>  <TORSDO>
F 4

$$$$
=
 OpenBabel10272415223D

 34 38  0  0  1  0  0  0  0  0999 V2000
  183.6220  178.8270  140.7980 C   0  0  2  0  0  3  0  0  0  0  0  0
  182.4710  178.5260  137.0870 C   0  0  0  0  0  2  0  0  0  0  0  0
  181.4040  179.4780  139.2120 C   0  0  0  0  0  2  0  0  0  0  0  0
  186.0650  178.8040  141.0140 N   0  0  0  0  0  1  0  0  0  0  0  0
  184.8240  178.4040  141.6600 C   0  0  1  0  0  3  0  0  0  0  0  0
  182.2230  178.8580  142.8930 C   0  0  0  0  0  0  0  0  0  0  0  0
  181.1180  178.9590  143.4870 O   0  0  0  0  0  0  0  0  0  0  0  0
  183.4290  178.9870  143.6450 N   0  0  0  0  0  2  0  0  0  0  0  0
  184.7470  179.1040  143.0260 C   0  0  1  0  0  3  0  0  0  0  0  0
  181.1330  178.9520  140.5980 C   0  0  0  0  0  0  0  0  0  0  0  0
  182.2820  178.4390  141.4460 C   0  0  1  0  0  3  0  0  0  0  0  0
  179.9820  178.8870  140.9970 O   0  0  0  0  0  0  0  0  0  0  0  0
  183.0200  177.1760  136.6440 C   0  0  0  0  0  2  0  0  0  0  0  0
  184.4580  177.2630  136.3590 N   0  0  0  0  0  0  0  0  0  0  0  0
  185.2350  177.8370  137.4700 C   0  0  0  0  0  2  0  0  0  0  0  0
  182.5540  178.7310  138.5790 C   0  0  2  0  0  3  0  0  0  0  0  0
  184.7030  177.4340  138.8460 C   0  0  0  0  0  2  0  0  0  0  0  0
  183.6260  178.3730  139.3430 C   0  0  2  0  0  3  0  0  0  0  0  0
  186.6320  178.2570  146.2330 C   0  0  0  0  0  3  0  0  0  0  0  0
  186.9640  178.0220  143.4430 C   0  0  0  0  0  3  0  0  0  0  0  0
  189.8790  176.6360  145.3360 C   0  0  1  0  0  3  0  0  0  0  0  0
  188.9310  177.1410  146.4370 C   0  0  0  0  0  2  0  0  0  0  0  0
  187.7750  177.6750  145.6870 C   0  0  0  0  0  0  0  0  0  0  0  0
  189.2260  176.9250  143.9740 C   0  0  2  0  0  3  0  0  0  0  0  0
  187.9380  177.5580  144.3310 C   0  0  0  0  0  0  0  0  0  0  0  0
  188.9940  175.7220  143.3080 O   0  0  0  0  0  1  0  0  0  0  0  0
  185.8000  178.6100  143.9650 C   0  0  0  0  0  0  0  0  0  0  0  0
  185.6370  178.7250  145.3620 C   0  0  0  0  0  3  0  0  0  0  0  0
  191.2120  177.3050  145.4380 C   0  0  0  0  0  0  0  0  0  0  0  0
  192.0210  176.9910  146.3510 O   0  0  0  0  0  1  0  0  0  0  0  0
  191.5580  178.2830  144.5170 O   0  0  0  0  0  0  0  0  0  0  0  0
  184.9410  175.9070  136.1370 C   0  0  0  0  0  2  0  0  0  0  0  0
  184.3010  174.1100  137.5710 O   0  0  0  0  0  1  0  0  0  0  0  0
  183.8670  174.8980  136.5050 C   0  0  0  0  0  2  0  0  0  0  0  0
  1 11  1  0  0  0  0
  1  5  1  0  0  0  0
  2 16  1  0  0  0  0
  3 10  1  0  0  0  0
  4  5  1  0  0  0  0
  5  9  1  0  0  0  0
  6  7  2  0  0  0  0
  6  8  1  0  0  0  0
  9  8  1  0  0  0  0
  9 27  1  0  0  0  0
 10 12  2  0  0  0  0
 10 11  1  0  0  0  0
 11  6  1  0  0  0  0
 13  2  1  0  0  0  0
 14 13  1  0  0  0  0
 14 15  1  0  0  0  0
 15 17  1  0  0  0  0
 16  3  1  0  0  0  0
 16 18  1  0  0  0  0
 17 18  1  0  0  0  0
 18  1  1  0  0  0  0
 20 27  2  0  0  0  0
 20 25  1  0  0  0  0
 21 29  1  0  0  0  0
 21 22  1  0  0  0  0
 23 19  1  0  0  0  0
 23 22  1  0  0  0  0
 24 25  1  0  0  0  0
 24 21  1  0  0  0  0
 25 23  2  0  0  0  0
 26 24  1  0  0  0  0
 27 28  1  0  0  0  0
 28 19  2  0  0  0  0
 29 30  1  0  0  0  0
 31 29  2  0  0  0  0
 32 14  1  0  0  0  0
 32 34  1  0  0  0  0
 34 33  1  0  0  0  0
M  END
>  <MODEL>
3

>  <REMARK>
 VINA RESULT:      -9.2      2.828      8.347
  Name = 
  4 active torsions:
  status: ('A' for Active; 'I' for Inactive)
    1  A    between atoms: C_3  and  C_24
    2  A    between atoms: C_3  and  N_25
    3  A    between atoms: C_7  and  C_11
    4  A    between atoms: C_18  and  C_30
                            x       y       z     vdW  Elec       q    Type
                         _______ _______ _______ _____ _____    ______ ____

>  <TORSDO>
F 4

$$$$
=
 OpenBabel10272415223D

 34 38  0  0  1  0  0  0  0  0999 V2000
  188.3990  178.0380  143.9820 C   0  0  2  0  0  3  0  0  0  0  0  0
  185.7960  178.9840  146.7240 C   0  0  0  0  0  2  0  0  0  0  0  0
  188.2680  178.3160  146.7680 C   0  0  0  0  0  2  0  0  0  0  0  0
  187.8110  178.9660  141.7880 N   0  0  0  0  0  1  0  0  0  0  0  0
  188.4300  177.8310  142.4580 C   0  0  1  0  0  3  0  0  0  0  0  0
  190.4020  176.5200  144.1550 C   0  0  0  0  0  0  0  0  0  0  0  0
  191.2380  175.8600  144.8260 O   0  0  0  0  0  0  0  0  0  0  0  0
  190.6770  176.7970  142.7820 N   0  0  0  0  0  2  0  0  0  0  0  0
  189.8880  177.7310  141.9830 C   0  0  1  0  0  3  0  0  0  0  0  0
  189.0730  177.1640  146.2250 C   0  0  0  0  0  0  0  0  0  0  0  0
  189.0560  176.8700  144.7360 C   0  0  1  0  0  3  0  0  0  0  0  0
  189.6790  176.4420  146.9990 O   0  0  0  0  0  0  0  0  0  0  0  0
  184.4990  178.3600  146.2250 C   0  0  0  0  0  2  0  0  0  0  0  0
  183.9050  179.1700  145.1540 N   0  0  0  0  0  0  0  0  0  0  0  0
  184.8420  179.4510  144.0530 C   0  0  0  0  0  2  0  0  0  0  0  0
  187.0060  178.5070  145.9600 C   0  0  2  0  0  3  0  0  0  0  0  0
  185.7900  178.2880  143.7600 C   0  0  0  0  0  2  0  0  0  0  0  0
  187.0420  178.3400  144.6060 C   0  0  2  0  0  3  0  0  0  0  0  0
  188.9680  177.1860  138.3210 C   0  0  0  0  0  3  0  0  0  0  0  0
  191.1890  176.8670  140.0280 C   0  0  0  0  0  3  0  0  0  0  0  0
  191.9420  175.8180  136.5160 C   0  0  1  0  0  3  0  0  0  0  0  0
  190.4720  176.2670  136.4600 C   0  0  0  0  0  2  0  0  0  0  0  0
  190.1820  176.6930  137.8440 C   0  0  0  0  0  0  0  0  0  0  0  0
  192.4380  175.9890  137.9620 C   0  0  2  0  0  3  0  0  0  0  0  0
  191.2630  176.5380  138.6730 C   0  0  0  0  0  0  0  0  0  0  0  0
  193.4820  176.9130  137.9870 O   0  0  0  0  0  1  0  0  0  0  0  0
  189.9790  177.3690  140.5350 C   0  0  0  0  0  0  0  0  0  0  0  0
  188.8700  177.5290  139.6770 C   0  0  0  0  0  3  0  0  0  0  0  0
  192.0790  174.3980  136.0720 C   0  0  0  0  0  0  0  0  0  0  0  0
  192.9510  174.0700  135.2250 O   0  0  0  0  0  0  0  0  0  0  0  0
  191.2340  173.4320  136.6000 O   0  0  0  0  0  1  0  0  0  0  0  0
  182.7890  178.4130  144.6030 C   0  0  0  0  0  2  0  0  0  0  0  0
  180.8010  178.8990  143.3750 O   0  0  0  0  0  1  0  0  0  0  0  0
  182.1700  179.1630  143.4360 C   0  0  0  0  0  2  0  0  0  0  0  0
  1 18  1  0  0  0  0
  1 11  1  0  0  0  0
  4  5  1  0  0  0  0
  5  1  1  0  0  0  0
  6 11  1  0  0  0  0
  6  7  2  0  0  0  0
  8  6  1  0  0  0  0
  9  5  1  0  0  0  0
  9  8  1  0  0  0  0
 10  3  1  0  0  0  0
 10 12  2  0  0  0  0
 11 10  1  0  0  0  0
 13  2  1  0  0  0  0
 14 13  1  0  0  0  0
 15 14  1  0  0  0  0
 16  2  1  0  0  0  0
 16  3  1  0  0  0  0
 17 15  1  0  0  0  0
 17 18  1  0  0  0  0
 18 16  1  0  0  0  0
 19 28  1  0  0  0  0
 20 27  1  0  0  0  0
 21 24  1  0  0  0  0
 22 21  1  0  0  0  0
 22 23  1  0  0  0  0
 23 19  2  0  0  0  0
 23 25  1  0  0  0  0
 24 26  1  0  0  0  0
 24 25  1  0  0  0  0
 25 20  2  0  0  0  0
 27  9  1  0  0  0  0
 28 27  2  0  0  0  0
 29 21  1  0  0  0  0
 29 31  1  0  0  0  0
 30 29  2  0  0  0  0
 32 14  1  0  0  0  0
 33 34  1  0  0  0  0
 34 32  1  0  0  0  0
M  END
>  <MODEL>
4

>  <REMARK>
 VINA RESULT:      -9.1      2.911      7.673
  Name = 
  4 active torsions:
  status: ('A' for Active; 'I' for Inactive)
    1  A    between atoms: C_3  and  C_24
    2  A    between atoms: C_3  and  N_25
    3  A    between atoms: C_7  and  C_11
    4  A    between atoms: C_18  and  C_30
                            x       y       z     vdW  Elec       q    Type
                         _______ _______ _______ _____ _____    ______ ____

>  <TORSDO>
F 4

$$$$
=
 OpenBabel10272415223D

 34 38  0  0  1  0  0  0  0  0999 V2000
  189.2860  177.8150  139.5310 C   0  0  2  0  0  3  0  0  0  0  0  0
  190.5440  176.9980  135.9340 C   0  0  0  0  0  2  0  0  0  0  0  0
  188.6690  178.4670  136.8760 C   0  0  0  0  0  2  0  0  0  0  0  0
  191.0350  177.4880  141.2190 N   0  0  0  0  0  1  0  0  0  0  0  0
  189.6030  177.3940  140.9760 C   0  0  1  0  0  3  0  0  0  0  0  0
  186.9660  178.4290  140.2960 C   0  0  0  0  0  0  0  0  0  0  0  0
  185.7820  178.7940  140.0670 O   0  0  0  0  0  0  0  0  0  0  0  0
  187.4760  178.5240  141.6260 N   0  0  0  0  0  2  0  0  0  0  0  0
  188.8870  178.3380  141.9540 C   0  0  1  0  0  3  0  0  0  0  0  0
  187.5150  178.2500  137.8210 C   0  0  0  0  0  0  0  0  0  0  0  0
  187.7790  177.7460  139.2280 C   0  0  1  0  0  3  0  0  0  0  0  0
  186.3750  178.4230  137.4210 O   0  0  0  0  0  0  0  0  0  0  0  0
  190.9270  175.5260  136.0080 C   0  0  0  0  0  2  0  0  0  0  0  0
  192.2240  175.3550  136.6750 N   0  0  0  0  0  0  0  0  0  0  0  0
  192.2900  176.0090  137.9920 C   0  0  0  0  0  2  0  0  0  0  0  0
  189.7640  177.4610  137.1400 C   0  0  2  0  0  3  0  0  0  0  0  0
  190.9690  175.9470  138.7590 C   0  0  0  0  0  2  0  0  0  0  0  0
  190.0540  177.1040  138.4240 C   0  0  2  0  0  3  0  0  0  0  0  0
  188.0750  177.4970  145.5860 C   0  0  0  0  0  3  0  0  0  0  0  0
  190.2690  177.4020  143.8180 C   0  0  0  0  0  3  0  0  0  0  0  0
  191.1500  176.1540  147.2350 C   0  0  1  0  0  3  0  0  0  0  0  0
  189.6660  176.5430  147.3550 C   0  0  0  0  0  2  0  0  0  0  0  0
  189.3180  177.0230  146.0010 C   0  0  0  0  0  0  0  0  0  0  0  0
  191.6060  176.4510  145.7960 C   0  0  2  0  0  3  0  0  0  0  0  0
  190.3860  176.9740  145.1430 C   0  0  0  0  0  0  0  0  0  0  0  0
  192.0000  175.2630  145.1800 O   0  0  0  0  0  1  0  0  0  0  0  0
  189.0270  177.8820  143.3720 C   0  0  0  0  0  0  0  0  0  0  0  0
  187.9310  177.9280  144.2590 C   0  0  0  0  0  3  0  0  0  0  0  0
  191.9770  176.9120  148.2210 C   0  0  0  0  0  0  0  0  0  0  0  0
  191.5880  178.0240  148.6670 O   0  0  0  0  0  1  0  0  0  0  0  0
  193.1870  176.3840  148.6470 O   0  0  0  0  0  0  0  0  0  0  0  0
  192.4240  173.9260  136.8800 C   0  0  0  0  0  2  0  0  0  0  0  0
  194.4740  173.2030  137.8640 O   0  0  0  0  0  1  0  0  0  0  0  0
  193.8800  173.5600  136.6530 C   0  0  0  0  0  2  0  0  0  0  0  0
  1  5  1  0  0  0  0
  2 13  1  0  0  0  0
  2 16  1  0  0  0  0
  3 16  1  0  0  0  0
  3 10  1  0  0  0  0
  5  4  1  0  0  0  0
  5  9  1  0  0  0  0
  6  8  1  0  0  0  0
  7  6  2  0  0  0  0
  8  9  1  0  0  0  0
  9 27  1  0  0  0  0
 10 11  1  0  0  0  0
 11  1  1  0  0  0  0
 11  6  1  0  0  0  0
 12 10  2  0  0  0  0
 13 14  1  0  0  0  0
 14 32  1  0  0  0  0
 14 15  1  0  0  0  0
 15 17  1  0  0  0  0
 16 18  1  0  0  0  0
 18 17  1  0  0  0  0
 18  1  1  0  0  0  0
 19 23  1  0  0  0  0
 20 25  1  0  0  0  0
 21 22  1  0  0  0  0
 21 29  1  0  0  0  0
 23 22  1  0  0  0  0
 24 21  1  0  0  0  0
 25 24  1  0  0  0  0
 25 23  2  0  0  0  0
 26 24  1  0  0  0  0
 27 20  2  0  0  0  0
 27 28  1  0  0  0  0
 28 19  2  0  0  0  0
 29 31  2  0  0  0  0
 29 30  1  0  0  0  0
 34 32  1  0  0  0  0
 34 33  1  0  0  0  0
M  END
>  <MODEL>
5

>  <REMARK>
 VINA RESULT:      -9.0      3.611      8.740
  Name = 
  4 active torsions:
  status: ('A' for Active; 'I' for Inactive)
    1  A    between atoms: C_3  and  C_24
    2  A    between atoms: C_3  and  N_25
    3  A    between atoms: C_7  and  C_11
    4  A    between atoms: C_18  and  C_30
                            x       y       z     vdW  Elec       q    Type
                         _______ _______ _______ _____ _____    ______ ____

>  <TORSDO>
F 4

$$$$
=
 OpenBabel10272415223D

 34 38  0  0  1  0  0  0  0  0999 V2000
  186.7010  178.1350  138.2920 C   0  0  2  0  0  3  0  0  0  0  0  0
  189.4180  177.2770  135.6340 C   0  0  0  0  0  2  0  0  0  0  0  0
  186.9780  178.0460  135.5050 C   0  0  0  0  0  2  0  0  0  0  0  0
  187.6840  178.7940  140.4410 N   0  0  0  0  0  1  0  0  0  0  0  0
  186.5530  178.1160  139.8230 C   0  0  1  0  0  3  0  0  0  0  0  0
  184.1960  177.9270  138.1220 C   0  0  0  0  0  0  0  0  0  0  0  0
  183.1390  177.7640  137.4560 O   0  0  0  0  0  0  0  0  0  0  0  0
  184.1060  178.4320  139.4540 N   0  0  0  0  0  2  0  0  0  0  0  0
  185.2700  178.8610  140.2240 C   0  0  1  0  0  3  0  0  0  0  0  0
  185.6740  177.5630  136.0860 C   0  0  0  0  0  0  0  0  0  0  0  0
  185.5200  177.4420  137.5910 C   0  0  1  0  0  3  0  0  0  0  0  0
  184.7780  177.2140  135.3340 O   0  0  0  0  0  0  0  0  0  0  0  0
  190.1670  176.1000  136.2460 C   0  0  0  0  0  2  0  0  0  0  0  0
  191.0980  176.5560  137.2860 N   0  0  0  0  0  0  0  0  0  0  0  0
  190.4560  177.3960  138.3110 C   0  0  0  0  0  2  0  0  0  0  0  0
  188.1370  177.5990  136.3640 C   0  0  2  0  0  3  0  0  0  0  0  0
  189.0280  176.9590  138.6360 C   0  0  0  0  0  2  0  0  0  0  0  0
  188.0080  177.6000  137.7220 C   0  0  2  0  0  3  0  0  0  0  0  0
  183.4470  178.8690  143.5750 C   0  0  0  0  0  3  0  0  0  0  0  0
  186.0280  178.3680  142.5570 C   0  0  0  0  0  3  0  0  0  0  0  0
  185.8610  177.9240  146.2690 C   0  0  1  0  0  3  0  0  0  0  0  0
  184.4300  178.3350  145.8820 C   0  0  0  0  0  2  0  0  0  0  0  0
  184.4960  178.4970  144.4150 C   0  0  0  0  0  0  0  0  0  0  0  0
  186.7100  177.8850  144.9870 C   0  0  2  0  0  3  0  0  0  0  0  0
  185.7510  178.2510  143.9210 C   0  0  0  0  0  0  0  0  0  0  0  0
  187.1760  176.5880  144.7790 O   0  0  0  0  0  1  0  0  0  0  0  0
  184.9890  178.7380  141.6880 C   0  0  0  0  0  0  0  0  0  0  0  0
  183.6990  178.9870  142.2010 C   0  0  0  0  0  3  0  0  0  0  0  0
  186.4380  178.8830  147.2590 C   0  0  0  0  0  0  0  0  0  0  0  0
  185.8950  180.0010  147.4620 O   0  0  0  0  0  0  0  0  0  0  0  0
  187.5850  178.5370  147.9590 O   0  0  0  0  0  1  0  0  0  0  0  0
  191.6240  175.3710  137.9500 C   0  0  0  0  0  2  0  0  0  0  0  0
  193.8250  176.1530  138.4380 O   0  0  0  0  0  1  0  0  0  0  0  0
  193.1100  175.2290  137.6760 C   0  0  0  0  0  2  0  0  0  0  0  0
  1  5  1  0  0  0  0
  2 13  1  0  0  0  0
  2 16  1  0  0  0  0
  3 10  1  0  0  0  0
  3 16  1  0  0  0  0
  5  9  1  0  0  0  0
  5  4  1  0  0  0  0
  6  8  1  0  0  0  0
  7  6  2  0  0  0  0
  8  9  1  0  0  0  0
  9 27  1  0  0  0  0
 10 11  1  0  0  0  0
 11  6  1  0  0  0  0
 11  1  1  0  0  0  0
 12 10  2  0  0  0  0
 13 14  1  0  0  0  0
 14 32  1  0  0  0  0
 14 15  1  0  0  0  0
 15 17  1  0  0  0  0
 16 18  1  0  0  0  0
 18  1  1  0  0  0  0
 18 17  1  0  0  0  0
 19 23  1  0  0  0  0
 20 25  1  0  0  0  0
 21 29  1  0  0  0  0
 22 21  1  0  0  0  0
 23 22  1  0  0  0  0
 24 21  1  0  0  0  0
 25 23  2  0  0  0  0
 25 24  1  0  0  0  0
 26 24  1  0  0  0  0
 27 28  1  0  0  0  0
 27 20  2  0  0  0  0
 28 19  2  0  0  0  0
 29 30  2  0  0  0  0
 29 31  1  0  0  0  0
 34 32  1  0  0  0  0
 34 33  1  0  0  0  0
M  END
>  <MODEL>
6

>  <REMARK>
 VINA RESULT:      -9.0      3.322      7.553
  Name = 
  4 active torsions:
  status: ('A' for Active; 'I' for Inactive)
    1  A    between atoms: C_3  and  C_24
    2  A    between atoms: C_3  and  N_25
    3  A    between atoms: C_7  and  C_11
    4  A    between atoms: C_18  and  C_30
                            x       y       z     vdW  Elec       q    Type
                         _______ _______ _______ _____ _____    ______ ____

>  <TORSDO>
F 4

$$$$
=
 OpenBabel10272415223D

 34 38  0  0  1  0  0  0  0  0999 V2000
  189.0300  177.7320  138.8500 C   0  0  2  0  0  3  0  0  0  0  0  0
  191.0200  176.7140  135.6570 C   0  0  0  0  0  2  0  0  0  0  0  0
  189.0210  178.2540  136.0960 C   0  0  0  0  0  2  0  0  0  0  0  0
  190.3620  177.4700  140.8930 N   0  0  0  0  0  1  0  0  0  0  0  0
  189.0150  177.3820  140.3470 C   0  0  1  0  0  3  0  0  0  0  0  0
  186.6150  178.4150  139.0600 C   0  0  0  0  0  0  0  0  0  0  0  0
  185.5190  178.7830  138.5610 O   0  0  0  0  0  0  0  0  0  0  0  0
  186.8260  178.5720  140.4630 N   0  0  0  0  0  2  0  0  0  0  0  0
  188.1270  178.3840  141.0990 C   0  0  1  0  0  3  0  0  0  0  0  0
  187.6840  178.1010  136.7750 C   0  0  0  0  0  0  0  0  0  0  0  0
  187.6250  177.6670  138.2280 C   0  0  1  0  0  3  0  0  0  0  0  0
  186.6640  178.2680  136.1280 O   0  0  0  0  0  0  0  0  0  0  0  0
  191.3430  175.2420  135.8830 C   0  0  0  0  0  2  0  0  0  0  0  0
  192.4590  175.0890  136.8240 N   0  0  0  0  0  0  0  0  0  0  0  0
  192.2530  175.8100  138.0910 C   0  0  0  0  0  2  0  0  0  0  0  0
  190.0090  177.2490  136.6400 C   0  0  2  0  0  3  0  0  0  0  0  0
  190.7950  175.8040  138.5540 C   0  0  0  0  0  2  0  0  0  0  0  0
  190.0030  176.9540  137.9720 C   0  0  2  0  0  3  0  0  0  0  0  0
  186.5110  177.3110  144.3850 C   0  0  0  0  0  3  0  0  0  0  0  0
  189.0620  177.9700  143.3830 C   0  0  0  0  0  3  0  0  0  0  0  0
  189.1550  177.0880  147.0190 C   0  0  1  0  0  3  0  0  0  0  0  0
  187.6700  176.9500  146.6430 C   0  0  0  0  0  2  0  0  0  0  0  0
  187.6390  177.2860  145.2050 C   0  0  0  0  0  0  0  0  0  0  0  0
  189.9270  177.5260  145.7620 C   0  0  2  0  0  3  0  0  0  0  0  0
  188.8810  177.6050  144.7190 C   0  0  0  0  0  0  0  0  0  0  0  0
  190.8580  176.5440  145.4250 O   0  0  0  0  0  1  0  0  0  0  0  0
  187.9440  178.0010  142.5340 C   0  0  0  0  0  0  0  0  0  0  0  0
  186.6690  177.6700  143.0390 C   0  0  0  0  0  3  0  0  0  0  0  0
  189.3320  178.0810  148.1220 C   0  0  0  0  0  0  0  0  0  0  0  0
  190.4670  178.2840  148.6280 O   0  0  0  0  0  1  0  0  0  0  0  0
  188.2320  178.7840  148.5920 O   0  0  0  0  0  0  0  0  0  0  0  0
  192.5750  173.6710  137.1360 C   0  0  0  0  0  2  0  0  0  0  0  0
  194.6760  173.1960  138.1630 O   0  0  0  0  0  1  0  0  0  0  0  0
  194.0070  173.2040  136.9390 C   0  0  0  0  0  2  0  0  0  0  0  0
  1  5  1  0  0  0  0
  2 13  1  0  0  0  0
  2 16  1  0  0  0  0
  3 16  1  0  0  0  0
  3 10  1  0  0  0  0
  5  4  1  0  0  0  0
  5  9  1  0  0  0  0
  6  8  1  0  0  0  0
  7  6  2  0  0  0  0
  8  9  1  0  0  0  0
  9 27  1  0  0  0  0
 10 11  1  0  0  0  0
 11  1  1  0  0  0  0
 11  6  1  0  0  0  0
 12 10  2  0  0  0  0
 13 14  1  0  0  0  0
 14 32  1  0  0  0  0
 14 15  1  0  0  0  0
 15 17  1  0  0  0  0
 16 18  1  0  0  0  0
 18 17  1  0  0  0  0
 18  1  1  0  0  0  0
 19 23  1  0  0  0  0
 20 25  1  0  0  0  0
 21 29  1  0  0  0  0
 22 21  1  0  0  0  0
 23 22  1  0  0  0  0
 24 21  1  0  0  0  0
 25 23  2  0  0  0  0
 25 24  1  0  0  0  0
 26 24  1  0  0  0  0
 27 28  1  0  0  0  0
 27 20  2  0  0  0  0
 28 19  2  0  0  0  0
 29 31  2  0  0  0  0
 29 30  1  0  0  0  0
 34 32  1  0  0  0  0
 34 33  1  0  0  0  0
M  END
>  <MODEL>
7

>  <REMARK>
 VINA RESULT:      -9.0      3.599      8.323
  Name = 
  4 active torsions:
  status: ('A' for Active; 'I' for Inactive)
    1  A    between atoms: C_3  and  C_24
    2  A    between atoms: C_3  and  N_25
    3  A    between atoms: C_7  and  C_11
    4  A    between atoms: C_18  and  C_30
                            x       y       z     vdW  Elec       q    Type
                         _______ _______ _______ _____ _____    ______ ____

>  <TORSDO>
F 4

$$$$
=
 OpenBabel10272415223D

 34 38  0  0  1  0  0  0  0  0999 V2000
  188.0140  177.2880  142.8170 C   0  0  2  0  0  3  0  0  0  0  0  0
  186.6430  177.5840  146.4530 C   0  0  0  0  0  2  0  0  0  0  0  0
  185.5950  177.8230  144.1270 C   0  0  0  0  0  2  0  0  0  0  0  0
  190.0300  175.8950  142.6990 N   0  0  0  0  0  1  0  0  0  0  0  0
  189.3660  177.0540  142.1210 C   0  0  1  0  0  3  0  0  0  0  0  0
  187.2200  178.4450  140.7250 C   0  0  0  0  0  0  0  0  0  0  0  0
  186.3710  179.1190  140.0850 O   0  0  0  0  0  0  0  0  0  0  0  0
  188.2420  177.7540  140.0060 N   0  0  0  0  0  2  0  0  0  0  0  0
  189.1320  176.7780  140.6270 C   0  0  1  0  0  3  0  0  0  0  0  0
  185.9070  178.6310  142.8940 C   0  0  0  0  0  0  0  0  0  0  0  0
  187.2650  178.4970  142.2300 C   0  0  1  0  0  3  0  0  0  0  0  0
  185.0840  179.4310  142.4810 O   0  0  0  0  0  0  0  0  0  0  0  0
  187.7800  178.2480  147.2180 C   0  0  0  0  0  2  0  0  0  0  0  0
  188.8410  177.2800  147.5250 N   0  0  0  0  0  0  0  0  0  0  0  0
  189.3230  176.5540  146.3390 C   0  0  0  0  0  2  0  0  0  0  0  0
  186.8410  177.6240  144.9580 C   0  0  2  0  0  3  0  0  0  0  0  0
  189.3530  177.4180  145.0770 C   0  0  0  0  0  2  0  0  0  0  0  0
  188.0350  177.3990  144.3370 C   0  0  2  0  0  3  0  0  0  0  0  0
  192.7730  177.2860  139.6070 C   0  0  0  0  0  3  0  0  0  0  0  0
  190.4690  175.9520  138.6800 C   0  0  0  0  0  3  0  0  0  0  0  0
  193.4070  175.4400  136.4180 C   0  0  1  0  0  3  0  0  0  0  0  0
  193.9540  176.3450  137.5360 C   0  0  0  0  0  2  0  0  0  0  0  0
  192.7960  176.5340  138.4330 C   0  0  0  0  0  0  0  0  0  0  0  0
  191.9240  175.1590  136.7150 C   0  0  2  0  0  3  0  0  0  0  0  0
  191.6770  175.8830  137.9820 C   0  0  0  0  0  0  0  0  0  0  0  0
  191.7420  173.7900  136.9100 O   0  0  0  0  0  1  0  0  0  0  0  0
  190.4180  176.7010  139.8670 C   0  0  0  0  0  0  0  0  0  0  0  0
  191.5730  177.3660  140.3280 C   0  0  0  0  0  3  0  0  0  0  0  0
  193.5650  176.0930  135.0840 C   0  0  0  0  0  0  0  0  0  0  0  0
  192.5660  176.3010  134.3460 O   0  0  0  0  0  0  0  0  0  0  0  0
  194.8290  176.4730  134.6540 O   0  0  0  0  0  1  0  0  0  0  0  0
  189.9650  178.0250  148.0750 C   0  0  0  0  0  2  0  0  0  0  0  0
  192.1600  177.5430  148.8790 O   0  0  0  0  0  1  0  0  0  0  0  0
  191.2610  177.2660  147.8490 C   0  0  0  0  0  2  0  0  0  0  0  0
  1 18  1  0  0  0  0
  2 13  1  0  0  0  0
  3 16  1  0  0  0  0
  5  4  1  0  0  0  0
  5  1  1  0  0  0  0
  6 11  1  0  0  0  0
  7  6  2  0  0  0  0
  8  9  1  0  0  0  0
  8  6  1  0  0  0  0
  9  5  1  0  0  0  0
 10  3  1  0  0  0  0
 11  1  1  0  0  0  0
 11 10  1  0  0  0  0
 12 10  2  0  0  0  0
 13 14  1  0  0  0  0
 14 32  1  0  0  0  0
 15 14  1  0  0  0  0
 16  2  1  0  0  0  0
 17 15  1  0  0  0  0
 18 16  1  0  0  0  0
 18 17  1  0  0  0  0
 19 28  1  0  0  0  0
 20 27  1  0  0  0  0
 21 24  1  0  0  0  0
 21 22  1  0  0  0  0
 22 23  1  0  0  0  0
 23 19  2  0  0  0  0
 24 26  1  0  0  0  0
 24 25  1  0  0  0  0
 25 23  1  0  0  0  0
 25 20  2  0  0  0  0
 27 28  2  0  0  0  0
 27  9  1  0  0  0  0
 29 21  1  0  0  0  0
 30 29  2  0  0  0  0
 31 29  1  0  0  0  0
 34 32  1  0  0  0  0
 34 33  1  0  0  0  0
M  END
>  <MODEL>
8

>  <REMARK>
 VINA RESULT:      -8.8      3.285      7.995
  Name = 
  4 active torsions:
  status: ('A' for Active; 'I' for Inactive)
    1  A    between atoms: C_3  and  C_24
    2  A    between atoms: C_3  and  N_25
    3  A    between atoms: C_7  and  C_11
    4  A    between atoms: C_18  and  C_30
                            x       y       z     vdW  Elec       q    Type
                         _______ _______ _______ _____ _____    ______ ____

>  <TORSDO>
F 4

$$$$
=
 OpenBabel10272415223D

 34 38  0  0  1  0  0  0  0  0999 V2000
  188.7790  177.9860  144.2900 C   0  0  2  0  0  3  0  0  0  0  0  0
  186.1410  178.8840  147.0140 C   0  0  0  0  0  2  0  0  0  0  0  0
  188.6090  178.2000  147.0790 C   0  0  0  0  0  2  0  0  0  0  0  0
  188.2290  178.9670  142.1100 N   0  0  0  0  0  1  0  0  0  0  0  0
  188.8310  177.8140  142.7620 C   0  0  1  0  0  3  0  0  0  0  0  0
  190.7710  176.4520  144.4580 C   0  0  0  0  0  0  0  0  0  0  0  0
  191.5930  175.7720  145.1250 O   0  0  0  0  0  0  0  0  0  0  0  0
  191.0680  176.7590  143.0960 N   0  0  0  0  0  2  0  0  0  0  0  0
  190.2960  177.7160  142.3070 C   0  0  1  0  0  3  0  0  0  0  0  0
  189.4150  177.0550  146.5220 C   0  0  0  0  0  0  0  0  0  0  0  0
  189.4180  176.7960  145.0260 C   0  0  1  0  0  3  0  0  0  0  0  0
  190.0050  176.3120  147.2880 O   0  0  0  0  0  0  0  0  0  0  0  0
  184.8480  178.2790  146.4830 C   0  0  0  0  0  2  0  0  0  0  0  0
  184.2750  179.1170  145.4220 N   0  0  0  0  0  0  0  0  0  0  0  0
  185.2290  179.4180  144.3420 C   0  0  0  0  0  2  0  0  0  0  0  0
  187.3600  178.4180  146.2580 C   0  0  2  0  0  3  0  0  0  0  0  0
  186.1750  178.2560  144.0360 C   0  0  0  0  0  2  0  0  0  0  0  0
  187.4150  178.2810  144.9020 C   0  0  2  0  0  3  0  0  0  0  0  0
  191.7550  176.8680  138.8860 C   0  0  0  0  0  3  0  0  0  0  0  0
  189.2370  177.2880  140.0810 C   0  0  0  0  0  3  0  0  0  0  0  0
  188.9580  176.5000  136.4330 C   0  0  1  0  0  3  0  0  0  0  0  0
  190.4730  176.4740  136.7020 C   0  0  0  0  0  2  0  0  0  0  0  0
  190.5780  176.7720  138.1450 C   0  0  0  0  0  0  0  0  0  0  0  0
  188.2450  176.8390  137.7530 C   0  0  2  0  0  3  0  0  0  0  0  0
  189.3530  176.9750  138.7240 C   0  0  0  0  0  0  0  0  0  0  0  0
  187.4220  175.7750  138.1210 O   0  0  0  0  0  1  0  0  0  0  0  0
  190.4060  177.3870  140.8520 C   0  0  0  0  0  0  0  0  0  0  0  0
  191.6650  177.1750  140.2510 C   0  0  0  0  0  3  0  0  0  0  0  0
  188.6250  177.5040  135.3780 C   0  0  0  0  0  0  0  0  0  0  0  0
  187.4940  178.0560  135.3500 O   0  0  0  0  0  1  0  0  0  0  0  0
  189.5740  177.8290  134.4190 O   0  0  0  0  0  0  0  0  0  0  0  0
  183.1630  178.3800  144.8370 C   0  0  0  0  0  2  0  0  0  0  0  0
  181.2140  178.8600  143.5460 O   0  0  0  0  0  1  0  0  0  0  0  0
  182.5710  179.1570  143.6730 C   0  0  0  0  0  2  0  0  0  0  0  0
  1 18  1  0  0  0  0
  1 11  1  0  0  0  0
  4  5  1  0  0  0  0
  5  1  1  0  0  0  0
  6 11  1  0  0  0  0
  6  7  2  0  0  0  0
  8  6  1  0  0  0  0
  9  5  1  0  0  0  0
  9  8  1  0  0  0  0
 10  3  1  0  0  0  0
 10 12  2  0  0  0  0
 11 10  1  0  0  0  0
 13  2  1  0  0  0  0
 14 13  1  0  0  0  0
 15 14  1  0  0  0  0
 16  2  1  0  0  0  0
 16  3  1  0  0  0  0
 17 15  1  0  0  0  0
 17 18  1  0  0  0  0
 18 16  1  0  0  0  0
 19 28  1  0  0  0  0
 20 27  1  0  0  0  0
 21 22  1  0  0  0  0
 21 24  1  0  0  0  0
 22 23  1  0  0  0  0
 23 25  1  0  0  0  0
 23 19  2  0  0  0  0
 24 26  1  0  0  0  0
 24 25  1  0  0  0  0
 25 20  2  0  0  0  0
 27  9  1  0  0  0  0
 28 27  2  0  0  0  0
 29 21  1  0  0  0  0
 30 29  1  0  0  0  0
 31 29  2  0  0  0  0
 32 14  1  0  0  0  0
 33 34  1  0  0  0  0
 34 32  1  0  0  0  0
M  END
>  <MODEL>
9

>  <REMARK>
 VINA RESULT:      -8.7      3.101      6.853
  Name = 
  4 active torsions:
  status: ('A' for Active; 'I' for Inactive)
    1  A    between atoms: C_3  and  C_24
    2  A    between atoms: C_3  and  N_25
    3  A    between atoms: C_7  and  C_11
    4  A    between atoms: C_18  and  C_30
                            x       y       z     vdW  Elec       q    Type
                         _______ _______ _______ _____ _____    ______ ____

>  <TORSDO>
F 4

$$$$
