=
 OpenBabel10272400223D

 31 35  0  0  1  0  0  0  0  0999 V2000
  186.7350  178.2870  138.6820 C   0  0  2  0  0  3  0  0  0  0  0  0
  184.1910  178.8580  141.5270 C   0  0  2  0  0  3  0  0  0  0  0  0
  182.8320  178.2650  141.0650 C   0  0  1  0  0  3  0  0  0  0  0  0
  181.9260  176.3850  139.5930 C   0  0  0  0  0  2  0  0  0  0  0  0
  185.4190  178.3050  140.7910 C   0  0  1  0  0  3  0  0  0  0  0  0
  187.8220  178.8900  139.3450 O   0  0  0  0  0  0  0  0  0  0  0  0
  182.9040  176.7820  140.7110 C   0  0  0  0  0  2  0  0  0  0  0  0
  185.6580  178.7150  143.7560 C   0  0  1  0  0  3  0  0  0  0  0  0
  186.7490  178.6560  137.2800 N   0  0  0  0  0  1  0  0  0  0  0  0
  181.9550  179.5940  143.0660 C   0  0  0  0  0  2  0  0  0  0  0  0
  180.6330  177.2000  139.5170 C   0  0  0  0  0  2  0  0  0  0  0  0
  186.7610  178.1510  142.8470 C   0  0  0  0  0  2  0  0  0  0  0  0
  184.3350  178.9350  143.0420 C   0  0  0  0  0  0  0  0  0  0  0  0
  185.4140  178.7270  139.3220 C   0  0  0  0  0  2  0  0  0  0  0  0
  179.9820  177.2860  140.8190 N   0  0  0  0  0  2  0  0  0  0  0  0
  186.7070  178.7680  141.4640 C   0  0  1  0  0  3  0  0  0  0  0  0
  187.8950  178.3030  140.6240 C   0  0  0  0  0  2  0  0  0  0  0  0
  183.2690  179.3390  143.7510 C   0  0  0  0  0  3  0  0  0  0  0  0
  181.7020  178.4380  142.1020 C   0  0  1  0  0  3  0  0  0  0  0  0
  180.3510  178.5630  141.4180 C   0  0  0  0  0  2  0  0  0  0  0  0
  185.4730  177.7840  144.9520 C   0  0  0  0  0  2  0  0  0  0  0  0
  189.9270  177.0890  147.4560 C   0  0  2  0  0  3  0  0  0  0  0  0
  188.1210  176.8260  145.7860 C   0  0  0  0  0  2  0  0  0  0  0  0
  187.4930  177.2240  148.8630 O   0  0  0  0  0  1  0  0  0  0  0  0
  185.5510  179.1860  146.8700 O   0  0  0  0  0  0  0  0  0  0  0  0
  191.4270  177.1450  147.6500 C   0  0  0  0  0  1  0  0  0  0  0  0
  186.1430  178.3210  146.1780 C   0  0  0  0  0  0  0  0  0  0  0  0
  189.6270  176.9320  145.9720 C   0  0  0  0  0  2  0  0  0  0  0  0
  187.9380  178.1620  147.9240 C   0  0  2  0  0  3  0  0  0  0  0  0
  187.4350  177.8400  146.5820 N   0  0  0  0  0  0  0  0  0  0  0  0
  189.3490  178.2830  147.9410 O   0  0  0  0  0  0  0  0  0  0  0  0
  1  9  1  6  0  0  0
  1 14  1  0  0  0  0
  1  6  1  0  0  0  0
  2 13  1  1  0  0  0
  3  7  1  1  0  0  0
  3  2  1  0  0  0  0
  3 19  1  0  0  0  0
  4  7  1  0  0  0  0
  5 14  1  6  0  0  0
  5 16  1  0  0  0  0
  5  2  1  0  0  0  0
  6 17  1  0  0  0  0
  8 21  1  1  0  0  0
 10 18  1  0  0  0  0
 11  4  1  0  0  0  0
 11 15  1  0  0  0  0
 12  8  1  0  0  0  0
 13 18  2  0  0  0  0
 13  8  1  0  0  0  0
 15 20  1  0  0  0  0
 16 17  1  6  0  0  0
 16 12  1  0  0  0  0
 19 20  1  6  0  0  0
 19 10  1  0  0  0  0
 21 27  1  0  0  0  0
 22 26  1  6  0  0  0
 22 31  1  0  0  0  0
 23 28  1  0  0  0  0
 23 30  1  0  0  0  0
 27 30  1  0  0  0  0
 27 25  2  0  0  0  0
 28 22  1  0  0  0  0
 29 31  1  0  0  0  0
 29 24  1  1  0  0  0
 30 29  1  0  0  0  0
M  END
>  <MODEL>
1

>  <REMARK>
 VINA RESULT:      -8.9      0.000      0.000
  Name = 
  2 active torsions:
  status: ('A' for Active; 'I' for Inactive)
    1  A    between atoms: C_9  and  C_23
    2  A    between atoms: C_15  and  C_23
                            x       y       z     vdW  Elec       q    Type
                         _______ _______ _______ _____ _____    ______ ____

>  <TORSDO>
F 2

$$$$
=
 OpenBabel10272400223D

 31 35  0  0  1  0  0  0  0  0999 V2000
  189.0090  177.5280  137.4880 C   0  0  2  0  0  3  0  0  0  0  0  0
  185.4990  178.5420  138.7330 C   0  0  2  0  0  3  0  0  0  0  0  0
  184.4590  177.8760  137.7910 C   0  0  1  0  0  3  0  0  0  0  0  0
  184.1880  175.7770  136.3630 C   0  0  0  0  0  2  0  0  0  0  0  0
  186.8850  177.8830  138.7310 C   0  0  1  0  0  3  0  0  0  0  0  0
  189.7170  178.2360  138.4790 O   0  0  0  0  0  0  0  0  0  0  0  0
  184.5790  176.3550  137.7320 C   0  0  0  0  0  2  0  0  0  0  0  0
  185.7840  178.7720  141.3800 C   0  0  1  0  0  3  0  0  0  0  0  0
  189.6820  177.6630  136.2120 N   0  0  0  0  0  1  0  0  0  0  0  0
  182.8670  179.5090  138.9490 C   0  0  0  0  0  2  0  0  0  0  0  0
  183.1310  176.5630  135.5840 C   0  0  0  0  0  2  0  0  0  0  0  0
  187.1360  178.0730  141.1710 C   0  0  0  0  0  2  0  0  0  0  0  0
  184.9470  178.8660  140.1150 C   0  0  0  0  0  0  0  0  0  0  0  0
  187.5760  178.0600  137.3800 C   0  0  0  0  0  2  0  0  0  0  0  0
  181.9680  176.8570  136.4140 N   0  0  0  0  0  2  0  0  0  0  0  0
  187.7580  178.4560  139.8430 C   0  0  1  0  0  3  0  0  0  0  0  0
  189.1610  177.8650  139.7200 C   0  0  0  0  0  2  0  0  0  0  0  0
  183.7060  179.3760  140.1880 C   0  0  0  0  0  3  0  0  0  0  0  0
  182.9970  178.2100  138.1580 C   0  0  1  0  0  3  0  0  0  0  0  0
  182.1150  178.2160  136.9210 C   0  0  0  0  0  2  0  0  0  0  0  0
  185.0120  178.0470  142.4800 C   0  0  0  0  0  2  0  0  0  0  0  0
  187.2710  177.8970  147.1130 C   0  0  2  0  0  3  0  0  0  0  0  0
  186.6350  177.2780  144.8040 C   0  0  0  0  0  2  0  0  0  0  0  0
  184.5070  178.3740  146.8760 O   0  0  0  0  0  1  0  0  0  0  0  0
  184.2320  179.8490  143.8200 O   0  0  0  0  0  0  0  0  0  0  0  0
  188.4210  177.9820  148.0930 C   0  0  0  0  0  1  0  0  0  0  0  0
  184.9810  178.8430  143.7470 C   0  0  0  0  0  0  0  0  0  0  0  0
  187.8010  177.4090  145.7720 C   0  0  0  0  0  2  0  0  0  0  0  0
  185.5090  179.0690  146.1890 C   0  0  2  0  0  3  0  0  0  0  0  0
  185.7720  178.4540  144.8810 N   0  0  0  0  0  0  0  0  0  0  0  0
  186.6900  179.1760  146.9650 O   0  0  0  0  0  0  0  0  0  0  0  0
  1  9  1  6  0  0  0
  1  6  1  0  0  0  0
  2 13  1  1  0  0  0
  3  7  1  1  0  0  0
  3 19  1  0  0  0  0
  3  2  1  0  0  0  0
  4  7  1  0  0  0  0
  5 14  1  6  0  0  0
  5  2  1  0  0  0  0
  5 16  1  0  0  0  0
  6 17  1  0  0  0  0
  8 21  1  1  0  0  0
 10 18  1  0  0  0  0
 11  4  1  0  0  0  0
 11 15  1  0  0  0  0
 12  8  1  0  0  0  0
 13 18  2  0  0  0  0
 13  8  1  0  0  0  0
 14  1  1  0  0  0  0
 15 20  1  0  0  0  0
 16 17  1  1  0  0  0
 16 12  1  0  0  0  0
 19 20  1  6  0  0  0
 19 10  1  0  0  0  0
 21 27  1  0  0  0  0
 22 26  1  1  0  0  0
 23 30  1  0  0  0  0
 23 28  1  0  0  0  0
 27 25  2  0  0  0  0
 27 30  1  0  0  0  0
 28 22  1  0  0  0  0
 29 24  1  1  0  0  0
 29 31  1  0  0  0  0
 30 29  1  0  0  0  0
 31 22  1  0  0  0  0
M  END
>  <MODEL>
2

>  <REMARK>
 VINA RESULT:      -8.7      2.225      3.208
  Name = 
  2 active torsions:
  status: ('A' for Active; 'I' for Inactive)
    1  A    between atoms: C_9  and  C_23
    2  A    between atoms: C_15  and  C_23
                            x       y       z     vdW  Elec       q    Type
                         _______ _______ _______ _____ _____    ______ ____

>  <TORSDO>
F 2

$$$$
=
 OpenBabel10272400223D

 31 35  0  0  1  0  0  0  0  0999 V2000
  186.9130  178.0870  147.2030 C   0  0  2  0  0  3  0  0  0  0  0  0
  186.9560  178.4400  143.3600 C   0  0  2  0  0  3  0  0  0  0  0  0
  188.1670  177.6250  142.8300 C   0  0  1  0  0  3  0  0  0  0  0  0
  189.5280  175.5480  143.4220 C   0  0  0  0  0  2  0  0  0  0  0  0
  186.4680  178.0340  144.7570 C   0  0  1  0  0  3  0  0  0  0  0  0
  185.7680  178.8830  147.4020 O   0  0  0  0  0  0  0  0  0  0  0  0
  188.1280  176.1510  143.2230 C   0  0  0  0  0  2  0  0  0  0  0  0
  184.3770  178.6500  142.6930 C   0  0  1  0  0  3  0  0  0  0  0  0
  187.8930  178.3690  148.2320 N   0  0  0  0  0  1  0  0  0  0  0  0
  187.6720  178.9260  140.6830 C   0  0  0  0  0  2  0  0  0  0  0  0
  190.6440  176.1550  142.5700 C   0  0  0  0  0  2  0  0  0  0  0  0
  184.0940  178.2040  144.1350 C   0  0  0  0  0  2  0  0  0  0  0  0
  185.8520  178.6280  142.3270 C   0  0  0  0  0  0  0  0  0  0  0  0
  187.5150  178.3620  145.8210 C   0  0  0  0  0  2  0  0  0  0  0  0
  190.2640  176.2210  141.1640 N   0  0  0  0  0  2  0  0  0  0  0  0
  185.1490  178.7230  145.0910 C   0  0  1  0  0  3  0  0  0  0  0  0
  184.7730  178.3900  146.5340 C   0  0  0  0  0  2  0  0  0  0  0  0
  186.2180  178.9110  141.0660 C   0  0  0  0  0  3  0  0  0  0  0  0
  188.3260  177.6900  141.2950 C   0  0  1  0  0  3  0  0  0  0  0  0
  189.7860  177.5720  140.8950 C   0  0  0  0  0  2  0  0  0  0  0  0
  183.5740  177.7750  141.7330 C   0  0  0  0  0  2  0  0  0  0  0  0
  181.7950  178.6440  136.9720 C   0  0  2  0  0  3  0  0  0  0  0  0
  183.2180  177.8160  138.8180 C   0  0  0  0  0  2  0  0  0  0  0  0
  182.0270  180.7490  138.8270 O   0  0  0  0  0  1  0  0  0  0  0  0
  181.6620  179.1840  141.8280 O   0  0  0  0  0  0  0  0  0  0  0  0
  181.1650  178.2810  135.6450 C   0  0  0  0  0  1  0  0  0  0  0  0
  182.4540  178.5370  141.0980 C   0  0  0  0  0  0  0  0  0  0  0  0
  182.5450  177.4330  137.5090 C   0  0  0  0  0  2  0  0  0  0  0  0
  181.3770  179.5320  139.0620 C   0  0  2  0  0  3  0  0  0  0  0  0
  182.2920  178.5570  139.6720 N   0  0  0  0  0  0  0  0  0  0  0  0
  180.7820  179.0250  137.8800 O   0  0  0  0  0  0  0  0  0  0  0  0
  1  6  1  0  0  0  0
  1  9  1  1  0  0  0
  2 13  1  6  0  0  0
  2  5  1  0  0  0  0
  3  7  1  6  0  0  0
  3  2  1  0  0  0  0
  5 16  1  0  0  0  0
  5 14  1  1  0  0  0
  7  4  1  0  0  0  0
  8 21  1  6  0  0  0
  8 12  1  0  0  0  0
 10 18  1  0  0  0  0
 11  4  1  0  0  0  0
 13  8  1  0  0  0  0
 14  1  1  0  0  0  0
 15 11  1  0  0  0  0
 16 12  1  6  0  0  0
 16 17  1  0  0  0  0
 17  6  1  0  0  0  0
 18 13  2  0  0  0  0
 19 10  1  1  0  0  0
 19  3  1  0  0  0  0
 20 15  1  0  0  0  0
 20 19  1  0  0  0  0
 22 26  1  6  0  0  0
 22 28  1  0  0  0  0
 22 31  1  0  0  0  0
 23 30  1  0  0  0  0
 27 21  1  0  0  0  0
 27 25  2  0  0  0  0
 28 23  1  0  0  0  0
 29 24  1  6  0  0  0
 29 30  1  0  0  0  0
 30 27  1  0  0  0  0
 31 29  1  0  0  0  0
M  END
>  <MODEL>
3

>  <REMARK>
 VINA RESULT:      -8.7      2.931      8.414
  Name = 
  2 active torsions:
  status: ('A' for Active; 'I' for Inactive)
    1  A    between atoms: C_9  and  C_23
    2  A    between atoms: C_15  and  C_23
                            x       y       z     vdW  Elec       q    Type
                         _______ _______ _______ _____ _____    ______ ____

>  <TORSDO>
F 2

$$$$
=
 OpenBabel10272400223D

 31 35  0  0  1  0  0  0  0  0999 V2000
  190.1980  177.2290  140.0470 C   0  0  2  0  0  3  0  0  0  0  0  0
  188.1840  177.1640  143.3390 C   0  0  2  0  0  3  0  0  0  0  0  0
  189.2000  177.2630  144.5100 C   0  0  1  0  0  3  0  0  0  0  0  0
  191.4830  178.2840  145.0290 C   0  0  0  0  0  2  0  0  0  0  0  0
  188.7070  177.6700  141.9880 C   0  0  1  0  0  3  0  0  0  0  0  0
  189.0770  177.1340  139.1980 O   0  0  0  0  0  0  0  0  0  0  0  0
  190.0760  178.5120  144.4520 C   0  0  0  0  0  2  0  0  0  0  0  0
  185.8820  178.3730  142.7230 C   0  0  1  0  0  3  0  0  0  0  0  0
  191.2760  176.4100  139.5320 N   0  0  0  0  0  1  0  0  0  0  0  0
  187.1650  176.5590  145.8900 C   0  0  0  0  0  2  0  0  0  0  0  0
  191.5860  177.2430  146.1450 C   0  0  0  0  0  2  0  0  0  0  0  0
  186.5960  178.8030  141.4320 C   0  0  0  0  0  2  0  0  0  0  0  0
  186.7870  177.6490  143.7060 C   0  0  0  0  0  0  0  0  0  0  0  0
  189.8290  176.7750  141.4630 C   0  0  0  0  0  2  0  0  0  0  0  0
  190.5910  177.4800  147.1860 N   0  0  0  0  0  2  0  0  0  0  0  0
  187.5780  177.7480  140.9660 C   0  0  1  0  0  3  0  0  0  0  0  0
  188.1690  178.1300  139.6100 C   0  0  0  0  0  2  0  0  0  0  0  0
  186.3020  177.3020  144.9090 C   0  0  0  0  0  3  0  0  0  0  0  0
  188.5360  177.2290  145.9040 C   0  0  1  0  0  3  0  0  0  0  0  0
  189.4600  176.5960  146.9300 C   0  0  0  0  0  2  0  0  0  0  0  0
  185.2540  179.6010  143.3790 C   0  0  0  0  0  2  0  0  0  0  0  0
  180.9070  178.2050  140.9820 C   0  0  2  0  0  3  0  0  0  0  0  0
  183.2720  178.8280  141.3540 C   0  0  0  0  0  2  0  0  0  0  0  0
  180.9080  180.3190  142.8410 O   0  0  0  0  0  1  0  0  0  0  0  0
  183.4630  179.5060  144.9400 O   0  0  0  0  0  0  0  0  0  0  0  0
  179.9820  177.2740  140.2280 C   0  0  0  0  0  1  0  0  0  0  0  0
  183.8230  179.3580  143.7450 C   0  0  0  0  0  0  0  0  0  0  0  0
  182.3470  177.8580  140.6340 C   0  0  0  0  0  2  0  0  0  0  0  0
  181.4270  179.0400  143.0710 C   0  0  2  0  0  3  0  0  0  0  0  0
  182.8600  178.9880  142.7470 N   0  0  0  0  0  0  0  0  0  0  0  0
  180.6950  178.0500  142.3700 O   0  0  0  0  0  0  0  0  0  0  0  0
  1  9  1  6  0  0  0
  1 14  1  0  0  0  0
  2 13  1  1  0  0  0
  2  3  1  0  0  0  0
  3  7  1  6  0  0  0
  3 19  1  0  0  0  0
  4 11  1  0  0  0  0
  5 14  1  6  0  0  0
  5  2  1  0  0  0  0
  6 17  1  0  0  0  0
  6  1  1  0  0  0  0
  7  4  1  0  0  0  0
  8 21  1  1  0  0  0
  8 13  1  0  0  0  0
 11 15  1  0  0  0  0
 12  8  1  0  0  0  0
 13 18  2  0  0  0  0
 16 17  1  6  0  0  0
 16 12  1  0  0  0  0
 16  5  1  0  0  0  0
 18 10  1  0  0  0  0
 19 10  1  6  0  0  0
 19 20  1  0  0  0  0
 20 15  1  0  0  0  0
 21 27  1  0  0  0  0
 22 26  1  6  0  0  0
 22 31  1  0  0  0  0
 23 30  1  0  0  0  0
 27 25  2  0  0  0  0
 28 22  1  0  0  0  0
 28 23  1  0  0  0  0
 29 24  1  6  0  0  0
 30 29  1  0  0  0  0
 30 27  1  0  0  0  0
 31 29  1  0  0  0  0
M  END
>  <MODEL>
4

>  <REMARK>
 VINA RESULT:      -8.4      2.539      7.395
  Name = 
  2 active torsions:
  status: ('A' for Active; 'I' for Inactive)
    1  A    between atoms: C_9  and  C_23
    2  A    between atoms: C_15  and  C_23
                            x       y       z     vdW  Elec       q    Type
                         _______ _______ _______ _____ _____    ______ ____

>  <TORSDO>
F 2

$$$$
=
 OpenBabel10272400223D

 31 35  0  0  1  0  0  0  0  0999 V2000
  191.4750  176.7690  139.0930 C   0  0  2  0  0  3  0  0  0  0  0  0
  187.7820  177.8690  138.8950 C   0  0  2  0  0  3  0  0  0  0  0  0
  187.1230  177.0870  137.7250 C   0  0  1  0  0  3  0  0  0  0  0  0
  187.3170  174.8380  136.5330 C   0  0  0  0  0  2  0  0  0  0  0  0
  189.0600  177.2330  139.4570 C   0  0  1  0  0  3  0  0  0  0  0  0
  191.8060  177.5940  140.1860 O   0  0  0  0  0  0  0  0  0  0  0  0
  187.2150  175.5710  137.8800 C   0  0  0  0  0  2  0  0  0  0  0  0
  187.1190  178.3980  141.4280 C   0  0  1  0  0  3  0  0  0  0  0  0
  192.5590  176.7690  138.1310 N   0  0  0  0  0  1  0  0  0  0  0  0
  185.2700  178.8180  138.0570 C   0  0  0  0  0  2  0  0  0  0  0  0
  186.6250  175.5160  135.3480 C   0  0  0  0  0  2  0  0  0  0  0  0
  188.4380  177.6990  141.7910 C   0  0  0  0  0  2  0  0  0  0  0  0
  186.7850  178.3380  139.9470 C   0  0  0  0  0  0  0  0  0  0  0  0
  190.1880  177.2660  138.4260 C   0  0  0  0  0  2  0  0  0  0  0  0
  185.2530  175.8860  135.6760 N   0  0  0  0  0  2  0  0  0  0  0  0
  189.4980  177.9390  140.7350 C   0  0  1  0  0  3  0  0  0  0  0  0
  190.8390  177.3570  141.1830 C   0  0  0  0  0  2  0  0  0  0  0  0
  185.6140  178.8360  139.5200 C   0  0  0  0  0  3  0  0  0  0  0  0
  185.6360  177.4400  137.5110 C   0  0  1  0  0  3  0  0  0  0  0  0
  185.2490  177.2950  136.0490 C   0  0  0  0  0  2  0  0  0  0  0  0
  185.9890  177.7910  142.2570 C   0  0  0  0  0  2  0  0  0  0  0  0
  187.0030  178.0620  147.3050 C   0  0  2  0  0  3  0  0  0  0  0  0
  186.9880  177.2580  144.9660 C   0  0  0  0  0  2  0  0  0  0  0  0
  184.3770  178.3980  146.3460 O   0  0  0  0  0  1  0  0  0  0  0  0
  184.8480  179.6450  143.2130 O   0  0  0  0  0  0  0  0  0  0  0  0
  187.8640  178.2650  148.5330 C   0  0  0  0  0  1  0  0  0  0  0  0
  185.6160  178.6700  143.4090 C   0  0  0  0  0  0  0  0  0  0  0  0
  187.8670  177.5070  146.1820 C   0  0  0  0  0  2  0  0  0  0  0  0
  185.5030  179.0880  145.8810 C   0  0  2  0  0  3  0  0  0  0  0  0
  186.1040  178.3970  144.7320 N   0  0  0  0  0  0  0  0  0  0  0  0
  186.4450  179.3000  146.9170 O   0  0  0  0  0  0  0  0  0  0  0  0
  1  9  1  6  0  0  0
  1  6  1  0  0  0  0
  2  5  1  0  0  0  0
  2 13  1  1  0  0  0
  3  7  1  1  0  0  0
  3  2  1  0  0  0  0
  4  7  1  0  0  0  0
  5 14  1  6  0  0  0
  5 16  1  0  0  0  0
  6 17  1  0  0  0  0
  8 12  1  0  0  0  0
  8 21  1  1  0  0  0
 10 18  1  0  0  0  0
 11 15  1  0  0  0  0
 11  4  1  0  0  0  0
 13  8  1  0  0  0  0
 14  1  1  0  0  0  0
 15 20  1  0  0  0  0
 16 17  1  1  0  0  0
 16 12  1  0  0  0  0
 18 13  2  0  0  0  0
 19 20  1  6  0  0  0
 19  3  1  0  0  0  0
 19 10  1  0  0  0  0
 21 27  1  0  0  0  0
 22 26  1  1  0  0  0
 23 28  1  0  0  0  0
 25 27  2  0  0  0  0
 27 30  1  0  0  0  0
 28 22  1  0  0  0  0
 29 24  1  1  0  0  0
 29 31  1  0  0  0  0
 30 23  1  0  0  0  0
 30 29  1  0  0  0  0
 31 22  1  0  0  0  0
M  END
>  <MODEL>
5

>  <REMARK>
 VINA RESULT:      -7.9      3.060      4.611
  Name = 
  2 active torsions:
  status: ('A' for Active; 'I' for Inactive)
    1  A    between atoms: C_9  and  C_23
    2  A    between atoms: C_15  and  C_23
                            x       y       z     vdW  Elec       q    Type
                         _______ _______ _______ _____ _____    ______ ____

>  <TORSDO>
F 2

$$$$
=
 OpenBabel10272400223D

 31 35  0  0  1  0  0  0  0  0999 V2000
  191.8890  177.2200  139.6310 C   0  0  2  0  0  3  0  0  0  0  0  0
  189.0730  177.1190  142.2680 C   0  0  2  0  0  3  0  0  0  0  0  0
  189.7310  177.3110  143.6620 C   0  0  1  0  0  3  0  0  0  0  0  0
  191.7350  178.4820  144.7260 C   0  0  0  0  0  2  0  0  0  0  0  0
  189.9120  177.6200  141.0850 C   0  0  1  0  0  3  0  0  0  0  0  0
  191.0440  177.0340  138.5190 O   0  0  0  0  0  0  0  0  0  0  0  0
  190.5250  178.6090  143.7870 C   0  0  0  0  0  2  0  0  0  0  0  0
  186.9610  178.1680  141.0120 C   0  0  1  0  0  3  0  0  0  0  0  0
  193.1070  176.4550  139.4560 N   0  0  0  0  0  1  0  0  0  0  0  0
  187.4400  176.5200  144.4790 C   0  0  0  0  0  2  0  0  0  0  0  0
  191.5880  177.4790  145.8730 C   0  0  0  0  0  2  0  0  0  0  0  0
  187.9710  178.6070  139.9410 C   0  0  0  0  0  2  0  0  0  0  0  0
  187.6060  177.5270  142.2290 C   0  0  0  0  0  0  0  0  0  0  0  0
  191.1780  176.7810  140.9160 C   0  0  0  0  0  2  0  0  0  0  0  0
  190.3410  177.6820  146.6000 N   0  0  0  0  0  2  0  0  0  0  0  0
  189.0960  177.6020  139.7970 C   0  0  1  0  0  3  0  0  0  0  0  0
  190.0080  177.9830  138.6320 C   0  0  0  0  0  2  0  0  0  0  0  0
  186.8340  177.1830  143.2730 C   0  0  0  0  0  3  0  0  0  0  0  0
  188.7200  177.2730  144.8290 C   0  0  1  0  0  3  0  0  0  0  0  0
  189.3670  176.7250  146.0890 C   0  0  0  0  0  2  0  0  0  0  0  0
  186.1170  179.3720  141.4240 C   0  0  0  0  0  2  0  0  0  0  0  0
  181.2680  178.5070  142.9500 C   0  0  2  0  0  3  0  0  0  0  0  0
  183.7290  178.7470  143.0150 C   0  0  0  0  0  2  0  0  0  0  0  0
  182.2620  177.3400  140.5890 O   0  0  0  0  0  1  0  0  0  0  0  0
  184.6410  179.5530  139.5700 O   0  0  0  0  0  0  0  0  0  0  0  0
  179.9820  178.7920  143.6950 C   0  0  0  0  0  1  0  0  0  0  0  0
  184.7570  179.3310  140.8010 C   0  0  0  0  0  0  0  0  0  0  0  0
  182.4350  179.0780  143.7420 C   0  0  0  0  0  2  0  0  0  0  0  0
  182.3310  178.7000  140.9090 C   0  0  2  0  0  3  0  0  0  0  0  0
  183.5960  179.0170  141.5860 N   0  0  0  0  0  0  0  0  0  0  0  0
  181.2100  179.1100  141.6730 O   0  0  0  0  0  0  0  0  0  0  0  0
  1  9  1  6  0  0  0
  1 14  1  0  0  0  0
  2 13  1  1  0  0  0
  2  3  1  0  0  0  0
  3  7  1  6  0  0  0
  3 19  1  0  0  0  0
  4 11  1  0  0  0  0
  5 14  1  6  0  0  0
  5  2  1  0  0  0  0
  6 17  1  0  0  0  0
  6  1  1  0  0  0  0
  7  4  1  0  0  0  0
  8 21  1  1  0  0  0
  8 13  1  0  0  0  0
 11 15  1  0  0  0  0
 12  8  1  0  0  0  0
 13 18  2  0  0  0  0
 16 17  1  6  0  0  0
 16 12  1  0  0  0  0
 16  5  1  0  0  0  0
 18 10  1  0  0  0  0
 19 10  1  6  0  0  0
 19 20  1  0  0  0  0
 20 15  1  0  0  0  0
 22 26  1  1  0  0  0
 22 28  1  0  0  0  0
 23 28  1  0  0  0  0
 25 27  2  0  0  0  0
 27 21  1  0  0  0  0
 27 30  1  0  0  0  0
 29 24  1  1  0  0  0
 29 30  1  0  0  0  0
 29 31  1  0  0  0  0
 30 23  1  0  0  0  0
 31 22  1  0  0  0  0
M  END
>  <MODEL>
6

>  <REMARK>
 VINA RESULT:      -7.9      3.435      7.566
  Name = 
  2 active torsions:
  status: ('A' for Active; 'I' for Inactive)
    1  A    between atoms: C_9  and  C_23
    2  A    between atoms: C_15  and  C_23
                            x       y       z     vdW  Elec       q    Type
                         _______ _______ _______ _____ _____    ______ ____

>  <TORSDO>
F 2

$$$$
=
 OpenBabel10272400223D

 31 35  0  0  1  0  0  0  0  0999 V2000
  193.3410  176.2770  137.7400 C   0  0  2  0  0  3  0  0  0  0  0  0
  189.6430  177.1970  138.3560 C   0  0  2  0  0  3  0  0  0  0  0  0
  188.7900  176.4230  137.3140 C   0  0  1  0  0  3  0  0  0  0  0  0
  188.8260  174.2290  136.0090 C   0  0  0  0  0  2  0  0  0  0  0  0
  191.0360  176.6060  138.6140 C   0  0  1  0  0  3  0  0  0  0  0  0
  193.8570  177.0790  138.7770 O   0  0  0  0  0  0  0  0  0  0  0  0
  188.9740  174.9100  137.3790 C   0  0  0  0  0  2  0  0  0  0  0  0
  189.5000  177.6040  140.9930 C   0  0  1  0  0  3  0  0  0  0  0  0
  194.2000  176.3640  136.5770 N   0  0  0  0  0  1  0  0  0  0  0  0
  186.9750  178.0470  138.0960 C   0  0  0  0  0  2  0  0  0  0  0  0
  187.8750  174.9130  135.0240 C   0  0  0  0  0  2  0  0  0  0  0  0
  190.8930  176.9600  141.0440 C   0  0  0  0  0  2  0  0  0  0  0  0
  188.8690  177.5790  139.6110 C   0  0  0  0  0  0  0  0  0  0  0  0
  191.9230  176.7310  137.3760 C   0  0  0  0  0  2  0  0  0  0  0  0
  186.5860  175.2020  135.6420 N   0  0  0  0  0  2  0  0  0  0  0  0
  191.7010  177.2890  139.8050 C   0  0  1  0  0  3  0  0  0  0  0  0
  193.1280  176.7600  139.9400 C   0  0  0  0  0  2  0  0  0  0  0  0
  187.6140  178.0320  139.4560 C   0  0  0  0  0  3  0  0  0  0  0  0
  187.2770  176.7090  137.4260 C   0  0  1  0  0  3  0  0  0  0  0  0
  186.6010  176.5960  136.0710 C   0  0  0  0  0  2  0  0  0  0  0  0
  188.5930  176.9130  142.0080 C   0  0  0  0  0  2  0  0  0  0  0  0
  189.0180  177.8330  147.0640 C   0  0  2  0  0  3  0  0  0  0  0  0
  188.2980  178.0350  144.7070 C   0  0  0  0  0  2  0  0  0  0  0  0
  191.3090  177.4380  145.4780 O   0  0  0  0  0  1  0  0  0  0  0  0
  190.1810  175.4290  142.9710 O   0  0  0  0  0  0  0  0  0  0  0  0
  188.5520  177.8850  148.5030 C   0  0  0  0  0  1  0  0  0  0  0  0
  189.3730  176.3710  143.1650 C   0  0  0  0  0  0  0  0  0  0  0  0
  187.8190  178.0380  146.1500 C   0  0  0  0  0  2  0  0  0  0  0  0
  190.2010  176.5850  145.5240 C   0  0  2  0  0  3  0  0  0  0  0  0
  189.2280  176.9310  144.4790 N   0  0  0  0  0  0  0  0  0  0  0  0
  189.6080  176.5750  146.8100 O   0  0  0  0  0  0  0  0  0  0  0  0
  1  9  1  6  0  0  0
  1  6  1  0  0  0  0
  2  5  1  0  0  0  0
  2 13  1  1  0  0  0
  3  7  1  1  0  0  0
  3 19  1  0  0  0  0
  3  2  1  0  0  0  0
  4  7  1  0  0  0  0
  5 14  1  6  0  0  0
  5 16  1  0  0  0  0
  6 17  1  0  0  0  0
  8 12  1  0  0  0  0
  8 21  1  1  0  0  0
 10 18  1  0  0  0  0
 11 15  1  0  0  0  0
 11  4  1  0  0  0  0
 13  8  1  0  0  0  0
 14  1  1  0  0  0  0
 15 20  1  0  0  0  0
 16 17  1  1  0  0  0
 16 12  1  0  0  0  0
 18 13  2  0  0  0  0
 19 20  1  6  0  0  0
 19 10  1  0  0  0  0
 21 27  1  0  0  0  0
 22 26  1  1  0  0  0
 23 28  1  0  0  0  0
 25 27  2  0  0  0  0
 27 30  1  0  0  0  0
 28 22  1  0  0  0  0
 29 24  1  1  0  0  0
 29 31  1  0  0  0  0
 30 23  1  0  0  0  0
 30 29  1  0  0  0  0
 31 22  1  0  0  0  0
M  END
>  <MODEL>
7

>  <REMARK>
 VINA RESULT:      -7.9      4.208      6.027
  Name = 
  2 active torsions:
  status: ('A' for Active; 'I' for Inactive)
    1  A    between atoms: C_9  and  C_23
    2  A    between atoms: C_15  and  C_23
                            x       y       z     vdW  Elec       q    Type
                         _______ _______ _______ _____ _____    ______ ____

>  <TORSDO>
F 2

$$$$
=
 OpenBabel10272400223D

 31 35  0  0  1  0  0  0  0  0999 V2000
  191.7920  173.7160  135.6290 C   0  0  2  0  0  3  0  0  0  0  0  0
  189.3760  176.5420  136.6640 C   0  0  2  0  0  3  0  0  0  0  0  0
  187.9740  176.1890  136.0960 C   0  0  1  0  0  3  0  0  0  0  0  0
  186.5590  174.1400  135.5340 C   0  0  0  0  0  2  0  0  0  0  0  0
  190.3330  175.3500  136.8040 C   0  0  1  0  0  3  0  0  0  0  0  0
  192.9280  174.2710  136.2510 O   0  0  0  0  0  0  0  0  0  0  0  0
  187.4440  174.8410  136.5760 C   0  0  0  0  0  2  0  0  0  0  0  0
  190.3080  177.3670  139.0290 C   0  0  1  0  0  3  0  0  0  0  0  0
  192.1600  173.1520  134.3460 N   0  0  0  0  0  1  0  0  0  0  0  0
  187.4890  178.6280  136.6990 C   0  0  0  0  0  2  0  0  0  0  0  0
  185.7720  175.0620  134.5990 C   0  0  0  0  0  2  0  0  0  0  0  0
  191.1730  176.0980  138.9920 C   0  0  0  0  0  2  0  0  0  0  0  0
  189.3250  177.4670  137.8740 C   0  0  0  0  0  0  0  0  0  0  0  0
  190.7170  174.7910  135.4350 C   0  0  0  0  0  2  0  0  0  0  0  0
  185.0470  176.0830  135.3470 N   0  0  0  0  0  2  0  0  0  0  0  0
  191.5860  175.7510  137.5760 C   0  0  1  0  0  3  0  0  0  0  0  0
  192.5590  174.5730  137.5770 C   0  0  0  0  0  2  0  0  0  0  0  0
  188.4520  178.4870  137.8440 C   0  0  0  0  0  3  0  0  0  0  0  0
  186.8970  177.2490  136.4170 C   0  0  1  0  0  3  0  0  0  0  0  0
  185.8450  177.3030  135.3230 C   0  0  0  0  0  2  0  0  0  0  0  0
  189.5720  177.4310  140.3650 C   0  0  0  0  0  2  0  0  0  0  0  0
  189.2950  177.8320  145.4980 C   0  0  2  0  0  3  0  0  0  0  0  0
  188.6070  177.6270  143.1320 C   0  0  0  0  0  2  0  0  0  0  0  0
  190.9750  179.5340  144.0120 O   0  0  0  0  0  1  0  0  0  0  0  0
  191.7550  177.6600  141.2780 O   0  0  0  0  0  0  0  0  0  0  0  0
  189.0150  177.3590  146.9080 C   0  0  0  0  0  1  0  0  0  0  0  0
  190.5220  177.5920  141.5100 C   0  0  0  0  0  0  0  0  0  0  0  0
  188.3560  177.1130  144.5410 C   0  0  0  0  0  2  0  0  0  0  0  0
  190.9530  178.1370  143.9210 C   0  0  2  0  0  3  0  0  0  0  0  0
  190.0400  177.6940  142.8590 N   0  0  0  0  0  0  0  0  0  0  0  0
  190.6370  177.5420  145.1670 O   0  0  0  0  0  0  0  0  0  0  0  0
  1  9  1  6  0  0  0
  1  6  1  0  0  0  0
  2  5  1  0  0  0  0
  2 13  1  1  0  0  0
  3 19  1  0  0  0  0
  3  7  1  1  0  0  0
  3  2  1  0  0  0  0
  4  7  1  0  0  0  0
  5 14  1  6  0  0  0
  5 16  1  0  0  0  0
  6 17  1  0  0  0  0
  8 21  1  1  0  0  0
 10 18  1  0  0  0  0
 11 15  1  0  0  0  0
 11  4  1  0  0  0  0
 12  8  1  0  0  0  0
 13  8  1  0  0  0  0
 14  1  1  0  0  0  0
 16 17  1  1  0  0  0
 16 12  1  0  0  0  0
 18 13  2  0  0  0  0
 19 20  1  6  0  0  0
 19 10  1  0  0  0  0
 20 15  1  0  0  0  0
 21 27  1  0  0  0  0
 22 26  1  1  0  0  0
 23 28  1  0  0  0  0
 25 27  2  0  0  0  0
 27 30  1  0  0  0  0
 28 22  1  0  0  0  0
 29 24  1  1  0  0  0
 29 31  1  0  0  0  0
 30 23  1  0  0  0  0
 30 29  1  0  0  0  0
 31 22  1  0  0  0  0
M  END
>  <MODEL>
8

>  <REMARK>
 VINA RESULT:      -7.4      4.606      6.630
  Name = 
  2 active torsions:
  status: ('A' for Active; 'I' for Inactive)
    1  A    between atoms: C_9  and  C_23
    2  A    between atoms: C_15  and  C_23
                            x       y       z     vdW  Elec       q    Type
                         _______ _______ _______ _____ _____    ______ ____

>  <TORSDO>
F 2

$$$$
=
 OpenBabel10272400223D

 31 35  0  0  1  0  0  0  0  0999 V2000
  188.8870  177.5140  136.4120 C   0  0  2  0  0  3  0  0  0  0  0  0
  186.0140  178.4930  138.7950 C   0  0  2  0  0  3  0  0  0  0  0  0
  184.6910  177.9710  138.1700 C   0  0  1  0  0  3  0  0  0  0  0  0
  183.8500  176.0580  136.7020 C   0  0  0  0  0  2  0  0  0  0  0  0
  187.2840  177.7930  138.2910 C   0  0  1  0  0  3  0  0  0  0  0  0
  189.9130  178.0820  137.1920 O   0  0  0  0  0  0  0  0  0  0  0  0
  184.6850  176.4640  137.9280 C   0  0  0  0  0  2  0  0  0  0  0  0
  187.1210  178.4100  141.2250 C   0  0  1  0  0  3  0  0  0  0  0  0
  189.1380  177.7710  135.0080 N   0  0  0  0  0  1  0  0  0  0  0  0
  183.6480  179.5130  139.9250 C   0  0  0  0  0  2  0  0  0  0  0  0
  182.6580  176.9610  136.3780 C   0  0  0  0  0  2  0  0  0  0  0  0
  188.2920  177.6960  140.5330 C   0  0  0  0  0  2  0  0  0  0  0  0
  185.9400  178.6740  140.3050 C   0  0  0  0  0  0  0  0  0  0  0  0
  187.5300  178.1000  136.8140 C   0  0  0  0  0  2  0  0  0  0  0  0
  181.8330  177.1960  137.5580 N   0  0  0  0  0  2  0  0  0  0  0  0
  188.4940  178.2080  139.1210 C   0  0  1  0  0  3  0  0  0  0  0  0
  189.7480  177.5900  138.5020 C   0  0  0  0  0  2  0  0  0  0  0  0
  184.8210  179.2120  140.8160 C   0  0  0  0  0  3  0  0  0  0  0  0
  183.4400  178.3080  139.0100 C   0  0  1  0  0  3  0  0  0  0  0  0
  182.2200  178.4830  138.1220 C   0  0  0  0  0  2  0  0  0  0  0  0
  186.6830  177.5900  142.4360 C   0  0  0  0  0  2  0  0  0  0  0  0
  188.1940  178.0310  147.3470 C   0  0  2  0  0  3  0  0  0  0  0  0
  186.8450  178.2750  145.2880 C   0  0  0  0  0  2  0  0  0  0  0  0
  190.0030  178.4900  145.2400 O   0  0  0  0  0  1  0  0  0  0  0  0
  188.7900  176.5300  142.7330 O   0  0  0  0  0  0  0  0  0  0  0  0
  188.1300  177.7880  148.8390 C   0  0  0  0  0  1  0  0  0  0  0  0
  187.8530  177.1720  143.2710 C   0  0  0  0  0  0  0  0  0  0  0  0
  186.7830  177.9820  146.7790 C   0  0  0  0  0  2  0  0  0  0  0  0
  189.1980  177.3540  145.3810 C   0  0  2  0  0  3  0  0  0  0  0  0
  187.9270  177.5180  144.6620 N   0  0  0  0  0  0  0  0  0  0  0  0
  188.9910  177.0320  146.7450 O   0  0  0  0  0  0  0  0  0  0  0  0
  1  9  1  6  0  0  0
  1 14  1  0  0  0  0
  1  6  1  0  0  0  0
  2 13  1  1  0  0  0
  3  7  1  1  0  0  0
  3  2  1  0  0  0  0
  3 19  1  0  0  0  0
  4  7  1  0  0  0  0
  5 14  1  6  0  0  0
  5  2  1  0  0  0  0
  5 16  1  0  0  0  0
  6 17  1  0  0  0  0
  8 21  1  1  0  0  0
 10 18  1  0  0  0  0
 11  4  1  0  0  0  0
 11 15  1  0  0  0  0
 12  8  1  0  0  0  0
 13 18  2  0  0  0  0
 13  8  1  0  0  0  0
 15 20  1  0  0  0  0
 16 17  1  6  0  0  0
 16 12  1  0  0  0  0
 19 20  1  6  0  0  0
 19 10  1  0  0  0  0
 21 27  1  0  0  0  0
 22 26  1  1  0  0  0
 23 28  1  0  0  0  0
 25 27  2  0  0  0  0
 27 30  1  0  0  0  0
 28 22  1  0  0  0  0
 29 24  1  1  0  0  0
 29 31  1  0  0  0  0
 30 23  1  0  0  0  0
 30 29  1  0  0  0  0
 31 22  1  0  0  0  0
M  END
>  <MODEL>
9

>  <REMARK>
 VINA RESULT:      -7.3      2.329      3.333
  Name = 
  2 active torsions:
  status: ('A' for Active; 'I' for Inactive)
    1  A    between atoms: C_9  and  C_23
    2  A    between atoms: C_15  and  C_23
                            x       y       z     vdW  Elec       q    Type
                         _______ _______ _______ _____ _____    ______ ____

>  <TORSDO>
F 2

$$$$
