=
 OpenBabel10272415263D

 34 39  0  0  1  0  0  0  0  0999 V2000
  183.5520  178.7030  141.7710 C   0  0  2  0  0  3  0  0  0  0  0  0
  184.9550  177.6970  138.5090 C   0  0  0  0  0  3  0  0  0  0  0  0
  182.7600  177.2390  139.3510 C   0  0  0  0  0  2  0  0  0  0  0  0
  180.9750  179.2070  141.7450 C   0  0  0  0  0  0  0  0  0  0  0  0
  179.9830  178.8820  140.8900 N   0  0  0  0  0  0  0  0  0  0  0  0
  180.8270  180.1540  142.7960 N   0  0  0  0  0  1  0  0  0  0  0  0
  181.8210  177.9700  140.1840 N   0  0  0  0  0  0  0  0  0  0  0  0
  182.1470  178.6210  141.3050 C   0  0  0  0  0  0  0  0  0  0  0  0
  180.5280  178.1170  139.9520 N   0  0  0  0  0  0  0  0  0  0  0  0
  186.3520  178.1120  138.3450 C   0  0  0  0  0  3  0  0  0  0  0  0
  187.2750  178.4140  139.2600 C   0  0  0  0  0  0  0  0  0  0  0  0
  187.0620  178.3400  140.7160 C   0  0  0  0  0  3  0  0  0  0  0  0
  184.1580  177.7590  139.5710 C   0  0  2  0  0  3  0  0  0  0  0  0
  185.9250  178.3070  141.4040 C   0  0  0  0  0  3  0  0  0  0  0  0
  184.5330  178.3130  140.9130 C   0  0  0  0  0  0  0  0  0  0  0  0
  188.5900  178.7650  138.7980 N   0  0  0  0  0  0  0  0  0  0  0  0
  189.7100  178.2760  139.4330 O   0  0  0  0  0  0  0  0  0  0  0  0
  188.7350  179.5090  137.8060 O   0  0  0  0  0  0  0  0  0  0  0  0
  183.8600  178.3330  144.1550 N   0  0  0  0  0  0  0  0  0  0  0  0
  183.8920  179.1390  143.1450 C   0  0  0  0  0  3  0  0  0  0  0  0
  184.2110  178.7900  145.4930 C   0  0  0  0  0  2  0  0  0  0  0  0
  187.2920  178.1980  147.7410 C   0  0  0  0  0  2  0  0  0  0  0  0
  186.5410  178.0610  144.8480 C   0  0  0  0  0  2  0  0  0  0  0  0
  190.5040  176.9720  146.1430 C   0  0  0  0  0  0  0  0  0  0  0  0
  189.5750  177.4370  147.0810 C   0  0  0  0  0  3  0  0  0  0  0  0
  188.2800  177.7840  146.6870 C   0  0  0  0  0  0  0  0  0  0  0  0
  188.8390  177.2050  144.3940 C   0  0  0  0  0  3  0  0  0  0  0  0
  187.9000  177.6440  145.3330 C   0  0  0  0  0  0  0  0  0  0  0  0
  190.1340  176.8710  144.7960 C   0  0  0  0  0  3  0  0  0  0  0  0
  185.5230  178.1750  145.9840 C   0  0  1  0  0  3  0  0  0  0  0  0
  186.1090  178.9590  147.1540 C   0  0  0  0  0  2  0  0  0  0  0  0
  191.9000  176.6460  146.5690 C   0  0  2  0  0  3  0  0  0  0  0  0
  192.2100  175.3200  146.2040 O   0  0  0  0  0  0  0  0  0  0  0  0
  191.9060  175.5420  147.5570 C   0  0  0  0  0  2  0  0  0  0  0  0
  1 20  1  1  0  0  0
  3 13  1  0  0  0  0
  3  7  1  0  0  0  0
  4  6  1  0  0  0  0
  5  4  1  0  0  0  0
  7  8  1  0  0  0  0
  8  4  2  0  0  0  0
  8  1  1  0  0  0  0
  9  7  1  0  0  0  0
  9  5  2  0  0  0  0
 10  2  2  0  0  0  0
 10 11  1  0  0  0  0
 11 12  2  0  0  0  0
 12 14  1  0  0  0  0
 13  2  1  6  0  0  0
 13 15  1  0  0  0  0
 15 14  2  0  0  0  0
 15  1  1  0  0  0  0
 16 11  1  0  0  0  0
 16 17  2  0  0  0  0
 18 16  2  0  0  0  0
 19 21  1  0  0  0  0
 20 19  2  0  0  0  0
 23 28  1  0  0  0  0
 23 30  1  0  0  0  0
 24 25  1  0  0  0  0
 26 25  2  0  0  0  0
 26 22  1  0  0  0  0
 27 29  1  0  0  0  0
 27 28  2  0  0  0  0
 28 26  1  0  0  0  0
 29 24  2  0  0  0  0
 30 21  1  6  0  0  0
 30 31  1  0  0  0  0
 31 22  1  0  0  0  0
 32 24  1  6  0  0  0
 32 34  1  0  0  0  0
 33 32  1  0  0  0  0
 33 34  1  0  0  0  0
M  END
>  <MODEL>
1

>  <REMARK>
 VINA RESULT:     -10.2      0.000      0.000
  Name = 
  5 active torsions:
  status: ('A' for Active; 'I' for Inactive)
    1  A    between atoms: C_1  and  C_9
    2  A    between atoms: N_3  and  C_25
    3  A    between atoms: C_7  and  C_11
    4  A    between atoms: N_8  and  C_18
    5  A    between atoms: C_18  and  C_30
                            x       y       z     vdW  Elec       q    Type
                         _______ _______ _______ _____ _____    ______ ____

>  <TORSDO>
F 5

$$$$
=
 OpenBabel10272415263D

 34 39  0  0  1  0  0  0  0  0999 V2000
  188.8850  177.5360  144.6870 C   0  0  2  0  0  3  0  0  0  0  0  0
  191.4010  177.3680  141.9920 C   0  0  0  0  0  3  0  0  0  0  0  0
  191.7740  177.9060  144.2960 C   0  0  0  0  0  2  0  0  0  0  0  0
  189.7710  176.8260  147.0560 C   0  0  0  0  0  0  0  0  0  0  0  0
  191.0090  176.7150  147.5790 N   0  0  0  0  0  0  0  0  0  0  0  0
  188.6000  176.3340  147.6970 N   0  0  0  0  0  1  0  0  0  0  0  0
  191.1890  177.4580  145.5490 N   0  0  0  0  0  0  0  0  0  0  0  0
  189.8790  177.3090  145.7640 C   0  0  0  0  0  0  0  0  0  0  0  0
  191.8550  177.1180  146.6390 N   0  0  0  0  0  0  0  0  0  0  0  0
  190.8080  177.0520  140.6880 C   0  0  0  0  0  3  0  0  0  0  0  0
  189.5570  177.2010  140.2500 C   0  0  0  0  0  0  0  0  0  0  0  0
  188.4640  177.7960  141.0380 C   0  0  0  0  0  3  0  0  0  0  0  0
  190.8220  177.6370  143.1580 C   0  0  2  0  0  3  0  0  0  0  0  0
  188.3700  177.9810  142.3510 C   0  0  0  0  0  3  0  0  0  0  0  0
  189.3450  177.6640  143.4130 C   0  0  0  0  0  0  0  0  0  0  0  0
  189.2700  176.8240  138.8930 N   0  0  0  0  0  0  0  0  0  0  0  0
  188.1830  177.3530  138.2330 O   0  0  0  0  0  0  0  0  0  0  0  0
  190.0100  176.0200  138.2890 O   0  0  0  0  0  0  0  0  0  0  0  0
  186.9570  178.7160  145.5850 N   0  0  0  0  0  0  0  0  0  0  0  0
  187.4410  177.6820  144.9780 C   0  0  0  0  0  3  0  0  0  0  0  0
  185.5290  178.8330  145.8460 C   0  0  0  0  0  2  0  0  0  0  0  0
  184.5200  178.6230  142.1270 C   0  0  0  0  0  2  0  0  0  0  0  0
  183.2280  178.9060  144.8110 C   0  0  0  0  0  2  0  0  0  0  0  0
  180.8360  178.6640  141.2340 C   0  0  0  0  0  0  0  0  0  0  0  0
  182.2320  178.6550  141.1320 C   0  0  0  0  0  3  0  0  0  0  0  0
  183.0280  178.7200  142.2790 C   0  0  0  0  0  0  0  0  0  0  0  0
  181.0230  178.8090  143.6480 C   0  0  0  0  0  3  0  0  0  0  0  0
  182.4180  178.7730  143.5530 C   0  0  0  0  0  0  0  0  0  0  0  0
  180.2350  178.7550  142.4960 C   0  0  0  0  0  3  0  0  0  0  0  0
  184.6890  178.5010  144.6110 C   0  0  1  0  0  3  0  0  0  0  0  0
  185.2590  179.1470  143.3530 C   0  0  0  0  0  2  0  0  0  0  0  0
  179.9940  178.6400  139.9980 C   0  0  2  0  0  3  0  0  0  0  0  0
  180.8220  178.6920  138.8580 O   0  0  0  0  0  0  0  0  0  0  0  0
  180.1710  179.8850  139.2140 C   0  0  0  0  0  2  0  0  0  0  0  0
  1 20  1  1  0  0  0
  1  8  1  0  0  0  0
  3  7  1  0  0  0  0
  4  5  1  0  0  0  0
  4  6  1  0  0  0  0
  7  8  1  0  0  0  0
  7  9  1  0  0  0  0
  8  4  2  0  0  0  0
  9  5  2  0  0  0  0
 10  2  2  0  0  0  0
 11 10  1  0  0  0  0
 11 12  2  0  0  0  0
 12 14  1  0  0  0  0
 13  2  1  1  0  0  0
 13 15  1  0  0  0  0
 13  3  1  0  0  0  0
 14 15  2  0  0  0  0
 15  1  1  0  0  0  0
 16 11  1  0  0  0  0
 17 16  2  0  0  0  0
 18 16  2  0  0  0  0
 19 21  1  0  0  0  0
 20 19  2  0  0  0  0
 22 26  1  0  0  0  0
 22 31  1  0  0  0  0
 24 29  1  0  0  0  0
 25 24  2  0  0  0  0
 25 26  1  0  0  0  0
 26 28  2  0  0  0  0
 28 27  1  0  0  0  0
 28 23  1  0  0  0  0
 29 27  2  0  0  0  0
 30 23  1  0  0  0  0
 30 21  1  1  0  0  0
 31 30  1  0  0  0  0
 32 24  1  1  0  0  0
 33 34  1  0  0  0  0
 33 32  1  0  0  0  0
 34 32  1  0  0  0  0
M  END
>  <MODEL>
2

>  <REMARK>
 VINA RESULT:     -10.2      3.527      8.190
  Name = 
  5 active torsions:
  status: ('A' for Active; 'I' for Inactive)
    1  A    between atoms: C_1  and  C_9
    2  A    between atoms: N_3  and  C_25
    3  A    between atoms: C_7  and  C_11
    4  A    between atoms: N_8  and  C_18
    5  A    between atoms: C_18  and  C_30
                            x       y       z     vdW  Elec       q    Type
                         _______ _______ _______ _____ _____    ______ ____

>  <TORSDO>
F 5

$$$$
=
 OpenBabel10272415263D

 34 39  0  0  1  0  0  0  0  0999 V2000
  189.0240  177.8790  144.8180 C   0  0  2  0  0  3  0  0  0  0  0  0
  191.0110  177.0900  141.8090 C   0  0  0  0  0  3  0  0  0  0  0  0
  191.8140  177.3740  144.0480 C   0  0  0  0  0  2  0  0  0  0  0  0
  189.9350  176.8160  147.0400 C   0  0  0  0  0  0  0  0  0  0  0  0
  191.1340  176.3090  147.3930 N   0  0  0  0  0  0  0  0  0  0  0  0
  188.7580  176.6710  147.8270 N   0  0  0  0  0  1  0  0  0  0  0  0
  191.2800  177.0630  145.3640 N   0  0  0  0  0  0  0  0  0  0  0  0
  190.0250  177.3080  145.7510 C   0  0  0  0  0  0  0  0  0  0  0  0
  191.9390  176.4830  146.3520 N   0  0  0  0  0  0  0  0  0  0  0  0
  190.1920  177.0340  140.5940 C   0  0  0  0  0  3  0  0  0  0  0  0
  189.0030  177.5770  140.3280 C   0  0  0  0  0  0  0  0  0  0  0  0
  188.2520  178.4360  141.2610 C   0  0  0  0  0  3  0  0  0  0  0  0
  190.6920  177.4640  143.0450 C   0  0  2  0  0  3  0  0  0  0  0  0
  188.3840  178.5750  142.5760 C   0  0  0  0  0  3  0  0  0  0  0  0
  189.3380  177.9250  143.4950 C   0  0  0  0  0  0  0  0  0  0  0  0
  188.4480  177.3740  139.0180 N   0  0  0  0  0  0  0  0  0  0  0  0
  187.4170  178.1650  138.5620 O   0  0  0  0  0  0  0  0  0  0  0  0
  188.9020  176.4830  138.2700 O   0  0  0  0  0  0  0  0  0  0  0  0
  186.6340  177.7760  145.2600 N   0  0  0  0  0  0  0  0  0  0  0  0
  187.7420  178.4410  145.3010 C   0  0  0  0  0  3  0  0  0  0  0  0
  185.3910  178.3540  145.7530 C   0  0  0  0  0  2  0  0  0  0  0  0
  182.1370  179.1550  143.8390 C   0  0  0  0  0  2  0  0  0  0  0  0
  184.9260  178.2280  143.2750 C   0  0  0  0  0  2  0  0  0  0  0  0
  182.1340  178.8790  140.0580 C   0  0  0  0  0  0  0  0  0  0  0  0
  181.7160  179.0610  141.3810 C   0  0  0  0  0  3  0  0  0  0  0  0
  182.6070  178.8680  142.4400 C   0  0  0  0  0  0  0  0  0  0  0  0
  184.3530  178.3000  140.8490 C   0  0  0  0  0  3  0  0  0  0  0  0
  183.9470  178.5070  142.1710 C   0  0  0  0  0  0  0  0  0  0  0  0
  183.4530  178.4850  139.7970 C   0  0  0  0  0  3  0  0  0  0  0  0
  184.4830  178.8200  144.6140 C   0  0  1  0  0  3  0  0  0  0  0  0
  183.0200  178.4920  144.8900 C   0  0  0  0  0  2  0  0  0  0  0  0
  181.1610  179.0450  138.9340 C   0  0  2  0  0  3  0  0  0  0  0  0
  181.7600  179.7790  137.8910 O   0  0  0  0  0  0  0  0  0  0  0  0
  180.8550  180.4780  138.7080 C   0  0  0  0  0  2  0  0  0  0  0  0
  1 20  1  1  0  0  0
  1  8  1  0  0  0  0
  3  7  1  0  0  0  0
  4  5  1  0  0  0  0
  4  6  1  0  0  0  0
  7  8  1  0  0  0  0
  7  9  1  0  0  0  0
  8  4  2  0  0  0  0
  9  5  2  0  0  0  0
 10  2  2  0  0  0  0
 11 10  1  0  0  0  0
 11 12  2  0  0  0  0
 12 14  1  0  0  0  0
 13  2  1  1  0  0  0
 13 15  1  0  0  0  0
 13  3  1  0  0  0  0
 14 15  2  0  0  0  0
 15  1  1  0  0  0  0
 16 11  1  0  0  0  0
 17 16  2  0  0  0  0
 18 16  2  0  0  0  0
 19 20  2  0  0  0  0
 19 21  1  0  0  0  0
 22 31  1  0  0  0  0
 23 30  1  0  0  0  0
 24 25  1  0  0  0  0
 25 26  2  0  0  0  0
 26 22  1  0  0  0  0
 27 28  2  0  0  0  0
 28 26  1  0  0  0  0
 28 23  1  0  0  0  0
 29 24  2  0  0  0  0
 29 27  1  0  0  0  0
 30 31  1  0  0  0  0
 30 21  1  1  0  0  0
 32 24  1  1  0  0  0
 33 34  1  0  0  0  0
 33 32  1  0  0  0  0
 34 32  1  0  0  0  0
M  END
>  <MODEL>
3

>  <REMARK>
 VINA RESULT:      -9.9      3.333      8.011
  Name = 
  5 active torsions:
  status: ('A' for Active; 'I' for Inactive)
    1  A    between atoms: C_1  and  C_9
    2  A    between atoms: N_3  and  C_25
    3  A    between atoms: C_7  and  C_11
    4  A    between atoms: N_8  and  C_18
    5  A    between atoms: C_18  and  C_30
                            x       y       z     vdW  Elec       q    Type
                         _______ _______ _______ _____ _____    ______ ____

>  <TORSDO>
F 5

$$$$
=
 OpenBabel10272415263D

 34 39  0  0  1  0  0  0  0  0999 V2000
  188.5060  177.3630  145.3620 C   0  0  2  0  0  3  0  0  0  0  0  0
  185.0010  178.5150  145.2730 C   0  0  0  0  0  3  0  0  0  0  0  0
  186.2060  177.6720  147.1630 C   0  0  0  0  0  2  0  0  0  0  0  0
  189.7490  177.8150  147.6300 C   0  0  0  0  0  0  0  0  0  0  0  0
  189.3160  178.0870  148.8790 N   0  0  0  0  0  0  0  0  0  0  0  0
  191.1090  177.9350  147.2280 N   0  0  0  0  0  1  0  0  0  0  0  0
  187.5860  177.7630  147.6090 N   0  0  0  0  0  0  0  0  0  0  0  0
  188.6510  177.5980  146.8180 C   0  0  0  0  0  0  0  0  0  0  0  0
  187.9900  178.0380  148.8370 N   0  0  0  0  0  0  0  0  0  0  0  0
  184.5780  178.9260  143.9300 C   0  0  0  0  0  3  0  0  0  0  0  0
  185.0700  178.6000  142.7330 C   0  0  0  0  0  0  0  0  0  0  0  0
  186.1860  177.6630  142.5180 C   0  0  0  0  0  3  0  0  0  0  0  0
  186.1250  177.9330  145.6810 C   0  0  2  0  0  3  0  0  0  0  0  0
  187.1100  177.2370  143.3730 C   0  0  0  0  0  3  0  0  0  0  0  0
  187.2810  177.5570  144.8030 C   0  0  0  0  0  0  0  0  0  0  0  0
  184.4210  179.1400  141.5700 N   0  0  0  0  0  0  0  0  0  0  0  0
  185.1580  179.5430  140.4790 O   0  0  0  0  0  0  0  0  0  0  0  0
  183.1770  179.2430  141.5290 O   0  0  0  0  0  0  0  0  0  0  0  0
  190.3220  177.6550  143.7700 N   0  0  0  0  0  0  0  0  0  0  0  0
  189.6330  176.8730  144.5360 C   0  0  0  0  0  3  0  0  0  0  0  0
  191.4330  177.1430  142.9780 C   0  0  0  0  0  2  0  0  0  0  0  0
  191.7980  176.8380  139.1490 C   0  0  0  0  0  2  0  0  0  0  0  0
  189.7420  177.6380  141.1700 C   0  0  0  0  0  2  0  0  0  0  0  0
  188.8010  177.6260  136.9650 C   0  0  0  0  0  0  0  0  0  0  0  0
  190.0950  177.2950  137.3830 C   0  0  0  0  0  3  0  0  0  0  0  0
  190.4210  177.2800  138.7420 C   0  0  0  0  0  0  0  0  0  0  0  0
  188.1440  177.9370  139.2790 C   0  0  0  0  0  3  0  0  0  0  0  0
  189.4280  177.5800  139.7020 C   0  0  0  0  0  0  0  0  0  0  0  0
  187.8310  177.9590  137.9180 C   0  0  0  0  0  3  0  0  0  0  0  0
  191.0360  176.9000  141.5210 C   0  0  1  0  0  3  0  0  0  0  0  0
  192.1540  177.2890  140.5610 C   0  0  0  0  0  2  0  0  0  0  0  0
  188.4760  177.6820  135.5050 C   0  0  2  0  0  3  0  0  0  0  0  0
  187.1210  178.0300  135.3340 O   0  0  0  0  0  0  0  0  0  0  0  0
  187.4470  176.6750  135.1550 C   0  0  0  0  0  2  0  0  0  0  0  0
  1 20  1  1  0  0  0
  1  8  1  0  0  0  0
  3  7  1  0  0  0  0
  4  5  1  0  0  0  0
  6  4  1  0  0  0  0
  7  9  1  0  0  0  0
  8  7  1  0  0  0  0
  8  4  2  0  0  0  0
  9  5  2  0  0  0  0
 10  2  2  0  0  0  0
 11 10  1  0  0  0  0
 12 11  2  0  0  0  0
 12 14  1  0  0  0  0
 13  2  1  1  0  0  0
 13  3  1  0  0  0  0
 14 15  2  0  0  0  0
 15  1  1  0  0  0  0
 15 13  1  0  0  0  0
 16 11  1  0  0  0  0
 17 16  2  0  0  0  0
 18 16  2  0  0  0  0
 19 20  2  0  0  0  0
 21 19  1  0  0  0  0
 22 31  1  0  0  0  0
 23 30  1  0  0  0  0
 24 25  2  0  0  0  0
 24 29  1  0  0  0  0
 25 26  1  0  0  0  0
 26 22  1  0  0  0  0
 26 28  2  0  0  0  0
 27 28  1  0  0  0  0
 28 23  1  0  0  0  0
 29 27  2  0  0  0  0
 30 21  1  1  0  0  0
 31 30  1  0  0  0  0
 32 24  1  1  0  0  0
 33 32  1  0  0  0  0
 34 33  1  0  0  0  0
 34 32  1  0  0  0  0
M  END
>  <MODEL>
4

>  <REMARK>
 VINA RESULT:      -9.5      3.604      8.219
  Name = 
  5 active torsions:
  status: ('A' for Active; 'I' for Inactive)
    1  A    between atoms: C_1  and  C_9
    2  A    between atoms: N_3  and  C_25
    3  A    between atoms: C_7  and  C_11
    4  A    between atoms: N_8  and  C_18
    5  A    between atoms: C_18  and  C_30
                            x       y       z     vdW  Elec       q    Type
                         _______ _______ _______ _____ _____    ______ ____

>  <TORSDO>
F 5

$$$$
=
 OpenBabel10272415263D

 34 39  0  0  1  0  0  0  0  0999 V2000
  184.5850  178.7900  141.8460 C   0  0  2  0  0  3  0  0  0  0  0  0
  186.1350  177.8160  145.0500 C   0  0  0  0  0  3  0  0  0  0  0  0
  184.0430  178.9370  144.7290 C   0  0  0  0  0  2  0  0  0  0  0  0
  181.9600  178.7090  141.8310 C   0  0  0  0  0  0  0  0  0  0  0  0
  181.0340  178.6970  142.8130 N   0  0  0  0  0  0  0  0  0  0  0  0
  181.6590  178.4490  140.4650 N   0  0  0  0  0  1  0  0  0  0  0  0
  182.9970  178.8630  143.7240 N   0  0  0  0  0  0  0  0  0  0  0  0
  183.2120  178.8240  142.4060 C   0  0  0  0  0  0  0  0  0  0  0  0
  181.6970  178.8030  143.9580 N   0  0  0  0  0  0  0  0  0  0  0  0
  187.4460  177.1830  144.8710 C   0  0  0  0  0  2  0  0  0  0  0  0
  188.3070  177.2540  143.8540 C   0  0  0  0  0  0  0  0  0  0  0  0
  188.1070  178.0780  142.6500 C   0  0  0  0  0  3  0  0  0  0  0  0
  185.3370  178.4080  144.1660 C   0  0  0  0  0  0  0  0  0  0  0  0
  186.9900  178.6110  142.1640 C   0  0  0  0  0  3  0  0  0  0  0  0
  185.6160  178.5550  142.7010 C   0  0  0  0  0  0  0  0  0  0  0  0
  189.5480  176.5380  143.9730 N   0  0  0  0  0  0  0  0  0  0  0  0
  189.9670  175.6920  142.9710 O   0  0  0  0  0  0  0  0  0  0  0  0
  190.2680  176.6830  144.9830 O   0  0  0  0  0  0  0  0  0  0  0  0
  185.0370  178.1140  139.5540 N   0  0  0  0  0  0  0  0  0  0  0  0
  184.8490  179.0600  140.4140 C   0  0  0  0  0  3  0  0  0  0  0  0
  185.2840  178.4130  138.1490 C   0  0  0  0  0  2  0  0  0  0  0  0
  187.9920  176.2820  136.4140 C   0  0  0  0  0  2  0  0  0  0  0  0
  187.6580  177.9530  138.8730 C   0  0  0  0  0  2  0  0  0  0  0  0
  191.4420  176.0960  137.9760 C   0  0  0  0  0  0  0  0  0  0  0  0
  190.3480  175.8770  137.1300 C   0  0  0  0  0  3  0  0  0  0  0  0
  189.1150  176.4790  137.3940 C   0  0  0  0  0  0  0  0  0  0  0  0
  190.0650  177.5270  139.3690 C   0  0  0  0  0  3  0  0  0  0  0  0
  188.9770  177.3330  138.5120 C   0  0  0  0  0  0  0  0  0  0  0  0
  191.2910  176.9130  139.1030 C   0  0  0  0  0  3  0  0  0  0  0  0
  186.6750  177.9610  137.7010 C   0  0  1  0  0  3  0  0  0  0  0  0
  186.6320  176.5950  137.0250 C   0  0  0  0  0  2  0  0  0  0  0  0
  192.7450  175.4120  137.7090 C   0  0  2  0  0  3  0  0  0  0  0  0
  193.8100  176.2540  138.0880 O   0  0  0  0  0  0  0  0  0  0  0  0
  193.5420  176.1640  136.7120 C   0  0  0  0  0  2  0  0  0  0  0  0
  1 20  1  1  0  0  0
  1  8  1  0  0  0  0
  1 15  1  0  0  0  0
  4  8  2  0  0  0  0
  4  5  1  0  0  0  0
  5  9  2  0  0  0  0
  6  4  1  0  0  0  0
  7  9  1  0  0  0  0
  7  3  1  0  0  0  0
  8  7  1  0  0  0  0
 10  2  1  0  0  0  0
 11 16  1  0  0  0  0
 11 10  1  0  0  0  0
 12 11  2  0  0  0  0
 13  3  1  0  0  0  0
 13  2  2  0  0  0  0
 14 12  1  0  0  0  0
 14 15  2  0  0  0  0
 15 13  1  0  0  0  0
 16 18  2  0  0  0  0
 17 16  2  0  0  0  0
 19 20  2  0  0  0  0
 21 19  1  0  0  0  0
 22 31  1  0  0  0  0
 22 26  1  0  0  0  0
 24 29  1  0  0  0  0
 25 26  1  0  0  0  0
 25 24  2  0  0  0  0
 26 28  2  0  0  0  0
 28 23  1  0  0  0  0
 28 27  1  0  0  0  0
 29 27  2  0  0  0  0
 30 21  1  1  0  0  0
 30 23  1  0  0  0  0
 31 30  1  0  0  0  0
 32 24  1  1  0  0  0
 32 33  1  0  0  0  0
 34 32  1  0  0  0  0
 34 33  1  0  0  0  0
M  END
>  <MODEL>
5

>  <REMARK>
 VINA RESULT:      -9.5      3.002      6.456
  Name = 
  5 active torsions:
  status: ('A' for Active; 'I' for Inactive)
    1  A    between atoms: C_1  and  C_9
    2  A    between atoms: N_3  and  C_25
    3  A    between atoms: C_7  and  C_11
    4  A    between atoms: N_8  and  C_18
    5  A    between atoms: C_18  and  C_30
                            x       y       z     vdW  Elec       q    Type
                         _______ _______ _______ _____ _____    ______ ____

>  <TORSDO>
F 5

$$$$
=
 OpenBabel10272415263D

 34 39  0  0  1  0  0  0  0  0999 V2000
  188.9520  177.1240  144.5620 C   0  0  2  0  0  3  0  0  0  0  0  0
  185.7700  178.1610  146.1170 C   0  0  0  0  0  3  0  0  0  0  0  0
  187.6360  177.1100  147.1880 C   0  0  0  0  0  2  0  0  0  0  0  0
  191.0480  177.3060  146.1330 C   0  0  0  0  0  0  0  0  0  0  0  0
  191.1890  177.3910  147.4720 N   0  0  0  0  0  0  0  0  0  0  0  0
  192.1130  177.5240  145.2160 N   0  0  0  0  0  1  0  0  0  0  0  0
  189.0770  177.1860  147.0180 N   0  0  0  0  0  0  0  0  0  0  0  0
  189.7040  177.1650  145.8390 C   0  0  0  0  0  0  0  0  0  0  0  0
  189.9680  177.3040  147.9870 N   0  0  0  0  0  0  0  0  0  0  0  0
  184.8310  178.7360  145.1470 C   0  0  0  0  0  3  0  0  0  0  0  0
  184.7630  178.5920  143.8230 C   0  0  0  0  0  0  0  0  0  0  0  0
  185.6580  177.7310  143.0310 C   0  0  0  0  0  3  0  0  0  0  0  0
  186.9440  177.5670  145.9290 C   0  0  2  0  0  3  0  0  0  0  0  0
  186.8440  177.2230  143.3500 C   0  0  0  0  0  3  0  0  0  0  0  0
  187.6110  177.3520  144.6040 C   0  0  0  0  0  0  0  0  0  0  0  0
  183.6990  179.2630  143.1270 N   0  0  0  0  0  0  0  0  0  0  0  0
  183.5150  179.0730  141.7760 O   0  0  0  0  0  0  0  0  0  0  0  0
  182.9190  180.0200  143.7420 O   0  0  0  0  0  0  0  0  0  0  0  0
  190.2700  177.6620  142.5900 N   0  0  0  0  0  0  0  0  0  0  0  0
  189.6120  176.7880  143.2790 C   0  0  0  0  0  3  0  0  0  0  0  0
  190.9170  177.2960  141.3360 C   0  0  0  0  0  2  0  0  0  0  0  0
  189.5740  176.0130  137.9540 C   0  0  0  0  0  2  0  0  0  0  0  0
  188.7970  177.9250  140.1190 C   0  0  0  0  0  2  0  0  0  0  0  0
  186.2190  177.2810  136.7270 C   0  0  0  0  0  0  0  0  0  0  0  0
  187.4520  176.6220  136.7920 C   0  0  0  0  0  3  0  0  0  0  0  0
  188.2990  176.8050  137.8880 C   0  0  0  0  0  0  0  0  0  0  0  0
  186.6770  178.3250  138.8680 C   0  0  0  0  0  3  0  0  0  0  0  0
  187.8970  177.6470  138.9490 C   0  0  0  0  0  0  0  0  0  0  0  0
  185.8410  178.1440  137.7630 C   0  0  0  0  0  3  0  0  0  0  0  0
  189.9050  176.8820  140.2670 C   0  0  1  0  0  3  0  0  0  0  0  0
  190.5800  176.6210  138.9240 C   0  0  0  0  0  2  0  0  0  0  0  0
  185.3400  177.1120  135.5280 C   0  0  2  0  0  3  0  0  0  0  0  0
  183.9970  176.9840  135.9380 O   0  0  0  0  0  0  0  0  0  0  0  0
  184.6510  175.8000  135.5590 C   0  0  0  0  0  2  0  0  0  0  0  0
  1 20  1  1  0  0  0
  1 15  1  0  0  0  0
  1  8  1  0  0  0  0
  4  5  1  0  0  0  0
  5  9  2  0  0  0  0
  6  4  1  0  0  0  0
  7  3  1  0  0  0  0
  7  9  1  0  0  0  0
  8  4  2  0  0  0  0
  8  7  1  0  0  0  0
 10  2  2  0  0  0  0
 11 10  1  0  0  0  0
 12 14  1  0  0  0  0
 12 11  2  0  0  0  0
 13  2  1  1  0  0  0
 13  3  1  0  0  0  0
 14 15  2  0  0  0  0
 15 13  1  0  0  0  0
 16 18  2  0  0  0  0
 16 11  1  0  0  0  0
 17 16  2  0  0  0  0
 19 20  2  0  0  0  0
 21 19  1  0  0  0  0
 22 31  1  0  0  0  0
 23 30  1  0  0  0  0
 24 25  2  0  0  0  0
 24 29  1  0  0  0  0
 25 26  1  0  0  0  0
 26 22  1  0  0  0  0
 26 28  2  0  0  0  0
 27 28  1  0  0  0  0
 28 23  1  0  0  0  0
 29 27  2  0  0  0  0
 30 21  1  1  0  0  0
 31 30  1  0  0  0  0
 32 34  1  0  0  0  0
 32 33  1  0  0  0  0
 32 24  1  1  0  0  0
 34 33  1  0  0  0  0
M  END
>  <MODEL>
6

>  <REMARK>
 VINA RESULT:      -9.3      3.760      8.877
  Name = 
  5 active torsions:
  status: ('A' for Active; 'I' for Inactive)
    1  A    between atoms: C_1  and  C_9
    2  A    between atoms: N_3  and  C_25
    3  A    between atoms: C_7  and  C_11
    4  A    between atoms: N_8  and  C_18
    5  A    between atoms: C_18  and  C_30
                            x       y       z     vdW  Elec       q    Type
                         _______ _______ _______ _____ _____    ______ ____

>  <TORSDO>
F 5

$$$$
=
 OpenBabel10272415263D

 34 39  0  0  1  0  0  0  0  0999 V2000
  187.8910  177.6210  138.4440 C   0  0  2  0  0  3  0  0  0  0  0  0
  184.2140  177.8850  138.6310 C   0  0  0  0  0  3  0  0  0  0  0  0
  185.5580  177.6750  136.6600 C   0  0  0  0  0  2  0  0  0  0  0  0
  188.7820  176.1380  136.4680 C   0  0  0  0  0  0  0  0  0  0  0  0
  188.2240  175.7060  135.3180 N   0  0  0  0  0  0  0  0  0  0  0  0
  190.0210  175.6530  136.9700 N   0  0  0  0  0  1  0  0  0  0  0  0
  186.7890  176.9720  136.3420 N   0  0  0  0  0  0  0  0  0  0  0  0
  187.8750  176.9530  137.1200 C   0  0  0  0  0  0  0  0  0  0  0  0
  187.0100  176.2400  135.2630 N   0  0  0  0  0  0  0  0  0  0  0  0
  183.7310  178.0450  140.0070 C   0  0  0  0  0  2  0  0  0  0  0  0
  184.3610  178.4900  141.0960 C   0  0  0  0  0  0  0  0  0  0  0  0
  185.7500  178.9810  141.1140 C   0  0  0  0  0  3  0  0  0  0  0  0
  185.4530  177.8840  138.1490 C   0  0  0  0  0  0  0  0  0  0  0  0
  186.7260  178.7890  140.2320 C   0  0  0  0  0  3  0  0  0  0  0  0
  186.7050  178.0450  138.9580 C   0  0  0  0  0  0  0  0  0  0  0  0
  183.6120  178.5670  142.3210 N   0  0  0  0  0  0  0  0  0  0  0  0
  184.2400  178.4130  143.5370 O   0  0  0  0  0  0  0  0  0  0  0  0
  182.3830  178.7840  142.2990 O   0  0  0  0  0  0  0  0  0  0  0  0
  189.6970  177.0020  139.9500 N   0  0  0  0  0  0  0  0  0  0  0  0
  189.1550  177.8790  139.1710 C   0  0  0  0  0  3  0  0  0  0  0  0
  190.9480  177.2830  140.6430 C   0  0  0  0  0  2  0  0  0  0  0  0
  191.4910  176.8910  144.4440 C   0  0  0  0  0  2  0  0  0  0  0  0
  189.2580  177.3920  142.5160 C   0  0  0  0  0  2  0  0  0  0  0  0
  188.5160  177.2940  146.7600 C   0  0  0  0  0  0  0  0  0  0  0  0
  189.8070  177.0450  146.2790 C   0  0  0  0  0  3  0  0  0  0  0  0
  190.0740  177.0830  144.9080 C   0  0  0  0  0  0  0  0  0  0  0  0
  187.7430  177.6200  144.4840 C   0  0  0  0  0  3  0  0  0  0  0  0
  189.0370  177.3980  144.0010 C   0  0  0  0  0  0  0  0  0  0  0  0
  187.4830  177.5690  145.8550 C   0  0  0  0  0  3  0  0  0  0  0  0
  190.7390  177.4920  142.1440 C   0  0  1  0  0  3  0  0  0  0  0  0
  191.5680  176.5130  142.9690 C   0  0  0  0  0  2  0  0  0  0  0  0
  188.2320  177.2060  148.2260 C   0  0  2  0  0  3  0  0  0  0  0  0
  187.3650  178.2510  148.6050 O   0  0  0  0  0  0  0  0  0  0  0  0
  188.7220  178.4140  148.9320 C   0  0  0  0  0  2  0  0  0  0  0  0
  1 15  1  0  0  0  0
  1 20  1  6  0  0  0
  2 10  1  0  0  0  0
  3 13  1  0  0  0  0
  4  6  1  0  0  0  0
  4  8  2  0  0  0  0
  5  4  1  0  0  0  0
  7  3  1  0  0  0  0
  7  8  1  0  0  0  0
  8  1  1  0  0  0  0
  9  5  2  0  0  0  0
  9  7  1  0  0  0  0
 10 11  1  0  0  0  0
 11 12  2  0  0  0  0
 11 16  1  0  0  0  0
 13  2  2  0  0  0  0
 13 15  1  0  0  0  0
 14 12  1  0  0  0  0
 15 14  2  0  0  0  0
 16 17  2  0  0  0  0
 18 16  2  0  0  0  0
 19 21  1  0  0  0  0
 20 19  2  0  0  0  0
 22 26  1  0  0  0  0
 23 28  1  0  0  0  0
 25 24  1  0  0  0  0
 26 25  2  0  0  0  0
 27 29  1  0  0  0  0
 28 27  2  0  0  0  0
 28 26  1  0  0  0  0
 29 24  2  0  0  0  0
 30 21  1  6  0  0  0
 30 23  1  0  0  0  0
 30 31  1  0  0  0  0
 31 22  1  0  0  0  0
 32 24  1  6  0  0  0
 32 33  1  0  0  0  0
 32 34  1  0  0  0  0
 33 34  1  0  0  0  0
M  END
>  <MODEL>
7

>  <REMARK>
 VINA RESULT:      -9.3      2.967      5.807
  Name = 
  5 active torsions:
  status: ('A' for Active; 'I' for Inactive)
    1  A    between atoms: C_1  and  C_9
    2  A    between atoms: N_3  and  C_25
    3  A    between atoms: C_7  and  C_11
    4  A    between atoms: N_8  and  C_18
    5  A    between atoms: C_18  and  C_30
                            x       y       z     vdW  Elec       q    Type
                         _______ _______ _______ _____ _____    ______ ____

>  <TORSDO>
F 5

$$$$
=
 OpenBabel10272415263D

 34 39  0  0  1  0  0  0  0  0999 V2000
  189.9530  176.7480  138.3340 C   0  0  2  0  0  3  0  0  0  0  0  0
  186.9290  178.0730  136.6830 C   0  0  0  0  0  3  0  0  0  0  0  0
  189.0700  177.6690  135.6870 C   0  0  0  0  0  2  0  0  0  0  0  0
  191.4820  175.2700  136.7930 C   0  0  0  0  0  0  0  0  0  0  0  0
  191.5850  175.1380  135.4540 N   0  0  0  0  0  0  0  0  0  0  0  0
  192.1090  174.3910  137.7200 N   0  0  0  0  0  1  0  0  0  0  0  0
  190.1040  176.6660  135.8790 N   0  0  0  0  0  0  0  0  0  0  0  0
  190.5460  176.2490  137.0700 C   0  0  0  0  0  0  0  0  0  0  0  0
  190.7390  176.0120  134.9220 N   0  0  0  0  0  0  0  0  0  0  0  0
  185.8060  178.2340  137.6120 C   0  0  0  0  0  2  0  0  0  0  0  0
  185.7960  178.3620  138.9400 C   0  0  0  0  0  0  0  0  0  0  0  0
  187.0050  178.4140  139.7810 C   0  0  0  0  0  3  0  0  0  0  0  0
  188.1990  177.7510  136.9150 C   0  0  0  0  0  0  0  0  0  0  0  0
  188.2460  178.0290  139.5030 C   0  0  0  0  0  3  0  0  0  0  0  0
  188.7920  177.4530  138.2590 C   0  0  0  0  0  0  0  0  0  0  0  0
  184.5260  178.5370  139.5890 N   0  0  0  0  0  0  0  0  0  0  0  0
  184.3440  179.5390  140.5170 O   0  0  0  0  0  0  0  0  0  0  0  0
  183.5650  177.7890  139.3130 O   0  0  0  0  0  0  0  0  0  0  0  0
  191.3360  177.4660  140.2010 N   0  0  0  0  0  0  0  0  0  0  0  0
  190.6210  176.5470  139.6400 C   0  0  0  0  0  3  0  0  0  0  0  0
  191.9710  177.2390  141.4930 C   0  0  0  0  0  2  0  0  0  0  0  0
  190.7480  177.6620  145.1290 C   0  0  0  0  0  2  0  0  0  0  0  0
  189.6110  177.2990  142.3850 C   0  0  0  0  0  2  0  0  0  0  0  0
  187.0180  177.7950  145.7910 C   0  0  0  0  0  0  0  0  0  0  0  0
  188.4040  177.7590  145.9790 C   0  0  0  0  0  3  0  0  0  0  0  0
  189.2660  177.6120  144.8880 C   0  0  0  0  0  0  0  0  0  0  0  0
  187.3450  177.5290  143.4020 C   0  0  0  0  0  3  0  0  0  0  0  0
  188.7320  177.5200  143.5830 C   0  0  0  0  0  0  0  0  0  0  0  0
  186.4920  177.6660  144.5000 C   0  0  0  0  0  3  0  0  0  0  0  0
  191.0720  177.6590  142.6570 C   0  0  1  0  0  3  0  0  0  0  0  0
  191.5390  177.0540  143.9760 C   0  0  0  0  0  2  0  0  0  0  0  0
  186.1040  177.9090  146.9700 C   0  0  2  0  0  3  0  0  0  0  0  0
  184.9880  178.7000  146.6320 O   0  0  0  0  0  0  0  0  0  0  0  0
  185.9810  179.3190  147.4090 C   0  0  0  0  0  2  0  0  0  0  0  0
  1 20  1  6  0  0  0
  2 13  2  0  0  0  0
  2 10  1  0  0  0  0
  3  7  1  0  0  0  0
  3 13  1  0  0  0  0
  4  8  2  0  0  0  0
  4  6  1  0  0  0  0
  5  4  1  0  0  0  0
  7  8  1  0  0  0  0
  8  1  1  0  0  0  0
  9  5  2  0  0  0  0
  9  7  1  0  0  0  0
 10 11  1  0  0  0  0
 11 16  1  0  0  0  0
 11 12  2  0  0  0  0
 13 15  1  0  0  0  0
 14 12  1  0  0  0  0
 15  1  1  0  0  0  0
 15 14  2  0  0  0  0
 16 17  2  0  0  0  0
 18 16  2  0  0  0  0
 19 21  1  0  0  0  0
 20 19  2  0  0  0  0
 23 30  1  0  0  0  0
 23 28  1  0  0  0  0
 24 25  1  0  0  0  0
 26 22  1  0  0  0  0
 26 25  2  0  0  0  0
 27 28  2  0  0  0  0
 27 29  1  0  0  0  0
 28 26  1  0  0  0  0
 29 24  2  0  0  0  0
 30 21  1  6  0  0  0
 30 31  1  0  0  0  0
 31 22  1  0  0  0  0
 32 24  1  6  0  0  0
 32 34  1  0  0  0  0
 33 32  1  0  0  0  0
 33 34  1  0  0  0  0
M  END
>  <MODEL>
8

>  <REMARK>
 VINA RESULT:      -9.2      3.415      6.897
  Name = 
  5 active torsions:
  status: ('A' for Active; 'I' for Inactive)
    1  A    between atoms: C_1  and  C_9
    2  A    between atoms: N_3  and  C_25
    3  A    between atoms: C_7  and  C_11
    4  A    between atoms: N_8  and  C_18
    5  A    between atoms: C_18  and  C_30
                            x       y       z     vdW  Elec       q    Type
                         _______ _______ _______ _____ _____    ______ ____

>  <TORSDO>
F 5

$$$$
=
 OpenBabel10272415263D

 34 39  0  0  1  0  0  0  0  0999 V2000
  187.3310  178.3970  144.5400 C   0  0  2  0  0  3  0  0  0  0  0  0
  188.8420  177.2110  147.6910 C   0  0  0  0  0  3  0  0  0  0  0  0
  186.8720  178.5490  147.4370 C   0  0  0  0  0  2  0  0  0  0  0  0
  184.7120  178.5890  144.5870 C   0  0  0  0  0  0  0  0  0  0  0  0
  183.8130  178.6560  145.5900 N   0  0  0  0  0  0  0  0  0  0  0  0
  184.3550  178.3860  143.2250 N   0  0  0  0  0  1  0  0  0  0  0  0
  185.8010  178.6010  146.4560 N   0  0  0  0  0  0  0  0  0  0  0  0
  185.9820  178.5630  145.1330 C   0  0  0  0  0  0  0  0  0  0  0  0
  184.5080  178.6730  146.7210 N   0  0  0  0  0  0  0  0  0  0  0  0
  190.0760  176.4490  147.4710 C   0  0  0  0  0  2  0  0  0  0  0  0
  190.9170  176.4490  146.4350 C   0  0  0  0  0  0  0  0  0  0  0  0
  190.7770  177.3100  145.2480 C   0  0  0  0  0  3  0  0  0  0  0  0
  188.0910  177.8990  146.8350 C   0  0  0  0  0  0  0  0  0  0  0  0
  189.7110  177.9640  144.7980 C   0  0  0  0  0  3  0  0  0  0  0  0
  188.3510  178.0420  145.3660 C   0  0  0  0  0  0  0  0  0  0  0  0
  192.0790  175.6060  146.5130 N   0  0  0  0  0  0  0  0  0  0  0  0
  192.3570  174.7020  145.5120 O   0  0  0  0  0  0  0  0  0  0  0  0
  192.8580  175.6910  147.4840 O   0  0  0  0  0  0  0  0  0  0  0  0
  187.5090  177.7410  142.2040 N   0  0  0  0  0  0  0  0  0  0  0  0
  187.5890  178.6640  143.1060 C   0  0  0  0  0  3  0  0  0  0  0  0
  187.7590  178.0380  140.8000 C   0  0  0  0  0  2  0  0  0  0  0  0
  191.4810  177.1510  140.3020 C   0  0  0  0  0  2  0  0  0  0  0  0
  188.9220  177.1320  138.7520 C   0  0  0  0  0  2  0  0  0  0  0  0
  192.5770  175.6950  136.9770 C   0  0  0  0  0  0  0  0  0  0  0  0
  192.5990  176.2160  138.2760 C   0  0  0  0  0  3  0  0  0  0  0  0
  191.4240  176.6770  138.8770 C   0  0  0  0  0  0  0  0  0  0  0  0
  190.1870  176.0980  136.8670 C   0  0  0  0  0  3  0  0  0  0  0  0
  190.2000  176.5950  138.1740 C   0  0  0  0  0  0  0  0  0  0  0  0
  191.3680  175.6500  136.2710 C   0  0  0  0  0  3  0  0  0  0  0  0
  188.9930  177.3080  140.2690 C   0  0  1  0  0  3  0  0  0  0  0  0
  190.2830  178.0180  140.6680 C   0  0  0  0  0  2  0  0  0  0  0  0
  193.8470  175.2460  136.3270 C   0  0  2  0  0  3  0  0  0  0  0  0
  194.8780  176.1630  136.6160 O   0  0  0  0  0  0  0  0  0  0  0  0
  194.3120  176.2410  135.3330 C   0  0  0  0  0  2  0  0  0  0  0  0
  1 20  1  1  0  0  0
  1  8  1  0  0  0  0
  1 15  1  0  0  0  0
  4  8  2  0  0  0  0
  4  5  1  0  0  0  0
  5  9  2  0  0  0  0
  6  4  1  0  0  0  0
  7  9  1  0  0  0  0
  7  3  1  0  0  0  0
  8  7  1  0  0  0  0
 10  2  1  0  0  0  0
 11 16  1  0  0  0  0
 11 10  1  0  0  0  0
 12 11  2  0  0  0  0
 13  3  1  0  0  0  0
 13  2  2  0  0  0  0
 14 12  1  0  0  0  0
 14 15  2  0  0  0  0
 15 13  1  0  0  0  0
 16 18  2  0  0  0  0
 17 16  2  0  0  0  0
 19 20  2  0  0  0  0
 21 19  1  0  0  0  0
 22 31  1  0  0  0  0
 23 30  1  0  0  0  0
 24 25  1  0  0  0  0
 25 26  2  0  0  0  0
 26 22  1  0  0  0  0
 27 28  2  0  0  0  0
 28 23  1  0  0  0  0
 28 26  1  0  0  0  0
 29 27  1  0  0  0  0
 29 24  2  0  0  0  0
 30 31  1  0  0  0  0
 30 21  1  6  0  0  0
 32 33  1  0  0  0  0
 32 24  1  1  0  0  0
 34 32  1  0  0  0  0
 34 33  1  0  0  0  0
M  END
>  <MODEL>
9

>  <REMARK>
 VINA RESULT:      -9.1      3.845      7.903
  Name = 
  5 active torsions:
  status: ('A' for Active; 'I' for Inactive)
    1  A    between atoms: C_1  and  C_9
    2  A    between atoms: N_3  and  C_25
    3  A    between atoms: C_7  and  C_11
    4  A    between atoms: N_8  and  C_18
    5  A    between atoms: C_18  and  C_30
                            x       y       z     vdW  Elec       q    Type
                         _______ _______ _______ _____ _____    ______ ____

>  <TORSDO>
F 5

$$$$
