=
 OpenBabel10272414223D

 43 49  0  0  1  0  0  0  0  0999 V2000
  186.8850  178.0450  146.8910 C   0  0  0  0  0  0  0  0  0  0  0  0
  183.7340  178.8030  142.9640 C   0  0  0  0  0  0  0  0  0  0  0  0
  185.3410  178.7050  140.6420 C   0  0  0  0  0  0  0  0  0  0  0  0
  184.9120  178.4470  145.4950 C   0  0  0  0  0  0  0  0  0  0  0  0
  187.7010  177.9780  145.8380 C   0  0  0  0  0  3  0  0  0  0  0  0
  187.3970  177.8870  148.1710 O   0  0  0  0  0  1  0  0  0  0  0  0
  185.7160  178.3910  144.3330 C   0  0  0  0  0  0  0  0  0  0  0  0
  185.4450  178.2850  146.7080 C   0  0  0  0  0  3  0  0  0  0  0  0
  187.2050  178.1410  144.4260 C   0  0  0  0  0  2  0  0  0  0  0  0
  185.9100  178.5240  141.9120 O   0  0  0  0  0  0  0  0  0  0  0  0
  185.1240  178.5720  143.0730 C   0  0  0  0  0  0  0  0  0  0  0  0
  182.9540  178.8500  144.1280 C   0  0  0  0  0  3  0  0  0  0  0  0
  183.1850  178.9780  141.7400 C   0  0  0  0  0  0  0  0  0  0  0  0
  184.0320  178.9260  140.5310 C   0  0  0  0  0  3  0  0  0  0  0  0
  183.5390  178.6730  145.3820 C   0  0  0  0  0  3  0  0  0  0  0  0
  181.7130  179.2040  141.5550 C   0  0  0  0  0  2  0  0  0  0  0  0
  181.0240  177.9440  141.0460 C   0  0  0  0  0  2  0  0  0  0  0  0
  180.4970  179.5930  139.2640 C   0  0  0  0  0  2  0  0  0  0  0  0
  180.7160  179.6290  137.7690 C   0  0  2  0  0  3  0  0  0  0  0  0
  181.4560  177.4690  138.6260 C   0  0  0  0  0  2  0  0  0  0  0  0
  180.5180  178.1260  139.6230 C   0  0  1  0  0  3  0  0  0  0  0  0
  181.5690  178.4170  137.4440 C   0  0  0  0  0  2  0  0  0  0  0  0
  181.1750  181.6720  138.4800 C   0  0  0  0  0  1  0  0  0  0  0  0
  181.3890  180.7980  137.4130 O   0  0  0  0  0  0  0  0  0  0  0  0
  186.1300  178.6550  139.4960 O   0  0  0  0  0  0  0  0  0  0  0  0
  185.6210  178.1490  138.2720 C   0  0  0  0  0  2  0  0  0  0  0  0
  186.6790  177.2950  137.5780 C   0  0  2  0  0  3  0  0  0  0  0  0
  184.5650  176.2170  136.8000 C   0  0  0  0  0  1  0  0  0  0  0  0
  186.0740  176.2410  136.6510 C   0  0  0  0  0  2  0  0  0  0  0  0
  187.6590  176.7790  138.4660 O   0  0  0  0  0  0  0  0  0  0  0  0
  188.9390  177.3140  138.1810 C   0  0  2  0  0  0  0  0  0  0  0  0
  191.1620  176.7710  139.0890 C   0  0  0  0  0  2  0  0  0  0  0  0
  189.7860  176.6640  137.0960 C   0  0  0  0  0  2  0  0  0  0  0  0
  189.8050  177.3500  139.4270 C   0  0  1  0  0  0  0  0  0  0  0  0
  189.3500  178.6500  138.8050 C   0  0  0  0  0  2  0  0  0  0  0  0
  190.9740  176.0220  137.7880 C   0  0  0  0  0  2  0  0  0  0  0  0
  189.1390  176.9230  140.6120 O   0  0  0  0  0  0  0  0  0  0  0  0
  189.6890  177.0780  141.8870 C   0  0  0  0  0  0  0  0  0  0  0  0
  191.0880  175.8820  143.5930 C   0  0  0  0  0  2  0  0  0  0  0  0
  190.7570  178.4370  143.6160 C   0  0  0  0  0  2  0  0  0  0  0  0
  191.6770  177.2600  143.9590 C   0  0  0  0  0  2  0  0  0  0  0  0
  190.1850  178.2620  142.2420 C   0  0  0  0  0  3  0  0  0  0  0  0
  189.7320  175.9420  142.8750 C   0  0  0  0  0  2  0  0  0  0  0  0
  1  6  1  0  0  0  0
  2 11  1  0  0  0  0
  2 12  1  0  0  0  0
  3 10  1  0  0  0  0
  4  8  2  0  0  0  0
  5  1  2  0  0  0  0
  7  9  1  0  0  0  0
  7  4  1  0  0  0  0
  8  1  1  0  0  0  0
  9  5  1  0  0  0  0
 10 11  1  0  0  0  0
 11  7  2  0  0  0  0
 12 15  2  0  0  0  0
 13  2  2  0  0  0  0
 14  3  2  0  0  0  0
 14 13  1  0  0  0  0
 15  4  1  0  0  0  0
 16 13  1  0  0  0  0
 17 16  1  0  0  0  0
 18 21  1  0  0  0  0
 19 24  1  1  0  0  0
 19 18  1  0  0  0  0
 20 21  1  0  0  0  0
 21 17  1  1  0  0  0
 22 19  1  0  0  0  0
 22 20  1  0  0  0  0
 24 23  1  0  0  0  0
 25  3  1  0  0  0  0
 26 25  1  0  0  0  0
 27 29  1  1  0  0  0
 27 26  1  0  0  0  0
 27 30  1  0  0  0  0
 29 28  1  0  0  0  0
 31 30  1  1  0  0  0
 31 35  1  0  0  0  0
 31 34  1  0  0  0  0
 32 34  1  0  0  0  0
 33 36  1  0  0  0  0
 33 31  1  0  0  0  0
 34 37  1  1  0  0  0
 35 34  1  0  0  0  0
 36 32  1  0  0  0  0
 37 38  1  0  0  0  0
 38 42  2  0  0  0  0
 38 43  1  0  0  0  0
 39 41  1  0  0  0  0
 40 41  1  0  0  0  0
 42 40  1  0  0  0  0
 43 39  1  0  0  0  0
M  END
>  <MODEL>
1

>  <REMARK>
 VINA RESULT:      -8.8      0.000      0.000
  Name = 
  12 active torsions:
  status: ('A' for Active; 'I' for Inactive)
    1  A    between atoms: C_1  and  C_34
    2  A    between atoms: C_1  and  C_35
    3  A    between atoms: C_2  and  O_6
    4  A    between atoms: C_2  and  C_12
    5  A    between atoms: O_3  and  C_4
    6  A    between atoms: O_3  and  C_12
    7  A    between atoms: O_6  and  C_13
    8  A    between atoms: C_11  and  O_14
    9  A    between atoms: C_12  and  C_17
   10  A    between atoms: O_14  and  C_22
   11  A    between atoms: C_19  and  O_37
   12  A    between atoms: C_32  and  C_35
                            x       y       z     vdW  Elec       q    Type
                         _______ _______ _______ _____ _____    ______ ____

>  <TORSDO>
F 12

$$$$
=
 OpenBabel10272414223D

 43 49  0  0  1  0  0  0  0  0999 V2000
  191.5130  176.5260  147.1770 C   0  0  0  0  0  0  0  0  0  0  0  0
  187.4480  177.7270  144.3550 C   0  0  0  0  0  0  0  0  0  0  0  0
  188.2690  177.4920  141.6620 C   0  0  0  0  0  0  0  0  0  0  0  0
  189.2750  177.1830  146.4260 C   0  0  0  0  0  0  0  0  0  0  0  0
  191.9650  176.3870  145.9300 C   0  0  0  0  0  3  0  0  0  0  0  0
  192.3600  176.2840  148.2480 O   0  0  0  0  0  1  0  0  0  0  0  0
  189.6850  177.0590  145.0790 C   0  0  0  0  0  0  0  0  0  0  0  0
  190.1220  176.9360  147.4280 C   0  0  0  0  0  3  0  0  0  0  0  0
  191.0950  176.6370  144.7280 C   0  0  0  0  0  2  0  0  0  0  0  0
  189.1640  177.2200  142.7080 O   0  0  0  0  0  0  0  0  0  0  0  0
  188.7700  177.3340  144.0490 C   0  0  0  0  0  0  0  0  0  0  0  0
  187.0600  177.8390  145.6990 C   0  0  0  0  0  3  0  0  0  0  0  0
  186.5840  177.9900  143.3490 C   0  0  0  0  0  0  0  0  0  0  0  0
  187.0210  177.8650  141.9430 C   0  0  0  0  0  3  0  0  0  0  0  0
  187.9680  177.5700  146.7230 C   0  0  0  0  0  3  0  0  0  0  0  0
  185.1610  178.3890  143.6070 C   0  0  0  0  0  2  0  0  0  0  0  0
  184.4970  178.9050  142.3360 C   0  0  0  0  0  2  0  0  0  0  0  0
  182.0340  178.8280  142.0210 C   0  0  0  0  0  2  0  0  0  0  0  0
  181.1280  178.2110  140.9800 C   0  0  2  0  0  3  0  0  0  0  0  0
  183.4340  177.5910  140.4900 C   0  0  0  0  0  2  0  0  0  0  0  0
  183.3160  178.0340  141.9370 C   0  0  1  0  0  3  0  0  0  0  0  0
  182.0430  177.6900  139.8880 C   0  0  0  0  0  2  0  0  0  0  0  0
  181.0650  179.9530  139.6190 C   0  0  0  0  0  1  0  0  0  0  0  0
  180.2660  179.1790  140.4620 O   0  0  0  0  0  0  0  0  0  0  0  0
  188.6700  177.3750  140.3340 O   0  0  0  0  0  0  0  0  0  0  0  0
  188.3710  178.3840  139.3820 C   0  0  0  0  0  2  0  0  0  0  0  0
  188.2070  177.7640  137.9970 C   0  0  2  0  0  3  0  0  0  0  0  0
  185.7180  177.8540  137.8130 C   0  0  0  0  0  1  0  0  0  0  0  0
  187.0250  178.3480  137.2230 C   0  0  0  0  0  2  0  0  0  0  0  0
  188.2380  176.3460  138.0060 O   0  0  0  0  0  0  0  0  0  0  0  0
  189.1980  175.8490  137.0910 C   0  0  2  0  0  0  0  0  0  0  0  0
  189.1020  175.5320  134.6520 C   0  0  0  0  0  2  0  0  0  0  0  0
  190.1470  176.8280  136.4130 C   0  0  0  0  0  2  0  0  0  0  0  0
  188.5330  175.0650  135.9740 C   0  0  1  0  0  0  0  0  0  0  0  0
  189.4080  174.3390  136.9700 C   0  0  0  0  0  2  0  0  0  0  0  0
  189.7790  176.8530  134.9420 C   0  0  0  0  0  2  0  0  0  0  0  0
  187.1230  174.9260  136.1190 O   0  0  0  0  0  0  0  0  0  0  0  0
  186.4990  173.6900  136.3070 C   0  0  0  0  0  0  0  0  0  0  0  0
  184.4350  172.6490  137.2830 C   0  0  0  0  0  2  0  0  0  0  0  0
  185.9080  171.4430  135.5460 C   0  0  0  0  0  2  0  0  0  0  0  0
  184.5030  171.6260  136.1300 C   0  0  0  0  0  2  0  0  0  0  0  0
  186.5590  172.7770  135.3400 C   0  0  0  0  0  3  0  0  0  0  0  0
  185.7640  173.3590  137.5790 C   0  0  0  0  0  2  0  0  0  0  0  0
  1  8  1  0  0  0  0
  1  6  1  0  0  0  0
  2 12  1  0  0  0  0
  3 14  2  0  0  0  0
  3 10  1  0  0  0  0
  4 15  1  0  0  0  0
  4  8  2  0  0  0  0
  5  1  2  0  0  0  0
  7  4  1  0  0  0  0
  9  7  1  0  0  0  0
  9  5  1  0  0  0  0
 10 11  1  0  0  0  0
 11  2  1  0  0  0  0
 11  7  2  0  0  0  0
 12 15  2  0  0  0  0
 13 16  1  0  0  0  0
 13  2  2  0  0  0  0
 14 13  1  0  0  0  0
 17 16  1  0  0  0  0
 19 24  1  6  0  0  0
 19 18  1  0  0  0  0
 20 21  1  0  0  0  0
 21 18  1  0  0  0  0
 21 17  1  6  0  0  0
 22 20  1  0  0  0  0
 22 19  1  0  0  0  0
 23 24  1  0  0  0  0
 25  3  1  0  0  0  0
 26 25  1  0  0  0  0
 27 29  1  1  0  0  0
 27 30  1  0  0  0  0
 27 26  1  0  0  0  0
 29 28  1  0  0  0  0
 31 30  1  1  0  0  0
 32 36  1  0  0  0  0
 32 34  1  0  0  0  0
 33 31  1  0  0  0  0
 34 37  1  1  0  0  0
 34 35  1  0  0  0  0
 34 31  1  0  0  0  0
 35 31  1  0  0  0  0
 36 33  1  0  0  0  0
 37 38  1  0  0  0  0
 38 43  1  0  0  0  0
 39 43  1  0  0  0  0
 40 41  1  0  0  0  0
 41 39  1  0  0  0  0
 42 40  1  0  0  0  0
 42 38  2  0  0  0  0
M  END
>  <MODEL>
2

>  <REMARK>
 VINA RESULT:      -8.5      2.310      5.035
  Name = 
  12 active torsions:
  status: ('A' for Active; 'I' for Inactive)
    1  A    between atoms: C_1  and  C_34
    2  A    between atoms: C_1  and  C_35
    3  A    between atoms: C_2  and  O_6
    4  A    between atoms: C_2  and  C_12
    5  A    between atoms: O_3  and  C_4
    6  A    between atoms: O_3  and  C_12
    7  A    between atoms: O_6  and  C_13
    8  A    between atoms: C_11  and  O_14
    9  A    between atoms: C_12  and  C_17
   10  A    between atoms: O_14  and  C_22
   11  A    between atoms: C_19  and  O_37
   12  A    between atoms: C_32  and  C_35
                            x       y       z     vdW  Elec       q    Type
                         _______ _______ _______ _____ _____    ______ ____

>  <TORSDO>
F 12

$$$$
=
 OpenBabel10272414223D

 43 49  0  0  1  0  0  0  0  0999 V2000
  191.0150  176.8950  146.5800 C   0  0  0  0  0  0  0  0  0  0  0  0
  189.6310  177.5810  141.7280 C   0  0  0  0  0  0  0  0  0  0  0  0
  186.9860  178.5690  141.8020 C   0  0  0  0  0  0  0  0  0  0  0  0
  190.9730  176.9980  144.1330 C   0  0  0  0  0  0  0  0  0  0  0  0
  189.7720  177.3660  146.6890 C   0  0  0  0  0  3  0  0  0  0  0  0
  191.7340  176.5770  147.7230 O   0  0  0  0  0  1  0  0  0  0  0  0
  189.6510  177.4980  144.1710 C   0  0  0  0  0  0  0  0  0  0  0  0
  191.6320  176.7090  145.2570 C   0  0  0  0  0  3  0  0  0  0  0  0
  188.9420  177.7280  145.4870 C   0  0  0  0  0  3  0  0  0  0  0  0
  187.6720  178.2780  142.9900 O   0  0  0  0  0  0  0  0  0  0  0  0
  188.9860  177.7850  142.9680 C   0  0  0  0  0  0  0  0  0  0  0  0
  190.9450  177.0880  141.7130 C   0  0  0  0  0  2  0  0  0  0  0  0
  188.9710  177.8610  140.5820 C   0  0  0  0  0  0  0  0  0  0  0  0
  187.5870  178.3770  140.6280 C   0  0  0  0  0  3  0  0  0  0  0  0
  191.6080  176.8000  142.9050 C   0  0  0  0  0  3  0  0  0  0  0  0
  189.6080  177.6880  139.2350 C   0  0  0  0  0  2  0  0  0  0  0  0
  189.1940  178.8050  138.2840 C   0  0  0  0  0  2  0  0  0  0  0  0
  189.2120  176.7890  136.8330 C   0  0  0  0  0  2  0  0  0  0  0  0
  188.3370  176.3030  135.7010 C   0  0  2  0  0  3  0  0  0  0  0  0
  187.5830  178.5160  136.3910 C   0  0  0  0  0  2  0  0  0  0  0  0
  189.0050  178.2840  136.8680 C   0  0  1  0  0  3  0  0  0  0  0  0
  187.1650  177.2650  135.6380 C   0  0  0  0  0  2  0  0  0  0  0  0
  189.0160  174.2030  135.8500 C   0  0  0  0  0  1  0  0  0  0  0  0
  187.8830  175.0110  135.9680 O   0  0  0  0  0  0  0  0  0  0  0  0
  185.6820  179.0580  141.8350 O   0  0  0  0  0  0  0  0  0  0  0  0
  184.6090  178.2650  142.3180 C   0  0  0  0  0  2  0  0  0  0  0  0
  183.3400  178.5620  141.5240 C   0  0  2  0  0  3  0  0  0  0  0  0
  182.5490  178.9160  143.8660 C   0  0  0  0  0  1  0  0  0  0  0  0
  182.1200  178.7800  142.4170 C   0  0  0  0  0  2  0  0  0  0  0  0
  183.1140  177.6500  140.4600 O   0  0  0  0  0  0  0  0  0  0  0  0
  183.3890  178.2480  139.2060 C   0  0  2  0  0  0  0  0  0  0  0  0
  182.4670  177.8120  136.9660 C   0  0  0  0  0  2  0  0  0  0  0  0
  182.5560  179.4400  138.7580 C   0  0  0  0  0  2  0  0  0  0  0  0
  183.3010  177.2280  138.0850 C   0  0  1  0  0  0  0  0  0  0  0  0
  184.6430  177.8300  138.4350 C   0  0  0  0  0  2  0  0  0  0  0  0
  181.7250  178.9810  137.5760 C   0  0  0  0  0  2  0  0  0  0  0  0
  183.0470  175.8980  138.5250 O   0  0  0  0  0  0  0  0  0  0  0  0
  183.3610  174.7730  137.7580 C   0  0  0  0  0  0  0  0  0  0  0  0
  184.9670  172.8480  137.6420 C   0  0  0  0  0  2  0  0  0  0  0  0
  182.7080  172.8470  136.4020 C   0  0  0  0  0  2  0  0  0  0  0  0
  183.7980  172.0110  137.0810 C   0  0  0  0  0  2  0  0  0  0  0  0
  182.3750  174.0420  137.2410 C   0  0  0  0  0  3  0  0  0  0  0  0
  184.7870  174.3670  137.4950 C   0  0  0  0  0  2  0  0  0  0  0  0
  1  5  1  0  0  0  0
  1  6  1  0  0  0  0
  2 11  1  0  0  0  0
  3 25  1  0  0  0  0
  3 10  1  0  0  0  0
  4  7  1  0  0  0  0
  4  8  1  0  0  0  0
  7  9  1  0  0  0  0
  8  1  2  0  0  0  0
  9  5  2  0  0  0  0
 11 10  1  0  0  0  0
 11  7  2  0  0  0  0
 12  2  1  0  0  0  0
 12 15  1  0  0  0  0
 13 14  1  0  0  0  0
 13  2  2  0  0  0  0
 14  3  2  0  0  0  0
 15  4  2  0  0  0  0
 16 13  1  0  0  0  0
 17 16  1  0  0  0  0
 18 21  1  0  0  0  0
 19 24  1  1  0  0  0
 19 18  1  0  0  0  0
 20 21  1  0  0  0  0
 21 17  1  1  0  0  0
 22 19  1  0  0  0  0
 22 20  1  0  0  0  0
 23 24  1  0  0  0  0
 25 26  1  0  0  0  0
 27 26  1  1  0  0  0
 27 29  1  0  0  0  0
 29 28  1  0  0  0  0
 30 27  1  0  0  0  0
 31 30  1  1  0  0  0
 32 36  1  0  0  0  0
 32 34  1  0  0  0  0
 33 31  1  0  0  0  0
 34 35  1  0  0  0  0
 34 37  1  1  0  0  0
 34 31  1  0  0  0  0
 35 31  1  0  0  0  0
 36 33  1  0  0  0  0
 38 37  1  0  0  0  0
 40 41  1  0  0  0  0
 40 42  1  0  0  0  0
 41 39  1  0  0  0  0
 42 38  2  0  0  0  0
 43 39  1  0  0  0  0
 43 38  1  0  0  0  0
M  END
>  <MODEL>
3

>  <REMARK>
 VINA RESULT:      -8.5      2.168      7.217
  Name = 
  12 active torsions:
  status: ('A' for Active; 'I' for Inactive)
    1  A    between atoms: C_1  and  C_34
    2  A    between atoms: C_1  and  C_35
    3  A    between atoms: C_2  and  O_6
    4  A    between atoms: C_2  and  C_12
    5  A    between atoms: O_3  and  C_4
    6  A    between atoms: O_3  and  C_12
    7  A    between atoms: O_6  and  C_13
    8  A    between atoms: C_11  and  O_14
    9  A    between atoms: C_12  and  C_17
   10  A    between atoms: O_14  and  C_22
   11  A    between atoms: C_19  and  O_37
   12  A    between atoms: C_32  and  C_35
                            x       y       z     vdW  Elec       q    Type
                         _______ _______ _______ _____ _____    ______ ____

>  <TORSDO>
F 12

$$$$
=
 OpenBabel10272414223D

 43 49  0  0  1  0  0  0  0  0999 V2000
  184.7070  178.5740  145.7620 C   0  0  0  0  0  0  0  0  0  0  0  0
  182.7260  178.9550  141.0860 C   0  0  0  0  0  0  0  0  0  0  0  0
  184.8970  178.7010  139.2960 C   0  0  0  0  0  0  0  0  0  0  0  0
  183.1820  178.8250  143.8610 C   0  0  0  0  0  0  0  0  0  0  0  0
  185.7740  178.4380  144.9750 C   0  0  0  0  0  3  0  0  0  0  0  0
  184.8560  178.5290  147.1410 O   0  0  0  0  0  1  0  0  0  0  0  0
  184.2680  178.6920  142.9660 C   0  0  0  0  0  0  0  0  0  0  0  0
  183.3690  178.7710  145.1820 C   0  0  0  0  0  3  0  0  0  0  0  0
  185.6760  178.4780  143.4740 C   0  0  0  0  0  2  0  0  0  0  0  0
  185.1040  178.6340  140.6820 O   0  0  0  0  0  0  0  0  0  0  0  0
  184.0350  178.7590  141.5820 C   0  0  0  0  0  0  0  0  0  0  0  0
  181.6630  179.0800  141.9920 C   0  0  0  0  0  3  0  0  0  0  0  0
  182.5260  179.0200  139.7510 C   0  0  0  0  0  0  0  0  0  0  0  0
  183.6660  178.8870  138.8200 C   0  0  0  0  0  3  0  0  0  0  0  0
  181.8900  179.0150  143.3670 C   0  0  0  0  0  3  0  0  0  0  0  0
  181.1580  179.2030  139.1610 C   0  0  0  0  0  2  0  0  0  0  0  0
  181.2150  179.2130  137.6380 C   0  0  0  0  0  2  0  0  0  0  0  0
  180.7890  181.6590  137.6910 C   0  0  0  0  0  2  0  0  0  0  0  0
  180.5130  182.7000  136.6310 C   0  0  2  0  0  3  0  0  0  0  0  0
  180.6420  180.5070  135.5740 C   0  0  0  0  0  2  0  0  0  0  0  0
  180.3840  180.3480  137.0610 C   0  0  1  0  0  3  0  0  0  0  0  0
  180.7090  182.0000  135.2990 C   0  0  0  0  0  2  0  0  0  0  0  0
  180.7800  184.8410  136.1430 C   0  0  0  0  0  1  0  0  0  0  0  0
  181.4150  183.7580  136.7530 O   0  0  0  0  0  0  0  0  0  0  0  0
  185.9640  178.5750  138.4110 O   0  0  0  0  0  0  0  0  0  0  0  0
  185.8620  177.7760  137.2420 C   0  0  0  0  0  2  0  0  0  0  0  0
  186.9690  176.7250  137.2280 C   0  0  2  0  0  3  0  0  0  0  0  0
  186.3710  175.3180  135.2530 C   0  0  0  0  0  1  0  0  0  0  0  0
  186.4780  175.3540  136.7660 C   0  0  0  0  0  2  0  0  0  0  0  0
  187.7260  176.6860  138.4280 O   0  0  0  0  0  0  0  0  0  0  0  0
  189.0500  177.1420  138.2130 C   0  0  2  0  0  0  0  0  0  0  0  0
  191.0890  176.8920  139.5680 C   0  0  0  0  0  2  0  0  0  0  0  0
  190.0340  176.2340  137.4880 C   0  0  0  0  0  2  0  0  0  0  0  0
  189.7140  177.5230  139.5230 C   0  0  1  0  0  0  0  0  0  0  0  0
  189.3990  178.6010  138.5120 C   0  0  0  0  0  2  0  0  0  0  0  0
  191.0810  175.8180  138.5020 C   0  0  0  0  0  2  0  0  0  0  0  0
  188.8620  177.4220  140.6610 O   0  0  0  0  0  0  0  0  0  0  0  0
  189.3500  177.3580  141.9680 C   0  0  0  0  0  0  0  0  0  0  0  0
  190.4870  178.7460  143.7230 C   0  0  0  0  0  2  0  0  0  0  0  0
  189.1940  176.5890  144.2830 C   0  0  0  0  0  2  0  0  0  0  0  0
  189.6530  177.9700  144.7630 C   0  0  0  0  0  2  0  0  0  0  0  0
  188.6650  176.6770  142.8850 C   0  0  0  0  0  3  0  0  0  0  0  0
  190.6340  178.0340  142.3700 C   0  0  0  0  0  2  0  0  0  0  0  0
  1  6  1  0  0  0  0
  2 11  1  0  0  0  0
  2 12  1  0  0  0  0
  3 10  1  0  0  0  0
  4  8  2  0  0  0  0
  5  1  2  0  0  0  0
  7  9  1  0  0  0  0
  7  4  1  0  0  0  0
  8  1  1  0  0  0  0
  9  5  1  0  0  0  0
 10 11  1  0  0  0  0
 11  7  2  0  0  0  0
 12 15  2  0  0  0  0
 13  2  2  0  0  0  0
 14  3  2  0  0  0  0
 14 13  1  0  0  0  0
 15  4  1  0  0  0  0
 16 13  1  0  0  0  0
 17 16  1  0  0  0  0
 19 24  1  1  0  0  0
 19 18  1  0  0  0  0
 20 21  1  0  0  0  0
 21 17  1  1  0  0  0
 21 18  1  0  0  0  0
 22 20  1  0  0  0  0
 22 19  1  0  0  0  0
 23 24  1  0  0  0  0
 25  3  1  0  0  0  0
 26 25  1  0  0  0  0
 27 29  1  1  0  0  0
 27 26  1  0  0  0  0
 27 30  1  0  0  0  0
 28 29  1  0  0  0  0
 31 30  1  1  0  0  0
 31 35  1  0  0  0  0
 31 34  1  0  0  0  0
 33 31  1  0  0  0  0
 33 36  1  0  0  0  0
 34 32  1  0  0  0  0
 34 37  1  1  0  0  0
 35 34  1  0  0  0  0
 36 32  1  0  0  0  0
 37 38  1  0  0  0  0
 38 43  1  0  0  0  0
 38 42  2  0  0  0  0
 39 41  1  0  0  0  0
 40 41  1  0  0  0  0
 42 40  1  0  0  0  0
 43 39  1  0  0  0  0
M  END
>  <MODEL>
4

>  <REMARK>
 VINA RESULT:      -8.5      1.428      2.291
  Name = 
  12 active torsions:
  status: ('A' for Active; 'I' for Inactive)
    1  A    between atoms: C_1  and  C_34
    2  A    between atoms: C_1  and  C_35
    3  A    between atoms: C_2  and  O_6
    4  A    between atoms: C_2  and  C_12
    5  A    between atoms: O_3  and  C_4
    6  A    between atoms: O_3  and  C_12
    7  A    between atoms: O_6  and  C_13
    8  A    between atoms: C_11  and  O_14
    9  A    between atoms: C_12  and  C_17
   10  A    between atoms: O_14  and  C_22
   11  A    between atoms: C_19  and  O_37
   12  A    between atoms: C_32  and  C_35
                            x       y       z     vdW  Elec       q    Type
                         _______ _______ _______ _____ _____    ______ ____

>  <TORSDO>
F 12

$$$$
=
 OpenBabel10272414223D

 43 49  0  0  1  0  0  0  0  0999 V2000
  191.1200  176.6820  146.8460 C   0  0  0  0  0  0  0  0  0  0  0  0
  186.6020  178.3310  145.1740 C   0  0  0  0  0  0  0  0  0  0  0  0
  186.7360  178.2490  142.3530 C   0  0  0  0  0  0  0  0  0  0  0  0
  188.8240  177.5260  146.7020 C   0  0  0  0  0  0  0  0  0  0  0  0
  191.2490  176.6100  145.5210 C   0  0  0  0  0  3  0  0  0  0  0  0
  192.1780  176.3100  147.6630 O   0  0  0  0  0  1  0  0  0  0  0  0
  188.8900  177.4790  145.2910 C   0  0  0  0  0  0  0  0  0  0  0  0
  189.8640  177.1540  147.4520 C   0  0  0  0  0  3  0  0  0  0  0  0
  190.1390  177.0000  144.5830 C   0  0  0  0  0  2  0  0  0  0  0  0
  187.8320  177.8470  143.1310 O   0  0  0  0  0  0  0  0  0  0  0  0
  187.7790  177.8830  144.5330 C   0  0  0  0  0  0  0  0  0  0  0  0
  186.5560  178.3650  146.5750 C   0  0  0  0  0  3  0  0  0  0  0  0
  185.5450  178.7190  144.4250 C   0  0  0  0  0  0  0  0  0  0  0  0
  185.6230  178.6740  142.9500 C   0  0  0  0  0  3  0  0  0  0  0  0
  187.6580  177.9660  147.3310 C   0  0  0  0  0  3  0  0  0  0  0  0
  184.2590  179.1820  145.0440 C   0  0  0  0  0  2  0  0  0  0  0  0
  183.1010  178.2730  144.6480 C   0  0  0  0  0  2  0  0  0  0  0  0
  182.3350  178.8480  142.3570 C   0  0  0  0  0  2  0  0  0  0  0  0
  180.9780  178.9470  141.6980 C   0  0  2  0  0  3  0  0  0  0  0  0
  180.6740  178.4600  144.0670 C   0  0  0  0  0  2  0  0  0  0  0  0
  182.0630  179.0250  143.8310 C   0  0  1  0  0  3  0  0  0  0  0  0
  179.9820  178.4240  142.7150 C   0  0  0  0  0  2  0  0  0  0  0  0
  181.6380  178.9020  139.5870 C   0  0  0  0  0  1  0  0  0  0  0  0
  180.9470  178.1600  140.5470 O   0  0  0  0  0  0  0  0  0  0  0  0
  186.7980  178.2080  140.9620 O   0  0  0  0  0  0  0  0  0  0  0  0
  185.6530  178.4640  140.1650 C   0  0  0  0  0  2  0  0  0  0  0  0
  186.0270  178.4360  138.6860 C   0  0  2  0  0  3  0  0  0  0  0  0
  184.8360  176.4510  137.7510 C   0  0  0  0  0  1  0  0  0  0  0  0
  184.8800  177.9660  137.7930 C   0  0  0  0  0  2  0  0  0  0  0  0
  187.2570  177.7780  138.4280 O   0  0  0  0  0  0  0  0  0  0  0  0
  187.9140  178.3420  137.3070 C   0  0  2  0  0  0  0  0  0  0  0  0
  189.1280  177.2910  135.4410 C   0  0  0  0  0  2  0  0  0  0  0  0
  187.1330  178.5400  136.0150 C   0  0  0  0  0  2  0  0  0  0  0  0
  189.1460  177.5360  136.9340 C   0  0  1  0  0  0  0  0  0  0  0  0
  189.3140  178.9360  137.4780 C   0  0  0  0  0  2  0  0  0  0  0  0
  187.7100  177.5770  134.9960 C   0  0  0  0  0  2  0  0  0  0  0  0
  189.4240  176.4530  137.8170 O   0  0  0  0  0  0  0  0  0  0  0  0
  190.4230  176.5080  138.7910 C   0  0  0  0  0  0  0  0  0  0  0  0
  192.8140  177.1930  139.1310 C   0  0  0  0  0  2  0  0  0  0  0  0
  191.1660  176.8900  141.0880 C   0  0  0  0  0  2  0  0  0  0  0  0
  192.4060  177.6170  140.5570 C   0  0  0  0  0  2  0  0  0  0  0  0
  190.1000  176.8490  140.0360 C   0  0  0  0  0  3  0  0  0  0  0  0
  191.8600  176.1860  138.4720 C   0  0  0  0  0  2  0  0  0  0  0  0
  1  8  1  0  0  0  0
  1  6  1  0  0  0  0
  2 12  1  0  0  0  0
  3 14  2  0  0  0  0
  3 10  1  0  0  0  0
  4 15  1  0  0  0  0
  4  8  2  0  0  0  0
  5  1  2  0  0  0  0
  7  4  1  0  0  0  0
  9  7  1  0  0  0  0
  9  5  1  0  0  0  0
 10 11  1  0  0  0  0
 11  2  1  0  0  0  0
 11  7  2  0  0  0  0
 12 15  2  0  0  0  0
 13 16  1  0  0  0  0
 13  2  2  0  0  0  0
 14 13  1  0  0  0  0
 17 16  1  0  0  0  0
 18 21  1  0  0  0  0
 19 24  1  6  0  0  0
 19 18  1  0  0  0  0
 19 22  1  0  0  0  0
 21 20  1  0  0  0  0
 21 17  1  1  0  0  0
 22 20  1  0  0  0  0
 23 24  1  0  0  0  0
 25  3  1  0  0  0  0
 26 25  1  0  0  0  0
 27 29  1  6  0  0  0
 27 26  1  0  0  0  0
 28 29  1  0  0  0  0
 30 27  1  0  0  0  0
 31 35  1  0  0  0  0
 31 30  1  1  0  0  0
 32 34  1  0  0  0  0
 33 31  1  0  0  0  0
 34 31  1  0  0  0  0
 34 35  1  0  0  0  0
 34 37  1  1  0  0  0
 36 32  1  0  0  0  0
 36 33  1  0  0  0  0
 37 38  1  0  0  0  0
 38 42  2  0  0  0  0
 39 41  1  0  0  0  0
 41 40  1  0  0  0  0
 42 40  1  0  0  0  0
 43 38  1  0  0  0  0
 43 39  1  0  0  0  0
M  END
>  <MODEL>
5

>  <REMARK>
 VINA RESULT:      -8.3      1.802      3.623
  Name = 
  12 active torsions:
  status: ('A' for Active; 'I' for Inactive)
    1  A    between atoms: C_1  and  C_34
    2  A    between atoms: C_1  and  C_35
    3  A    between atoms: C_2  and  O_6
    4  A    between atoms: C_2  and  C_12
    5  A    between atoms: O_3  and  C_4
    6  A    between atoms: O_3  and  C_12
    7  A    between atoms: O_6  and  C_13
    8  A    between atoms: C_11  and  O_14
    9  A    between atoms: C_12  and  C_17
   10  A    between atoms: O_14  and  C_22
   11  A    between atoms: C_19  and  O_37
   12  A    between atoms: C_32  and  C_35
                            x       y       z     vdW  Elec       q    Type
                         _______ _______ _______ _____ _____    ______ ____

>  <TORSDO>
F 12

$$$$
=
 OpenBabel10272414223D

 43 49  0  0  1  0  0  0  0  0999 V2000
  188.9610  177.4150  146.8020 C   0  0  0  0  0  0  0  0  0  0  0  0
  190.0580  177.2840  141.8310 C   0  0  0  0  0  0  0  0  0  0  0  0
  187.7170  178.1270  140.4920 C   0  0  0  0  0  0  0  0  0  0  0  0
  190.0860  177.1440  144.6430 C   0  0  0  0  0  0  0  0  0  0  0  0
  187.8270  177.8300  146.2360 C   0  0  0  0  0  3  0  0  0  0  0  0
  189.0450  177.3140  148.1830 O   0  0  0  0  0  1  0  0  0  0  0  0
  188.9160  177.5720  143.9740 C   0  0  0  0  0  0  0  0  0  0  0  0
  190.1260  177.0650  145.9740 C   0  0  0  0  0  3  0  0  0  0  0  0
  187.6740  177.9600  144.7450 C   0  0  0  0  0  3  0  0  0  0  0  0
  187.7520  178.0570  141.8930 O   0  0  0  0  0  0  0  0  0  0  0  0
  188.9070  177.6380  142.5710 C   0  0  0  0  0  0  0  0  0  0  0  0
  191.2090  176.8660  142.5150 C   0  0  0  0  0  2  0  0  0  0  0  0
  190.0260  177.3510  140.4810 C   0  0  0  0  0  0  0  0  0  0  0  0
  188.7980  177.7930  139.7880 C   0  0  0  0  0  3  0  0  0  0  0  0
  191.2210  176.7980  143.9080 C   0  0  0  0  0  3  0  0  0  0  0  0
  191.2210  177.0110  139.6400 C   0  0  0  0  0  2  0  0  0  0  0  0
  190.8180  176.7500  138.1940 C   0  0  0  0  0  2  0  0  0  0  0  0
  193.2820  176.4530  138.0940 C   0  0  0  0  0  2  0  0  0  0  0  0
  194.1860  175.3070  137.7000 C   0  0  2  0  0  3  0  0  0  0  0  0
  191.8690  174.6610  137.3030 C   0  0  0  0  0  2  0  0  0  0  0  0
  191.9740  176.1720  137.3930 C   0  0  1  0  0  3  0  0  0  0  0  0
  193.2740  174.1130  137.4840 C   0  0  0  0  0  2  0  0  0  0  0  0
  195.3690  173.6750  138.6100 C   0  0  0  0  0  1  0  0  0  0  0  0
  195.0910  175.0380  138.7260 O   0  0  0  0  0  0  0  0  0  0  0  0
  186.5660  178.5440  139.8290 O   0  0  0  0  0  0  0  0  0  0  0  0
  186.4360  178.4110  138.4230 C   0  0  0  0  0  2  0  0  0  0  0  0
  185.1530  177.6560  138.0850 C   0  0  2  0  0  3  0  0  0  0  0  0
  186.3710  177.5140  135.9090 C   0  0  0  0  0  1  0  0  0  0  0  0
  185.2140  176.9660  136.7230 C   0  0  0  0  0  2  0  0  0  0  0  0
  183.9770  178.4240  138.2840 O   0  0  0  0  0  0  0  0  0  0  0  0
  182.8320  177.5950  138.3700 C   0  0  2  0  0  0  0  0  0  0  0  0
  180.5420  178.0670  139.1380 C   0  0  0  0  0  2  0  0  0  0  0  0
  181.8760  177.5320  137.1870 C   0  0  0  0  0  2  0  0  0  0  0  0
  181.9860  177.9560  139.5770 C   0  0  1  0  0  0  0  0  0  0  0  0
  182.6970  176.6220  139.5430 C   0  0  0  0  0  2  0  0  0  0  0  0
  180.5810  178.1840  137.6300 C   0  0  0  0  0  2  0  0  0  0  0  0
  182.5470  178.9750  140.3990 O   0  0  0  0  0  0  0  0  0  0  0  0
  182.8180  178.7900  141.7560 C   0  0  0  0  0  0  0  0  0  0  0  0
  184.5870  179.1980  143.4890 C   0  0  0  0  0  2  0  0  0  0  0  0
  182.1250  178.7450  144.1000 C   0  0  0  0  0  2  0  0  0  0  0  0
  183.4370  179.4320  144.4910 C   0  0  0  0  0  2  0  0  0  0  0  0
  181.8420  178.9620  142.6450 C   0  0  0  0  0  3  0  0  0  0  0  0
  184.1880  178.3940  142.2430 C   0  0  0  0  0  2  0  0  0  0  0  0
  1  6  1  0  0  0  0
  2 12  1  0  0  0  0
  2 11  1  0  0  0  0
  3 10  1  0  0  0  0
  4  8  1  0  0  0  0
  5  1  1  0  0  0  0
  7  4  1  0  0  0  0
  7  9  1  0  0  0  0
  8  1  2  0  0  0  0
  9  5  2  0  0  0  0
 10 11  1  0  0  0  0
 11  7  2  0  0  0  0
 12 15  1  0  0  0  0
 13  2  2  0  0  0  0
 14 13  1  0  0  0  0
 14  3  2  0  0  0  0
 15  4  2  0  0  0  0
 16 13  1  0  0  0  0
 17 16  1  0  0  0  0
 19 18  1  0  0  0  0
 19 24  1  1  0  0  0
 20 21  1  0  0  0  0
 20 22  1  0  0  0  0
 21 18  1  0  0  0  0
 21 17  1  1  0  0  0
 22 19  1  0  0  0  0
 23 24  1  0  0  0  0
 25  3  1  0  0  0  0
 26 25  1  0  0  0  0
 27 29  1  6  0  0  0
 27 30  1  0  0  0  0
 27 26  1  0  0  0  0
 28 29  1  0  0  0  0
 31 30  1  6  0  0  0
 31 35  1  0  0  0  0
 31 34  1  0  0  0  0
 32 34  1  0  0  0  0
 33 36  1  0  0  0  0
 33 31  1  0  0  0  0
 34 37  1  1  0  0  0
 35 34  1  0  0  0  0
 36 32  1  0  0  0  0
 37 38  1  0  0  0  0
 38 43  1  0  0  0  0
 38 42  2  0  0  0  0
 39 41  1  0  0  0  0
 40 41  1  0  0  0  0
 42 40  1  0  0  0  0
 43 39  1  0  0  0  0
M  END
>  <MODEL>
6

>  <REMARK>
 VINA RESULT:      -8.3      2.000      7.937
  Name = 
  12 active torsions:
  status: ('A' for Active; 'I' for Inactive)
    1  A    between atoms: C_1  and  C_34
    2  A    between atoms: C_1  and  C_35
    3  A    between atoms: C_2  and  O_6
    4  A    between atoms: C_2  and  C_12
    5  A    between atoms: O_3  and  C_4
    6  A    between atoms: O_3  and  C_12
    7  A    between atoms: O_6  and  C_13
    8  A    between atoms: C_11  and  O_14
    9  A    between atoms: C_12  and  C_17
   10  A    between atoms: O_14  and  C_22
   11  A    between atoms: C_19  and  O_37
   12  A    between atoms: C_32  and  C_35
                            x       y       z     vdW  Elec       q    Type
                         _______ _______ _______ _____ _____    ______ ____

>  <TORSDO>
F 12

$$$$
=
 OpenBabel10272414223D

 43 49  0  0  1  0  0  0  0  0999 V2000
  184.9120  178.6700  145.7940 C   0  0  0  0  0  0  0  0  0  0  0  0
  182.8860  178.8190  141.1250 C   0  0  0  0  0  0  0  0  0  0  0  0
  185.0540  178.6140  139.3250 C   0  0  0  0  0  0  0  0  0  0  0  0
  183.3650  178.7930  143.8990 C   0  0  0  0  0  0  0  0  0  0  0  0
  185.9800  178.5600  145.0030 C   0  0  0  0  0  3  0  0  0  0  0  0
  185.0730  178.6730  147.1720 O   0  0  0  0  0  1  0  0  0  0  0  0
  184.4500  178.6840  142.9990 C   0  0  0  0  0  0  0  0  0  0  0  0
  183.5630  178.7880  145.2190 C   0  0  0  0  0  3  0  0  0  0  0  0
  185.8700  178.5510  143.5020 C   0  0  0  0  0  2  0  0  0  0  0  0
  185.2730  178.5970  140.7110 O   0  0  0  0  0  0  0  0  0  0  0  0
  184.2060  178.7000  141.6160 C   0  0  0  0  0  0  0  0  0  0  0  0
  181.8230  178.9220  142.0350 C   0  0  0  0  0  3  0  0  0  0  0  0
  182.6730  178.8350  139.7900 C   0  0  0  0  0  0  0  0  0  0  0  0
  183.8120  178.7280  138.8550 C   0  0  0  0  0  3  0  0  0  0  0  0
  182.0630  178.9090  143.4090 C   0  0  0  0  0  3  0  0  0  0  0  0
  181.2950  178.9370  139.2060 C   0  0  0  0  0  2  0  0  0  0  0  0
  181.2240  178.2530  137.8450 C   0  0  0  0  0  2  0  0  0  0  0  0
  180.4560  176.2470  136.5990 C   0  0  0  0  0  2  0  0  0  0  0  0
  180.2070  174.8060  136.9810 C   0  0  2  0  0  3  0  0  0  0  0  0
  180.8060  176.0630  138.9820 C   0  0  0  0  0  2  0  0  0  0  0  0
  180.3430  177.0150  137.8940 C   0  0  1  0  0  3  0  0  0  0  0  0
  180.7050  174.6610  138.4070 C   0  0  0  0  0  2  0  0  0  0  0  0
  181.6890  173.1640  136.9900 C   0  0  0  0  0  1  0  0  0  0  0  0
  180.9210  173.9570  136.1350 O   0  0  0  0  0  0  0  0  0  0  0  0
  186.1200  178.5100  138.4360 O   0  0  0  0  0  0  0  0  0  0  0  0
  186.0870  177.6010  137.3470 C   0  0  0  0  0  2  0  0  0  0  0  0
  187.3260  176.7110  137.3700 C   0  0  2  0  0  3  0  0  0  0  0  0
  186.7410  175.3730  135.3440 C   0  0  0  0  0  1  0  0  0  0  0  0
  187.0580  175.3080  136.8260 C   0  0  0  0  0  2  0  0  0  0  0  0
  188.0050  176.7200  138.6160 O   0  0  0  0  0  0  0  0  0  0  0  0
  189.2260  177.4310  138.5280 C   0  0  2  0  0  0  0  0  0  0  0  0
  191.3490  177.1630  139.7460 C   0  0  0  0  0  2  0  0  0  0  0  0
  190.3020  176.9350  137.5720 C   0  0  0  0  0  2  0  0  0  0  0  0
  189.8910  177.5420  139.8890 C   0  0  1  0  0  0  0  0  0  0  0  0
  189.3550  178.7890  139.2220 C   0  0  0  0  0  2  0  0  0  0  0  0
  191.4550  176.4370  138.4230 C   0  0  0  0  0  2  0  0  0  0  0  0
  189.1270  176.9930  140.9580 O   0  0  0  0  0  0  0  0  0  0  0  0
  189.5570  177.0190  142.2870 C   0  0  0  0  0  0  0  0  0  0  0  0
  191.3410  176.1150  143.8030 C   0  0  0  0  0  2  0  0  0  0  0  0
  189.9290  178.1860  144.4030 C   0  0  0  0  0  2  0  0  0  0  0  0
  191.2700  177.4600  144.5560 C   0  0  0  0  0  2  0  0  0  0  0  0
  189.4880  178.1590  142.9710 C   0  0  0  0  0  3  0  0  0  0  0  0
  190.0920  175.7880  142.9710 C   0  0  0  0  0  2  0  0  0  0  0  0
  1  6  1  0  0  0  0
  2 11  1  0  0  0  0
  2 12  1  0  0  0  0
  3 10  1  0  0  0  0
  4  8  2  0  0  0  0
  5  1  2  0  0  0  0
  7  9  1  0  0  0  0
  7  4  1  0  0  0  0
  8  1  1  0  0  0  0
  9  5  1  0  0  0  0
 10 11  1  0  0  0  0
 11  7  2  0  0  0  0
 12 15  2  0  0  0  0
 13  2  2  0  0  0  0
 14  3  2  0  0  0  0
 14 13  1  0  0  0  0
 15  4  1  0  0  0  0
 16 13  1  0  0  0  0
 17 16  1  0  0  0  0
 18 19  1  0  0  0  0
 18 21  1  0  0  0  0
 19 24  1  6  0  0  0
 19 22  1  0  0  0  0
 21 17  1  6  0  0  0
 21 20  1  0  0  0  0
 22 20  1  0  0  0  0
 24 23  1  0  0  0  0
 25  3  1  0  0  0  0
 26 27  1  0  0  0  0
 26 25  1  0  0  0  0
 27 29  1  1  0  0  0
 27 30  1  0  0  0  0
 28 29  1  0  0  0  0
 31 30  1  6  0  0  0
 31 35  1  0  0  0  0
 31 34  1  0  0  0  0
 32 34  1  0  0  0  0
 33 36  1  0  0  0  0
 33 31  1  0  0  0  0
 34 37  1  1  0  0  0
 35 34  1  0  0  0  0
 36 32  1  0  0  0  0
 37 38  1  0  0  0  0
 38 42  2  0  0  0  0
 38 43  1  0  0  0  0
 39 41  1  0  0  0  0
 40 41  1  0  0  0  0
 42 40  1  0  0  0  0
 43 39  1  0  0  0  0
M  END
>  <MODEL>
7

>  <REMARK>
 VINA RESULT:      -8.3      1.761      2.584
  Name = 
  12 active torsions:
  status: ('A' for Active; 'I' for Inactive)
    1  A    between atoms: C_1  and  C_34
    2  A    between atoms: C_1  and  C_35
    3  A    between atoms: C_2  and  O_6
    4  A    between atoms: C_2  and  C_12
    5  A    between atoms: O_3  and  C_4
    6  A    between atoms: O_3  and  C_12
    7  A    between atoms: O_6  and  C_13
    8  A    between atoms: C_11  and  O_14
    9  A    between atoms: C_12  and  C_17
   10  A    between atoms: O_14  and  C_22
   11  A    between atoms: C_19  and  O_37
   12  A    between atoms: C_32  and  C_35
                            x       y       z     vdW  Elec       q    Type
                         _______ _______ _______ _____ _____    ______ ____

>  <TORSDO>
F 12

$$$$
=
 OpenBabel10272414223D

 43 49  0  0  1  0  0  0  0  0999 V2000
  190.9780  176.5860  137.1200 C   0  0  0  0  0  0  0  0  0  0  0  0
  188.5670  177.6450  141.4770 C   0  0  0  0  0  0  0  0  0  0  0  0
  186.0980  178.8060  140.7420 C   0  0  0  0  0  0  0  0  0  0  0  0
  190.3770  176.8290  139.4820 C   0  0  0  0  0  0  0  0  0  0  0  0
  189.8290  177.1170  136.7010 C   0  0  0  0  0  3  0  0  0  0  0  0
  191.9220  176.1680  136.1920 O   0  0  0  0  0  1  0  0  0  0  0  0
  189.1390  177.4040  139.1130 C   0  0  0  0  0  0  0  0  0  0  0  0
  191.2550  176.4370  138.5570 C   0  0  0  0  0  3  0  0  0  0  0  0
  188.7670  177.5890  137.6580 C   0  0  0  0  0  2  0  0  0  0  0  0
  187.0110  178.3880  139.7620 O   0  0  0  0  0  0  0  0  0  0  0  0
  188.2410  177.8110  140.1120 C   0  0  0  0  0  0  0  0  0  0  0  0
  189.7980  177.0680  141.8220 C   0  0  0  0  0  3  0  0  0  0  0  0
  187.6890  178.0470  142.4230 C   0  0  0  0  0  0  0  0  0  0  0  0
  186.4000  178.6540  142.0310 C   0  0  0  0  0  3  0  0  0  0  0  0
  190.6940  176.6640  140.8310 C   0  0  0  0  0  3  0  0  0  0  0  0
  187.9650  177.8780  143.8880 C   0  0  0  0  0  2  0  0  0  0  0  0
  186.6690  177.7700  144.6830 C   0  0  0  0  0  2  0  0  0  0  0  0
  188.3940  176.9760  146.2850 C   0  0  0  0  0  2  0  0  0  0  0  0
  188.6770  177.2520  147.7440 C   0  0  2  0  0  3  0  0  0  0  0  0
  186.6290  178.4090  147.1030 C   0  0  0  0  0  2  0  0  0  0  0  0
  186.9310  177.3040  146.1060 C   0  0  1  0  0  3  0  0  0  0  0  0
  187.7300  178.3660  148.1490 C   0  0  0  0  0  2  0  0  0  0  0  0
  190.7580  176.7010  147.2380 C   0  0  0  0  0  1  0  0  0  0  0  0
  190.0000  177.6650  147.9040 O   0  0  0  0  0  0  0  0  0  0  0  0
  184.8800  179.3760  140.3830 O   0  0  0  0  0  0  0  0  0  0  0  0
  183.6510  178.8520  140.8600 C   0  0  0  0  0  2  0  0  0  0  0  0
  182.8970  178.1670  139.7240 C   0  0  2  0  0  3  0  0  0  0  0  0
  181.2770  176.2820  139.9670 C   0  0  0  0  0  1  0  0  0  0  0  0
  181.4700  177.7800  140.1090 C   0  0  0  0  0  2  0  0  0  0  0  0
  183.6290  177.1150  139.1160 O   0  0  0  0  0  0  0  0  0  0  0  0
  183.7680  177.3270  137.7220 C   0  0  2  0  0  0  0  0  0  0  0  0
  183.0940  175.9490  135.7970 C   0  0  0  0  0  2  0  0  0  0  0  0
  182.6450  178.0240  136.9660 C   0  0  0  0  0  2  0  0  0  0  0  0
  184.0180  176.0190  136.9930 C   0  0  1  0  0  0  0  0  0  0  0  0
  185.1170  177.0560  137.0530 C   0  0  0  0  0  2  0  0  0  0  0  0
  182.0260  176.9920  136.0440 C   0  0  0  0  0  2  0  0  0  0  0  0
  184.1390  174.8880  137.8500 O   0  0  0  0  0  0  0  0  0  0  0  0
  184.8410  173.7360  137.4880 C   0  0  0  0  0  0  0  0  0  0  0  0
  184.6870  171.7130  136.0100 C   0  0  0  0  0  2  0  0  0  0  0  0
  186.9220  172.5580  136.9770 C   0  0  0  0  0  2  0  0  0  0  0  0
  186.2150  171.8280  135.8290 C   0  0  0  0  0  2  0  0  0  0  0  0
  186.1630  173.7970  137.3460 C   0  0  0  0  0  3  0  0  0  0  0  0
  184.1420  172.4210  137.2590 C   0  0  0  0  0  2  0  0  0  0  0  0
  1  8  1  0  0  0  0
  2 12  1  0  0  0  0
  2 13  2  0  0  0  0
  3 14  2  0  0  0  0
  4 15  1  0  0  0  0
  5  1  2  0  0  0  0
  5  9  1  0  0  0  0
  6  1  1  0  0  0  0
  7  4  1  0  0  0  0
  7 11  2  0  0  0  0
  8  4  2  0  0  0  0
  9  7  1  0  0  0  0
 10 11  1  0  0  0  0
 10  3  1  0  0  0  0
 11  2  1  0  0  0  0
 13 16  1  0  0  0  0
 14 13  1  0  0  0  0
 15 12  2  0  0  0  0
 16 17  1  0  0  0  0
 18 19  1  0  0  0  0
 19 24  1  6  0  0  0
 19 22  1  0  0  0  0
 20 22  1  0  0  0  0
 21 17  1  6  0  0  0
 21 18  1  0  0  0  0
 21 20  1  0  0  0  0
 23 24  1  0  0  0  0
 25  3  1  0  0  0  0
 25 26  1  0  0  0  0
 27 29  1  1  0  0  0
 27 26  1  0  0  0  0
 28 29  1  0  0  0  0
 30 27  1  0  0  0  0
 31 30  1  1  0  0  0
 32 36  1  0  0  0  0
 32 34  1  0  0  0  0
 33 31  1  0  0  0  0
 34 35  1  0  0  0  0
 34 31  1  0  0  0  0
 34 37  1  1  0  0  0
 35 31  1  0  0  0  0
 36 33  1  0  0  0  0
 38 37  1  0  0  0  0
 39 43  1  0  0  0  0
 40 42  1  0  0  0  0
 41 39  1  0  0  0  0
 41 40  1  0  0  0  0
 42 38  2  0  0  0  0
 43 38  1  0  0  0  0
M  END
>  <MODEL>
8

>  <REMARK>
 VINA RESULT:      -8.1      2.180      8.238
  Name = 
  12 active torsions:
  status: ('A' for Active; 'I' for Inactive)
    1  A    between atoms: C_1  and  C_34
    2  A    between atoms: C_1  and  C_35
    3  A    between atoms: C_2  and  O_6
    4  A    between atoms: C_2  and  C_12
    5  A    between atoms: O_3  and  C_4
    6  A    between atoms: O_3  and  C_12
    7  A    between atoms: O_6  and  C_13
    8  A    between atoms: C_11  and  O_14
    9  A    between atoms: C_12  and  C_17
   10  A    between atoms: O_14  and  C_22
   11  A    between atoms: C_19  and  O_37
   12  A    between atoms: C_32  and  C_35
                            x       y       z     vdW  Elec       q    Type
                         _______ _______ _______ _____ _____    ______ ____

>  <TORSDO>
F 12

$$$$
=
 OpenBabel10272414223D

 43 49  0  0  1  0  0  0  0  0999 V2000
  190.7610  176.9160  146.6260 C   0  0  0  0  0  0  0  0  0  0  0  0
  189.9880  177.5660  141.6350 C   0  0  0  0  0  0  0  0  0  0  0  0
  187.3020  178.3960  141.3630 C   0  0  0  0  0  0  0  0  0  0  0  0
  191.0350  177.0390  144.1950 C   0  0  0  0  0  0  0  0  0  0  0  0
  189.4890  177.3120  146.5720 C   0  0  0  0  0  3  0  0  0  0  0  0
  191.3420  176.6300  147.8530 O   0  0  0  0  0  1  0  0  0  0  0  0
  189.6920  177.4600  144.0600 C   0  0  0  0  0  0  0  0  0  0  0  0
  191.5560  176.7780  145.3950 C   0  0  0  0  0  3  0  0  0  0  0  0
  188.8040  177.6360  145.2710 C   0  0  0  0  0  3  0  0  0  0  0  0
  187.8420  178.1350  142.6300 O   0  0  0  0  0  0  0  0  0  0  0  0
  189.1740  177.7200  142.7800 C   0  0  0  0  0  0  0  0  0  0  0  0
  191.3190  177.1510  141.7920 C   0  0  0  0  0  2  0  0  0  0  0  0
  189.4680  177.8180  140.4130 C   0  0  0  0  0  0  0  0  0  0  0  0
  188.0620  178.2510  140.2780 C   0  0  0  0  0  3  0  0  0  0  0  0
  191.8360  176.8900  143.0610 C   0  0  0  0  0  3  0  0  0  0  0  0
  190.2860  177.6950  139.1610 C   0  0  0  0  0  2  0  0  0  0  0  0
  190.2710  176.2650  138.6340 C   0  0  0  0  0  2  0  0  0  0  0  0
  192.7130  176.4810  138.2350 C   0  0  0  0  0  2  0  0  0  0  0  0
  193.7540  175.5940  137.5920 C   0  0  2  0  0  3  0  0  0  0  0  0
  191.5650  174.5480  137.3520 C   0  0  0  0  0  2  0  0  0  0  0  0
  191.4000  176.0290  137.6430 C   0  0  1  0  0  3  0  0  0  0  0  0
  193.0590  174.2760  137.3050 C   0  0  0  0  0  2  0  0  0  0  0  0
  195.0240  174.0110  138.4720 C   0  0  0  0  0  1  0  0  0  0  0  0
  194.8200  175.3930  138.4690 O   0  0  0  0  0  0  0  0  0  0  0  0
  185.9790  178.8080  141.2250 O   0  0  0  0  0  0  0  0  0  0  0  0
  185.1950  179.1600  142.3540 C   0  0  0  0  0  2  0  0  0  0  0  0
  183.7130  178.9620  142.0460 C   0  0  2  0  0  3  0  0  0  0  0  0
  183.2290  179.2470  144.4790 C   0  0  0  0  0  1  0  0  0  0  0  0
  182.9270  178.4250  143.2410 C   0  0  0  0  0  2  0  0  0  0  0  0
  183.4780  178.2500  140.8410 O   0  0  0  0  0  0  0  0  0  0  0  0
  182.7630  179.0420  139.9100 C   0  0  2  0  0  0  0  0  0  0  0  0
  181.6420  178.4480  137.8000 C   0  0  0  0  0  2  0  0  0  0  0  0
  181.2580  179.1950  140.0730 C   0  0  0  0  0  2  0  0  0  0  0  0
  182.9850  178.5480  138.4910 C   0  0  1  0  0  0  0  0  0  0  0  0
  183.5360  179.8940  138.9010 C   0  0  0  0  0  2  0  0  0  0  0  0
  180.6100  178.4750  138.9070 C   0  0  0  0  0  2  0  0  0  0  0  0
  183.9070  177.4680  138.3870 O   0  0  0  0  0  0  0  0  0  0  0  0
  184.8030  177.3370  137.3230 C   0  0  0  0  0  0  0  0  0  0  0  0
  187.2500  177.0970  136.8210 C   0  0  0  0  0  2  0  0  0  0  0  0
  185.4170  176.4580  135.1260 C   0  0  0  0  0  2  0  0  0  0  0  0
  186.8370  176.1950  135.6390 C   0  0  0  0  0  2  0  0  0  0  0  0
  184.4670  176.5840  136.2780 C   0  0  0  0  0  3  0  0  0  0  0  0
  186.1400  178.0320  137.3230 C   0  0  0  0  0  2  0  0  0  0  0  0
  1  6  1  0  0  0  0
  2 12  1  0  0  0  0
  2 11  1  0  0  0  0
  3 10  1  0  0  0  0
  4  8  1  0  0  0  0
  5  1  1  0  0  0  0
  7  4  1  0  0  0  0
  7  9  1  0  0  0  0
  8  1  2  0  0  0  0
  9  5  2  0  0  0  0
 10 11  1  0  0  0  0
 11  7  2  0  0  0  0
 12 15  1  0  0  0  0
 13  2  2  0  0  0  0
 14 13  1  0  0  0  0
 14  3  2  0  0  0  0
 15  4  2  0  0  0  0
 16 13  1  0  0  0  0
 17 16  1  0  0  0  0
 19 18  1  0  0  0  0
 19 24  1  1  0  0  0
 20 21  1  0  0  0  0
 21 18  1  0  0  0  0
 21 17  1  1  0  0  0
 22 20  1  0  0  0  0
 22 19  1  0  0  0  0
 24 23  1  0  0  0  0
 25  3  1  0  0  0  0
 25 26  1  0  0  0  0
 27 26  1  1  0  0  0
 27 29  1  0  0  0  0
 29 28  1  0  0  0  0
 30 27  1  0  0  0  0
 31 33  1  0  0  0  0
 31 30  1  1  0  0  0
 32 34  1  0  0  0  0
 32 36  1  0  0  0  0
 34 37  1  6  0  0  0
 34 35  1  0  0  0  0
 34 31  1  0  0  0  0
 35 31  1  0  0  0  0
 36 33  1  0  0  0  0
 38 37  1  0  0  0  0
 39 43  1  0  0  0  0
 40 41  1  0  0  0  0
 40 42  1  0  0  0  0
 41 39  1  0  0  0  0
 42 38  2  0  0  0  0
 43 38  1  0  0  0  0
M  END
>  <MODEL>
9

>  <REMARK>
 VINA RESULT:      -8.1      2.026      8.190
  Name = 
  12 active torsions:
  status: ('A' for Active; 'I' for Inactive)
    1  A    between atoms: C_1  and  C_34
    2  A    between atoms: C_1  and  C_35
    3  A    between atoms: C_2  and  O_6
    4  A    between atoms: C_2  and  C_12
    5  A    between atoms: O_3  and  C_4
    6  A    between atoms: O_3  and  C_12
    7  A    between atoms: O_6  and  C_13
    8  A    between atoms: C_11  and  O_14
    9  A    between atoms: C_12  and  C_17
   10  A    between atoms: O_14  and  C_22
   11  A    between atoms: C_19  and  O_37
   12  A    between atoms: C_32  and  C_35
                            x       y       z     vdW  Elec       q    Type
                         _______ _______ _______ _____ _____    ______ ____

>  <TORSDO>
F 12

$$$$
