=
 OpenBabel10272401563D

 28 31  0  0  1  0  0  0  0  0999 V2000
  190.2850  177.2640  142.3660 N   0  0  0  0  0  0  0  0  0  0  0  0
  189.9630  176.8530  141.0210 C   0  0  0  0  0  0  0  0  0  0  0  0
  188.7710  176.5870  140.7120 O   0  0  0  0  0  0  0  0  0  0  0  0
  189.6580  177.5350  144.7630 N   0  0  0  0  0  0  0  0  0  0  0  0
  188.5450  176.0330  143.3500 O   0  0  0  0  0  0  0  0  0  0  0  0
  191.3310  179.0140  143.7450 C   0  0  0  0  0  2  0  0  0  0  0  0
  190.9000  178.2710  145.0010 C   0  0  0  0  0  2  0  0  0  0  0  0
  191.5190  178.0120  142.6140 C   0  0  0  0  0  2  0  0  0  0  0  0
  189.4480  176.9040  143.4840 C   0  0  0  0  0  0  0  0  0  0  0  0
  191.0140  176.8230  139.9400 C   0  0  1  0  0  3  0  0  0  0  0  0
  190.4670  176.2110  138.6620 C   0  0  0  0  0  2  0  0  0  0  0  0
  190.7150  177.7020  138.7130 C   0  0  1  0  0  3  0  0  0  0  0  0
  189.4340  178.3930  138.7940 N   0  0  0  0  0  2  0  0  0  0  0  0
  187.6920  178.4470  137.1020 C   0  0  0  0  0  1  0  0  0  0  0  0
  189.1100  178.8530  137.4550 C   0  0  0  0  0  2  0  0  0  0  0  0
  189.1700  176.6980  146.9530 C   0  0  0  0  0  2  0  0  0  0  0  0
  188.7440  177.3270  145.8580 C   0  0  0  0  0  0  0  0  0  0  0  0
  184.6420  178.1850  142.1980 N   0  0  0  0  0  1  0  0  0  0  0  0
  184.6300  178.6850  145.7230 C   0  0  0  0  0  0  0  0  0  0  0  0
  186.6900  177.8290  144.6330 C   0  0  0  0  0  3  0  0  0  0  0  0
  183.2460  178.8920  144.0960 N   0  0  0  0  0  0  0  0  0  0  0  0
  185.3210  178.3370  144.5960 C   0  0  0  0  0  0  0  0  0  0  0  0
  186.7470  178.5340  147.0260 C   0  0  0  0  0  2  0  0  0  0  0  0
  183.3560  179.0020  145.4150 N   0  0  0  0  0  0  0  0  0  0  0  0
  185.2030  178.4930  147.0890 C   0  0  0  0  0  2  0  0  0  0  0  0
  182.0140  179.1320  143.3640 C   0  0  0  0  0  1  0  0  0  0  0  0
  184.4190  178.4840  143.5740 C   0  0  0  0  0  0  0  0  0  0  0  0
  187.3550  177.8440  145.8030 C   0  0  0  0  0  0  0  0  0  0  0  0
  1  8  1  0  0  0  0
  1  9  1  0  0  0  0
  2  1  1  0  0  0  0
  3  2  2  0  0  0  0
  4  7  1  0  0  0  0
  4 17  1  0  0  0  0
  5  9  2  0  0  0  0
  6  7  1  0  0  0  0
  8  6  1  0  0  0  0
  9  4  1  0  0  0  0
 10  2  1  1  0  0  0
 11 12  1  0  0  0  0
 11 10  1  0  0  0  0
 12 13  1  1  0  0  0
 12 10  1  0  0  0  0
 14 15  1  0  0  0  0
 15 13  1  0  0  0  0
 17 16  2  0  0  0  0
 18 27  1  0  0  0  0
 19 25  1  0  0  0  0
 20 28  2  0  0  0  0
 21 24  1  0  0  0  0
 22 20  1  0  0  0  0
 22 19  1  0  0  0  0
 23 25  1  0  0  0  0
 24 19  2  0  0  0  0
 26 21  1  0  0  0  0
 27 21  1  0  0  0  0
 27 22  2  0  0  0  0
 28 17  1  0  0  0  0
 28 23  1  0  0  0  0
M  END
>  <MODEL>
1

>  <REMARK>
 VINA RESULT:      -9.0      0.000      0.000
  Name = 
  5 active torsions:
  status: ('A' for Active; 'I' for Inactive)
    1  A    between atoms: C_2  and  C_3
    2  A    between atoms: N_6  and  C_11
    3  A    between atoms: N_6  and  C_28
    4  A    between atoms: N_16  and  C_20
    5  A    between atoms: C_20  and  C_25
                            x       y       z     vdW  Elec       q    Type
                         _______ _______ _______ _____ _____    ______ ____

>  <TORSDO>
F 5

$$$$
=
 OpenBabel10272401563D

 28 31  0  0  1  0  0  0  0  0999 V2000
  184.7780  177.7550  138.1740 N   0  0  0  0  0  0  0  0  0  0  0  0
  186.0040  178.1300  137.5130 C   0  0  0  0  0  0  0  0  0  0  0  0
  186.8730  178.8000  138.1330 O   0  0  0  0  0  0  0  0  0  0  0  0
  183.1830  177.9670  140.0780 N   0  0  0  0  0  0  0  0  0  0  0  0
  184.7430  179.6410  139.5700 O   0  0  0  0  0  0  0  0  0  0  0  0
  183.3190  175.8750  138.8010 C   0  0  0  0  0  2  0  0  0  0  0  0
  182.4120  176.8390  139.5520 C   0  0  0  0  0  2  0  0  0  0  0  0
  184.0040  176.6200  137.6640 C   0  0  0  0  0  2  0  0  0  0  0  0
  184.2620  178.5080  139.2900 C   0  0  0  0  0  0  0  0  0  0  0  0
  186.3170  177.6570  136.1150 C   0  0  1  0  0  3  0  0  0  0  0  0
  187.7860  177.8560  135.7870 C   0  0  0  0  0  2  0  0  0  0  0  0
  187.2720  176.4550  136.0310 C   0  0  1  0  0  3  0  0  0  0  0  0
  187.7440  175.9970  137.3320 N   0  0  0  0  0  2  0  0  0  0  0  0
  189.7580  176.5340  138.5800 C   0  0  0  0  0  1  0  0  0  0  0  0
  189.1960  175.9870  137.2820 C   0  0  0  0  0  2  0  0  0  0  0  0
  181.5770  179.2390  141.3160 C   0  0  0  0  0  2  0  0  0  0  0  0
  182.7500  178.6080  141.2940 C   0  0  0  0  0  0  0  0  0  0  0  0
  187.7770  176.9460  143.0020 N   0  0  0  0  0  1  0  0  0  0  0  0
  185.2000  178.5410  144.8690 C   0  0  0  0  0  0  0  0  0  0  0  0
  184.8260  178.0610  142.4610 C   0  0  0  0  0  3  0  0  0  0  0  0
  187.1910  177.8240  145.2240 N   0  0  0  0  0  0  0  0  0  0  0  0
  185.6200  177.9990  143.6860 C   0  0  0  0  0  0  0  0  0  0  0  0
  182.9310  178.8400  143.8860 C   0  0  0  0  0  2  0  0  0  0  0  0
  186.1710  178.4520  145.7990 N   0  0  0  0  0  0  0  0  0  0  0  0
  183.9240  179.3110  144.9740 C   0  0  0  0  0  2  0  0  0  0  0  0
  188.4510  177.5450  145.8910 C   0  0  0  0  0  1  0  0  0  0  0  0
  186.8870  177.5440  143.9410 C   0  0  0  0  0  0  0  0  0  0  0  0
  183.5680  178.5340  142.5290 C   0  0  0  0  0  0  0  0  0  0  0  0
  1  9  1  0  0  0  0
  2  3  2  0  0  0  0
  2  1  1  0  0  0  0
  4 17  1  0  0  0  0
  6  7  1  0  0  0  0
  7  4  1  0  0  0  0
  8  1  1  0  0  0  0
  8  6  1  0  0  0  0
  9  5  2  0  0  0  0
  9  4  1  0  0  0  0
 10  2  1  1  0  0  0
 11 12  1  0  0  0  0
 11 10  1  0  0  0  0
 12 10  1  0  0  0  0
 12 13  1  1  0  0  0
 15 13  1  0  0  0  0
 15 14  1  0  0  0  0
 17 16  2  0  0  0  0
 17 28  1  0  0  0  0
 18 27  1  0  0  0  0
 19 25  1  0  0  0  0
 19 24  2  0  0  0  0
 20 28  2  0  0  0  0
 20 22  1  0  0  0  0
 21 24  1  0  0  0  0
 21 26  1  0  0  0  0
 22 27  2  0  0  0  0
 22 19  1  0  0  0  0
 23 25  1  0  0  0  0
 27 21  1  0  0  0  0
 28 23  1  0  0  0  0
M  END
>  <MODEL>
2

>  <REMARK>
 VINA RESULT:      -8.5      2.773      5.836
  Name = 
  5 active torsions:
  status: ('A' for Active; 'I' for Inactive)
    1  A    between atoms: C_2  and  C_3
    2  A    between atoms: N_6  and  C_11
    3  A    between atoms: N_6  and  C_28
    4  A    between atoms: N_16  and  C_20
    5  A    between atoms: C_20  and  C_25
                            x       y       z     vdW  Elec       q    Type
                         _______ _______ _______ _____ _____    ______ ____

>  <TORSDO>
F 5

$$$$
=
 OpenBabel10272401563D

 28 31  0  0  1  0  0  0  0  0999 V2000
  189.2700  176.0140  137.3390 N   0  0  0  0  0  0  0  0  0  0  0  0
  189.1440  174.7670  136.6240 C   0  0  0  0  0  0  0  0  0  0  0  0
  189.3750  173.6780  137.2140 O   0  0  0  0  0  0  0  0  0  0  0  0
  190.0250  177.3110  139.3290 N   0  0  0  0  0  0  0  0  0  0  0  0
  190.9420  175.2240  138.7840 O   0  0  0  0  0  0  0  0  0  0  0  0
  188.1190  178.0880  137.9940 C   0  0  0  0  0  2  0  0  0  0  0  0
  189.3330  178.4940  138.8160 C   0  0  0  0  0  2  0  0  0  0  0  0
  188.5720  177.2020  136.8420 C   0  0  0  0  0  2  0  0  0  0  0  0
  190.1170  176.1350  138.5000 C   0  0  0  0  0  0  0  0  0  0  0  0
  188.6490  174.7280  135.2000 C   0  0  1  0  0  3  0  0  0  0  0  0
  188.0500  173.3730  134.8670 C   0  0  0  0  0  2  0  0  0  0  0  0
  187.1280  174.5590  135.0420 C   0  0  1  0  0  3  0  0  0  0  0  0
  186.4240  174.4280  136.3120 N   0  0  0  0  0  2  0  0  0  0  0  0
  185.1100  172.8830  137.6490 C   0  0  0  0  0  1  0  0  0  0  0  0
  185.7580  173.1370  136.3010 C   0  0  0  0  0  2  0  0  0  0  0  0
  192.0520  177.5730  140.5760 C   0  0  0  0  0  2  0  0  0  0  0  0
  190.7310  177.3980  140.5830 C   0  0  0  0  0  0  0  0  0  0  0  0
  191.7340  177.1300  146.0490 N   0  0  0  0  0  1  0  0  0  0  0  0
  188.6110  177.4090  144.3630 C   0  0  0  0  0  0  0  0  0  0  0  0
  190.7010  177.3240  143.0250 C   0  0  0  0  0  3  0  0  0  0  0  0
  189.3050  177.3130  146.3920 N   0  0  0  0  0  0  0  0  0  0  0  0
  189.9700  177.2770  144.2890 C   0  0  0  0  0  0  0  0  0  0  0  0
  188.4860  177.1550  141.8890 C   0  0  0  0  0  2  0  0  0  0  0  0
  188.2120  177.4520  145.6510 N   0  0  0  0  0  0  0  0  0  0  0  0
  187.7800  177.6920  143.1550 C   0  0  0  0  0  2  0  0  0  0  0  0
  189.3060  177.3250  147.8440 C   0  0  0  0  0  1  0  0  0  0  0  0
  190.3860  177.2110  145.5930 C   0  0  0  0  0  0  0  0  0  0  0  0
  190.0040  177.3450  141.8740 C   0  0  0  0  0  0  0  0  0  0  0  0
  1  9  1  0  0  0  0
  2  3  2  0  0  0  0
  2  1  1  0  0  0  0
  4 17  1  0  0  0  0
  6  7  1  0  0  0  0
  7  4  1  0  0  0  0
  8  1  1  0  0  0  0
  8  6  1  0  0  0  0
  9  5  2  0  0  0  0
  9  4  1  0  0  0  0
 10  2  1  1  0  0  0
 11 12  1  0  0  0  0
 11 10  1  0  0  0  0
 12 10  1  0  0  0  0
 12 13  1  1  0  0  0
 15 13  1  0  0  0  0
 15 14  1  0  0  0  0
 16 17  2  0  0  0  0
 17 28  1  0  0  0  0
 19 24  2  0  0  0  0
 20 22  1  0  0  0  0
 21 26  1  0  0  0  0
 22 19  1  0  0  0  0
 22 27  2  0  0  0  0
 23 25  1  0  0  0  0
 24 21  1  0  0  0  0
 25 19  1  0  0  0  0
 27 18  1  0  0  0  0
 27 21  1  0  0  0  0
 28 23  1  0  0  0  0
 28 20  2  0  0  0  0
M  END
>  <MODEL>
3

>  <REMARK>
 VINA RESULT:      -8.1      3.040      5.882
  Name = 
  5 active torsions:
  status: ('A' for Active; 'I' for Inactive)
    1  A    between atoms: C_2  and  C_3
    2  A    between atoms: N_6  and  C_11
    3  A    between atoms: N_6  and  C_28
    4  A    between atoms: N_16  and  C_20
    5  A    between atoms: C_20  and  C_25
                            x       y       z     vdW  Elec       q    Type
                         _______ _______ _______ _____ _____    ______ ____

>  <TORSDO>
F 5

$$$$
=
 OpenBabel10272401563D

 28 31  0  0  1  0  0  0  0  0999 V2000
  184.9880  178.0000  138.7370 N   0  0  0  0  0  0  0  0  0  0  0  0
  186.1150  178.2390  137.8690 C   0  0  0  0  0  0  0  0  0  0  0  0
  187.2340  178.5480  138.3600 O   0  0  0  0  0  0  0  0  0  0  0  0
  183.9120  178.1190  140.9820 N   0  0  0  0  0  0  0  0  0  0  0  0
  185.7240  179.4860  140.3980 O   0  0  0  0  0  0  0  0  0  0  0  0
  183.2410  176.3890  139.3770 C   0  0  0  0  0  2  0  0  0  0  0  0
  182.7850  177.3320  140.4800 C   0  0  0  0  0  2  0  0  0  0  0  0
  183.8600  177.2030  138.2490 C   0  0  0  0  0  2  0  0  0  0  0  0
  184.9180  178.5770  140.0570 C   0  0  0  0  0  0  0  0  0  0  0  0
  186.0110  178.0350  136.3780 C   0  0  1  0  0  3  0  0  0  0  0  0
  187.3820  177.8280  135.7580 C   0  0  0  0  0  2  0  0  0  0  0  0
  186.4440  176.6470  135.8760 C   0  0  1  0  0  3  0  0  0  0  0  0
  186.9200  175.7690  136.9380 N   0  0  0  0  0  2  0  0  0  0  0  0
  185.5410  173.8210  137.3890 C   0  0  0  0  0  1  0  0  0  0  0  0
  186.6410  174.4050  136.5230 C   0  0  0  0  0  2  0  0  0  0  0  0
  182.8400  179.1770  142.8440 C   0  0  0  0  0  2  0  0  0  0  0  0
  183.9110  178.5490  142.3580 C   0  0  0  0  0  0  0  0  0  0  0  0
  185.5870  179.4150  147.5920 N   0  0  0  0  0  1  0  0  0  0  0  0
  187.1940  177.5650  145.0100 C   0  0  0  0  0  0  0  0  0  0  0  0
  185.0150  178.6560  144.5350 C   0  0  0  0  0  3  0  0  0  0  0  0
  187.5620  178.0450  147.0700 N   0  0  0  0  0  0  0  0  0  0  0  0
  186.1540  178.3600  145.4020 C   0  0  0  0  0  0  0  0  0  0  0  0
  186.3440  177.6630  142.6720 C   0  0  0  0  0  2  0  0  0  0  0  0
  188.0420  177.3580  146.0390 N   0  0  0  0  0  0  0  0  0  0  0  0
  187.2040  176.8740  143.6860 C   0  0  0  0  0  2  0  0  0  0  0  0
  188.1800  178.0690  148.3840 C   0  0  0  0  0  1  0  0  0  0  0  0
  186.4150  178.6560  146.7140 C   0  0  0  0  0  0  0  0  0  0  0  0
  185.0600  178.2600  143.2500 C   0  0  0  0  0  0  0  0  0  0  0  0
  1  9  1  0  0  0  0
  2  3  2  0  0  0  0
  2  1  1  0  0  0  0
  4 17  1  0  0  0  0
  6  7  1  0  0  0  0
  7  4  1  0  0  0  0
  8  1  1  0  0  0  0
  8  6  1  0  0  0  0
  9  5  2  0  0  0  0
  9  4  1  0  0  0  0
 10  2  1  1  0  0  0
 11 12  1  0  0  0  0
 11 10  1  0  0  0  0
 12 10  1  0  0  0  0
 12 13  1  1  0  0  0
 15 13  1  0  0  0  0
 15 14  1  0  0  0  0
 17 16  2  0  0  0  0
 17 28  1  0  0  0  0
 19 22  1  0  0  0  0
 19 24  2  0  0  0  0
 20 22  1  0  0  0  0
 21 26  1  0  0  0  0
 22 27  2  0  0  0  0
 23 28  1  0  0  0  0
 23 25  1  0  0  0  0
 24 21  1  0  0  0  0
 25 19  1  0  0  0  0
 27 21  1  0  0  0  0
 27 18  1  0  0  0  0
 28 20  2  0  0  0  0
M  END
>  <MODEL>
4

>  <REMARK>
 VINA RESULT:      -7.9      3.111      5.768
  Name = 
  5 active torsions:
  status: ('A' for Active; 'I' for Inactive)
    1  A    between atoms: C_2  and  C_3
    2  A    between atoms: N_6  and  C_11
    3  A    between atoms: N_6  and  C_28
    4  A    between atoms: N_16  and  C_20
    5  A    between atoms: C_20  and  C_25
                            x       y       z     vdW  Elec       q    Type
                         _______ _______ _______ _____ _____    ______ ____

>  <TORSDO>
F 5

$$$$
=
 OpenBabel10272401563D

 28 31  0  0  1  0  0  0  0  0999 V2000
  182.5020  178.5090  141.8450 N   0  0  0  0  0  0  0  0  0  0  0  0
  181.6220  178.0470  140.7990 C   0  0  0  0  0  0  0  0  0  0  0  0
  182.0090  177.1500  140.0020 O   0  0  0  0  0  0  0  0  0  0  0  0
  184.7630  178.6320  142.8850 N   0  0  0  0  0  0  0  0  0  0  0  0
  184.4630  178.1000  140.6230 O   0  0  0  0  0  0  0  0  0  0  0  0
  182.7490  178.8470  144.2700 C   0  0  0  0  0  2  0  0  0  0  0  0
  184.1860  179.2970  144.0540 C   0  0  0  0  0  2  0  0  0  0  0  0
  181.9340  179.1660  143.0240 C   0  0  0  0  0  2  0  0  0  0  0  0
  183.9340  178.3950  141.7300 C   0  0  0  0  0  0  0  0  0  0  0  0
  180.2030  178.5480  140.6910 C   0  0  1  0  0  3  0  0  0  0  0  0
  180.1020  180.0000  141.1240 C   0  0  0  0  0  2  0  0  0  0  0  0
  179.9820  179.6620  139.6540 C   0  0  1  0  0  3  0  0  0  0  0  0
  181.2040  180.0720  138.9730 N   0  0  0  0  0  2  0  0  0  0  0  0
  180.8400  182.2430  137.9470 C   0  0  0  0  0  1  0  0  0  0  0  0
  180.8070  180.7400  137.7460 C   0  0  0  0  0  2  0  0  0  0  0  0
  186.8530  178.5480  141.7190 C   0  0  0  0  0  2  0  0  0  0  0  0
  186.1800  178.3690  142.8560 C   0  0  0  0  0  0  0  0  0  0  0  0
  191.2660  176.8180  144.4970 N   0  0  0  0  0  1  0  0  0  0  0  0
  188.3370  177.3030  146.4610 C   0  0  0  0  0  0  0  0  0  0  0  0
  188.2240  177.6890  144.0110 C   0  0  0  0  0  3  0  0  0  0  0  0
  190.3850  176.7520  146.7920 N   0  0  0  0  0  0  0  0  0  0  0  0
  188.9240  177.2820  145.2270 C   0  0  0  0  0  0  0  0  0  0  0  0
  186.1290  177.6630  145.3670 C   0  0  0  0  0  2  0  0  0  0  0  0
  189.2390  176.9990  147.4170 N   0  0  0  0  0  0  0  0  0  0  0  0
  186.9510  177.8220  146.6660 C   0  0  0  0  0  2  0  0  0  0  0  0
  191.6190  176.4030  147.4730 C   0  0  0  0  0  1  0  0  0  0  0  0
  190.2250  176.9230  145.4650 C   0  0  0  0  0  0  0  0  0  0  0  0
  186.9050  177.9500  144.0800 C   0  0  0  0  0  0  0  0  0  0  0  0
  1  8  1  0  0  0  0
  2  1  1  0  0  0  0
  3  2  2  0  0  0  0
  4  7  1  0  0  0  0
  5  9  2  0  0  0  0
  7  6  1  0  0  0  0
  8  6  1  0  0  0  0
  9  1  1  0  0  0  0
  9  4  1  0  0  0  0
 10  2  1  6  0  0  0
 10 11  1  0  0  0  0
 12 13  1  6  0  0  0
 12 10  1  0  0  0  0
 12 11  1  0  0  0  0
 15 14  1  0  0  0  0
 15 13  1  0  0  0  0
 16 17  2  0  0  0  0
 17  4  1  0  0  0  0
 17 28  1  0  0  0  0
 18 27  1  0  0  0  0
 19 25  1  0  0  0  0
 19 24  2  0  0  0  0
 20 28  2  0  0  0  0
 20 22  1  0  0  0  0
 21 24  1  0  0  0  0
 21 26  1  0  0  0  0
 22 27  2  0  0  0  0
 22 19  1  0  0  0  0
 23 25  1  0  0  0  0
 27 21  1  0  0  0  0
 28 23  1  0  0  0  0
M  END
>  <MODEL>
5

>  <REMARK>
 VINA RESULT:      -7.5      3.171      7.247
  Name = 
  5 active torsions:
  status: ('A' for Active; 'I' for Inactive)
    1  A    between atoms: C_2  and  C_3
    2  A    between atoms: N_6  and  C_11
    3  A    between atoms: N_6  and  C_28
    4  A    between atoms: N_16  and  C_20
    5  A    between atoms: C_20  and  C_25
                            x       y       z     vdW  Elec       q    Type
                         _______ _______ _______ _____ _____    ______ ____

>  <TORSDO>
F 5

$$$$
=
 OpenBabel10272401563D

 28 31  0  0  1  0  0  0  0  0999 V2000
  189.2500  176.4430  138.2370 N   0  0  0  0  0  0  0  0  0  0  0  0
  189.3690  175.3620  137.2910 C   0  0  0  0  0  0  0  0  0  0  0  0
  189.8630  174.2600  137.6520 O   0  0  0  0  0  0  0  0  0  0  0  0
  189.7920  177.4690  140.4430 N   0  0  0  0  0  0  0  0  0  0  0  0
  191.1210  175.7890  139.4930 O   0  0  0  0  0  0  0  0  0  0  0  0
  187.7000  178.0370  139.2930 C   0  0  0  0  0  2  0  0  0  0  0  0
  188.8310  178.5410  140.1770 C   0  0  0  0  0  2  0  0  0  0  0  0
  188.2830  177.5150  137.9870 C   0  0  0  0  0  2  0  0  0  0  0  0
  190.1020  176.5270  139.3970 C   0  0  0  0  0  0  0  0  0  0  0  0
  188.8280  175.4860  135.8880 C   0  0  1  0  0  3  0  0  0  0  0  0
  188.6250  174.1190  135.2570 C   0  0  0  0  0  2  0  0  0  0  0  0
  187.4130  174.9190  135.6800 C   0  0  1  0  0  3  0  0  0  0  0  0
  186.8470  174.3200  136.8830 N   0  0  0  0  0  2  0  0  0  0  0  0
  184.9350  173.0750  137.7160 C   0  0  0  0  0  1  0  0  0  0  0  0
  185.5460  173.7840  136.5230 C   0  0  0  0  0  2  0  0  0  0  0  0
  191.8500  177.4020  141.6650 C   0  0  0  0  0  2  0  0  0  0  0  0
  190.5190  177.4710  141.6880 C   0  0  0  0  0  0  0  0  0  0  0  0
  185.3840  178.1730  143.7110 N   0  0  0  0  0  1  0  0  0  0  0  0
  188.4320  177.6770  145.4810 C   0  0  0  0  0  0  0  0  0  0  0  0
  188.4730  177.7250  142.9990 C   0  0  0  0  0  3  0  0  0  0  0  0
  186.3570  177.9440  145.9580 N   0  0  0  0  0  0  0  0  0  0  0  0
  187.7910  177.8440  144.2850 C   0  0  0  0  0  0  0  0  0  0  0  0
  190.6130  177.7440  144.2810 C   0  0  0  0  0  2  0  0  0  0  0  0
  187.5490  177.7180  146.4990 N   0  0  0  0  0  0  0  0  0  0  0  0
  189.8710  177.2810  145.5550 C   0  0  0  0  0  2  0  0  0  0  0  0
  185.1260  178.0390  146.7230 C   0  0  0  0  0  1  0  0  0  0  0  0
  186.4730  178.0180  144.6170 C   0  0  0  0  0  0  0  0  0  0  0  0
  189.8120  177.5980  142.9860 C   0  0  0  0  0  0  0  0  0  0  0  0
  1  9  1  0  0  0  0
  2  3  2  0  0  0  0
  2  1  1  0  0  0  0
  4 17  1  0  0  0  0
  6  7  1  0  0  0  0
  7  4  1  0  0  0  0
  8  1  1  0  0  0  0
  8  6  1  0  0  0  0
  9  5  2  0  0  0  0
  9  4  1  0  0  0  0
 10  2  1  1  0  0  0
 11 12  1  0  0  0  0
 11 10  1  0  0  0  0
 12 10  1  0  0  0  0
 12 13  1  1  0  0  0
 15 13  1  0  0  0  0
 15 14  1  0  0  0  0
 16 17  2  0  0  0  0
 17 28  1  0  0  0  0
 18 27  1  0  0  0  0
 19 25  1  0  0  0  0
 19 24  2  0  0  0  0
 20 22  1  0  0  0  0
 21 24  1  0  0  0  0
 21 26  1  0  0  0  0
 22 27  2  0  0  0  0
 22 19  1  0  0  0  0
 23 25  1  0  0  0  0
 27 21  1  0  0  0  0
 28 20  2  0  0  0  0
 28 23  1  0  0  0  0
M  END
>  <MODEL>
6

>  <REMARK>
 VINA RESULT:      -7.4      2.761      4.581
  Name = 
  5 active torsions:
  status: ('A' for Active; 'I' for Inactive)
    1  A    between atoms: C_2  and  C_3
    2  A    between atoms: N_6  and  C_11
    3  A    between atoms: N_6  and  C_28
    4  A    between atoms: N_16  and  C_20
    5  A    between atoms: C_20  and  C_25
                            x       y       z     vdW  Elec       q    Type
                         _______ _______ _______ _____ _____    ______ ____

>  <TORSDO>
F 5

$$$$
=
 OpenBabel10272401563D

 28 31  0  0  1  0  0  0  0  0999 V2000
  185.1240  178.3230  139.4210 N   0  0  0  0  0  0  0  0  0  0  0  0
  186.2100  178.4270  138.4770 C   0  0  0  0  0  0  0  0  0  0  0  0
  187.4020  178.4350  138.8870 O   0  0  0  0  0  0  0  0  0  0  0  0
  184.2650  178.3890  141.7600 N   0  0  0  0  0  0  0  0  0  0  0  0
  186.2840  179.4110  141.1470 O   0  0  0  0  0  0  0  0  0  0  0  0
  183.1200  177.0450  140.0560 C   0  0  0  0  0  2  0  0  0  0  0  0
  182.9610  177.9210  141.2900 C   0  0  0  0  0  2  0  0  0  0  0  0
  183.8170  177.8440  138.9650 C   0  0  0  0  0  2  0  0  0  0  0  0
  185.2770  178.7370  140.7930 C   0  0  0  0  0  0  0  0  0  0  0  0
  185.9560  178.4330  136.9900 C   0  0  1  0  0  3  0  0  0  0  0  0
  187.2210  178.0990  136.2180 C   0  0  0  0  0  2  0  0  0  0  0  0
  186.1150  177.0700  136.2940 C   0  0  1  0  0  3  0  0  0  0  0  0
  186.5240  176.0020  137.1990 N   0  0  0  0  0  2  0  0  0  0  0  0
  186.6390  173.5820  137.3820 C   0  0  0  0  0  1  0  0  0  0  0  0
  186.4930  174.7630  136.4410 C   0  0  0  0  0  2  0  0  0  0  0  0
  183.5110  179.2830  143.8490 C   0  0  0  0  0  2  0  0  0  0  0  0
  184.4570  178.6390  143.1660 C   0  0  0  0  0  0  0  0  0  0  0  0
  189.5090  176.5820  142.0680 N   0  0  0  0  0  1  0  0  0  0  0  0
  188.0530  177.3610  145.2220 C   0  0  0  0  0  0  0  0  0  0  0  0
  186.7360  177.7570  143.1540 C   0  0  0  0  0  3  0  0  0  0  0  0
  189.9240  176.6060  144.4920 N   0  0  0  0  0  0  0  0  0  0  0  0
  187.9210  177.2810  143.8640 C   0  0  0  0  0  0  0  0  0  0  0  0
  185.6370  177.9430  145.3870 C   0  0  0  0  0  2  0  0  0  0  0  0
  189.2860  176.9680  145.6000 N   0  0  0  0  0  0  0  0  0  0  0  0
  187.0190  178.0180  146.0760 C   0  0  0  0  0  2  0  0  0  0  0  0
  191.2980  176.1340  144.4680 C   0  0  0  0  0  1  0  0  0  0  0  0
  189.1240  176.7920  143.4240 C   0  0  0  0  0  0  0  0  0  0  0  0
  185.6670  178.1490  143.8710 C   0  0  0  0  0  0  0  0  0  0  0  0
  1  9  1  0  0  0  0
  2  3  2  0  0  0  0
  2  1  1  0  0  0  0
  4 17  1  0  0  0  0
  6  7  1  0  0  0  0
  7  4  1  0  0  0  0
  8  1  1  0  0  0  0
  8  6  1  0  0  0  0
  9  5  2  0  0  0  0
  9  4  1  0  0  0  0
 10  2  1  1  0  0  0
 11 12  1  0  0  0  0
 11 10  1  0  0  0  0
 12 10  1  0  0  0  0
 12 13  1  1  0  0  0
 15 13  1  0  0  0  0
 15 14  1  0  0  0  0
 17 16  2  0  0  0  0
 17 28  1  0  0  0  0
 18 27  1  0  0  0  0
 19 24  2  0  0  0  0
 19 25  1  0  0  0  0
 20 22  1  0  0  0  0
 20 28  2  0  0  0  0
 21 24  1  0  0  0  0
 22 19  1  0  0  0  0
 23 25  1  0  0  0  0
 26 21  1  0  0  0  0
 27 22  2  0  0  0  0
 27 21  1  0  0  0  0
 28 23  1  0  0  0  0
M  END
>  <MODEL>
7

>  <REMARK>
 VINA RESULT:      -7.4      2.490      5.650
  Name = 
  5 active torsions:
  status: ('A' for Active; 'I' for Inactive)
    1  A    between atoms: C_2  and  C_3
    2  A    between atoms: N_6  and  C_11
    3  A    between atoms: N_6  and  C_28
    4  A    between atoms: N_16  and  C_20
    5  A    between atoms: C_20  and  C_25
                            x       y       z     vdW  Elec       q    Type
                         _______ _______ _______ _____ _____    ______ ____

>  <TORSDO>
F 5

$$$$
=
 OpenBabel10272401563D

 28 31  0  0  1  0  0  0  0  0999 V2000
  192.5580  175.2200  137.5960 N   0  0  0  0  0  0  0  0  0  0  0  0
  193.9760  174.9860  137.7190 C   0  0  0  0  0  0  0  0  0  0  0  0
  194.6080  175.4550  138.7040 O   0  0  0  0  0  0  0  0  0  0  0  0
  190.4840  176.4150  138.2920 N   0  0  0  0  0  0  0  0  0  0  0  0
  192.6200  177.2880  138.7020 O   0  0  0  0  0  0  0  0  0  0  0  0
  190.3530  174.1550  137.3460 C   0  0  0  0  0  2  0  0  0  0  0  0
  189.6900  175.5200  137.4500 C   0  0  0  0  0  2  0  0  0  0  0  0
  191.7500  174.3230  136.7660 C   0  0  0  0  0  2  0  0  0  0  0  0
  191.9230  176.3520  138.2240 C   0  0  0  0  0  0  0  0  0  0  0  0
  194.7130  174.1080  136.7380 C   0  0  1  0  0  3  0  0  0  0  0  0
  194.2690  174.3890  135.3130 C   0  0  0  0  0  2  0  0  0  0  0  0
  195.6370  174.8540  135.7600 C   0  0  1  0  0  3  0  0  0  0  0  0
  195.6120  176.3020  135.9300 N   0  0  0  0  0  2  0  0  0  0  0  0
  196.1070  178.3390  134.7020 C   0  0  0  0  0  1  0  0  0  0  0  0
  195.6720  176.8890  134.6020 C   0  0  0  0  0  2  0  0  0  0  0  0
  189.3560  178.5230  138.4230 C   0  0  0  0  0  2  0  0  0  0  0  0
  189.8160  177.4420  139.0520 C   0  0  0  0  0  0  0  0  0  0  0  0
  185.9200  178.4080  142.9050 N   0  0  0  0  0  1  0  0  0  0  0  0
  189.0970  176.8460  143.2840 C   0  0  0  0  0  0  0  0  0  0  0  0
  188.4070  177.6470  141.0380 C   0  0  0  0  0  3  0  0  0  0  0  0
  187.4160  177.3250  144.5300 N   0  0  0  0  0  0  0  0  0  0  0  0
  188.2000  177.4860  142.4750 C   0  0  0  0  0  0  0  0  0  0  0  0
  190.7500  176.8810  141.4230 C   0  0  0  0  0  2  0  0  0  0  0  0
  188.6040  176.7310  144.5340 N   0  0  0  0  0  0  0  0  0  0  0  0
  190.3240  176.1920  142.7390 C   0  0  0  0  0  2  0  0  0  0  0  0
  186.5450  177.4030  145.6900 C   0  0  0  0  0  1  0  0  0  0  0  0
  187.1420  177.7860  143.2930 C   0  0  0  0  0  0  0  0  0  0  0  0
  189.5920  177.2890  140.5100 C   0  0  0  0  0  0  0  0  0  0  0  0
  1  2  1  0  0  0  0
  1  9  1  0  0  0  0
  2  3  2  0  0  0  0
  4 17  1  0  0  0  0
  6  7  1  0  0  0  0
  7  4  1  0  0  0  0
  8  6  1  0  0  0  0
  8  1  1  0  0  0  0
  9  4  1  0  0  0  0
  9  5  2  0  0  0  0
 10  2  1  1  0  0  0
 11 12  1  0  0  0  0
 11 10  1  0  0  0  0
 12 13  1  1  0  0  0
 12 10  1  0  0  0  0
 15 14  1  0  0  0  0
 15 13  1  0  0  0  0
 16 17  2  0  0  0  0
 17 28  1  0  0  0  0
 18 27  1  0  0  0  0
 19 24  2  0  0  0  0
 20 22  1  0  0  0  0
 21 24  1  0  0  0  0
 21 26  1  0  0  0  0
 22 19  1  0  0  0  0
 22 27  2  0  0  0  0
 23 25  1  0  0  0  0
 25 19  1  0  0  0  0
 27 21  1  0  0  0  0
 28 20  2  0  0  0  0
 28 23  1  0  0  0  0
M  END
>  <MODEL>
8

>  <REMARK>
 VINA RESULT:      -7.3      3.653      6.244
  Name = 
  5 active torsions:
  status: ('A' for Active; 'I' for Inactive)
    1  A    between atoms: C_2  and  C_3
    2  A    between atoms: N_6  and  C_11
    3  A    between atoms: N_6  and  C_28
    4  A    between atoms: N_16  and  C_20
    5  A    between atoms: C_20  and  C_25
                            x       y       z     vdW  Elec       q    Type
                         _______ _______ _______ _____ _____    ______ ____

>  <TORSDO>
F 5

$$$$
=
 OpenBabel10272401563D

 28 31  0  0  1  0  0  0  0  0999 V2000
  189.3750  177.2620  141.8110 N   0  0  0  0  0  0  0  0  0  0  0  0
  188.7130  176.9900  143.0640 C   0  0  0  0  0  0  0  0  0  0  0  0
  187.4770  176.7420  143.0830 O   0  0  0  0  0  0  0  0  0  0  0  0
  189.2850  177.7880  139.3770 N   0  0  0  0  0  0  0  0  0  0  0  0
  187.4730  178.2000  140.8050 O   0  0  0  0  0  0  0  0  0  0  0  0
  191.2150  176.6010  140.3180 C   0  0  0  0  0  2  0  0  0  0  0  0
  190.7350  177.6140  139.2890 C   0  0  0  0  0  2  0  0  0  0  0  0
  190.8240  177.0800  141.7090 C   0  0  0  0  0  2  0  0  0  0  0  0
  188.6510  177.7670  140.6710 C   0  0  0  0  0  0  0  0  0  0  0  0
  189.4880  176.9020  144.3560 C   0  0  1  0  0  3  0  0  0  0  0  0
  189.8550  178.2840  144.8680 C   0  0  0  0  0  2  0  0  0  0  0  0
  188.7800  177.4980  145.5840 C   0  0  1  0  0  3  0  0  0  0  0  0
  187.4810  178.0840  145.2770 N   0  0  0  0  0  2  0  0  0  0  0  0
  185.2980  178.5660  146.2280 C   0  0  0  0  0  1  0  0  0  0  0  0
  186.7100  178.0880  146.5080 C   0  0  0  0  0  2  0  0  0  0  0  0
  188.8870  179.2160  137.4960 C   0  0  0  0  0  2  0  0  0  0  0  0
  188.5450  178.1290  138.1870 C   0  0  0  0  0  0  0  0  0  0  0  0
  187.5720  172.8360  136.7730 N   0  0  0  0  0  1  0  0  0  0  0  0
  185.2900  175.5650  136.9140 C   0  0  0  0  0  0  0  0  0  0  0  0
  187.6680  175.9480  137.5170 C   0  0  0  0  0  3  0  0  0  0  0  0
  185.2180  173.4720  136.4470 N   0  0  0  0  0  0  0  0  0  0  0  0
  186.5720  175.1080  137.0390 C   0  0  0  0  0  0  0  0  0  0  0  0
  186.1210  177.8890  137.2520 C   0  0  0  0  0  2  0  0  0  0  0  0
  184.4620  174.5570  136.5740 N   0  0  0  0  0  0  0  0  0  0  0  0
  184.9000  176.9440  137.3360 C   0  0  0  0  0  2  0  0  0  0  0  0
  184.6990  172.1590  136.1060 C   0  0  0  0  0  1  0  0  0  0  0  0
  186.5000  173.7750  136.7310 C   0  0  0  0  0  0  0  0  0  0  0  0
  187.4440  177.2630  137.6980 C   0  0  0  0  0  0  0  0  0  0  0  0
  1  2  1  0  0  0  0
  2  3  2  0  0  0  0
  4  9  1  0  0  0  0
  6  8  1  0  0  0  0
  7  4  1  0  0  0  0
  7  6  1  0  0  0  0
  8  1  1  0  0  0  0
  9  5  2  0  0  0  0
  9  1  1  0  0  0  0
 10  2  1  6  0  0  0
 10 11  1  0  0  0  0
 10 12  1  0  0  0  0
 11 12  1  0  0  0  0
 12 13  1  6  0  0  0
 13 15  1  0  0  0  0
 14 15  1  0  0  0  0
 16 17  2  0  0  0  0
 17  4  1  0  0  0  0
 19 22  1  0  0  0  0
 19 25  1  0  0  0  0
 20 28  2  0  0  0  0
 21 24  1  0  0  0  0
 21 27  1  0  0  0  0
 22 20  1  0  0  0  0
 23 25  1  0  0  0  0
 23 28  1  0  0  0  0
 24 19  2  0  0  0  0
 26 21  1  0  0  0  0
 27 18  1  0  0  0  0
 27 22  2  0  0  0  0
 28 17  1  0  0  0  0
M  END
>  <MODEL>
9

>  <REMARK>
 VINA RESULT:      -7.2      3.128      7.377
  Name = 
  5 active torsions:
  status: ('A' for Active; 'I' for Inactive)
    1  A    between atoms: C_2  and  C_3
    2  A    between atoms: N_6  and  C_11
    3  A    between atoms: N_6  and  C_28
    4  A    between atoms: N_16  and  C_20
    5  A    between atoms: C_20  and  C_25
                            x       y       z     vdW  Elec       q    Type
                         _______ _______ _______ _____ _____    ______ ____

>  <TORSDO>
F 5

$$$$
