=
 OpenBabel10272414303D

 43 46  0  0  1  0  0  0  0  0999 V2000
  189.2320  177.8130  141.2190 N   0  0  0  0  0  0  0  0  0  0  0  0
  188.1800  175.2820  143.0450 C   0  0  0  0  0  1  0  0  0  0  0  0
  186.7000  177.6790  144.4100 N   0  0  0  0  0  0  0  0  0  0  0  0
  188.3440  177.5890  142.1270 C   0  0  0  0  0  0  0  0  0  0  0  0
  184.1020  178.7630  144.2750 C   0  0  0  0  0  0  0  0  0  0  0  0
  184.7740  178.6100  143.1150 C   0  0  0  0  0  0  0  0  0  0  0  0
  182.7690  179.4360  144.3310 C   0  0  0  0  0  1  0  0  0  0  0  0
  187.0280  178.2890  142.0280 C   0  0  0  0  0  2  0  0  0  0  0  0
  186.0500  177.7830  143.0830 C   0  0  1  0  0  3  0  0  0  0  0  0
  185.8980  177.7820  145.5960 C   0  0  0  0  0  3  0  0  0  0  0  0
  188.0270  177.1990  144.5680 N   0  0  0  0  0  0  0  0  0  0  0  0
  188.6320  176.7040  143.3190 C   0  0  1  0  0  3  0  0  0  0  0  0
  184.6700  178.2850  145.5450 C   0  0  0  0  0  3  0  0  0  0  0  0
  188.8820  178.2100  145.2150 C   0  0  0  0  0  2  0  0  0  0  0  0
  191.9910  176.3410  146.3570 C   0  0  0  0  0  3  0  0  0  0  0  0
  191.9500  176.5510  147.7380 C   0  0  0  0  0  0  0  0  0  0  0  0
  189.9360  177.8770  147.4700 C   0  0  0  0  0  3  0  0  0  0  0  0
  191.0000  176.8870  145.5350 C   0  0  0  0  0  3  0  0  0  0  0  0
  189.9580  177.6400  146.0920 C   0  0  0  0  0  0  0  0  0  0  0  0
  190.9240  177.3340  148.2900 C   0  0  0  0  0  3  0  0  0  0  0  0
  192.9360  175.9720  148.5370 O   0  0  0  0  0  0  0  0  0  0  0  0
  193.5410  176.6550  149.6270 C   0  0  0  0  0  1  0  0  0  0  0  0
  184.1640  179.0780  141.8190 C   0  0  0  0  0  2  0  0  0  0  0  0
  183.7940  177.9050  140.9150 C   0  0  0  0  0  2  0  0  0  0  0  0
  182.2930  177.8280  140.6620 C   0  0  0  0  0  2  0  0  0  0  0  0
  181.6620  179.2000  140.8070 C   0  0  0  0  0  1  0  0  0  0  0  0
  190.5580  177.2440  141.2700 C   0  0  0  0  0  2  0  0  0  0  0  0
  191.2130  177.2660  139.8970 C   0  0  1  0  0  3  0  0  0  0  0  0
  192.7230  177.1930  140.0360 C   0  0  0  0  0  1  0  0  0  0  0  0
  190.7500  176.1030  139.1430 N   0  0  0  0  0  2  0  0  0  0  0  0
  190.9820  176.2650  137.7030 C   0  0  1  0  0  3  0  0  0  0  0  0
  192.8620  175.1660  136.5710 C   0  0  0  0  0  2  0  0  0  0  0  0
  192.5420  174.4360  137.7340 O   0  0  0  0  0  0  0  0  0  0  0  0
  191.4590  174.9830  137.0170 C   0  0  1  0  0  3  0  0  0  0  0  0
  189.5700  176.9890  136.8630 S   0  0  0  0  0  0  0  0  0  0  0  0
  189.5880  178.4860  137.0220 O   0  0  0  0  0  0  0  0  0  0  0  0
  189.6300  176.6470  135.4000 O   0  0  0  0  0  0  0  0  0  0  0  0
  188.0480  176.3430  137.5370 C   0  0  2  0  0  3  0  0  0  0  0  0
  187.3030  174.3410  136.9540 C   0  0  0  0  0  1  0  0  0  0  0  0
  187.3300  175.6750  136.5430 O   0  0  0  0  0  0  0  0  0  0  0  0
  187.2150  177.4850  138.1180 C   0  0  0  0  0  2  0  0  0  0  0  0
  186.1430  177.9400  137.1350 C   0  0  0  0  0  2  0  0  0  0  0  0
  184.8790  177.6820  137.6640 O   0  0  0  0  0  1  0  0  0  0  0  0
  1 27  1  0  0  0  0
  1  4  2  0  0  0  0
  3 11  1  0  0  0  0
  3 10  1  0  0  0  0
  4 12  1  0  0  0  0
  5  7  1  0  0  0  0
  5 13  1  0  0  0  0
  6  5  2  0  0  0  0
  8  4  1  0  0  0  0
  9  8  1  6  0  0  0
  9  6  1  0  0  0  0
  9  3  1  0  0  0  0
 11 14  1  0  0  0  0
 12  2  1  6  0  0  0
 12 11  1  0  0  0  0
 13 10  2  0  0  0  0
 14 19  1  0  0  0  0
 15 16  1  0  0  0  0
 16 20  2  0  0  0  0
 16 21  1  0  0  0  0
 17 20  1  0  0  0  0
 18 19  1  0  0  0  0
 18 15  2  0  0  0  0
 19 17  2  0  0  0  0
 21 22  1  0  0  0  0
 23  6  1  0  0  0  0
 24 23  1  0  0  0  0
 25 26  1  0  0  0  0
 25 24  1  0  0  0  0
 28 29  1  1  0  0  0
 28 27  1  0  0  0  0
 30 28  1  0  0  0  0
 31 30  1  1  0  0  0
 32 34  1  0  0  0  0
 32 33  1  0  0  0  0
 34 31  1  1  0  0  0
 34 33  1  0  0  0  0
 35 36  2  0  0  0  0
 35 38  1  0  0  0  0
 35 31  1  0  0  0  0
 37 35  2  0  0  0  0
 38 41  1  6  0  0  0
 40 39  1  0  0  0  0
 40 38  1  0  0  0  0
 42 43  1  0  0  0  0
 42 41  1  0  0  0  0
M  END
>  <MODEL>
1

>  <REMARK>
 VINA RESULT:      -6.2      0.000      0.000
  Name = 
  16 active torsions:
  status: ('A' for Active; 'I' for Inactive)
    1  A    between atoms: C_1  and  N_34
    2  A    between atoms: C_1  and  C_35
    3  A    between atoms: N_2  and  C_6
    4  A    between atoms: N_3  and  C_4
    5  A    between atoms: N_3  and  C_12
    6  A    between atoms: C_4  and  S_14
    7  A    between atoms: C_4  and  C_42
    8  A    between atoms: C_5  and  C_18
    9  A    between atoms: C_6  and  C_12
   10  A    between atoms: C_11  and  S_14
   11  A    between atoms: C_11  and  O_36
   12  A    between atoms: C_11  and  C_40
   13  A    between atoms: C_18  and  C_24
   14  A    between atoms: C_19  and  O_25
   15  A    between atoms: C_21  and  C_24
   16  A    between atoms: C_26  and  C_40
                            x       y       z     vdW  Elec       q    Type
                         _______ _______ _______ _____ _____    ______ ____

>  <TORSDO>
F 16

$$$$
=
 OpenBabel10272414303D

 43 46  0  0  1  0  0  0  0  0999 V2000
  187.3220  178.4060  139.4770 N   0  0  0  0  0  0  0  0  0  0  0  0
  187.2770  178.6990  136.1970 C   0  0  0  0  0  1  0  0  0  0  0  0
  185.0050  176.5960  136.6550 N   0  0  0  0  0  0  0  0  0  0  0  0
  186.5770  178.0380  138.4920 C   0  0  0  0  0  0  0  0  0  0  0  0
  182.1910  176.6880  136.7800 C   0  0  0  0  0  0  0  0  0  0  0  0
  182.8780  177.5210  137.5880 C   0  0  0  0  0  0  0  0  0  0  0  0
  180.7040  176.5700  136.8500 C   0  0  0  0  0  1  0  0  0  0  0  0
  185.0960  178.0210  138.6830 C   0  0  0  0  0  2  0  0  0  0  0  0
  184.3700  177.7230  137.3750 C   0  0  1  0  0  3  0  0  0  0  0  0
  184.2160  175.8020  135.7560 C   0  0  0  0  0  3  0  0  0  0  0  0
  186.4140  176.4370  136.5880 N   0  0  0  0  0  0  0  0  0  0  0  0
  187.1670  177.5550  137.1860 C   0  0  1  0  0  3  0  0  0  0  0  0
  182.8890  175.8410  135.8010 C   0  0  0  0  0  3  0  0  0  0  0  0
  186.8290  175.1440  137.1610 C   0  0  0  0  0  2  0  0  0  0  0  0
  189.5380  173.4700  135.0830 C   0  0  0  0  0  3  0  0  0  0  0  0
  190.6800  173.7400  135.8430 C   0  0  0  0  0  0  0  0  0  0  0  0
  189.3190  174.9610  137.4380 C   0  0  0  0  0  3  0  0  0  0  0  0
  188.2880  173.9330  135.5050 C   0  0  0  0  0  3  0  0  0  0  0  0
  188.1720  174.6630  136.6950 C   0  0  0  0  0  0  0  0  0  0  0  0
  190.5650  174.5010  137.0170 C   0  0  0  0  0  3  0  0  0  0  0  0
  191.9100  173.2430  135.4130 O   0  0  0  0  0  0  0  0  0  0  0  0
  193.0140  174.0840  135.1090 C   0  0  0  0  0  1  0  0  0  0  0  0
  182.1450  178.4050  138.5650 C   0  0  0  0  0  2  0  0  0  0  0  0
  182.0560  179.8440  138.0660 C   0  0  0  0  0  2  0  0  0  0  0  0
  180.6870  180.1650  137.4790 C   0  0  0  0  0  2  0  0  0  0  0  0
  180.7660  180.2350  135.9650 C   0  0  0  0  0  1  0  0  0  0  0  0
  188.7650  178.3820  139.4130 C   0  0  0  0  0  2  0  0  0  0  0  0
  189.3510  177.6490  140.6110 C   0  0  1  0  0  3  0  0  0  0  0  0
  190.7520  177.1590  140.2900 C   0  0  0  0  0  1  0  0  0  0  0  0
  189.4210  178.5790  141.7350 N   0  0  0  0  0  2  0  0  0  0  0  0
  189.5120  177.8710  143.0170 C   0  0  1  0  0  3  0  0  0  0  0  0
  191.5210  177.8630  144.4270 C   0  0  0  0  0  2  0  0  0  0  0  0
  191.5720  178.9800  143.5690 O   0  0  0  0  0  0  0  0  0  0  0  0
  190.3040  178.6360  144.0780 C   0  0  1  0  0  3  0  0  0  0  0  0
  187.9040  177.3530  143.6250 S   0  0  0  0  0  0  0  0  0  0  0  0
  186.8130  178.0630  142.8670 O   0  0  0  0  0  0  0  0  0  0  0  0
  187.7520  175.8690  143.4340 O   0  0  0  0  0  0  0  0  0  0  0  0
  187.7480  177.7230  145.3640 C   0  0  2  0  0  3  0  0  0  0  0  0
  188.8050  177.5200  147.3000 C   0  0  0  0  0  1  0  0  0  0  0  0
  188.5290  176.8400  146.1130 O   0  0  0  0  0  0  0  0  0  0  0  0
  186.2830  177.6240  145.7840 C   0  0  0  0  0  2  0  0  0  0  0  0
  185.6480  179.0050  145.8980 C   0  0  0  0  0  2  0  0  0  0  0  0
  185.6940  179.4370  147.2230 O   0  0  0  0  0  1  0  0  0  0  0  0
  3  9  1  0  0  0  0
  4  8  1  0  0  0  0
  4  1  2  0  0  0  0
  5  7  1  0  0  0  0
  5  6  2  0  0  0  0
  6 23  1  0  0  0  0
  9  6  1  0  0  0  0
  9  8  1  1  0  0  0
 10 13  2  0  0  0  0
 10  3  1  0  0  0  0
 11  3  1  0  0  0  0
 11 14  1  0  0  0  0
 11 12  1  0  0  0  0
 12  2  1  6  0  0  0
 12  4  1  0  0  0  0
 13  5  1  0  0  0  0
 15 18  2  0  0  0  0
 15 16  1  0  0  0  0
 16 20  2  0  0  0  0
 18 19  1  0  0  0  0
 19 14  1  0  0  0  0
 19 17  2  0  0  0  0
 20 17  1  0  0  0  0
 21 16  1  0  0  0  0
 22 21  1  0  0  0  0
 24 23  1  0  0  0  0
 25 24  1  0  0  0  0
 26 25  1  0  0  0  0
 27  1  1  0  0  0  0
 27 28  1  0  0  0  0
 28 29  1  6  0  0  0
 28 30  1  0  0  0  0
 31 30  1  6  0  0  0
 31 35  1  0  0  0  0
 33 34  1  0  0  0  0
 33 32  1  0  0  0  0
 34 31  1  6  0  0  0
 34 32  1  0  0  0  0
 35 38  1  0  0  0  0
 36 35  2  0  0  0  0
 37 35  2  0  0  0  0
 38 41  1  1  0  0  0
 38 40  1  0  0  0  0
 40 39  1  0  0  0  0
 41 42  1  0  0  0  0
 42 43  1  0  0  0  0
M  END
>  <MODEL>
2

>  <REMARK>
 VINA RESULT:      -6.2      3.452      8.225
  Name = 
  16 active torsions:
  status: ('A' for Active; 'I' for Inactive)
    1  A    between atoms: C_1  and  N_34
    2  A    between atoms: C_1  and  C_35
    3  A    between atoms: N_2  and  C_6
    4  A    between atoms: N_3  and  C_4
    5  A    between atoms: N_3  and  C_12
    6  A    between atoms: C_4  and  S_14
    7  A    between atoms: C_4  and  C_42
    8  A    between atoms: C_5  and  C_18
    9  A    between atoms: C_6  and  C_12
   10  A    between atoms: C_11  and  S_14
   11  A    between atoms: C_11  and  O_36
   12  A    between atoms: C_11  and  C_40
   13  A    between atoms: C_18  and  C_24
   14  A    between atoms: C_19  and  O_25
   15  A    between atoms: C_21  and  C_24
   16  A    between atoms: C_26  and  C_40
                            x       y       z     vdW  Elec       q    Type
                         _______ _______ _______ _____ _____    ______ ____

>  <TORSDO>
F 16

$$$$
=
 OpenBabel10272414303D

 43 46  0  0  1  0  0  0  0  0999 V2000
  189.2870  177.7980  141.2270 N   0  0  0  0  0  0  0  0  0  0  0  0
  188.2750  175.2720  143.0830 C   0  0  0  0  0  1  0  0  0  0  0  0
  186.8100  177.6700  144.4610 N   0  0  0  0  0  0  0  0  0  0  0  0
  188.4150  177.5750  142.1510 C   0  0  0  0  0  0  0  0  0  0  0  0
  184.2060  178.7440  144.3650 C   0  0  0  0  0  0  0  0  0  0  0  0
  184.8590  178.5890  143.1950 C   0  0  0  0  0  0  0  0  0  0  0  0
  182.8720  179.4120  144.4400 C   0  0  0  0  0  1  0  0  0  0  0  0
  187.0960  178.2700  142.0710 C   0  0  0  0  0  2  0  0  0  0  0  0
  186.1370  177.7660  143.1450 C   0  0  1  0  0  3  0  0  0  0  0  0
  186.0280  177.7760  145.6600 C   0  0  0  0  0  3  0  0  0  0  0  0
  188.1410  177.1950  144.5990 N   0  0  0  0  0  0  0  0  0  0  0  0
  188.7270  176.6960  143.3420 C   0  0  1  0  0  3  0  0  0  0  0  0
  184.7970  178.2740  145.6280 C   0  0  0  0  0  3  0  0  0  0  0  0
  189.0040  178.2120  145.2270 C   0  0  0  0  0  2  0  0  0  0  0  0
  192.0840  176.3720  146.4830 C   0  0  0  0  0  3  0  0  0  0  0  0
  191.9940  176.5850  147.8620 C   0  0  0  0  0  0  0  0  0  0  0  0
  189.9800  177.8940  147.5190 C   0  0  0  0  0  3  0  0  0  0  0  0
  191.1190  176.9070  145.6260 C   0  0  0  0  0  3  0  0  0  0  0  0
  190.0530  177.6540  146.1430 C   0  0  0  0  0  0  0  0  0  0  0  0
  190.9420  177.3610  148.3740 C   0  0  0  0  0  3  0  0  0  0  0  0
  192.9550  176.0160  148.6970 O   0  0  0  0  0  0  0  0  0  0  0  0
  193.6150  176.7500  149.7190 C   0  0  0  0  0  1  0  0  0  0  0  0
  184.2260  179.0480  141.9070 C   0  0  0  0  0  2  0  0  0  0  0  0
  183.5930  177.8870  141.1440 C   0  0  0  0  0  2  0  0  0  0  0  0
  183.5430  178.1460  139.6440 C   0  0  0  0  0  2  0  0  0  0  0  0
  184.2320  179.4570  139.3120 C   0  0  0  0  0  1  0  0  0  0  0  0
  190.6160  177.2340  141.2580 C   0  0  0  0  0  2  0  0  0  0  0  0
  191.2310  177.2130  139.8670 C   0  0  1  0  0  3  0  0  0  0  0  0
  192.7450  177.2880  139.9630 C   0  0  0  0  0  1  0  0  0  0  0  0
  190.8600  175.9600  139.2130 N   0  0  0  0  0  2  0  0  0  0  0  0
  189.9740  176.1910  138.0660 C   0  0  1  0  0  3  0  0  0  0  0  0
  188.8810  177.9910  136.8070 C   0  0  0  0  0  2  0  0  0  0  0  0
  189.3150  178.5030  138.0460 O   0  0  0  0  0  0  0  0  0  0  0  0
  190.1620  177.5660  137.4220 C   0  0  1  0  0  3  0  0  0  0  0  0
  190.0670  174.8660  136.8580 S   0  0  0  0  0  0  0  0  0  0  0  0
  190.1820  173.5370  137.5580 O   0  0  0  0  0  0  0  0  0  0  0  0
  188.8230  174.8730  136.0130 O   0  0  0  0  0  0  0  0  0  0  0  0
  191.4810  175.0940  135.7920 C   0  0  2  0  0  3  0  0  0  0  0  0
  191.6520  173.4230  134.3490 C   0  0  0  0  0  1  0  0  0  0  0  0
  191.1590  174.7220  134.4850 O   0  0  0  0  0  0  0  0  0  0  0  0
  192.6550  174.2640  136.3080 C   0  0  0  0  0  2  0  0  0  0  0  0
  193.6480  175.1300  137.0730 C   0  0  0  0  0  2  0  0  0  0  0  0
  193.5510  176.4530  136.6410 O   0  0  0  0  0  1  0  0  0  0  0  0
  1 27  1  0  0  0  0
  1  4  2  0  0  0  0
  3 11  1  0  0  0  0
  3 10  1  0  0  0  0
  4 12  1  0  0  0  0
  5  7  1  0  0  0  0
  5 13  1  0  0  0  0
  6  5  2  0  0  0  0
  8  4  1  0  0  0  0
  9  8  1  6  0  0  0
  9  6  1  0  0  0  0
  9  3  1  0  0  0  0
 11 14  1  0  0  0  0
 12  2  1  6  0  0  0
 12 11  1  0  0  0  0
 13 10  2  0  0  0  0
 14 19  1  0  0  0  0
 15 16  1  0  0  0  0
 16 20  2  0  0  0  0
 16 21  1  0  0  0  0
 17 20  1  0  0  0  0
 18 19  1  0  0  0  0
 18 15  2  0  0  0  0
 19 17  2  0  0  0  0
 21 22  1  0  0  0  0
 23  6  1  0  0  0  0
 24 23  1  0  0  0  0
 25 24  1  0  0  0  0
 26 25  1  0  0  0  0
 28 29  1  1  0  0  0
 28 27  1  0  0  0  0
 30 28  1  0  0  0  0
 31 30  1  1  0  0  0
 32 34  1  0  0  0  0
 32 33  1  0  0  0  0
 34 33  1  0  0  0  0
 34 31  1  1  0  0  0
 35 36  2  0  0  0  0
 35 31  1  0  0  0  0
 37 35  2  0  0  0  0
 38 41  1  1  0  0  0
 38 35  1  0  0  0  0
 39 40  1  0  0  0  0
 40 38  1  0  0  0  0
 41 42  1  0  0  0  0
 43 42  1  0  0  0  0
M  END
>  <MODEL>
3

>  <REMARK>
 VINA RESULT:      -5.9      1.361      2.872
  Name = 
  16 active torsions:
  status: ('A' for Active; 'I' for Inactive)
    1  A    between atoms: C_1  and  N_34
    2  A    between atoms: C_1  and  C_35
    3  A    between atoms: N_2  and  C_6
    4  A    between atoms: N_3  and  C_4
    5  A    between atoms: N_3  and  C_12
    6  A    between atoms: C_4  and  S_14
    7  A    between atoms: C_4  and  C_42
    8  A    between atoms: C_5  and  C_18
    9  A    between atoms: C_6  and  C_12
   10  A    between atoms: C_11  and  S_14
   11  A    between atoms: C_11  and  O_36
   12  A    between atoms: C_11  and  C_40
   13  A    between atoms: C_18  and  C_24
   14  A    between atoms: C_19  and  O_25
   15  A    between atoms: C_21  and  C_24
   16  A    between atoms: C_26  and  C_40
                            x       y       z     vdW  Elec       q    Type
                         _______ _______ _______ _____ _____    ______ ____

>  <TORSDO>
F 16

$$$$
=
 OpenBabel10272414303D

 43 46  0  0  1  0  0  0  0  0999 V2000
  188.8780  176.6110  141.4730 N   0  0  0  0  0  0  0  0  0  0  0  0
  188.1620  179.8230  141.6140 C   0  0  0  0  0  1  0  0  0  0  0  0
  185.8390  178.6020  143.3190 N   0  0  0  0  0  0  0  0  0  0  0  0
  188.0760  177.3880  142.1190 C   0  0  0  0  0  0  0  0  0  0  0  0
  185.3320  178.2880  146.0740 C   0  0  0  0  0  0  0  0  0  0  0  0
  186.4990  177.8100  145.5970 C   0  0  0  0  0  0  0  0  0  0  0  0
  184.9110  178.0700  147.4900 C   0  0  0  0  0  1  0  0  0  0  0  0
  187.7860  177.0830  143.5510 C   0  0  0  0  0  2  0  0  0  0  0  0
  186.9580  178.1890  144.1970 C   0  0  1  0  0  3  0  0  0  0  0  0
  184.6570  179.1690  143.9060 C   0  0  0  0  0  3  0  0  0  0  0  0
  185.9870  178.7310  141.9130 N   0  0  0  0  0  0  0  0  0  0  0  0
  187.3700  178.5410  141.4410 C   0  0  1  0  0  3  0  0  0  0  0  0
  184.4100  179.0340  145.2040 C   0  0  0  0  0  3  0  0  0  0  0  0
  185.0500  177.8450  141.1990 C   0  0  0  0  0  2  0  0  0  0  0  0
  183.2000  180.0970  138.7570 C   0  0  0  0  0  3  0  0  0  0  0  0
  181.8750  179.9260  139.1690 C   0  0  0  0  0  0  0  0  0  0  0  0
  182.6150  178.3660  140.8740 C   0  0  0  0  0  3  0  0  0  0  0  0
  184.2310  179.4140  139.4100 C   0  0  0  0  0  3  0  0  0  0  0  0
  183.9430  178.5620  140.4830 C   0  0  0  0  0  0  0  0  0  0  0  0
  181.5860  179.0450  140.2230 C   0  0  0  0  0  3  0  0  0  0  0  0
  180.8690  180.6390  138.5180 O   0  0  0  0  0  0  0  0  0  0  0  0
  180.9790  182.0240  138.2190 C   0  0  0  0  0  1  0  0  0  0  0  0
  187.4470  177.0750  146.5100 C   0  0  0  0  0  2  0  0  0  0  0  0
  188.7320  177.8630  146.7430 C   0  0  0  0  0  2  0  0  0  0  0  0
  189.9350  176.9520  146.9530 C   0  0  0  0  0  2  0  0  0  0  0  0
  190.9300  177.1220  145.8200 C   0  0  0  0  0  1  0  0  0  0  0  0
  189.1590  176.7790  140.0660 C   0  0  0  0  0  2  0  0  0  0  0  0
  190.3800  177.6640  139.8570 C   0  0  1  0  0  3  0  0  0  0  0  0
  191.5050  177.2280  140.7790 C   0  0  0  0  0  1  0  0  0  0  0  0
  190.8220  177.5260  138.4720 N   0  0  0  0  0  2  0  0  0  0  0  0
  189.7260  177.1000  137.5940 C   0  0  1  0  0  3  0  0  0  0  0  0
  187.8050  178.5030  136.9890 C   0  0  0  0  0  2  0  0  0  0  0  0
  188.8530  179.3340  137.4320 O   0  0  0  0  0  0  0  0  0  0  0  0
  189.2230  178.2100  136.6690 C   0  0  1  0  0  3  0  0  0  0  0  0
  190.1210  175.6000  136.6900 S   0  0  0  0  0  0  0  0  0  0  0  0
  189.7910  174.3920  137.5260 O   0  0  0  0  0  0  0  0  0  0  0  0
  189.3180  175.5570  135.4200 O   0  0  0  0  0  0  0  0  0  0  0  0
  191.8560  175.5680  136.2680 C   0  0  2  0  0  3  0  0  0  0  0  0
  192.3000  173.7740  135.0490 C   0  0  0  0  0  1  0  0  0  0  0  0
  192.0190  175.1380  134.9500 O   0  0  0  0  0  0  0  0  0  0  0  0
  192.6030  174.6420  137.2270 C   0  0  0  0  0  2  0  0  0  0  0  0
  193.7940  175.3510  137.8610 C   0  0  0  0  0  2  0  0  0  0  0  0
  193.8760  176.6570  137.3800 O   0  0  0  0  0  1  0  0  0  0  0  0
  1  4  2  0  0  0  0
  3 10  1  0  0  0  0
  3  9  1  0  0  0  0
  4  8  1  0  0  0  0
  5  7  1  0  0  0  0
  6  5  2  0  0  0  0
  6 23  1  0  0  0  0
  9  8  1  6  0  0  0
  9  6  1  0  0  0  0
 10 13  2  0  0  0  0
 11  3  1  0  0  0  0
 12  2  1  1  0  0  0
 12 11  1  0  0  0  0
 12  4  1  0  0  0  0
 13  5  1  0  0  0  0
 14 11  1  0  0  0  0
 15 16  2  0  0  0  0
 15 18  1  0  0  0  0
 16 20  1  0  0  0  0
 18 19  2  0  0  0  0
 19 17  1  0  0  0  0
 19 14  1  0  0  0  0
 20 17  2  0  0  0  0
 21 16  1  0  0  0  0
 22 21  1  0  0  0  0
 23 24  1  0  0  0  0
 24 25  1  0  0  0  0
 26 25  1  0  0  0  0
 27  1  1  0  0  0  0
 28 27  1  0  0  0  0
 28 29  1  1  0  0  0
 30 28  1  0  0  0  0
 31 30  1  6  0  0  0
 32 33  1  0  0  0  0
 34 32  1  0  0  0  0
 34 33  1  0  0  0  0
 34 31  1  1  0  0  0
 35 36  2  0  0  0  0
 35 31  1  0  0  0  0
 37 35  2  0  0  0  0
 38 35  1  0  0  0  0
 38 41  1  1  0  0  0
 40 39  1  0  0  0  0
 40 38  1  0  0  0  0
 41 42  1  0  0  0  0
 43 42  1  0  0  0  0
M  END
>  <MODEL>
4

>  <REMARK>
 VINA RESULT:      -5.8      2.459      7.060
  Name = 
  16 active torsions:
  status: ('A' for Active; 'I' for Inactive)
    1  A    between atoms: C_1  and  N_34
    2  A    between atoms: C_1  and  C_35
    3  A    between atoms: N_2  and  C_6
    4  A    between atoms: N_3  and  C_4
    5  A    between atoms: N_3  and  C_12
    6  A    between atoms: C_4  and  S_14
    7  A    between atoms: C_4  and  C_42
    8  A    between atoms: C_5  and  C_18
    9  A    between atoms: C_6  and  C_12
   10  A    between atoms: C_11  and  S_14
   11  A    between atoms: C_11  and  O_36
   12  A    between atoms: C_11  and  C_40
   13  A    between atoms: C_18  and  C_24
   14  A    between atoms: C_19  and  O_25
   15  A    between atoms: C_21  and  C_24
   16  A    between atoms: C_26  and  C_40
                            x       y       z     vdW  Elec       q    Type
                         _______ _______ _______ _____ _____    ______ ____

>  <TORSDO>
F 16

$$$$
=
 OpenBabel10272414303D

 43 46  0  0  1  0  0  0  0  0999 V2000
  187.8380  178.0480  140.1170 N   0  0  0  0  0  0  0  0  0  0  0  0
  189.0070  179.3840  137.3430 C   0  0  0  0  0  1  0  0  0  0  0  0
  187.4220  176.9300  136.2200 N   0  0  0  0  0  0  0  0  0  0  0  0
  187.6740  177.9140  138.8450 C   0  0  0  0  0  0  0  0  0  0  0  0
  184.8810  176.5510  135.0600 C   0  0  0  0  0  0  0  0  0  0  0  0
  184.9330  177.1680  136.2580 C   0  0  0  0  0  0  0  0  0  0  0  0
  183.5830  176.1940  134.4130 C   0  0  0  0  0  1  0  0  0  0  0  0
  186.3060  177.6120  138.3280 C   0  0  0  0  0  2  0  0  0  0  0  0
  186.2680  177.6520  136.8040 C   0  0  1  0  0  3  0  0  0  0  0  0
  187.3050  176.3620  134.9070 C   0  0  0  0  0  3  0  0  0  0  0  0
  188.7270  177.0150  136.7720 N   0  0  0  0  0  0  0  0  0  0  0  0
  188.8400  177.9770  137.8840 C   0  0  1  0  0  3  0  0  0  0  0  0
  186.1140  176.1850  134.3460 C   0  0  0  0  0  3  0  0  0  0  0  0
  189.2250  175.6840  137.1620 C   0  0  0  0  0  2  0  0  0  0  0  0
  192.8230  174.5020  137.5120 C   0  0  0  0  0  3  0  0  0  0  0  0
  193.4180  175.0850  136.3900 C   0  0  0  0  0  0  0  0  0  0  0  0
  191.2740  176.0210  135.7480 C   0  0  0  0  0  3  0  0  0  0  0  0
  191.4590  174.6890  137.7590 C   0  0  0  0  0  3  0  0  0  0  0  0
  190.6850  175.4650  136.8880 C   0  0  0  0  0  0  0  0  0  0  0  0
  192.6320  175.8350  135.5010 C   0  0  0  0  0  3  0  0  0  0  0  0
  194.7850  174.9060  136.1820 O   0  0  0  0  0  0  0  0  0  0  0  0
  195.5840  174.0640  137.0030 C   0  0  0  0  0  1  0  0  0  0  0  0
  183.6600  177.5650  136.9620 C   0  0  0  0  0  2  0  0  0  0  0  0
  183.2070  176.4960  137.9520 C   0  0  0  0  0  2  0  0  0  0  0  0
  182.2760  177.0590  139.0180 C   0  0  0  0  0  2  0  0  0  0  0  0
  183.0610  177.4230  140.2640 C   0  0  0  0  0  1  0  0  0  0  0  0
  189.1340  178.2630  140.7170 C   0  0  0  0  0  2  0  0  0  0  0  0
  189.9730  176.9950  140.6700 C   0  0  1  0  0  3  0  0  0  0  0  0
  191.4180  177.3360  140.3500 C   0  0  0  0  0  1  0  0  0  0  0  0
  189.9170  176.3520  141.9810 N   0  0  0  0  0  2  0  0  0  0  0  0
  189.3870  177.2590  143.0060 C   0  0  1  0  0  3  0  0  0  0  0  0
  187.2500  177.8270  144.0720 C   0  0  0  0  0  2  0  0  0  0  0  0
  186.9990  176.9790  142.9740 O   0  0  0  0  0  0  0  0  0  0  0  0
  188.1570  176.7050  143.7280 C   0  0  1  0  0  3  0  0  0  0  0  0
  190.6540  177.8000  144.1570 S   0  0  0  0  0  0  0  0  0  0  0  0
  192.0200  177.5300  143.5840 O   0  0  0  0  0  0  0  0  0  0  0  0
  190.5050  179.2750  144.4060 O   0  0  0  0  0  0  0  0  0  0  0  0
  190.4880  176.9400  145.7130 C   0  0  2  0  0  3  0  0  0  0  0  0
  188.8900  177.3350  147.1940 C   0  0  0  0  0  1  0  0  0  0  0  0
  190.1020  177.8330  146.7140 O   0  0  0  0  0  0  0  0  0  0  0  0
  191.8130  176.2720  146.0770 C   0  0  0  0  0  2  0  0  0  0  0  0
  191.8550  175.9020  147.5550 C   0  0  0  0  0  2  0  0  0  0  0  0
  193.1780  175.8660  147.9940 O   0  0  0  0  0  1  0  0  0  0  0  0
  1 27  1  0  0  0  0
  3 11  1  0  0  0  0
  3  9  1  0  0  0  0
  4  1  2  0  0  0  0
  5  6  2  0  0  0  0
  6  9  1  0  0  0  0
  6 23  1  0  0  0  0
  7  5  1  0  0  0  0
  8  4  1  0  0  0  0
  9  8  1  1  0  0  0
 10  3  1  0  0  0  0
 11 14  1  0  0  0  0
 11 12  1  0  0  0  0
 12  2  1  6  0  0  0
 12  4  1  0  0  0  0
 13 10  2  0  0  0  0
 13  5  1  0  0  0  0
 15 18  1  0  0  0  0
 16 15  2  0  0  0  0
 17 19  1  0  0  0  0
 19 14  1  0  0  0  0
 19 18  2  0  0  0  0
 20 17  2  0  0  0  0
 20 16  1  0  0  0  0
 21 16  1  0  0  0  0
 21 22  1  0  0  0  0
 23 24  1  0  0  0  0
 24 25  1  0  0  0  0
 25 26  1  0  0  0  0
 28 29  1  1  0  0  0
 28 27  1  0  0  0  0
 28 30  1  0  0  0  0
 31 30  1  6  0  0  0
 31 35  1  0  0  0  0
 33 34  1  0  0  0  0
 33 32  1  0  0  0  0
 34 31  1  6  0  0  0
 34 32  1  0  0  0  0
 35 37  2  0  0  0  0
 35 38  1  0  0  0  0
 36 35  2  0  0  0  0
 38 41  1  1  0  0  0
 38 40  1  0  0  0  0
 40 39  1  0  0  0  0
 41 42  1  0  0  0  0
 42 43  1  0  0  0  0
M  END
>  <MODEL>
5

>  <REMARK>
 VINA RESULT:      -5.8      2.899      8.465
  Name = 
  16 active torsions:
  status: ('A' for Active; 'I' for Inactive)
    1  A    between atoms: C_1  and  N_34
    2  A    between atoms: C_1  and  C_35
    3  A    between atoms: N_2  and  C_6
    4  A    between atoms: N_3  and  C_4
    5  A    between atoms: N_3  and  C_12
    6  A    between atoms: C_4  and  S_14
    7  A    between atoms: C_4  and  C_42
    8  A    between atoms: C_5  and  C_18
    9  A    between atoms: C_6  and  C_12
   10  A    between atoms: C_11  and  S_14
   11  A    between atoms: C_11  and  O_36
   12  A    between atoms: C_11  and  C_40
   13  A    between atoms: C_18  and  C_24
   14  A    between atoms: C_19  and  O_25
   15  A    between atoms: C_21  and  C_24
   16  A    between atoms: C_26  and  C_40
                            x       y       z     vdW  Elec       q    Type
                         _______ _______ _______ _____ _____    ______ ____

>  <TORSDO>
F 16

$$$$
=
 OpenBabel10272414303D

 43 46  0  0  1  0  0  0  0  0999 V2000
  189.2600  177.8340  141.0560 N   0  0  0  0  0  0  0  0  0  0  0  0
  188.2390  175.2770  142.8630 C   0  0  0  0  0  1  0  0  0  0  0  0
  186.8570  177.6640  144.3430 N   0  0  0  0  0  0  0  0  0  0  0  0
  188.4060  177.6030  141.9940 C   0  0  0  0  0  0  0  0  0  0  0  0
  184.2740  178.7930  144.3390 C   0  0  0  0  0  0  0  0  0  0  0  0
  184.8970  178.6580  143.1500 C   0  0  0  0  0  0  0  0  0  0  0  0
  182.9570  179.4860  144.4650 C   0  0  0  0  0  1  0  0  0  0  0  0
  187.1000  178.3260  141.9650 C   0  0  0  0  0  2  0  0  0  0  0  0
  186.1560  177.8110  143.0470 C   0  0  1  0  0  3  0  0  0  0  0  0
  186.1050  177.7510  145.5630 C   0  0  0  0  0  3  0  0  0  0  0  0
  188.1810  177.1590  144.4360 N   0  0  0  0  0  0  0  0  0  0  0  0
  188.7270  176.6840  143.1510 C   0  0  1  0  0  3  0  0  0  0  0  0
  184.8850  178.2760  145.5740 C   0  0  0  0  0  3  0  0  0  0  0  0
  189.0790  178.1400  145.0710 C   0  0  0  0  0  2  0  0  0  0  0  0
  191.0220  177.2510  148.2160 C   0  0  0  0  0  3  0  0  0  0  0  0
  192.0330  176.4360  147.6990 C   0  0  0  0  0  0  0  0  0  0  0  0
  191.0940  176.6960  145.4770 C   0  0  0  0  0  3  0  0  0  0  0  0
  190.0570  177.7970  147.3650 C   0  0  0  0  0  3  0  0  0  0  0  0
  190.1020  177.5380  145.9900 C   0  0  0  0  0  0  0  0  0  0  0  0
  192.0560  176.1510  146.3250 C   0  0  0  0  0  3  0  0  0  0  0  0
  192.9980  175.9260  148.5660 O   0  0  0  0  0  0  0  0  0  0  0  0
  193.4680  176.6420  149.7000 C   0  0  0  0  0  1  0  0  0  0  0  0
  184.2430  179.1670  141.8910 C   0  0  0  0  0  2  0  0  0  0  0  0
  183.4620  178.0670  141.1770 C   0  0  0  0  0  2  0  0  0  0  0  0
  183.6380  178.1270  139.6650 C   0  0  0  0  0  2  0  0  0  0  0  0
  184.6050  179.2360  139.2910 C   0  0  0  0  0  1  0  0  0  0  0  0
  190.5780  177.2430  141.0390 C   0  0  0  0  0  2  0  0  0  0  0  0
  191.0690  177.0490  139.6130 C   0  0  1  0  0  3  0  0  0  0  0  0
  192.5820  176.9130  139.5950 C   0  0  0  0  0  1  0  0  0  0  0  0
  190.4770  175.8250  139.0790 N   0  0  0  0  0  2  0  0  0  0  0  0
  189.6550  176.0940  137.8940 C   0  0  1  0  0  3  0  0  0  0  0  0
  188.8950  177.9510  136.4810 C   0  0  0  0  0  2  0  0  0  0  0  0
  189.4390  178.4780  137.6700 O   0  0  0  0  0  0  0  0  0  0  0  0
  190.0840  177.3480  137.1300 C   0  0  1  0  0  3  0  0  0  0  0  0
  189.5250  174.6630  136.8170 S   0  0  0  0  0  0  0  0  0  0  0  0
  189.6320  175.0920  135.3770 O   0  0  0  0  0  0  0  0  0  0  0  0
  190.6360  173.7000  137.1300 O   0  0  0  0  0  0  0  0  0  0  0  0
  187.9640  173.8350  137.0700 C   0  0  2  0  0  3  0  0  0  0  0  0
  187.8720  172.0390  135.7780 C   0  0  0  0  0  1  0  0  0  0  0  0
  188.1530  172.4520  137.0810 O   0  0  0  0  0  0  0  0  0  0  0  0
  186.9850  174.2290  135.9650 C   0  0  0  0  0  2  0  0  0  0  0  0
  185.7360  174.8820  136.5420 C   0  0  0  0  0  2  0  0  0  0  0  0
  186.0940  175.9950  137.3030 O   0  0  0  0  0  1  0  0  0  0  0  0
  1  4  2  0  0  0  0
  3 11  1  0  0  0  0
  3 10  1  0  0  0  0
  4 12  1  0  0  0  0
  5  7  1  0  0  0  0
  5 13  1  0  0  0  0
  6  5  2  0  0  0  0
  8  4  1  0  0  0  0
  9  8  1  6  0  0  0
  9  6  1  0  0  0  0
  9  3  1  0  0  0  0
 10 13  2  0  0  0  0
 11 14  1  0  0  0  0
 12  2  1  6  0  0  0
 12 11  1  0  0  0  0
 14 19  1  0  0  0  0
 16 15  1  0  0  0  0
 16 21  1  0  0  0  0
 17 19  2  0  0  0  0
 17 20  1  0  0  0  0
 18 15  2  0  0  0  0
 19 18  1  0  0  0  0
 20 16  2  0  0  0  0
 21 22  1  0  0  0  0
 23  6  1  0  0  0  0
 24 23  1  0  0  0  0
 25 24  1  0  0  0  0
 26 25  1  0  0  0  0
 27  1  1  0  0  0  0
 28 29  1  1  0  0  0
 28 27  1  0  0  0  0
 30 28  1  0  0  0  0
 31 30  1  1  0  0  0
 32 34  1  0  0  0  0
 32 33  1  0  0  0  0
 34 33  1  0  0  0  0
 34 31  1  1  0  0  0
 35 38  1  0  0  0  0
 35 37  2  0  0  0  0
 35 31  1  0  0  0  0
 36 35  2  0  0  0  0
 38 41  1  6  0  0  0
 38 40  1  0  0  0  0
 39 40  1  0  0  0  0
 41 42  1  0  0  0  0
 42 43  1  0  0  0  0
M  END
>  <MODEL>
6

>  <REMARK>
 VINA RESULT:      -5.6      1.220      2.071
  Name = 
  16 active torsions:
  status: ('A' for Active; 'I' for Inactive)
    1  A    between atoms: C_1  and  N_34
    2  A    between atoms: C_1  and  C_35
    3  A    between atoms: N_2  and  C_6
    4  A    between atoms: N_3  and  C_4
    5  A    between atoms: N_3  and  C_12
    6  A    between atoms: C_4  and  S_14
    7  A    between atoms: C_4  and  C_42
    8  A    between atoms: C_5  and  C_18
    9  A    between atoms: C_6  and  C_12
   10  A    between atoms: C_11  and  S_14
   11  A    between atoms: C_11  and  O_36
   12  A    between atoms: C_11  and  C_40
   13  A    between atoms: C_18  and  C_24
   14  A    between atoms: C_19  and  O_25
   15  A    between atoms: C_21  and  C_24
   16  A    between atoms: C_26  and  C_40
                            x       y       z     vdW  Elec       q    Type
                         _______ _______ _______ _____ _____    ______ ____

>  <TORSDO>
F 16

$$$$
=
 OpenBabel10272414303D

 43 46  0  0  1  0  0  0  0  0999 V2000
  188.8320  176.7350  141.3750 N   0  0  0  0  0  0  0  0  0  0  0  0
  188.0470  179.9270  141.5800 C   0  0  0  0  0  1  0  0  0  0  0  0
  185.8300  178.6350  143.3720 N   0  0  0  0  0  0  0  0  0  0  0  0
  188.0410  177.4860  142.0630 C   0  0  0  0  0  0  0  0  0  0  0  0
  185.4510  178.2840  146.1430 C   0  0  0  0  0  0  0  0  0  0  0  0
  186.6070  177.8380  145.6110 C   0  0  0  0  0  0  0  0  0  0  0  0
  185.0970  178.0430  147.5740 C   0  0  0  0  0  1  0  0  0  0  0  0
  187.8200  177.1610  143.5040 C   0  0  0  0  0  2  0  0  0  0  0  0
  186.9950  178.2410  144.1960 C   0  0  1  0  0  3  0  0  0  0  0  0
  184.6620  179.1680  144.0150 C   0  0  0  0  0  3  0  0  0  0  0  0
  185.9130  178.7800  141.9620 N   0  0  0  0  0  0  0  0  0  0  0  0
  187.2790  178.6280  141.4290 C   0  0  1  0  0  3  0  0  0  0  0  0
  184.4740  179.0150  145.3210 C   0  0  0  0  0  3  0  0  0  0  0  0
  184.9670  177.8780  141.2800 C   0  0  0  0  0  2  0  0  0  0  0  0
  181.4590  179.0690  140.4260 C   0  0  0  0  0  3  0  0  0  0  0  0
  181.7000  179.8610  139.2990 C   0  0  0  0  0  0  0  0  0  0  0  0
  184.0740  179.3970  139.4900 C   0  0  0  0  0  3  0  0  0  0  0  0
  182.5200  178.4320  141.0750 C   0  0  0  0  0  3  0  0  0  0  0  0
  183.8290  178.5770  140.5970 C   0  0  0  0  0  0  0  0  0  0  0  0
  183.0160  180.0330  138.8430 C   0  0  0  0  0  3  0  0  0  0  0  0
  180.6200  180.4640  138.6550 O   0  0  0  0  0  0  0  0  0  0  0  0
  180.4520  181.8730  138.5900 C   0  0  0  0  0  1  0  0  0  0  0  0
  187.6110  177.1180  146.4750 C   0  0  0  0  0  2  0  0  0  0  0  0
  188.8370  177.9820  146.7560 C   0  0  0  0  0  2  0  0  0  0  0  0
  190.1210  177.3370  146.2520 C   0  0  0  0  0  2  0  0  0  0  0  0
  190.9070  176.7510  147.4110 C   0  0  0  0  0  1  0  0  0  0  0  0
  189.0480  176.9220  139.9590 C   0  0  0  0  0  2  0  0  0  0  0  0
  190.3580  177.6500  139.7010 C   0  0  1  0  0  3  0  0  0  0  0  0
  191.4060  177.2140  140.7100 C   0  0  0  0  0  1  0  0  0  0  0  0
  190.8230  177.3080  138.3590 N   0  0  0  0  0  2  0  0  0  0  0  0
  189.7140  176.8900  137.4930 C   0  0  1  0  0  3  0  0  0  0  0  0
  187.9890  178.3910  136.6020 C   0  0  0  0  0  2  0  0  0  0  0  0
  189.1040  179.1600  136.9900 O   0  0  0  0  0  0  0  0  0  0  0  0
  189.3770  177.9090  136.4030 C   0  0  1  0  0  3  0  0  0  0  0  0
  189.9600  175.2440  136.8200 S   0  0  0  0  0  0  0  0  0  0  0  0
  190.5880  175.3350  135.4540 O   0  0  0  0  0  0  0  0  0  0  0  0
  190.8670  174.4630  137.7290 O   0  0  0  0  0  0  0  0  0  0  0  0
  188.4010  174.3840  136.6950 C   0  0  2  0  0  3  0  0  0  0  0  0
  188.6460  172.4250  135.6920 C   0  0  0  0  0  1  0  0  0  0  0  0
  188.5830  173.0230  136.9520 O   0  0  0  0  0  0  0  0  0  0  0  0
  187.8090  174.5870  135.3010 C   0  0  0  0  0  2  0  0  0  0  0  0
  186.4250  175.2200  135.3780 C   0  0  0  0  0  2  0  0  0  0  0  0
  186.0690  175.4160  136.7120 O   0  0  0  0  0  1  0  0  0  0  0  0
  1  4  2  0  0  0  0
  3 10  1  0  0  0  0
  3  9  1  0  0  0  0
  4  8  1  0  0  0  0
  5  7  1  0  0  0  0
  6  5  2  0  0  0  0
  6 23  1  0  0  0  0
  9  8  1  6  0  0  0
  9  6  1  0  0  0  0
 10 13  2  0  0  0  0
 11  3  1  0  0  0  0
 12  2  1  1  0  0  0
 12 11  1  0  0  0  0
 12  4  1  0  0  0  0
 13  5  1  0  0  0  0
 14 11  1  0  0  0  0
 15 18  1  0  0  0  0
 16 15  2  0  0  0  0
 17 19  1  0  0  0  0
 19 18  2  0  0  0  0
 19 14  1  0  0  0  0
 20 16  1  0  0  0  0
 20 17  2  0  0  0  0
 21 16  1  0  0  0  0
 22 21  1  0  0  0  0
 23 24  1  0  0  0  0
 25 24  1  0  0  0  0
 25 26  1  0  0  0  0
 27  1  1  0  0  0  0
 28 27  1  0  0  0  0
 28 29  1  1  0  0  0
 30 28  1  0  0  0  0
 31 30  1  6  0  0  0
 32 33  1  0  0  0  0
 34 32  1  0  0  0  0
 34 33  1  0  0  0  0
 34 31  1  1  0  0  0
 35 31  1  0  0  0  0
 35 37  2  0  0  0  0
 36 35  2  0  0  0  0
 38 41  1  6  0  0  0
 38 35  1  0  0  0  0
 38 40  1  0  0  0  0
 39 40  1  0  0  0  0
 41 42  1  0  0  0  0
 42 43  1  0  0  0  0
M  END
>  <MODEL>
7

>  <REMARK>
 VINA RESULT:      -5.6      2.337      6.791
  Name = 
  16 active torsions:
  status: ('A' for Active; 'I' for Inactive)
    1  A    between atoms: C_1  and  N_34
    2  A    between atoms: C_1  and  C_35
    3  A    between atoms: N_2  and  C_6
    4  A    between atoms: N_3  and  C_4
    5  A    between atoms: N_3  and  C_12
    6  A    between atoms: C_4  and  S_14
    7  A    between atoms: C_4  and  C_42
    8  A    between atoms: C_5  and  C_18
    9  A    between atoms: C_6  and  C_12
   10  A    between atoms: C_11  and  S_14
   11  A    between atoms: C_11  and  O_36
   12  A    between atoms: C_11  and  C_40
   13  A    between atoms: C_18  and  C_24
   14  A    between atoms: C_19  and  O_25
   15  A    between atoms: C_21  and  C_24
   16  A    between atoms: C_26  and  C_40
                            x       y       z     vdW  Elec       q    Type
                         _______ _______ _______ _____ _____    ______ ____

>  <TORSDO>
F 16

$$$$
=
 OpenBabel10272414303D

 43 46  0  0  1  0  0  0  0  0999 V2000
  186.6590  178.6670  143.5690 N   0  0  0  0  0  0  0  0  0  0  0  0
  187.4880  175.4990  143.2230 C   0  0  0  0  0  1  0  0  0  0  0  0
  190.1200  176.6930  144.4240 N   0  0  0  0  0  0  0  0  0  0  0  0
  187.6190  177.8830  143.9230 C   0  0  0  0  0  0  0  0  0  0  0  0
  191.2800  176.7970  146.9910 C   0  0  0  0  0  0  0  0  0  0  0  0
  190.0160  177.2500  146.8590 C   0  0  0  0  0  0  0  0  0  0  0  0
  192.0300  176.9150  148.2770 C   0  0  0  0  0  1  0  0  0  0  0  0
  188.2440  178.0790  145.2660 C   0  0  0  0  0  2  0  0  0  0  0  0
  189.2400  176.9680  145.5820 C   0  0  1  0  0  3  0  0  0  0  0  0
  191.4270  176.1420  144.6490 C   0  0  0  0  0  3  0  0  0  0  0  0
  189.6350  176.6770  143.0900 N   0  0  0  0  0  0  0  0  0  0  0  0
  188.1720  176.8310  142.9880 C   0  0  1  0  0  3  0  0  0  0  0  0
  191.9820  176.1790  145.8550 C   0  0  0  0  0  3  0  0  0  0  0  0
  190.3380  177.6700  142.2580 C   0  0  0  0  0  2  0  0  0  0  0  0
  190.6550  176.4090  138.6850 C   0  0  0  0  0  3  0  0  0  0  0  0
  189.7360  177.2240  138.0190 C   0  0  0  0  0  0  0  0  0  0  0  0
  189.1780  178.2990  140.1210 C   0  0  0  0  0  3  0  0  0  0  0  0
  190.8450  176.5470  140.0630 C   0  0  0  0  0  3  0  0  0  0  0  0
  190.1220  177.5060  140.7820 C   0  0  0  0  0  0  0  0  0  0  0  0
  188.9880  178.1620  138.7480 C   0  0  0  0  0  3  0  0  0  0  0  0
  189.5860  177.0840  136.6400 O   0  0  0  0  0  0  0  0  0  0  0  0
  188.8300  177.9950  135.8520 C   0  0  0  0  0  1  0  0  0  0  0  0
  189.3000  177.8530  148.0410 C   0  0  0  0  0  2  0  0  0  0  0  0
  187.8450  177.3980  148.1110 C   0  0  0  0  0  2  0  0  0  0  0  0
  186.8810  178.5730  148.2090 C   0  0  0  0  0  2  0  0  0  0  0  0
  185.7500  178.4120  147.2110 C   0  0  0  0  0  1  0  0  0  0  0  0
  186.0450  178.6060  142.2630 C   0  0  0  0  0  2  0  0  0  0  0  0
  184.5550  178.3210  142.3750 C   0  0  1  0  0  3  0  0  0  0  0  0
  184.1130  178.4160  143.8250 C   0  0  0  0  0  1  0  0  0  0  0  0
  183.8310  179.3200  141.5930 N   0  0  0  0  0  2  0  0  0  0  0  0
  182.9870  178.6950  140.5680 C   0  0  1  0  0  3  0  0  0  0  0  0
  180.7610  177.7410  140.9650 C   0  0  0  0  0  2  0  0  0  0  0  0
  181.0740  178.6200  142.0210 O   0  0  0  0  0  0  0  0  0  0  0  0
  181.4990  179.0070  140.7350 C   0  0  1  0  0  3  0  0  0  0  0  0
  183.5630  179.0480  138.9040 S   0  0  0  0  0  0  0  0  0  0  0  0
  182.5440  179.8800  138.1710 O   0  0  0  0  0  0  0  0  0  0  0  0
  184.8600  179.8060  138.9750 O   0  0  0  0  0  0  0  0  0  0  0  0
  183.8390  177.5300  138.0070 C   0  0  2  0  0  3  0  0  0  0  0  0
  185.7720  176.6750  137.3450 C   0  0  0  0  0  1  0  0  0  0  0  0
  184.8670  177.7040  137.0780 O   0  0  0  0  0  0  0  0  0  0  0  0
  182.5520  177.1050  137.3020 C   0  0  0  0  0  2  0  0  0  0  0  0
  181.9570  175.8590  137.9470 C   0  0  0  0  0  2  0  0  0  0  0  0
  182.7440  175.4660  139.0290 O   0  0  0  0  0  1  0  0  0  0  0  0
  1  4  2  0  0  0  0
  3 10  1  0  0  0  0
  3  9  1  0  0  0  0
  4  8  1  0  0  0  0
  5  7  1  0  0  0  0
  6  5  2  0  0  0  0
  6 23  1  0  0  0  0
  9  8  1  6  0  0  0
  9  6  1  0  0  0  0
 10 13  2  0  0  0  0
 11  3  1  0  0  0  0
 12 11  1  0  0  0  0
 12  2  1  1  0  0  0
 12  4  1  0  0  0  0
 13  5  1  0  0  0  0
 14 11  1  0  0  0  0
 15 18  1  0  0  0  0
 16 15  2  0  0  0  0
 16 20  1  0  0  0  0
 17 19  1  0  0  0  0
 18 19  2  0  0  0  0
 19 14  1  0  0  0  0
 20 17  2  0  0  0  0
 21 16  1  0  0  0  0
 22 21  1  0  0  0  0
 23 24  1  0  0  0  0
 24 25  1  0  0  0  0
 26 25  1  0  0  0  0
 27 28  1  0  0  0  0
 27  1  1  0  0  0  0
 28 29  1  1  0  0  0
 30 28  1  0  0  0  0
 31 30  1  1  0  0  0
 32 33  1  0  0  0  0
 34 31  1  1  0  0  0
 34 32  1  0  0  0  0
 34 33  1  0  0  0  0
 35 37  2  0  0  0  0
 35 31  1  0  0  0  0
 36 35  2  0  0  0  0
 38 41  1  6  0  0  0
 38 35  1  0  0  0  0
 40 39  1  0  0  0  0
 40 38  1  0  0  0  0
 41 42  1  0  0  0  0
 42 43  1  0  0  0  0
M  END
>  <MODEL>
8

>  <REMARK>
 VINA RESULT:      -5.6      2.742      7.476
  Name = 
  16 active torsions:
  status: ('A' for Active; 'I' for Inactive)
    1  A    between atoms: C_1  and  N_34
    2  A    between atoms: C_1  and  C_35
    3  A    between atoms: N_2  and  C_6
    4  A    between atoms: N_3  and  C_4
    5  A    between atoms: N_3  and  C_12
    6  A    between atoms: C_4  and  S_14
    7  A    between atoms: C_4  and  C_42
    8  A    between atoms: C_5  and  C_18
    9  A    between atoms: C_6  and  C_12
   10  A    between atoms: C_11  and  S_14
   11  A    between atoms: C_11  and  O_36
   12  A    between atoms: C_11  and  C_40
   13  A    between atoms: C_18  and  C_24
   14  A    between atoms: C_19  and  O_25
   15  A    between atoms: C_21  and  C_24
   16  A    between atoms: C_26  and  C_40
                            x       y       z     vdW  Elec       q    Type
                         _______ _______ _______ _____ _____    ______ ____

>  <TORSDO>
F 16

$$$$
=
 OpenBabel10272414303D

 43 46  0  0  1  0  0  0  0  0999 V2000
  189.1860  176.4360  141.4590 N   0  0  0  0  0  0  0  0  0  0  0  0
  188.4980  179.6220  141.9320 C   0  0  0  0  0  1  0  0  0  0  0  0
  186.9210  178.2980  144.2900 N   0  0  0  0  0  0  0  0  0  0  0  0
  188.6380  177.1750  142.3620 C   0  0  0  0  0  0  0  0  0  0  0  0
  187.3920  177.9100  147.0420 C   0  0  0  0  0  0  0  0  0  0  0  0
  188.3360  177.4760  146.1810 C   0  0  0  0  0  0  0  0  0  0  0  0
  187.4840  177.6500  148.5090 C   0  0  0  0  0  1  0  0  0  0  0  0
  188.8610  176.8320  143.7990 C   0  0  0  0  0  2  0  0  0  0  0  0
  188.2810  177.8990  144.7210 C   0  0  1  0  0  3  0  0  0  0  0  0
  186.0000  178.8170  145.2600 C   0  0  0  0  0  3  0  0  0  0  0  0
  186.5780  178.4610  142.9220 N   0  0  0  0  0  0  0  0  0  0  0  0
  187.7200  178.3220  142.0010 C   0  0  1  0  0  3  0  0  0  0  0  0
  186.2130  178.6470  146.5600 C   0  0  0  0  0  3  0  0  0  0  0  0
  185.4710  177.5630  142.5430 C   0  0  0  0  0  2  0  0  0  0  0  0
  182.1300  179.0110  141.4470 C   0  0  0  0  0  3  0  0  0  0  0  0
  182.4110  179.3960  140.1330 C   0  0  0  0  0  0  0  0  0  0  0  0
  184.6960  178.6280  140.4040 C   0  0  0  0  0  3  0  0  0  0  0  0
  183.1260  178.4240  142.2330 C   0  0  0  0  0  3  0  0  0  0  0  0
  184.4070  178.2120  141.7080 C   0  0  0  0  0  0  0  0  0  0  0  0
  183.7050  179.2140  139.6200 C   0  0  0  0  0  3  0  0  0  0  0  0
  181.3930  179.9550  139.3620 O   0  0  0  0  0  0  0  0  0  0  0  0
  180.3190  180.6950  139.9260 C   0  0  0  0  0  1  0  0  0  0  0  0
  189.5530  176.7500  146.6940 C   0  0  0  0  0  2  0  0  0  0  0  0
  190.8430  177.3600  146.1550 C   0  0  0  0  0  2  0  0  0  0  0  0
  191.9590  176.3300  146.0370 C   0  0  0  0  0  2  0  0  0  0  0  0
  192.3220  175.7860  147.4070 C   0  0  0  0  0  1  0  0  0  0  0  0
  188.9670  176.6420  140.0460 C   0  0  0  0  0  2  0  0  0  0  0  0
  190.0840  177.4780  139.4390 C   0  0  1  0  0  3  0  0  0  0  0  0
  191.4290  177.0290  139.9840 C   0  0  0  0  0  1  0  0  0  0  0  0
  190.0720  177.2870  137.9900 N   0  0  0  0  0  2  0  0  0  0  0  0
  188.7480  176.8760  137.5100 C   0  0  1  0  0  3  0  0  0  0  0  0
  186.5410  177.9440  137.4070 C   0  0  0  0  0  2  0  0  0  0  0  0
  187.4660  178.8630  137.9420 O   0  0  0  0  0  0  0  0  0  0  0  0
  187.9360  178.0260  136.9110 C   0  0  1  0  0  3  0  0  0  0  0  0
  188.8340  175.4660  136.4010 S   0  0  0  0  0  0  0  0  0  0  0  0
  188.4200  174.2130  137.1270 O   0  0  0  0  0  0  0  0  0  0  0  0
  187.9080  175.6900  135.2370 O   0  0  0  0  0  0  0  0  0  0  0  0
  190.4940  175.2650  135.7780 C   0  0  2  0  0  3  0  0  0  0  0  0
  191.9050  176.3100  134.4280 C   0  0  0  0  0  1  0  0  0  0  0  0
  190.5980  175.8250  134.5030 O   0  0  0  0  0  0  0  0  0  0  0  0
  190.8550  173.7810  135.7380 C   0  0  0  0  0  2  0  0  0  0  0  0
  192.0260  173.4740  136.6630 C   0  0  0  0  0  2  0  0  0  0  0  0
  192.0000  174.3350  137.7590 O   0  0  0  0  0  1  0  0  0  0  0  0
  1  4  2  0  0  0  0
  3  9  1  0  0  0  0
  3 10  1  0  0  0  0
  4  8  1  0  0  0  0
  5  7  1  0  0  0  0
  6 23  1  0  0  0  0
  6  5  2  0  0  0  0
  9  8  1  6  0  0  0
  9  6  1  0  0  0  0
 10 13  2  0  0  0  0
 11  3  1  0  0  0  0
 12  2  1  1  0  0  0
 12  4  1  0  0  0  0
 12 11  1  0  0  0  0
 13  5  1  0  0  0  0
 14 11  1  0  0  0  0
 15 18  1  0  0  0  0
 16 15  2  0  0  0  0
 17 19  1  0  0  0  0
 19 18  2  0  0  0  0
 19 14  1  0  0  0  0
 20 16  1  0  0  0  0
 20 17  2  0  0  0  0
 21 22  1  0  0  0  0
 21 16  1  0  0  0  0
 24 23  1  0  0  0  0
 25 24  1  0  0  0  0
 25 26  1  0  0  0  0
 27  1  1  0  0  0  0
 28 29  1  1  0  0  0
 28 27  1  0  0  0  0
 30 28  1  0  0  0  0
 31 30  1  6  0  0  0
 32 33  1  0  0  0  0
 34 32  1  0  0  0  0
 34 31  1  1  0  0  0
 34 33  1  0  0  0  0
 35 36  2  0  0  0  0
 35 31  1  0  0  0  0
 37 35  2  0  0  0  0
 38 41  1  6  0  0  0
 38 35  1  0  0  0  0
 39 40  1  0  0  0  0
 40 38  1  0  0  0  0
 41 42  1  0  0  0  0
 42 43  1  0  0  0  0
M  END
>  <MODEL>
9

>  <REMARK>
 VINA RESULT:      -5.5      2.250      6.975
  Name = 
  16 active torsions:
  status: ('A' for Active; 'I' for Inactive)
    1  A    between atoms: C_1  and  N_34
    2  A    between atoms: C_1  and  C_35
    3  A    between atoms: N_2  and  C_6
    4  A    between atoms: N_3  and  C_4
    5  A    between atoms: N_3  and  C_12
    6  A    between atoms: C_4  and  S_14
    7  A    between atoms: C_4  and  C_42
    8  A    between atoms: C_5  and  C_18
    9  A    between atoms: C_6  and  C_12
   10  A    between atoms: C_11  and  S_14
   11  A    between atoms: C_11  and  O_36
   12  A    between atoms: C_11  and  C_40
   13  A    between atoms: C_18  and  C_24
   14  A    between atoms: C_19  and  O_25
   15  A    between atoms: C_21  and  C_24
   16  A    between atoms: C_26  and  C_40
                            x       y       z     vdW  Elec       q    Type
                         _______ _______ _______ _____ _____    ______ ____

>  <TORSDO>
F 16

$$$$
