=
 OpenBabel10272415243D

 34 39  0  0  0  0  0  0  0  0999 V2000
  190.7350  176.6710  138.2670 N   0  0  0  0  0  0  0  0  0  0  0  0
  192.9730  175.7350  135.4330 C   0  0  0  0  0  3  0  0  0  0  0  0
  190.6900  176.5550  135.4880 O   0  0  0  0  0  0  0  0  0  0  0  0
  188.4150  177.5800  139.6020 C   0  0  0  0  0  3  0  0  0  0  0  0
  190.7130  176.7480  139.7030 C   0  0  0  0  0  3  0  0  0  0  0  0
  188.3800  177.5400  138.2690 C   0  0  0  0  0  0  0  0  0  0  0  0
  187.4780  178.4120  136.1280 C   0  0  0  0  0  2  0  0  0  0  0  0
  187.1320  177.9290  137.5360 C   0  0  0  0  0  2  0  0  0  0  0  0
  189.6240  177.1730  140.3650 C   0  0  0  0  0  0  0  0  0  0  0  0
  189.5540  177.0000  136.1790 C   0  0  0  0  0  0  0  0  0  0  0  0
  189.5610  177.0550  137.5270 C   0  0  0  0  0  0  0  0  0  0  0  0
  188.3210  177.3660  135.3960 C   0  0  0  0  0  2  0  0  0  0  0  0
  194.1410  175.3490  136.0990 C   0  0  0  0  0  0  0  0  0  0  0  0
  194.1830  175.4000  137.5000 C   0  0  0  0  0  3  0  0  0  0  0  0
  191.8570  176.1690  136.1560 C   0  0  0  0  0  0  0  0  0  0  0  0
  193.0710  175.8330  138.2280 C   0  0  0  0  0  3  0  0  0  0  0  0
  191.9020  176.2200  137.5580 C   0  0  0  0  0  0  0  0  0  0  0  0
  190.9910  177.6900  143.9390 C   0  0  0  0  0  2  0  0  0  0  0  0
  188.4970  177.4720  142.5170 C   0  0  0  0  0  3  0  0  0  0  0  0
  188.4740  177.7020  146.7870 C   0  0  0  0  0  0  0  0  0  0  0  0
  189.6870  177.6950  146.0860 C   0  0  0  0  0  3  0  0  0  0  0  0
  189.6960  177.6090  144.6910 C   0  0  0  0  0  0  0  0  0  0  0  0
  187.2700  177.5720  144.6790 C   0  0  0  0  0  3  0  0  0  0  0  0
  188.4820  177.5530  143.9850 C   0  0  0  0  0  0  0  0  0  0  0  0
  187.2660  177.6450  146.0750 C   0  0  0  0  0  3  0  0  0  0  0  0
  189.6360  177.2420  141.8450 C   0  0  0  0  0  0  0  0  0  0  0  0
  190.9040  176.9270  142.6130 C   0  0  0  0  0  2  0  0  0  0  0  0
  188.4710  177.7840  148.2560 C   0  0  0  0  0  0  0  0  0  0  0  0
  187.5220  177.2890  148.9210 O   0  0  0  0  0  0  0  0  0  0  0  0
  189.5180  178.4070  148.9250 O   0  0  0  0  0  1  0  0  0  0  0  0
  196.5350  175.5610  135.2090 C   0  0  0  0  0  0  0  0  0  0  0  0
  197.5870  174.9570  134.3500 C   0  0  0  0  0  1  0  0  0  0  0  0
  196.7800  176.6320  135.8240 O   0  0  0  0  0  0  0  0  0  0  0  0
  195.2630  174.9100  135.3200 N   0  0  0  0  0  2  0  0  0  0  0  0
  1  5  1  0  0  0  0
  2 13  2  0  0  0  0
  2 15  1  0  0  0  0
  3 15  1  0  0  0  0
  3 10  1  0  0  0  0
  4  9  1  0  0  0  0
  5  9  2  0  0  0  0
  6  4  2  0  0  0  0
  7  8  1  0  0  0  0
  8  6  1  0  0  0  0
  9 26  1  0  0  0  0
 10 11  2  0  0  0  0
 11  1  1  0  0  0  0
 11  6  1  0  0  0  0
 12  7  1  0  0  0  0
 12 10  1  0  0  0  0
 13 14  1  0  0  0  0
 14 16  2  0  0  0  0
 15 17  2  0  0  0  0
 17 16  1  0  0  0  0
 17  1  1  0  0  0  0
 18 22  1  0  0  0  0
 19 24  1  0  0  0  0
 20 28  1  0  0  0  0
 21 20  1  0  0  0  0
 22 21  2  0  0  0  0
 23 25  1  0  0  0  0
 24 23  2  0  0  0  0
 24 22  1  0  0  0  0
 25 20  2  0  0  0  0
 26 19  2  0  0  0  0
 26 27  1  0  0  0  0
 27 18  1  0  0  0  0
 28 29  2  0  0  0  0
 28 30  1  0  0  0  0
 31 34  1  0  0  0  0
 31 33  2  0  0  0  0
 32 31  1  0  0  0  0
 34 13  1  0  0  0  0
M  END
>  <MODEL>
1

>  <REMARK>
 VINA RESULT:     -10.1      0.000      0.000
  Name = 
  3 active torsions:
  status: ('A' for Active; 'I' for Inactive)
    1  A    between atoms: C_7  and  C_11
    2  A    between atoms: C_18  and  C_30
    3  A    between atoms: C_23  and  N_25
                            x       y       z     vdW  Elec       q    Type
                         _______ _______ _______ _____ _____    ______ ____

>  <TORSDO>
F 3

$$$$
=
 OpenBabel10272415243D

 34 39  0  0  0  0  0  0  0  0999 V2000
  187.8390  177.6890  143.9470 N   0  0  0  0  0  0  0  0  0  0  0  0
  184.4170  178.5160  145.1830 C   0  0  0  0  0  3  0  0  0  0  0  0
  186.4570  177.9140  146.3510 O   0  0  0  0  0  0  0  0  0  0  0  0
  190.5730  176.9810  144.0410 C   0  0  0  0  0  3  0  0  0  0  0  0
  188.5920  177.5620  142.7290 C   0  0  0  0  0  3  0  0  0  0  0  0
  189.9290  177.0950  145.2040 C   0  0  0  0  0  0  0  0  0  0  0  0
  189.9790  177.5760  147.6370 C   0  0  0  0  0  2  0  0  0  0  0  0
  190.6410  176.8120  146.4910 C   0  0  0  0  0  2  0  0  0  0  0  0
  189.8930  177.2240  142.7430 C   0  0  0  0  0  0  0  0  0  0  0  0
  187.8140  177.5630  146.3640 C   0  0  0  0  0  0  0  0  0  0  0  0
  188.4930  177.4440  145.2060 C   0  0  0  0  0  0  0  0  0  0  0  0
  188.4790  177.2760  147.6850 C   0  0  0  0  0  2  0  0  0  0  0  0
  183.7290  178.7650  143.9910 C   0  0  0  0  0  0  0  0  0  0  0  0
  184.4080  178.6560  142.7680 C   0  0  0  0  0  3  0  0  0  0  0  0
  185.7700  178.1630  145.1580 C   0  0  0  0  0  0  0  0  0  0  0  0
  185.7590  178.3030  142.7360 C   0  0  0  0  0  3  0  0  0  0  0  0
  186.4480  178.0550  143.9330 C   0  0  0  0  0  0  0  0  0  0  0  0
  192.9050  176.9820  140.3400 C   0  0  0  0  0  2  0  0  0  0  0  0
  190.0630  176.5310  140.4010 C   0  0  0  0  0  3  0  0  0  0  0  0
  192.1780  176.1370  136.7060 C   0  0  0  0  0  0  0  0  0  0  0  0
  192.8560  176.5200  137.8720 C   0  0  0  0  0  3  0  0  0  0  0  0
  192.1630  176.6590  139.0770 C   0  0  0  0  0  0  0  0  0  0  0  0
  190.1070  175.9990  137.9720 C   0  0  0  0  0  3  0  0  0  0  0  0
  190.7850  176.3920  139.1280 C   0  0  0  0  0  0  0  0  0  0  0  0
  190.8010  175.8740  136.7650 C   0  0  0  0  0  3  0  0  0  0  0  0
  190.6410  177.1040  141.4690 C   0  0  0  0  0  0  0  0  0  0  0  0
  192.0080  177.7400  141.3250 C   0  0  0  0  0  2  0  0  0  0  0  0
  192.9110  176.0010  135.4370 C   0  0  0  0  0  0  0  0  0  0  0  0
  194.0360  176.5480  135.2890 O   0  0  0  0  0  1  0  0  0  0  0  0
  192.3690  175.2660  134.3900 O   0  0  0  0  0  0  0  0  0  0  0  0
  181.3990  179.1120  142.9810 C   0  0  0  0  0  0  0  0  0  0  0  0
  179.9930  179.5200  143.2390 C   0  0  0  0  0  1  0  0  0  0  0  0
  181.7360  178.7620  141.8200 O   0  0  0  0  0  0  0  0  0  0  0  0
  182.3420  179.1240  144.0600 N   0  0  0  0  0  2  0  0  0  0  0  0
  1 11  1  0  0  0  0
  3 10  1  0  0  0  0
  4  6  2  0  0  0  0
  5  9  2  0  0  0  0
  5  1  1  0  0  0  0
  6 11  1  0  0  0  0
  6  8  1  0  0  0  0
  7 12  1  0  0  0  0
  8  7  1  0  0  0  0
  9  4  1  0  0  0  0
 10 12  1  0  0  0  0
 11 10  2  0  0  0  0
 13 34  1  0  0  0  0
 13  2  2  0  0  0  0
 14 13  1  0  0  0  0
 15  2  1  0  0  0  0
 15  3  1  0  0  0  0
 16 14  2  0  0  0  0
 16 17  1  0  0  0  0
 17  1  1  0  0  0  0
 17 15  2  0  0  0  0
 18 27  1  0  0  0  0
 19 26  2  0  0  0  0
 20 25  2  0  0  0  0
 20 21  1  0  0  0  0
 21 22  2  0  0  0  0
 22 24  1  0  0  0  0
 22 18  1  0  0  0  0
 23 24  2  0  0  0  0
 24 19  1  0  0  0  0
 25 23  1  0  0  0  0
 26  9  1  0  0  0  0
 27 26  1  0  0  0  0
 28 20  1  0  0  0  0
 29 28  1  0  0  0  0
 30 28  2  0  0  0  0
 31 32  1  0  0  0  0
 31 34  1  0  0  0  0
 33 31  2  0  0  0  0
M  END
>  <MODEL>
2

>  <REMARK>
 VINA RESULT:     -10.0      3.565     10.754
  Name = 
  3 active torsions:
  status: ('A' for Active; 'I' for Inactive)
    1  A    between atoms: C_7  and  C_11
    2  A    between atoms: C_18  and  C_30
    3  A    between atoms: C_23  and  N_25
                            x       y       z     vdW  Elec       q    Type
                         _______ _______ _______ _____ _____    ______ ____

>  <TORSDO>
F 3

$$$$
=
 OpenBabel10272415243D

 34 39  0  0  0  0  0  0  0  0999 V2000
  190.2860  176.7940  138.0460 N   0  0  0  0  0  0  0  0  0  0  0  0
  192.9410  175.7810  135.6290 C   0  0  0  0  0  3  0  0  0  0  0  0
  190.6510  176.5140  135.3020 O   0  0  0  0  0  0  0  0  0  0  0  0
  187.7710  177.6900  138.9720 C   0  0  0  0  0  3  0  0  0  0  0  0
  190.0530  176.9540  139.4560 C   0  0  0  0  0  3  0  0  0  0  0  0
  187.9320  177.5710  137.6530 C   0  0  0  0  0  0  0  0  0  0  0  0
  187.3280  178.2810  135.3540 C   0  0  0  0  0  2  0  0  0  0  0  0
  186.7940  177.8690  136.7250 C   0  0  0  0  0  2  0  0  0  0  0  0
  188.8670  177.3750  139.9250 C   0  0  0  0  0  0  0  0  0  0  0  0
  189.4140  176.9550  135.7930 C   0  0  0  0  0  0  0  0  0  0  0  0
  189.2230  177.0890  137.1210 C   0  0  0  0  0  0  0  0  0  0  0  0
  188.2990  177.2270  134.8180 C   0  0  0  0  0  2  0  0  0  0  0  0
  194.0100  175.4790  136.4790 C   0  0  0  0  0  0  0  0  0  0  0  0
  193.8450  175.6130  137.8660 C   0  0  0  0  0  3  0  0  0  0  0  0
  191.7200  176.2130  136.1540 C   0  0  0  0  0  0  0  0  0  0  0  0
  192.6270  176.0450  138.3970 C   0  0  0  0  0  3  0  0  0  0  0  0
  191.5570  176.3470  137.5420 C   0  0  0  0  0  0  0  0  0  0  0  0
  186.9970  177.7070  143.2870 C   0  0  0  0  0  2  0  0  0  0  0  0
  189.6230  177.1600  142.2430 C   0  0  0  0  0  3  0  0  0  0  0  0
  189.0770  177.5660  146.4650 C   0  0  0  0  0  0  0  0  0  0  0  0
  187.9930  177.7350  145.5920 C   0  0  0  0  0  3  0  0  0  0  0  0
  188.1730  177.6130  144.2120 C   0  0  0  0  0  0  0  0  0  0  0  0
  190.5210  177.1150  144.5620 C   0  0  0  0  0  3  0  0  0  0  0  0
  189.4410  177.2970  143.6960 C   0  0  0  0  0  0  0  0  0  0  0  0
  190.3400  177.2520  145.9420 C   0  0  0  0  0  3  0  0  0  0  0  0
  188.6600  177.5310  141.3850 C   0  0  0  0  0  0  0  0  0  0  0  0
  187.4210  178.2270  141.9090 C   0  0  0  0  0  2  0  0  0  0  0  0
  188.8830  177.7050  147.9170 C   0  0  0  0  0  0  0  0  0  0  0  0
  189.6940  178.3790  148.6070 O   0  0  0  0  0  1  0  0  0  0  0  0
  187.8020  177.0950  148.5410 O   0  0  0  0  0  0  0  0  0  0  0  0
  196.3180  175.8690  135.4340 C   0  0  0  0  0  0  0  0  0  0  0  0
  197.5320  175.2330  134.8590 C   0  0  0  0  0  1  0  0  0  0  0  0
  196.2520  177.1240  135.5020 O   0  0  0  0  0  0  0  0  0  0  0  0
  195.2460  175.0390  135.9000 N   0  0  0  0  0  2  0  0  0  0  0  0
  1  5  1  0  0  0  0
  2 15  2  0  0  0  0
  2 13  1  0  0  0  0
  3 10  1  0  0  0  0
  3 15  1  0  0  0  0
  4  9  1  0  0  0  0
  5  9  2  0  0  0  0
  6  4  2  0  0  0  0
  7  8  1  0  0  0  0
  8  6  1  0  0  0  0
  9 26  1  0  0  0  0
 10 11  2  0  0  0  0
 11  6  1  0  0  0  0
 11  1  1  0  0  0  0
 12  7  1  0  0  0  0
 12 10  1  0  0  0  0
 13 14  2  0  0  0  0
 14 16  1  0  0  0  0
 15 17  1  0  0  0  0
 17  1  1  0  0  0  0
 17 16  2  0  0  0  0
 18 22  1  0  0  0  0
 19 24  1  0  0  0  0
 20 28  1  0  0  0  0
 21 20  2  0  0  0  0
 22 21  1  0  0  0  0
 23 25  2  0  0  0  0
 24 22  2  0  0  0  0
 24 23  1  0  0  0  0
 25 20  1  0  0  0  0
 26 27  1  0  0  0  0
 26 19  2  0  0  0  0
 27 18  1  0  0  0  0
 28 30  2  0  0  0  0
 28 29  1  0  0  0  0
 31 33  2  0  0  0  0
 31 34  1  0  0  0  0
 32 31  1  0  0  0  0
 34 13  1  0  0  0  0
M  END
>  <MODEL>
3

>  <REMARK>
 VINA RESULT:      -9.9      0.718      1.532
  Name = 
  3 active torsions:
  status: ('A' for Active; 'I' for Inactive)
    1  A    between atoms: C_7  and  C_11
    2  A    between atoms: C_18  and  C_30
    3  A    between atoms: C_23  and  N_25
                            x       y       z     vdW  Elec       q    Type
                         _______ _______ _______ _____ _____    ______ ____

>  <TORSDO>
F 3

$$$$
=
 OpenBabel10272415243D

 34 39  0  0  0  0  0  0  0  0999 V2000
  185.3650  178.3780  142.1890 N   0  0  0  0  0  0  0  0  0  0  0  0
  184.8280  178.5670  138.5020 C   0  0  0  0  0  3  0  0  0  0  0  0
  183.2890  178.7310  140.3700 O   0  0  0  0  0  0  0  0  0  0  0  0
  184.7410  178.3980  144.9450 C   0  0  0  0  0  3  0  0  0  0  0  0
  186.4070  178.1990  143.1640 C   0  0  0  0  0  3  0  0  0  0  0  0
  183.7360  178.5790  144.0880 C   0  0  0  0  0  0  0  0  0  0  0  0
  181.5020  179.5340  143.5850 C   0  0  0  0  0  2  0  0  0  0  0  0
  182.3350  178.7440  144.5930 C   0  0  0  0  0  2  0  0  0  0  0  0
  186.1400  178.2010  144.4810 C   0  0  0  0  0  0  0  0  0  0  0  0
  183.0120  178.7350  141.7450 C   0  0  0  0  0  0  0  0  0  0  0  0
  184.0090  178.5580  142.6360 C   0  0  0  0  0  0  0  0  0  0  0  0
  181.5850  178.8900  142.1990 C   0  0  0  0  0  2  0  0  0  0  0  0
  186.1260  178.3950  138.0090 C   0  0  0  0  0  0  0  0  0  0  0  0
  187.1870  178.2150  138.9100 C   0  0  0  0  0  3  0  0  0  0  0  0
  184.5890  178.5590  139.8790 C   0  0  0  0  0  0  0  0  0  0  0  0
  186.9530  178.2060  140.2880 C   0  0  0  0  0  3  0  0  0  0  0  0
  185.6510  178.3790  140.7790 C   0  0  0  0  0  0  0  0  0  0  0  0
  187.8880  177.7430  147.8930 C   0  0  0  0  0  2  0  0  0  0  0  0
  188.3960  177.4620  145.0740 C   0  0  0  0  0  3  0  0  0  0  0  0
  191.5910  176.8860  147.8570 C   0  0  0  0  0  0  0  0  0  0  0  0
  190.3140  177.2450  148.3110 C   0  0  0  0  0  3  0  0  0  0  0  0
  189.2730  177.4450  147.4010 C   0  0  0  0  0  0  0  0  0  0  0  0
  190.7660  176.8900  145.5710 C   0  0  0  0  0  3  0  0  0  0  0  0
  189.4990  177.2610  146.0260 C   0  0  0  0  0  0  0  0  0  0  0  0
  191.8090  176.7050  146.4830 C   0  0  0  0  0  3  0  0  0  0  0  0
  187.2370  178.0170  145.4600 C   0  0  0  0  0  0  0  0  0  0  0  0
  187.1060  178.5680  146.8650 C   0  0  0  0  0  2  0  0  0  0  0  0
  192.6860  176.6860  148.8200 C   0  0  0  0  0  0  0  0  0  0  0  0
  193.2350  175.5580  148.9370 O   0  0  0  0  0  0  0  0  0  0  0  0
  193.1260  177.7420  149.6100 O   0  0  0  0  0  1  0  0  0  0  0  0
  187.0490  177.4380  135.8180 C   0  0  0  0  0  0  0  0  0  0  0  0
  187.1590  177.6160  134.3460 C   0  0  0  0  0  1  0  0  0  0  0  0
  187.5880  176.4380  136.3600 O   0  0  0  0  0  0  0  0  0  0  0  0
  186.3300  178.4090  136.5890 N   0  0  0  0  0  2  0  0  0  0  0  0
  1 11  1  0  0  0  0
  1  5  1  0  0  0  0
  2 15  1  0  0  0  0
  3 10  1  0  0  0  0
  5  9  2  0  0  0  0
  6  8  1  0  0  0  0
  6  4  2  0  0  0  0
  7  8  1  0  0  0  0
  9  4  1  0  0  0  0
  9 26  1  0  0  0  0
 10 12  1  0  0  0  0
 10 11  2  0  0  0  0
 11  6  1  0  0  0  0
 12  7  1  0  0  0  0
 13  2  2  0  0  0  0
 13 14  1  0  0  0  0
 14 16  2  0  0  0  0
 15  3  1  0  0  0  0
 15 17  2  0  0  0  0
 16 17  1  0  0  0  0
 17  1  1  0  0  0  0
 19 26  2  0  0  0  0
 19 24  1  0  0  0  0
 20 21  1  0  0  0  0
 20 28  1  0  0  0  0
 22 18  1  0  0  0  0
 22 21  2  0  0  0  0
 23 24  2  0  0  0  0
 23 25  1  0  0  0  0
 24 22  1  0  0  0  0
 25 20  2  0  0  0  0
 26 27  1  0  0  0  0
 27 18  1  0  0  0  0
 28 29  2  0  0  0  0
 28 30  1  0  0  0  0
 31 33  2  0  0  0  0
 31 34  1  0  0  0  0
 32 31  1  0  0  0  0
 34 13  1  0  0  0  0
M  END
>  <MODEL>
4

>  <REMARK>
 VINA RESULT:      -9.4      4.837      7.052
  Name = 
  3 active torsions:
  status: ('A' for Active; 'I' for Inactive)
    1  A    between atoms: C_7  and  C_11
    2  A    between atoms: C_18  and  C_30
    3  A    between atoms: C_23  and  N_25
                            x       y       z     vdW  Elec       q    Type
                         _______ _______ _______ _____ _____    ______ ____

>  <TORSDO>
F 3

$$$$
=
 OpenBabel10272415243D

 34 39  0  0  0  0  0  0  0  0999 V2000
  188.5680  177.0200  138.0630 N   0  0  0  0  0  0  0  0  0  0  0  0
  186.1370  177.0220  135.2330 C   0  0  0  0  0  3  0  0  0  0  0  0
  188.5420  176.7100  135.2980 O   0  0  0  0  0  0  0  0  0  0  0  0
  191.0480  176.8280  139.4040 C   0  0  0  0  0  3  0  0  0  0  0  0
  188.6280  177.1740  139.4920 C   0  0  0  0  0  3  0  0  0  0  0  0
  191.0530  176.6660  138.0800 C   0  0  0  0  0  0  0  0  0  0  0  0
  192.0830  175.6770  136.0510 C   0  0  0  0  0  2  0  0  0  0  0  0
  192.3420  176.4340  137.3530 C   0  0  0  0  0  2  0  0  0  0  0  0
  189.7930  177.0900  140.1550 C   0  0  0  0  0  0  0  0  0  0  0  0
  189.7580  176.6210  135.9920 C   0  0  0  0  0  0  0  0  0  0  0  0
  189.7840  176.7760  137.3320 C   0  0  0  0  0  0  0  0  0  0  0  0
  191.0270  176.3990  135.2130 C   0  0  0  0  0  2  0  0  0  0  0  0
  184.9250  177.2580  135.8890 C   0  0  0  0  0  0  0  0  0  0  0  0
  184.9170  177.4190  137.2840 C   0  0  0  0  0  3  0  0  0  0  0  0
  187.3300  176.9460  135.9570 C   0  0  0  0  0  0  0  0  0  0  0  0
  186.1060  177.3430  138.0130 C   0  0  0  0  0  3  0  0  0  0  0  0
  187.3210  177.1060  137.3520 C   0  0  0  0  0  0  0  0  0  0  0  0
  191.0910  178.0980  143.6490 C   0  0  0  0  0  2  0  0  0  0  0  0
  188.6710  177.2810  142.3220 C   0  0  0  0  0  3  0  0  0  0  0  0
  188.6840  177.7630  146.5710 C   0  0  0  0  0  0  0  0  0  0  0  0
  189.8580  177.9650  145.8330 C   0  0  0  0  0  3  0  0  0  0  0  0
  189.8580  177.7960  144.4460 C   0  0  0  0  0  0  0  0  0  0  0  0
  187.4930  177.2570  144.5130 C   0  0  0  0  0  3  0  0  0  0  0  0
  188.6690  177.4470  143.7840 C   0  0  0  0  0  0  0  0  0  0  0  0
  187.5010  177.4120  145.9020 C   0  0  0  0  0  3  0  0  0  0  0  0
  189.8200  177.2510  141.6290 C   0  0  0  0  0  0  0  0  0  0  0  0
  191.1400  177.2530  142.3720 C   0  0  0  0  0  2  0  0  0  0  0  0
  188.6930  177.9330  148.0330 C   0  0  0  0  0  0  0  0  0  0  0  0
  187.6750  177.6410  148.7160 O   0  0  0  0  0  1  0  0  0  0  0  0
  189.8270  178.4150  148.6760 O   0  0  0  0  0  0  0  0  0  0  0  0
  182.5620  176.5010  135.2480 C   0  0  0  0  0  0  0  0  0  0  0  0
  181.4010  176.7210  134.3460 C   0  0  0  0  0  1  0  0  0  0  0  0
  182.5040  175.5930  136.1170 O   0  0  0  0  0  0  0  0  0  0  0  0
  183.7230  177.3300  135.1100 N   0  0  0  0  0  2  0  0  0  0  0  0
  1  5  1  0  0  0  0
  2 13  2  0  0  0  0
  2 15  1  0  0  0  0
  3 15  1  0  0  0  0
  3 10  1  0  0  0  0
  4  9  1  0  0  0  0
  5  9  2  0  0  0  0
  6  4  2  0  0  0  0
  7  8  1  0  0  0  0
  8  6  1  0  0  0  0
  9 26  1  0  0  0  0
 10 11  2  0  0  0  0
 11  1  1  0  0  0  0
 11  6  1  0  0  0  0
 12 10  1  0  0  0  0
 12  7  1  0  0  0  0
 13 14  1  0  0  0  0
 14 16  2  0  0  0  0
 15 17  2  0  0  0  0
 17 16  1  0  0  0  0
 17  1  1  0  0  0  0
 18 22  1  0  0  0  0
 19 24  1  0  0  0  0
 20 28  1  0  0  0  0
 21 20  2  0  0  0  0
 22 21  1  0  0  0  0
 23 25  2  0  0  0  0
 24 22  2  0  0  0  0
 24 23  1  0  0  0  0
 25 20  1  0  0  0  0
 26 19  2  0  0  0  0
 26 27  1  0  0  0  0
 27 18  1  0  0  0  0
 28 30  2  0  0  0  0
 28 29  1  0  0  0  0
 31 33  2  0  0  0  0
 32 31  1  0  0  0  0
 34 31  1  0  0  0  0
 34 13  1  0  0  0  0
M  END
>  <MODEL>
5

>  <REMARK>
 VINA RESULT:      -9.1      2.636      6.001
  Name = 
  3 active torsions:
  status: ('A' for Active; 'I' for Inactive)
    1  A    between atoms: C_7  and  C_11
    2  A    between atoms: C_18  and  C_30
    3  A    between atoms: C_23  and  N_25
                            x       y       z     vdW  Elec       q    Type
                         _______ _______ _______ _____ _____    ______ ____

>  <TORSDO>
F 3

$$$$
=
 OpenBabel10272415243D

 34 39  0  0  0  0  0  0  0  0999 V2000
  187.8060  177.6640  143.2040 N   0  0  0  0  0  0  0  0  0  0  0  0
  184.6380  178.7010  144.8780 C   0  0  0  0  0  3  0  0  0  0  0  0
  186.7800  177.9920  145.7690 O   0  0  0  0  0  0  0  0  0  0  0  0
  190.4840  176.7980  142.9400 C   0  0  0  0  0  3  0  0  0  0  0  0
  188.3790  177.4810  141.8980 C   0  0  0  0  0  3  0  0  0  0  0  0
  190.0110  176.9600  144.1770 C   0  0  0  0  0  0  0  0  0  0  0  0
  190.4190  177.4610  146.5720 C   0  0  0  0  0  2  0  0  0  0  0  0
  190.8750  176.6490  145.3610 C   0  0  0  0  0  2  0  0  0  0  0  0
  189.6480  177.0680  141.7410 C   0  0  0  0  0  0  0  0  0  0  0  0
  188.1050  177.5620  145.6050 C   0  0  0  0  0  0  0  0  0  0  0  0
  188.6120  177.3930  144.3670 C   0  0  0  0  0  0  0  0  0  0  0  0
  188.9250  177.2500  146.8280 C   0  0  0  0  0  2  0  0  0  0  0  0
  183.8080  178.9780  143.7860 C   0  0  0  0  0  0  0  0  0  0  0  0
  184.3070  178.8180  142.4840 C   0  0  0  0  0  3  0  0  0  0  0  0
  185.9520  178.2690  144.6760 C   0  0  0  0  0  0  0  0  0  0  0  0
  185.6200  178.3870  142.2760 C   0  0  0  0  0  3  0  0  0  0  0  0
  186.4490  178.1100  143.3730 C   0  0  0  0  0  0  0  0  0  0  0  0
  189.8850  177.2350  137.8910 C   0  0  0  0  0  2  0  0  0  0  0  0
  191.5340  176.7870  140.2070 C   0  0  0  0  0  3  0  0  0  0  0  0
  193.2080  176.2970  136.3030 C   0  0  0  0  0  0  0  0  0  0  0  0
  191.8570  176.6370  136.4560 C   0  0  0  0  0  3  0  0  0  0  0  0
  191.3060  176.7860  137.7310 C   0  0  0  0  0  0  0  0  0  0  0  0
  193.4660  176.2920  138.7200 C   0  0  0  0  0  3  0  0  0  0  0  0
  192.1160  176.6190  138.8670 C   0  0  0  0  0  0  0  0  0  0  0  0
  194.0090  176.1300  137.4430 C   0  0  0  0  0  3  0  0  0  0  0  0
  190.2070  176.8920  140.3800 C   0  0  0  0  0  0  0  0  0  0  0  0
  189.2830  176.7000  139.1950 C   0  0  0  0  0  2  0  0  0  0  0  0
  193.7800  176.1320  134.9570 C   0  0  0  0  0  0  0  0  0  0  0  0
  194.2690  177.1200  134.3460 O   0  0  0  0  0  0  0  0  0  0  0  0
  193.7860  174.8840  134.3460 O   0  0  0  0  0  1  0  0  0  0  0  0
  181.3140  179.1590  143.2240 C   0  0  0  0  0  0  0  0  0  0  0  0
  179.9940  179.7000  143.6420 C   0  0  0  0  0  1  0  0  0  0  0  0
  181.3970  178.4820  142.1660 O   0  0  0  0  0  0  0  0  0  0  0  0
  182.4660  179.4190  144.0360 N   0  0  0  0  0  2  0  0  0  0  0  0
  1 17  1  0  0  0  0
  1 11  1  0  0  0  0
  4  6  2  0  0  0  0
  5  1  1  0  0  0  0
  6 11  1  0  0  0  0
  6  8  1  0  0  0  0
  7 12  1  0  0  0  0
  8  7  1  0  0  0  0
  9  5  2  0  0  0  0
  9  4  1  0  0  0  0
 10  3  1  0  0  0  0
 10 12  1  0  0  0  0
 11 10  2  0  0  0  0
 13 34  1  0  0  0  0
 13  2  2  0  0  0  0
 14 13  1  0  0  0  0
 15  2  1  0  0  0  0
 15  3  1  0  0  0  0
 16 14  2  0  0  0  0
 16 17  1  0  0  0  0
 17 15  2  0  0  0  0
 18 27  1  0  0  0  0
 19 26  2  0  0  0  0
 20 21  2  0  0  0  0
 20 25  1  0  0  0  0
 21 22  1  0  0  0  0
 22 18  1  0  0  0  0
 22 24  2  0  0  0  0
 23 24  1  0  0  0  0
 24 19  1  0  0  0  0
 25 23  2  0  0  0  0
 26  9  1  0  0  0  0
 27 26  1  0  0  0  0
 28 20  1  0  0  0  0
 29 28  2  0  0  0  0
 30 28  1  0  0  0  0
 31 32  1  0  0  0  0
 31 34  1  0  0  0  0
 33 31  2  0  0  0  0
M  END
>  <MODEL>
6

>  <REMARK>
 VINA RESULT:      -8.9      3.549     10.841
  Name = 
  3 active torsions:
  status: ('A' for Active; 'I' for Inactive)
    1  A    between atoms: C_7  and  C_11
    2  A    between atoms: C_18  and  C_30
    3  A    between atoms: C_23  and  N_25
                            x       y       z     vdW  Elec       q    Type
                         _______ _______ _______ _____ _____    ______ ____

>  <TORSDO>
F 3

$$$$
=
 OpenBabel10272415243D

 34 39  0  0  0  0  0  0  0  0999 V2000
  186.8550  178.0160  141.8260 N   0  0  0  0  0  0  0  0  0  0  0  0
  183.2420  178.9390  141.7090 C   0  0  0  0  0  3  0  0  0  0  0  0
  184.7050  178.3670  143.5580 O   0  0  0  0  0  0  0  0  0  0  0  0
  189.3500  177.2800  142.9300 C   0  0  0  0  0  3  0  0  0  0  0  0
  187.9930  177.8240  140.9690 C   0  0  0  0  0  3  0  0  0  0  0  0
  188.3330  177.4540  143.7760 C   0  0  0  0  0  0  0  0  0  0  0  0
  187.5160  178.0450  146.0420 C   0  0  0  0  0  2  0  0  0  0  0  0
  188.5250  177.2220  145.2430 C   0  0  0  0  0  2  0  0  0  0  0  0
  189.1910  177.4720  141.4650 C   0  0  0  0  0  0  0  0  0  0  0  0
  185.9560  178.0000  144.0740 C   0  0  0  0  0  0  0  0  0  0  0  0
  187.0040  177.8210  143.2450 C   0  0  0  0  0  0  0  0  0  0  0  0
  186.0920  177.7660  145.5560 C   0  0  0  0  0  2  0  0  0  0  0  0
  183.0370  179.1420  140.3400 C   0  0  0  0  0  0  0  0  0  0  0  0
  184.1090  178.9690  139.4500 C   0  0  0  0  0  3  0  0  0  0  0  0
  184.5020  178.5690  142.1880 C   0  0  0  0  0  0  0  0  0  0  0  0
  185.3700  178.5990  139.9230 C   0  0  0  0  0  3  0  0  0  0  0  0
  185.5730  178.3970  141.2960 C   0  0  0  0  0  0  0  0  0  0  0  0
  192.8490  176.9670  140.3350 C   0  0  0  0  0  2  0  0  0  0  0  0
  190.1580  176.7600  139.3320 C   0  0  0  0  0  3  0  0  0  0  0  0
  193.4500  176.1770  136.6670 C   0  0  0  0  0  0  0  0  0  0  0  0
  193.6780  176.5030  138.0100 C   0  0  0  0  0  3  0  0  0  0  0  0
  192.6030  176.7050  138.8790 C   0  0  0  0  0  0  0  0  0  0  0  0
  191.0550  176.2190  137.0760 C   0  0  0  0  0  3  0  0  0  0  0  0
  191.2860  176.5560  138.4110 C   0  0  0  0  0  0  0  0  0  0  0  0
  192.1330  176.0320  136.2060 C   0  0  0  0  0  3  0  0  0  0  0  0
  190.3450  177.2840  140.5530 C   0  0  0  0  0  0  0  0  0  0  0  0
  191.7150  177.8010  140.9420 C   0  0  0  0  0  2  0  0  0  0  0  0
  194.5870  175.9750  135.7540 C   0  0  0  0  0  0  0  0  0  0  0  0
  194.3940  175.8160  134.5190 O   0  0  0  0  0  0  0  0  0  0  0  0
  195.8870  175.9590  136.2460 O   0  0  0  0  0  1  0  0  0  0  0  0
  181.4020  180.6400  139.0560 C   0  0  0  0  0  0  0  0  0  0  0  0
  179.9820  180.8810  138.6870 C   0  0  0  0  0  1  0  0  0  0  0  0
  182.2900  181.4230  138.6300 O   0  0  0  0  0  0  0  0  0  0  0  0
  181.7290  179.5210  139.8890 N   0  0  0  0  0  2  0  0  0  0  0  0
  1 11  1  0  0  0  0
  2 15  1  0  0  0  0
  3 10  1  0  0  0  0
  4  6  2  0  0  0  0
  5  9  2  0  0  0  0
  5  1  1  0  0  0  0
  6  8  1  0  0  0  0
  8  7  1  0  0  0  0
  9  4  1  0  0  0  0
 10 12  1  0  0  0  0
 11  6  1  0  0  0  0
 11 10  2  0  0  0  0
 12  7  1  0  0  0  0
 13  2  2  0  0  0  0
 14 16  2  0  0  0  0
 14 13  1  0  0  0  0
 15  3  1  0  0  0  0
 16 17  1  0  0  0  0
 17  1  1  0  0  0  0
 17 15  2  0  0  0  0
 18 27  1  0  0  0  0
 19 26  2  0  0  0  0
 20 21  1  0  0  0  0
 21 22  2  0  0  0  0
 22 18  1  0  0  0  0
 23 24  2  0  0  0  0
 24 22  1  0  0  0  0
 24 19  1  0  0  0  0
 25 20  2  0  0  0  0
 25 23  1  0  0  0  0
 26 27  1  0  0  0  0
 26  9  1  0  0  0  0
 28 30  1  0  0  0  0
 28 20  1  0  0  0  0
 29 28  2  0  0  0  0
 31 34  1  0  0  0  0
 32 31  1  0  0  0  0
 33 31  2  0  0  0  0
 34 13  1  0  0  0  0
M  END
>  <MODEL>
7

>  <REMARK>
 VINA RESULT:      -8.5      3.859     10.154
  Name = 
  3 active torsions:
  status: ('A' for Active; 'I' for Inactive)
    1  A    between atoms: C_7  and  C_11
    2  A    between atoms: C_18  and  C_30
    3  A    between atoms: C_23  and  N_25
                            x       y       z     vdW  Elec       q    Type
                         _______ _______ _______ _____ _____    ______ ____

>  <TORSDO>
F 3

$$$$
=
 OpenBabel10272415243D

 34 39  0  0  0  0  0  0  0  0999 V2000
  187.3270  178.1090  140.0440 N   0  0  0  0  0  0  0  0  0  0  0  0
  184.1100  179.0020  138.3790 C   0  0  0  0  0  3  0  0  0  0  0  0
  186.2670  178.3440  137.4830 O   0  0  0  0  0  0  0  0  0  0  0  0
  190.0260  177.3120  140.3020 C   0  0  0  0  0  3  0  0  0  0  0  0
  187.9170  177.9750  141.3490 C   0  0  0  0  0  3  0  0  0  0  0  0
  189.5310  177.4090  139.0670 C   0  0  0  0  0  0  0  0  0  0  0  0
  189.5560  176.6930  136.6930 C   0  0  0  0  0  2  0  0  0  0  0  0
  190.4060  177.1400  137.8810 C   0  0  0  0  0  2  0  0  0  0  0  0
  189.1980  177.6000  141.5020 C   0  0  0  0  0  0  0  0  0  0  0  0
  187.6030  177.9510  137.6440 C   0  0  0  0  0  0  0  0  0  0  0  0
  188.1310  177.8400  138.8800 C   0  0  0  0  0  0  0  0  0  0  0  0
  188.4430  177.7060  136.4180 C   0  0  0  0  0  2  0  0  0  0  0  0
  183.2830  179.2760  139.4730 C   0  0  0  0  0  0  0  0  0  0  0  0
  183.7990  179.1650  140.7730 C   0  0  0  0  0  3  0  0  0  0  0  0
  185.4400  178.6180  138.5780 C   0  0  0  0  0  0  0  0  0  0  0  0
  185.1270  178.7820  140.9780 C   0  0  0  0  0  3  0  0  0  0  0  0
  185.9550  178.5060  139.8790 C   0  0  0  0  0  0  0  0  0  0  0  0
  189.6330  178.1360  145.3010 C   0  0  0  0  0  2  0  0  0  0  0  0
  190.4870  176.3790  143.1870 C   0  0  0  0  0  3  0  0  0  0  0  0
  192.1560  175.9350  147.0990 C   0  0  0  0  0  0  0  0  0  0  0  0
  191.2280  176.9520  146.8380 C   0  0  0  0  0  3  0  0  0  0  0  0
  190.6910  177.1040  145.5570 C   0  0  0  0  0  0  0  0  0  0  0  0
  191.9790  175.1970  144.7890 C   0  0  0  0  0  3  0  0  0  0  0  0
  191.0640  176.2200  144.5310 C   0  0  0  0  0  0  0  0  0  0  0  0
  192.5250  175.0570  146.0680 C   0  0  0  0  0  3  0  0  0  0  0  0
  189.7750  177.4680  142.8620 C   0  0  0  0  0  0  0  0  0  0  0  0
  189.6740  178.6160  143.8460 C   0  0  0  0  0  2  0  0  0  0  0  0
  192.7260  175.7850  148.4480 C   0  0  0  0  0  0  0  0  0  0  0  0
  192.7720  174.6530  148.9990 O   0  0  0  0  0  0  0  0  0  0  0  0
  193.2210  176.8920  149.1260 O   0  0  0  0  0  1  0  0  0  0  0  0
  181.4720  180.9410  138.7510 C   0  0  0  0  0  0  0  0  0  0  0  0
  180.0170  181.1680  138.5530 C   0  0  0  0  0  1  0  0  0  0  0  0
  182.2820  181.8710  138.4970 O   0  0  0  0  0  0  0  0  0  0  0  0
  181.9240  179.6670  139.2270 N   0  0  0  0  0  2  0  0  0  0  0  0
  1  5  1  0  0  0  0
  2 15  2  0  0  0  0
  2 13  1  0  0  0  0
  3 10  1  0  0  0  0
  3 15  1  0  0  0  0
  4  9  1  0  0  0  0
  5  9  2  0  0  0  0
  6  4  2  0  0  0  0
  7  8  1  0  0  0  0
  8  6  1  0  0  0  0
  9 26  1  0  0  0  0
 10 11  2  0  0  0  0
 11  6  1  0  0  0  0
 11  1  1  0  0  0  0
 12  7  1  0  0  0  0
 12 10  1  0  0  0  0
 13 14  2  0  0  0  0
 14 16  1  0  0  0  0
 15 17  1  0  0  0  0
 17  1  1  0  0  0  0
 17 16  2  0  0  0  0
 18 22  1  0  0  0  0
 19 24  1  0  0  0  0
 20 28  1  0  0  0  0
 21 20  1  0  0  0  0
 22 21  2  0  0  0  0
 23 25  1  0  0  0  0
 24 23  2  0  0  0  0
 24 22  1  0  0  0  0
 25 20  2  0  0  0  0
 26 19  2  0  0  0  0
 26 27  1  0  0  0  0
 27 18  1  0  0  0  0
 28 29  2  0  0  0  0
 28 30  1  0  0  0  0
 31 34  1  0  0  0  0
 32 31  1  0  0  0  0
 33 31  2  0  0  0  0
 34 13  1  0  0  0  0
M  END
>  <MODEL>
8

>  <REMARK>
 VINA RESULT:      -8.5      3.964      7.523
  Name = 
  3 active torsions:
  status: ('A' for Active; 'I' for Inactive)
    1  A    between atoms: C_7  and  C_11
    2  A    between atoms: C_18  and  C_30
    3  A    between atoms: C_23  and  N_25
                            x       y       z     vdW  Elec       q    Type
                         _______ _______ _______ _____ _____    ______ ____

>  <TORSDO>
F 3

$$$$
=
 OpenBabel10272415243D

 34 39  0  0  0  0  0  0  0  0999 V2000
  190.0130  177.1370  139.3040 N   0  0  0  0  0  0  0  0  0  0  0  0
  188.2090  178.0870  142.4290 C   0  0  0  0  0  3  0  0  0  0  0  0
  187.5560  178.1770  140.0940 O   0  0  0  0  0  0  0  0  0  0  0  0
  190.4680  176.7390  136.5440 C   0  0  0  0  0  3  0  0  0  0  0  0
  191.2690  176.6020  138.8510 C   0  0  0  0  0  3  0  0  0  0  0  0
  189.2800  177.2280  136.9050 C   0  0  0  0  0  0  0  0  0  0  0  0
  186.8560  177.5030  136.4570 C   0  0  0  0  0  2  0  0  0  0  0  0
  188.2620  177.5820  135.8640 C   0  0  0  0  0  2  0  0  0  0  0  0
  191.5140  176.4050  137.5450 C   0  0  0  0  0  0  0  0  0  0  0  0
  187.8130  177.9680  138.7310 C   0  0  0  0  0  0  0  0  0  0  0  0
  189.0020  177.4720  138.3350 C   0  0  0  0  0  0  0  0  0  0  0  0
  186.7600  178.3540  137.7250 C   0  0  0  0  0  2  0  0  0  0  0  0
  189.1530  177.7810  143.4150 C   0  0  0  0  0  0  0  0  0  0  0  0
  190.3990  177.2570  143.0370 C   0  0  0  0  0  3  0  0  0  0  0  0
  188.5020  177.8710  141.0790 C   0  0  0  0  0  0  0  0  0  0  0  0
  190.6970  177.0390  141.6890 C   0  0  0  0  0  3  0  0  0  0  0  0
  189.7480  177.3460  140.7020 C   0  0  0  0  0  0  0  0  0  0  0  0
  194.7470  175.9890  135.4760 C   0  0  0  0  0  2  0  0  0  0  0  0
  193.5900  175.1860  137.9860 C   0  0  0  0  0  3  0  0  0  0  0  0
  197.3710  173.5790  136.8000 C   0  0  0  0  0  0  0  0  0  0  0  0
  196.6820  174.4610  135.9570 C   0  0  0  0  0  3  0  0  0  0  0  0
  195.4410  174.9780  136.3390 C   0  0  0  0  0  0  0  0  0  0  0  0
  195.5810  173.7630  138.4340 C   0  0  0  0  0  3  0  0  0  0  0  0
  194.8920  174.6310  137.5850 C   0  0  0  0  0  0  0  0  0  0  0  0
  196.8150  173.2360  138.0420 C   0  0  0  0  0  3  0  0  0  0  0  0
  192.8180  175.8490  137.1110 C   0  0  0  0  0  0  0  0  0  0  0  0
  193.2270  175.9120  135.6540 C   0  0  0  0  0  2  0  0  0  0  0  0
  198.6730  173.0300  136.3880 C   0  0  0  0  0  0  0  0  0  0  0  0
  199.1300  173.2680  135.2380 O   0  0  0  0  0  0  0  0  0  0  0  0
  199.4120  172.2440  137.2640 O   0  0  0  0  0  1  0  0  0  0  0  0
  187.6230  177.5910  145.4620 C   0  0  0  0  0  0  0  0  0  0  0  0
  187.4400  177.9290  146.8980 C   0  0  0  0  0  1  0  0  0  0  0  0
  186.7300  176.9360  144.8640 O   0  0  0  0  0  0  0  0  0  0  0  0
  188.8140  178.0170  144.7880 N   0  0  0  0  0  2  0  0  0  0  0  0
  1 17  1  0  0  0  0
  2 13  1  0  0  0  0
  3 15  1  0  0  0  0
  4  6  2  0  0  0  0
  4  9  1  0  0  0  0
  5  1  1  0  0  0  0
  6 11  1  0  0  0  0
  7 12  1  0  0  0  0
  8  7  1  0  0  0  0
  8  6  1  0  0  0  0
  9  5  2  0  0  0  0
 10  3  1  0  0  0  0
 11 10  2  0  0  0  0
 11  1  1  0  0  0  0
 12 10  1  0  0  0  0
 13 34  1  0  0  0  0
 14 13  2  0  0  0  0
 15  2  2  0  0  0  0
 16 14  1  0  0  0  0
 17 15  1  0  0  0  0
 17 16  2  0  0  0  0
 18 27  1  0  0  0  0
 18 22  1  0  0  0  0
 20 25  1  0  0  0  0
 21 22  1  0  0  0  0
 21 20  2  0  0  0  0
 22 24  2  0  0  0  0
 24 19  1  0  0  0  0
 24 23  1  0  0  0  0
 25 23  2  0  0  0  0
 26  9  1  0  0  0  0
 26 19  2  0  0  0  0
 27 26  1  0  0  0  0
 28 20  1  0  0  0  0
 28 30  1  0  0  0  0
 29 28  2  0  0  0  0
 31 32  1  0  0  0  0
 33 31  2  0  0  0  0
 34 31  1  0  0  0  0
M  END
>  <MODEL>
9

>  <REMARK>
 VINA RESULT:      -8.3      2.425      9.579
  Name = 
  3 active torsions:
  status: ('A' for Active; 'I' for Inactive)
    1  A    between atoms: C_7  and  C_11
    2  A    between atoms: C_18  and  C_30
    3  A    between atoms: C_23  and  N_25
                            x       y       z     vdW  Elec       q    Type
                         _______ _______ _______ _____ _____    ______ ____

>  <TORSDO>
F 3

$$$$
