=
 OpenBabel10272400083D

 34 39  0  0  1  0  0  0  0  0999 V2000
  185.1450  173.6770  136.5550 C   0  0  1  0  0  0  0  0  0  0  0  0
  180.4900  177.5600  137.3870 O   0  0  0  0  0  0  0  0  0  0  0  0
  184.5230  176.0020  136.6130 C   0  0  1  0  0  0  0  0  0  0  0  0
  183.9240  177.1890  135.7660 C   0  0  2  0  0  3  0  0  0  0  0  0
  185.0670  172.1570  136.6450 C   0  0  2  0  0  3  0  0  0  0  0  0
  185.5790  179.1480  139.1120 O   0  0  0  0  0  1  0  0  0  0  0  0
  183.8670  171.6880  136.1130 O   0  0  0  0  0  1  0  0  0  0  0  0
  180.6040  180.2790  136.5690 O   0  0  0  0  0  1  0  0  0  0  0  0
  182.2960  178.4750  138.0040 C   0  0  2  0  0  3  0  0  0  0  0  0
  180.8050  178.5880  138.2990 C   0  0  1  0  0  0  0  0  0  0  0  0
  180.1880  179.9260  137.8550 C   0  0  1  0  0  3  0  0  0  0  0  0
  184.0460  174.6140  136.0820 C   0  0  1  0  0  3  0  0  0  0  0  0
  183.2890  178.7750  140.4240 C   0  0  0  0  0  1  0  0  0  0  0  0
  181.8570  177.2760  137.2180 C   0  0  2  0  0  3  0  0  0  0  0  0
  182.3800  177.3680  135.7940 C   0  0  2  0  0  3  0  0  0  0  0  0
  184.7720  173.0090  137.8650 C   0  0  0  0  0  2  0  0  0  0  0  0
  180.1890  180.6370  140.2440 C   0  0  0  0  0  3  0  0  0  0  0  0
  186.0900  175.8770  136.5120 C   0  0  2  0  0  3  0  0  0  0  0  0
  180.1260  179.3580  140.6460 C   0  0  0  0  0  3  0  0  0  0  0  0
  184.6600  178.4670  138.3100 C   0  0  1  0  0  3  0  0  0  0  0  0
  186.4070  174.4310  136.7010 C   0  0  0  0  0  0  0  0  0  0  0  0
  184.4820  177.0600  138.8430 C   0  0  1  0  0  3  0  0  0  0  0  0
  183.3670  178.1160  139.0510 C   0  0  2  0  0  0  0  0  0  0  0  0
  184.0320  176.0370  137.9590 O   0  0  0  0  0  0  0  0  0  0  0  0
  181.7380  176.4250  134.9920 O   0  0  0  0  0  1  0  0  0  0  0  0
  187.5770  173.9230  136.3090 C   0  0  0  0  0  2  0  0  0  0  0  0
  180.3630  178.1860  139.7210 C   0  0  0  0  0  2  0  0  0  0  0  0
  180.5740  181.0200  138.8430 C   0  0  0  0  0  2  0  0  0  0  0  0
  184.0170  174.5750  134.6790 O   0  0  0  0  0  0  0  0  0  0  0  0
  182.8750  173.8420  134.3470 C   0  0  0  0  0  1  0  0  0  0  0  0
  186.9620  176.7500  137.4050 C   0  0  0  0  0  2  0  0  0  0  0  0
  187.7170  177.6240  136.6250 O   0  0  0  0  0  1  0  0  0  0  0  0
  185.6300  178.0970  134.3480 O   0  0  0  0  0  1  0  0  0  0  0  0
  184.4670  177.3300  134.3460 C   0  0  0  0  0  2  0  0  0  0  0  0
  1  5  1  0  0  0  0
  1 21  1  0  0  0  0
  1 16  1  1  0  0  0
  2 10  1  0  0  0  0
  3 24  1  1  0  0  0
  4 34  1  6  0  0  0
  4 15  1  0  0  0  0
  4  3  1  0  0  0  0
  5  7  1  6  0  0  0
  5 16  1  0  0  0  0
  8 11  1  0  0  0  0
  9 10  1  0  0  0  0
  9 23  1  0  0  0  0
 10 27  1  0  0  0  0
 11 10  1  0  0  0  0
 11 28  1  0  0  0  0
 12  1  1  0  0  0  0
 12  3  1  0  0  0  0
 14  2  1  0  0  0  0
 14  9  1  0  0  0  0
 15 14  1  0  0  0  0
 17 19  2  0  0  0  0
 18  3  1  0  0  0  0
 18 21  1  0  0  0  0
 18 31  1  0  0  0  0
 20 22  1  0  0  0  0
 20 23  1  0  0  0  0
 20  6  1  0  0  0  0
 22 23  1  0  0  0  0
 23 13  1  0  0  0  0
 24 22  1  0  0  0  0
 25 15  1  0  0  0  0
 26 21  2  0  0  0  0
 27 19  1  0  0  0  0
 28 17  1  0  0  0  0
 29 12  1  0  0  0  0
 30 29  1  0  0  0  0
 32 31  1  0  0  0  0
 34 33  1  0  0  0  0
M  END
>  <MODEL>
1

>  <REMARK>
 VINA RESULT:      -4.5      0.000      0.000
  Name = 
  3 active torsions:
  status: ('A' for Active; 'I' for Inactive)
    1  A    between atoms: O_2  and  C_15
    2  A    between atoms: C_5  and  C_31
    3  A    between atoms: C_7  and  C_21
                            x       y       z     vdW  Elec       q    Type
                         _______ _______ _______ _____ _____    ______ ____

>  <TORSDO>
F 3

$$$$
=
 OpenBabel10272400083D

 34 39  0  0  1  0  0  0  0  0999 V2000
  189.1370  177.5270  138.5150 C   0  0  1  0  0  0  0  0  0  0  0  0
  186.6970  172.1140  137.0350 O   0  0  0  0  0  0  0  0  0  0  0  0
  188.0360  176.2890  136.7690 C   0  0  1  0  0  0  0  0  0  0  0  0
  188.2590  175.2770  135.5810 C   0  0  2  0  0  3  0  0  0  0  0  0
  189.7500  177.8920  139.8640 C   0  0  2  0  0  3  0  0  0  0  0  0
  184.3640  176.7290  134.8770 O   0  0  0  0  0  1  0  0  0  0  0  0
  190.4550  176.8140  140.3970 O   0  0  0  0  0  1  0  0  0  0  0  0
  186.1860  171.3530  134.3460 O   0  0  0  0  0  1  0  0  0  0  0  0
  185.7050  173.6540  135.9750 C   0  0  2  0  0  3  0  0  0  0  0  0
  185.4130  172.2420  136.4690 C   0  0  1  0  0  0  0  0  0  0  0  0
  185.2090  171.2220  135.3340 C   0  0  1  0  0  3  0  0  0  0  0  0
  189.1480  176.1570  137.8560 C   0  0  1  0  0  3  0  0  0  0  0  0
  183.3990  174.8240  136.4720 C   0  0  0  0  0  1  0  0  0  0  0  0
  186.9570  173.4730  136.7790 C   0  0  2  0  0  3  0  0  0  0  0  0
  188.1750  173.7620  135.9180 C   0  0  2  0  0  3  0  0  0  0  0  0
  188.2810  177.5280  139.7670 C   0  0  0  0  0  2  0  0  0  0  0  0
  182.7580  171.3290  135.7780 C   0  0  0  0  0  3  0  0  0  0  0  0
  188.1600  177.8010  136.3470 C   0  0  2  0  0  3  0  0  0  0  0  0
  182.9830  171.6800  137.0530 C   0  0  0  0  0  3  0  0  0  0  0  0
  185.4020  175.9430  135.3860 C   0  0  1  0  0  3  0  0  0  0  0  0
  188.6460  178.5330  137.5530 C   0  0  0  0  0  0  0  0  0  0  0  0
  185.5700  176.2380  136.8620 C   0  0  1  0  0  3  0  0  0  0  0  0
  184.9200  174.9070  136.4050 C   0  0  2  0  0  0  0  0  0  0  0  0
  186.8290  175.9840  137.4790 O   0  0  0  0  0  0  0  0  0  0  0  0
  189.3280  173.3140  136.5620 O   0  0  0  0  0  1  0  0  0  0  0  0
  189.2090  179.7390  137.4490 C   0  0  0  0  0  2  0  0  0  0  0  0
  184.3370  172.1160  137.5660 C   0  0  0  0  0  2  0  0  0  0  0  0
  183.8250  171.4080  134.7230 C   0  0  0  0  0  2  0  0  0  0  0  0
  190.4150  175.9610  137.2850 O   0  0  0  0  0  0  0  0  0  0  0  0
  191.0690  175.0550  138.1240 C   0  0  0  0  0  1  0  0  0  0  0  0
  186.9550  178.5000  135.7300 C   0  0  0  0  0  2  0  0  0  0  0  0
  187.1050  178.5750  134.3460 O   0  0  0  0  0  1  0  0  0  0  0  0
  190.1120  174.3890  134.3460 O   0  0  0  0  0  1  0  0  0  0  0  0
  189.4510  175.5720  134.6740 C   0  0  0  0  0  2  0  0  0  0  0  0
  1 16  1  1  0  0  0
  1  5  1  0  0  0  0
  3 24  1  1  0  0  0
  3 12  1  0  0  0  0
  4 34  1  1  0  0  0
  4 15  1  0  0  0  0
  4  3  1  0  0  0  0
  5  7  1  1  0  0  0
  6 20  1  0  0  0  0
  8 11  1  0  0  0  0
  9 23  1  0  0  0  0
  9 10  1  0  0  0  0
  9 14  1  0  0  0  0
 10  2  1  0  0  0  0
 10 27  1  0  0  0  0
 11 10  1  0  0  0  0
 12  1  1  0  0  0  0
 14  2  1  0  0  0  0
 15 25  1  0  0  0  0
 15 14  1  0  0  0  0
 16  5  1  0  0  0  0
 17 19  2  0  0  0  0
 18  3  1  0  0  0  0
 18 21  1  0  0  0  0
 19 27  1  0  0  0  0
 20 23  1  0  0  0  0
 20 22  1  0  0  0  0
 21  1  1  0  0  0  0
 22 24  1  0  0  0  0
 23 13  1  0  0  0  0
 23 22  1  0  0  0  0
 26 21  2  0  0  0  0
 28 11  1  0  0  0  0
 28 17  1  0  0  0  0
 29 12  1  0  0  0  0
 29 30  1  0  0  0  0
 31 18  1  0  0  0  0
 32 31  1  0  0  0  0
 33 34  1  0  0  0  0
M  END
>  <MODEL>
2

>  <REMARK>
 VINA RESULT:      -4.4      3.676      6.847
  Name = 
  3 active torsions:
  status: ('A' for Active; 'I' for Inactive)
    1  A    between atoms: O_2  and  C_15
    2  A    between atoms: C_5  and  C_31
    3  A    between atoms: C_7  and  C_21
                            x       y       z     vdW  Elec       q    Type
                         _______ _______ _______ _____ _____    ______ ____

>  <TORSDO>
F 3

$$$$
=
 OpenBabel10272400083D

 34 39  0  0  1  0  0  0  0  0999 V2000
  184.0820  178.5870  139.6230 C   0  0  1  0  0  0  0  0  0  0  0  0
  185.8400  173.2710  137.1550 O   0  0  0  0  0  0  0  0  0  0  0  0
  184.1050  177.2820  137.6000 C   0  0  1  0  0  0  0  0  0  0  0  0
  184.9650  176.8940  136.3370 C   0  0  2  0  0  3  0  0  0  0  0  0
  184.2750  179.0040  141.0780 C   0  0  2  0  0  3  0  0  0  0  0  0
  181.0930  175.5940  135.2920 O   0  0  0  0  0  1  0  0  0  0  0  0
  185.5030  178.5580  141.5640 O   0  0  0  0  0  1  0  0  0  0  0  0
  186.0130  172.8740  134.3460 O   0  0  0  0  0  1  0  0  0  0  0  0
  184.1020  173.9720  136.1690 C   0  0  2  0  0  3  0  0  0  0  0  0
  184.8010  172.6430  136.4370 C   0  0  1  0  0  0  0  0  0  0  0  0
  185.3430  171.9640  135.1670 C   0  0  1  0  0  3  0  0  0  0  0  0
  185.0060  177.6990  138.8050 C   0  0  1  0  0  3  0  0  0  0  0  0
  181.5860  173.2640  136.4880 C   0  0  0  0  0  1  0  0  0  0  0  0
  185.1460  174.4950  137.1090 C   0  0  2  0  0  3  0  0  0  0  0  0
  185.8920  175.6520  136.4660 C   0  0  2  0  0  3  0  0  0  0  0  0
  183.4100  177.8050  140.7350 C   0  0  0  0  0  2  0  0  0  0  0  0
  183.4180  170.3840  135.2790 C   0  0  0  0  0  3  0  0  0  0  0  0
  183.2130  178.5630  137.3920 C   0  0  2  0  0  3  0  0  0  0  0  0
  183.3290  170.5540  136.6070 C   0  0  0  0  0  3  0  0  0  0  0  0
  182.3800  175.5850  135.8360 C   0  0  1  0  0  3  0  0  0  0  0  0
  183.0710  179.1960  138.7360 C   0  0  0  0  0  0  0  0  0  0  0  0
  182.2810  175.6390  137.3460 C   0  0  1  0  0  3  0  0  0  0  0  0
  182.6780  174.3170  136.6410 C   0  0  2  0  0  0  0  0  0  0  0  0
  183.3820  176.1470  138.0940 O   0  0  0  0  0  0  0  0  0  0  0  0
  187.0400  175.9430  137.2020 O   0  0  0  0  0  1  0  0  0  0  0  0
  182.7040  180.4730  138.8630 C   0  0  0  0  0  2  0  0  0  0  0  0
  184.0500  171.6550  137.3520 C   0  0  0  0  0  2  0  0  0  0  0  0
  184.1920  171.3250  134.3990 C   0  0  0  0  0  2  0  0  0  0  0  0
  186.1010  178.4750  138.3940 O   0  0  0  0  0  0  0  0  0  0  0  0
  187.1820  178.0370  139.1630 C   0  0  0  0  0  1  0  0  0  0  0  0
  181.8590  178.4200  136.7090 C   0  0  0  0  0  2  0  0  0  0  0  0
  181.9460  178.8520  135.3860 O   0  0  0  0  0  1  0  0  0  0  0  0
  186.0370  177.6890  134.3460 O   0  0  0  0  0  1  0  0  0  0  0  0
  185.6880  178.0480  135.6470 C   0  0  0  0  0  2  0  0  0  0  0  0
  1 16  1  1  0  0  0
  1  5  1  0  0  0  0
  3 24  1  1  0  0  0
  3 12  1  0  0  0  0
  4 34  1  1  0  0  0
  4 15  1  0  0  0  0
  4  3  1  0  0  0  0
  5  7  1  1  0  0  0
  6 20  1  0  0  0  0
  8 11  1  0  0  0  0
  9 10  1  0  0  0  0
  9 23  1  0  0  0  0
  9 14  1  0  0  0  0
 10  2  1  0  0  0  0
 10 27  1  0  0  0  0
 11 10  1  0  0  0  0
 12  1  1  0  0  0  0
 13 23  1  0  0  0  0
 14  2  1  0  0  0  0
 15 14  1  0  0  0  0
 15 25  1  0  0  0  0
 16  5  1  0  0  0  0
 17 19  2  0  0  0  0
 18  3  1  0  0  0  0
 18 21  1  0  0  0  0
 19 27  1  0  0  0  0
 20 23  1  0  0  0  0
 20 22  1  0  0  0  0
 21 26  2  0  0  0  0
 21  1  1  0  0  0  0
 22 24  1  0  0  0  0
 23 22  1  0  0  0  0
 28 11  1  0  0  0  0
 28 17  1  0  0  0  0
 29 12  1  0  0  0  0
 29 30  1  0  0  0  0
 31 18  1  0  0  0  0
 32 31  1  0  0  0  0
 33 34  1  0  0  0  0
M  END
>  <MODEL>
3

>  <REMARK>
 VINA RESULT:      -4.3      1.820      6.615
  Name = 
  3 active torsions:
  status: ('A' for Active; 'I' for Inactive)
    1  A    between atoms: O_2  and  C_15
    2  A    between atoms: C_5  and  C_31
    3  A    between atoms: C_7  and  C_21
                            x       y       z     vdW  Elec       q    Type
                         _______ _______ _______ _____ _____    ______ ____

>  <TORSDO>
F 3

$$$$
=
 OpenBabel10272400083D

 34 39  0  0  1  0  0  0  0  0999 V2000
  181.2580  180.7350  138.5520 C   0  0  1  0  0  0  0  0  0  0  0  0
  186.0340  177.6750  136.2580 O   0  0  0  0  0  0  0  0  0  0  0  0
  182.7190  178.8510  138.8880 C   0  0  1  0  0  0  0  0  0  0  0  0
  182.9700  177.3420  138.5070 C   0  0  2  0  0  3  0  0  0  0  0  0
  180.6370  181.9960  137.9600 C   0  0  2  0  0  3  0  0  0  0  0  0
  185.4990  177.9210  141.8300 O   0  0  0  0  0  1  0  0  0  0  0  0
  180.6280  181.9390  136.5670 O   0  0  0  0  0  1  0  0  0  0  0  0
  186.6820  175.0280  137.0620 O   0  0  0  0  0  1  0  0  0  0  0  0
  186.0150  177.4850  138.3660 C   0  0  2  0  0  3  0  0  0  0  0  0
  187.0270  177.4250  137.2270 C   0  0  1  0  0  0  0  0  0  0  0  0
  187.6510  176.0330  137.0290 C   0  0  1  0  0  3  0  0  0  0  0  0
  181.9100  179.5990  137.7810 C   0  0  1  0  0  3  0  0  0  0  0  0
  187.4140  178.7760  140.1850 C   0  0  0  0  0  1  0  0  0  0  0  0
  185.0940  177.9340  137.2720 C   0  0  2  0  0  3  0  0  0  0  0  0
  183.8470  177.0660  137.2530 C   0  0  2  0  0  3  0  0  0  0  0  0
  182.0730  182.0090  138.4480 C   0  0  0  0  0  2  0  0  0  0  0  0
  189.7180  176.8820  138.1330 C   0  0  0  0  0  3  0  0  0  0  0  0
  181.8040  179.0420  140.1550 C   0  0  2  0  0  3  0  0  0  0  0  0
  189.4310  178.1370  137.7530 C   0  0  0  0  0  3  0  0  0  0  0  0
  185.0530  177.9010  140.5060 C   0  0  1  0  0  3  0  0  0  0  0  0
  181.0920  180.3410  139.9650 C   0  0  0  0  0  0  0  0  0  0  0  0
  184.8570  179.3240  140.0260 C   0  0  1  0  0  3  0  0  0  0  0  0
  186.0670  178.4960  139.5260 C   0  0  2  0  0  0  0  0  0  0  0  0
  183.9540  179.5750  138.9520 O   0  0  0  0  0  0  0  0  0  0  0  0
  183.1370  177.2820  136.0720 O   0  0  0  0  0  1  0  0  0  0  0  0
  179.9830  180.6270  140.6480 C   0  0  0  0  0  2  0  0  0  0  0  0
  188.0850  178.5470  137.2010 C   0  0  0  0  0  2  0  0  0  0  0  0
  188.6950  175.7820  138.1100 C   0  0  0  0  0  2  0  0  0  0  0  0
  180.8910  178.7950  137.2460 O   0  0  0  0  0  0  0  0  0  0  0  0
  180.8710  179.0750  135.8780 C   0  0  0  0  0  1  0  0  0  0  0  0
  182.4300  178.9590  141.5410 C   0  0  0  0  0  2  0  0  0  0  0  0
  181.5220  178.4030  142.4410 O   0  0  0  0  0  1  0  0  0  0  0  0
  181.8140  175.5430  139.5890 O   0  0  0  0  0  1  0  0  0  0  0  0
  181.7390  176.4400  138.5250 C   0  0  0  0  0  2  0  0  0  0  0  0
  1 16  1  1  0  0  0
  1 21  1  0  0  0  0
  2 10  1  0  0  0  0
  2 14  1  0  0  0  0
  3 24  1  1  0  0  0
  3 18  1  0  0  0  0
  4 34  1  6  0  0  0
  4  3  1  0  0  0  0
  5  7  1  6  0  0  0
  5 16  1  0  0  0  0
  5  1  1  0  0  0  0
  9 23  1  0  0  0  0
 10  9  1  0  0  0  0
 11  8  1  0  0  0  0
 11 10  1  0  0  0  0
 11 28  1  0  0  0  0
 12  1  1  0  0  0  0
 12  3  1  0  0  0  0
 14  9  1  0  0  0  0
 15 14  1  0  0  0  0
 15  4  1  0  0  0  0
 18 31  1  0  0  0  0
 19 17  2  0  0  0  0
 20  6  1  0  0  0  0
 21 18  1  0  0  0  0
 21 26  2  0  0  0  0
 22 20  1  0  0  0  0
 23 22  1  0  0  0  0
 23 13  1  0  0  0  0
 23 20  1  0  0  0  0
 24 22  1  0  0  0  0
 25 15  1  0  0  0  0
 27 10  1  0  0  0  0
 27 19  1  0  0  0  0
 28 17  1  0  0  0  0
 29 12  1  0  0  0  0
 30 29  1  0  0  0  0
 31 32  1  0  0  0  0
 34 33  1  0  0  0  0
M  END
>  <MODEL>
4

>  <REMARK>
 VINA RESULT:      -4.2      2.324      6.885
  Name = 
  3 active torsions:
  status: ('A' for Active; 'I' for Inactive)
    1  A    between atoms: O_2  and  C_15
    2  A    between atoms: C_5  and  C_31
    3  A    between atoms: C_7  and  C_21
                            x       y       z     vdW  Elec       q    Type
                         _______ _______ _______ _____ _____    ______ ____

>  <TORSDO>
F 3

$$$$
=
 OpenBabel10272400083D

 34 39  0  0  1  0  0  0  0  0999 V2000
  181.5130  178.4450  136.0780 C   0  0  1  0  0  0  0  0  0  0  0  0
  185.4550  173.7880  135.6160 O   0  0  0  0  0  0  0  0  0  0  0  0
  183.2710  177.2500  137.2080 C   0  0  1  0  0  0  0  0  0  0  0  0
  183.5930  175.9960  138.1090 C   0  0  2  0  0  3  0  0  0  0  0  0
  180.5190  178.8840  135.0070 C   0  0  2  0  0  3  0  0  0  0  0  0
  187.0820  178.3390  138.4510 O   0  0  0  0  0  1  0  0  0  0  0  0
  179.9820  177.7800  134.3460 O   0  0  0  0  0  1  0  0  0  0  0  0
  186.7770  172.6760  137.8720 O   0  0  0  0  0  1  0  0  0  0  0  0
  186.2820  175.2990  136.8460 C   0  0  2  0  0  3  0  0  0  0  0  0
  186.7710  174.1630  135.9530 C   0  0  1  0  0  0  0  0  0  0  0  0
  187.4840  173.0370  136.7230 C   0  0  1  0  0  3  0  0  0  0  0  0
  181.9900  177.0270  136.3440 C   0  0  1  0  0  3  0  0  0  0  0  0
  188.0490  177.1620  136.2640 C   0  0  0  0  0  1  0  0  0  0  0  0
  184.9510  174.9310  136.2630 C   0  0  2  0  0  3  0  0  0  0  0  0
  183.9490  174.6730  137.3750 C   0  0  2  0  0  3  0  0  0  0  0  0
  182.0100  178.9490  134.7370 C   0  0  0  0  0  2  0  0  0  0  0  0
  189.6530  173.9380  135.8870 C   0  0  0  0  0  3  0  0  0  0  0  0
  182.8990  178.5420  138.0280 C   0  0  2  0  0  3  0  0  0  0  0  0
  189.0440  174.4610  134.8120 C   0  0  0  0  0  3  0  0  0  0  0  0
  186.1680  177.4070  137.9510 C   0  0  1  0  0  3  0  0  0  0  0  0
  181.9720  179.3320  137.1660 C   0  0  0  0  0  0  0  0  0  0  0  0
  185.5780  177.9350  136.6600 C   0  0  1  0  0  3  0  0  0  0  0  0
  186.6160  176.7860  136.6250 C   0  0  2  0  0  0  0  0  0  0  0  0
  184.3030  177.4600  136.2360 O   0  0  0  0  0  0  0  0  0  0  0  0
  182.8140  174.0520  136.8560 O   0  0  0  0  0  1  0  0  0  0  0  0
  181.1820  180.2750  137.6830 C   0  0  0  0  0  2  0  0  0  0  0  0
  187.5430  174.5820  134.6860 C   0  0  0  0  0  2  0  0  0  0  0  0
  188.8890  173.4880  137.1010 C   0  0  0  0  0  2  0  0  0  0  0  0
  180.9850  176.3600  137.0640 O   0  0  0  0  0  0  0  0  0  0  0  0
  180.3340  175.5460  136.1330 C   0  0  0  0  0  1  0  0  0  0  0  0
  184.0170  179.4190  138.5770 C   0  0  0  0  0  2  0  0  0  0  0  0
  183.8660  179.5740  139.9550 O   0  0  0  0  0  1  0  0  0  0  0  0
  182.8950  176.6110  140.3180 O   0  0  0  0  0  1  0  0  0  0  0  0
  182.6250  175.7420  139.2620 C   0  0  0  0  0  2  0  0  0  0  0  0
  1 16  1  6  0  0  0
  1 12  1  0  0  0  0
  1 21  1  0  0  0  0
  2 10  1  0  0  0  0
  2 14  1  0  0  0  0
  3 24  1  6  0  0  0
  3 18  1  0  0  0  0
  3  4  1  0  0  0  0
  4 34  1  6  0  0  0
  5  7  1  6  0  0  0
  5  1  1  0  0  0  0
 10 11  1  0  0  0  0
 10  9  1  0  0  0  0
 11 28  1  0  0  0  0
 11  8  1  0  0  0  0
 12 29  1  0  0  0  0
 12  3  1  0  0  0  0
 13 23  1  0  0  0  0
 14  9  1  0  0  0  0
 14 15  1  0  0  0  0
 15  4  1  0  0  0  0
 16  5  1  0  0  0  0
 17 28  1  0  0  0  0
 18 31  1  0  0  0  0
 19 17  2  0  0  0  0
 20  6  1  0  0  0  0
 21 26  2  0  0  0  0
 21 18  1  0  0  0  0
 22 20  1  0  0  0  0
 23 22  1  0  0  0  0
 23  9  1  0  0  0  0
 23 20  1  0  0  0  0
 24 22  1  0  0  0  0
 25 15  1  0  0  0  0
 27 19  1  0  0  0  0
 27 10  1  0  0  0  0
 30 29  1  0  0  0  0
 31 32  1  0  0  0  0
 34 33  1  0  0  0  0
M  END
>  <MODEL>
5

>  <REMARK>
 VINA RESULT:      -4.0      1.947      6.620
  Name = 
  3 active torsions:
  status: ('A' for Active; 'I' for Inactive)
    1  A    between atoms: O_2  and  C_15
    2  A    between atoms: C_5  and  C_31
    3  A    between atoms: C_7  and  C_21
                            x       y       z     vdW  Elec       q    Type
                         _______ _______ _______ _____ _____    ______ ____

>  <TORSDO>
F 3

$$$$
=
 OpenBabel10272400083D

 34 39  0  0  1  0  0  0  0  0999 V2000
  189.2840  174.4650  136.2490 C   0  0  1  0  0  0  0  0  0  0  0  0
  188.4070  177.1120  141.6950 O   0  0  0  0  0  0  0  0  0  0  0  0
  189.8920  176.3370  137.6350 C   0  0  1  0  0  0  0  0  0  0  0  0
  189.4650  177.7850  138.0920 C   0  0  2  0  0  3  0  0  0  0  0  0
  188.6500  173.1600  135.7770 C   0  0  2  0  0  3  0  0  0  0  0  0
  193.4800  177.5320  139.3530 O   0  0  0  0  0  1  0  0  0  0  0  0
  187.3350  173.0550  136.2280 O   0  0  0  0  0  1  0  0  0  0  0  0
  189.1080  179.8180  142.2090 O   0  0  0  0  0  1  0  0  0  0  0  0
  190.3580  177.5470  141.0000 C   0  0  2  0  0  3  0  0  0  0  0  0
  189.6200  177.4480  142.3300 C   0  0  1  0  0  0  0  0  0  0  0  0
  189.5000  178.7910  143.0710 C   0  0  1  0  0  3  0  0  0  0  0  0
  188.6620  175.4860  137.1880 C   0  0  1  0  0  3  0  0  0  0  0  0
  192.6590  176.4420  141.6430 C   0  0  0  0  0  1  0  0  0  0  0  0
  189.0720  176.9980  140.4610 C   0  0  2  0  0  3  0  0  0  0  0  0
  188.5520  177.8900  139.3450 C   0  0  2  0  0  3  0  0  0  0  0  0
  189.5870  173.1670  136.9710 C   0  0  0  0  0  2  0  0  0  0  0  0
  191.3080  178.0230  144.6060 C   0  0  0  0  0  3  0  0  0  0  0  0
  190.7960  176.3190  136.3460 C   0  0  2  0  0  3  0  0  0  0  0  0
  190.9830  176.7410  144.3800 C   0  0  0  0  0  3  0  0  0  0  0  0
  192.0880  177.4090  139.3670 C   0  0  1  0  0  3  0  0  0  0  0  0
  190.5140  175.0260  135.6560 C   0  0  0  0  0  0  0  0  0  0  0  0
  191.7180  175.9450  139.2490 C   0  0  1  0  0  3  0  0  0  0  0  0
  191.5660  176.6780  140.6060 C   0  0  2  0  0  0  0  0  0  0  0  0
  190.4360  175.5940  138.7340 O   0  0  0  0  0  0  0  0  0  0  0  0
  187.2310  177.5560  139.0480 O   0  0  0  0  0  1  0  0  0  0  0  0
  190.8160  174.8500  134.3680 C   0  0  0  0  0  2  0  0  0  0  0  0
  190.0600  176.3040  143.2660 C   0  0  0  0  0  2  0  0  0  0  0  0
  190.8350  179.1400  143.7170 C   0  0  0  0  0  2  0  0  0  0  0  0
  187.7410  176.2480  136.4520 O   0  0  0  0  0  0  0  0  0  0  0  0
  186.4790  175.8320  136.8830 C   0  0  0  0  0  1  0  0  0  0  0  0
  192.2960  176.5470  136.4890 C   0  0  0  0  0  2  0  0  0  0  0  0
  192.9700  175.3270  136.4350 O   0  0  0  0  0  1  0  0  0  0  0  0
  188.9810  180.0350  137.4250 O   0  0  0  0  0  1  0  0  0  0  0  0
  188.9820  178.7140  136.9810 C   0  0  0  0  0  2  0  0  0  0  0  0
  1 16  1  1  0  0  0
  1 12  1  0  0  0  0
  2 10  1  0  0  0  0
  3  4  1  0  0  0  0
  3 24  1  1  0  0  0
  4 34  1  6  0  0  0
  4 15  1  0  0  0  0
  5  7  1  1  0  0  0
  5  1  1  0  0  0  0
  5 16  1  0  0  0  0
  6 20  1  0  0  0  0
  8 11  1  0  0  0  0
  9 10  1  0  0  0  0
 10 11  1  0  0  0  0
 10 27  1  0  0  0  0
 11 28  1  0  0  0  0
 12  3  1  0  0  0  0
 14  9  1  0  0  0  0
 14  2  1  0  0  0  0
 15 14  1  0  0  0  0
 18 31  1  0  0  0  0
 18  3  1  0  0  0  0
 19 17  2  0  0  0  0
 20 23  1  0  0  0  0
 21  1  1  0  0  0  0
 21 18  1  0  0  0  0
 22 20  1  0  0  0  0
 22 23  1  0  0  0  0
 23  9  1  0  0  0  0
 23 13  1  0  0  0  0
 24 22  1  0  0  0  0
 25 15  1  0  0  0  0
 26 21  2  0  0  0  0
 27 19  1  0  0  0  0
 28 17  1  0  0  0  0
 29 30  1  0  0  0  0
 29 12  1  0  0  0  0
 32 31  1  0  0  0  0
 34 33  1  0  0  0  0
M  END
>  <MODEL>
6

>  <REMARK>
 VINA RESULT:      -3.7      4.851      7.521
  Name = 
  3 active torsions:
  status: ('A' for Active; 'I' for Inactive)
    1  A    between atoms: O_2  and  C_15
    2  A    between atoms: C_5  and  C_31
    3  A    between atoms: C_7  and  C_21
                            x       y       z     vdW  Elec       q    Type
                         _______ _______ _______ _____ _____    ______ ____

>  <TORSDO>
F 3

$$$$
=
 OpenBabel10272400083D

 34 39  0  0  1  0  0  0  0  0999 V2000
  197.8320  173.5660  135.6100 C   0  0  1  0  0  0  0  0  0  0  0  0
  192.8990  176.5740  137.6230 O   0  0  0  0  0  0  0  0  0  0  0  0
  195.6080  173.3060  136.4940 C   0  0  1  0  0  0  0  0  0  0  0  0
  194.7550  173.2470  137.8190 C   0  0  2  0  0  3  0  0  0  0  0  0
  199.1120  174.2030  135.0780 C   0  0  2  0  0  3  0  0  0  0  0  0
  192.1040  171.7370  134.9090 O   0  0  0  0  0  1  0  0  0  0  0  0
  199.4320  175.3520  135.8010 O   0  0  0  0  0  1  0  0  0  0  0  0
  190.8700  175.3210  139.1680 O   0  0  0  0  0  1  0  0  0  0  0  0
  192.3060  174.7320  136.7660 C   0  0  2  0  0  3  0  0  0  0  0  0
  191.7080  176.1090  137.0300 C   0  0  1  0  0  0  0  0  0  0  0  0
  190.5550  176.0950  138.0490 C   0  0  1  0  0  3  0  0  0  0  0  0
  196.9210  174.1290  136.6890 C   0  0  1  0  0  3  0  0  0  0  0  0
  191.3170  174.2280  134.3790 C   0  0  0  0  0  1  0  0  0  0  0  0
  193.5650  175.3980  137.2340 C   0  0  2  0  0  3  0  0  0  0  0  0
  194.1930  174.5910  138.3590 C   0  0  2  0  0  3  0  0  0  0  0  0
  197.7950  174.4190  134.3580 C   0  0  0  0  0  2  0  0  0  0  0  0
  188.9650  176.3380  136.1450 C   0  0  0  0  0  3  0  0  0  0  0  0
  196.1580  171.9060  136.0290 C   0  0  2  0  0  3  0  0  0  0  0  0
  189.9100  176.9400  135.4060 C   0  0  0  0  0  3  0  0  0  0  0  0
  192.7920  172.6500  135.7120 C   0  0  1  0  0  3  0  0  0  0  0  0
  197.4330  172.1780  135.3020 C   0  0  0  0  0  0  0  0  0  0  0  0
  193.7670  173.4300  134.8550 C   0  0  1  0  0  3  0  0  0  0  0  0
  192.4710  174.1070  135.3680 C   0  0  2  0  0  0  0  0  0  0  0  0
  194.9080  174.0230  135.4680 O   0  0  0  0  0  0  0  0  0  0  0  0
  195.1820  175.3460  138.9880 O   0  0  0  0  0  1  0  0  0  0  0  0
  198.3350  171.2150  135.1060 C   0  0  0  0  0  2  0  0  0  0  0  0
  191.3740  176.9530  135.7840 C   0  0  0  0  0  2  0  0  0  0  0  0
  189.2930  175.5570  137.3860 C   0  0  0  0  0  2  0  0  0  0  0  0
  197.5150  173.8750  137.9350 O   0  0  0  0  0  0  0  0  0  0  0  0
  198.0370  175.1000  138.3580 C   0  0  0  0  0  1  0  0  0  0  0  0
  195.2530  170.9860  135.2200 C   0  0  0  0  0  2  0  0  0  0  0  0
  195.0340  169.7990  135.9190 O   0  0  0  0  0  1  0  0  0  0  0  0
  194.9050  171.0860  138.8460 O   0  0  0  0  0  1  0  0  0  0  0  0
  195.3440  172.4050  138.9480 C   0  0  0  0  0  2  0  0  0  0  0  0
  1 16  1  6  0  0  0
  1 12  1  0  0  0  0
  3 24  1  6  0  0  0
  3 12  1  0  0  0  0
  3  4  1  0  0  0  0
  4 15  1  0  0  0  0
  4 34  1  1  0  0  0
  5  1  1  0  0  0  0
  5  7  1  1  0  0  0
  6 20  1  0  0  0  0
  9 10  1  0  0  0  0
  9 14  1  0  0  0  0
 10  2  1  0  0  0  0
 10 11  1  0  0  0  0
 11  8  1  0  0  0  0
 12 29  1  0  0  0  0
 13 23  1  0  0  0  0
 14  2  1  0  0  0  0
 14 15  1  0  0  0  0
 15 25  1  0  0  0  0
 16  5  1  0  0  0  0
 17 28  1  0  0  0  0
 18  3  1  0  0  0  0
 19 27  1  0  0  0  0
 19 17  2  0  0  0  0
 21  1  1  0  0  0  0
 21 18  1  0  0  0  0
 22 23  1  0  0  0  0
 22 24  1  0  0  0  0
 22 20  1  0  0  0  0
 23 20  1  0  0  0  0
 23  9  1  0  0  0  0
 26 21  2  0  0  0  0
 27 10  1  0  0  0  0
 28 11  1  0  0  0  0
 29 30  1  0  0  0  0
 31 32  1  0  0  0  0
 31 18  1  0  0  0  0
 33 34  1  0  0  0  0
M  END
>  <MODEL>
7

>  <REMARK>
 VINA RESULT:      -3.6      7.912     12.039
  Name = 
  3 active torsions:
  status: ('A' for Active; 'I' for Inactive)
    1  A    between atoms: O_2  and  C_15
    2  A    between atoms: C_5  and  C_31
    3  A    between atoms: C_7  and  C_21
                            x       y       z     vdW  Elec       q    Type
                         _______ _______ _______ _____ _____    ______ ____

>  <TORSDO>
F 3

$$$$
=
 OpenBabel10272400083D

 34 39  0  0  1  0  0  0  0  0999 V2000
  181.5120  178.0420  136.5270 C   0  0  1  0  0  0  0  0  0  0  0  0
  186.7040  175.5520  134.4580 O   0  0  0  0  0  0  0  0  0  0  0  0
  183.5690  176.9780  137.1840 C   0  0  1  0  0  0  0  0  0  0  0  0
  184.2770  175.5860  137.4020 C   0  0  2  0  0  3  0  0  0  0  0  0
  180.4170  178.6690  135.6690 C   0  0  2  0  0  3  0  0  0  0  0  0
  186.8650  178.2890  139.3450 O   0  0  0  0  0  1  0  0  0  0  0  0
  180.2430  177.9520  134.4850 O   0  0  0  0  0  1  0  0  0  0  0  0
  188.3350  173.8660  136.0610 O   0  0  0  0  0  1  0  0  0  0  0  0
  187.0340  176.3950  136.3720 C   0  0  2  0  0  3  0  0  0  0  0  0
  187.8410  176.0510  135.1250 C   0  0  1  0  0  0  0  0  0  0  0  0
  188.8790  174.9370  135.3500 C   0  0  1  0  0  3  0  0  0  0  0  0
  182.4100  176.8790  136.1420 C   0  0  1  0  0  3  0  0  0  0  0  0
  188.1240  178.6980  137.0310 C   0  0  0  0  0  1  0  0  0  0  0  0
  185.8770  176.0210  135.4940 C   0  0  2  0  0  3  0  0  0  0  0  0
  185.0200  174.9720  136.1820 C   0  0  2  0  0  3  0  0  0  0  0  0
  181.8100  179.2690  135.6870 C   0  0  0  0  0  2  0  0  0  0  0  0
  190.6480  176.6940  135.3840 C   0  0  0  0  0  3  0  0  0  0  0  0
  182.8220  177.5170  138.4610 C   0  0  2  0  0  3  0  0  0  0  0  0
  189.8930  177.4980  134.6190 C   0  0  0  0  0  3  0  0  0  0  0  0
  186.2810  177.5290  138.3280 C   0  0  1  0  0  3  0  0  0  0  0  0
  181.6850  178.3440  137.9620 C   0  0  0  0  0  0  0  0  0  0  0  0
  185.5390  178.4500  137.3820 C   0  0  1  0  0  3  0  0  0  0  0  0
  186.8840  177.8140  136.9500 C   0  0  2  0  0  0  0  0  0  0  0  0
  184.4710  177.9240  136.5990 O   0  0  0  0  0  0  0  0  0  0  0  0
  184.1280  174.4140  135.2660 O   0  0  0  0  0  1  0  0  0  0  0  0
  180.6460  178.6370  138.7480 C   0  0  0  0  0  2  0  0  0  0  0  0
  188.4280  177.2460  134.3470 C   0  0  0  0  0  2  0  0  0  0  0  0
  190.0790  175.5020  136.1010 C   0  0  0  0  0  2  0  0  0  0  0  0
  181.6740  175.6940  136.2910 O   0  0  0  0  0  0  0  0  0  0  0  0
  181.3950  175.2570  134.9940 C   0  0  0  0  0  1  0  0  0  0  0  0
  183.6170  178.2640  139.5240 C   0  0  0  0  0  2  0  0  0  0  0  0
  183.4600  177.6420  140.7620 O   0  0  0  0  0  1  0  0  0  0  0  0
  184.0460  173.2760  137.9960 O   0  0  0  0  0  1  0  0  0  0  0  0
  183.4520  174.5290  138.1310 C   0  0  0  0  0  2  0  0  0  0  0  0
  1 16  1  6  0  0  0
  1 21  1  0  0  0  0
  2 10  1  0  0  0  0
  2 14  1  0  0  0  0
  3 24  1  6  0  0  0
  3  4  1  0  0  0  0
  3 18  1  0  0  0  0
  4 34  1  6  0  0  0
  5  7  1  6  0  0  0
  5 16  1  0  0  0  0
  5  1  1  0  0  0  0
  9 23  1  0  0  0  0
 10 11  1  0  0  0  0
 10  9  1  0  0  0  0
 11  8  1  0  0  0  0
 11 28  1  0  0  0  0
 12 29  1  0  0  0  0
 12  1  1  0  0  0  0
 12  3  1  0  0  0  0
 14 15  1  0  0  0  0
 14  9  1  0  0  0  0
 15  4  1  0  0  0  0
 17 28  1  0  0  0  0
 18 31  1  0  0  0  0
 19 17  2  0  0  0  0
 20  6  1  0  0  0  0
 21 18  1  0  0  0  0
 21 26  2  0  0  0  0
 22 20  1  0  0  0  0
 23 13  1  0  0  0  0
 23 22  1  0  0  0  0
 23 20  1  0  0  0  0
 24 22  1  0  0  0  0
 25 15  1  0  0  0  0
 27 19  1  0  0  0  0
 27 10  1  0  0  0  0
 30 29  1  0  0  0  0
 31 32  1  0  0  0  0
 33 34  1  0  0  0  0
M  END
>  <MODEL>
8

>  <REMARK>
 VINA RESULT:      -3.3      2.140      6.543
  Name = 
  3 active torsions:
  status: ('A' for Active; 'I' for Inactive)
    1  A    between atoms: O_2  and  C_15
    2  A    between atoms: C_5  and  C_31
    3  A    between atoms: C_7  and  C_21
                            x       y       z     vdW  Elec       q    Type
                         _______ _______ _______ _____ _____    ______ ____

>  <TORSDO>
F 3

$$$$
=
 OpenBabel10272400083D

 34 39  0  0  1  0  0  0  0  0999 V2000
  194.9750  171.6170  137.1930 C   0  0  1  0  0  0  0  0  0  0  0  0
  189.9730  174.9660  136.0990 O   0  0  0  0  0  0  0  0  0  0  0  0
  194.1710  173.8380  136.7310 C   0  0  1  0  0  0  0  0  0  0  0  0
  193.7510  174.8360  135.5840 C   0  0  2  0  0  3  0  0  0  0  0  0
  195.0030  170.1190  137.4790 C   0  0  2  0  0  3  0  0  0  0  0  0
  194.1710  177.3590  138.9350 O   0  0  0  0  0  1  0  0  0  0  0  0
  194.0580  169.4470  136.7050 O   0  0  0  0  0  1  0  0  0  0  0  0
  190.0940  177.5640  134.9560 O   0  0  0  0  0  1  0  0  0  0  0  0
  191.4320  176.1620  137.0590 C   0  0  2  0  0  3  0  0  0  0  0  0
  189.9160  176.1230  136.9010 C   0  0  1  0  0  0  0  0  0  0  0  0
  189.3480  177.3140  136.1090 C   0  0  1  0  0  3  0  0  0  0  0  0
  193.9910  172.3490  136.2960 C   0  0  1  0  0  3  0  0  0  0  0  0
  191.6350  176.8610  139.5890 C   0  0  0  0  0  1  0  0  0  0  0  0
  191.3480  174.8350  136.3650 C   0  0  2  0  0  3  0  0  0  0  0  0
  192.2590  174.8250  135.1490 C   0  0  2  0  0  3  0  0  0  0  0  0
  194.2900  171.0640  138.4270 C   0  0  0  0  0  2  0  0  0  0  0  0
  188.5820  178.2920  138.2710 C   0  0  0  0  0  3  0  0  0  0  0  0
  195.7020  173.8960  137.0940 C   0  0  2  0  0  3  0  0  0  0  0  0
  188.5110  177.0710  138.8220 C   0  0  0  0  0  3  0  0  0  0  0  0
  193.5910  176.4810  138.0160 C   0  0  1  0  0  3  0  0  0  0  0  0
  196.0690  172.5320  137.5750 C   0  0  0  0  0  0  0  0  0  0  0  0
  193.3820  175.1350  138.6780 C   0  0  1  0  0  3  0  0  0  0  0  0
  192.1710  176.0620  138.4060 C   0  0  2  0  0  0  0  0  0  0  0  0
  193.3020  173.9680  137.8630 O   0  0  0  0  0  0  0  0  0  0  0  0
  191.9650  173.7230  134.3460 O   0  0  0  0  0  1  0  0  0  0  0  0
  197.3410  172.1310  137.6080 C   0  0  0  0  0  2  0  0  0  0  0  0
  189.1080  175.8370  138.1840 C   0  0  0  0  0  2  0  0  0  0  0  0
  189.3310  178.5550  136.9940 C   0  0  0  0  0  2  0  0  0  0  0  0
  194.3820  172.1440  134.9640 O   0  0  0  0  0  0  0  0  0  0  0  0
  193.4220  171.2890  134.4180 C   0  0  0  0  0  1  0  0  0  0  0  0
  196.1940  174.9680  138.0590 C   0  0  0  0  0  2  0  0  0  0  0  0
  197.4650  175.4000  137.6820 O   0  0  0  0  0  1  0  0  0  0  0  0
  195.5380  175.9680  134.4570 O   0  0  0  0  0  1  0  0  0  0  0  0
  194.6760  174.8760  134.3700 C   0  0  0  0  0  2  0  0  0  0  0  0
  1  5  1  0  0  0  0
  1 21  1  0  0  0  0
  1 16  1  1  0  0  0
  2 14  1  0  0  0  0
  2 10  1  0  0  0  0
  3 18  1  0  0  0  0
  3 24  1  1  0  0  0
  4 34  1  6  0  0  0
  4  3  1  0  0  0  0
  5  7  1  6  0  0  0
  5 16  1  0  0  0  0
  8 11  1  0  0  0  0
  9 23  1  0  0  0  0
 10  9  1  0  0  0  0
 10 27  1  0  0  0  0
 11 10  1  0  0  0  0
 11 28  1  0  0  0  0
 12  3  1  0  0  0  0
 12  1  1  0  0  0  0
 14  9  1  0  0  0  0
 15  4  1  0  0  0  0
 15 14  1  0  0  0  0
 17 19  2  0  0  0  0
 18 21  1  0  0  0  0
 18 31  1  0  0  0  0
 20 23  1  0  0  0  0
 20 22  1  0  0  0  0
 20  6  1  0  0  0  0
 21 26  2  0  0  0  0
 23 22  1  0  0  0  0
 23 13  1  0  0  0  0
 24 22  1  0  0  0  0
 25 15  1  0  0  0  0
 27 19  1  0  0  0  0
 28 17  1  0  0  0  0
 29 12  1  0  0  0  0
 30 29  1  0  0  0  0
 32 31  1  0  0  0  0
 34 33  1  0  0  0  0
M  END
>  <MODEL>
9

>  <REMARK>
 VINA RESULT:      -2.6      6.611      9.773
  Name = 
  3 active torsions:
  status: ('A' for Active; 'I' for Inactive)
    1  A    between atoms: O_2  and  C_15
    2  A    between atoms: C_5  and  C_31
    3  A    between atoms: C_7  and  C_21
                            x       y       z     vdW  Elec       q    Type
                         _______ _______ _______ _____ _____    ______ ____

>  <TORSDO>
F 3

$$$$
