=
 OpenBabel10272414103D

 43 48  0  0  1  0  0  0  0  0999 V2000
  191.3640  176.4470  147.0180 C   0  0  0  0  0  0  0  0  0  0  0  0
  188.8460  177.8580  142.8570 C   0  0  0  0  0  0  0  0  0  0  0  0
  186.1610  178.1120  143.5670 C   0  0  0  0  0  0  0  0  0  0  0  0
  190.7720  177.1150  144.7640 C   0  0  0  0  0  0  0  0  0  0  0  0
  190.0280  176.5730  147.4120 C   0  0  0  0  0  3  0  0  0  0  0  0
  192.3910  176.0390  148.0050 C   0  0  0  0  0  1  0  0  0  0  0  0
  189.4110  177.2260  145.1510 C   0  0  0  0  0  0  0  0  0  0  0  0
  191.7360  176.7230  145.6980 C   0  0  0  0  0  3  0  0  0  0  0  0
  189.0560  176.9580  146.4840 C   0  0  0  0  0  3  0  0  0  0  0  0
  187.0910  177.7220  144.5350 C   0  0  0  0  0  3  0  0  0  0  0  0
  188.4450  177.5970  144.1920 C   0  0  0  0  0  0  0  0  0  0  0  0
  190.2040  177.7450  142.4990 C   0  0  0  0  0  3  0  0  0  0  0  0
  187.8720  178.2280  141.9100 C   0  0  0  0  0  0  0  0  0  0  0  0
  186.5760  178.3610  142.2940 N   0  0  0  0  0  0  0  0  0  0  0  0
  191.1590  177.3740  143.4450 C   0  0  0  0  0  3  0  0  0  0  0  0
  184.7230  178.3430  143.9260 C   0  0  1  0  0  3  0  0  0  0  0  0
  184.5910  178.7760  145.3720 C   0  0  0  0  0  1  0  0  0  0  0  0
  184.0470  179.3630  143.0090 C   0  0  0  0  0  2  0  0  0  0  0  0
  183.0100  178.6130  140.8060 N   0  0  0  0  0  0  0  0  0  0  0  0
  182.2270  177.6090  140.1390 C   0  0  0  0  0  3  0  0  0  0  0  0
  183.2940  178.2170  137.9970 C   0  0  0  0  0  2  0  0  0  0  0  0
  182.9230  178.7440  142.2350 C   0  0  0  0  0  0  0  0  0  0  0  0
  183.9780  179.4230  140.0570 C   0  0  0  0  0  2  0  0  0  0  0  0
  181.9320  178.2740  142.8570 O   0  0  0  0  0  0  0  0  0  0  0  0
  182.3210  177.4160  138.8160 C   0  0  0  0  0  0  0  0  0  0  0  0
  183.5310  179.5930  138.6110 C   0  0  0  0  0  2  0  0  0  0  0  0
  181.4650  176.4000  138.1170 C   0  0  1  0  0  3  0  0  0  0  0  0
  180.4370  177.0490  137.1950 C   0  0  0  0  0  1  0  0  0  0  0  0
  182.2790  175.3490  137.4200 C   0  0  0  0  0  0  0  0  0  0  0  0
  182.6760  173.8670  135.5390 C   0  0  0  0  0  3  0  0  0  0  0  0
  184.2430  173.9270  137.3840 C   0  0  0  0  0  3  0  0  0  0  0  0
  183.8500  173.4110  136.1460 C   0  0  0  0  0  3  0  0  0  0  0  0
  183.4580  174.8920  138.0210 C   0  0  0  0  0  3  0  0  0  0  0  0
  181.8950  174.8370  136.1710 C   0  0  0  0  0  3  0  0  0  0  0  0
  188.2340  178.5300  140.4920 C   0  0  0  0  0  2  0  0  0  0  0  0
  188.8930  177.3240  139.8480 C   0  0  0  0  0  2  0  0  0  0  0  0
  186.8550  177.8020  137.9840 S   0  0  0  0  0  0  0  0  0  0  0  0
  186.7030  176.8330  136.6190 C   0  0  0  0  0  0  0  0  0  0  0  0
  188.5570  175.9680  137.7140 C   0  0  0  0  0  3  0  0  0  0  0  0
  188.2220  177.0180  138.5620 C   0  0  0  0  0  0  0  0  0  0  0  0
  187.6940  175.8630  136.6120 C   0  0  0  0  0  3  0  0  0  0  0  0
  184.7520  177.0150  134.8390 C   0  0  0  0  0  3  0  0  0  0  0  0
  185.6450  176.9280  135.6520 C   0  0  0  0  0  0  0  0  0  0  0  0
  1  5  1  0  0  0  0
  1  6  1  0  0  0  0
  2 11  1  0  0  0  0
  3 16  1  0  0  0  0
  3 10  1  0  0  0  0
  4  7  2  0  0  0  0
  4  8  1  0  0  0  0
  7  9  1  0  0  0  0
  8  1  2  0  0  0  0
  9  5  2  0  0  0  0
 11 10  2  0  0  0  0
 11  7  1  0  0  0  0
 12  2  1  0  0  0  0
 12 15  2  0  0  0  0
 13 14  1  0  0  0  0
 13  2  2  0  0  0  0
 14  3  2  0  0  0  0
 15  4  1  0  0  0  0
 16 17  1  1  0  0  0
 18 16  1  0  0  0  0
 19 22  1  0  0  0  0
 20 19  1  0  0  0  0
 21 26  1  0  0  0  0
 21 25  1  0  0  0  0
 22 24  2  0  0  0  0
 22 18  1  0  0  0  0
 23 19  1  0  0  0  0
 25 20  2  0  0  0  0
 26 23  1  0  0  0  0
 27 28  1  6  0  0  0
 27 25  1  0  0  0  0
 29 33  1  0  0  0  0
 29 27  1  0  0  0  0
 30 32  2  0  0  0  0
 30 34  1  0  0  0  0
 31 33  2  0  0  0  0
 32 31  1  0  0  0  0
 34 29  2  0  0  0  0
 35 13  1  0  0  0  0
 36 35  1  0  0  0  0
 37 40  1  0  0  0  0
 38 37  1  0  0  0  0
 39 40  2  0  0  0  0
 40 36  1  0  0  0  0
 41 38  2  0  0  0  0
 41 39  1  0  0  0  0
 42 43  3  0  0  0  0
 43 38  1  0  0  0  0
M  END
>  <MODEL>
1

>  <REMARK>
 VINA RESULT:      -9.3      0.000      0.000
  Name = 
  9 active torsions:
  status: ('A' for Active; 'I' for Inactive)
    1  A    between atoms: C_1  and  C_34
    2  A    between atoms: C_1  and  C_35
    3  A    between atoms: C_2  and  C_6
    4  A    between atoms: C_2  and  C_13
    5  A    between atoms: C_6  and  C_12
    6  A    between atoms: C_11  and  C_14
    7  A    between atoms: C_14  and  C_22
    8  A    between atoms: C_19  and  C_37
    9  A    between atoms: C_32  and  C_35
                            x       y       z     vdW  Elec       q    Type
                         _______ _______ _______ _____ _____    ______ ____

>  <TORSDO>
F 9

$$$$
=
 OpenBabel10272414103D

 43 48  0  0  1  0  0  0  0  0999 V2000
  191.4240  176.3880  147.1090 C   0  0  0  0  0  0  0  0  0  0  0  0
  189.1760  177.7600  142.7840 C   0  0  0  0  0  0  0  0  0  0  0  0
  186.4530  178.0290  143.3220 C   0  0  0  0  0  0  0  0  0  0  0  0
  190.9760  177.0320  144.8150 C   0  0  0  0  0  0  0  0  0  0  0  0
  190.0670  176.5230  147.4170 C   0  0  0  0  0  3  0  0  0  0  0  0
  192.3860  175.9880  148.1630 C   0  0  0  0  0  1  0  0  0  0  0  0
  189.5950  177.1520  145.1150 C   0  0  0  0  0  0  0  0  0  0  0  0
  191.8790  176.6480  145.8110 C   0  0  0  0  0  3  0  0  0  0  0  0
  189.1560  176.9000  146.4270 C   0  0  0  0  0  3  0  0  0  0  0  0
  187.3190  177.6480  144.3500 C   0  0  0  0  0  3  0  0  0  0  0  0
  188.6920  177.5150  144.0940 C   0  0  0  0  0  0  0  0  0  0  0  0
  190.5530  177.6390  142.5120 C   0  0  0  0  0  3  0  0  0  0  0  0
  188.2640  178.1220  141.7740 C   0  0  0  0  0  0  0  0  0  0  0  0
  186.9480  178.2640  142.0750 N   0  0  0  0  0  0  0  0  0  0  0  0
  191.4450  177.2760  143.5200 C   0  0  0  0  0  3  0  0  0  0  0  0
  184.9960  178.2700  143.5880 C   0  0  1  0  0  3  0  0  0  0  0  0
  184.7790  178.7430  145.0110 C   0  0  0  0  0  1  0  0  0  0  0  0
  184.3760  179.2620  142.6040 C   0  0  0  0  0  2  0  0  0  0  0  0
  183.6970  178.2010  140.3890 N   0  0  0  0  0  0  0  0  0  0  0  0
  182.9460  177.1550  139.7510 C   0  0  0  0  0  3  0  0  0  0  0  0
  184.4620  177.2700  137.8060 C   0  0  0  0  0  2  0  0  0  0  0  0
  183.3560  178.6010  141.7270 C   0  0  0  0  0  0  0  0  0  0  0  0
  184.8760  178.7790  139.7340 C   0  0  0  0  0  2  0  0  0  0  0  0
  182.2190  178.3330  142.2000 O   0  0  0  0  0  0  0  0  0  0  0  0
  183.2670  176.7140  138.5260 C   0  0  0  0  0  0  0  0  0  0  0  0
  184.7350  178.7130  138.2190 C   0  0  0  0  0  2  0  0  0  0  0  0
  182.4490  175.6560  137.8440 C   0  0  1  0  0  3  0  0  0  0  0  0
  181.4530  176.2490  136.8510 C   0  0  0  0  0  1  0  0  0  0  0  0
  183.2990  174.5810  137.2330 C   0  0  0  0  0  0  0  0  0  0  0  0
  184.9830  172.8400  137.4150 C   0  0  0  0  0  3  0  0  0  0  0  0
  183.9260  173.2850  135.2810 C   0  0  0  0  0  3  0  0  0  0  0  0
  184.8410  172.5620  136.0510 C   0  0  0  0  0  3  0  0  0  0  0  0
  183.1590  174.2940  135.8700 C   0  0  0  0  0  3  0  0  0  0  0  0
  184.2110  173.8430  138.0050 C   0  0  0  0  0  3  0  0  0  0  0  0
  188.7150  178.4070  140.3780 C   0  0  0  0  0  2  0  0  0  0  0  0
  188.2000  177.3390  139.4300 C   0  0  0  0  0  2  0  0  0  0  0  0
  190.8460  176.5860  138.9000 S   0  0  0  0  0  0  0  0  0  0  0  0
  191.3830  176.4080  137.3170 C   0  0  0  0  0  0  0  0  0  0  0  0
  189.1490  176.9920  137.0880 C   0  0  0  0  0  3  0  0  0  0  0  0
  189.2680  176.9660  138.4730 C   0  0  0  0  0  0  0  0  0  0  0  0
  190.3490  176.6770  136.4330 C   0  0  0  0  0  3  0  0  0  0  0  0
  193.8770  175.8850  136.6030 C   0  0  0  0  0  3  0  0  0  0  0  0
  192.7350  176.1200  136.9300 C   0  0  0  0  0  0  0  0  0  0  0  0
  1  5  1  0  0  0  0
  1  6  1  0  0  0  0
  2 11  1  0  0  0  0
  3 16  1  0  0  0  0
  3 10  1  0  0  0  0
  4  7  2  0  0  0  0
  4  8  1  0  0  0  0
  7  9  1  0  0  0  0
  8  1  2  0  0  0  0
  9  5  2  0  0  0  0
 11 10  2  0  0  0  0
 11  7  1  0  0  0  0
 12  2  1  0  0  0  0
 12 15  2  0  0  0  0
 13 14  1  0  0  0  0
 13  2  2  0  0  0  0
 14  3  2  0  0  0  0
 15  4  1  0  0  0  0
 16 17  1  1  0  0  0
 18 16  1  0  0  0  0
 19 22  1  0  0  0  0
 20 19  1  0  0  0  0
 21 26  1  0  0  0  0
 21 25  1  0  0  0  0
 22 24  2  0  0  0  0
 22 18  1  0  0  0  0
 23 19  1  0  0  0  0
 25 20  2  0  0  0  0
 26 23  1  0  0  0  0
 27 28  1  6  0  0  0
 27 25  1  0  0  0  0
 29 27  1  0  0  0  0
 29 34  1  0  0  0  0
 30 34  2  0  0  0  0
 31 33  1  0  0  0  0
 31 32  2  0  0  0  0
 32 30  1  0  0  0  0
 33 29  2  0  0  0  0
 35 13  1  0  0  0  0
 36 35  1  0  0  0  0
 38 37  1  0  0  0  0
 39 40  2  0  0  0  0
 40 37  1  0  0  0  0
 40 36  1  0  0  0  0
 41 39  1  0  0  0  0
 41 38  2  0  0  0  0
 42 43  3  0  0  0  0
 43 38  1  0  0  0  0
M  END
>  <MODEL>
2

>  <REMARK>
 VINA RESULT:      -9.2      1.549      2.367
  Name = 
  9 active torsions:
  status: ('A' for Active; 'I' for Inactive)
    1  A    between atoms: C_1  and  C_34
    2  A    between atoms: C_1  and  C_35
    3  A    between atoms: C_2  and  C_6
    4  A    between atoms: C_2  and  C_13
    5  A    between atoms: C_6  and  C_12
    6  A    between atoms: C_11  and  C_14
    7  A    between atoms: C_14  and  C_22
    8  A    between atoms: C_19  and  C_37
    9  A    between atoms: C_32  and  C_35
                            x       y       z     vdW  Elec       q    Type
                         _______ _______ _______ _____ _____    ______ ____

>  <TORSDO>
F 9

$$$$
=
 OpenBabel10272414103D

 43 48  0  0  1  0  0  0  0  0999 V2000
  191.4830  176.2360  146.9720 C   0  0  0  0  0  0  0  0  0  0  0  0
  187.0480  177.7890  145.0870 C   0  0  0  0  0  0  0  0  0  0  0  0
  187.3600  178.0110  142.3250 C   0  0  0  0  0  0  0  0  0  0  0  0
  189.1770  176.9350  146.7100 C   0  0  0  0  0  0  0  0  0  0  0  0
  191.6740  176.3260  145.5900 C   0  0  0  0  0  3  0  0  0  0  0  0
  192.5990  175.8040  147.8460 C   0  0  0  0  0  1  0  0  0  0  0  0
  189.3680  177.0490  145.3080 C   0  0  0  0  0  0  0  0  0  0  0  0
  190.2350  176.5330  147.5310 C   0  0  0  0  0  3  0  0  0  0  0  0
  190.6240  176.7320  144.7620 C   0  0  0  0  0  3  0  0  0  0  0  0
  188.4450  177.6010  143.1050 C   0  0  0  0  0  3  0  0  0  0  0  0
  188.2990  177.4800  144.4950 C   0  0  0  0  0  0  0  0  0  0  0  0
  186.8820  177.6640  146.4800 C   0  0  0  0  0  3  0  0  0  0  0  0
  185.9890  178.2180  144.2640 C   0  0  0  0  0  0  0  0  0  0  0  0
  186.1690  178.2960  142.9200 N   0  0  0  0  0  0  0  0  0  0  0  0
  187.9400  177.2420  147.2850 C   0  0  0  0  0  3  0  0  0  0  0  0
  187.4610  178.0600  140.8290 C   0  0  1  0  0  3  0  0  0  0  0  0
  186.2370  178.7180  140.2270 C   0  0  0  0  0  1  0  0  0  0  0  0
  188.7270  178.7700  140.3490 C   0  0  0  0  0  2  0  0  0  0  0  0
  189.8640  177.4390  138.4960 N   0  0  0  0  0  0  0  0  0  0  0  0
  189.7250  176.8650  137.1860 C   0  0  0  0  0  3  0  0  0  0  0  0
  191.4700  175.2090  137.7410 C   0  0  0  0  0  2  0  0  0  0  0  0
  188.9880  178.5060  138.8970 C   0  0  0  0  0  0  0  0  0  0  0  0
  190.8100  176.8710  139.4640 C   0  0  0  0  0  2  0  0  0  0  0  0
  188.3730  179.1840  138.0290 O   0  0  0  0  0  0  0  0  0  0  0  0
  190.4840  175.8310  136.7940 C   0  0  0  0  0  0  0  0  0  0  0  0
  191.9910  176.2310  138.7470 C   0  0  0  0  0  2  0  0  0  0  0  0
  190.3690  175.2660  135.4080 C   0  0  1  0  0  3  0  0  0  0  0  0
  191.7020  174.7300  134.8930 C   0  0  0  0  0  1  0  0  0  0  0  0
  189.2610  174.2620  135.2890 C   0  0  0  0  0  0  0  0  0  0  0  0
  186.9820  173.6700  134.6950 C   0  0  0  0  0  3  0  0  0  0  0  0
  188.4970  171.9730  135.5250 C   0  0  0  0  0  3  0  0  0  0  0  0
  187.2330  172.3430  135.0560 C   0  0  0  0  0  3  0  0  0  0  0  0
  189.5070  172.9310  135.6450 C   0  0  0  0  0  3  0  0  0  0  0  0
  187.9940  174.6260  134.8070 C   0  0  0  0  0  3  0  0  0  0  0  0
  184.6430  178.5440  144.8260 C   0  0  0  0  0  2  0  0  0  0  0  0
  183.9860  179.6440  144.0120 C   0  0  0  0  0  2  0  0  0  0  0  0
  182.8780  178.7430  141.6010 S   0  0  0  0  0  0  0  0  0  0  0  0
  181.2640  178.2790  141.5230 C   0  0  0  0  0  0  0  0  0  0  0  0
  181.5700  178.8720  143.7460 C   0  0  0  0  0  3  0  0  0  0  0  0
  182.8490  179.0830  143.2440 C   0  0  0  0  0  0  0  0  0  0  0  0
  180.6710  178.4170  142.7690 C   0  0  0  0  0  3  0  0  0  0  0  0
  179.9830  177.5750  139.3170 C   0  0  0  0  0  3  0  0  0  0  0  0
  180.5710  177.8930  140.3260 C   0  0  0  0  0  0  0  0  0  0  0  0
  1  8  1  0  0  0  0
  1  6  1  0  0  0  0
  2 12  1  0  0  0  0
  3 14  2  0  0  0  0
  3 10  1  0  0  0  0
  4 15  1  0  0  0  0
  4  8  2  0  0  0  0
  5  1  2  0  0  0  0
  7  4  1  0  0  0  0
  9  7  2  0  0  0  0
  9  5  1  0  0  0  0
 10 11  2  0  0  0  0
 11  2  1  0  0  0  0
 11  7  1  0  0  0  0
 12 15  2  0  0  0  0
 13 35  1  0  0  0  0
 13  2  2  0  0  0  0
 14 13  1  0  0  0  0
 16 17  1  6  0  0  0
 16  3  1  0  0  0  0
 18 16  1  0  0  0  0
 19 22  1  0  0  0  0
 19 23  1  0  0  0  0
 20 19  1  0  0  0  0
 21 26  1  0  0  0  0
 22 18  1  0  0  0  0
 24 22  2  0  0  0  0
 25 20  2  0  0  0  0
 25 21  1  0  0  0  0
 26 23  1  0  0  0  0
 27 28  1  1  0  0  0
 27 25  1  0  0  0  0
 29 27  1  0  0  0  0
 29 33  1  0  0  0  0
 30 34  1  0  0  0  0
 30 32  2  0  0  0  0
 31 33  2  0  0  0  0
 32 31  1  0  0  0  0
 34 29  2  0  0  0  0
 36 35  1  0  0  0  0
 37 40  1  0  0  0  0
 38 37  1  0  0  0  0
 38 41  2  0  0  0  0
 40 39  2  0  0  0  0
 40 36  1  0  0  0  0
 41 39  1  0  0  0  0
 42 43  3  0  0  0  0
 43 38  1  0  0  0  0
M  END
>  <MODEL>
3

>  <REMARK>
 VINA RESULT:      -9.0      2.736      6.131
  Name = 
  9 active torsions:
  status: ('A' for Active; 'I' for Inactive)
    1  A    between atoms: C_1  and  C_34
    2  A    between atoms: C_1  and  C_35
    3  A    between atoms: C_2  and  C_6
    4  A    between atoms: C_2  and  C_13
    5  A    between atoms: C_6  and  C_12
    6  A    between atoms: C_11  and  C_14
    7  A    between atoms: C_14  and  C_22
    8  A    between atoms: C_19  and  C_37
    9  A    between atoms: C_32  and  C_35
                            x       y       z     vdW  Elec       q    Type
                         _______ _______ _______ _____ _____    ______ ____

>  <TORSDO>
F 9

$$$$
=
 OpenBabel10272414103D

 43 48  0  0  1  0  0  0  0  0999 V2000
  191.6530  176.2750  147.1710 C   0  0  0  0  0  0  0  0  0  0  0  0
  187.3710  177.6790  144.8620 C   0  0  0  0  0  0  0  0  0  0  0  0
  187.8760  177.6730  142.1190 C   0  0  0  0  0  0  0  0  0  0  0  0
  189.3760  176.9560  146.6930 C   0  0  0  0  0  0  0  0  0  0  0  0
  191.9390  176.2520  145.8030 C   0  0  0  0  0  3  0  0  0  0  0  0
  192.7030  175.9140  148.1530 C   0  0  0  0  0  1  0  0  0  0  0  0
  189.6640  176.9540  145.3030 C   0  0  0  0  0  0  0  0  0  0  0  0
  190.3720  176.6210  147.6150 C   0  0  0  0  0  3  0  0  0  0  0  0
  190.9530  176.5910  144.8730 C   0  0  0  0  0  3  0  0  0  0  0  0
  188.9000  177.3260  143.0040 C   0  0  0  0  0  3  0  0  0  0  0  0
  188.6570  177.3200  144.3850 C   0  0  0  0  0  0  0  0  0  0  0  0
  187.1090  177.6690  146.2450 C   0  0  0  0  0  3  0  0  0  0  0  0
  186.3750  178.0410  143.9350 C   0  0  0  0  0  0  0  0  0  0  0  0
  186.6480  178.0090  142.6050 N   0  0  0  0  0  0  0  0  0  0  0  0
  188.1050  177.3120  147.1540 C   0  0  0  0  0  3  0  0  0  0  0  0
  188.0800  177.5990  140.6340 C   0  0  1  0  0  3  0  0  0  0  0  0
  187.0730  178.4660  139.9070 C   0  0  0  0  0  1  0  0  0  0  0  0
  189.5000  177.9820  140.2180 C   0  0  0  0  0  2  0  0  0  0  0  0
  190.5830  176.4850  138.4630 N   0  0  0  0  0  0  0  0  0  0  0  0
  191.7260  175.6810  138.1250 C   0  0  0  0  0  3  0  0  0  0  0  0
  191.2520  176.0390  135.7280 C   0  0  0  0  0  2  0  0  0  0  0  0
  190.3070  176.7760  139.8440 C   0  0  0  0  0  0  0  0  0  0  0  0
  189.7680  177.1030  137.4110 C   0  0  0  0  0  2  0  0  0  0  0  0
  190.8010  176.0600  140.7550 O   0  0  0  0  0  0  0  0  0  0  0  0
  192.0510  175.4340  136.8480 C   0  0  0  0  0  0  0  0  0  0  0  0
  189.8010  176.2620  136.1420 C   0  0  0  0  0  2  0  0  0  0  0  0
  193.2160  174.5540  136.5010 C   0  0  1  0  0  3  0  0  0  0  0  0
  192.8250  173.4320  135.5420 C   0  0  0  0  0  1  0  0  0  0  0  0
  194.4010  175.3370  136.0170 C   0  0  0  0  0  0  0  0  0  0  0  0
  195.3750  177.3440  135.0570 C   0  0  0  0  0  3  0  0  0  0  0  0
  196.7980  175.4900  135.6900 C   0  0  0  0  0  3  0  0  0  0  0  0
  196.6470  176.7730  135.1560 C   0  0  0  0  0  3  0  0  0  0  0  0
  195.6780  174.7730  136.1170 C   0  0  0  0  0  3  0  0  0  0  0  0
  194.2550  176.6310  135.4910 C   0  0  0  0  0  3  0  0  0  0  0  0
  184.9960  178.4160  144.3730 C   0  0  0  0  0  2  0  0  0  0  0  0
  184.4470  179.5250  143.4940 C   0  0  0  0  0  2  0  0  0  0  0  0
  183.1870  178.5130  141.2040 S   0  0  0  0  0  0  0  0  0  0  0  0
  181.5220  178.2850  141.1760 C   0  0  0  0  0  0  0  0  0  0  0  0
  181.9410  179.0890  143.3120 C   0  0  0  0  0  3  0  0  0  0  0  0
  183.2300  179.0490  142.7940 C   0  0  0  0  0  0  0  0  0  0  0  0
  180.9720  178.6570  142.3940 C   0  0  0  0  0  3  0  0  0  0  0  0
  180.1250  177.5030  139.0680 C   0  0  0  0  0  3  0  0  0  0  0  0
  180.7640  177.8650  140.0310 C   0  0  0  0  0  0  0  0  0  0  0  0
  1  8  1  0  0  0  0
  1  6  1  0  0  0  0
  2 12  1  0  0  0  0
  3 14  2  0  0  0  0
  3 10  1  0  0  0  0
  4 15  1  0  0  0  0
  4  8  2  0  0  0  0
  5  1  2  0  0  0  0
  7  4  1  0  0  0  0
  9  7  2  0  0  0  0
  9  5  1  0  0  0  0
 10 11  2  0  0  0  0
 11  2  1  0  0  0  0
 11  7  1  0  0  0  0
 12 15  2  0  0  0  0
 13 35  1  0  0  0  0
 13  2  2  0  0  0  0
 14 13  1  0  0  0  0
 16 17  1  6  0  0  0
 16  3  1  0  0  0  0
 18 16  1  0  0  0  0
 19 22  1  0  0  0  0
 20 19  1  0  0  0  0
 21 26  1  0  0  0  0
 21 25  1  0  0  0  0
 22 18  1  0  0  0  0
 22 24  2  0  0  0  0
 23 19  1  0  0  0  0
 25 20  2  0  0  0  0
 26 23  1  0  0  0  0
 27 28  1  6  0  0  0
 27 25  1  0  0  0  0
 29 33  1  0  0  0  0
 29 27  1  0  0  0  0
 30 32  2  0  0  0  0
 30 34  1  0  0  0  0
 31 33  2  0  0  0  0
 32 31  1  0  0  0  0
 34 29  2  0  0  0  0
 36 35  1  0  0  0  0
 37 40  1  0  0  0  0
 38 37  1  0  0  0  0
 38 41  2  0  0  0  0
 40 39  2  0  0  0  0
 40 36  1  0  0  0  0
 41 39  1  0  0  0  0
 42 43  3  0  0  0  0
 43 38  1  0  0  0  0
M  END
>  <MODEL>
4

>  <REMARK>
 VINA RESULT:      -8.9      3.740      7.644
  Name = 
  9 active torsions:
  status: ('A' for Active; 'I' for Inactive)
    1  A    between atoms: C_1  and  C_34
    2  A    between atoms: C_1  and  C_35
    3  A    between atoms: C_2  and  C_6
    4  A    between atoms: C_2  and  C_13
    5  A    between atoms: C_6  and  C_12
    6  A    between atoms: C_11  and  C_14
    7  A    between atoms: C_14  and  C_22
    8  A    between atoms: C_19  and  C_37
    9  A    between atoms: C_32  and  C_35
                            x       y       z     vdW  Elec       q    Type
                         _______ _______ _______ _____ _____    ______ ____

>  <TORSDO>
F 9

$$$$
=
 OpenBabel10272414103D

 43 48  0  0  1  0  0  0  0  0999 V2000
  184.5650  178.9870  139.5710 C   0  0  0  0  0  0  0  0  0  0  0  0
  189.2070  177.2780  138.4880 C   0  0  0  0  0  0  0  0  0  0  0  0
  190.7570  177.5960  140.7840 C   0  0  0  0  0  0  0  0  0  0  0  0
  186.4990  178.0300  138.4670 C   0  0  0  0  0  0  0  0  0  0  0  0
  185.3090  179.1520  140.7440 C   0  0  0  0  0  3  0  0  0  0  0  0
  183.1400  179.3930  139.5360 C   0  0  0  0  0  1  0  0  0  0  0  0
  187.2670  178.2120  139.6470 C   0  0  0  0  0  0  0  0  0  0  0  0
  185.1570  178.4210  138.4370 C   0  0  0  0  0  3  0  0  0  0  0  0
  186.6530  178.7700  140.7820 C   0  0  0  0  0  3  0  0  0  0  0  0
  189.4180  177.9970  140.8020 C   0  0  0  0  0  3  0  0  0  0  0  0
  188.6270  177.8370  139.6550 C   0  0  0  0  0  0  0  0  0  0  0  0
  188.4230  177.1030  137.3310 C   0  0  0  0  0  3  0  0  0  0  0  0
  190.5650  176.9070  138.5100 C   0  0  0  0  0  0  0  0  0  0  0  0
  191.2860  177.0580  139.6510 N   0  0  0  0  0  0  0  0  0  0  0  0
  187.0800  177.4780  137.3210 C   0  0  0  0  0  3  0  0  0  0  0  0
  191.6010  177.6700  142.0220 C   0  0  1  0  0  3  0  0  0  0  0  0
  191.1340  178.7890  142.9290 C   0  0  0  0  0  1  0  0  0  0  0  0
  191.6300  176.3490  142.7920 C   0  0  0  0  0  2  0  0  0  0  0  0
  190.2940  176.5220  144.9540 N   0  0  0  0  0  0  0  0  0  0  0  0
  189.0130  176.8030  145.5440 C   0  0  0  0  0  3  0  0  0  0  0  0
  190.1360  177.4500  147.6450 C   0  0  0  0  0  2  0  0  0  0  0  0
  190.3670  176.1400  143.5710 C   0  0  0  0  0  0  0  0  0  0  0  0
  191.5290  176.7340  145.7180 C   0  0  0  0  0  2  0  0  0  0  0  0
  189.3460  175.6920  142.9800 O   0  0  0  0  0  0  0  0  0  0  0  0
  188.9060  177.2170  146.8140 C   0  0  0  0  0  0  0  0  0  0  0  0
  191.2790  176.5390  147.2080 C   0  0  0  0  0  2  0  0  0  0  0  0
  187.5640  177.4620  147.4400 C   0  0  1  0  0  3  0  0  0  0  0  0
  187.6460  178.4220  148.6240 C   0  0  0  0  0  1  0  0  0  0  0  0
  186.5310  177.8780  146.4340 C   0  0  0  0  0  0  0  0  0  0  0  0
  185.7650  178.1020  144.1400 C   0  0  0  0  0  3  0  0  0  0  0  0
  184.3330  178.7900  145.9680 C   0  0  0  0  0  3  0  0  0  0  0  0
  184.5580  178.6400  144.5970 C   0  0  0  0  0  3  0  0  0  0  0  0
  185.3180  178.4130  146.8840 C   0  0  0  0  0  3  0  0  0  0  0  0
  186.7470  177.7180  145.0560 C   0  0  0  0  0  3  0  0  0  0  0  0
  191.2300  176.3000  137.3170 C   0  0  0  0  0  2  0  0  0  0  0  0
  192.0050  175.0590  137.7220 C   0  0  0  0  0  2  0  0  0  0  0  0
  194.6910  174.2610  137.6970 S   0  0  0  0  0  0  0  0  0  0  0  0
  195.7630  174.9040  136.5720 C   0  0  0  0  0  0  0  0  0  0  0  0
  193.7370  175.9140  136.0570 C   0  0  0  0  0  3  0  0  0  0  0  0
  193.3570  175.0960  137.1150 C   0  0  0  0  0  0  0  0  0  0  0  0
  195.1020  175.8050  135.7500 C   0  0  0  0  0  3  0  0  0  0  0  0
  198.3640  174.4250  136.4920 C   0  0  0  0  0  3  0  0  0  0  0  0
  197.1730  174.6400  136.5290 C   0  0  0  0  0  0  0  0  0  0  0  0
  1  5  1  0  0  0  0
  2 13  2  0  0  0  0
  2 11  1  0  0  0  0
  3 10  1  0  0  0  0
  3 16  1  0  0  0  0
  4  7  2  0  0  0  0
  5  9  2  0  0  0  0
  6  1  1  0  0  0  0
  7 11  1  0  0  0  0
  7  9  1  0  0  0  0
  8  4  1  0  0  0  0
  8  1  2  0  0  0  0
 11 10  2  0  0  0  0
 12  2  1  0  0  0  0
 13 14  1  0  0  0  0
 14  3  2  0  0  0  0
 15 12  2  0  0  0  0
 15  4  1  0  0  0  0
 16 18  1  0  0  0  0
 16 17  1  1  0  0  0
 18 22  1  0  0  0  0
 19 20  1  0  0  0  0
 19 23  1  0  0  0  0
 20 25  2  0  0  0  0
 22 19  1  0  0  0  0
 23 26  1  0  0  0  0
 24 22  2  0  0  0  0
 25 27  1  0  0  0  0
 25 21  1  0  0  0  0
 26 21  1  0  0  0  0
 27 28  1  1  0  0  0
 29 33  1  0  0  0  0
 29 27  1  0  0  0  0
 30 32  2  0  0  0  0
 30 34  1  0  0  0  0
 31 33  2  0  0  0  0
 32 31  1  0  0  0  0
 34 29  2  0  0  0  0
 35 36  1  0  0  0  0
 35 13  1  0  0  0  0
 38 37  1  0  0  0  0
 39 40  2  0  0  0  0
 40 37  1  0  0  0  0
 40 36  1  0  0  0  0
 41 39  1  0  0  0  0
 41 38  2  0  0  0  0
 42 43  3  0  0  0  0
 43 38  1  0  0  0  0
M  END
>  <MODEL>
5

>  <REMARK>
 VINA RESULT:      -8.9      3.747      8.778
  Name = 
  9 active torsions:
  status: ('A' for Active; 'I' for Inactive)
    1  A    between atoms: C_1  and  C_34
    2  A    between atoms: C_1  and  C_35
    3  A    between atoms: C_2  and  C_6
    4  A    between atoms: C_2  and  C_13
    5  A    between atoms: C_6  and  C_12
    6  A    between atoms: C_11  and  C_14
    7  A    between atoms: C_14  and  C_22
    8  A    between atoms: C_19  and  C_37
    9  A    between atoms: C_32  and  C_35
                            x       y       z     vdW  Elec       q    Type
                         _______ _______ _______ _____ _____    ______ ____

>  <TORSDO>
F 9

$$$$
=
 OpenBabel10272414103D

 43 48  0  0  1  0  0  0  0  0999 V2000
  191.4000  176.4910  147.1270 C   0  0  0  0  0  0  0  0  0  0  0  0
  186.9220  177.7960  145.1550 C   0  0  0  0  0  0  0  0  0  0  0  0
  187.2670  178.0000  142.3960 C   0  0  0  0  0  0  0  0  0  0  0  0
  189.0660  177.0700  146.8210 C   0  0  0  0  0  0  0  0  0  0  0  0
  191.6080  176.5740  145.7460 C   0  0  0  0  0  3  0  0  0  0  0  0
  192.5230  176.1270  148.0230 C   0  0  0  0  0  1  0  0  0  0  0  0
  189.2730  177.1760  145.4210 C   0  0  0  0  0  0  0  0  0  0  0  0
  190.1310  176.7320  147.6620 C   0  0  0  0  0  3  0  0  0  0  0  0
  190.5520  176.9170  144.8980 C   0  0  0  0  0  3  0  0  0  0  0  0
  188.3580  177.6550  143.1970 C   0  0  0  0  0  3  0  0  0  0  0  0
  188.1970  177.5430  144.5860 C   0  0  0  0  0  0  0  0  0  0  0  0
  186.7420  177.6790  146.5470 C   0  0  0  0  0  3  0  0  0  0  0  0
  185.8560  178.1600  144.3110 C   0  0  0  0  0  0  0  0  0  0  0  0
  186.0540  178.2310  142.9690 N   0  0  0  0  0  0  0  0  0  0  0  0
  187.8070  177.3210  147.3730 C   0  0  0  0  0  3  0  0  0  0  0  0
  187.3880  178.0360  140.9010 C   0  0  1  0  0  3  0  0  0  0  0  0
  186.2000  178.7400  140.2790 C   0  0  0  0  0  1  0  0  0  0  0  0
  188.6890  178.6900  140.4330 C   0  0  0  0  0  2  0  0  0  0  0  0
  190.0720  177.4590  138.6830 N   0  0  0  0  0  0  0  0  0  0  0  0
  190.0510  176.7460  137.4350 C   0  0  0  0  0  3  0  0  0  0  0  0
  192.1100  175.5540  138.0970 C   0  0  0  0  0  2  0  0  0  0  0  0
  188.9920  178.3510  139.0050 C   0  0  0  0  0  0  0  0  0  0  0  0
  191.1210  177.1960  139.6750 C   0  0  0  0  0  2  0  0  0  0  0  0
  188.2440  178.7990  138.0940 O   0  0  0  0  0  0  0  0  0  0  0  0
  191.0100  175.8630  137.1210 C   0  0  0  0  0  0  0  0  0  0  0  0
  192.4080  176.7530  138.9920 C   0  0  0  0  0  2  0  0  0  0  0  0
  191.0110  175.1570  135.7960 C   0  0  1  0  0  3  0  0  0  0  0  0
  190.7630  176.1150  134.6340 C   0  0  0  0  0  1  0  0  0  0  0  0
  192.2380  174.3170  135.5960 C   0  0  0  0  0  0  0  0  0  0  0  0
  193.3810  172.1750  135.6550 C   0  0  0  0  0  3  0  0  0  0  0  0
  194.5550  174.1540  134.9020 C   0  0  0  0  0  3  0  0  0  0  0  0
  194.5450  172.7840  135.1770 C   0  0  0  0  0  3  0  0  0  0  0  0
  193.4050  174.9190  135.1140 C   0  0  0  0  0  3  0  0  0  0  0  0
  192.2290  172.9380  135.8600 C   0  0  0  0  0  3  0  0  0  0  0  0
  184.4870  178.4250  144.8480 C   0  0  0  0  0  2  0  0  0  0  0  0
  183.8410  179.5770  144.0990 C   0  0  0  0  0  2  0  0  0  0  0  0
  182.8160  178.6490  141.6610 S   0  0  0  0  0  0  0  0  0  0  0  0
  181.1790  178.3070  141.4980 C   0  0  0  0  0  0  0  0  0  0  0  0
  181.3930  178.9790  143.7090 C   0  0  0  0  0  3  0  0  0  0  0  0
  182.7130  179.0680  143.2830 C   0  0  0  0  0  0  0  0  0  0  0  0
  180.5220  178.5480  142.6960 C   0  0  0  0  0  3  0  0  0  0  0  0
  179.9820  177.5900  139.2490 C   0  0  0  0  0  3  0  0  0  0  0  0
  180.5330  177.9190  140.2760 C   0  0  0  0  0  0  0  0  0  0  0  0
  1  8  1  0  0  0  0
  1  6  1  0  0  0  0
  2 12  1  0  0  0  0
  3 14  2  0  0  0  0
  3 10  1  0  0  0  0
  4 15  1  0  0  0  0
  4  8  2  0  0  0  0
  5  1  2  0  0  0  0
  7  4  1  0  0  0  0
  9  7  2  0  0  0  0
  9  5  1  0  0  0  0
 10 11  2  0  0  0  0
 11  2  1  0  0  0  0
 11  7  1  0  0  0  0
 12 15  2  0  0  0  0
 13 35  1  0  0  0  0
 13  2  2  0  0  0  0
 14 13  1  0  0  0  0
 16 17  1  6  0  0  0
 16  3  1  0  0  0  0
 18 16  1  0  0  0  0
 19 22  1  0  0  0  0
 19 23  1  0  0  0  0
 20 19  1  0  0  0  0
 21 26  1  0  0  0  0
 22 18  1  0  0  0  0
 24 22  2  0  0  0  0
 25 20  2  0  0  0  0
 25 21  1  0  0  0  0
 26 23  1  0  0  0  0
 27 28  1  6  0  0  0
 27 25  1  0  0  0  0
 29 27  1  0  0  0  0
 29 34  1  0  0  0  0
 30 34  2  0  0  0  0
 31 33  1  0  0  0  0
 31 32  2  0  0  0  0
 32 30  1  0  0  0  0
 33 29  2  0  0  0  0
 36 35  1  0  0  0  0
 37 40  1  0  0  0  0
 38 37  1  0  0  0  0
 38 41  2  0  0  0  0
 40 39  2  0  0  0  0
 40 36  1  0  0  0  0
 41 39  1  0  0  0  0
 42 43  3  0  0  0  0
 43 38  1  0  0  0  0
M  END
>  <MODEL>
6

>  <REMARK>
 VINA RESULT:      -8.9      3.220      7.005
  Name = 
  9 active torsions:
  status: ('A' for Active; 'I' for Inactive)
    1  A    between atoms: C_1  and  C_34
    2  A    between atoms: C_1  and  C_35
    3  A    between atoms: C_2  and  C_6
    4  A    between atoms: C_2  and  C_13
    5  A    between atoms: C_6  and  C_12
    6  A    between atoms: C_11  and  C_14
    7  A    between atoms: C_14  and  C_22
    8  A    between atoms: C_19  and  C_37
    9  A    between atoms: C_32  and  C_35
                            x       y       z     vdW  Elec       q    Type
                         _______ _______ _______ _____ _____    ______ ____

>  <TORSDO>
F 9

$$$$
=
 OpenBabel10272414103D

 43 48  0  0  1  0  0  0  0  0999 V2000
  191.4980  176.2940  146.8810 C   0  0  0  0  0  0  0  0  0  0  0  0
  187.7550  177.6430  143.7480 C   0  0  0  0  0  0  0  0  0  0  0  0
  188.7380  177.4190  141.1480 C   0  0  0  0  0  0  0  0  0  0  0  0
  189.3720  177.0020  145.9550 C   0  0  0  0  0  0  0  0  0  0  0  0
  192.0210  176.1600  145.5910 C   0  0  0  0  0  3  0  0  0  0  0  0
  192.3410  175.9770  148.0580 C   0  0  0  0  0  1  0  0  0  0  0  0
  189.9020  176.8880  144.6430 C   0  0  0  0  0  0  0  0  0  0  0  0
  190.1740  176.7070  147.0620 C   0  0  0  0  0  3  0  0  0  0  0  0
  191.2300  176.4580  144.4780 C   0  0  0  0  0  3  0  0  0  0  0  0
  189.5750  177.1100  142.2240 C   0  0  0  0  0  3  0  0  0  0  0  0
  189.0900  177.2130  143.5360 C   0  0  0  0  0  0  0  0  0  0  0  0
  187.2520  177.7440  145.0590 C   0  0  0  0  0  3  0  0  0  0  0  0
  186.9560  177.9640  142.6340 C   0  0  0  0  0  0  0  0  0  0  0  0
  187.4590  177.8250  141.3810 N   0  0  0  0  0  0  0  0  0  0  0  0
  188.0550  177.4270  146.1540 C   0  0  0  0  0  3  0  0  0  0  0  0
  189.2000  177.2290  139.7320 C   0  0  1  0  0  3  0  0  0  0  0  0
  189.2080  178.5470  138.9860 C   0  0  0  0  0  1  0  0  0  0  0  0
  190.5770  176.5700  139.6480 C   0  0  0  0  0  2  0  0  0  0  0  0
  191.9660  175.5470  137.7730 N   0  0  0  0  0  0  0  0  0  0  0  0
  192.2050  174.3810  136.9680 C   0  0  0  0  0  3  0  0  0  0  0  0
  194.5320  175.1240  136.6030 C   0  0  0  0  0  2  0  0  0  0  0  0
  190.6980  175.7060  138.4290 C   0  0  0  0  0  0  0  0  0  0  0  0
  193.0420  176.5150  138.0220 C   0  0  0  0  0  2  0  0  0  0  0  0
  189.6900  175.0620  138.0290 O   0  0  0  0  0  0  0  0  0  0  0  0
  193.3940  174.1670  136.3850 C   0  0  0  0  0  0  0  0  0  0  0  0
  194.0220  176.5400  136.8570 C   0  0  0  0  0  2  0  0  0  0  0  0
  193.6230  172.9730  135.5050 C   0  0  1  0  0  3  0  0  0  0  0  0
  194.5660  173.2840  134.3460 C   0  0  0  0  0  1  0  0  0  0  0  0
  194.0480  171.7620  136.2840 C   0  0  0  0  0  0  0  0  0  0  0  0
  195.3610  170.7140  138.0370 C   0  0  0  0  0  3  0  0  0  0  0  0
  193.8360  169.3840  136.7060 C   0  0  0  0  0  3  0  0  0  0  0  0
  194.7840  169.4780  137.7290 C   0  0  0  0  0  3  0  0  0  0  0  0
  193.4710  170.5230  135.9830 C   0  0  0  0  0  3  0  0  0  0  0  0
  194.9910  171.8540  137.3200 C   0  0  0  0  0  3  0  0  0  0  0  0
  185.5380  178.4090  142.7900 C   0  0  0  0  0  2  0  0  0  0  0  0
  185.1800  179.4160  141.7120 C   0  0  0  0  0  2  0  0  0  0  0  0
  184.3450  178.7780  139.1140 S   0  0  0  0  0  0  0  0  0  0  0  0
  182.8390  178.0810  138.8480 C   0  0  0  0  0  0  0  0  0  0  0  0
  182.9450  178.3220  141.1540 C   0  0  0  0  0  3  0  0  0  0  0  0
  184.1890  178.8200  140.7840 C   0  0  0  0  0  0  0  0  0  0  0  0
  182.1790  177.9040  140.0550 C   0  0  0  0  0  3  0  0  0  0  0  0
  181.7900  177.5730  136.4710 C   0  0  0  0  0  3  0  0  0  0  0  0
  182.2730  177.8020  137.5580 C   0  0  0  0  0  0  0  0  0  0  0  0
  1  8  1  0  0  0  0
  1  6  1  0  0  0  0
  2 12  1  0  0  0  0
  3 14  2  0  0  0  0
  3 10  1  0  0  0  0
  4 15  1  0  0  0  0
  4  8  2  0  0  0  0
  5  1  2  0  0  0  0
  7  4  1  0  0  0  0
  9  7  2  0  0  0  0
  9  5  1  0  0  0  0
 10 11  2  0  0  0  0
 11  2  1  0  0  0  0
 11  7  1  0  0  0  0
 12 15  2  0  0  0  0
 13 35  1  0  0  0  0
 13  2  2  0  0  0  0
 14 13  1  0  0  0  0
 16 17  1  1  0  0  0
 16  3  1  0  0  0  0
 18 16  1  0  0  0  0
 19 23  1  0  0  0  0
 19 22  1  0  0  0  0
 20 19  1  0  0  0  0
 21 26  1  0  0  0  0
 22 18  1  0  0  0  0
 24 22  2  0  0  0  0
 25 21  1  0  0  0  0
 25 20  2  0  0  0  0
 26 23  1  0  0  0  0
 27 28  1  6  0  0  0
 27 29  1  0  0  0  0
 27 25  1  0  0  0  0
 29 34  1  0  0  0  0
 31 32  2  0  0  0  0
 32 30  1  0  0  0  0
 33 29  2  0  0  0  0
 33 31  1  0  0  0  0
 34 30  2  0  0  0  0
 36 35  1  0  0  0  0
 37 40  1  0  0  0  0
 38 37  1  0  0  0  0
 38 41  2  0  0  0  0
 40 39  2  0  0  0  0
 40 36  1  0  0  0  0
 41 39  1  0  0  0  0
 42 43  3  0  0  0  0
 43 38  1  0  0  0  0
M  END
>  <MODEL>
7

>  <REMARK>
 VINA RESULT:      -8.6      4.351      7.817
  Name = 
  9 active torsions:
  status: ('A' for Active; 'I' for Inactive)
    1  A    between atoms: C_1  and  C_34
    2  A    between atoms: C_1  and  C_35
    3  A    between atoms: C_2  and  C_6
    4  A    between atoms: C_2  and  C_13
    5  A    between atoms: C_6  and  C_12
    6  A    between atoms: C_11  and  C_14
    7  A    between atoms: C_14  and  C_22
    8  A    between atoms: C_19  and  C_37
    9  A    between atoms: C_32  and  C_35
                            x       y       z     vdW  Elec       q    Type
                         _______ _______ _______ _____ _____    ______ ____

>  <TORSDO>
F 9

$$$$
=
 OpenBabel10272414103D

 43 48  0  0  1  0  0  0  0  0999 V2000
  187.7630  177.6530  144.6650 C   0  0  0  0  0  0  0  0  0  0  0  0
  190.9210  177.1760  140.7350 C   0  0  0  0  0  0  0  0  0  0  0  0
  189.3690  177.2470  138.4200 C   0  0  0  0  0  0  0  0  0  0  0  0
  189.7310  177.4210  143.2690 C   0  0  0  0  0  0  0  0  0  0  0  0
  186.9540  177.7030  143.5250 C   0  0  0  0  0  3  0  0  0  0  0  0
  187.1520  177.7640  146.0100 C   0  0  0  0  0  1  0  0  0  0  0  0
  188.9160  177.4510  142.1080 C   0  0  0  0  0  0  0  0  0  0  0  0
  189.1490  177.5190  144.5370 C   0  0  0  0  0  3  0  0  0  0  0  0
  187.5260  177.6000  142.2540 C   0  0  0  0  0  3  0  0  0  0  0  0
  188.7440  177.3540  139.6650 C   0  0  0  0  0  3  0  0  0  0  0  0
  189.5140  177.3250  140.8370 C   0  0  0  0  0  0  0  0  0  0  0  0
  191.7090  177.1540  141.9030 C   0  0  0  0  0  3  0  0  0  0  0  0
  191.5050  177.0520  139.4600 C   0  0  0  0  0  0  0  0  0  0  0  0
  190.7220  177.1110  138.3520 N   0  0  0  0  0  0  0  0  0  0  0  0
  191.1180  177.2740  143.1600 C   0  0  0  0  0  3  0  0  0  0  0  0
  188.5810  177.3680  137.1480 C   0  0  1  0  0  3  0  0  0  0  0  0
  189.3600  176.8080  135.9760 C   0  0  0  0  0  1  0  0  0  0  0  0
  187.2120  176.6930  137.2400 C   0  0  0  0  0  2  0  0  0  0  0  0
  184.8750  177.2560  138.0830 N   0  0  0  0  0  0  0  0  0  0  0  0
  184.0660  178.1920  138.8150 C   0  0  0  0  0  3  0  0  0  0  0  0
  182.4700  176.3830  139.3420 C   0  0  0  0  0  2  0  0  0  0  0  0
  186.1280  177.6870  137.5280 C   0  0  0  0  0  0  0  0  0  0  0  0
  184.4870  175.8420  137.9980 C   0  0  0  0  0  2  0  0  0  0  0  0
  186.3540  178.9140  137.3460 O   0  0  0  0  0  0  0  0  0  0  0  0
  182.9180  177.8160  139.3970 C   0  0  0  0  0  0  0  0  0  0  0  0
  182.9740  175.6950  138.0770 C   0  0  0  0  0  2  0  0  0  0  0  0
  182.0530  178.8080  140.1180 C   0  0  1  0  0  3  0  0  0  0  0  0
  180.5790  178.6650  139.7470 C   0  0  0  0  0  1  0  0  0  0  0  0
  182.2770  178.7900  141.6020 C   0  0  0  0  0  0  0  0  0  0  0  0
  183.7530  178.7840  143.5300 C   0  0  0  0  0  3  0  0  0  0  0  0
  181.3510  178.8010  143.8430 C   0  0  0  0  0  3  0  0  0  0  0  0
  182.6420  178.7880  144.3800 C   0  0  0  0  0  3  0  0  0  0  0  0
  181.1690  178.7990  142.4580 C   0  0  0  0  0  3  0  0  0  0  0  0
  183.5710  178.7900  142.1450 C   0  0  0  0  0  3  0  0  0  0  0  0
  192.9820  176.9070  139.2870 C   0  0  0  0  0  2  0  0  0  0  0  0
  193.3210  176.6830  137.8240 C   0  0  0  0  0  2  0  0  0  0  0  0
  193.1130  174.1500  136.6430 S   0  0  0  0  0  0  0  0  0  0  0  0
  194.1750  172.9190  137.0700 C   0  0  0  0  0  0  0  0  0  0  0  0
  194.8790  174.7310  138.3380 C   0  0  0  0  0  3  0  0  0  0  0  0
  193.8240  175.3020  137.6350 C   0  0  0  0  0  0  0  0  0  0  0  0
  195.0770  173.3790  138.0180 C   0  0  0  0  0  3  0  0  0  0  0  0
  194.0320  170.4230  136.2040 C   0  0  0  0  0  3  0  0  0  0  0  0
  194.1010  171.5640  136.6010 C   0  0  0  0  0  0  0  0  0  0  0  0
  1  6  1  0  0  0  0
  2 11  1  0  0  0  0
  2 12  1  0  0  0  0
  3 10  1  0  0  0  0
  4  8  2  0  0  0  0
  5  1  2  0  0  0  0
  7  9  2  0  0  0  0
  7  4  1  0  0  0  0
  8  1  1  0  0  0  0
  9  5  1  0  0  0  0
 10 11  2  0  0  0  0
 11  7  1  0  0  0  0
 12 15  2  0  0  0  0
 13  2  2  0  0  0  0
 14  3  2  0  0  0  0
 14 13  1  0  0  0  0
 15  4  1  0  0  0  0
 16 17  1  6  0  0  0
 16 18  1  0  0  0  0
 16  3  1  0  0  0  0
 18 22  1  0  0  0  0
 19 20  1  0  0  0  0
 20 25  2  0  0  0  0
 21 25  1  0  0  0  0
 22 19  1  0  0  0  0
 23 26  1  0  0  0  0
 23 19  1  0  0  0  0
 24 22  2  0  0  0  0
 25 27  1  0  0  0  0
 26 21  1  0  0  0  0
 27 28  1  1  0  0  0
 27 29  1  0  0  0  0
 29 34  2  0  0  0  0
 29 33  1  0  0  0  0
 30 32  2  0  0  0  0
 31 32  1  0  0  0  0
 33 31  2  0  0  0  0
 34 30  1  0  0  0  0
 35 13  1  0  0  0  0
 36 35  1  0  0  0  0
 37 38  1  0  0  0  0
 37 40  1  0  0  0  0
 38 41  2  0  0  0  0
 40 36  1  0  0  0  0
 40 39  2  0  0  0  0
 41 39  1  0  0  0  0
 42 43  3  0  0  0  0
 43 38  1  0  0  0  0
M  END
>  <MODEL>
8

>  <REMARK>
 VINA RESULT:      -8.5      3.494      6.077
  Name = 
  9 active torsions:
  status: ('A' for Active; 'I' for Inactive)
    1  A    between atoms: C_1  and  C_34
    2  A    between atoms: C_1  and  C_35
    3  A    between atoms: C_2  and  C_6
    4  A    between atoms: C_2  and  C_13
    5  A    between atoms: C_6  and  C_12
    6  A    between atoms: C_11  and  C_14
    7  A    between atoms: C_14  and  C_22
    8  A    between atoms: C_19  and  C_37
    9  A    between atoms: C_32  and  C_35
                            x       y       z     vdW  Elec       q    Type
                         _______ _______ _______ _____ _____    ______ ____

>  <TORSDO>
F 9

$$$$
=
 OpenBabel10272414103D

 43 48  0  0  1  0  0  0  0  0999 V2000
  183.6450  172.4450  136.2950 C   0  0  0  0  0  0  0  0  0  0  0  0
  186.3140  176.7030  136.9180 C   0  0  0  0  0  0  0  0  0  0  0  0
  184.7640  178.4260  138.4680 C   0  0  0  0  0  0  0  0  0  0  0  0
  185.3760  174.1410  136.2440 C   0  0  0  0  0  0  0  0  0  0  0  0
  182.8440  173.2790  137.0820 C   0  0  0  0  0  3  0  0  0  0  0  0
  183.1590  171.0980  135.9140 C   0  0  0  0  0  1  0  0  0  0  0  0
  184.5610  175.0010  137.0250 C   0  0  0  0  0  0  0  0  0  0  0  0
  184.9110  172.8730  135.8820 C   0  0  0  0  0  3  0  0  0  0  0  0
  183.2970  174.5510  137.4430 C   0  0  0  0  0  3  0  0  0  0  0  0
  184.2600  177.1660  138.1350 C   0  0  0  0  0  3  0  0  0  0  0  0
  185.0330  176.2880  137.3600 C   0  0  0  0  0  0  0  0  0  0  0  0
  187.1060  175.8290  136.1470 C   0  0  0  0  0  3  0  0  0  0  0  0
  186.7730  177.9890  137.2610 C   0  0  0  0  0  0  0  0  0  0  0  0
  186.0010  178.7960  138.0330 N   0  0  0  0  0  0  0  0  0  0  0  0
  186.6390  174.5590  135.8110 C   0  0  0  0  0  3  0  0  0  0  0  0
  184.0000  179.3490  139.3710 C   0  0  1  0  0  3  0  0  0  0  0  0
  182.6410  179.6750  138.7850 C   0  0  0  0  0  1  0  0  0  0  0  0
  183.8420  178.7890  140.7850 C   0  0  0  0  0  2  0  0  0  0  0  0
  185.0470  178.7570  143.0290 N   0  0  0  0  0  0  0  0  0  0  0  0
  186.2990  178.5550  143.7060 C   0  0  0  0  0  3  0  0  0  0  0  0
  185.0750  177.9400  145.7610 C   0  0  0  0  0  2  0  0  0  0  0  0
  185.0440  179.0830  141.6290 C   0  0  0  0  0  0  0  0  0  0  0  0
  183.7760  178.5200  143.7250 C   0  0  0  0  0  2  0  0  0  0  0  0
  186.0790  179.5520  141.0840 O   0  0  0  0  0  0  0  0  0  0  0  0
  186.3440  178.1950  144.9970 C   0  0  0  0  0  0  0  0  0  0  0  0
  183.9250  178.7830  145.2180 C   0  0  0  0  0  2  0  0  0  0  0  0
  187.6540  178.0340  145.7120 C   0  0  1  0  0  3  0  0  0  0  0  0
  187.4930  177.3270  147.0550 C   0  0  0  0  0  1  0  0  0  0  0  0
  188.7030  177.3970  144.8480 C   0  0  0  0  0  0  0  0  0  0  0  0
  191.0270  177.0130  144.2590 C   0  0  0  0  0  3  0  0  0  0  0  0
  189.2630  175.9160  143.0120 C   0  0  0  0  0  3  0  0  0  0  0  0
  190.6230  176.1580  143.2280 C   0  0  0  0  0  3  0  0  0  0  0  0
  188.3050  176.5360  143.8180 C   0  0  0  0  0  3  0  0  0  0  0  0
  190.0700  177.6270  145.0700 C   0  0  0  0  0  3  0  0  0  0  0  0
  188.1200  178.4790  136.8370 C   0  0  0  0  0  2  0  0  0  0  0  0
  189.1250  178.2920  137.9590 C   0  0  0  0  0  2  0  0  0  0  0  0
  191.2510  176.5800  138.5950 S   0  0  0  0  0  0  0  0  0  0  0  0
  192.0350  175.7080  137.3910 C   0  0  0  0  0  0  0  0  0  0  0  0
  190.3860  176.8770  136.2510 C   0  0  0  0  0  3  0  0  0  0  0  0
  190.1380  177.2870  137.5570 C   0  0  0  0  0  0  0  0  0  0  0  0
  191.4630  175.9830  136.1570 C   0  0  0  0  0  3  0  0  0  0  0  0
  194.1640  174.1810  137.7650 C   0  0  0  0  0  3  0  0  0  0  0  0
  193.1910  174.8790  137.5890 C   0  0  0  0  0  0  0  0  0  0  0  0
  1  5  1  0  0  0  0
  2 13  2  0  0  0  0
  2 11  1  0  0  0  0
  3 16  1  0  0  0  0
  4  7  2  0  0  0  0
  5  9  2  0  0  0  0
  6  1  1  0  0  0  0
  7 11  1  0  0  0  0
  7  9  1  0  0  0  0
  8  4  1  0  0  0  0
  8  1  2  0  0  0  0
 10  3  1  0  0  0  0
 11 10  2  0  0  0  0
 12  2  1  0  0  0  0
 13 14  1  0  0  0  0
 14  3  2  0  0  0  0
 15 12  2  0  0  0  0
 15  4  1  0  0  0  0
 16 17  1  6  0  0  0
 16 18  1  0  0  0  0
 18 22  1  0  0  0  0
 19 20  1  0  0  0  0
 19 23  1  0  0  0  0
 20 25  2  0  0  0  0
 22 19  1  0  0  0  0
 23 26  1  0  0  0  0
 24 22  2  0  0  0  0
 25 27  1  0  0  0  0
 25 21  1  0  0  0  0
 26 21  1  0  0  0  0
 27 28  1  1  0  0  0
 29 34  1  0  0  0  0
 29 27  1  0  0  0  0
 30 34  2  0  0  0  0
 31 32  2  0  0  0  0
 31 33  1  0  0  0  0
 32 30  1  0  0  0  0
 33 29  2  0  0  0  0
 35 13  1  0  0  0  0
 35 36  1  0  0  0  0
 38 43  1  0  0  0  0
 38 37  1  0  0  0  0
 39 40  2  0  0  0  0
 40 36  1  0  0  0  0
 40 37  1  0  0  0  0
 41 39  1  0  0  0  0
 41 38  2  0  0  0  0
 43 42  3  0  0  0  0
M  END
>  <MODEL>
9

>  <REMARK>
 VINA RESULT:      -8.5      2.223      8.248
  Name = 
  9 active torsions:
  status: ('A' for Active; 'I' for Inactive)
    1  A    between atoms: C_1  and  C_34
    2  A    between atoms: C_1  and  C_35
    3  A    between atoms: C_2  and  C_6
    4  A    between atoms: C_2  and  C_13
    5  A    between atoms: C_6  and  C_12
    6  A    between atoms: C_11  and  C_14
    7  A    between atoms: C_14  and  C_22
    8  A    between atoms: C_19  and  C_37
    9  A    between atoms: C_32  and  C_35
                            x       y       z     vdW  Elec       q    Type
                         _______ _______ _______ _____ _____    ______ ____

>  <TORSDO>
F 9

$$$$
