=
 OpenBabel10272400573D

 27 31  0  0  1  0  0  0  0  0999 V2000
  191.7930  176.9730  139.2210 C   0  0  0  0  0  2  0  0  0  0  0  0
  189.2440  176.9900  139.3310 C   0  0  0  0  0  0  0  0  0  0  0  0
  189.6110  175.5210  137.3170 N   0  0  0  0  0  2  0  0  0  0  0  0
  185.6180  178.1080  137.5240 N   0  0  0  0  0  2  0  0  0  0  0  0
  184.8110  177.3070  135.4650 O   0  0  0  0  0  0  0  0  0  0  0  0
  188.4390  177.9650  139.9670 C   0  0  0  0  0  3  0  0  0  0  0  0
  186.9130  176.4140  136.3100 C   0  0  2  0  0  3  0  0  0  0  0  0
  192.9170  173.6810  136.7570 C   0  0  0  0  0  2  0  0  0  0  0  0
  186.5060  174.9530  136.3930 C   0  0  0  0  0  1  0  0  0  0  0  0
  193.3970  174.1000  138.0100 O   0  0  0  0  0  0  0  0  0  0  0  0
  187.5710  176.8370  137.5830 C   0  0  0  0  0  0  0  0  0  0  0  0
  190.5350  176.5360  139.9790 C   0  0  2  0  0  3  0  0  0  0  0  0
  185.6920  177.2840  136.3640 C   0  0  0  0  0  0  0  0  0  0  0  0
  186.8050  177.7860  138.2270 C   0  0  0  0  0  0  0  0  0  0  0  0
  191.8250  176.4800  137.7710 C   0  0  1  0  0  3  0  0  0  0  0  0
  188.8110  176.4320  138.0940 C   0  0  0  0  0  0  0  0  0  0  0  0
  191.5240  174.2630  136.4630 C   0  0  0  0  0  2  0  0  0  0  0  0
  187.2190  178.3730  139.4170 C   0  0  0  0  0  3  0  0  0  0  0  0
  194.1180  175.2930  137.8150 C   0  0  0  0  0  2  0  0  0  0  0  0
  193.2650  176.4410  137.2430 C   0  0  0  0  0  2  0  0  0  0  0  0
  191.0060  175.1830  137.5750 C   0  0  2  0  0  3  0  0  0  0  0  0
  190.9010  177.3050  144.1970 C   0  0  0  0  0  3  0  0  0  0  0  0
  190.6400  176.8040  141.4540 C   0  0  0  0  0  0  0  0  0  0  0  0
  189.8080  176.1470  142.3740 C   0  0  0  0  0  3  0  0  0  0  0  0
  189.9380  176.4000  143.7430 C   0  0  0  0  0  3  0  0  0  0  0  0
  191.7350  177.9560  143.2850 C   0  0  0  0  0  3  0  0  0  0  0  0
  191.6060  177.7050  141.9160 C   0  0  0  0  0  3  0  0  0  0  0  0
  1 12  1  0  0  0  0
  2  6  1  0  0  0  0
  2 12  1  0  0  0  0
  3 21  1  0  0  0  0
  3 16  1  0  0  0  0
  4 14  1  0  0  0  0
  5 13  2  0  0  0  0
  7 13  1  0  0  0  0
  7  9  1  1  0  0  0
  7 11  1  0  0  0  0
  8 10  1  0  0  0  0
 11 16  1  0  0  0  0
 11 14  2  0  0  0  0
 12 23  1  1  0  0  0
 13  4  1  0  0  0  0
 14 18  1  0  0  0  0
 15 20  1  1  0  0  0
 15  1  1  0  0  0  0
 16  2  2  0  0  0  0
 17  8  1  0  0  0  0
 18  6  2  0  0  0  0
 19 10  1  0  0  0  0
 20 19  1  0  0  0  0
 21 17  1  6  0  0  0
 21 15  1  0  0  0  0
 23 27  2  0  0  0  0
 23 24  1  0  0  0  0
 24 25  2  0  0  0  0
 25 22  1  0  0  0  0
 26 22  2  0  0  0  0
 27 26  1  0  0  0  0
M  END
>  <MODEL>
1

>  <REMARK>
 VINA RESULT:      -7.2      0.000      0.000
  Name = 
  1 active torsions:
  status: ('A' for Active; 'I' for Inactive)
    1  A    between atoms: C_9  and  C_15
                            x       y       z     vdW  Elec       q    Type
                         _______ _______ _______ _____ _____    ______ ____

>  <TORSDO>
F 1

$$$$
=
 OpenBabel10272400573D

 27 31  0  0  1  0  0  0  0  0999 V2000
  184.2450  177.6560  142.0960 C   0  0  0  0  0  2  0  0  0  0  0  0
  186.7870  177.8610  142.0270 C   0  0  0  0  0  0  0  0  0  0  0  0
  186.1920  178.7130  139.7330 N   0  0  0  0  0  2  0  0  0  0  0  0
  190.4090  176.5810  140.3220 N   0  0  0  0  0  2  0  0  0  0  0  0
  191.0390  176.8680  138.0740 O   0  0  0  0  0  0  0  0  0  0  0  0
  187.7070  177.1530  142.8360 C   0  0  0  0  0  3  0  0  0  0  0  0
  188.9080  177.7910  138.8040 C   0  0  2  0  0  3  0  0  0  0  0  0
  182.7090  180.0850  138.9480 C   0  0  0  0  0  2  0  0  0  0  0  0
  189.1840  179.2480  138.4760 C   0  0  0  0  0  1  0  0  0  0  0  0
  182.3290  179.9780  140.2980 O   0  0  0  0  0  0  0  0  0  0  0  0
  188.3530  177.6720  140.1870 C   0  0  0  0  0  0  0  0  0  0  0  0
  185.4930  178.3720  142.6250 C   0  0  2  0  0  3  0  0  0  0  0  0
  190.2040  177.0610  138.9950 C   0  0  0  0  0  0  0  0  0  0  0  0
  189.2330  176.9870  140.9980 C   0  0  0  0  0  0  0  0  0  0  0  0
  184.0990  177.7440  140.5740 C   0  0  1  0  0  3  0  0  0  0  0  0
  187.1070  178.1030  140.6600 C   0  0  0  0  0  0  0  0  0  0  0  0
  184.1330  179.5520  138.7180 C   0  0  0  0  0  2  0  0  0  0  0  0
  188.9320  176.7060  142.3260 C   0  0  0  0  0  3  0  0  0  0  0  0
  181.7120  178.7240  140.4700 C   0  0  0  0  0  2  0  0  0  0  0  0
  182.6370  177.5330  140.1570 C   0  0  0  0  0  2  0  0  0  0  0  0
  184.7860  179.0010  139.9910 C   0  0  2  0  0  3  0  0  0  0  0  0
  185.5080  178.6770  146.9170 C   0  0  0  0  0  3  0  0  0  0  0  0
  185.4840  178.4960  144.1220 C   0  0  0  0  0  0  0  0  0  0  0  0
  184.3000  178.7780  144.8220 C   0  0  0  0  0  3  0  0  0  0  0  0
  184.3140  178.8700  146.2170 C   0  0  0  0  0  3  0  0  0  0  0  0
  186.6880  178.3910  146.2250 C   0  0  0  0  0  3  0  0  0  0  0  0
  186.6750  178.2990  144.8300 C   0  0  0  0  0  3  0  0  0  0  0  0
  1 12  1  0  0  0  0
  2 12  1  0  0  0  0
  2  6  1  0  0  0  0
  3 21  1  0  0  0  0
  3 16  1  0  0  0  0
  4 14  1  0  0  0  0
  5 13  2  0  0  0  0
  7  9  1  1  0  0  0
  7 13  1  0  0  0  0
  7 11  1  0  0  0  0
  8 10  1  0  0  0  0
 10 19  1  0  0  0  0
 11 16  1  0  0  0  0
 11 14  2  0  0  0  0
 12 23  1  1  0  0  0
 13  4  1  0  0  0  0
 14 18  1  0  0  0  0
 15 20  1  1  0  0  0
 15  1  1  0  0  0  0
 16  2  2  0  0  0  0
 17  8  1  0  0  0  0
 18  6  2  0  0  0  0
 20 19  1  0  0  0  0
 21 17  1  6  0  0  0
 21 15  1  0  0  0  0
 23 24  2  0  0  0  0
 23 27  1  0  0  0  0
 24 25  1  0  0  0  0
 25 22  2  0  0  0  0
 26 22  1  0  0  0  0
 27 26  2  0  0  0  0
M  END
>  <MODEL>
2

>  <REMARK>
 VINA RESULT:      -7.1      3.855      7.208
  Name = 
  1 active torsions:
  status: ('A' for Active; 'I' for Inactive)
    1  A    between atoms: C_9  and  C_15
                            x       y       z     vdW  Elec       q    Type
                         _______ _______ _______ _____ _____    ______ ____

>  <TORSDO>
F 1

$$$$
=
 OpenBabel10272400573D

 27 31  0  0  1  0  0  0  0  0999 V2000
  189.7400  177.6670  136.9060 C   0  0  0  0  0  2  0  0  0  0  0  0
  190.6060  176.9140  139.1840 C   0  0  0  0  0  0  0  0  0  0  0  0
  188.2160  177.4650  139.7570 N   0  0  0  0  0  2  0  0  0  0  0  0
  191.5160  177.9420  143.1560 N   0  0  0  0  0  2  0  0  0  0  0  0
  189.9640  178.6470  144.7770 O   0  0  0  0  0  0  0  0  0  0  0  0
  191.9580  176.8890  139.6010 C   0  0  0  0  0  3  0  0  0  0  0  0
  189.1350  178.0330  142.5720 C   0  0  2  0  0  3  0  0  0  0  0  0
  185.4830  177.5410  137.0820 C   0  0  0  0  0  2  0  0  0  0  0  0
  188.2110  176.9050  142.9980 C   0  0  0  0  0  1  0  0  0  0  0  0
  186.3790  177.0640  136.1100 O   0  0  0  0  0  0  0  0  0  0  0  0
  189.9910  177.5920  141.4290 C   0  0  0  0  0  0  0  0  0  0  0  0
  190.2430  176.5070  137.7710 C   0  0  2  0  0  3  0  0  0  0  0  0
  190.1970  178.2370  143.6100 C   0  0  0  0  0  0  0  0  0  0  0  0
  191.3160  177.5560  141.8080 C   0  0  0  0  0  0  0  0  0  0  0  0
  188.5150  178.3720  137.4960 C   0  0  1  0  0  3  0  0  0  0  0  0
  189.6000  177.3010  140.1150 C   0  0  0  0  0  0  0  0  0  0  0  0
  186.1800  177.7550  138.4360 C   0  0  0  0  0  2  0  0  0  0  0  0
  192.3220  177.2160  140.9120 C   0  0  0  0  0  3  0  0  0  0  0  0
  186.9390  178.1800  135.4590 C   0  0  0  0  0  2  0  0  0  0  0  0
  187.7320  179.1070  136.4000 C   0  0  0  0  0  2  0  0  0  0  0  0
  187.6800  177.4370  138.4010 C   0  0  2  0  0  3  0  0  0  0  0  0
  193.1770  174.1540  135.6810 C   0  0  0  0  0  3  0  0  0  0  0  0
  191.2710  175.6730  137.0610 C   0  0  0  0  0  0  0  0  0  0  0  0
  191.3440  174.2850  137.2560 C   0  0  0  0  0  3  0  0  0  0  0  0
  192.2980  173.5290  136.5690 C   0  0  0  0  0  3  0  0  0  0  0  0
  193.1040  175.5350  135.4790 C   0  0  0  0  0  3  0  0  0  0  0  0
  192.1510  176.2930  136.1660 C   0  0  0  0  0  3  0  0  0  0  0  0
  1 15  1  0  0  0  0
  1 12  1  0  0  0  0
  2  6  2  0  0  0  0
  2 16  1  0  0  0  0
  3 16  1  0  0  0  0
  4 13  1  0  0  0  0
  6 18  1  0  0  0  0
  7  9  1  1  0  0  0
  7 13  1  0  0  0  0
  8 17  1  0  0  0  0
 10  8  1  0  0  0  0
 11 14  1  0  0  0  0
 11  7  1  0  0  0  0
 12 23  1  6  0  0  0
 12  2  1  0  0  0  0
 13  5  2  0  0  0  0
 14  4  1  0  0  0  0
 15 20  1  6  0  0  0
 15 21  1  0  0  0  0
 16 11  2  0  0  0  0
 18 14  2  0  0  0  0
 19 10  1  0  0  0  0
 19 20  1  0  0  0  0
 21 17  1  1  0  0  0
 21  3  1  0  0  0  0
 22 25  1  0  0  0  0
 23 24  1  0  0  0  0
 25 24  2  0  0  0  0
 26 22  2  0  0  0  0
 26 27  1  0  0  0  0
 27 23  2  0  0  0  0
M  END
>  <MODEL>
3

>  <REMARK>
 VINA RESULT:      -7.0      2.584      6.400
  Name = 
  1 active torsions:
  status: ('A' for Active; 'I' for Inactive)
    1  A    between atoms: C_9  and  C_15
                            x       y       z     vdW  Elec       q    Type
                         _______ _______ _______ _____ _____    ______ ____

>  <TORSDO>
F 1

$$$$
=
 OpenBabel10272400573D

 27 31  0  0  1  0  0  0  0  0999 V2000
  188.9570  178.4140  144.1910 C   0  0  0  0  0  2  0  0  0  0  0  0
  187.6980  178.0040  142.0100 C   0  0  0  0  0  0  0  0  0  0  0  0
  189.7950  176.6720  141.5910 N   0  0  0  0  0  2  0  0  0  0  0  0
  187.5330  178.5530  137.8470 N   0  0  0  0  0  2  0  0  0  0  0  0
  189.0690  177.6860  136.2900 O   0  0  0  0  0  0  0  0  0  0  0  0
  186.6710  178.8130  141.4710 C   0  0  0  0  0  3  0  0  0  0  0  0
  189.3680  177.1320  138.6420 C   0  0  2  0  0  3  0  0  0  0  0  0
  191.9820  175.4230  144.4700 C   0  0  0  0  0  2  0  0  0  0  0  0
  189.2580  175.6220  138.5210 C   0  0  0  0  0  1  0  0  0  0  0  0
  191.0490  175.8810  145.4170 O   0  0  0  0  0  0  0  0  0  0  0  0
  188.4980  177.6230  139.7540 C   0  0  0  0  0  0  0  0  0  0  0  0
  187.7580  177.7530  143.5020 C   0  0  2  0  0  3  0  0  0  0  0  0
  188.6770  177.7850  137.4820 C   0  0  0  0  0  0  0  0  0  0  0  0
  187.4840  178.4140  139.2550 C   0  0  0  0  0  0  0  0  0  0  0  0
  190.3040  177.9720  143.6100 C   0  0  1  0  0  3  0  0  0  0  0  0
  188.6520  177.4160  141.1310 C   0  0  0  0  0  0  0  0  0  0  0  0
  191.5490  175.7730  143.0360 C   0  0  0  0  0  2  0  0  0  0  0  0
  186.5600  179.0280  140.0920 C   0  0  0  0  0  3  0  0  0  0  0  0
  191.4290  177.1830  145.7960 C   0  0  0  0  0  2  0  0  0  0  0  0
  191.4310  178.1880  144.6290 C   0  0  0  0  0  2  0  0  0  0  0  0
  190.2370  176.5630  142.9770 C   0  0  2  0  0  3  0  0  0  0  0  0
  184.0630  178.4870  145.5820 C   0  0  0  0  0  3  0  0  0  0  0  0
  186.4740  177.9940  144.2440 C   0  0  0  0  0  0  0  0  0  0  0  0
  186.4480  178.0740  145.6460 C   0  0  0  0  0  3  0  0  0  0  0  0
  185.2430  178.3180  146.3120 C   0  0  0  0  0  3  0  0  0  0  0  0
  184.0860  178.4130  144.1870 C   0  0  0  0  0  3  0  0  0  0  0  0
  185.2900  178.1690  143.5190 C   0  0  0  0  0  3  0  0  0  0  0  0
  2 12  1  0  0  0  0
  3 21  1  0  0  0  0
  4 14  1  0  0  0  0
  5 13  2  0  0  0  0
  6  2  1  0  0  0  0
  7  9  1  6  0  0  0
  7 11  1  0  0  0  0
  8 10  1  0  0  0  0
 10 19  1  0  0  0  0
 11 16  1  0  0  0  0
 12  1  1  0  0  0  0
 12 23  1  1  0  0  0
 13  4  1  0  0  0  0
 13  7  1  0  0  0  0
 14 11  2  0  0  0  0
 14 18  1  0  0  0  0
 15  1  1  1  0  0  0
 15 20  1  0  0  0  0
 16  3  1  0  0  0  0
 16  2  2  0  0  0  0
 17  8  1  0  0  0  0
 18  6  2  0  0  0  0
 20 19  1  0  0  0  0
 21 17  1  6  0  0  0
 21 15  1  0  0  0  0
 22 25  1  0  0  0  0
 23 24  1  0  0  0  0
 24 25  2  0  0  0  0
 26 22  2  0  0  0  0
 27 26  1  0  0  0  0
 27 23  2  0  0  0  0
M  END
>  <MODEL>
4

>  <REMARK>
 VINA RESULT:      -7.0      3.386      5.393
  Name = 
  1 active torsions:
  status: ('A' for Active; 'I' for Inactive)
    1  A    between atoms: C_9  and  C_15
                            x       y       z     vdW  Elec       q    Type
                         _______ _______ _______ _____ _____    ______ ____

>  <TORSDO>
F 1

$$$$
=
 OpenBabel10272400573D

 27 31  0  0  1  0  0  0  0  0999 V2000
  188.8040  178.7540  142.6860 C   0  0  0  0  0  2  0  0  0  0  0  0
  188.2370  177.8170  140.3820 C   0  0  0  0  0  0  0  0  0  0  0  0
  190.3610  176.5590  140.8830 N   0  0  0  0  0  2  0  0  0  0  0  0
  189.2970  177.4650  136.3300 N   0  0  0  0  0  2  0  0  0  0  0  0
  191.2190  176.3860  135.5080 O   0  0  0  0  0  0  0  0  0  0  0  0
  187.4140  178.4290  139.4070 C   0  0  0  0  0  3  0  0  0  0  0  0
  190.8160  176.3600  137.9090 C   0  0  2  0  0  3  0  0  0  0  0  0
  191.6070  176.0810  144.4680 C   0  0  0  0  0  2  0  0  0  0  0  0
  190.7420  174.8540  138.0960 C   0  0  0  0  0  1  0  0  0  0  0  0
  190.4390  176.6700  144.9840 O   0  0  0  0  0  0  0  0  0  0  0  0
  189.6600  177.0190  138.5890 C   0  0  0  0  0  0  0  0  0  0  0  0
  187.8570  177.8900  141.8460 C   0  0  2  0  0  3  0  0  0  0  0  0
  190.4960  176.7090  136.4860 C   0  0  0  0  0  0  0  0  0  0  0  0
  188.8390  177.6230  137.6610 C   0  0  0  0  0  0  0  0  0  0  0  0
  190.2600  178.2840  142.6260 C   0  0  1  0  0  3  0  0  0  0  0  0
  189.4040  177.1170  139.9630 C   0  0  0  0  0  0  0  0  0  0  0  0
  191.6130  176.0940  142.9290 C   0  0  0  0  0  2  0  0  0  0  0  0
  187.7120  178.3420  138.0430 C   0  0  0  0  0  3  0  0  0  0  0  0
  190.6950  178.0440  145.1600 C   0  0  0  0  0  2  0  0  0  0  0  0
  191.0410  178.7790  143.8520 C   0  0  0  0  0  2  0  0  0  0  0  0
  190.3770  176.7720  142.3250 C   0  0  2  0  0  3  0  0  0  0  0  0
  183.7190  178.7350  142.6700 C   0  0  0  0  0  3  0  0  0  0  0  0
  186.4130  178.2020  142.1180 C   0  0  0  0  0  0  0  0  0  0  0  0
  185.5280  178.5200  141.0760 C   0  0  0  0  0  3  0  0  0  0  0  0
  184.1840  178.7880  141.3530 C   0  0  0  0  0  3  0  0  0  0  0  0
  184.5950  178.4140  143.7100 C   0  0  0  0  0  3  0  0  0  0  0  0
  185.9390  178.1450  143.4340 C   0  0  0  0  0  3  0  0  0  0  0  0
  2 12  1  0  0  0  0
  3 21  1  0  0  0  0
  4 13  1  0  0  0  0
  4 14  1  0  0  0  0
  5 13  2  0  0  0  0
  6  2  2  0  0  0  0
  7  9  1  6  0  0  0
  7 11  1  0  0  0  0
  8 10  1  0  0  0  0
 10 19  1  0  0  0  0
 11 16  2  0  0  0  0
 12 23  1  6  0  0  0
 12  1  1  0  0  0  0
 13  7  1  0  0  0  0
 14 18  2  0  0  0  0
 14 11  1  0  0  0  0
 15  1  1  1  0  0  0
 15 20  1  0  0  0  0
 16  2  1  0  0  0  0
 16  3  1  0  0  0  0
 17  8  1  0  0  0  0
 18  6  1  0  0  0  0
 20 19  1  0  0  0  0
 21 15  1  0  0  0  0
 21 17  1  6  0  0  0
 22 26  1  0  0  0  0
 23 27  1  0  0  0  0
 24 25  1  0  0  0  0
 24 23  2  0  0  0  0
 25 22  2  0  0  0  0
 27 26  2  0  0  0  0
M  END
>  <MODEL>
5

>  <REMARK>
 VINA RESULT:      -6.6      2.888      5.380
  Name = 
  1 active torsions:
  status: ('A' for Active; 'I' for Inactive)
    1  A    between atoms: C_9  and  C_15
                            x       y       z     vdW  Elec       q    Type
                         _______ _______ _______ _____ _____    ______ ____

>  <TORSDO>
F 1

$$$$
=
 OpenBabel10272400573D

 27 31  0  0  1  0  0  0  0  0999 V2000
  188.1060  177.5010  138.7060 C   0  0  0  0  0  2  0  0  0  0  0  0
  189.6420  176.2270  137.1170 C   0  0  0  0  0  0  0  0  0  0  0  0
  191.0810  176.3110  139.1830 N   0  0  0  0  0  2  0  0  0  0  0  0
  193.2360  176.1630  134.9390 N   0  0  0  0  0  2  0  0  0  0  0  0
  195.3980  176.1880  135.8660 O   0  0  0  0  0  0  0  0  0  0  0  0
  189.5820  176.2380  135.7040 C   0  0  0  0  0  3  0  0  0  0  0  0
  193.4910  176.1450  137.3790 C   0  0  2  0  0  3  0  0  0  0  0  0
  189.5680  176.8430  142.6560 C   0  0  0  0  0  2  0  0  0  0  0  0
  193.8150  174.8440  138.0930 C   0  0  0  0  0  1  0  0  0  0  0  0
  188.2660  176.7720  142.1330 O   0  0  0  0  0  0  0  0  0  0  0  0
  192.0600  176.1530  136.9520 C   0  0  0  0  0  0  0  0  0  0  0  0
  188.3630  176.2060  137.9290 C   0  0  2  0  0  3  0  0  0  0  0  0
  194.1510  176.1610  136.0330 C   0  0  0  0  0  0  0  0  0  0  0  0
  191.9710  176.1620  135.5760 C   0  0  0  0  0  0  0  0  0  0  0  0
  189.2400  177.8610  139.6710 C   0  0  1  0  0  3  0  0  0  0  0  0
  190.9150  176.2110  137.7570 C   0  0  0  0  0  0  0  0  0  0  0  0
  190.6290  176.7360  141.5470 C   0  0  0  0  0  2  0  0  0  0  0  0
  190.7440  176.2120  134.9240 C   0  0  0  0  0  3  0  0  0  0  0  0
  187.8520  178.0850  141.8360 C   0  0  0  0  0  2  0  0  0  0  0  0
  188.7320  178.7860  140.7850 C   0  0  0  0  0  2  0  0  0  0  0  0
  190.0260  176.6150  140.1430 C   0  0  2  0  0  3  0  0  0  0  0  0
  184.8320  174.9060  135.8410 C   0  0  0  0  0  3  0  0  0  0  0  0
  187.1430  175.7360  137.1890 C   0  0  0  0  0  0  0  0  0  0  0  0
  186.9020  174.3700  136.9760 C   0  0  0  0  0  3  0  0  0  0  0  0
  185.7500  173.9570  136.3010 C   0  0  0  0  0  3  0  0  0  0  0  0
  185.0650  176.2670  136.0560 C   0  0  0  0  0  3  0  0  0  0  0  0
  186.2180  176.6810  136.7310 C   0  0  0  0  0  3  0  0  0  0  0  0
  2 16  1  0  0  0  0
  2 12  1  0  0  0  0
  3 21  1  0  0  0  0
  4 14  1  0  0  0  0
  4 13  1  0  0  0  0
  5 13  2  0  0  0  0
  6  2  2  0  0  0  0
  7  9  1  6  0  0  0
 10  8  1  0  0  0  0
 11  7  1  0  0  0  0
 11 16  2  0  0  0  0
 12 23  1  6  0  0  0
 12  1  1  0  0  0  0
 13  7  1  0  0  0  0
 14 11  1  0  0  0  0
 15  1  1  1  0  0  0
 15 21  1  0  0  0  0
 15 20  1  0  0  0  0
 16  3  1  0  0  0  0
 17  8  1  0  0  0  0
 18 14  2  0  0  0  0
 18  6  1  0  0  0  0
 19 10  1  0  0  0  0
 20 19  1  0  0  0  0
 21 17  1  1  0  0  0
 22 26  2  0  0  0  0
 22 25  1  0  0  0  0
 24 23  1  0  0  0  0
 25 24  2  0  0  0  0
 26 27  1  0  0  0  0
 27 23  2  0  0  0  0
M  END
>  <MODEL>
6

>  <REMARK>
 VINA RESULT:      -6.2      2.355      6.654
  Name = 
  1 active torsions:
  status: ('A' for Active; 'I' for Inactive)
    1  A    between atoms: C_9  and  C_15
                            x       y       z     vdW  Elec       q    Type
                         _______ _______ _______ _____ _____    ______ ____

>  <TORSDO>
F 1

$$$$
=
 OpenBabel10272400573D

 27 31  0  0  1  0  0  0  0  0999 V2000
  184.3150  177.7120  137.8070 C   0  0  0  0  0  2  0  0  0  0  0  0
  184.6580  178.6490  140.1550 C   0  0  0  0  0  0  0  0  0  0  0  0
  187.0490  178.2790  139.4510 N   0  0  0  0  0  2  0  0  0  0  0  0
  185.9920  177.9840  144.0850 N   0  0  0  0  0  2  0  0  0  0  0  0
  188.2110  177.5250  144.7180 O   0  0  0  0  0  0  0  0  0  0  0  0
  183.7100  178.6480  141.2050 C   0  0  0  0  0  3  0  0  0  0  0  0
  187.7430  177.9540  142.3670 C   0  0  2  0  0  3  0  0  0  0  0  0
  188.0390  178.0670  135.7630 C   0  0  0  0  0  2  0  0  0  0  0  0
  188.6440  179.1640  142.1880 C   0  0  0  0  0  1  0  0  0  0  0  0
  186.7330  178.3990  135.3620 O   0  0  0  0  0  0  0  0  0  0  0  0
  186.3890  178.2330  141.8020 C   0  0  0  0  0  0  0  0  0  0  0  0
  184.2140  178.9280  138.7350 C   0  0  2  0  0  3  0  0  0  0  0  0
  187.3800  177.8030  143.8140 C   0  0  0  0  0  0  0  0  0  0  0  0
  185.4430  178.2410  142.8050 C   0  0  0  0  0  0  0  0  0  0  0  0
  185.7310  177.1330  137.7260 C   0  0  1  0  0  3  0  0  0  0  0  0
  186.0290  178.4090  140.4590 C   0  0  0  0  0  0  0  0  0  0  0  0
  188.1490  177.9570  137.2930 C   0  0  0  0  0  2  0  0  0  0  0  0
  184.0940  178.4380  142.5350 C   0  0  0  0  0  3  0  0  0  0  0  0
  186.0290  177.1950  135.1610 C   0  0  0  0  0  2  0  0  0  0  0  0
  185.9150  176.3300  136.4310 C   0  0  0  0  0  2  0  0  0  0  0  0
  186.8170  178.1950  138.0140 C   0  0  2  0  0  3  0  0  0  0  0  0
  180.4190  180.9110  138.3060 C   0  0  0  0  0  3  0  0  0  0  0  0
  182.8940  179.6330  138.6040 C   0  0  0  0  0  0  0  0  0  0  0  0
  182.7800  181.0140  138.8320 C   0  0  0  0  0  3  0  0  0  0  0  0
  181.5440  181.6500  138.6850 C   0  0  0  0  0  3  0  0  0  0  0  0
  180.5290  179.5380  138.0720 C   0  0  0  0  0  3  0  0  0  0  0  0
  181.7650  178.9010  138.2190 C   0  0  0  0  0  3  0  0  0  0  0  0
  1 12  1  0  0  0  0
  2 16  2  0  0  0  0
  2  6  1  0  0  0  0
  3 16  1  0  0  0  0
  6 18  2  0  0  0  0
  7  9  1  1  0  0  0
  7 13  1  0  0  0  0
  8 17  1  0  0  0  0
 10  8  1  0  0  0  0
 11  7  1  0  0  0  0
 11 14  2  0  0  0  0
 12 23  1  1  0  0  0
 12  2  1  0  0  0  0
 13  4  1  0  0  0  0
 13  5  2  0  0  0  0
 14  4  1  0  0  0  0
 15 20  1  6  0  0  0
 15  1  1  0  0  0  0
 15 21  1  0  0  0  0
 16 11  1  0  0  0  0
 18 14  1  0  0  0  0
 19 10  1  0  0  0  0
 19 20  1  0  0  0  0
 21 17  1  6  0  0  0
 21  3  1  0  0  0  0
 22 25  1  0  0  0  0
 23 24  1  0  0  0  0
 25 24  2  0  0  0  0
 26 27  1  0  0  0  0
 26 22  2  0  0  0  0
 27 23  2  0  0  0  0
M  END
>  <MODEL>
7

>  <REMARK>
 VINA RESULT:      -6.1      4.015      7.683
  Name = 
  1 active torsions:
  status: ('A' for Active; 'I' for Inactive)
    1  A    between atoms: C_9  and  C_15
                            x       y       z     vdW  Elec       q    Type
                         _______ _______ _______ _____ _____    ______ ____

>  <TORSDO>
F 1

$$$$
=
 OpenBabel10272400573D

 27 31  0  0  1  0  0  0  0  0999 V2000
  182.8770  177.2720  138.1890 C   0  0  0  0  0  2  0  0  0  0  0  0
  184.5950  178.6450  139.4830 C   0  0  0  0  0  0  0  0  0  0  0  0
  186.0590  177.6320  137.7000 N   0  0  0  0  0  2  0  0  0  0  0  0
  188.0230  178.6650  141.9140 N   0  0  0  0  0  2  0  0  0  0  0  0
  190.1600  177.9190  141.2720 O   0  0  0  0  0  0  0  0  0  0  0  0
  184.4780  179.0880  140.8210 C   0  0  0  0  0  3  0  0  0  0  0  0
  188.3720  177.8680  139.6200 C   0  0  2  0  0  3  0  0  0  0  0  0
  184.6050  176.3560  134.4010 C   0  0  0  0  0  2  0  0  0  0  0  0
  189.0070  178.7870  138.5910 C   0  0  0  0  0  1  0  0  0  0  0  0
  183.3310  176.8460  134.7380 O   0  0  0  0  0  0  0  0  0  0  0  0
  186.9590  178.2800  139.8760 C   0  0  0  0  0  0  0  0  0  0  0  0
  183.3870  178.6670  138.5700 C   0  0  2  0  0  3  0  0  0  0  0  0
  188.9580  178.1410  140.9730 C   0  0  0  0  0  0  0  0  0  0  0  0
  186.8170  178.7210  141.1750 C   0  0  0  0  0  0  0  0  0  0  0  0
  183.9400  176.4100  137.5010 C   0  0  1  0  0  3  0  0  0  0  0  0
  185.8630  178.2040  139.0060 C   0  0  0  0  0  0  0  0  0  0  0  0
  185.6180  176.5890  135.5350 C   0  0  0  0  0  2  0  0  0  0  0  0
  185.5850  179.1230  141.6770 C   0  0  0  0  0  3  0  0  0  0  0  0
  182.6230  175.8020  135.3640 C   0  0  0  0  0  2  0  0  0  0  0  0
  183.2820  175.3040  136.6640 C   0  0  0  0  0  2  0  0  0  0  0  0
  185.0020  177.2610  136.7670 C   0  0  2  0  0  3  0  0  0  0  0  0
  180.1580  181.2270  139.8090 C   0  0  0  0  0  3  0  0  0  0  0  0
  182.2740  179.5780  139.0030 C   0  0  0  0  0  0  0  0  0  0  0  0
  182.1390  180.8680  138.4650 C   0  0  0  0  0  3  0  0  0  0  0  0
  181.0840  181.6910  138.8700 C   0  0  0  0  0  3  0  0  0  0  0  0
  180.2850  179.9420  140.3420 C   0  0  0  0  0  3  0  0  0  0  0  0
  181.3400  179.1180  139.9380 C   0  0  0  0  0  3  0  0  0  0  0  0
  1 12  1  0  0  0  0
  2  6  1  0  0  0  0
  3 16  1  0  0  0  0
  6 18  2  0  0  0  0
  7  9  1  6  0  0  0
  7 11  1  0  0  0  0
  7 13  1  0  0  0  0
  8 10  1  0  0  0  0
  8 17  1  0  0  0  0
 10 19  1  0  0  0  0
 11 14  2  0  0  0  0
 12 23  1  1  0  0  0
 12  2  1  0  0  0  0
 13  5  2  0  0  0  0
 13  4  1  0  0  0  0
 14 18  1  0  0  0  0
 14  4  1  0  0  0  0
 15 20  1  6  0  0  0
 15  1  1  0  0  0  0
 16  2  2  0  0  0  0
 16 11  1  0  0  0  0
 19 20  1  0  0  0  0
 21 17  1  6  0  0  0
 21 15  1  0  0  0  0
 21  3  1  0  0  0  0
 22 26  1  0  0  0  0
 23 27  1  0  0  0  0
 24 25  1  0  0  0  0
 24 23  2  0  0  0  0
 25 22  2  0  0  0  0
 27 26  2  0  0  0  0
M  END
>  <MODEL>
8

>  <REMARK>
 VINA RESULT:      -6.0      3.862      7.931
  Name = 
  1 active torsions:
  status: ('A' for Active; 'I' for Inactive)
    1  A    between atoms: C_9  and  C_15
                            x       y       z     vdW  Elec       q    Type
                         _______ _______ _______ _____ _____    ______ ____

>  <TORSDO>
F 1

$$$$
=
 OpenBabel10272400573D

 27 31  0  0  1  0  0  0  0  0999 V2000
  189.7130  177.9720  140.1870 C   0  0  0  0  0  2  0  0  0  0  0  0
  187.2180  178.0900  140.7080 C   0  0  0  0  0  0  0  0  0  0  0  0
  187.1700  176.9120  138.4820 N   0  0  0  0  0  2  0  0  0  0  0  0
  183.4430  179.6240  139.6780 N   0  0  0  0  0  2  0  0  0  0  0  0
  182.2770  179.1660  137.6870 O   0  0  0  0  0  0  0  0  0  0  0  0
  186.5890  178.9990  141.5910 C   0  0  0  0  0  3  0  0  0  0  0  0
  184.4170  178.0650  138.0530 C   0  0  2  0  0  3  0  0  0  0  0  0
  190.2180  175.0210  137.1520 C   0  0  0  0  0  2  0  0  0  0  0  0
  183.9290  176.6280  138.0020 C   0  0  0  0  0  1  0  0  0  0  0  0
  190.9120  175.2320  138.3560 O   0  0  0  0  0  0  0  0  0  0  0  0
  185.2900  178.2680  139.2490 C   0  0  0  0  0  0  0  0  0  0  0  0
  188.5590  177.4880  141.0720 C   0  0  2  0  0  3  0  0  0  0  0  0
  183.2820  178.9730  138.4200 C   0  0  0  0  0  0  0  0  0  0  0  0
  184.6990  179.1490  140.1300 C   0  0  0  0  0  0  0  0  0  0  0  0
  189.4880  177.6920  138.6980 C   0  0  1  0  0  3  0  0  0  0  0  0
  186.5640  177.7370  139.4930 C   0  0  0  0  0  0  0  0  0  0  0  0
  188.8390  175.7040  137.1680 C   0  0  0  0  0  2  0  0  0  0  0  0
  185.3290  179.5380  141.3060 C   0  0  0  0  0  3  0  0  0  0  0  0
  191.6740  176.4070  138.2100 C   0  0  0  0  0  2  0  0  0  0  0  0
  190.8240  177.6630  137.9440 C   0  0  0  0  0  2  0  0  0  0  0  0
  188.5620  176.4760  138.4630 C   0  0  2  0  0  3  0  0  0  0  0  0
  189.4910  177.6290  145.2710 C   0  0  0  0  0  3  0  0  0  0  0  0
  188.9070  177.5350  142.5330 C   0  0  0  0  0  0  0  0  0  0  0  0
  190.0190  178.2580  142.9930 C   0  0  0  0  0  3  0  0  0  0  0  0
  190.3100  178.3020  144.3600 C   0  0  0  0  0  3  0  0  0  0  0  0
  188.3800  176.9130  144.8170 C   0  0  0  0  0  3  0  0  0  0  0  0
  188.0870  176.8680  143.4510 C   0  0  0  0  0  3  0  0  0  0  0  0
  1 12  1  0  0  0  0
  2 12  1  0  0  0  0
  2  6  1  0  0  0  0
  3 16  1  0  0  0  0
  4 14  1  0  0  0  0
  5 13  2  0  0  0  0
  7  9  1  1  0  0  0
  7 13  1  0  0  0  0
  7 11  1  0  0  0  0
  8 17  1  0  0  0  0
  8 10  1  0  0  0  0
 11 16  1  0  0  0  0
 11 14  2  0  0  0  0
 12 23  1  1  0  0  0
 13  4  1  0  0  0  0
 14 18  1  0  0  0  0
 15 20  1  6  0  0  0
 15  1  1  0  0  0  0
 16  2  2  0  0  0  0
 18  6  2  0  0  0  0
 19 10  1  0  0  0  0
 20 19  1  0  0  0  0
 21 17  1  6  0  0  0
 21  3  1  0  0  0  0
 21 15  1  0  0  0  0
 23 24  2  0  0  0  0
 23 27  1  0  0  0  0
 24 25  1  0  0  0  0
 25 22  2  0  0  0  0
 26 22  1  0  0  0  0
 27 26  2  0  0  0  0
M  END
>  <MODEL>
9

>  <REMARK>
 VINA RESULT:      -5.9      2.090      2.992
  Name = 
  1 active torsions:
  status: ('A' for Active; 'I' for Inactive)
    1  A    between atoms: C_9  and  C_15
                            x       y       z     vdW  Elec       q    Type
                         _______ _______ _______ _____ _____    ______ ____

>  <TORSDO>
F 1

$$$$
