=
 OpenBabel10272413183D

 32 34  0  0  1  0  0  0  0  0999 V2000
  185.0870  178.4090  144.8460 C   0  0  0  0  0  0  0  0  0  0  0  0
  184.3690  178.7730  145.9770 O   0  0  0  0  0  1  0  0  0  0  0  0
  186.7810  178.0400  142.5870 C   0  0  0  0  0  2  0  0  0  0  0  0
  186.3940  177.6810  145.0190 C   0  0  0  0  0  2  0  0  0  0  0  0
  185.3130  178.3920  142.3580 C   0  0  1  0  0  3  0  0  0  0  0  0
  184.6310  178.7760  143.6430 C   0  0  0  0  0  3  0  0  0  0  0  0
  186.8890  177.0350  143.7250 C   0  0  2  0  0  3  0  0  0  0  0  0
  185.1730  179.5250  141.3510 C   0  0  0  0  0  2  0  0  0  0  0  0
  182.7430  178.7180  140.5140 O   0  0  0  0  0  0  0  0  0  0  0  0
  183.9810  180.2390  139.0510 O   0  0  0  0  0  0  0  0  0  0  0  0
  184.1060  179.0720  139.9900 S   0  0  0  0  0  0  0  0  0  0  0  0
  184.7630  177.7080  139.1440 N   0  0  0  0  0  2  0  0  0  0  0  0
  185.4300  178.1970  137.9410 C   0  0  2  0  0  3  0  0  0  0  0  0
  185.1870  177.3070  136.8320 N   0  0  0  0  0  0  0  0  0  0  0  0
  184.6990  176.1780  137.0240 N   0  0  0  0  0  2  0  0  0  0  0  0
  186.8690  178.3640  138.1670 N   0  0  0  0  0  2  0  0  0  0  0  0
  187.5670  178.5440  136.8990 C   0  0  0  0  0  3  0  0  0  0  0  0
  188.9830  179.0140  137.1710 C   0  0  0  0  0  2  0  0  0  0  0  0
  188.7210  177.5650  136.8220 C   0  0  0  0  0  2  0  0  0  0  0  0
  188.3320  176.6030  143.8890 C   0  0  0  0  0  2  0  0  0  0  0  0
  189.2560  177.8020  143.7100 C   0  0  0  0  0  2  0  0  0  0  0  0
  190.5160  177.4560  142.9100 C   0  0  2  0  0  3  0  0  0  0  0  0
  191.0640  176.3360  139.3550 C   0  0  0  0  0  1  0  0  0  0  0  0
  190.9070  177.3580  140.4610 C   0  0  1  0  0  3  0  0  0  0  0  0
  189.4330  177.6310  140.6820 C   0  0  0  0  0  2  0  0  0  0  0  0
  190.1800  176.7100  141.6240 C   0  0  2  0  0  3  0  0  0  0  0  0
  191.5070  176.6620  143.7510 C   0  0  0  0  0  2  0  0  0  0  0  0
  191.6520  177.3000  145.1240 C   0  0  0  0  0  2  0  0  0  0  0  0
  191.7300  176.2360  146.2050 C   0  0  0  0  0  2  0  0  0  0  0  0
  191.0770  176.7260  147.4840 C   0  0  0  0  0  2  0  0  0  0  0  0
  189.0360  178.0090  148.0170 C   0  0  0  0  0  1  0  0  0  0  0  0
  189.5790  176.8020  147.2850 C   0  0  0  0  0  2  0  0  0  0  0  0
  1  4  1  0  0  0  0
  1  2  1  0  0  0  0
  3  7  1  0  0  0  0
  5  8  1  6  0  0  0
  5  3  1  0  0  0  0
  5  6  1  0  0  0  0
  6  1  2  0  0  0  0
  7 20  1  1  0  0  0
  7  4  1  0  0  0  0
 10 11  2  0  0  0  0
 11  9  2  0  0  0  0
 11  8  1  0  0  0  0
 12 11  1  0  0  0  0
 13 14  1  6  0  0  0
 13 16  1  0  0  0  0
 13 12  1  0  0  0  0
 14 15  2  0  0  0  0
 17 18  1  0  0  0  0
 17 16  1  0  0  0  0
 19 17  1  0  0  0  0
 19 18  1  0  0  0  0
 21 20  1  0  0  0  0
 22 21  1  1  0  0  0
 22 27  1  0  0  0  0
 24 23  1  6  0  0  0
 24 25  1  0  0  0  0
 24 26  1  0  0  0  0
 25 26  1  0  0  0  0
 26 22  1  1  0  0  0
 27 28  1  0  0  0  0
 28 29  1  0  0  0  0
 29 30  1  0  0  0  0
 32 30  1  0  0  0  0
 32 31  1  0  0  0  0
M  END
>  <MODEL>
1

>  <REMARK>
 VINA RESULT:      -7.2      0.000      0.000
  Name = 
  16 active torsions:
  status: ('A' for Active; 'I' for Inactive)
    1  A    between atoms: C_1  and  N_30
    2  A    between atoms: N_2  and  C_5
    3  A    between atoms: N_2  and  S_27
    4  A    between atoms: C_5  and  N_14
    5  A    between atoms: C_5  and  N_30
    6  A    between atoms: C_6  and  C_9
    7  A    between atoms: C_6  and  C_17
    8  A    between atoms: C_7  and  C_26
    9  A    between atoms: C_7  and  C_31
   10  A    between atoms: C_9  and  C_31
   11  A    between atoms: C_9  and  C_32
   12  A    between atoms: C_16  and  C_20
   13  A    between atoms: C_16  and  S_27
   14  A    between atoms: C_17  and  C_29
   15  A    between atoms: C_18  and  C_25
   16  A    between atoms: C_18  and  C_29
                            x       y       z     vdW  Elec       q    Type
                         _______ _______ _______ _____ _____    ______ ____

>  <TORSDO>
F 16

$$$$
=
 OpenBabel10272413183D

 32 34  0  0  1  0  0  0  0  0999 V2000
  191.3860  177.4700  140.8290 C   0  0  0  0  0  0  0  0  0  0  0  0
  192.7460  177.2450  140.6690 O   0  0  0  0  0  1  0  0  0  0  0  0
  188.5560  177.4910  141.1470 C   0  0  0  0  0  2  0  0  0  0  0  0
  190.8010  177.4230  142.2170 C   0  0  0  0  0  2  0  0  0  0  0  0
  189.1520  177.9470  139.8170 C   0  0  1  0  0  3  0  0  0  0  0  0
  190.6250  177.6530  139.7440 C   0  0  0  0  0  3  0  0  0  0  0  0
  189.4010  178.0310  142.2910 C   0  0  2  0  0  3  0  0  0  0  0  0
  188.4430  177.2850  138.6440 C   0  0  0  0  0  2  0  0  0  0  0  0
  189.1340  179.6030  137.4580 O   0  0  0  0  0  0  0  0  0  0  0  0
  188.6050  177.7130  135.9960 O   0  0  0  0  0  0  0  0  0  0  0  0
  188.2350  178.4130  137.2740 S   0  0  0  0  0  0  0  0  0  0  0  0
  186.5890  178.9520  137.1900 N   0  0  0  0  0  2  0  0  0  0  0  0
  185.8000  178.1550  138.1250 C   0  0  2  0  0  3  0  0  0  0  0  0
  184.8220  177.3670  137.4150 N   0  0  0  0  0  0  0  0  0  0  0  0
  185.0040  176.1490  137.2330 N   0  0  0  0  0  2  0  0  0  0  0  0
  185.1530  179.0050  139.1280 N   0  0  0  0  0  2  0  0  0  0  0  0
  184.9040  178.2510  140.3520 C   0  0  0  0  0  3  0  0  0  0  0  0
  185.2650  179.1090  141.5490 C   0  0  0  0  0  2  0  0  0  0  0  0
  183.8150  178.9400  141.1490 C   0  0  0  0  0  2  0  0  0  0  0  0
  188.7570  177.6690  143.6150 C   0  0  0  0  0  2  0  0  0  0  0  0
  189.4100  178.4600  144.7430 C   0  0  0  0  0  2  0  0  0  0  0  0
  189.3560  177.7210  146.0830 C   0  0  2  0  0  3  0  0  0  0  0  0
  191.9770  175.4710  147.5850 C   0  0  0  0  0  1  0  0  0  0  0  0
  191.4080  176.7970  147.1310 C   0  0  1  0  0  3  0  0  0  0  0  0
  191.6880  176.9820  145.6540 C   0  0  0  0  0  2  0  0  0  0  0  0
  190.3150  176.5370  146.1130 C   0  0  2  0  0  3  0  0  0  0  0  0
  187.9380  177.2770  146.4160 C   0  0  0  0  0  2  0  0  0  0  0  0
  187.4130  178.0600  147.6080 C   0  0  0  0  0  2  0  0  0  0  0  0
  186.2690  178.9680  147.1930 C   0  0  0  0  0  2  0  0  0  0  0  0
  185.3440  178.2530  146.2260 C   0  0  0  0  0  2  0  0  0  0  0  0
  183.4220  178.8880  144.8110 C   0  0  0  0  0  1  0  0  0  0  0  0
  184.8450  179.2370  145.1900 C   0  0  0  0  0  2  0  0  0  0  0  0
  1  4  1  0  0  0  0
  2  1  1  0  0  0  0
  3  7  1  0  0  0  0
  4  7  1  0  0  0  0
  5  8  1  6  0  0  0
  5  3  1  0  0  0  0
  6  5  1  0  0  0  0
  6  1  2  0  0  0  0
  7 20  1  1  0  0  0
 10 11  2  0  0  0  0
 11  9  2  0  0  0  0
 11  8  1  0  0  0  0
 12 11  1  0  0  0  0
 13 12  1  6  0  0  0
 13 16  1  0  0  0  0
 14 13  1  0  0  0  0
 15 14  2  0  0  0  0
 16 17  1  0  0  0  0
 17 19  1  0  0  0  0
 17 18  1  0  0  0  0
 19 18  1  0  0  0  0
 20 21  1  0  0  0  0
 22 21  1  6  0  0  0
 22 27  1  0  0  0  0
 24 23  1  6  0  0  0
 25 26  1  0  0  0  0
 25 24  1  0  0  0  0
 26 22  1  1  0  0  0
 26 24  1  0  0  0  0
 27 28  1  0  0  0  0
 29 28  1  0  0  0  0
 30 29  1  0  0  0  0
 31 32  1  0  0  0  0
 32 30  1  0  0  0  0
M  END
>  <MODEL>
2

>  <REMARK>
 VINA RESULT:      -7.0      2.805      5.287
  Name = 
  16 active torsions:
  status: ('A' for Active; 'I' for Inactive)
    1  A    between atoms: C_1  and  N_30
    2  A    between atoms: N_2  and  C_5
    3  A    between atoms: N_2  and  S_27
    4  A    between atoms: C_5  and  N_14
    5  A    between atoms: C_5  and  N_30
    6  A    between atoms: C_6  and  C_9
    7  A    between atoms: C_6  and  C_17
    8  A    between atoms: C_7  and  C_26
    9  A    between atoms: C_7  and  C_31
   10  A    between atoms: C_9  and  C_31
   11  A    between atoms: C_9  and  C_32
   12  A    between atoms: C_16  and  C_20
   13  A    between atoms: C_16  and  S_27
   14  A    between atoms: C_17  and  C_29
   15  A    between atoms: C_18  and  C_25
   16  A    between atoms: C_18  and  C_29
                            x       y       z     vdW  Elec       q    Type
                         _______ _______ _______ _____ _____    ______ ____

>  <TORSDO>
F 16

$$$$
=
 OpenBabel10272413183D

 32 34  0  0  1  0  0  0  0  0999 V2000
  182.0600  178.7800  142.0850 C   0  0  0  0  0  0  0  0  0  0  0  0
  180.6990  178.9670  142.2850 O   0  0  0  0  0  1  0  0  0  0  0  0
  184.8650  178.8300  141.5930 C   0  0  0  0  0  2  0  0  0  0  0  0
  183.0040  179.0290  143.2330 C   0  0  0  0  0  2  0  0  0  0  0  0
  183.9460  178.1850  140.5580 C   0  0  1  0  0  3  0  0  0  0  0  0
  182.4970  178.4520  140.8640 C   0  0  0  0  0  3  0  0  0  0  0  0
  184.3970  178.4500  142.9900 C   0  0  2  0  0  3  0  0  0  0  0  0
  184.2690  178.6800  139.1560 C   0  0  0  0  0  2  0  0  0  0  0  0
  183.5760  176.1360  138.6030 O   0  0  0  0  0  0  0  0  0  0  0  0
  182.9790  177.8420  136.9520 O   0  0  0  0  0  0  0  0  0  0  0  0
  184.0320  177.4010  137.9300 S   0  0  0  0  0  0  0  0  0  0  0  0
  185.5180  177.0940  137.0910 N   0  0  0  0  0  2  0  0  0  0  0  0
  186.5150  178.0490  137.5690 C   0  0  2  0  0  3  0  0  0  0  0  0
  187.1620  178.7020  136.4570 N   0  0  0  0  0  0  0  0  0  0  0  0
  187.2660  178.1230  135.3600 N   0  0  0  0  0  2  0  0  0  0  0  0
  187.5020  177.3930  138.4320 N   0  0  0  0  0  2  0  0  0  0  0  0
  188.5210  178.3470  138.8570 C   0  0  0  0  0  3  0  0  0  0  0  0
  188.4990  178.4590  140.3690 C   0  0  0  0  0  2  0  0  0  0  0  0
  189.5630  177.6250  139.6880 C   0  0  0  0  0  2  0  0  0  0  0  0
  185.3640  179.0020  144.0190 C   0  0  0  0  0  2  0  0  0  0  0  0
  185.5640  177.9890  145.1400 C   0  0  0  0  0  2  0  0  0  0  0  0
  186.9890  177.4290  145.1780 C   0  0  2  0  0  3  0  0  0  0  0  0
  189.5330  177.6600  147.9460 C   0  0  0  0  0  1  0  0  0  0  0  0
  188.2690  177.1540  147.2870 C   0  0  1  0  0  3  0  0  0  0  0  0
  187.1400  178.1280  147.5560 C   0  0  0  0  0  2  0  0  0  0  0  0
  187.8460  178.1420  146.2170 C   0  0  2  0  0  3  0  0  0  0  0  0
  187.6450  177.4870  143.8040 C   0  0  0  0  0  2  0  0  0  0  0  0
  188.1040  176.1000  143.3870 C   0  0  0  0  0  2  0  0  0  0  0  0
  189.5740  176.1110  143.0080 C   0  0  0  0  0  2  0  0  0  0  0  0
  190.4100  176.7040  144.1270 C   0  0  0  0  0  2  0  0  0  0  0  0
  190.9730  179.1030  143.9660 C   0  0  0  0  0  1  0  0  0  0  0  0
  191.3830  177.7070  143.5480 C   0  0  0  0  0  2  0  0  0  0  0  0
  1  2  1  0  0  0  0
  1  4  1  0  0  0  0
  3  7  1  0  0  0  0
  5  8  1  6  0  0  0
  5  6  1  0  0  0  0
  5  3  1  0  0  0  0
  6  1  2  0  0  0  0
  7  4  1  0  0  0  0
  7 20  1  1  0  0  0
 10 11  2  0  0  0  0
 11  9  2  0  0  0  0
 11  8  1  0  0  0  0
 12 13  1  0  0  0  0
 12 11  1  0  0  0  0
 13 14  1  6  0  0  0
 13 16  1  0  0  0  0
 15 14  2  0  0  0  0
 16 17  1  0  0  0  0
 17 19  1  0  0  0  0
 17 18  1  0  0  0  0
 19 18  1  0  0  0  0
 20 21  1  0  0  0  0
 21 22  1  0  0  0  0
 22 27  1  6  0  0  0
 24 25  1  0  0  0  0
 24 23  1  1  0  0  0
 26 22  1  6  0  0  0
 26 24  1  0  0  0  0
 26 25  1  0  0  0  0
 28 27  1  0  0  0  0
 29 28  1  0  0  0  0
 29 30  1  0  0  0  0
 32 31  1  0  0  0  0
 32 30  1  0  0  0  0
M  END
>  <MODEL>
3

>  <REMARK>
 VINA RESULT:      -7.0      1.843      4.103
  Name = 
  16 active torsions:
  status: ('A' for Active; 'I' for Inactive)
    1  A    between atoms: C_1  and  N_30
    2  A    between atoms: N_2  and  C_5
    3  A    between atoms: N_2  and  S_27
    4  A    between atoms: C_5  and  N_14
    5  A    between atoms: C_5  and  N_30
    6  A    between atoms: C_6  and  C_9
    7  A    between atoms: C_6  and  C_17
    8  A    between atoms: C_7  and  C_26
    9  A    between atoms: C_7  and  C_31
   10  A    between atoms: C_9  and  C_31
   11  A    between atoms: C_9  and  C_32
   12  A    between atoms: C_16  and  C_20
   13  A    between atoms: C_16  and  S_27
   14  A    between atoms: C_17  and  C_29
   15  A    between atoms: C_18  and  C_25
   16  A    between atoms: C_18  and  C_29
                            x       y       z     vdW  Elec       q    Type
                         _______ _______ _______ _____ _____    ______ ____

>  <TORSDO>
F 16

$$$$
=
 OpenBabel10272413183D

 32 34  0  0  1  0  0  0  0  0999 V2000
  184.9010  178.5570  145.0500 C   0  0  0  0  0  0  0  0  0  0  0  0
  184.1140  178.9910  146.1080 O   0  0  0  0  0  1  0  0  0  0  0  0
  186.7500  178.0320  142.9490 C   0  0  0  0  0  2  0  0  0  0  0  0
  186.1520  177.7730  145.3510 C   0  0  0  0  0  2  0  0  0  0  0  0
  185.3250  178.4460  142.5910 C   0  0  1  0  0  3  0  0  0  0  0  0
  184.5620  178.9040  143.8040 C   0  0  0  0  0  3  0  0  0  0  0  0
  186.7160  177.0620  144.1210 C   0  0  2  0  0  3  0  0  0  0  0  0
  185.3220  179.5490  141.5430 C   0  0  0  0  0  2  0  0  0  0  0  0
  183.7250  177.8940  140.1410 O   0  0  0  0  0  0  0  0  0  0  0  0
  184.1910  180.0890  139.1650 O   0  0  0  0  0  0  0  0  0  0  0  0
  184.7780  178.9490  139.9500 S   0  0  0  0  0  0  0  0  0  0  0  0
  186.1140  178.2660  139.0800 N   0  0  0  0  0  2  0  0  0  0  0  0
  185.7170  178.1110  137.6840 C   0  0  2  0  0  3  0  0  0  0  0  0
  185.2670  176.7630  137.4350 N   0  0  0  0  0  0  0  0  0  0  0  0
  184.7870  176.4520  136.3290 N   0  0  0  0  0  2  0  0  0  0  0  0
  186.8150  178.4670  136.7810 N   0  0  0  0  0  2  0  0  0  0  0  0
  188.0800  177.9400  137.2840 C   0  0  0  0  0  3  0  0  0  0  0  0
  189.1170  177.9910  136.1790 C   0  0  0  0  0  2  0  0  0  0  0  0
  189.1210  179.0420  137.2680 C   0  0  0  0  0  2  0  0  0  0  0  0
  188.1180  176.5680  144.4150 C   0  0  0  0  0  2  0  0  0  0  0  0
  188.8840  177.6200  145.2080 C   0  0  0  0  0  2  0  0  0  0  0  0
  190.4020  177.4670  145.0710 C   0  0  2  0  0  3  0  0  0  0  0  0
  192.5010  175.8750  147.7640 C   0  0  0  0  0  1  0  0  0  0  0  0
  191.3560  175.9360  146.7760 C   0  0  1  0  0  3  0  0  0  0  0  0
  190.1860  176.6610  147.4100 C   0  0  0  0  0  2  0  0  0  0  0  0
  191.0840  177.3880  146.4320 C   0  0  2  0  0  3  0  0  0  0  0  0
  190.9990  178.5880  144.2320 C   0  0  0  0  0  2  0  0  0  0  0  0
  191.9040  178.0080  143.1570 C   0  0  0  0  0  2  0  0  0  0  0  0
  191.1880  176.9150  142.3830 C   0  0  0  0  0  2  0  0  0  0  0  0
  190.1140  177.5090  141.4910 C   0  0  0  0  0  2  0  0  0  0  0  0
  191.5720  177.0110  139.5610 C   0  0  0  0  0  1  0  0  0  0  0  0
  190.1770  176.8560  140.1270 C   0  0  0  0  0  2  0  0  0  0  0  0
  1  4  1  0  0  0  0
  1  2  1  0  0  0  0
  3  7  1  0  0  0  0
  5  8  1  6  0  0  0
  5  3  1  0  0  0  0
  5  6  1  0  0  0  0
  6  1  2  0  0  0  0
  7 20  1  1  0  0  0
  7  4  1  0  0  0  0
 10 11  2  0  0  0  0
 11  9  2  0  0  0  0
 11  8  1  0  0  0  0
 12 11  1  0  0  0  0
 13 16  1  6  0  0  0
 13 12  1  0  0  0  0
 14 13  1  0  0  0  0
 15 14  2  0  0  0  0
 16 17  1  0  0  0  0
 18 19  1  0  0  0  0
 18 17  1  0  0  0  0
 19 17  1  0  0  0  0
 20 21  1  0  0  0  0
 22 27  1  1  0  0  0
 22 21  1  0  0  0  0
 24 25  1  0  0  0  0
 24 23  1  1  0  0  0
 26 22  1  6  0  0  0
 26 24  1  0  0  0  0
 26 25  1  0  0  0  0
 28 27  1  0  0  0  0
 29 28  1  0  0  0  0
 30 29  1  0  0  0  0
 31 32  1  0  0  0  0
 32 30  1  0  0  0  0
M  END
>  <MODEL>
4

>  <REMARK>
 VINA RESULT:      -6.9      0.930      3.534
  Name = 
  16 active torsions:
  status: ('A' for Active; 'I' for Inactive)
    1  A    between atoms: C_1  and  N_30
    2  A    between atoms: N_2  and  C_5
    3  A    between atoms: N_2  and  S_27
    4  A    between atoms: C_5  and  N_14
    5  A    between atoms: C_5  and  N_30
    6  A    between atoms: C_6  and  C_9
    7  A    between atoms: C_6  and  C_17
    8  A    between atoms: C_7  and  C_26
    9  A    between atoms: C_7  and  C_31
   10  A    between atoms: C_9  and  C_31
   11  A    between atoms: C_9  and  C_32
   12  A    between atoms: C_16  and  C_20
   13  A    between atoms: C_16  and  S_27
   14  A    between atoms: C_17  and  C_29
   15  A    between atoms: C_18  and  C_25
   16  A    between atoms: C_18  and  C_29
                            x       y       z     vdW  Elec       q    Type
                         _______ _______ _______ _____ _____    ______ ____

>  <TORSDO>
F 16

$$$$
=
 OpenBabel10272413183D

 32 34  0  0  1  0  0  0  0  0999 V2000
  181.9770  178.9300  143.0410 C   0  0  0  0  0  0  0  0  0  0  0  0
  180.6430  179.1690  143.3420 O   0  0  0  0  0  1  0  0  0  0  0  0
  184.7420  178.8770  142.3620 C   0  0  0  0  0  2  0  0  0  0  0  0
  183.0050  179.0730  144.1330 C   0  0  0  0  0  2  0  0  0  0  0  0
  183.7270  178.3310  141.3610 C   0  0  1  0  0  3  0  0  0  0  0  0
  182.3160  178.6480  141.7780 C   0  0  0  0  0  3  0  0  0  0  0  0
  184.3490  178.4450  143.7670 C   0  0  2  0  0  3  0  0  0  0  0  0
  183.9810  178.8860  139.9670 C   0  0  0  0  0  2  0  0  0  0  0  0
  182.9140  176.5080  139.2840 O   0  0  0  0  0  0  0  0  0  0  0  0
  182.8900  178.2730  137.5880 O   0  0  0  0  0  0  0  0  0  0  0  0
  183.6900  177.6570  138.7020 S   0  0  0  0  0  0  0  0  0  0  0  0
  185.1990  177.0680  138.0830 N   0  0  0  0  0  2  0  0  0  0  0  0
  186.0600  178.2160  137.8160 C   0  0  2  0  0  3  0  0  0  0  0  0
  186.6890  178.0860  136.5250 N   0  0  0  0  0  0  0  0  0  0  0  0
  186.0910  177.5320  135.5840 N   0  0  0  0  0  2  0  0  0  0  0  0
  187.0660  178.3760  138.8700 N   0  0  0  0  0  2  0  0  0  0  0  0
  188.4050  178.1490  138.3360 C   0  0  0  0  0  3  0  0  0  0  0  0
  189.4120  178.2160  139.4670 C   0  0  0  0  0  2  0  0  0  0  0  0
  188.9680  176.8720  138.9280 C   0  0  0  0  0  2  0  0  0  0  0  0
  185.4080  178.8950  144.7540 C   0  0  0  0  0  2  0  0  0  0  0  0
  186.1810  177.6890  145.2720 C   0  0  0  0  0  2  0  0  0  0  0  0
  187.6970  177.9090  145.2450 C   0  0  2  0  0  3  0  0  0  0  0  0
  190.3200  176.5710  142.8950 C   0  0  0  0  0  1  0  0  0  0  0  0
  189.1990  177.4990  143.3130 C   0  0  1  0  0  3  0  0  0  0  0  0
  187.8680  176.8430  143.0080 C   0  0  0  0  0  2  0  0  0  0  0  0
  188.4060  176.8390  144.4240 C   0  0  2  0  0  3  0  0  0  0  0  0
  188.2730  177.9790  146.6530 C   0  0  0  0  0  2  0  0  0  0  0  0
  189.0640  176.7160  146.9560 C   0  0  0  0  0  2  0  0  0  0  0  0
  190.4610  177.0600  147.4420 C   0  0  0  0  0  2  0  0  0  0  0  0
  191.5010  176.6200  146.4290 C   0  0  0  0  0  2  0  0  0  0  0  0
  192.8240  175.8630  148.3720 C   0  0  0  0  0  1  0  0  0  0  0  0
  192.3070  175.4750  147.0040 C   0  0  0  0  0  2  0  0  0  0  0  0
  1  2  1  0  0  0  0
  1  4  1  0  0  0  0
  3  7  1  0  0  0  0
  5  8  1  6  0  0  0
  5  6  1  0  0  0  0
  5  3  1  0  0  0  0
  6  1  2  0  0  0  0
  7  4  1  0  0  0  0
  7 20  1  1  0  0  0
 10 11  2  0  0  0  0
 11  9  2  0  0  0  0
 11  8  1  0  0  0  0
 12 11  1  0  0  0  0
 13 14  1  6  0  0  0
 13 12  1  0  0  0  0
 13 16  1  0  0  0  0
 15 14  2  0  0  0  0
 17 16  1  0  0  0  0
 17 19  1  0  0  0  0
 17 18  1  0  0  0  0
 19 18  1  0  0  0  0
 20 21  1  0  0  0  0
 22 21  1  1  0  0  0
 22 27  1  0  0  0  0
 24 23  1  6  0  0  0
 24 26  1  0  0  0  0
 25 24  1  0  0  0  0
 25 26  1  0  0  0  0
 26 22  1  1  0  0  0
 27 28  1  0  0  0  0
 28 29  1  0  0  0  0
 30 32  1  0  0  0  0
 30 29  1  0  0  0  0
 32 31  1  0  0  0  0
M  END
>  <MODEL>
5

>  <REMARK>
 VINA RESULT:      -6.9      1.656      2.900
  Name = 
  16 active torsions:
  status: ('A' for Active; 'I' for Inactive)
    1  A    between atoms: C_1  and  N_30
    2  A    between atoms: N_2  and  C_5
    3  A    between atoms: N_2  and  S_27
    4  A    between atoms: C_5  and  N_14
    5  A    between atoms: C_5  and  N_30
    6  A    between atoms: C_6  and  C_9
    7  A    between atoms: C_6  and  C_17
    8  A    between atoms: C_7  and  C_26
    9  A    between atoms: C_7  and  C_31
   10  A    between atoms: C_9  and  C_31
   11  A    between atoms: C_9  and  C_32
   12  A    between atoms: C_16  and  C_20
   13  A    between atoms: C_16  and  S_27
   14  A    between atoms: C_17  and  C_29
   15  A    between atoms: C_18  and  C_25
   16  A    between atoms: C_18  and  C_29
                            x       y       z     vdW  Elec       q    Type
                         _______ _______ _______ _____ _____    ______ ____

>  <TORSDO>
F 16

$$$$
=
 OpenBabel10272413183D

 32 34  0  0  1  0  0  0  0  0999 V2000
  185.3800  178.4690  145.6060 C   0  0  0  0  0  0  0  0  0  0  0  0
  185.0080  178.8970  146.8730 O   0  0  0  0  0  1  0  0  0  0  0  0
  186.3730  177.9680  142.9850 C   0  0  0  0  0  2  0  0  0  0  0  0
  186.6860  177.7350  145.4420 C   0  0  0  0  0  2  0  0  0  0  0  0
  184.8990  178.3260  143.1590 C   0  0  1  0  0  3  0  0  0  0  0  0
  184.6040  178.7810  144.5620 C   0  0  0  0  0  3  0  0  0  0  0  0
  186.7980  177.0200  144.0960 C   0  0  2  0  0  3  0  0  0  0  0  0
  184.4790  179.4080  142.1750 C   0  0  0  0  0  2  0  0  0  0  0  0
  183.7570  177.2200  140.7790 O   0  0  0  0  0  0  0  0  0  0  0  0
  182.2150  179.1200  140.7550 O   0  0  0  0  0  0  0  0  0  0  0  0
  183.6640  178.7200  140.7410 S   0  0  0  0  0  0  0  0  0  0  0  0
  184.4170  179.3000  139.2900 N   0  0  0  0  0  2  0  0  0  0  0  0
  185.0650  178.1700  138.6310 C   0  0  2  0  0  3  0  0  0  0  0  0
  186.4760  178.4230  138.4660 N   0  0  0  0  0  0  0  0  0  0  0  0
  187.1590  177.7180  137.7020 N   0  0  0  0  0  2  0  0  0  0  0  0
  184.4350  177.8810  137.3390 N   0  0  0  0  0  2  0  0  0  0  0  0
  183.5100  176.7590  137.4630 C   0  0  0  0  0  3  0  0  0  0  0  0
  183.5860  175.9100  136.2090 C   0  0  0  0  0  2  0  0  0  0  0  0
  184.2960  175.4630  137.4690 C   0  0  0  0  0  2  0  0  0  0  0  0
  188.2310  176.5800  143.8710 C   0  0  0  0  0  2  0  0  0  0  0  0
  189.1480  177.7960  143.8350 C   0  0  0  0  0  2  0  0  0  0  0  0
  190.3650  177.5870  142.9290 C   0  0  2  0  0  3  0  0  0  0  0  0
  190.8480  176.3890  139.3900 C   0  0  0  0  0  1  0  0  0  0  0  0
  190.7250  177.4340  140.4780 C   0  0  1  0  0  3  0  0  0  0  0  0
  189.2600  177.7430  140.7110 C   0  0  0  0  0  2  0  0  0  0  0  0
  189.9990  176.8240  141.6620 C   0  0  2  0  0  3  0  0  0  0  0  0
  191.4970  176.8880  143.6720 C   0  0  0  0  0  2  0  0  0  0  0  0
  191.5850  177.4110  145.0960 C   0  0  0  0  0  2  0  0  0  0  0  0
  191.8120  176.2710  146.0740 C   0  0  0  0  0  2  0  0  0  0  0  0
  191.2120  176.6020  147.4280 C   0  0  0  0  0  2  0  0  0  0  0  0
  189.2670  177.9580  148.1160 C   0  0  0  0  0  1  0  0  0  0  0  0
  189.7160  176.7760  147.2840 C   0  0  0  0  0  2  0  0  0  0  0  0
  1  2  1  0  0  0  0
  3  5  1  0  0  0  0
  3  7  1  0  0  0  0
  4  1  1  0  0  0  0
  5  8  1  6  0  0  0
  5  6  1  0  0  0  0
  6  1  2  0  0  0  0
  7 20  1  6  0  0  0
  7  4  1  0  0  0  0
 11 10  2  0  0  0  0
 11  9  2  0  0  0  0
 11  8  1  0  0  0  0
 12 11  1  0  0  0  0
 13 16  1  6  0  0  0
 13 12  1  0  0  0  0
 14 13  1  0  0  0  0
 15 14  2  0  0  0  0
 16 17  1  0  0  0  0
 17 19  1  0  0  0  0
 18 17  1  0  0  0  0
 18 19  1  0  0  0  0
 21 20  1  0  0  0  0
 22 27  1  1  0  0  0
 22 21  1  0  0  0  0
 24 23  1  6  0  0  0
 24 25  1  0  0  0  0
 24 26  1  0  0  0  0
 25 26  1  0  0  0  0
 26 22  1  1  0  0  0
 27 28  1  0  0  0  0
 28 29  1  0  0  0  0
 29 30  1  0  0  0  0
 32 30  1  0  0  0  0
 32 31  1  0  0  0  0
M  END
>  <MODEL>
6

>  <REMARK>
 VINA RESULT:      -6.9      1.346      1.985
  Name = 
  16 active torsions:
  status: ('A' for Active; 'I' for Inactive)
    1  A    between atoms: C_1  and  N_30
    2  A    between atoms: N_2  and  C_5
    3  A    between atoms: N_2  and  S_27
    4  A    between atoms: C_5  and  N_14
    5  A    between atoms: C_5  and  N_30
    6  A    between atoms: C_6  and  C_9
    7  A    between atoms: C_6  and  C_17
    8  A    between atoms: C_7  and  C_26
    9  A    between atoms: C_7  and  C_31
   10  A    between atoms: C_9  and  C_31
   11  A    between atoms: C_9  and  C_32
   12  A    between atoms: C_16  and  C_20
   13  A    between atoms: C_16  and  S_27
   14  A    between atoms: C_17  and  C_29
   15  A    between atoms: C_18  and  C_25
   16  A    between atoms: C_18  and  C_29
                            x       y       z     vdW  Elec       q    Type
                         _______ _______ _______ _____ _____    ______ ____

>  <TORSDO>
F 16

$$$$
=
 OpenBabel10272413183D

 32 34  0  0  1  0  0  0  0  0999 V2000
  185.2050  178.3900  145.2120 C   0  0  0  0  0  0  0  0  0  0  0  0
  184.5890  178.7340  146.4080 O   0  0  0  0  0  1  0  0  0  0  0  0
  186.6910  178.0620  142.8050 C   0  0  0  0  0  2  0  0  0  0  0  0
  186.5320  177.6780  145.2580 C   0  0  0  0  0  2  0  0  0  0  0  0
  185.2040  178.3960  142.7140 C   0  0  1  0  0  3  0  0  0  0  0  0
  184.6370  178.7600  144.0590 C   0  0  0  0  0  3  0  0  0  0  0  0
  186.9150  177.0500  143.9180 C   0  0  2  0  0  3  0  0  0  0  0  0
  184.9580  179.5350  141.7340 C   0  0  0  0  0  2  0  0  0  0  0  0
  183.9550  180.0160  139.2810 O   0  0  0  0  0  0  0  0  0  0  0  0
  185.8950  178.5310  139.4240 O   0  0  0  0  0  0  0  0  0  0  0  0
  184.6070  178.9300  140.0890 S   0  0  0  0  0  0  0  0  0  0  0  0
  183.5420  177.5630  140.1700 N   0  0  0  0  0  2  0  0  0  0  0  0
  182.1690  178.0510  140.0820 C   0  0  2  0  0  3  0  0  0  0  0  0
  181.7020  178.4810  141.3780 N   0  0  0  0  0  0  0  0  0  0  0  0
  180.8550  179.3880  141.4740 N   0  0  0  0  0  2  0  0  0  0  0  0
  181.2810  177.0280  139.5240 N   0  0  0  0  0  2  0  0  0  0  0  0
  182.0590  175.9650  138.8940 C   0  0  0  0  0  3  0  0  0  0  0  0
  181.1150  174.9780  138.2370 C   0  0  0  0  0  2  0  0  0  0  0  0
  181.8390  176.0070  137.3950 C   0  0  0  0  0  2  0  0  0  0  0  0
  188.3720  176.6360  143.9460 C   0  0  0  0  0  2  0  0  0  0  0  0
  189.2470  177.7840  143.4550 C   0  0  0  0  0  2  0  0  0  0  0  0
  190.5580  177.2950  142.8300 C   0  0  2  0  0  3  0  0  0  0  0  0
  191.2290  176.4240  139.2270 C   0  0  0  0  0  1  0  0  0  0  0  0
  190.9420  177.3630  140.3790 C   0  0  1  0  0  3  0  0  0  0  0  0
  189.4460  177.4250  140.6130 C   0  0  0  0  0  2  0  0  0  0  0  0
  190.3170  176.5710  141.5110 C   0  0  2  0  0  3  0  0  0  0  0  0
  191.3380  176.4140  143.7960 C   0  0  0  0  0  2  0  0  0  0  0  0
  191.5930  177.1620  145.0940 C   0  0  0  0  0  2  0  0  0  0  0  0
  191.8870  176.1920  146.2250 C   0  0  0  0  0  2  0  0  0  0  0  0
  190.9890  176.4720  147.4150 C   0  0  0  0  0  2  0  0  0  0  0  0
  189.1700  177.9450  148.2010 C   0  0  0  0  0  1  0  0  0  0  0  0
  189.8390  177.3540  146.9800 C   0  0  0  0  0  2  0  0  0  0  0  0
  1  4  1  0  0  0  0
  1  2  1  0  0  0  0
  3  7  1  0  0  0  0
  5  8  1  6  0  0  0
  5  3  1  0  0  0  0
  5  6  1  0  0  0  0
  6  1  2  0  0  0  0
  7 20  1  1  0  0  0
  7  4  1  0  0  0  0
  9 11  2  0  0  0  0
 10 11  2  0  0  0  0
 11 12  1  0  0  0  0
 11  8  1  0  0  0  0
 13 16  1  1  0  0  0
 13 12  1  0  0  0  0
 13 14  1  0  0  0  0
 14 15  2  0  0  0  0
 17 16  1  0  0  0  0
 18 17  1  0  0  0  0
 19 18  1  0  0  0  0
 19 17  1  0  0  0  0
 21 20  1  0  0  0  0
 22 21  1  1  0  0  0
 22 27  1  0  0  0  0
 24 23  1  6  0  0  0
 24 25  1  0  0  0  0
 24 26  1  0  0  0  0
 25 26  1  0  0  0  0
 26 22  1  1  0  0  0
 27 28  1  0  0  0  0
 28 29  1  0  0  0  0
 29 30  1  0  0  0  0
 32 30  1  0  0  0  0
 32 31  1  0  0  0  0
M  END
>  <MODEL>
7

>  <REMARK>
 VINA RESULT:      -6.8      2.092      3.142
  Name = 
  16 active torsions:
  status: ('A' for Active; 'I' for Inactive)
    1  A    between atoms: C_1  and  N_30
    2  A    between atoms: N_2  and  C_5
    3  A    between atoms: N_2  and  S_27
    4  A    between atoms: C_5  and  N_14
    5  A    between atoms: C_5  and  N_30
    6  A    between atoms: C_6  and  C_9
    7  A    between atoms: C_6  and  C_17
    8  A    between atoms: C_7  and  C_26
    9  A    between atoms: C_7  and  C_31
   10  A    between atoms: C_9  and  C_31
   11  A    between atoms: C_9  and  C_32
   12  A    between atoms: C_16  and  C_20
   13  A    between atoms: C_16  and  S_27
   14  A    between atoms: C_17  and  C_29
   15  A    between atoms: C_18  and  C_25
   16  A    between atoms: C_18  and  C_29
                            x       y       z     vdW  Elec       q    Type
                         _______ _______ _______ _____ _____    ______ ____

>  <TORSDO>
F 16

$$$$
=
 OpenBabel10272413183D

 32 34  0  0  1  0  0  0  0  0999 V2000
  191.4910  177.4350  140.7590 C   0  0  0  0  0  0  0  0  0  0  0  0
  192.8430  177.2830  140.4880 O   0  0  0  0  0  1  0  0  0  0  0  0
  188.6950  177.3070  141.2880 C   0  0  0  0  0  2  0  0  0  0  0  0
  191.0170  177.3080  142.1840 C   0  0  0  0  0  2  0  0  0  0  0  0
  189.1660  177.8410  139.9380 C   0  0  1  0  0  3  0  0  0  0  0  0
  190.6420  177.6220  139.7420 C   0  0  0  0  0  3  0  0  0  0  0  0
  189.6000  177.8440  142.3880 C   0  0  2  0  0  3  0  0  0  0  0  0
  188.4000  177.1900  138.7950 C   0  0  0  0  0  2  0  0  0  0  0  0
  188.9950  179.5460  137.6340 O   0  0  0  0  0  0  0  0  0  0  0  0
  188.5310  177.6550  136.1510 O   0  0  0  0  0  0  0  0  0  0  0  0
  188.1410  178.3250  137.4390 S   0  0  0  0  0  0  0  0  0  0  0  0
  186.4750  178.8020  137.3700 N   0  0  0  0  0  2  0  0  0  0  0  0
  185.6680  177.7150  137.9190 C   0  0  2  0  0  3  0  0  0  0  0  0
  185.1610  176.8780  136.8590 N   0  0  0  0  0  0  0  0  0  0  0  0
  185.6550  175.7560  136.6500 N   0  0  0  0  0  2  0  0  0  0  0  0
  184.5710  178.2360  138.7390 N   0  0  0  0  0  2  0  0  0  0  0  0
  183.4830  177.2660  138.8120 C   0  0  0  0  0  3  0  0  0  0  0  0
  182.8020  177.3810  140.1610 C   0  0  0  0  0  2  0  0  0  0  0  0
  182.1650  178.0030  138.9370 C   0  0  0  0  0  2  0  0  0  0  0  0
  189.0770  177.4020  143.7400 C   0  0  0  0  0  2  0  0  0  0  0  0
  187.6200  176.9730  143.6180 C   0  0  0  0  0  2  0  0  0  0  0  0
  186.7230  177.6400  144.6650 C   0  0  2  0  0  3  0  0  0  0  0  0
  183.5080  179.5050  144.0520 C   0  0  0  0  0  1  0  0  0  0  0  0
  184.3940  178.2780  144.0940 C   0  0  1  0  0  3  0  0  0  0  0  0
  185.1760  178.1820  142.8000 C   0  0  0  0  0  2  0  0  0  0  0  0
  185.8430  178.7210  144.0480 C   0  0  2  0  0  3  0  0  0  0  0  0
  187.5420  178.2040  145.8190 C   0  0  0  0  0  2  0  0  0  0  0  0
  187.2000  177.4730  147.1070 C   0  0  0  0  0  2  0  0  0  0  0  0
  188.4210  176.7630  147.6630 C   0  0  0  0  0  2  0  0  0  0  0  0
  189.6920  177.4760  147.2390 C   0  0  0  0  0  2  0  0  0  0  0  0
  191.6690  176.5830  146.0590 C   0  0  0  0  0  1  0  0  0  0  0  0
  190.8600  176.5190  147.3370 C   0  0  0  0  0  2  0  0  0  0  0  0
  1  4  1  0  0  0  0
  2  1  1  0  0  0  0
  3  7  1  0  0  0  0
  4  7  1  0  0  0  0
  5  8  1  6  0  0  0
  5  3  1  0  0  0  0
  6  5  1  0  0  0  0
  6  1  2  0  0  0  0
  7 20  1  1  0  0  0
 10 11  2  0  0  0  0
 11  9  2  0  0  0  0
 11  8  1  0  0  0  0
 12 11  1  0  0  0  0
 12 13  1  0  0  0  0
 13 14  1  6  0  0  0
 13 16  1  0  0  0  0
 15 14  2  0  0  0  0
 16 17  1  0  0  0  0
 17 19  1  0  0  0  0
 17 18  1  0  0  0  0
 19 18  1  0  0  0  0
 21 20  1  0  0  0  0
 22 21  1  6  0  0  0
 22 27  1  0  0  0  0
 24 23  1  6  0  0  0
 25 26  1  0  0  0  0
 25 24  1  0  0  0  0
 26 24  1  0  0  0  0
 26 22  1  1  0  0  0
 27 28  1  0  0  0  0
 28 29  1  0  0  0  0
 30 32  1  0  0  0  0
 30 29  1  0  0  0  0
 31 32  1  0  0  0  0
M  END
>  <MODEL>
8

>  <REMARK>
 VINA RESULT:      -6.7      2.687      5.128
  Name = 
  16 active torsions:
  status: ('A' for Active; 'I' for Inactive)
    1  A    between atoms: C_1  and  N_30
    2  A    between atoms: N_2  and  C_5
    3  A    between atoms: N_2  and  S_27
    4  A    between atoms: C_5  and  N_14
    5  A    between atoms: C_5  and  N_30
    6  A    between atoms: C_6  and  C_9
    7  A    between atoms: C_6  and  C_17
    8  A    between atoms: C_7  and  C_26
    9  A    between atoms: C_7  and  C_31
   10  A    between atoms: C_9  and  C_31
   11  A    between atoms: C_9  and  C_32
   12  A    between atoms: C_16  and  C_20
   13  A    between atoms: C_16  and  S_27
   14  A    between atoms: C_17  and  C_29
   15  A    between atoms: C_18  and  C_25
   16  A    between atoms: C_18  and  C_29
                            x       y       z     vdW  Elec       q    Type
                         _______ _______ _______ _____ _____    ______ ____

>  <TORSDO>
F 16

$$$$
=
 OpenBabel10272413183D

 32 34  0  0  1  0  0  0  0  0999 V2000
  185.3580  178.4370  145.9780 C   0  0  0  0  0  0  0  0  0  0  0  0
  184.8360  178.8160  147.2080 O   0  0  0  0  0  1  0  0  0  0  0  0
  186.6340  178.0480  143.4620 C   0  0  0  0  0  2  0  0  0  0  0  0
  186.7140  177.7830  145.9350 C   0  0  0  0  0  2  0  0  0  0  0  0
  185.1320  178.3160  143.4930 C   0  0  1  0  0  3  0  0  0  0  0  0
  184.6720  178.7240  144.8660 C   0  0  0  0  0  3  0  0  0  0  0  0
  187.0030  177.1040  144.5970 C   0  0  2  0  0  3  0  0  0  0  0  0
  184.7470  179.3930  142.4880 C   0  0  0  0  0  2  0  0  0  0  0  0
  183.6720  177.2820  141.2040 O   0  0  0  0  0  0  0  0  0  0  0  0
  182.1930  179.1740  141.6780 O   0  0  0  0  0  0  0  0  0  0  0  0
  183.5870  178.7810  141.2730 S   0  0  0  0  0  0  0  0  0  0  0  0
  183.9520  179.4440  139.7130 N   0  0  0  0  0  2  0  0  0  0  0  0
  184.6120  178.4100  138.9220 C   0  0  2  0  0  3  0  0  0  0  0  0
  185.9700  178.7930  138.6230 N   0  0  0  0  0  0  0  0  0  0  0  0
  186.4820  178.4990  137.5280 N   0  0  0  0  0  2  0  0  0  0  0  0
  183.8670  178.1330  137.6900 N   0  0  0  0  0  2  0  0  0  0  0  0
  182.9760  176.9920  137.8780 C   0  0  0  0  0  3  0  0  0  0  0  0
  182.7640  176.3000  136.5460 C   0  0  0  0  0  2  0  0  0  0  0  0
  183.7270  175.7150  137.5570 C   0  0  0  0  0  2  0  0  0  0  0  0
  188.4740  176.7520  144.5100 C   0  0  0  0  0  2  0  0  0  0  0  0
  189.2950  177.7460  145.3240 C   0  0  0  0  0  2  0  0  0  0  0  0
  190.8010  177.4910  145.2140 C   0  0  2  0  0  3  0  0  0  0  0  0
  192.7200  175.5610  147.8190 C   0  0  0  0  0  1  0  0  0  0  0  0
  191.6130  175.7710  146.8090 C   0  0  1  0  0  3  0  0  0  0  0  0
  190.4660  176.5070  147.4700 C   0  0  0  0  0  2  0  0  0  0  0  0
  191.4340  177.2590  146.5810 C   0  0  2  0  0  3  0  0  0  0  0  0
  191.5030  178.6250  144.4790 C   0  0  0  0  0  2  0  0  0  0  0  0
  191.3190  178.4650  142.9780 C   0  0  0  0  0  2  0  0  0  0  0  0
  191.6080  177.0370  142.5500 C   0  0  0  0  0  2  0  0  0  0  0  0
  190.5320  176.5350  141.6060 C   0  0  0  0  0  2  0  0  0  0  0  0
  188.9760  177.3340  139.8630 C   0  0  0  0  0  1  0  0  0  0  0  0
  189.6790  177.6990  141.1520 C   0  0  0  0  0  2  0  0  0  0  0  0
  1  2  1  0  0  0  0
  3  5  1  0  0  0  0
  3  7  1  0  0  0  0
  4  1  1  0  0  0  0
  5  8  1  6  0  0  0
  5  6  1  0  0  0  0
  6  1  2  0  0  0  0
  7 20  1  1  0  0  0
  7  4  1  0  0  0  0
  9 11  2  0  0  0  0
 11 10  2  0  0  0  0
 11  8  1  0  0  0  0
 12 11  1  0  0  0  0
 13 16  1  6  0  0  0
 13 12  1  0  0  0  0
 14 13  1  0  0  0  0
 15 14  2  0  0  0  0
 16 17  1  0  0  0  0
 18 19  1  0  0  0  0
 18 17  1  0  0  0  0
 19 17  1  0  0  0  0
 20 21  1  0  0  0  0
 22 27  1  1  0  0  0
 22 21  1  0  0  0  0
 24 25  1  0  0  0  0
 24 23  1  1  0  0  0
 26 22  1  6  0  0  0
 26 24  1  0  0  0  0
 26 25  1  0  0  0  0
 28 27  1  0  0  0  0
 29 28  1  0  0  0  0
 30 29  1  0  0  0  0
 31 32  1  0  0  0  0
 32 30  1  0  0  0  0
M  END
>  <MODEL>
9

>  <REMARK>
 VINA RESULT:      -6.6      1.667      4.040
  Name = 
  16 active torsions:
  status: ('A' for Active; 'I' for Inactive)
    1  A    between atoms: C_1  and  N_30
    2  A    between atoms: N_2  and  C_5
    3  A    between atoms: N_2  and  S_27
    4  A    between atoms: C_5  and  N_14
    5  A    between atoms: C_5  and  N_30
    6  A    between atoms: C_6  and  C_9
    7  A    between atoms: C_6  and  C_17
    8  A    between atoms: C_7  and  C_26
    9  A    between atoms: C_7  and  C_31
   10  A    between atoms: C_9  and  C_31
   11  A    between atoms: C_9  and  C_32
   12  A    between atoms: C_16  and  C_20
   13  A    between atoms: C_16  and  S_27
   14  A    between atoms: C_17  and  C_29
   15  A    between atoms: C_18  and  C_25
   16  A    between atoms: C_18  and  C_29
                            x       y       z     vdW  Elec       q    Type
                         _______ _______ _______ _____ _____    ______ ____

>  <TORSDO>
F 16

$$$$
