=
 OpenBabel10272413483D

 30 31  0  0  1  0  0  0  0  0999 V2000
  189.1230  177.3240  140.8370 C   0  0  0  0  0  0  0  0  0  0  0  0
  188.6550  178.5590  140.1210 C   0  0  0  0  0  2  0  0  0  0  0  0
  188.5590  176.9510  141.8520 O   0  0  0  0  0  0  0  0  0  0  0  0
  190.1940  176.4170  138.8080 C   0  0  1  0  0  3  0  0  0  0  0  0
  188.5740  178.3040  138.6150 C   0  0  0  0  0  2  0  0  0  0  0  0
  190.3330  176.5950  140.3330 C   0  0  1  0  0  3  0  0  0  0  0  0
  189.8830  177.7220  138.0770 C   0  0  0  0  0  2  0  0  0  0  0  0
  191.9110  174.1460  136.1320 C   0  0  0  0  0  2  0  0  0  0  0  0
  192.9560  175.0490  135.8450 O   0  0  0  0  0  0  0  0  0  0  0  0
  190.7420  174.8580  136.8070 C   0  0  1  0  0  3  0  0  0  0  0  0
  192.5150  176.3020  137.8860 C   0  0  0  0  0  2  0  0  0  0  0  0
  189.6610  173.8290  137.0800 C   0  0  0  0  0  1  0  0  0  0  0  0
  193.5240  175.5050  137.0580 C   0  0  1  0  0  3  0  0  0  0  0  0
  191.2260  175.5120  138.1120 C   0  0  1  0  0  3  0  0  0  0  0  0
  194.1040  174.4120  137.8350 N   0  0  0  0  0  2  0  0  0  0  0  0
  195.8700  173.6590  139.3000 O   0  0  0  0  0  0  0  0  0  0  0  0
  195.4460  174.4290  138.2400 N   0  0  0  0  0  0  0  0  0  0  0  0
  196.2670  175.1390  137.6260 O   0  0  0  0  0  0  0  0  0  0  0  0
  191.8260  177.5340  140.8060 S   0  0  0  0  0  0  0  0  0  0  0  0
  191.6960  177.0100  142.5380 C   0  0  0  0  0  2  0  0  0  0  0  0
  191.6860  178.2300  143.4400 C   0  0  0  0  0  2  0  0  0  0  0  0
  191.2410  177.8340  144.8390 C   0  0  2  0  0  3  0  0  0  0  0  0
  191.5150  176.4840  145.0590 O   0  0  0  0  0  1  0  0  0  0  0  0
  189.7510  178.0810  145.0330 C   0  0  0  0  0  2  0  0  0  0  0  0
  187.9360  177.4840  146.6730 C   0  0  0  0  0  3  0  0  0  0  0  0
  189.2100  177.4110  146.2660 C   0  0  0  0  0  3  0  0  0  0  0  0
  186.8610  178.2280  145.9360 C   0  0  2  0  0  3  0  0  0  0  0  0
  185.7230  178.5700  146.8800 C   0  0  0  0  0  1  0  0  0  0  0  0
  186.3510  177.4430  144.7250 C   0  0  0  0  0  2  0  0  0  0  0  0
  185.6300  178.3240  143.7140 C   0  0  0  0  0  1  0  0  0  0  0  0
  1  3  2  0  0  0  0
  2  1  1  0  0  0  0
  4  7  1  6  0  0  0
  4  6  1  0  0  0  0
  5  2  1  0  0  0  0
  6 19  1  6  0  0  0
  6  1  1  0  0  0  0
  7  5  1  0  0  0  0
  8 10  1  0  0  0  0
  9  8  1  0  0  0  0
  9 13  1  0  0  0  0
 10 12  1  1  0  0  0
 10 14  1  0  0  0  0
 13 15  1  1  0  0  0
 13 11  1  0  0  0  0
 14 11  1  6  0  0  0
 14  4  1  0  0  0  0
 15 17  1  0  0  0  0
 17 16  2  0  0  0  0
 18 17  2  0  0  0  0
 19 20  1  0  0  0  0
 20 21  1  0  0  0  0
 21 22  1  0  0  0  0
 22 24  1  0  0  0  0
 22 23  1  6  0  0  0
 24 26  1  0  0  0  0
 26 25  2  0  0  0  0
 27 25  1  0  0  0  0
 27 28  1  1  0  0  0
 29 27  1  0  0  0  0
 30 29  1  0  0  0  0
M  END
>  <MODEL>
1

>  <REMARK>
 VINA RESULT:      -7.5      0.000      0.000
  Name = 
  11 active torsions:
  status: ('A' for Active; 'I' for Inactive)
    1  A    between atoms: C_1  and  C_4
    2  A    between atoms: C_1  and  S_5
    3  A    between atoms: C_4  and  C_27
    4  A    between atoms: S_5  and  C_22
    5  A    between atoms: C_6  and  C_17
    6  A    between atoms: C_8  and  C_13
    7  A    between atoms: C_8  and  C_27
    8  A    between atoms: C_9  and  C_17
    9  A    between atoms: N_15  and  N_16
   10  A    between atoms: N_16  and  C_25
   11  A    between atoms: C_19  and  C_29
                            x       y       z     vdW  Elec       q    Type
                         _______ _______ _______ _____ _____    ______ ____

>  <TORSDO>
F 11

$$$$
=
 OpenBabel10272413483D

 30 31  0  0  1  0  0  0  0  0999 V2000
  187.5120  178.4160  147.3770 C   0  0  0  0  0  0  0  0  0  0  0  0
  188.0780  177.2890  148.1940 C   0  0  0  0  0  2  0  0  0  0  0  0
  186.9520  179.3510  147.9250 O   0  0  0  0  0  0  0  0  0  0  0  0
  189.0100  177.9390  145.4750 C   0  0  1  0  0  3  0  0  0  0  0  0
  189.4840  176.9310  147.7080 C   0  0  0  0  0  2  0  0  0  0  0  0
  187.5790  178.3450  145.8810 C   0  0  1  0  0  3  0  0  0  0  0  0
  189.5060  176.6860  146.1980 C   0  0  0  0  0  2  0  0  0  0  0  0
  191.0560  177.8330  142.1490 C   0  0  0  0  0  2  0  0  0  0  0  0
  190.4160  176.6840  141.6380 O   0  0  0  0  0  0  0  0  0  0  0  0
  190.8630  177.9410  143.6590 C   0  0  1  0  0  3  0  0  0  0  0  0
  188.5900  176.9190  143.2320 C   0  0  0  0  0  2  0  0  0  0  0  0
  191.5780  179.1920  144.1330 C   0  0  0  0  0  1  0  0  0  0  0  0
  189.0140  176.8360  141.7650 C   0  0  1  0  0  3  0  0  0  0  0  0
  189.3600  178.0080  143.9790 C   0  0  1  0  0  3  0  0  0  0  0  0
  188.5170  177.9780  141.0020 N   0  0  0  0  0  2  0  0  0  0  0  0
  188.3290  176.9300  138.8350 O   0  0  0  0  0  0  0  0  0  0  0  0
  188.6250  178.0320  139.6050 N   0  0  0  0  0  0  0  0  0  0  0  0
  188.9790  179.0930  139.0540 O   0  0  0  0  0  0  0  0  0  0  0  0
  186.3120  177.1720  145.2890 S   0  0  0  0  0  0  0  0  0  0  0  0
  184.9690  178.3520  145.5980 C   0  0  0  0  0  2  0  0  0  0  0  0
  184.9170  179.3700  144.4740 C   0  0  0  0  0  2  0  0  0  0  0  0
  183.5470  179.3410  143.8150 C   0  0  2  0  0  3  0  0  0  0  0  0
  182.6680  178.5750  144.5820 O   0  0  0  0  0  1  0  0  0  0  0  0
  183.6230  178.7590  142.4100 C   0  0  0  0  0  2  0  0  0  0  0  0
  185.2240  178.8690  140.4690 C   0  0  0  0  0  3  0  0  0  0  0  0
  184.9800  178.9340  141.7840 C   0  0  0  0  0  3  0  0  0  0  0  0
  184.1660  178.6380  139.4310 C   0  0  2  0  0  3  0  0  0  0  0  0
  184.7610  177.9250  138.2310 C   0  0  0  0  0  1  0  0  0  0  0  0
  183.4830  179.9410  139.0090 C   0  0  0  0  0  2  0  0  0  0  0  0
  181.9690  179.8110  138.9210 C   0  0  0  0  0  1  0  0  0  0  0  0
  1  3  2  0  0  0  0
  1  2  1  0  0  0  0
  4  6  1  0  0  0  0
  4  7  1  6  0  0  0
  5  2  1  0  0  0  0
  6 19  1  1  0  0  0
  6  1  1  0  0  0  0
  7  5  1  0  0  0  0
  8 10  1  0  0  0  0
  9 13  1  0  0  0  0
  9  8  1  0  0  0  0
 10 14  1  0  0  0  0
 10 12  1  6  0  0  0
 13 15  1  6  0  0  0
 13 11  1  0  0  0  0
 14 11  1  6  0  0  0
 14  4  1  0  0  0  0
 16 17  2  0  0  0  0
 17 15  1  0  0  0  0
 18 17  2  0  0  0  0
 19 20  1  0  0  0  0
 21 20  1  0  0  0  0
 22 21  1  0  0  0  0
 22 23  1  1  0  0  0
 24 22  1  0  0  0  0
 25 26  2  0  0  0  0
 26 24  1  0  0  0  0
 27 28  1  6  0  0  0
 27 25  1  0  0  0  0
 29 27  1  0  0  0  0
 30 29  1  0  0  0  0
M  END
>  <MODEL>
2

>  <REMARK>
 VINA RESULT:      -7.3      4.319      7.449
  Name = 
  11 active torsions:
  status: ('A' for Active; 'I' for Inactive)
    1  A    between atoms: C_1  and  C_4
    2  A    between atoms: C_1  and  S_5
    3  A    between atoms: C_4  and  C_27
    4  A    between atoms: S_5  and  C_22
    5  A    between atoms: C_6  and  C_17
    6  A    between atoms: C_8  and  C_13
    7  A    between atoms: C_8  and  C_27
    8  A    between atoms: C_9  and  C_17
    9  A    between atoms: N_15  and  N_16
   10  A    between atoms: N_16  and  C_25
   11  A    between atoms: C_19  and  C_29
                            x       y       z     vdW  Elec       q    Type
                         _______ _______ _______ _____ _____    ______ ____

>  <TORSDO>
F 11

$$$$
=
 OpenBabel10272413483D

 30 31  0  0  1  0  0  0  0  0999 V2000
  187.5840  178.2620  147.3040 C   0  0  0  0  0  0  0  0  0  0  0  0
  188.2080  177.1800  148.1400 C   0  0  0  0  0  2  0  0  0  0  0  0
  186.9440  179.1550  147.8320 O   0  0  0  0  0  0  0  0  0  0  0  0
  189.1630  177.8910  145.4440 C   0  0  1  0  0  3  0  0  0  0  0  0
  189.6490  176.9250  147.6920 C   0  0  0  0  0  2  0  0  0  0  0  0
  187.6970  178.1930  145.8100 C   0  0  1  0  0  3  0  0  0  0  0  0
  189.7290  176.6790  146.1850 C   0  0  0  0  0  2  0  0  0  0  0  0
  191.3030  177.9560  142.1760 C   0  0  0  0  0  2  0  0  0  0  0  0
  190.7910  176.7480  141.6600 O   0  0  0  0  0  0  0  0  0  0  0  0
  191.0580  178.0570  143.6790 C   0  0  1  0  0  3  0  0  0  0  0  0
  188.9060  176.8180  143.2010 C   0  0  0  0  0  2  0  0  0  0  0  0
  191.6370  179.3740  144.1600 C   0  0  0  0  0  1  0  0  0  0  0  0
  189.3780  176.7650  141.7470 C   0  0  1  0  0  3  0  0  0  0  0  0
  189.5470  177.9820  143.9570 C   0  0  1  0  0  3  0  0  0  0  0  0
  188.7960  177.8490  140.9590 N   0  0  0  0  0  2  0  0  0  0  0  0
  188.9680  179.0660  138.8810 O   0  0  0  0  0  0  0  0  0  0  0  0
  188.8870  177.8710  139.5600 N   0  0  0  0  0  0  0  0  0  0  0  0
  188.9080  176.7980  138.9260 O   0  0  0  0  0  0  0  0  0  0  0  0
  186.5330  176.9300  145.1890 S   0  0  0  0  0  0  0  0  0  0  0  0
  185.7130  178.1180  144.0920 C   0  0  0  0  0  2  0  0  0  0  0  0
  184.7990  179.0150  144.9040 C   0  0  0  0  0  2  0  0  0  0  0  0
  183.5480  179.3380  144.1030 C   0  0  2  0  0  3  0  0  0  0  0  0
  182.4340  178.7540  144.7080 O   0  0  0  0  0  1  0  0  0  0  0  0
  183.6640  178.8330  142.6720 C   0  0  0  0  0  2  0  0  0  0  0  0
  182.1250  178.5310  140.7020 C   0  0  0  0  0  3  0  0  0  0  0  0
  182.3240  178.6170  142.0240 C   0  0  0  0  0  3  0  0  0  0  0  0
  183.2210  178.6130  139.6810 C   0  0  2  0  0  3  0  0  0  0  0  0
  183.0810  179.8850  138.8670 C   0  0  0  0  0  1  0  0  0  0  0  0
  183.2500  177.3820  138.7720 C   0  0  0  0  0  2  0  0  0  0  0  0
  182.6780  176.1410  139.4430 C   0  0  0  0  0  1  0  0  0  0  0  0
  1  3  2  0  0  0  0
  1  2  1  0  0  0  0
  4  6  1  0  0  0  0
  4  7  1  6  0  0  0
  5  2  1  0  0  0  0
  6 19  1  1  0  0  0
  6  1  1  0  0  0  0
  7  5  1  0  0  0  0
  8 10  1  0  0  0  0
  9 13  1  0  0  0  0
  9  8  1  0  0  0  0
 10 14  1  0  0  0  0
 10 12  1  6  0  0  0
 13 15  1  6  0  0  0
 13 11  1  0  0  0  0
 14 11  1  6  0  0  0
 14  4  1  0  0  0  0
 16 17  2  0  0  0  0
 17 15  1  0  0  0  0
 18 17  2  0  0  0  0
 20 21  1  0  0  0  0
 20 19  1  0  0  0  0
 22 23  1  1  0  0  0
 22 21  1  0  0  0  0
 24 22  1  0  0  0  0
 25 26  2  0  0  0  0
 26 24  1  0  0  0  0
 27 28  1  6  0  0  0
 27 25  1  0  0  0  0
 29 30  1  0  0  0  0
 29 27  1  0  0  0  0
M  END
>  <MODEL>
3

>  <REMARK>
 VINA RESULT:      -7.1      4.181      7.452
  Name = 
  11 active torsions:
  status: ('A' for Active; 'I' for Inactive)
    1  A    between atoms: C_1  and  C_4
    2  A    between atoms: C_1  and  S_5
    3  A    between atoms: C_4  and  C_27
    4  A    between atoms: S_5  and  C_22
    5  A    between atoms: C_6  and  C_17
    6  A    between atoms: C_8  and  C_13
    7  A    between atoms: C_8  and  C_27
    8  A    between atoms: C_9  and  C_17
    9  A    between atoms: N_15  and  N_16
   10  A    between atoms: N_16  and  C_25
   11  A    between atoms: C_19  and  C_29
                            x       y       z     vdW  Elec       q    Type
                         _______ _______ _______ _____ _____    ______ ____

>  <TORSDO>
F 11

$$$$
=
 OpenBabel10272413483D

 30 31  0  0  1  0  0  0  0  0999 V2000
  190.0890  176.1270  143.5520 C   0  0  0  0  0  0  0  0  0  0  0  0
  190.8190  176.7330  144.7170 C   0  0  0  0  0  2  0  0  0  0  0  0
  190.5310  175.1360  142.9980 O   0  0  0  0  0  0  0  0  0  0  0  0
  187.9410  177.1330  144.2320 C   0  0  1  0  0  3  0  0  0  0  0  0
  189.8410  177.0640  145.8460 C   0  0  0  0  0  2  0  0  0  0  0  0
  188.8500  176.7950  143.0340 C   0  0  1  0  0  3  0  0  0  0  0  0
  188.6660  177.9010  145.3380 C   0  0  0  0  0  2  0  0  0  0  0  0
  184.5910  179.1310  144.4550 C   0  0  0  0  0  2  0  0  0  0  0  0
  184.7890  179.8530  143.2600 O   0  0  0  0  0  0  0  0  0  0  0  0
  185.9080  178.5640  144.9770 C   0  0  1  0  0  3  0  0  0  0  0  0
  186.5210  178.3010  142.5380 C   0  0  0  0  0  2  0  0  0  0  0  0
  185.6160  177.8070  146.2590 C   0  0  0  0  0  1  0  0  0  0  0  0
  185.1740  178.9590  142.2330 C   0  0  1  0  0  3  0  0  0  0  0  0
  186.5220  177.6370  143.9150 C   0  0  1  0  0  3  0  0  0  0  0  0
  184.1430  177.9600  141.9630 N   0  0  0  0  0  2  0  0  0  0  0  0
  183.0010  176.8120  140.1720 O   0  0  0  0  0  0  0  0  0  0  0  0
  183.3870  177.9840  140.7830 N   0  0  0  0  0  0  0  0  0  0  0  0
  183.0490  179.0780  140.2890 O   0  0  0  0  0  0  0  0  0  0  0  0
  189.3330  178.2680  142.0690 S   0  0  0  0  0  0  0  0  0  0  0  0
  189.9610  177.2560  140.7010 C   0  0  0  0  0  2  0  0  0  0  0  0
  188.9840  177.3030  139.5420 C   0  0  0  0  0  2  0  0  0  0  0  0
  189.5040  176.4530  138.3940 C   0  0  2  0  0  3  0  0  0  0  0  0
  190.6370  175.7480  138.8010 O   0  0  0  0  0  1  0  0  0  0  0  0
  189.8550  177.3120  137.1870 C   0  0  0  0  0  2  0  0  0  0  0  0
  187.8690  178.7290  136.5630 C   0  0  0  0  0  3  0  0  0  0  0  0
  189.0700  178.5940  137.1410 C   0  0  0  0  0  3  0  0  0  0  0  0
  187.1260  177.6070  135.9010 C   0  0  2  0  0  3  0  0  0  0  0  0
  186.6350  178.0430  134.5330 C   0  0  0  0  0  1  0  0  0  0  0  0
  185.9670  177.1020  136.7630 C   0  0  0  0  0  2  0  0  0  0  0  0
  185.6360  178.0410  137.9140 C   0  0  0  0  0  1  0  0  0  0  0  0
  1  2  1  0  0  0  0
  2  5  1  0  0  0  0
  3  1  2  0  0  0  0
  4  7  1  6  0  0  0
  6 19  1  1  0  0  0
  6  1  1  0  0  0  0
  6  4  1  0  0  0  0
  7  5  1  0  0  0  0
  8 10  1  0  0  0  0
  9  8  1  0  0  0  0
 10 12  1  1  0  0  0
 13 15  1  1  0  0  0
 13 11  1  0  0  0  0
 13  9  1  0  0  0  0
 14 11  1  6  0  0  0
 14  4  1  0  0  0  0
 14 10  1  0  0  0  0
 16 17  2  0  0  0  0
 17 15  1  0  0  0  0
 18 17  2  0  0  0  0
 20 19  1  0  0  0  0
 21 20  1  0  0  0  0
 22 23  1  1  0  0  0
 22 21  1  0  0  0  0
 24 22  1  0  0  0  0
 25 26  2  0  0  0  0
 26 24  1  0  0  0  0
 27 28  1  6  0  0  0
 27 25  1  0  0  0  0
 27 29  1  0  0  0  0
 29 30  1  0  0  0  0
M  END
>  <MODEL>
4

>  <REMARK>
 VINA RESULT:      -7.1      3.999      8.831
  Name = 
  11 active torsions:
  status: ('A' for Active; 'I' for Inactive)
    1  A    between atoms: C_1  and  C_4
    2  A    between atoms: C_1  and  S_5
    3  A    between atoms: C_4  and  C_27
    4  A    between atoms: S_5  and  C_22
    5  A    between atoms: C_6  and  C_17
    6  A    between atoms: C_8  and  C_13
    7  A    between atoms: C_8  and  C_27
    8  A    between atoms: C_9  and  C_17
    9  A    between atoms: N_15  and  N_16
   10  A    between atoms: N_16  and  C_25
   11  A    between atoms: C_19  and  C_29
                            x       y       z     vdW  Elec       q    Type
                         _______ _______ _______ _____ _____    ______ ____

>  <TORSDO>
F 11

$$$$
=
 OpenBabel10272413483D

 30 31  0  0  1  0  0  0  0  0999 V2000
  189.9530  176.1220  143.3930 C   0  0  0  0  0  0  0  0  0  0  0  0
  190.8050  176.7270  144.4730 C   0  0  0  0  0  2  0  0  0  0  0  0
  190.3180  175.1130  142.8150 O   0  0  0  0  0  0  0  0  0  0  0  0
  187.9030  177.1880  144.2590 C   0  0  1  0  0  3  0  0  0  0  0  0
  189.9480  177.0970  145.6850 C   0  0  0  0  0  2  0  0  0  0  0  0
  188.6850  176.8110  142.9860 C   0  0  1  0  0  3  0  0  0  0  0  0
  188.7480  177.9540  145.2780 C   0  0  0  0  0  2  0  0  0  0  0  0
  184.6090  179.2140  144.8170 C   0  0  0  0  0  2  0  0  0  0  0  0
  184.7270  179.9820  143.6390 O   0  0  0  0  0  0  0  0  0  0  0  0
  185.9540  178.6110  145.2130 C   0  0  1  0  0  3  0  0  0  0  0  0
  186.3760  178.4400  142.7260 C   0  0  0  0  0  2  0  0  0  0  0  0
  185.7490  177.8060  146.4830 C   0  0  0  0  0  1  0  0  0  0  0  0
  185.0200  179.1260  142.5510 C   0  0  1  0  0  3  0  0  0  0  0  0
  186.4720  177.7200  144.0710 C   0  0  1  0  0  3  0  0  0  0  0  0
  183.9570  178.1510  142.3210 N   0  0  0  0  0  2  0  0  0  0  0  0
  181.6710  178.9250  142.4020 O   0  0  0  0  0  0  0  0  0  0  0  0
  182.7630  178.5030  141.6770 N   0  0  0  0  0  0  0  0  0  0  0  0
  182.6930  178.4480  140.4330 O   0  0  0  0  0  0  0  0  0  0  0  0
  189.1060  178.2590  141.9550 S   0  0  0  0  0  0  0  0  0  0  0  0
  188.9790  177.2970  140.4220 C   0  0  0  0  0  2  0  0  0  0  0  0
  188.2690  178.1190  139.3630 C   0  0  0  0  0  2  0  0  0  0  0  0
  189.2770  178.6290  138.3450 C   0  0  2  0  0  3  0  0  0  0  0  0
  188.6580  179.5280  137.4750 O   0  0  0  0  0  1  0  0  0  0  0  0
  189.8770  177.4840  137.5400 C   0  0  0  0  0  2  0  0  0  0  0  0
  188.3250  176.2380  135.9970 C   0  0  0  0  0  3  0  0  0  0  0  0
  189.1620  177.2560  136.2370 C   0  0  0  0  0  3  0  0  0  0  0  0
  187.9650  175.1930  137.0110 C   0  0  2  0  0  3  0  0  0  0  0  0
  188.8040  173.9470  136.7950 C   0  0  0  0  0  1  0  0  0  0  0  0
  186.4720  174.8580  136.9820 C   0  0  0  0  0  2  0  0  0  0  0  0
  186.1850  173.4100  137.3550 C   0  0  0  0  0  1  0  0  0  0  0  0
  1  2  1  0  0  0  0
  2  5  1  0  0  0  0
  3  1  2  0  0  0  0
  4  7  1  6  0  0  0
  6 19  1  1  0  0  0
  6  1  1  0  0  0  0
  6  4  1  0  0  0  0
  7  5  1  0  0  0  0
  8 10  1  0  0  0  0
  9  8  1  0  0  0  0
 10 12  1  1  0  0  0
 13 15  1  1  0  0  0
 13 11  1  0  0  0  0
 13  9  1  0  0  0  0
 14 11  1  6  0  0  0
 14  4  1  0  0  0  0
 14 10  1  0  0  0  0
 17 15  1  0  0  0  0
 17 16  2  0  0  0  0
 18 17  2  0  0  0  0
 20 19  1  0  0  0  0
 21 20  1  0  0  0  0
 22 23  1  6  0  0  0
 22 21  1  0  0  0  0
 24 22  1  0  0  0  0
 25 26  2  0  0  0  0
 25 27  1  0  0  0  0
 26 24  1  0  0  0  0
 27 28  1  6  0  0  0
 29 27  1  0  0  0  0
 29 30  1  0  0  0  0
M  END
>  <MODEL>
5

>  <REMARK>
 VINA RESULT:      -7.0      4.271      9.202
  Name = 
  11 active torsions:
  status: ('A' for Active; 'I' for Inactive)
    1  A    between atoms: C_1  and  C_4
    2  A    between atoms: C_1  and  S_5
    3  A    between atoms: C_4  and  C_27
    4  A    between atoms: S_5  and  C_22
    5  A    between atoms: C_6  and  C_17
    6  A    between atoms: C_8  and  C_13
    7  A    between atoms: C_8  and  C_27
    8  A    between atoms: C_9  and  C_17
    9  A    between atoms: N_15  and  N_16
   10  A    between atoms: N_16  and  C_25
   11  A    between atoms: C_19  and  C_29
                            x       y       z     vdW  Elec       q    Type
                         _______ _______ _______ _____ _____    ______ ____

>  <TORSDO>
F 11

$$$$
=
 OpenBabel10272413483D

 30 31  0  0  1  0  0  0  0  0999 V2000
  189.9920  176.1590  143.4160 C   0  0  0  0  0  0  0  0  0  0  0  0
  190.8190  176.7510  144.5220 C   0  0  0  0  0  2  0  0  0  0  0  0
  190.3790  175.1660  142.8240 O   0  0  0  0  0  0  0  0  0  0  0  0
  187.9150  177.1800  144.2710 C   0  0  1  0  0  3  0  0  0  0  0  0
  189.9380  177.0850  145.7280 C   0  0  0  0  0  2  0  0  0  0  0  0
  188.7220  176.8400  143.0030 C   0  0  1  0  0  3  0  0  0  0  0  0
  188.7340  177.9350  145.3190 C   0  0  0  0  0  2  0  0  0  0  0  0
  184.6040  179.1890  144.7880 C   0  0  0  0  0  2  0  0  0  0  0  0
  184.7200  179.9400  143.6000 O   0  0  0  0  0  0  0  0  0  0  0  0
  185.9520  178.6020  145.1980 C   0  0  1  0  0  3  0  0  0  0  0  0
  186.3840  178.3980  142.7140 C   0  0  0  0  0  2  0  0  0  0  0  0
  185.7490  177.8140  146.4790 C   0  0  0  0  0  1  0  0  0  0  0  0
  185.0230  179.0700  142.5250 C   0  0  1  0  0  3  0  0  0  0  0  0
  186.4800  177.6990  144.0710 C   0  0  1  0  0  3  0  0  0  0  0  0
  183.9680  178.0830  142.3070 N   0  0  0  0  0  2  0  0  0  0  0  0
  183.2560  177.6270  140.0450 O   0  0  0  0  0  0  0  0  0  0  0  0
  183.0370  178.2210  141.2680 N   0  0  0  0  0  0  0  0  0  0  0  0
  181.9930  178.8760  141.4570 O   0  0  0  0  0  0  0  0  0  0  0  0
  189.1410  178.3140  142.0090 S   0  0  0  0  0  0  0  0  0  0  0  0
  189.0070  177.3930  140.4520 C   0  0  0  0  0  2  0  0  0  0  0  0
  189.0950  178.3550  139.2820 C   0  0  0  0  0  2  0  0  0  0  0  0
  187.9080  178.1510  138.3550 C   0  0  2  0  0  3  0  0  0  0  0  0
  186.7190  178.3610  139.0550 O   0  0  0  0  0  1  0  0  0  0  0  0
  187.9020  176.7460  137.7680 C   0  0  0  0  0  2  0  0  0  0  0  0
  189.8780  176.1000  136.3470 C   0  0  0  0  0  3  0  0  0  0  0  0
  188.6670  176.6570  136.4760 C   0  0  0  0  0  3  0  0  0  0  0  0
  190.6330  175.4640  137.4770 C   0  0  2  0  0  3  0  0  0  0  0  0
  191.8100  176.3350  137.8740 C   0  0  0  0  0  1  0  0  0  0  0  0
  191.0940  174.0460  137.1300 C   0  0  0  0  0  2  0  0  0  0  0  0
  190.1760  173.3560  136.1290 C   0  0  0  0  0  1  0  0  0  0  0  0
  1  2  1  0  0  0  0
  2  5  1  0  0  0  0
  3  1  2  0  0  0  0
  4  7  1  6  0  0  0
  6 19  1  1  0  0  0
  6  1  1  0  0  0  0
  6  4  1  0  0  0  0
  7  5  1  0  0  0  0
  8 10  1  0  0  0  0
  9  8  1  0  0  0  0
 10 12  1  1  0  0  0
 13 15  1  1  0  0  0
 13 11  1  0  0  0  0
 13  9  1  0  0  0  0
 14 11  1  6  0  0  0
 14  4  1  0  0  0  0
 14 10  1  0  0  0  0
 16 17  2  0  0  0  0
 17 18  2  0  0  0  0
 17 15  1  0  0  0  0
 20 19  1  0  0  0  0
 21 20  1  0  0  0  0
 22 23  1  1  0  0  0
 22 21  1  0  0  0  0
 24 22  1  0  0  0  0
 25 26  2  0  0  0  0
 25 27  1  0  0  0  0
 26 24  1  0  0  0  0
 27 28  1  6  0  0  0
 29 27  1  0  0  0  0
 30 29  1  0  0  0  0
M  END
>  <MODEL>
6

>  <REMARK>
 VINA RESULT:      -6.9      4.171      9.188
  Name = 
  11 active torsions:
  status: ('A' for Active; 'I' for Inactive)
    1  A    between atoms: C_1  and  C_4
    2  A    between atoms: C_1  and  S_5
    3  A    between atoms: C_4  and  C_27
    4  A    between atoms: S_5  and  C_22
    5  A    between atoms: C_6  and  C_17
    6  A    between atoms: C_8  and  C_13
    7  A    between atoms: C_8  and  C_27
    8  A    between atoms: C_9  and  C_17
    9  A    between atoms: N_15  and  N_16
   10  A    between atoms: N_16  and  C_25
   11  A    between atoms: C_19  and  C_29
                            x       y       z     vdW  Elec       q    Type
                         _______ _______ _______ _____ _____    ______ ____

>  <TORSDO>
F 11

$$$$
=
 OpenBabel10272413483D

 30 31  0  0  1  0  0  0  0  0999 V2000
  188.7410  177.6530  138.9840 C   0  0  0  0  0  0  0  0  0  0  0  0
  188.8020  178.8030  138.0180 C   0  0  0  0  0  2  0  0  0  0  0  0
  187.8560  177.6000  139.8200 O   0  0  0  0  0  0  0  0  0  0  0  0
  190.0440  176.1830  137.4900 C   0  0  1  0  0  3  0  0  0  0  0  0
  189.0580  178.2940  136.5980 C   0  0  0  0  0  2  0  0  0  0  0  0
  189.8180  176.6100  138.9540 C   0  0  1  0  0  3  0  0  0  0  0  0
  190.2730  177.3660  136.5490 C   0  0  0  0  0  2  0  0  0  0  0  0
  191.4580  172.8550  136.0120 C   0  0  0  0  0  2  0  0  0  0  0  0
  192.5840  173.4490  135.4050 O   0  0  0  0  0  0  0  0  0  0  0  0
  190.3840  173.8970  136.3120 C   0  0  1  0  0  3  0  0  0  0  0  0
  192.3200  175.4640  136.7470 C   0  0  0  0  0  2  0  0  0  0  0  0
  189.2090  173.1850  136.9570 C   0  0  0  0  0  1  0  0  0  0  0  0
  193.2230  174.2990  136.3390 C   0  0  1  0  0  3  0  0  0  0  0  0
  190.9610  174.9720  137.2470 C   0  0  1  0  0  3  0  0  0  0  0  0
  193.7040  173.5640  137.5070 N   0  0  0  0  0  2  0  0  0  0  0  0
  195.3630  173.1890  139.2200 O   0  0  0  0  0  0  0  0  0  0  0  0
  194.8470  173.9690  138.2110 N   0  0  0  0  0  0  0  0  0  0  0  0
  195.4100  175.0410  137.9100 O   0  0  0  0  0  0  0  0  0  0  0  0
  191.3200  177.2920  139.7360 S   0  0  0  0  0  0  0  0  0  0  0  0
  190.5510  177.2990  141.3790 C   0  0  0  0  0  2  0  0  0  0  0  0
  191.6280  177.3040  142.4470 C   0  0  0  0  0  2  0  0  0  0  0  0
  191.4690  176.0880  143.3450 C   0  0  2  0  0  3  0  0  0  0  0  0
  190.2940  175.4100  143.0210 O   0  0  0  0  0  1  0  0  0  0  0  0
  191.4270  176.4900  144.8140 C   0  0  0  0  0  2  0  0  0  0  0  0
  189.7080  178.2500  145.3500 C   0  0  0  0  0  3  0  0  0  0  0  0
  190.9580  177.9040  145.0130 C   0  0  0  0  0  3  0  0  0  0  0  0
  188.6040  177.2660  145.6000 C   0  0  2  0  0  3  0  0  0  0  0  0
  187.5920  177.3200  144.4710 C   0  0  0  0  0  1  0  0  0  0  0  0
  187.9280  177.4970  146.9530 C   0  0  0  0  0  2  0  0  0  0  0  0
  188.8860  178.0340  148.0070 C   0  0  0  0  0  1  0  0  0  0  0  0
  1  3  2  0  0  0  0
  2  1  1  0  0  0  0
  4  7  1  6  0  0  0
  4  6  1  0  0  0  0
  5  2  1  0  0  0  0
  6  1  1  0  0  0  0
  6 19  1  6  0  0  0
  7  5  1  0  0  0  0
  8 10  1  0  0  0  0
  9  8  1  0  0  0  0
  9 13  1  0  0  0  0
 10 12  1  1  0  0  0
 10 14  1  0  0  0  0
 13 11  1  0  0  0  0
 13 15  1  1  0  0  0
 14 11  1  6  0  0  0
 14  4  1  0  0  0  0
 15 17  1  0  0  0  0
 17 16  2  0  0  0  0
 18 17  2  0  0  0  0
 19 20  1  0  0  0  0
 20 21  1  0  0  0  0
 21 22  1  0  0  0  0
 22 23  1  6  0  0  0
 22 24  1  0  0  0  0
 24 26  1  0  0  0  0
 25 27  1  0  0  0  0
 26 25  2  0  0  0  0
 27 28  1  6  0  0  0
 27 29  1  0  0  0  0
 29 30  1  0  0  0  0
M  END
>  <MODEL>
7

>  <REMARK>
 VINA RESULT:      -6.8      1.343      2.036
  Name = 
  11 active torsions:
  status: ('A' for Active; 'I' for Inactive)
    1  A    between atoms: C_1  and  C_4
    2  A    between atoms: C_1  and  S_5
    3  A    between atoms: C_4  and  C_27
    4  A    between atoms: S_5  and  C_22
    5  A    between atoms: C_6  and  C_17
    6  A    between atoms: C_8  and  C_13
    7  A    between atoms: C_8  and  C_27
    8  A    between atoms: C_9  and  C_17
    9  A    between atoms: N_15  and  N_16
   10  A    between atoms: N_16  and  C_25
   11  A    between atoms: C_19  and  C_29
                            x       y       z     vdW  Elec       q    Type
                         _______ _______ _______ _____ _____    ______ ____

>  <TORSDO>
F 11

$$$$
=
 OpenBabel10272413483D

 30 31  0  0  1  0  0  0  0  0999 V2000
  186.9720  177.7130  137.6720 C   0  0  0  0  0  0  0  0  0  0  0  0
  186.9730  178.6730  136.5160 C   0  0  0  0  0  2  0  0  0  0  0  0
  185.9820  177.5990  138.3750 O   0  0  0  0  0  0  0  0  0  0  0  0
  188.7790  176.3510  136.6880 C   0  0  1  0  0  3  0  0  0  0  0  0
  187.5670  178.0100  135.2720 C   0  0  0  0  0  2  0  0  0  0  0  0
  188.2220  176.9500  137.9940 C   0  0  1  0  0  3  0  0  0  0  0  0
  188.9310  177.3840  135.5710 C   0  0  0  0  0  2  0  0  0  0  0  0
  190.9850  173.1620  136.2110 C   0  0  0  0  0  2  0  0  0  0  0  0
  192.0200  173.8220  135.5150 O   0  0  0  0  0  0  0  0  0  0  0  0
  189.6960  173.9780  136.1770 C   0  0  1  0  0  3  0  0  0  0  0  0
  191.2160  175.9970  136.2590 C   0  0  0  0  0  2  0  0  0  0  0  0
  188.6340  173.2070  136.9390 C   0  0  0  0  0  1  0  0  0  0  0  0
  192.3750  175.0000  136.2140 C   0  0  1  0  0  3  0  0  0  0  0  0
  189.9440  175.3550  136.8150 C   0  0  1  0  0  3  0  0  0  0  0  0
  192.8780  174.7090  137.5550 N   0  0  0  0  0  2  0  0  0  0  0  0
  193.5630  176.7380  138.6710 O   0  0  0  0  0  0  0  0  0  0  0  0
  193.8690  175.4990  138.1550 N   0  0  0  0  0  0  0  0  0  0  0  0
  195.0370  175.0680  138.2350 O   0  0  0  0  0  0  0  0  0  0  0  0
  189.4000  178.0720  138.8230 S   0  0  0  0  0  0  0  0  0  0  0  0
  189.5870  176.9520  140.2370 C   0  0  0  0  0  2  0  0  0  0  0  0
  189.0020  177.5970  141.4790 C   0  0  0  0  0  2  0  0  0  0  0  0
  189.4410  176.8290  142.7150 C   0  0  2  0  0  3  0  0  0  0  0  0
  190.3040  175.7950  142.3490 O   0  0  0  0  0  1  0  0  0  0  0  0
  188.2450  176.2450  143.4550 C   0  0  0  0  0  2  0  0  0  0  0  0
  187.5930  177.7000  145.4040 C   0  0  0  0  0  3  0  0  0  0  0  0
  187.4170  177.2970  144.1390 C   0  0  0  0  0  3  0  0  0  0  0  0
  188.6650  177.1700  146.3100 C   0  0  2  0  0  3  0  0  0  0  0  0
  188.2230  177.2770  147.7580 C   0  0  0  0  0  1  0  0  0  0  0  0
  190.0020  177.8810  146.0930 C   0  0  0  0  0  2  0  0  0  0  0  0
  191.1690  176.9140  145.9550 C   0  0  0  0  0  1  0  0  0  0  0  0
  1  6  1  0  0  0  0
  1  3  2  0  0  0  0
  2  1  1  0  0  0  0
  4  7  1  6  0  0  0
  4 14  1  0  0  0  0
  4  6  1  0  0  0  0
  5  7  1  0  0  0  0
  5  2  1  0  0  0  0
  6 19  1  6  0  0  0
  9  8  1  0  0  0  0
  9 13  1  0  0  0  0
 10  8  1  0  0  0  0
 10 14  1  0  0  0  0
 10 12  1  1  0  0  0
 13 11  1  0  0  0  0
 13 15  1  1  0  0  0
 14 11  1  6  0  0  0
 15 17  1  0  0  0  0
 17 18  2  0  0  0  0
 17 16  2  0  0  0  0
 19 20  1  0  0  0  0
 20 21  1  0  0  0  0
 21 22  1  0  0  0  0
 22 23  1  6  0  0  0
 22 24  1  0  0  0  0
 24 26  1  0  0  0  0
 25 27  1  0  0  0  0
 26 25  2  0  0  0  0
 27 28  1  1  0  0  0
 29 27  1  0  0  0  0
 30 29  1  0  0  0  0
M  END
>  <MODEL>
8

>  <REMARK>
 VINA RESULT:      -6.8      1.973      2.942
  Name = 
  11 active torsions:
  status: ('A' for Active; 'I' for Inactive)
    1  A    between atoms: C_1  and  C_4
    2  A    between atoms: C_1  and  S_5
    3  A    between atoms: C_4  and  C_27
    4  A    between atoms: S_5  and  C_22
    5  A    between atoms: C_6  and  C_17
    6  A    between atoms: C_8  and  C_13
    7  A    between atoms: C_8  and  C_27
    8  A    between atoms: C_9  and  C_17
    9  A    between atoms: N_15  and  N_16
   10  A    between atoms: N_16  and  C_25
   11  A    between atoms: C_19  and  C_29
                            x       y       z     vdW  Elec       q    Type
                         _______ _______ _______ _____ _____    ______ ____

>  <TORSDO>
F 11

$$$$
=
 OpenBabel10272413483D

 30 31  0  0  1  0  0  0  0  0999 V2000
  190.0240  177.9990  144.1850 C   0  0  0  0  0  0  0  0  0  0  0  0
  190.3180  176.6610  144.8020 C   0  0  0  0  0  2  0  0  0  0  0  0
  190.0010  179.0030  144.8770 O   0  0  0  0  0  0  0  0  0  0  0  0
  190.7220  177.2450  141.9430 C   0  0  1  0  0  3  0  0  0  0  0  0
  191.3270  175.8900  143.9490 C   0  0  0  0  0  2  0  0  0  0  0  0
  189.6890  178.0780  142.7260 C   0  0  1  0  0  3  0  0  0  0  0  0
  190.8840  175.8250  142.4860 C   0  0  0  0  0  2  0  0  0  0  0  0
  191.5800  176.6540  138.1770 C   0  0  0  0  0  2  0  0  0  0  0  0
  190.3500  176.0430  137.8570 O   0  0  0  0  0  0  0  0  0  0  0  0
  191.8330  176.6200  139.6820 C   0  0  1  0  0  3  0  0  0  0  0  0
  189.3280  176.8910  139.8980 C   0  0  0  0  0  2  0  0  0  0  0  0
  193.1690  177.2890  139.9470 C   0  0  0  0  0  1  0  0  0  0  0  0
  189.2910  176.8290  138.3700 C   0  0  1  0  0  3  0  0  0  0  0  0
  190.6930  177.3540  140.4080 C   0  0  1  0  0  3  0  0  0  0  0  0
  189.2700  178.1670  137.7840 N   0  0  0  0  0  2  0  0  0  0  0  0
  187.4780  179.5360  136.9200 O   0  0  0  0  0  0  0  0  0  0  0  0
  188.3770  178.5060  136.7580 N   0  0  0  0  0  0  0  0  0  0  0  0
  188.4060  177.8770  135.6810 O   0  0  0  0  0  0  0  0  0  0  0  0
  187.9750  177.4980  142.4820 S   0  0  0  0  0  0  0  0  0  0  0  0
  187.4410  179.1130  141.8510 C   0  0  0  0  0  2  0  0  0  0  0  0
  185.9770  179.0470  141.4570 C   0  0  0  0  0  2  0  0  0  0  0  0
  185.1530  178.5190  142.6200 C   0  0  2  0  0  3  0  0  0  0  0  0
  183.9340  178.0270  142.1530 O   0  0  0  0  0  1  0  0  0  0  0  0
  184.8910  179.6100  143.6500 C   0  0  0  0  0  2  0  0  0  0  0  0
  184.7650  178.5940  145.9500 C   0  0  0  0  0  3  0  0  0  0  0  0
  184.1660  179.0980  144.8640 C   0  0  0  0  0  3  0  0  0  0  0  0
  186.2530  178.4920  146.1160 C   0  0  2  0  0  3  0  0  0  0  0  0
  186.7340  177.1220  145.6790 C   0  0  0  0  0  1  0  0  0  0  0  0
  186.6890  178.7930  147.5520 C   0  0  0  0  0  2  0  0  0  0  0  0
  187.9450  178.0330  147.9570 C   0  0  0  0  0  1  0  0  0  0  0  0
  1  2  1  0  0  0  0
  1  3  2  0  0  0  0
  4  7  1  6  0  0  0
  4  6  1  0  0  0  0
  5  2  1  0  0  0  0
  6 19  1  1  0  0  0
  6  1  1  0  0  0  0
  7  5  1  0  0  0  0
  8 10  1  0  0  0  0
  9  8  1  0  0  0  0
  9 13  1  0  0  0  0
 10 12  1  6  0  0  0
 10 14  1  0  0  0  0
 13 15  1  6  0  0  0
 13 11  1  0  0  0  0
 14 11  1  6  0  0  0
 14  4  1  0  0  0  0
 17 16  2  0  0  0  0
 17 15  1  0  0  0  0
 18 17  2  0  0  0  0
 20 19  1  0  0  0  0
 21 20  1  0  0  0  0
 21 22  1  0  0  0  0
 22 23  1  6  0  0  0
 22 24  1  0  0  0  0
 24 26  1  0  0  0  0
 25 27  1  0  0  0  0
 26 25  2  0  0  0  0
 27 28  1  1  0  0  0
 27 29  1  0  0  0  0
 29 30  1  0  0  0  0
M  END
>  <MODEL>
9

>  <REMARK>
 VINA RESULT:      -6.7      3.061      5.293
  Name = 
  11 active torsions:
  status: ('A' for Active; 'I' for Inactive)
    1  A    between atoms: C_1  and  C_4
    2  A    between atoms: C_1  and  S_5
    3  A    between atoms: C_4  and  C_27
    4  A    between atoms: S_5  and  C_22
    5  A    between atoms: C_6  and  C_17
    6  A    between atoms: C_8  and  C_13
    7  A    between atoms: C_8  and  C_27
    8  A    between atoms: C_9  and  C_17
    9  A    between atoms: N_15  and  N_16
   10  A    between atoms: N_16  and  C_25
   11  A    between atoms: C_19  and  C_29
                            x       y       z     vdW  Elec       q    Type
                         _______ _______ _______ _____ _____    ______ ____

>  <TORSDO>
F 11

$$$$
