=
 OpenBabel10272400543D

 25 29  0  0  1  0  0  0  0  0999 V2000
  185.1070  178.2960  144.2770 C   0  0  0  0  0  0  0  0  0  0  0  0
  186.3720  177.9000  144.3840 C   0  0  0  0  0  3  0  0  0  0  0  0
  184.3900  178.8890  146.5240 N   0  0  0  0  0  0  0  0  0  0  0  0
  184.4080  178.3330  143.0910 C   0  0  0  0  0  0  0  0  0  0  0  0
  182.5420  178.6280  141.0660 C   0  0  0  0  0  3  0  0  0  0  0  0
  185.5480  178.6170  147.2760 N   0  0  0  0  0  2  0  0  0  0  0  0
  183.1530  178.7990  143.3780 C   0  0  0  0  0  0  0  0  0  0  0  0
  182.1870  178.9600  142.3860 C   0  0  0  0  0  3  0  0  0  0  0  0
  187.9070  177.9170  147.6790 N   0  0  0  0  0  0  0  0  0  0  0  0
  187.7100  177.5760  149.0780 C   0  0  0  0  0  1  0  0  0  0  0  0
  187.1720  177.8590  145.6030 C   0  0  0  0  0  0  0  0  0  0  0  0
  183.8370  178.1500  140.7710 C   0  0  0  0  0  3  0  0  0  0  0  0
  184.2030  178.7540  145.2440 C   0  0  0  0  0  0  0  0  0  0  0  0
  183.0050  179.0610  144.6870 N   0  0  0  0  0  2  0  0  0  0  0  0
  189.0150  177.5000  147.0080 O   0  0  0  0  0  0  0  0  0  0  0  0
  184.7910  177.9970  141.7920 C   0  0  0  0  0  3  0  0  0  0  0  0
  188.5800  177.3600  145.6630 C   0  0  2  0  0  3  0  0  0  0  0  0
  186.8220  178.1610  146.8160 C   0  0  0  0  0  0  0  0  0  0  0  0
  189.4320  178.1590  144.7950 N   0  0  0  0  0  2  0  0  0  0  0  0
  191.4470  176.7860  144.4640 C   0  0  1  0  0  0  0  0  0  0  0  0
  191.7610  177.2520  145.7470 O   0  0  0  0  0  1  0  0  0  0  0  0
  191.8830  175.3850  144.0940 C   0  0  0  0  0  1  0  0  0  0  0  0
  190.1130  177.2350  143.8930 C   0  0  2  0  0  3  0  0  0  0  0  0
  191.7690  179.2190  143.8190 C   0  0  0  0  0  1  0  0  0  0  0  0
  191.4390  177.8070  143.3380 C   0  0  1  0  0  3  0  0  0  0  0  0
  1  2  2  0  0  0  0
  1 13  1  0  0  0  0
  2 11  1  0  0  0  0
  3  6  1  0  0  0  0
  4  7  1  0  0  0  0
  4  1  1  0  0  0  0
  5  8  1  0  0  0  0
  7 14  1  0  0  0  0
  8  7  2  0  0  0  0
  9 10  1  0  0  0  0
 11 17  1  0  0  0  0
 11 18  2  0  0  0  0
 12  5  2  0  0  0  0
 12 16  1  0  0  0  0
 13  3  2  0  0  0  0
 14 13  1  0  0  0  0
 15  9  1  0  0  0  0
 16  4  2  0  0  0  0
 17 19  1  6  0  0  0
 17 15  1  0  0  0  0
 18  6  1  0  0  0  0
 18  9  1  0  0  0  0
 20 22  1  6  0  0  0
 20 21  1  0  0  0  0
 23 20  1  0  0  0  0
 23 19  1  1  0  0  0
 25 24  1  1  0  0  0
 25 23  1  0  0  0  0
 25 20  1  0  0  0  0
M  END
>  <MODEL>
1

>  <REMARK>
 VINA RESULT:     -10.1      0.000      0.000
  Name = 
  2 active torsions:
  status: ('A' for Active; 'I' for Inactive)
    1  A    between atoms: N_6  and  C_15
    2  A    between atoms: N_6  and  C_23
                            x       y       z     vdW  Elec       q    Type
                         _______ _______ _______ _____ _____    ______ ____

>  <TORSDO>
F 2

$$$$
=
 OpenBabel10272400543D

 25 29  0  0  1  0  0  0  0  0999 V2000
  187.2070  177.7500  145.1670 C   0  0  0  0  0  0  0  0  0  0  0  0
  188.1590  177.2100  144.4110 C   0  0  0  0  0  3  0  0  0  0  0  0
  188.1680  178.0110  147.3850 N   0  0  0  0  0  0  0  0  0  0  0  0
  185.9470  178.0670  144.7100 C   0  0  0  0  0  0  0  0  0  0  0  0
  183.3290  178.9070  144.3770 C   0  0  0  0  0  3  0  0  0  0  0  0
  189.4630  177.4920  147.2000 N   0  0  0  0  0  2  0  0  0  0  0  0
  185.2600  178.6040  145.7660 C   0  0  0  0  0  0  0  0  0  0  0  0
  183.9410  179.0370  145.6370 C   0  0  0  0  0  3  0  0  0  0  0  0
  191.3730  176.4870  145.9480 N   0  0  0  0  0  0  0  0  0  0  0  0
  192.0250  175.9300  147.1210 C   0  0  0  0  0  1  0  0  0  0  0  0
  189.5150  176.8720  144.8270 C   0  0  0  0  0  0  0  0  0  0  0  0
  184.0380  178.3540  143.2890 C   0  0  0  0  0  3  0  0  0  0  0  0
  187.2070  178.1230  146.5170 C   0  0  0  0  0  0  0  0  0  0  0  0
  186.0100  178.6470  146.8790 N   0  0  0  0  0  2  0  0  0  0  0  0
  191.7190  176.0810  144.6970 O   0  0  0  0  0  0  0  0  0  0  0  0
  185.3680  177.9250  143.4480 C   0  0  0  0  0  3  0  0  0  0  0  0
  190.5270  176.2260  143.9380 C   0  0  2  0  0  3  0  0  0  0  0  0
  190.0590  176.9920  146.0000 C   0  0  0  0  0  0  0  0  0  0  0  0
  190.7910  177.0700  142.7820 N   0  0  0  0  0  2  0  0  0  0  0  0
  190.6680  177.0490  140.3250 C   0  0  1  0  0  0  0  0  0  0  0  0
  191.5990  178.0890  140.4440 O   0  0  0  0  0  1  0  0  0  0  0  0
  190.7950  176.1200  139.1360 C   0  0  0  0  0  1  0  0  0  0  0  0
  190.2090  176.4030  141.6210 C   0  0  2  0  0  3  0  0  0  0  0  0
  189.0930  178.7250  141.3970 C   0  0  0  0  0  1  0  0  0  0  0  0
  189.2560  177.3200  140.8180 C   0  0  1  0  0  3  0  0  0  0  0  0
  1 13  1  0  0  0  0
  2 11  1  0  0  0  0
  2  1  2  0  0  0  0
  4  1  1  0  0  0  0
  4  7  1  0  0  0  0
  5  8  1  0  0  0  0
  6  3  1  0  0  0  0
  7 14  1  0  0  0  0
  8  7  2  0  0  0  0
  9 18  1  0  0  0  0
  9 10  1  0  0  0  0
 11 18  2  0  0  0  0
 12 16  1  0  0  0  0
 12  5  2  0  0  0  0
 13 14  1  0  0  0  0
 13  3  2  0  0  0  0
 15  9  1  0  0  0  0
 16  4  2  0  0  0  0
 17 19  1  6  0  0  0
 17 15  1  0  0  0  0
 17 11  1  0  0  0  0
 18  6  1  0  0  0  0
 20 22  1  6  0  0  0
 20 21  1  0  0  0  0
 20 25  1  0  0  0  0
 20 23  1  0  0  0  0
 23 19  1  1  0  0  0
 25 24  1  1  0  0  0
 25 23  1  0  0  0  0
M  END
>  <MODEL>
2

>  <REMARK>
 VINA RESULT:     -10.0      2.244      3.531
  Name = 
  2 active torsions:
  status: ('A' for Active; 'I' for Inactive)
    1  A    between atoms: N_6  and  C_15
    2  A    between atoms: N_6  and  C_23
                            x       y       z     vdW  Elec       q    Type
                         _______ _______ _______ _____ _____    ______ ____

>  <TORSDO>
F 2

$$$$
=
 OpenBabel10272400543D

 25 29  0  0  1  0  0  0  0  0999 V2000
  185.3510  178.6250  141.3570 C   0  0  2  0  0  3  0  0  0  0  0  0
  186.6700  178.5050  141.4810 C   0  0  0  0  0  3  0  0  0  0  0  0
  184.8930  178.6390  138.9690 N   0  0  0  0  0  0  0  0  0  0  0  0
  184.4830  178.7210  142.4210 C   0  0  0  0  0  0  0  0  0  0  0  0
  182.3010  178.9360  144.1130 C   0  0  0  0  0  3  0  0  0  0  0  0
  186.1860  178.5240  138.4280 N   0  0  0  0  0  0  0  0  0  0  0  0
  183.2200  178.8230  141.9020 C   0  0  0  0  0  0  0  0  0  0  0  0
  182.0980  178.9330  142.7210 C   0  0  0  0  0  3  0  0  0  0  0  0
  188.6700  178.2880  138.4520 N   0  0  0  0  0  0  0  0  0  0  0  0
  188.8720  178.8460  137.1260 C   0  0  0  0  0  1  0  0  0  0  0  0
  187.6390  178.3770  140.3980 C   0  0  0  0  0  0  0  0  0  0  0  0
  183.6020  178.8300  144.6480 C   0  0  0  0  0  3  0  0  0  0  0  0
  184.5360  178.6790  140.2190 C   0  0  0  0  0  0  0  0  0  0  0  0
  183.2300  178.8000  140.5590 N   0  0  0  0  0  2  0  0  0  0  0  0
  189.7090  178.1540  139.3190 O   0  0  0  0  0  0  0  0  0  0  0  0
  184.7170  178.7200  143.7980 C   0  0  0  0  0  3  0  0  0  0  0  0
  189.1160  178.2880  140.6040 C   0  0  2  0  0  3  0  0  0  0  0  0
  187.4310  178.3850  139.1160 C   0  0  0  0  0  0  0  0  0  0  0  0
  189.4410  177.1200  141.4090 N   0  0  0  0  0  2  0  0  0  0  0  0
  190.4630  176.4680  143.5510 C   0  0  1  0  0  0  0  0  0  0  0  0
  190.4410  175.1930  142.9720 O   0  0  0  0  0  1  0  0  0  0  0  0
  191.6180  176.8080  144.4690 C   0  0  0  0  0  1  0  0  0  0  0  0
  189.9480  177.6080  142.6890 C   0  0  2  0  0  3  0  0  0  0  0  0
  187.9390  176.2080  143.5190 C   0  0  0  0  0  1  0  0  0  0  0  0
  189.1230  177.0990  143.8930 C   0  0  1  0  0  3  0  0  0  0  0  0
  1  2  1  1  0  0  0
  1  4  1  0  0  0  0
  3 13  2  0  0  0  0
  4 16  1  0  0  0  0
  5 12  1  0  0  0  0
  6  3  1  0  0  0  0
  6 18  2  0  0  0  0
  7  4  2  0  0  0  0
  7  8  1  0  0  0  0
  8  5  2  0  0  0  0
  9 18  1  0  0  0  0
  9 15  1  0  0  0  0
 10  9  1  0  0  0  0
 11 17  1  0  0  0  0
 11  2  2  0  0  0  0
 13 14  1  0  0  0  0
 13  1  1  0  0  0  0
 14  7  1  0  0  0  0
 15 17  1  0  0  0  0
 16 12  2  0  0  0  0
 17 19  1  1  0  0  0
 18 11  1  0  0  0  0
 20 25  1  0  0  0  0
 20 22  1  1  0  0  0
 21 20  1  0  0  0  0
 23 19  1  6  0  0  0
 23 20  1  0  0  0  0
 23 25  1  0  0  0  0
 25 24  1  6  0  0  0
M  END
>  <MODEL>
3

>  <REMARK>
 VINA RESULT:      -9.5      3.537      5.278
  Name = 
  2 active torsions:
  status: ('A' for Active; 'I' for Inactive)
    1  A    between atoms: N_6  and  C_15
    2  A    between atoms: N_6  and  C_23
                            x       y       z     vdW  Elec       q    Type
                         _______ _______ _______ _____ _____    ______ ____

>  <TORSDO>
F 2

$$$$
=
 OpenBabel10272400543D

 25 29  0  0  1  0  0  0  0  0999 V2000
  188.5330  177.6730  144.1270 C   0  0  0  0  0  0  0  0  0  0  0  0
  188.7970  177.9450  142.8520 C   0  0  0  0  0  3  0  0  0  0  0  0
  186.1180  177.8220  144.3660 N   0  0  0  0  0  0  0  0  0  0  0  0
  189.4950  177.3780  145.0670 C   0  0  0  0  0  0  0  0  0  0  0  0
  190.9360  176.7250  147.3400 C   0  0  0  0  0  3  0  0  0  0  0  0
  185.7210  178.1680  143.0610 N   0  0  0  0  0  2  0  0  0  0  0  0
  188.8440  177.1510  146.2510 C   0  0  0  0  0  0  0  0  0  0  0  0
  189.5350  176.8210  147.4150 C   0  0  0  0  0  3  0  0  0  0  0  0
  186.0120  178.6960  140.6400 N   0  0  0  0  0  0  0  0  0  0  0  0
  184.7690  179.4370  140.5130 C   0  0  0  0  0  1  0  0  0  0  0  0
  187.8270  178.2430  141.8050 C   0  0  0  0  0  0  0  0  0  0  0  0
  191.6070  176.9570  146.1200 C   0  0  0  0  0  3  0  0  0  0  0  0
  187.3180  177.6080  144.8200 C   0  0  0  0  0  0  0  0  0  0  0  0
  187.5140  177.2880  146.1220 N   0  0  0  0  0  2  0  0  0  0  0  0
  186.9780  178.7830  139.6860 O   0  0  0  0  0  0  0  0  0  0  0  0
  190.8840  177.2890  144.9600 C   0  0  0  0  0  3  0  0  0  0  0  0
  188.1920  178.5830  140.3970 C   0  0  2  0  0  3  0  0  0  0  0  0
  186.5350  178.3360  141.8970 C   0  0  0  0  0  0  0  0  0  0  0  0
  188.9300  177.4840  139.7910 N   0  0  0  0  0  2  0  0  0  0  0  0
  189.0690  177.0190  137.3790 C   0  0  1  0  0  0  0  0  0  0  0  0
  188.2650  175.9250  137.7210 O   0  0  0  0  0  1  0  0  0  0  0  0
  188.8460  177.6660  136.0290 C   0  0  0  0  0  1  0  0  0  0  0  0
  189.4400  177.9630  138.5100 C   0  0  2  0  0  3  0  0  0  0  0  0
  190.8190  175.7880  138.7440 C   0  0  0  0  0  1  0  0  0  0  0  0
  190.4990  177.0180  137.8950 C   0  0  1  0  0  3  0  0  0  0  0  0
  1 13  1  0  0  0  0
  1  4  1  0  0  0  0
  2  1  2  0  0  0  0
  3 13  2  0  0  0  0
  4  7  1  0  0  0  0
  5  8  1  0  0  0  0
  6  3  1  0  0  0  0
  7  8  2  0  0  0  0
  9 18  1  0  0  0  0
 10  9  1  0  0  0  0
 11 18  2  0  0  0  0
 11  2  1  0  0  0  0
 12  5  2  0  0  0  0
 13 14  1  0  0  0  0
 14  7  1  0  0  0  0
 15 17  1  0  0  0  0
 15  9  1  0  0  0  0
 16  4  2  0  0  0  0
 16 12  1  0  0  0  0
 17 19  1  6  0  0  0
 17 11  1  0  0  0  0
 18  6  1  0  0  0  0
 20 22  1  6  0  0  0
 20 21  1  0  0  0  0
 20 25  1  0  0  0  0
 20 23  1  0  0  0  0
 23 19  1  1  0  0  0
 25 23  1  0  0  0  0
 25 24  1  1  0  0  0
M  END
>  <MODEL>
4

>  <REMARK>
 VINA RESULT:      -9.2      4.173      6.632
  Name = 
  2 active torsions:
  status: ('A' for Active; 'I' for Inactive)
    1  A    between atoms: N_6  and  C_15
    2  A    between atoms: N_6  and  C_23
                            x       y       z     vdW  Elec       q    Type
                         _______ _______ _______ _____ _____    ______ ____

>  <TORSDO>
F 2

$$$$
=
 OpenBabel10272400543D

 25 29  0  0  1  0  0  0  0  0999 V2000
  186.4320  178.0390  143.6080 C   0  0  0  0  0  0  0  0  0  0  0  0
  187.1120  177.6630  142.5290 C   0  0  0  0  0  3  0  0  0  0  0  0
  188.0140  177.9970  145.4540 N   0  0  0  0  0  0  0  0  0  0  0  0
  185.0950  178.3680  143.6000 C   0  0  0  0  0  0  0  0  0  0  0  0
  182.5020  179.1360  144.1950 C   0  0  0  0  0  3  0  0  0  0  0  0
  189.1910  177.5690  144.8140 N   0  0  0  0  0  2  0  0  0  0  0  0
  184.7570  178.7070  144.8840 C   0  0  0  0  0  0  0  0  0  0  0  0
  183.4630  179.0980  145.2210 C   0  0  0  0  0  3  0  0  0  0  0  0
  190.6350  176.8510  142.9110 N   0  0  0  0  0  0  0  0  0  0  0  0
  191.6050  176.1490  143.7340 C   0  0  0  0  0  1  0  0  0  0  0  0
  188.5300  177.3230  142.4660 C   0  0  0  0  0  0  0  0  0  0  0  0
  182.8510  178.7890  142.8720 C   0  0  0  0  0  3  0  0  0  0  0  0
  186.8370  178.2000  144.9390 C   0  0  0  0  0  0  0  0  0  0  0  0
  185.8060  178.6100  145.7170 N   0  0  0  0  0  2  0  0  0  0  0  0
  190.5900  176.6570  141.5650 O   0  0  0  0  0  0  0  0  0  0  0  0
  184.1650  178.3970  142.5600 C   0  0  0  0  0  3  0  0  0  0  0  0
  189.2260  176.8660  141.2250 C   0  0  2  0  0  3  0  0  0  0  0  0
  189.3990  177.2850  143.4290 C   0  0  0  0  0  0  0  0  0  0  0  0
  189.1370  177.8880  140.1940 N   0  0  0  0  0  2  0  0  0  0  0  0
  188.8270  178.1840  137.7710 C   0  0  1  0  0  0  0  0  0  0  0  0
  188.9820  179.5380  138.0940 O   0  0  0  0  0  1  0  0  0  0  0  0
  189.3640  177.7100  136.4370 C   0  0  0  0  0  1  0  0  0  0  0  0
  188.9510  177.1990  138.9200 C   0  0  2  0  0  3  0  0  0  0  0  0
  186.6760  178.4130  139.0960 C   0  0  0  0  0  1  0  0  0  0  0  0
  187.5750  177.4880  138.2770 C   0  0  1  0  0  3  0  0  0  0  0  0
  1 13  1  0  0  0  0
  2  1  2  0  0  0  0
  4  1  1  0  0  0  0
  4  7  1  0  0  0  0
  5  8  1  0  0  0  0
  6  3  1  0  0  0  0
  7  8  2  0  0  0  0
  7 14  1  0  0  0  0
  9 18  1  0  0  0  0
  9 10  1  0  0  0  0
 11  2  1  0  0  0  0
 11 18  2  0  0  0  0
 12  5  2  0  0  0  0
 13  3  2  0  0  0  0
 13 14  1  0  0  0  0
 15  9  1  0  0  0  0
 16 12  1  0  0  0  0
 16  4  2  0  0  0  0
 17 19  1  6  0  0  0
 17 15  1  0  0  0  0
 17 11  1  0  0  0  0
 18  6  1  0  0  0  0
 20 22  1  6  0  0  0
 20 21  1  0  0  0  0
 20 25  1  0  0  0  0
 20 23  1  0  0  0  0
 23 19  1  1  0  0  0
 25 23  1  0  0  0  0
 25 24  1  1  0  0  0
M  END
>  <MODEL>
5

>  <REMARK>
 VINA RESULT:      -9.2      3.385      4.834
  Name = 
  2 active torsions:
  status: ('A' for Active; 'I' for Inactive)
    1  A    between atoms: N_6  and  C_15
    2  A    between atoms: N_6  and  C_23
                            x       y       z     vdW  Elec       q    Type
                         _______ _______ _______ _____ _____    ______ ____

>  <TORSDO>
F 2

$$$$
=
 OpenBabel10272400543D

 25 29  0  0  1  0  0  0  0  0999 V2000
  189.3100  177.3800  142.8830 C   0  0  0  0  0  0  0  0  0  0  0  0
  188.8750  177.1290  141.6520 C   0  0  0  0  0  3  0  0  0  0  0  0
  191.7170  177.6740  142.7050 N   0  0  0  0  0  0  0  0  0  0  0  0
  188.4950  177.4410  143.9910 C   0  0  0  0  0  0  0  0  0  0  0  0
  187.3900  177.6960  146.5180 C   0  0  0  0  0  3  0  0  0  0  0  0
  191.9300  177.4750  141.3280 N   0  0  0  0  0  2  0  0  0  0  0  0
  189.2960  177.7260  145.0650 C   0  0  0  0  0  0  0  0  0  0  0  0
  188.7770  177.8610  146.3510 C   0  0  0  0  0  3  0  0  0  0  0  0
  191.3100  177.0270  138.9540 N   0  0  0  0  0  0  0  0  0  0  0  0
  192.6210  176.5390  138.5620 C   0  0  0  0  0  1  0  0  0  0  0  0
  189.6810  177.0720  140.4370 C   0  0  0  0  0  0  0  0  0  0  0  0
  186.5640  177.4050  145.4100 C   0  0  0  0  0  3  0  0  0  0  0  0
  190.5990  177.6360  143.3680 C   0  0  0  0  0  0  0  0  0  0  0  0
  190.5850  177.8480  144.7070 N   0  0  0  0  0  2  0  0  0  0  0  0
  190.2200  176.8090  138.1700 O   0  0  0  0  0  0  0  0  0  0  0  0
  187.1150  177.2740  144.1240 C   0  0  0  0  0  3  0  0  0  0  0  0
  189.1360  176.7420  139.0860 C   0  0  2  0  0  3  0  0  0  0  0  0
  190.9640  177.2180  140.3060 C   0  0  0  0  0  0  0  0  0  0  0  0
  188.1210  177.7130  138.7040 N   0  0  0  0  0  2  0  0  0  0  0  0
  187.0230  178.2840  136.5770 C   0  0  1  0  0  0  0  0  0  0  0  0
  187.4230  179.5810  136.9210 O   0  0  0  0  0  1  0  0  0  0  0  0
  187.0090  177.9130  135.1090 C   0  0  0  0  0  1  0  0  0  0  0  0
  187.4320  177.1770  137.5330 C   0  0  2  0  0  3  0  0  0  0  0  0
  185.5020  178.5320  138.5940 C   0  0  0  0  0  1  0  0  0  0  0  0
  185.9570  177.6330  137.4440 C   0  0  1  0  0  3  0  0  0  0  0  0
  1 13  1  0  0  0  0
  1  4  1  0  0  0  0
  2  1  2  0  0  0  0
  3 13  2  0  0  0  0
  4 16  2  0  0  0  0
  4  7  1  0  0  0  0
  6  3  1  0  0  0  0
  7  8  2  0  0  0  0
  8  5  1  0  0  0  0
  9 18  1  0  0  0  0
 10  9  1  0  0  0  0
 11  2  1  0  0  0  0
 12  5  2  0  0  0  0
 13 14  1  0  0  0  0
 14  7  1  0  0  0  0
 15  9  1  0  0  0  0
 15 17  1  0  0  0  0
 16 12  1  0  0  0  0
 17 19  1  6  0  0  0
 17 11  1  0  0  0  0
 18 11  2  0  0  0  0
 18  6  1  0  0  0  0
 20 22  1  6  0  0  0
 20 21  1  0  0  0  0
 20 25  1  0  0  0  0
 20 23  1  0  0  0  0
 23 19  1  1  0  0  0
 25 23  1  0  0  0  0
 25 24  1  1  0  0  0
M  END
>  <MODEL>
6

>  <REMARK>
 VINA RESULT:      -9.2      4.361      7.641
  Name = 
  2 active torsions:
  status: ('A' for Active; 'I' for Inactive)
    1  A    between atoms: N_6  and  C_15
    2  A    between atoms: N_6  and  C_23
                            x       y       z     vdW  Elec       q    Type
                         _______ _______ _______ _____ _____    ______ ____

>  <TORSDO>
F 2

$$$$
=
 OpenBabel10272400543D

 25 29  0  0  1  0  0  0  0  0999 V2000
  187.2470  178.0820  143.6520 C   0  0  2  0  0  3  0  0  0  0  0  0
  188.4440  177.9250  144.2100 C   0  0  0  0  0  3  0  0  0  0  0  0
  187.5760  177.8320  141.2560 N   0  0  0  0  0  0  0  0  0  0  0  0
  186.0940  178.3380  144.3610 C   0  0  0  0  0  0  0  0  0  0  0  0
  183.5090  178.8390  145.2210 C   0  0  0  0  0  3  0  0  0  0  0  0
  188.9620  177.6020  141.1790 N   0  0  0  0  0  0  0  0  0  0  0  0
  185.0740  178.4280  143.4520 C   0  0  0  0  0  0  0  0  0  0  0  0
  183.7610  178.6790  143.8460 C   0  0  0  0  0  3  0  0  0  0  0  0
  191.2820  177.2720  142.0340 N   0  0  0  0  0  0  0  0  0  0  0  0
  191.9390  177.6600  140.7970 C   0  0  0  0  0  1  0  0  0  0  0  0
  189.6950  177.6310  143.5200 C   0  0  0  0  0  0  0  0  0  0  0  0
  184.5600  178.7450  146.1580 C   0  0  0  0  0  3  0  0  0  0  0  0
  186.8440  178.0340  142.3120 C   0  0  0  0  0  0  0  0  0  0  0  0
  185.5100  178.2470  142.1940 N   0  0  0  0  0  2  0  0  0  0  0  0
  191.9780  177.1990  143.2010 O   0  0  0  0  0  0  0  0  0  0  0  0
  185.8760  178.4900  145.7320 C   0  0  0  0  0  3  0  0  0  0  0  0
  191.0180  177.5080  144.2030 C   0  0  2  0  0  3  0  0  0  0  0  0
  189.9080  177.4970  142.2460 C   0  0  0  0  0  0  0  0  0  0  0  0
  190.9790  176.4320  145.1810 N   0  0  0  0  0  2  0  0  0  0  0  0
  191.6790  175.8630  147.4710 C   0  0  1  0  0  0  0  0  0  0  0  0
  190.9990  174.6700  147.1940 O   0  0  0  0  0  1  0  0  0  0  0  0
  192.9050  175.7890  148.3550 C   0  0  0  0  0  1  0  0  0  0  0  0
  191.7370  176.8810  146.3450 C   0  0  2  0  0  3  0  0  0  0  0  0
  189.3540  176.8740  147.3500 C   0  0  0  0  0  1  0  0  0  0  0  0
  190.8440  177.1280  147.5830 C   0  0  1  0  0  3  0  0  0  0  0  0
  1  2  1  1  0  0  0
  1  4  1  0  0  0  0
  3 13  2  0  0  0  0
  4 16  1  0  0  0  0
  5 12  1  0  0  0  0
  6  3  1  0  0  0  0
  6 18  2  0  0  0  0
  7  8  1  0  0  0  0
  7  4  2  0  0  0  0
  8  5  2  0  0  0  0
  9 18  1  0  0  0  0
  9 15  1  0  0  0  0
 10  9  1  0  0  0  0
 11 17  1  0  0  0  0
 11  2  2  0  0  0  0
 13  1  1  0  0  0  0
 14 13  1  0  0  0  0
 14  7  1  0  0  0  0
 15 17  1  0  0  0  0
 16 12  2  0  0  0  0
 17 19  1  1  0  0  0
 18 11  1  0  0  0  0
 20 25  1  0  0  0  0
 20 22  1  1  0  0  0
 21 20  1  0  0  0  0
 23 19  1  6  0  0  0
 23 20  1  0  0  0  0
 23 25  1  0  0  0  0
 25 24  1  6  0  0  0
M  END
>  <MODEL>
7

>  <REMARK>
 VINA RESULT:      -9.1      2.481      4.491
  Name = 
  2 active torsions:
  status: ('A' for Active; 'I' for Inactive)
    1  A    between atoms: N_6  and  C_15
    2  A    between atoms: N_6  and  C_23
                            x       y       z     vdW  Elec       q    Type
                         _______ _______ _______ _____ _____    ______ ____

>  <TORSDO>
F 2

$$$$
=
 OpenBabel10272400543D

 25 29  0  0  1  0  0  0  0  0999 V2000
  187.6830  177.8860  144.0680 C   0  0  0  0  0  0  0  0  0  0  0  0
  188.1150  178.0360  142.8190 C   0  0  0  0  0  3  0  0  0  0  0  0
  185.2660  178.1360  143.9840 N   0  0  0  0  0  0  0  0  0  0  0  0
  188.5070  177.6440  145.1440 C   0  0  0  0  0  0  0  0  0  0  0  0
  189.6250  177.1470  147.6290 C   0  0  0  0  0  3  0  0  0  0  0  0
  185.0500  178.3780  142.6140 N   0  0  0  0  0  2  0  0  0  0  0  0
  187.7050  177.5440  146.2500 C   0  0  0  0  0  0  0  0  0  0  0  0
  188.2310  177.2950  147.5160 C   0  0  0  0  0  3  0  0  0  0  0  0
  185.6620  178.6800  140.2150 N   0  0  0  0  0  0  0  0  0  0  0  0
  184.4780  179.4480  139.8690 C   0  0  0  0  0  1  0  0  0  0  0  0
  187.2960  178.2720  141.6350 C   0  0  0  0  0  0  0  0  0  0  0  0
  190.4510  177.2480  146.4890 C   0  0  0  0  0  3  0  0  0  0  0  0
  186.3900  177.9230  144.6030 C   0  0  0  0  0  0  0  0  0  0  0  0
  186.4080  177.7120  145.9420 N   0  0  0  0  0  2  0  0  0  0  0  0
  186.7420  178.6510  139.3890 O   0  0  0  0  0  0  0  0  0  0  0  0
  189.8930  177.5000  145.2230 C   0  0  0  0  0  3  0  0  0  0  0  0
  187.8490  178.4740  140.2620 C   0  0  2  0  0  3  0  0  0  0  0  0
  186.0080  178.4150  141.5540 C   0  0  0  0  0  0  0  0  0  0  0  0
  188.6060  177.3020  139.8490 N   0  0  0  0  0  2  0  0  0  0  0  0
  190.6720  176.6310  138.6930 C   0  0  1  0  0  0  0  0  0  0  0  0
  190.1330  175.3470  138.8460 O   0  0  0  0  0  1  0  0  0  0  0  0
  191.4810  176.9130  137.4450 C   0  0  0  0  0  1  0  0  0  0  0  0
  189.8250  177.7830  139.2050 C   0  0  2  0  0  3  0  0  0  0  0  0
  190.8580  176.5380  141.2220 C   0  0  0  0  0  1  0  0  0  0  0  0
  191.1080  177.3560  139.9550 C   0  0  1  0  0  3  0  0  0  0  0  0
  1 13  1  0  0  0  0
  1  4  1  0  0  0  0
  2  1  2  0  0  0  0
  3 13  2  0  0  0  0
  4 16  2  0  0  0  0
  4  7  1  0  0  0  0
  6  3  1  0  0  0  0
  7  8  2  0  0  0  0
  8  5  1  0  0  0  0
  9 18  1  0  0  0  0
 10  9  1  0  0  0  0
 11  2  1  0  0  0  0
 12  5  2  0  0  0  0
 13 14  1  0  0  0  0
 14  7  1  0  0  0  0
 15  9  1  0  0  0  0
 15 17  1  0  0  0  0
 16 12  1  0  0  0  0
 17 19  1  6  0  0  0
 17 11  1  0  0  0  0
 18 11  2  0  0  0  0
 18  6  1  0  0  0  0
 20 22  1  6  0  0  0
 20 21  1  0  0  0  0
 20 23  1  0  0  0  0
 20 25  1  0  0  0  0
 23 19  1  1  0  0  0
 23 25  1  0  0  0  0
 25 24  1  1  0  0  0
M  END
>  <MODEL>
8

>  <REMARK>
 VINA RESULT:      -9.0      3.647      6.002
  Name = 
  2 active torsions:
  status: ('A' for Active; 'I' for Inactive)
    1  A    between atoms: N_6  and  C_15
    2  A    between atoms: N_6  and  C_23
                            x       y       z     vdW  Elec       q    Type
                         _______ _______ _______ _____ _____    ______ ____

>  <TORSDO>
F 2

$$$$
=
 OpenBabel10272400543D

 25 29  0  0  1  0  0  0  0  0999 V2000
  188.0130  177.7760  142.0120 C   0  0  2  0  0  3  0  0  0  0  0  0
  188.3280  177.3500  143.2310 C   0  0  0  0  0  3  0  0  0  0  0  0
  185.9250  179.0010  142.2390 N   0  0  0  0  0  0  0  0  0  0  0  0
  188.7710  177.5280  140.8890 C   0  0  0  0  0  0  0  0  0  0  0  0
  189.8540  177.3670  138.3450 C   0  0  0  0  0  3  0  0  0  0  0  0
  185.6690  178.8780  143.6170 N   0  0  0  0  0  0  0  0  0  0  0  0
  188.1360  178.1270  139.8340 C   0  0  0  0  0  0  0  0  0  0  0  0
  188.6500  178.0680  138.5400 C   0  0  0  0  0  3  0  0  0  0  0  0
  186.0890  178.1760  145.9740 N   0  0  0  0  0  0  0  0  0  0  0  0
  184.6970  178.2440  146.3860 C   0  0  0  0  0  1  0  0  0  0  0  0
  187.5820  177.5960  144.4610 C   0  0  0  0  0  0  0  0  0  0  0  0
  190.5100  176.7510  139.4330 C   0  0  0  0  0  3  0  0  0  0  0  0
  186.9270  178.5330  141.5550 C   0  0  0  0  0  0  0  0  0  0  0  0
  187.0070  178.7460  140.2180 N   0  0  0  0  0  2  0  0  0  0  0  0
  187.0120  177.5280  146.7340 O   0  0  0  0  0  0  0  0  0  0  0  0
  189.9680  176.8270  140.7280 C   0  0  0  0  0  3  0  0  0  0  0  0
  187.9680  177.0510  145.7970 C   0  0  2  0  0  3  0  0  0  0  0  0
  186.4650  178.2390  144.6180 C   0  0  0  0  0  0  0  0  0  0  0  0
  189.2910  177.5310  146.1710 N   0  0  0  0  0  2  0  0  0  0  0  0
  191.5280  176.6590  146.7080 C   0  0  1  0  0  0  0  0  0  0  0  0
  191.5970  177.8160  147.4950 O   0  0  0  0  0  1  0  0  0  0  0  0
  192.2300  175.4170  147.2140 C   0  0  0  0  0  1  0  0  0  0  0  0
  190.2220  176.4250  145.9690 C   0  0  2  0  0  3  0  0  0  0  0  0
  191.5270  178.3170  144.7870 C   0  0  0  0  0  1  0  0  0  0  0  0
  191.4950  176.8460  145.2000 C   0  0  1  0  0  3  0  0  0  0  0  0
  1  2  1  1  0  0  0
  2 11  2  0  0  0  0
  3  6  1  0  0  0  0
  4  1  1  0  0  0  0
  5  8  2  0  0  0  0
  5 12  1  0  0  0  0
  6 18  2  0  0  0  0
  7 14  1  0  0  0  0
  7  4  2  0  0  0  0
  8  7  1  0  0  0  0
  9 10  1  0  0  0  0
  9 15  1  0  0  0  0
 11 18  1  0  0  0  0
 11 17  1  0  0  0  0
 12 16  2  0  0  0  0
 13  1  1  0  0  0  0
 13  3  2  0  0  0  0
 14 13  1  0  0  0  0
 16  4  1  0  0  0  0
 17 19  1  1  0  0  0
 17 15  1  0  0  0  0
 18  9  1  0  0  0  0
 20 22  1  1  0  0  0
 20 21  1  0  0  0  0
 23 19  1  1  0  0  0
 23 20  1  0  0  0  0
 25 24  1  1  0  0  0
 25 23  1  0  0  0  0
 25 20  1  0  0  0  0
M  END
>  <MODEL>
9

>  <REMARK>
 VINA RESULT:      -8.8      2.897      4.178
  Name = 
  2 active torsions:
  status: ('A' for Active; 'I' for Inactive)
    1  A    between atoms: N_6  and  C_15
    2  A    between atoms: N_6  and  C_23
                            x       y       z     vdW  Elec       q    Type
                         _______ _______ _______ _____ _____    ______ ____

>  <TORSDO>
F 2

$$$$
