=
 OpenBabel10272415293D

 34 40  0  0  1  0  0  0  0  0999 V2000
  189.9810  175.4020  136.6770 C   0  0  2  0  0  0  0  0  0  0  0  0
  186.9970  176.6940  135.2040 C   0  0  0  0  0  3  0  0  0  0  0  0
  189.3700  176.1540  134.4880 N   0  0  0  0  0  0  0  0  0  0  0  0
  190.5720  176.2750  137.7850 C   0  0  2  0  0  3  0  0  0  0  0  0
  190.8100  174.7630  137.7700 C   0  0  0  0  0  2  0  0  0  0  0  0
  190.5250  175.7580  135.3120 C   0  0  2  0  0  3  0  0  0  0  0  0
  185.8110  176.4460  135.7600 C   0  0  0  0  0  3  0  0  0  0  0  0
  185.4240  175.2250  136.5070 C   0  0  0  0  0  0  0  0  0  0  0  0
  186.2630  174.5020  137.2690 C   0  0  0  0  0  3  0  0  0  0  0  0
  188.1340  175.7110  135.2000 C   0  0  1  0  0  3  0  0  0  0  0  0
  187.7180  174.6670  137.4300 C   0  0  0  0  0  3  0  0  0  0  0  0
  188.5170  175.2930  136.5660 C   0  0  0  0  0  0  0  0  0  0  0  0
  188.5580  178.3530  141.6530 C   0  0  0  0  0  2  0  0  0  0  0  0
  189.2320  178.0800  138.8090 C   0  0  1  0  0  3  0  0  0  0  0  0
  185.1430  178.7140  140.0370 C   0  0  0  0  0  0  0  0  0  0  0  0
  186.1570  178.6270  141.0070 C   0  0  0  0  0  3  0  0  0  0  0  0
  187.4840  178.4140  140.6220 C   0  0  0  0  0  0  0  0  0  0  0  0
  189.5800  176.6090  138.8910 C   0  0  2  0  0  3  0  0  0  0  0  0
  186.8020  178.3900  138.2970 C   0  0  0  0  0  3  0  0  0  0  0  0
  187.8120  178.2970  139.2600 C   0  0  0  0  0  0  0  0  0  0  0  0
  185.4750  178.5960  138.6830 C   0  0  0  0  0  3  0  0  0  0  0  0
  190.2010  177.5660  139.8910 C   0  0  2  0  0  3  0  0  0  0  0  0
  189.5770  177.2890  141.2660 C   0  0  0  0  0  2  0  0  0  0  0  0
  183.8090  178.9320  140.3930 O   0  0  0  0  0  0  0  0  0  0  0  0
  181.6920  178.5860  141.4620 C   0  0  0  0  0  1  0  0  0  0  0  0
  183.1340  178.1420  141.3620 C   0  0  0  0  0  2  0  0  0  0  0  0
  183.9600  174.9210  136.6120 C   0  0  0  0  0  3  0  0  0  0  0  0
  183.4800  175.1080  138.0420 C   0  0  0  0  0  2  0  0  0  0  0  0
  183.1790  176.1650  137.0040 C   0  0  0  0  0  2  0  0  0  0  0  0
  192.7260  174.6580  134.4290 C   0  0  0  0  0  1  0  0  0  0  0  0
  191.2520  174.6080  134.6710 C   0  0  0  0  0  0  0  0  0  0  0  0
  190.6280  173.6060  134.3640 O   0  0  0  0  0  0  0  0  0  0  0  0
  189.4610  177.6060  134.3470 C   0  0  0  0  0  2  0  0  0  0  0  0
  190.8010  177.9900  134.3520 O   0  0  0  0  0  1  0  0  0  0  0  0
  1  5  1  1  0  0  0
  1  4  1  0  0  0  0
  2  7  2  0  0  0  0
  3 10  1  0  0  0  0
  3  6  1  0  0  0  0
  4  5  1  1  0  0  0
  6 31  1  6  0  0  0
  6  1  1  0  0  0  0
  7  8  1  0  0  0  0
  8 27  1  0  0  0  0
  8  9  2  0  0  0  0
  9 11  1  0  0  0  0
 10  2  1  1  0  0  0
 10 12  1  0  0  0  0
 12  1  1  0  0  0  0
 12 11  2  0  0  0  0
 14 18  1  0  0  0  0
 14 20  1  1  0  0  0
 14 22  1  0  0  0  0
 15 24  1  0  0  0  0
 15 16  1  0  0  0  0
 17 16  2  0  0  0  0
 17 13  1  0  0  0  0
 18  4  1  6  0  0  0
 18 22  1  0  0  0  0
 19 21  1  0  0  0  0
 19 20  2  0  0  0  0
 20 17  1  0  0  0  0
 21 15  2  0  0  0  0
 22 23  1  1  0  0  0
 23 13  1  0  0  0  0
 24 26  1  0  0  0  0
 26 25  1  0  0  0  0
 27 29  1  0  0  0  0
 27 28  1  0  0  0  0
 29 28  1  0  0  0  0
 30 31  1  0  0  0  0
 32 31  2  0  0  0  0
 33 34  1  0  0  0  0
 33  3  1  0  0  0  0
M  END
>  <MODEL>
1

>  <REMARK>
 VINA RESULT:      -4.8      0.000      0.000
  Name = 
  6 active torsions:
  status: ('A' for Active; 'I' for Inactive)
    1  A    between atoms: C_3  and  C_25
    2  A    between atoms: N_5  and  C_19
    3  A    between atoms: C_7  and  O_11
    4  A    between atoms: C_8  and  C_18
    5  A    between atoms: O_11  and  C_21
    6  A    between atoms: C_12  and  C_20
                            x       y       z     vdW  Elec       q    Type
                         _______ _______ _______ _____ _____    ______ ____

>  <TORSDO>
F 6

$$$$
=
 OpenBabel10272415293D

 34 40  0  0  1  0  0  0  0  0999 V2000
  185.5780  176.8870  136.6460 C   0  0  2  0  0  0  0  0  0  0  0  0
  185.2570  173.4410  137.5220 C   0  0  0  0  0  3  0  0  0  0  0  0
  183.7450  175.3620  136.8460 N   0  0  0  0  0  0  0  0  0  0  0  0
  186.1210  177.7790  137.7650 C   0  0  2  0  0  3  0  0  0  0  0  0
  186.3310  178.1520  136.2960 C   0  0  0  0  0  2  0  0  0  0  0  0
  184.0700  176.7870  136.6690 C   0  0  2  0  0  3  0  0  0  0  0  0
  186.2990  172.6180  137.4060 C   0  0  0  0  0  3  0  0  0  0  0  0
  187.3820  172.7030  136.3960 C   0  0  0  0  0  0  0  0  0  0  0  0
  187.8570  173.8510  135.8840 C   0  0  0  0  0  3  0  0  0  0  0  0
  184.9870  174.5780  136.5770 C   0  0  1  0  0  3  0  0  0  0  0  0
  187.3510  175.2190  136.0950 C   0  0  0  0  0  3  0  0  0  0  0  0
  186.1200  175.5250  136.5020 C   0  0  0  0  0  0  0  0  0  0  0  0
  190.7820  177.6030  139.0210 C   0  0  0  0  0  2  0  0  0  0  0  0
  187.9520  178.3210  139.3320 C   0  0  1  0  0  3  0  0  0  0  0  0
  190.0810  176.3760  142.5440 C   0  0  0  0  0  0  0  0  0  0  0  0
  190.7450  176.6580  141.3380 C   0  0  0  0  0  3  0  0  0  0  0  0
  190.0640  177.2800  140.2870 C   0  0  0  0  0  0  0  0  0  0  0  0
  187.4410  177.2920  138.3460 C   0  0  2  0  0  3  0  0  0  0  0  0
  188.0560  177.3610  141.6420 C   0  0  0  0  0  3  0  0  0  0  0  0
  188.7130  177.6370  140.4380 C   0  0  0  0  0  0  0  0  0  0  0  0
  188.7360  176.7340  142.6890 C   0  0  0  0  0  3  0  0  0  0  0  0
  188.5770  178.2070  137.9280 C   0  0  2  0  0  3  0  0  0  0  0  0
  189.8570  177.3650  137.8350 C   0  0  0  0  0  2  0  0  0  0  0  0
  190.7380  175.7600  143.6130 O   0  0  0  0  0  0  0  0  0  0  0  0
  190.9050  177.0380  145.6340 C   0  0  0  0  0  1  0  0  0  0  0  0
  191.6500  176.4530  144.4550 C   0  0  0  0  0  2  0  0  0  0  0  0
  188.1540  171.4490  136.1140 C   0  0  0  0  0  3  0  0  0  0  0  0
  187.2600  170.4120  135.4530 C   0  0  0  0  0  2  0  0  0  0  0  0
  188.2430  171.1990  134.6160 C   0  0  0  0  0  2  0  0  0  0  0  0
  182.1180  177.9950  135.4190 C   0  0  0  0  0  1  0  0  0  0  0  0
  183.4460  177.3120  135.4050 C   0  0  0  0  0  0  0  0  0  0  0  0
  184.0490  177.1950  134.3510 O   0  0  0  0  0  0  0  0  0  0  0  0
  183.2710  175.2300  138.2230 C   0  0  0  0  0  2  0  0  0  0  0  0
  182.7430  176.4480  138.6510 O   0  0  0  0  0  1  0  0  0  0  0  0
  1  5  1  6  0  0  0
  1  6  1  0  0  0  0
  1  4  1  0  0  0  0
  3 33  1  0  0  0  0
  4  5  1  6  0  0  0
  6 31  1  6  0  0  0
  6  3  1  0  0  0  0
  7  2  2  0  0  0  0
  8  7  1  0  0  0  0
  9 11  1  0  0  0  0
  9  8  2  0  0  0  0
 10  3  1  0  0  0  0
 10  2  1  1  0  0  0
 11 12  2  0  0  0  0
 12 10  1  0  0  0  0
 12  1  1  0  0  0  0
 13 17  1  0  0  0  0
 14 20  1  1  0  0  0
 15 21  1  0  0  0  0
 15 24  1  0  0  0  0
 16 15  2  0  0  0  0
 17 20  2  0  0  0  0
 17 16  1  0  0  0  0
 18  4  1  6  0  0  0
 18 14  1  0  0  0  0
 19 21  2  0  0  0  0
 20 19  1  0  0  0  0
 22 23  1  1  0  0  0
 22 18  1  0  0  0  0
 22 14  1  0  0  0  0
 23 13  1  0  0  0  0
 24 26  1  0  0  0  0
 26 25  1  0  0  0  0
 27  8  1  0  0  0  0
 28 27  1  0  0  0  0
 29 28  1  0  0  0  0
 29 27  1  0  0  0  0
 31 30  1  0  0  0  0
 32 31  2  0  0  0  0
 33 34  1  0  0  0  0
M  END
>  <MODEL>
2

>  <REMARK>
 VINA RESULT:      -4.7      3.006      5.862
  Name = 
  6 active torsions:
  status: ('A' for Active; 'I' for Inactive)
    1  A    between atoms: C_3  and  C_25
    2  A    between atoms: N_5  and  C_19
    3  A    between atoms: C_7  and  O_11
    4  A    between atoms: C_8  and  C_18
    5  A    between atoms: O_11  and  C_21
    6  A    between atoms: C_12  and  C_20
                            x       y       z     vdW  Elec       q    Type
                         _______ _______ _______ _____ _____    ______ ____

>  <TORSDO>
F 6

$$$$
=
 OpenBabel10272415293D

 34 40  0  0  1  0  0  0  0  0999 V2000
  182.8500  178.1400  138.7940 C   0  0  2  0  0  0  0  0  0  0  0  0
  183.2180  174.6480  138.1520 C   0  0  0  0  0  3  0  0  0  0  0  0
  181.3500  176.3610  138.2350 N   0  0  0  0  0  0  0  0  0  0  0  0
  183.2330  178.5690  140.2110 C   0  0  2  0  0  3  0  0  0  0  0  0
  183.3370  179.5510  139.0420 C   0  0  0  0  0  2  0  0  0  0  0  0
  181.3900  177.7640  138.6810 C   0  0  2  0  0  3  0  0  0  0  0  0
  184.3970  174.1550  137.7710 C   0  0  0  0  0  3  0  0  0  0  0  0
  185.4220  174.8490  136.9550 C   0  0  0  0  0  0  0  0  0  0  0  0
  185.6550  176.1720  136.9910 C   0  0  0  0  0  3  0  0  0  0  0  0
  182.7140  176.0030  137.7440 C   0  0  1  0  0  3  0  0  0  0  0  0
  184.8990  177.2090  137.7150 C   0  0  0  0  0  3  0  0  0  0  0  0
  183.6410  177.0870  138.1350 C   0  0  0  0  0  0  0  0  0  0  0  0
  188.0130  178.6020  140.9120 C   0  0  0  0  0  2  0  0  0  0  0  0
  185.2080  179.1670  141.5700 C   0  0  1  0  0  3  0  0  0  0  0  0
  187.7910  177.2590  144.4540 C   0  0  0  0  0  0  0  0  0  0  0  0
  188.2940  177.6030  143.1880 C   0  0  0  0  0  3  0  0  0  0  0  0
  187.4650  178.2140  142.2420 C   0  0  0  0  0  0  0  0  0  0  0  0
  184.6340  178.1360  140.6210 C   0  0  2  0  0  3  0  0  0  0  0  0
  185.6290  178.1600  143.8230 C   0  0  0  0  0  3  0  0  0  0  0  0
  186.1250  178.4980  142.5590 C   0  0  0  0  0  0  0  0  0  0  0  0
  186.4560  177.5440  144.7650 C   0  0  0  0  0  3  0  0  0  0  0  0
  185.6680  179.1180  140.1000 C   0  0  2  0  0  3  0  0  0  0  0  0
  186.9670  178.3450  139.8350 C   0  0  0  0  0  2  0  0  0  0  0  0
  188.5980  176.6530  145.4210 O   0  0  0  0  0  0  0  0  0  0  0  0
  188.6790  177.3690  147.7070 C   0  0  0  0  0  1  0  0  0  0  0  0
  189.3630  177.3980  146.3590 C   0  0  0  0  0  2  0  0  0  0  0  0
  186.4160  173.9920  136.2300 C   0  0  0  0  0  3  0  0  0  0  0  0
  185.8740  172.5830  136.0560 C   0  0  0  0  0  2  0  0  0  0  0  0
  185.8590  173.5420  134.8880 C   0  0  0  0  0  2  0  0  0  0  0  0
  180.6830  178.3740  136.2390 C   0  0  0  0  0  1  0  0  0  0  0  0
  180.6510  178.6410  137.7080 C   0  0  0  0  0  0  0  0  0  0  0  0
  179.9920  179.5770  138.1330 O   0  0  0  0  0  0  0  0  0  0  0  0
  180.9390  175.5840  139.4030 C   0  0  0  0  0  2  0  0  0  0  0  0
  180.3240  176.4260  140.3280 O   0  0  0  0  0  1  0  0  0  0  0  0
  1  5  1  6  0  0  0
  1  4  1  0  0  0  0
  3  6  1  0  0  0  0
  3 33  1  0  0  0  0
  4  5  1  6  0  0  0
  6 31  1  6  0  0  0
  6  1  1  0  0  0  0
  7  2  2  0  0  0  0
  8  9  2  0  0  0  0
  8  7  1  0  0  0  0
  9 11  1  0  0  0  0
 10 12  1  0  0  0  0
 10  2  1  1  0  0  0
 10  3  1  0  0  0  0
 11 12  2  0  0  0  0
 12  1  1  0  0  0  0
 13 17  1  0  0  0  0
 14 20  1  1  0  0  0
 15 21  1  0  0  0  0
 15 24  1  0  0  0  0
 16 15  2  0  0  0  0
 17 20  2  0  0  0  0
 17 16  1  0  0  0  0
 18  4  1  6  0  0  0
 18 14  1  0  0  0  0
 19 21  2  0  0  0  0
 20 19  1  0  0  0  0
 22 23  1  1  0  0  0
 22 18  1  0  0  0  0
 22 14  1  0  0  0  0
 23 13  1  0  0  0  0
 24 26  1  0  0  0  0
 26 25  1  0  0  0  0
 27  8  1  0  0  0  0
 28 27  1  0  0  0  0
 29 28  1  0  0  0  0
 29 27  1  0  0  0  0
 30 31  1  0  0  0  0
 31 32  2  0  0  0  0
 33 34  1  0  0  0  0
M  END
>  <MODEL>
3

>  <REMARK>
 VINA RESULT:      -4.4      4.217      7.038
  Name = 
  6 active torsions:
  status: ('A' for Active; 'I' for Inactive)
    1  A    between atoms: C_3  and  C_25
    2  A    between atoms: N_5  and  C_19
    3  A    between atoms: C_7  and  O_11
    4  A    between atoms: C_8  and  C_18
    5  A    between atoms: O_11  and  C_21
    6  A    between atoms: C_12  and  C_20
                            x       y       z     vdW  Elec       q    Type
                         _______ _______ _______ _____ _____    ______ ____

>  <TORSDO>
F 6

$$$$
=
 OpenBabel10272415293D

 34 40  0  0  1  0  0  0  0  0999 V2000
  189.5460  177.5660  140.6830 C   0  0  2  0  0  0  0  0  0  0  0  0
  187.1930  176.7800  143.2500 C   0  0  0  0  0  3  0  0  0  0  0  0
  189.7110  176.8020  142.9450 N   0  0  0  0  0  0  0  0  0  0  0  0
  189.4580  176.6710  139.4450 C   0  0  2  0  0  3  0  0  0  0  0  0
  189.9850  178.1040  139.3380 C   0  0  0  0  0  2  0  0  0  0  0  0
  190.5000  177.0210  141.7210 C   0  0  2  0  0  3  0  0  0  0  0  0
  185.9620  177.2880  143.2120 C   0  0  0  0  0  3  0  0  0  0  0  0
  185.5680  178.6080  142.6630 C   0  0  0  0  0  0  0  0  0  0  0  0
  186.1640  179.2050  141.6170 C   0  0  0  0  0  3  0  0  0  0  0  0
  188.4130  177.5220  142.7810 C   0  0  1  0  0  3  0  0  0  0  0  0
  187.3700  178.7720  140.8890 C   0  0  0  0  0  3  0  0  0  0  0  0
  188.3000  177.9490  141.3700 C   0  0  0  0  0  0  0  0  0  0  0  0
  185.7580  177.3070  136.4040 C   0  0  0  0  0  2  0  0  0  0  0  0
  188.1560  175.9840  137.4610 C   0  0  1  0  0  3  0  0  0  0  0  0
  184.5890  173.7030  136.6190 C   0  0  0  0  0  0  0  0  0  0  0  0
  184.5990  175.0910  136.3950 C   0  0  0  0  0  3  0  0  0  0  0  0
  185.7460  175.8410  136.6720 C   0  0  0  0  0  0  0  0  0  0  0  0
  188.0640  176.6090  138.8360 C   0  0  2  0  0  3  0  0  0  0  0  0
  186.8890  173.8260  137.3810 C   0  0  0  0  0  3  0  0  0  0  0  0
  186.8990  175.2080  137.1650 C   0  0  0  0  0  0  0  0  0  0  0  0
  185.7410  173.0770  137.1110 C   0  0  0  0  0  3  0  0  0  0  0  0
  187.9760  177.5060  137.6150 C   0  0  2  0  0  3  0  0  0  0  0  0
  186.5340  178.0200  137.5040 C   0  0  0  0  0  2  0  0  0  0  0  0
  183.4590  172.9260  136.3470 O   0  0  0  0  0  0  0  0  0  0  0  0
  183.3240  170.5680  135.9420 C   0  0  0  0  0  1  0  0  0  0  0  0
  183.2220  171.6720  136.9710 C   0  0  0  0  0  2  0  0  0  0  0  0
  184.2780  179.1960  143.1500 C   0  0  0  0  0  3  0  0  0  0  0  0
  183.8590  178.5450  144.4580 C   0  0  0  0  0  2  0  0  0  0  0  0
  184.4830  179.9220  144.4710 C   0  0  0  0  0  2  0  0  0  0  0  0
  191.6830  178.7880  143.2410 C   0  0  0  0  0  1  0  0  0  0  0  0
  191.6390  177.9640  141.9960 C   0  0  0  0  0  0  0  0  0  0  0  0
  192.5570  178.0380  141.1960 O   0  0  0  0  0  0  0  0  0  0  0  0
  189.5520  175.3530  143.0620 C   0  0  0  0  0  2  0  0  0  0  0  0
  190.7880  174.7730  143.3460 O   0  0  0  0  0  1  0  0  0  0  0  0
  1  5  1  6  0  0  0
  1 12  1  0  0  0  0
  1  6  1  0  0  0  0
  3 33  1  0  0  0  0
  4  5  1  6  0  0  0
  4  1  1  0  0  0  0
  6 31  1  1  0  0  0
  6  3  1  0  0  0  0
  7  2  2  0  0  0  0
  8 27  1  0  0  0  0
  8  7  1  0  0  0  0
  9  8  2  0  0  0  0
 10  3  1  0  0  0  0
 10  2  1  6  0  0  0
 11 12  2  0  0  0  0
 11  9  1  0  0  0  0
 12 10  1  0  0  0  0
 13 17  1  0  0  0  0
 13 23  1  0  0  0  0
 14 20  1  6  0  0  0
 14 22  1  0  0  0  0
 14 18  1  0  0  0  0
 15 21  1  0  0  0  0
 16 15  2  0  0  0  0
 16 17  1  0  0  0  0
 17 20  2  0  0  0  0
 18  4  1  1  0  0  0
 20 19  1  0  0  0  0
 21 19  2  0  0  0  0
 22 23  1  6  0  0  0
 22 18  1  0  0  0  0
 24 15  1  0  0  0  0
 24 26  1  0  0  0  0
 25 26  1  0  0  0  0
 27 28  1  0  0  0  0
 27 29  1  0  0  0  0
 28 29  1  0  0  0  0
 31 30  1  0  0  0  0
 32 31  2  0  0  0  0
 33 34  1  0  0  0  0
M  END
>  <MODEL>
4

>  <REMARK>
 VINA RESULT:      -4.4      3.309      6.717
  Name = 
  6 active torsions:
  status: ('A' for Active; 'I' for Inactive)
    1  A    between atoms: C_3  and  C_25
    2  A    between atoms: N_5  and  C_19
    3  A    between atoms: C_7  and  O_11
    4  A    between atoms: C_8  and  C_18
    5  A    between atoms: O_11  and  C_21
    6  A    between atoms: C_12  and  C_20
                            x       y       z     vdW  Elec       q    Type
                         _______ _______ _______ _____ _____    ______ ____

>  <TORSDO>
F 6

$$$$
=
 OpenBabel10272415293D

 34 40  0  0  1  0  0  0  0  0999 V2000
  187.5870  176.7260  136.8940 C   0  0  2  0  0  0  0  0  0  0  0  0
  188.2600  173.2280  136.6720 C   0  0  0  0  0  3  0  0  0  0  0  0
  186.3600  174.8180  136.1300 N   0  0  0  0  0  0  0  0  0  0  0  0
  187.5730  177.2810  138.3200 C   0  0  2  0  0  3  0  0  0  0  0  0
  187.9310  178.1800  137.1340 C   0  0  0  0  0  2  0  0  0  0  0  0
  186.2230  176.2490  136.4480 C   0  0  2  0  0  3  0  0  0  0  0  0
  189.5180  172.7850  136.6460 C   0  0  0  0  0  3  0  0  0  0  0  0
  190.6870  173.4830  136.0580 C   0  0  0  0  0  0  0  0  0  0  0  0
  190.8450  174.8180  136.0380 C   0  0  0  0  0  3  0  0  0  0  0  0
  187.8190  174.5140  136.0330 C   0  0  1  0  0  3  0  0  0  0  0  0
  189.8830  175.8540  136.4540 C   0  0  0  0  0  3  0  0  0  0  0  0
  188.5660  175.6810  136.5510 C   0  0  0  0  0  0  0  0  0  0  0  0
  191.9530  177.7290  140.3060 C   0  0  0  0  0  2  0  0  0  0  0  0
  189.0380  178.0410  140.1580 C   0  0  1  0  0  3  0  0  0  0  0  0
  190.8810  176.3500  143.6750 C   0  0  0  0  0  0  0  0  0  0  0  0
  191.6820  176.7440  142.5890 C   0  0  0  0  0  3  0  0  0  0  0  0
  191.0960  177.2860  141.4420 C   0  0  0  0  0  0  0  0  0  0  0  0
  188.8390  176.9710  139.1060 C   0  0  2  0  0  3  0  0  0  0  0  0
  188.9070  177.0620  142.4570 C   0  0  0  0  0  3  0  0  0  0  0  0
  189.7010  177.4490  141.3730 C   0  0  0  0  0  0  0  0  0  0  0  0
  189.4930  176.5140  143.6020 C   0  0  0  0  0  3  0  0  0  0  0  0
  189.8870  178.0420  138.8720 C   0  0  2  0  0  3  0  0  0  0  0  0
  191.2710  177.3880  138.9880 C   0  0  0  0  0  2  0  0  0  0  0  0
  191.4400  175.8100  144.8380 O   0  0  0  0  0  0  0  0  0  0  0  0
  192.1700  175.6920  147.1170 C   0  0  0  0  0  1  0  0  0  0  0  0
  191.7110  176.5930  145.9930 C   0  0  0  0  0  2  0  0  0  0  0  0
  191.8700  172.6420  135.6860 C   0  0  0  0  0  3  0  0  0  0  0  0
  192.9950  173.5150  135.1530 C   0  0  0  0  0  2  0  0  0  0  0  0
  193.0660  172.9770  136.5640 C   0  0  0  0  0  2  0  0  0  0  0  0
  184.2630  177.2600  135.0440 C   0  0  0  0  0  1  0  0  0  0  0  0
  185.7210  177.0050  135.2480 C   0  0  0  0  0  0  0  0  0  0  0  0
  186.5240  177.4360  134.4380 O   0  0  0  0  0  0  0  0  0  0  0  0
  185.6970  174.1030  137.2190 C   0  0  0  0  0  2  0  0  0  0  0  0
  184.4900  174.7330  137.5210 O   0  0  0  0  0  1  0  0  0  0  0  0
  1  5  1  6  0  0  0
  1  4  1  0  0  0  0
  3  6  1  0  0  0  0
  3 33  1  0  0  0  0
  4  5  1  6  0  0  0
  6 31  1  6  0  0  0
  6  1  1  0  0  0  0
  7  2  2  0  0  0  0
  8  7  1  0  0  0  0
  9  8  2  0  0  0  0
  9 11  1  0  0  0  0
 10  3  1  0  0  0  0
 10 12  1  0  0  0  0
 10  2  1  1  0  0  0
 11 12  2  0  0  0  0
 12  1  1  0  0  0  0
 13 17  1  0  0  0  0
 14 20  1  1  0  0  0
 15 24  1  0  0  0  0
 16 15  2  0  0  0  0
 17 16  1  0  0  0  0
 18  4  1  6  0  0  0
 18 14  1  0  0  0  0
 19 21  2  0  0  0  0
 20 17  2  0  0  0  0
 20 19  1  0  0  0  0
 21 15  1  0  0  0  0
 22 23  1  1  0  0  0
 22 18  1  0  0  0  0
 22 14  1  0  0  0  0
 23 13  1  0  0  0  0
 24 26  1  0  0  0  0
 26 25  1  0  0  0  0
 27  8  1  0  0  0  0
 27 29  1  0  0  0  0
 28 27  1  0  0  0  0
 28 29  1  0  0  0  0
 30 31  1  0  0  0  0
 32 31  2  0  0  0  0
 33 34  1  0  0  0  0
M  END
>  <MODEL>
5

>  <REMARK>
 VINA RESULT:      -4.1      2.943      6.039
  Name = 
  6 active torsions:
  status: ('A' for Active; 'I' for Inactive)
    1  A    between atoms: C_3  and  C_25
    2  A    between atoms: N_5  and  C_19
    3  A    between atoms: C_7  and  O_11
    4  A    between atoms: C_8  and  C_18
    5  A    between atoms: O_11  and  C_21
    6  A    between atoms: C_12  and  C_20
                            x       y       z     vdW  Elec       q    Type
                         _______ _______ _______ _____ _____    ______ ____

>  <TORSDO>
F 6

$$$$
=
 OpenBabel10272415293D

 34 40  0  0  1  0  0  0  0  0999 V2000
  193.8990  175.0370  137.2210 C   0  0  2  0  0  0  0  0  0  0  0  0
  191.7960  175.3910  134.3580 C   0  0  0  0  0  3  0  0  0  0  0  0
  194.2710  175.4970  134.9010 N   0  0  0  0  0  0  0  0  0  0  0  0
  193.6710  176.0860  138.3110 C   0  0  2  0  0  3  0  0  0  0  0  0
  194.2150  174.7000  138.6620 C   0  0  0  0  0  2  0  0  0  0  0  0
  194.9400  175.4710  136.2130 C   0  0  2  0  0  3  0  0  0  0  0  0
  190.5770  174.8510  134.3490 C   0  0  0  0  0  3  0  0  0  0  0  0
  190.1600  173.6030  135.0330 C   0  0  0  0  0  0  0  0  0  0  0  0
  190.6620  173.1730  136.2030 C   0  0  0  0  0  3  0  0  0  0  0  0
  192.9780  174.7620  135.0380 C   0  0  1  0  0  3  0  0  0  0  0  0
  191.7810  173.7400  136.9760 C   0  0  0  0  0  3  0  0  0  0  0  0
  192.7360  174.5240  136.4770 C   0  0  0  0  0  0  0  0  0  0  0  0
  189.6480  177.6640  140.4710 C   0  0  0  0  0  2  0  0  0  0  0  0
  191.6560  177.5160  138.3340 C   0  0  1  0  0  3  0  0  0  0  0  0
  187.4560  177.1240  137.4210 C   0  0  0  0  0  0  0  0  0  0  0  0
  187.8650  177.3130  138.7520 C   0  0  0  0  0  3  0  0  0  0  0  0
  189.2230  177.4330  139.0610 C   0  0  0  0  0  0  0  0  0  0  0  0
  192.2230  176.1810  138.7700 C   0  0  2  0  0  3  0  0  0  0  0  0
  189.7760  177.1950  136.7140 C   0  0  0  0  0  3  0  0  0  0  0  0
  190.1860  177.3770  138.0390 C   0  0  0  0  0  0  0  0  0  0  0  0
  188.4180  177.0680  136.4060 C   0  0  0  0  0  3  0  0  0  0  0  0
  192.0630  177.2830  139.8020 C   0  0  2  0  0  3  0  0  0  0  0  0
  190.9260  176.8830  140.7530 C   0  0  0  0  0  2  0  0  0  0  0  0
  186.1050  177.0060  137.0810 O   0  0  0  0  0  0  0  0  0  0  0  0
  185.1610  175.6260  135.3640 C   0  0  0  0  0  1  0  0  0  0  0  0
  185.6490  177.0080  135.7350 C   0  0  0  0  0  2  0  0  0  0  0  0
  188.9360  172.9120  134.5110 C   0  0  0  0  0  3  0  0  0  0  0  0
  188.5730  171.7330  135.4000 C   0  0  0  0  0  2  0  0  0  0  0  0
  187.7910  173.0230  135.5050 C   0  0  0  0  0  2  0  0  0  0  0  0
  196.0930  173.2790  135.3780 C   0  0  0  0  0  1  0  0  0  0  0  0
  196.1200  174.5400  136.1780 C   0  0  0  0  0  0  0  0  0  0  0  0
  197.1280  174.8330  136.7990 O   0  0  0  0  0  0  0  0  0  0  0  0
  194.0940  176.9110  134.5730 C   0  0  0  0  0  2  0  0  0  0  0  0
  194.9750  177.6780  135.3340 O   0  0  0  0  0  1  0  0  0  0  0  0
  1  4  1  0  0  0  0
  1  5  1  1  0  0  0
  3 10  1  0  0  0  0
  3  6  1  0  0  0  0
  4  5  1  1  0  0  0
  6 31  1  6  0  0  0
  6  1  1  0  0  0  0
  7  2  2  0  0  0  0
  7  8  1  0  0  0  0
  8  9  2  0  0  0  0
  9 11  1  0  0  0  0
 10  2  1  1  0  0  0
 10 12  1  0  0  0  0
 12 11  2  0  0  0  0
 12  1  1  0  0  0  0
 13 23  1  0  0  0  0
 14 20  1  1  0  0  0
 14 18  1  0  0  0  0
 14 22  1  0  0  0  0
 15 16  1  0  0  0  0
 16 17  2  0  0  0  0
 17 13  1  0  0  0  0
 18  4  1  6  0  0  0
 18 22  1  0  0  0  0
 19 20  2  0  0  0  0
 20 17  1  0  0  0  0
 21 19  1  0  0  0  0
 21 15  2  0  0  0  0
 22 23  1  1  0  0  0
 24 15  1  0  0  0  0
 25 26  1  0  0  0  0
 26 24  1  0  0  0  0
 27  8  1  0  0  0  0
 27 28  1  0  0  0  0
 27 29  1  0  0  0  0
 28 29  1  0  0  0  0
 30 31  1  0  0  0  0
 31 32  2  0  0  0  0
 33  3  1  0  0  0  0
 33 34  1  0  0  0  0
M  END
>  <MODEL>
6

>  <REMARK>
 VINA RESULT:      -3.8      2.861      4.519
  Name = 
  6 active torsions:
  status: ('A' for Active; 'I' for Inactive)
    1  A    between atoms: C_3  and  C_25
    2  A    between atoms: N_5  and  C_19
    3  A    between atoms: C_7  and  O_11
    4  A    between atoms: C_8  and  C_18
    5  A    between atoms: O_11  and  C_21
    6  A    between atoms: C_12  and  C_20
                            x       y       z     vdW  Elec       q    Type
                         _______ _______ _______ _____ _____    ______ ____

>  <TORSDO>
F 6

$$$$
=
 OpenBabel10272415293D

 34 40  0  0  1  0  0  0  0  0999 V2000
  189.4060  175.9890  137.4190 C   0  0  2  0  0  0  0  0  0  0  0  0
  187.2430  175.2490  134.6770 C   0  0  0  0  0  3  0  0  0  0  0  0
  189.6870  175.8150  135.0480 N   0  0  0  0  0  0  0  0  0  0  0  0
  189.0510  177.2670  138.1810 C   0  0  2  0  0  3  0  0  0  0  0  0
  189.7800  176.1170  138.8790 C   0  0  0  0  0  2  0  0  0  0  0  0
  190.3680  176.2460  136.2810 C   0  0  2  0  0  3  0  0  0  0  0  0
  186.1080  174.5790  134.8780 C   0  0  0  0  0  3  0  0  0  0  0  0
  185.8690  173.5350  135.9040 C   0  0  0  0  0  0  0  0  0  0  0  0
  186.4380  173.5210  137.1220 C   0  0  0  0  0  3  0  0  0  0  0  0
  188.5070  174.9920  135.4480 C   0  0  1  0  0  3  0  0  0  0  0  0
  187.4790  174.4210  137.6500 C   0  0  0  0  0  3  0  0  0  0  0  0
  188.3140  175.1440  136.9060 C   0  0  0  0  0  0  0  0  0  0  0  0
  184.8680  178.8810  139.9800 C   0  0  0  0  0  2  0  0  0  0  0  0
  186.8560  178.3610  137.8830 C   0  0  1  0  0  3  0  0  0  0  0  0
  182.7430  177.1670  137.3440 C   0  0  0  0  0  0  0  0  0  0  0  0
  183.1350  177.8000  138.5360 C   0  0  0  0  0  3  0  0  0  0  0  0
  184.4660  178.1840  138.7260 C   0  0  0  0  0  0  0  0  0  0  0  0
  187.6080  177.3060  138.6660 C   0  0  2  0  0  3  0  0  0  0  0  0
  185.0230  177.3240  136.5300 C   0  0  0  0  0  3  0  0  0  0  0  0
  185.4170  177.9480  137.7180 C   0  0  0  0  0  0  0  0  0  0  0  0
  183.6940  176.9340  136.3440 C   0  0  0  0  0  3  0  0  0  0  0  0
  187.3050  178.6360  139.3310 C   0  0  2  0  0  3  0  0  0  0  0  0
  186.2450  178.3960  140.4140 C   0  0  0  0  0  2  0  0  0  0  0  0
  181.4190  176.7760  137.1240 O   0  0  0  0  0  0  0  0  0  0  0  0
  181.0190  174.7620  138.3600 C   0  0  0  0  0  1  0  0  0  0  0  0
  180.6100  176.2020  138.1420 C   0  0  0  0  0  2  0  0  0  0  0  0
  184.7440  172.5750  135.6570 C   0  0  0  0  0  3  0  0  0  0  0  0
  184.0050  172.2780  136.9520 C   0  0  0  0  0  2  0  0  0  0  0  0
  183.4040  173.2330  135.9460 C   0  0  0  0  0  2  0  0  0  0  0  0
  191.8690  174.1520  135.8400 C   0  0  0  0  0  1  0  0  0  0  0  0
  191.6620  175.5000  136.4510 C   0  0  0  0  0  0  0  0  0  0  0  0
  192.5690  176.0170  137.0810 O   0  0  0  0  0  0  0  0  0  0  0  0
  189.3180  177.0430  134.3460 C   0  0  0  0  0  2  0  0  0  0  0  0
  189.4850  178.1330  135.1990 O   0  0  0  0  0  1  0  0  0  0  0  0
  1  4  1  0  0  0  0
  1  5  1  1  0  0  0
  2  7  2  0  0  0  0
  3 10  1  0  0  0  0
  3  6  1  0  0  0  0
  4  5  1  1  0  0  0
  6 31  1  1  0  0  0
  6  1  1  0  0  0  0
  7  8  1  0  0  0  0
  8  9  2  0  0  0  0
  9 11  1  0  0  0  0
 10  2  1  6  0  0  0
 10 12  1  0  0  0  0
 12  1  1  0  0  0  0
 12 11  2  0  0  0  0
 13 23  1  0  0  0  0
 14 20  1  1  0  0  0
 14 18  1  0  0  0  0
 14 22  1  0  0  0  0
 15 16  1  0  0  0  0
 16 17  2  0  0  0  0
 17 13  1  0  0  0  0
 18  4  1  6  0  0  0
 18 22  1  0  0  0  0
 19 20  2  0  0  0  0
 20 17  1  0  0  0  0
 21 19  1  0  0  0  0
 21 15  2  0  0  0  0
 22 23  1  1  0  0  0
 24 15  1  0  0  0  0
 24 26  1  0  0  0  0
 26 25  1  0  0  0  0
 27  8  1  0  0  0  0
 27 29  1  0  0  0  0
 27 28  1  0  0  0  0
 29 28  1  0  0  0  0
 30 31  1  0  0  0  0
 31 32  2  0  0  0  0
 33  3  1  0  0  0  0
 33 34  1  0  0  0  0
M  END
>  <MODEL>
7

>  <REMARK>
 VINA RESULT:      -3.7      1.818      2.786
  Name = 
  6 active torsions:
  status: ('A' for Active; 'I' for Inactive)
    1  A    between atoms: C_3  and  C_25
    2  A    between atoms: N_5  and  C_19
    3  A    between atoms: C_7  and  O_11
    4  A    between atoms: C_8  and  C_18
    5  A    between atoms: O_11  and  C_21
    6  A    between atoms: C_12  and  C_20
                            x       y       z     vdW  Elec       q    Type
                         _______ _______ _______ _____ _____    ______ ____

>  <TORSDO>
F 6

$$$$
=
 OpenBabel10272415293D

 34 40  0  0  1  0  0  0  0  0999 V2000
  182.8500  174.5040  136.3490 C   0  0  2  0  0  0  0  0  0  0  0  0
  182.7260  177.9360  137.3250 C   0  0  0  0  0  3  0  0  0  0  0  0
  181.4880  176.3800  135.7500 N   0  0  0  0  0  0  0  0  0  0  0  0
  184.1470  174.0880  135.6540 C   0  0  2  0  0  3  0  0  0  0  0  0
  183.3160  173.0670  136.4330 C   0  0  0  0  0  2  0  0  0  0  0  0
  181.8040  174.9920  135.3730 C   0  0  2  0  0  3  0  0  0  0  0  0
  183.2440  178.3230  138.4910 C   0  0  0  0  0  3  0  0  0  0  0  0
  183.2980  177.5260  139.7400 C   0  0  0  0  0  0  0  0  0  0  0  0
  183.4400  176.1900  139.7850 C   0  0  0  0  0  3  0  0  0  0  0  0
  182.0440  176.6140  137.1170 C   0  0  1  0  0  3  0  0  0  0  0  0
  183.4430  175.2380  138.6600 C   0  0  0  0  0  3  0  0  0  0  0  0
  182.9200  175.4720  137.4580 C   0  0  0  0  0  0  0  0  0  0  0  0
  188.7750  174.8830  136.7900 C   0  0  0  0  0  2  0  0  0  0  0  0
  186.1040  175.5890  135.7970 C   0  0  1  0  0  3  0  0  0  0  0  0
  188.0430  178.0280  138.7840 C   0  0  0  0  0  0  0  0  0  0  0  0
  188.6910  176.8820  138.2920 C   0  0  0  0  0  3  0  0  0  0  0  0
  188.0700  176.0800  137.3300 C   0  0  0  0  0  0  0  0  0  0  0  0
  185.4000  174.4210  136.4530 C   0  0  2  0  0  3  0  0  0  0  0  0
  186.1570  177.5680  137.3300 C   0  0  0  0  0  3  0  0  0  0  0  0
  186.7970  176.4230  136.8420 C   0  0  0  0  0  0  0  0  0  0  0  0
  186.7760  178.3650  138.2950 C   0  0  0  0  0  3  0  0  0  0  0  0
  186.6450  174.1570  135.6260 C   0  0  2  0  0  3  0  0  0  0  0  0
  187.7750  173.7530  136.5820 C   0  0  0  0  0  2  0  0  0  0  0  0
  188.6420  178.8520  139.7420 O   0  0  0  0  0  0  0  0  0  0  0  0
  188.5020  177.7600  141.8710 C   0  0  0  0  0  1  0  0  0  0  0  0
  189.4180  178.3390  140.8160 C   0  0  0  0  0  2  0  0  0  0  0  0
  183.4470  178.2800  141.0270 C   0  0  0  0  0  3  0  0  0  0  0  0
  184.8460  178.0930  141.5920 C   0  0  0  0  0  2  0  0  0  0  0  0
  184.4860  179.3810  140.8870 C   0  0  0  0  0  2  0  0  0  0  0  0
  179.9880  173.6520  136.6930 C   0  0  0  0  0  1  0  0  0  0  0  0
  180.5600  174.1470  135.4040 C   0  0  0  0  0  0  0  0  0  0  0  0
  179.9950  173.8800  134.3560 O   0  0  0  0  0  0  0  0  0  0  0  0
  182.1080  177.2210  134.7280 C   0  0  0  0  0  2  0  0  0  0  0  0
  181.2530  178.2770  134.4150 O   0  0  0  0  0  1  0  0  0  0  0  0
  1  5  1  1  0  0  0
  1 12  1  0  0  0  0
  2  7  2  0  0  0  0
  3 10  1  0  0  0  0
  4  1  1  0  0  0  0
  4  5  1  1  0  0  0
  6 31  1  1  0  0  0
  6  3  1  0  0  0  0
  6  1  1  0  0  0  0
  7  8  1  0  0  0  0
  8  9  2  0  0  0  0
  8 27  1  0  0  0  0
 10  2  1  6  0  0  0
 10 12  1  0  0  0  0
 11  9  1  0  0  0  0
 12 11  2  0  0  0  0
 13 17  1  0  0  0  0
 14 18  1  0  0  0  0
 14 20  1  1  0  0  0
 15 24  1  0  0  0  0
 16 15  2  0  0  0  0
 17 16  1  0  0  0  0
 18  4  1  6  0  0  0
 19 21  2  0  0  0  0
 20 17  2  0  0  0  0
 20 19  1  0  0  0  0
 21 15  1  0  0  0  0
 22 14  1  0  0  0  0
 22 18  1  0  0  0  0
 22 23  1  1  0  0  0
 23 13  1  0  0  0  0
 24 26  1  0  0  0  0
 26 25  1  0  0  0  0
 27 28  1  0  0  0  0
 29 27  1  0  0  0  0
 29 28  1  0  0  0  0
 31 30  1  0  0  0  0
 32 31  2  0  0  0  0
 33  3  1  0  0  0  0
 34 33  1  0  0  0  0
M  END
>  <MODEL>
8

>  <REMARK>
 VINA RESULT:      -3.5      2.943      6.505
  Name = 
  6 active torsions:
  status: ('A' for Active; 'I' for Inactive)
    1  A    between atoms: C_3  and  C_25
    2  A    between atoms: N_5  and  C_19
    3  A    between atoms: C_7  and  O_11
    4  A    between atoms: C_8  and  C_18
    5  A    between atoms: O_11  and  C_21
    6  A    between atoms: C_12  and  C_20
                            x       y       z     vdW  Elec       q    Type
                         _______ _______ _______ _____ _____    ______ ____

>  <TORSDO>
F 6

$$$$
=
 OpenBabel10272415293D

 34 40  0  0  1  0  0  0  0  0999 V2000
  182.7500  175.9490  137.5740 C   0  0  2  0  0  0  0  0  0  0  0  0
  185.0120  175.1100  134.9430 C   0  0  0  0  0  3  0  0  0  0  0  0
  183.8420  177.1760  135.8330 N   0  0  0  0  0  0  0  0  0  0  0  0
  181.3770  175.2840  137.4670 C   0  0  2  0  0  3  0  0  0  0  0  0
  181.9440  175.6920  138.8280 C   0  0  0  0  0  2  0  0  0  0  0  0
  182.8000  177.2850  136.8670 C   0  0  2  0  0  3  0  0  0  0  0  0
  185.7580  174.0080  135.0230 C   0  0  0  0  0  3  0  0  0  0  0  0
  186.2980  173.3960  136.2620 C   0  0  0  0  0  0  0  0  0  0  0  0
  185.6780  173.4190  137.4540 C   0  0  0  0  0  3  0  0  0  0  0  0
  184.6490  175.9550  136.1300 C   0  0  1  0  0  3  0  0  0  0  0  0
  184.4430  174.1330  137.8240 C   0  0  0  0  0  3  0  0  0  0  0  0
  183.9420  175.1820  137.1730 C   0  0  0  0  0  0  0  0  0  0  0  0
  180.1200  170.7080  136.5600 C   0  0  0  0  0  2  0  0  0  0  0  0
  181.1330  173.3850  135.9050 C   0  0  1  0  0  3  0  0  0  0  0  0
  183.3690  169.8660  134.7890 C   0  0  0  0  0  0  0  0  0  0  0  0
  182.1530  169.7300  135.4790 C   0  0  0  0  0  3  0  0  0  0  0  0
  181.4240  170.8620  135.8540 C   0  0  0  0  0  0  0  0  0  0  0  0
  181.4430  173.7680  137.3370 C   0  0  2  0  0  3  0  0  0  0  0  0
  183.1070  172.2780  134.8370 C   0  0  0  0  0  3  0  0  0  0  0  0
  181.9000  172.1440  135.5300 C   0  0  0  0  0  0  0  0  0  0  0  0
  183.8390  171.1450  134.4690 C   0  0  0  0  0  3  0  0  0  0  0  0
  180.0740  173.2020  137.0090 C   0  0  2  0  0  3  0  0  0  0  0  0
  179.9820  171.7960  137.6170 C   0  0  0  0  0  2  0  0  0  0  0  0
  184.1170  168.7520  134.3970 O   0  0  0  0  0  0  0  0  0  0  0  0
  186.4250  168.1920  134.7190 C   0  0  0  0  0  1  0  0  0  0  0  0
  185.0210  168.0890  135.2710 C   0  0  0  0  0  2  0  0  0  0  0  0
  187.4860  172.4930  136.1180 C   0  0  0  0  0  3  0  0  0  0  0  0
  187.4760  171.8160  134.7570 C   0  0  0  0  0  2  0  0  0  0  0  0
  188.4030  172.9830  135.0080 C   0  0  0  0  0  2  0  0  0  0  0  0
  184.3610  178.4170  138.6320 C   0  0  0  0  0  1  0  0  0  0  0  0
  183.1140  178.4150  137.8090 C   0  0  0  0  0  0  0  0  0  0  0  0
  182.3450  179.3590  137.8830 O   0  0  0  0  0  0  0  0  0  0  0  0
  183.1310  177.0970  134.5580 C   0  0  0  0  0  2  0  0  0  0  0  0
  182.4010  178.2680  134.3600 O   0  0  0  0  0  1  0  0  0  0  0  0
  1  5  1  1  0  0  0
  2  7  2  0  0  0  0
  3 10  1  0  0  0  0
  3  6  1  0  0  0  0
  4  1  1  0  0  0  0
  4  5  1  1  0  0  0
  6  1  1  0  0  0  0
  6 31  1  1  0  0  0
  7  8  1  0  0  0  0
  8  9  2  0  0  0  0
  9 11  1  0  0  0  0
 10  2  1  6  0  0  0
 10 12  1  0  0  0  0
 12  1  1  0  0  0  0
 12 11  2  0  0  0  0
 13 23  1  0  0  0  0
 14 20  1  1  0  0  0
 14 22  1  0  0  0  0
 14 18  1  0  0  0  0
 15 16  1  0  0  0  0
 16 17  2  0  0  0  0
 17 13  1  0  0  0  0
 18  4  1  6  0  0  0
 19 20  2  0  0  0  0
 20 17  1  0  0  0  0
 21 15  2  0  0  0  0
 21 19  1  0  0  0  0
 22 18  1  0  0  0  0
 22 23  1  1  0  0  0
 24 15  1  0  0  0  0
 24 26  1  0  0  0  0
 25 26  1  0  0  0  0
 27  8  1  0  0  0  0
 28 29  1  0  0  0  0
 28 27  1  0  0  0  0
 29 27  1  0  0  0  0
 31 32  2  0  0  0  0
 31 30  1  0  0  0  0
 33  3  1  0  0  0  0
 34 33  1  0  0  0  0
M  END
>  <MODEL>
9

>  <REMARK>
 VINA RESULT:      -3.4      4.022      8.617
  Name = 
  6 active torsions:
  status: ('A' for Active; 'I' for Inactive)
    1  A    between atoms: C_3  and  C_25
    2  A    between atoms: N_5  and  C_19
    3  A    between atoms: C_7  and  O_11
    4  A    between atoms: C_8  and  C_18
    5  A    between atoms: O_11  and  C_21
    6  A    between atoms: C_12  and  C_20
                            x       y       z     vdW  Elec       q    Type
                         _______ _______ _______ _____ _____    ______ ____

>  <TORSDO>
F 6

$$$$
