=
 OpenBabel10272401073D

 27 30  0  0  1  0  0  0  0  0999 V2000
  189.2440  178.1130  143.6210 C   0  0  1  0  0  3  0  0  0  0  0  0
  189.7370  177.9230  142.2500 N   0  0  0  0  0  0  0  0  0  0  0  0
  187.8260  178.9160  141.3310 O   0  0  0  0  0  0  0  0  0  0  0  0
  190.8120  176.4400  138.3160 C   0  0  0  0  0  2  0  0  0  0  0  0
  189.8390  176.8210  137.1890 C   0  0  0  0  0  2  0  0  0  0  0  0
  191.1020  177.4490  142.0010 C   0  0  0  0  0  2  0  0  0  0  0  0
  188.6230  178.5080  138.6350 C   0  0  1  0  0  3  0  0  0  0  0  0
  187.2700  178.2870  138.4460 F   0  0  0  0  0  0  0  0  0  0  0  0
  189.1300  177.6220  139.7880 C   0  0  1  0  0  3  0  0  0  0  0  0
  189.3690  178.2710  137.3130 C   0  0  0  0  0  2  0  0  0  0  0  0
  190.6080  177.2620  139.5930 C   0  0  1  0  0  3  0  0  0  0  0  0
  188.8680  178.2310  141.1420 C   0  0  0  0  0  0  0  0  0  0  0  0
  191.1480  176.5160  140.8000 C   0  0  0  0  0  2  0  0  0  0  0  0
  187.9710  177.3120  143.9280 C   0  0  0  0  0  2  0  0  0  0  0  0
  184.2650  178.5280  146.3870 C   0  0  0  0  0  3  0  0  0  0  0  0
  183.7910  178.8030  145.1650 C   0  0  0  0  0  3  0  0  0  0  0  0
  186.8690  178.1540  144.5550 C   0  0  1  0  0  3  0  0  0  0  0  0
  185.7200  178.6090  146.7430 C   0  0  0  0  0  2  0  0  0  0  0  0
  184.6630  179.2210  144.0170 C   0  0  0  0  0  2  0  0  0  0  0  0
  185.6480  178.1200  143.6470 C   0  0  0  0  0  2  0  0  0  0  0  0
  186.5390  177.6060  145.9400 C   0  0  0  0  0  2  0  0  0  0  0  0
  190.3300  178.0690  144.7060 C   0  0  0  0  0  2  0  0  0  0  0  0
  191.1910  176.7870  147.7190 O   0  0  0  0  0  0  0  0  0  0  0  0
  191.6210  176.1830  145.6240 C   0  0  0  0  0  3  0  0  0  0  0  0
  192.0890  176.1890  146.8570 C   0  0  0  0  0  3  0  0  0  0  0  0
  190.0310  177.2230  147.0360 C   0  0  0  0  0  2  0  0  0  0  0  0
  190.2740  176.8230  145.5820 C   0  0  1  0  0  3  0  0  0  0  0  0
  1 14  1  1  0  0  0
  1 22  1  0  0  0  0
  2  1  1  0  0  0  0
  5 10  1  0  0  0  0
  5  4  1  0  0  0  0
  6  2  1  0  0  0  0
  7  8  1  6  0  0  0
  7  9  1  0  0  0  0
  9 12  1  1  0  0  0
 10  7  1  0  0  0  0
 11  4  1  6  0  0  0
 11  9  1  0  0  0  0
 11 13  1  0  0  0  0
 12  3  2  0  0  0  0
 12  2  1  0  0  0  0
 13  6  1  0  0  0  0
 15 18  1  0  0  0  0
 16 15  2  0  0  0  0
 17 14  1  6  0  0  0
 17 21  1  0  0  0  0
 19 16  1  0  0  0  0
 20 19  1  0  0  0  0
 20 17  1  0  0  0  0
 21 18  1  0  0  0  0
 24 25  2  0  0  0  0
 25 23  1  0  0  0  0
 26 23  1  0  0  0  0
 27 22  1  6  0  0  0
 27 24  1  0  0  0  0
 27 26  1  0  0  0  0
M  END
>  <MODEL>
1

>  <REMARK>
 VINA RESULT:      -9.2      0.000      0.000
  Name = 
  5 active torsions:
  status: ('A' for Active; 'I' for Inactive)
    1  A    between atoms: C_1  and  C_15
    2  A    between atoms: C_1  and  C_18
    3  A    between atoms: N_2  and  C_15
    4  A    between atoms: C_9  and  C_15
    5  A    between atoms: C_9  and  C_27
                            x       y       z     vdW  Elec       q    Type
                         _______ _______ _______ _____ _____    ______ ____

>  <TORSDO>
F 5

$$$$
=
 OpenBabel10272401073D

 27 30  0  0  1  0  0  0  0  0999 V2000
  188.6610  178.1370  142.1630 C   0  0  1  0  0  3  0  0  0  0  0  0
  188.9450  177.9000  140.7420 N   0  0  0  0  0  0  0  0  0  0  0  0
  186.8830  178.7930  140.0890 O   0  0  0  0  0  0  0  0  0  0  0  0
  189.4610  176.2730  136.7520 C   0  0  0  0  0  2  0  0  0  0  0  0
  188.3150  176.5740  135.7740 C   0  0  0  0  0  2  0  0  0  0  0  0
  190.2730  177.4560  140.3050 C   0  0  0  0  0  2  0  0  0  0  0  0
  187.2730  178.2880  137.3210 C   0  0  1  0  0  3  0  0  0  0  0  0
  185.9160  178.0190  137.3510 F   0  0  0  0  0  0  0  0  0  0  0  0
  187.9810  177.4700  138.4160 C   0  0  1  0  0  3  0  0  0  0  0  0
  187.8170  178.0130  135.9100 C   0  0  0  0  0  2  0  0  0  0  0  0
  189.4250  177.1460  138.0110 C   0  0  1  0  0  3  0  0  0  0  0  0
  187.9080  178.1320  139.7690 C   0  0  0  0  0  0  0  0  0  0  0  0
  190.1690  176.4710  139.1490 C   0  0  0  0  0  2  0  0  0  0  0  0
  187.4320  177.3730  142.6750 C   0  0  0  0  0  2  0  0  0  0  0  0
  184.5230  178.5090  146.0680 C   0  0  0  0  0  3  0  0  0  0  0  0
  183.7670  178.8800  145.0260 C   0  0  0  0  0  3  0  0  0  0  0  0
  186.5610  178.1970  143.6130 C   0  0  1  0  0  3  0  0  0  0  0  0
  186.0230  178.5280  146.0450 C   0  0  0  0  0  2  0  0  0  0  0  0
  184.3370  179.3550  143.7210 C   0  0  0  0  0  2  0  0  0  0  0  0
  185.1490  178.2580  143.0450 C   0  0  0  0  0  2  0  0  0  0  0  0
  186.5690  177.5620  145.0000 C   0  0  0  0  0  2  0  0  0  0  0  0
  189.8930  178.0970  143.0810 C   0  0  0  0  0  2  0  0  0  0  0  0
  191.8010  176.3990  145.3040 O   0  0  0  0  0  0  0  0  0  0  0  0
  190.8150  175.8350  143.3940 C   0  0  0  0  0  3  0  0  0  0  0  0
  191.8490  175.6030  144.1760 C   0  0  0  0  0  3  0  0  0  0  0  0
  190.6590  177.2360  145.2960 C   0  0  0  0  0  2  0  0  0  0  0  0
  189.9370  176.8810  143.9970 C   0  0  1  0  0  3  0  0  0  0  0  0
  1 14  1  1  0  0  0
  1 22  1  0  0  0  0
  2  1  1  0  0  0  0
  5 10  1  0  0  0  0
  5  4  1  0  0  0  0
  6  2  1  0  0  0  0
  7  8  1  6  0  0  0
  7  9  1  0  0  0  0
  9 12  1  1  0  0  0
 10  7  1  0  0  0  0
 11  4  1  6  0  0  0
 11  9  1  0  0  0  0
 11 13  1  0  0  0  0
 12  3  2  0  0  0  0
 12  2  1  0  0  0  0
 13  6  1  0  0  0  0
 16 15  2  0  0  0  0
 17 14  1  6  0  0  0
 17 21  1  0  0  0  0
 18 15  1  0  0  0  0
 19 16  1  0  0  0  0
 20 17  1  0  0  0  0
 20 19  1  0  0  0  0
 21 18  1  0  0  0  0
 24 27  1  0  0  0  0
 24 25  2  0  0  0  0
 25 23  1  0  0  0  0
 26 23  1  0  0  0  0
 27 22  1  6  0  0  0
 27 26  1  0  0  0  0
M  END
>  <MODEL>
2

>  <REMARK>
 VINA RESULT:      -8.9      1.363      1.708
  Name = 
  5 active torsions:
  status: ('A' for Active; 'I' for Inactive)
    1  A    between atoms: C_1  and  C_15
    2  A    between atoms: C_1  and  C_18
    3  A    between atoms: N_2  and  C_15
    4  A    between atoms: C_9  and  C_15
    5  A    between atoms: C_9  and  C_27
                            x       y       z     vdW  Elec       q    Type
                         _______ _______ _______ _____ _____    ______ ____

>  <TORSDO>
F 5

$$$$
=
 OpenBabel10272401073D

 27 30  0  0  1  0  0  0  0  0999 V2000
  186.8850  178.5640  142.4360 C   0  0  1  0  0  3  0  0  0  0  0  0
  185.5200  178.7120  141.9140 N   0  0  0  0  0  0  0  0  0  0  0  0
  184.6440  179.0600  144.0570 O   0  0  0  0  0  0  0  0  0  0  0  0
  181.4920  178.1470  140.4000 C   0  0  0  0  0  2  0  0  0  0  0  0
  180.3780  178.2800  141.4500 C   0  0  0  0  0  2  0  0  0  0  0  0
  185.2700  178.7820  140.4710 C   0  0  0  0  0  2  0  0  0  0  0  0
  181.9490  179.2590  143.1800 C   0  0  1  0  0  3  0  0  0  0  0  0
  181.6910  178.5970  144.3660 F   0  0  0  0  0  0  0  0  0  0  0  0
  183.0200  178.4880  142.3860 C   0  0  1  0  0  3  0  0  0  0  0  0
  180.6360  179.4480  142.4040 C   0  0  0  0  0  2  0  0  0  0  0  0
  182.8400  178.6980  140.8770 C   0  0  1  0  0  3  0  0  0  0  0  0
  184.4210  178.8130  142.8400 C   0  0  0  0  0  0  0  0  0  0  0  0
  183.9810  178.0630  140.1020 C   0  0  0  0  0  2  0  0  0  0  0  0
  187.0580  177.3480  143.3550 C   0  0  0  0  0  2  0  0  0  0  0  0
  189.6130  176.9170  147.1690 C   0  0  0  0  0  3  0  0  0  0  0  0
  188.4260  177.1390  147.7490 C   0  0  0  0  0  3  0  0  0  0  0  0
  187.7680  177.6780  144.6600 C   0  0  1  0  0  3  0  0  0  0  0  0
  189.9860  177.4630  145.8220 C   0  0  0  0  0  2  0  0  0  0  0  0
  187.3390  177.9570  147.1160 C   0  0  0  0  0  2  0  0  0  0  0  0
  186.8530  177.3170  145.8220 C   0  0  0  0  0  2  0  0  0  0  0  0
  189.0810  176.9030  144.7330 C   0  0  0  0  0  2  0  0  0  0  0  0
  187.9960  178.7690  141.3950 C   0  0  0  0  0  2  0  0  0  0  0  0
  190.8010  177.4410  140.0400 O   0  0  0  0  0  0  0  0  0  0  0  0
  188.6610  177.4230  139.4430 C   0  0  0  0  0  3  0  0  0  0  0  0
  189.9000  177.4040  138.9940 C   0  0  0  0  0  3  0  0  0  0  0  0
  190.1390  177.4910  141.2910 C   0  0  0  0  0  2  0  0  0  0  0  0
  188.6540  177.4740  140.9340 C   0  0  1  0  0  3  0  0  0  0  0  0
  1 22  1  6  0  0  0
  1 14  1  0  0  0  0
  2  1  1  0  0  0  0
  2 12  1  0  0  0  0
  4 11  1  0  0  0  0
  4  5  1  0  0  0  0
  5 10  1  0  0  0  0
  6  2  1  0  0  0  0
  7  8  1  1  0  0  0
  9 12  1  1  0  0  0
  9  7  1  0  0  0  0
 10  7  1  0  0  0  0
 11 13  1  6  0  0  0
 11  9  1  0  0  0  0
 12  3  2  0  0  0  0
 13  6  1  0  0  0  0
 15 16  2  0  0  0  0
 17 14  1  6  0  0  0
 17 21  1  0  0  0  0
 17 20  1  0  0  0  0
 18 15  1  0  0  0  0
 19 16  1  0  0  0  0
 20 19  1  0  0  0  0
 21 18  1  0  0  0  0
 23 26  1  0  0  0  0
 24 27  1  0  0  0  0
 25 24  2  0  0  0  0
 25 23  1  0  0  0  0
 27 26  1  0  0  0  0
 27 22  1  6  0  0  0
M  END
>  <MODEL>
3

>  <REMARK>
 VINA RESULT:      -8.7      3.076      6.315
  Name = 
  5 active torsions:
  status: ('A' for Active; 'I' for Inactive)
    1  A    between atoms: C_1  and  C_15
    2  A    between atoms: C_1  and  C_18
    3  A    between atoms: N_2  and  C_15
    4  A    between atoms: C_9  and  C_15
    5  A    between atoms: C_9  and  C_27
                            x       y       z     vdW  Elec       q    Type
                         _______ _______ _______ _____ _____    ______ ____

>  <TORSDO>
F 5

$$$$
=
 OpenBabel10272401073D

 27 30  0  0  1  0  0  0  0  0999 V2000
  188.6670  178.2930  141.9790 C   0  0  1  0  0  3  0  0  0  0  0  0
  187.2510  178.1670  142.3460 N   0  0  0  0  0  0  0  0  0  0  0  0
  186.5480  178.8090  140.2070 O   0  0  0  0  0  0  0  0  0  0  0  0
  183.2000  178.7210  143.8020 C   0  0  0  0  0  2  0  0  0  0  0  0
  182.1840  179.1750  142.7420 C   0  0  0  0  0  2  0  0  0  0  0  0
  186.8560  177.5880  143.6340 C   0  0  0  0  0  2  0  0  0  0  0  0
  183.7780  178.7060  140.8290 C   0  0  1  0  0  3  0  0  0  0  0  0
  183.7210  179.8050  139.9900 F   0  0  0  0  0  0  0  0  0  0  0  0
  184.8560  178.9380  141.9040 C   0  0  1  0  0  3  0  0  0  0  0  0
  182.3830  178.4380  141.4160 C   0  0  0  0  0  2  0  0  0  0  0  0
  184.5070  178.1950  143.1990 C   0  0  1  0  0  3  0  0  0  0  0  0
  186.2420  178.6010  141.4130 C   0  0  0  0  0  0  0  0  0  0  0  0
  185.6390  178.2990  144.2060 C   0  0  0  0  0  2  0  0  0  0  0  0
  189.5560  178.7780  143.1320 C   0  0  0  0  0  2  0  0  0  0  0  0
  190.8890  176.6470  146.9970 C   0  0  0  0  0  3  0  0  0  0  0  0
  191.8820  176.2420  146.1940 C   0  0  0  0  0  3  0  0  0  0  0  0
  189.9000  177.6810  144.1280 C   0  0  1  0  0  3  0  0  0  0  0  0
  189.5080  176.9610  146.5030 C   0  0  0  0  0  2  0  0  0  0  0  0
  191.7220  176.0580  144.7130 C   0  0  0  0  0  2  0  0  0  0  0  0
  191.3890  177.3770  144.0290 C   0  0  0  0  0  2  0  0  0  0  0  0
  189.5250  178.1370  145.5350 C   0  0  0  0  0  2  0  0  0  0  0  0
  189.2260  177.1160  141.1640 C   0  0  0  0  0  2  0  0  0  0  0  0
  189.9950  176.0220  138.0530 O   0  0  0  0  0  0  0  0  0  0  0  0
  191.1870  176.9490  139.6830 C   0  0  0  0  0  3  0  0  0  0  0  0
  191.2280  176.1090  138.6680 C   0  0  0  0  0  3  0  0  0  0  0  0
  189.0410  176.8550  138.6880 C   0  0  0  0  0  2  0  0  0  0  0  0
  189.8170  177.5240  139.8200 C   0  0  1  0  0  3  0  0  0  0  0  0
  1 22  1  1  0  0  0
  1  2  1  0  0  0  0
  1 14  1  0  0  0  0
  2  6  1  0  0  0  0
  3 12  2  0  0  0  0
  5  4  1  0  0  0  0
  6 13  1  0  0  0  0
  7  8  1  6  0  0  0
  7 10  1  0  0  0  0
  7  9  1  0  0  0  0
  9 12  1  6  0  0  0
  9 11  1  0  0  0  0
 10  5  1  0  0  0  0
 11  4  1  1  0  0  0
 11 13  1  0  0  0  0
 12  2  1  0  0  0  0
 16 15  2  0  0  0  0
 17 14  1  6  0  0  0
 17 21  1  0  0  0  0
 18 15  1  0  0  0  0
 19 16  1  0  0  0  0
 20 17  1  0  0  0  0
 20 19  1  0  0  0  0
 21 18  1  0  0  0  0
 23 25  1  0  0  0  0
 23 26  1  0  0  0  0
 24 27  1  0  0  0  0
 25 24  2  0  0  0  0
 26 27  1  0  0  0  0
 27 22  1  1  0  0  0
M  END
>  <MODEL>
4

>  <REMARK>
 VINA RESULT:      -8.5      2.395      6.192
  Name = 
  5 active torsions:
  status: ('A' for Active; 'I' for Inactive)
    1  A    between atoms: C_1  and  C_15
    2  A    between atoms: C_1  and  C_18
    3  A    between atoms: N_2  and  C_15
    4  A    between atoms: C_9  and  C_15
    5  A    between atoms: C_9  and  C_27
                            x       y       z     vdW  Elec       q    Type
                         _______ _______ _______ _____ _____    ______ ____

>  <TORSDO>
F 5

$$$$
=
 OpenBabel10272401073D

 27 30  0  0  1  0  0  0  0  0999 V2000
  188.5320  177.9170  142.1830 C   0  0  1  0  0  3  0  0  0  0  0  0
  189.0770  177.7310  140.8320 N   0  0  0  0  0  0  0  0  0  0  0  0
  187.1750  178.6680  139.8400 O   0  0  0  0  0  0  0  0  0  0  0  0
  190.3280  176.2520  136.9490 C   0  0  0  0  0  2  0  0  0  0  0  0
  189.3850  176.6000  135.7860 C   0  0  0  0  0  2  0  0  0  0  0  0
  190.4620  177.2910  140.6340 C   0  0  0  0  0  2  0  0  0  0  0  0
  188.0760  178.2640  137.1770 C   0  0  1  0  0  3  0  0  0  0  0  0
  186.7370  178.0070  136.9420 F   0  0  0  0  0  0  0  0  0  0  0  0
  188.5650  177.3990  138.3520 C   0  0  1  0  0  3  0  0  0  0  0  0
  188.8740  178.0380  135.8830 C   0  0  0  0  0  2  0  0  0  0  0  0
  190.0580  177.0770  138.2120 C   0  0  1  0  0  3  0  0  0  0  0  0
  188.2400  178.0090  139.6930 C   0  0  0  0  0  0  0  0  0  0  0  0
  190.5740  176.3520  139.4420 C   0  0  0  0  0  2  0  0  0  0  0  0
  189.5630  178.4420  143.1910 C   0  0  0  0  0  2  0  0  0  0  0  0
  190.2650  176.8710  147.4690 C   0  0  0  0  0  3  0  0  0  0  0  0
  191.4370  176.5110  146.9300 C   0  0  0  0  0  3  0  0  0  0  0  0
  189.7980  177.4960  144.3590 C   0  0  1  0  0  3  0  0  0  0  0  0
  188.9920  176.9690  146.6800 C   0  0  0  0  0  2  0  0  0  0  0  0
  191.6070  176.1660  145.4800 C   0  0  0  0  0  2  0  0  0  0  0  0
  191.2970  177.3630  144.5910 C   0  0  0  0  0  2  0  0  0  0  0  0
  189.0960  178.0380  145.6000 C   0  0  0  0  0  2  0  0  0  0  0  0
  187.1540  178.5960  142.2330 C   0  0  0  0  0  2  0  0  0  0  0  0
  183.9750  178.6430  143.3970 O   0  0  0  0  0  0  0  0  0  0  0  0
  185.9500  178.3190  144.3630 C   0  0  0  0  0  3  0  0  0  0  0  0
  184.7310  178.7860  144.5430 C   0  0  0  0  0  3  0  0  0  0  0  0
  184.7240  178.0390  142.3580 C   0  0  0  0  0  2  0  0  0  0  0  0
  186.0970  177.7880  142.9760 C   0  0  1  0  0  3  0  0  0  0  0  0
  1 22  1  6  0  0  0
  1 14  1  0  0  0  0
  2  1  1  0  0  0  0
  5 10  1  0  0  0  0
  5  4  1  0  0  0  0
  6  2  1  0  0  0  0
  7  8  1  6  0  0  0
  7  9  1  0  0  0  0
  9 12  1  1  0  0  0
 10  7  1  0  0  0  0
 11  4  1  6  0  0  0
 11  9  1  0  0  0  0
 11 13  1  0  0  0  0
 12  3  2  0  0  0  0
 12  2  1  0  0  0  0
 13  6  1  0  0  0  0
 16 15  2  0  0  0  0
 17 14  1  6  0  0  0
 17 20  1  0  0  0  0
 17 21  1  0  0  0  0
 18 15  1  0  0  0  0
 19 16  1  0  0  0  0
 20 19  1  0  0  0  0
 21 18  1  0  0  0  0
 23 25  1  0  0  0  0
 24 25  2  0  0  0  0
 26 27  1  0  0  0  0
 26 23  1  0  0  0  0
 27 22  1  6  0  0  0
 27 24  1  0  0  0  0
M  END
>  <MODEL>
5

>  <REMARK>
 VINA RESULT:      -7.8      2.082      4.455
  Name = 
  5 active torsions:
  status: ('A' for Active; 'I' for Inactive)
    1  A    between atoms: C_1  and  C_15
    2  A    between atoms: C_1  and  C_18
    3  A    between atoms: N_2  and  C_15
    4  A    between atoms: C_9  and  C_15
    5  A    between atoms: C_9  and  C_27
                            x       y       z     vdW  Elec       q    Type
                         _______ _______ _______ _____ _____    ______ ____

>  <TORSDO>
F 5

$$$$
=
 OpenBabel10272401073D

 27 30  0  0  1  0  0  0  0  0999 V2000
  188.9690  176.9760  142.1450 C   0  0  1  0  0  3  0  0  0  0  0  0
  189.2170  176.9650  143.5920 N   0  0  0  0  0  0  0  0  0  0  0  0
  186.9530  177.3160  144.0730 O   0  0  0  0  0  0  0  0  0  0  0  0
  190.1970  177.8940  147.7160 C   0  0  0  0  0  2  0  0  0  0  0  0
  188.9940  178.2300  148.6110 C   0  0  0  0  0  2  0  0  0  0  0  0
  190.5320  176.5970  144.1260 C   0  0  0  0  0  2  0  0  0  0  0  0
  187.3230  177.4200  146.8870 C   0  0  1  0  0  3  0  0  0  0  0  0
  186.3360  178.3860  146.8120 F   0  0  0  0  0  0  0  0  0  0  0  0
  188.4500  177.7620  145.8940 C   0  0  1  0  0  3  0  0  0  0  0  0
  187.8100  177.3000  148.3390 C   0  0  0  0  0  2  0  0  0  0  0  0
  189.7990  177.2310  146.3930 C   0  0  1  0  0  3  0  0  0  0  0  0
  188.1420  177.2990  144.4920 C   0  0  0  0  0  0  0  0  0  0  0  0
  190.8820  177.4340  145.3480 C   0  0  0  0  0  2  0  0  0  0  0  0
  188.3930  178.3040  141.6340 C   0  0  0  0  0  2  0  0  0  0  0  0
  185.0730  178.8990  138.4900 C   0  0  0  0  0  3  0  0  0  0  0  0
  184.3870  179.2740  139.5780 C   0  0  0  0  0  3  0  0  0  0  0  0
  187.0940  178.1370  140.8590 C   0  0  1  0  0  3  0  0  0  0  0  0
  186.1900  177.8980  138.5270 C   0  0  0  0  0  2  0  0  0  0  0  0
  184.6590  178.7360  140.9520 C   0  0  0  0  0  2  0  0  0  0  0  0
  186.0610  179.1060  141.4180 C   0  0  0  0  0  2  0  0  0  0  0  0
  187.3490  178.3990  139.3780 C   0  0  0  0  0  2  0  0  0  0  0  0
  190.0990  176.3750  141.2940 C   0  0  0  0  0  2  0  0  0  0  0  0
  192.2680  176.6980  138.7150 O   0  0  0  0  0  0  0  0  0  0  0  0
  192.1640  177.5980  140.7440 C   0  0  0  0  0  3  0  0  0  0  0  0
  192.9780  177.2010  139.7870 C   0  0  0  0  0  3  0  0  0  0  0  0
  190.8730  176.7500  138.9500 C   0  0  0  0  0  2  0  0  0  0  0  0
  190.7460  177.3710  140.3390 C   0  0  1  0  0  3  0  0  0  0  0  0
  1 22  1  6  0  0  0
  1  2  1  0  0  0  0
  2  6  1  0  0  0  0
  2 12  1  0  0  0  0
  3 12  2  0  0  0  0
  4  5  1  0  0  0  0
  6 13  1  0  0  0  0
  7  8  1  1  0  0  0
  7 10  1  0  0  0  0
  9 12  1  6  0  0  0
  9 11  1  0  0  0  0
  9  7  1  0  0  0  0
 10  5  1  0  0  0  0
 11 13  1  6  0  0  0
 11  4  1  0  0  0  0
 14  1  1  0  0  0  0
 15 18  1  0  0  0  0
 15 16  2  0  0  0  0
 16 19  1  0  0  0  0
 17 20  1  0  0  0  0
 17 14  1  1  0  0  0
 18 21  1  0  0  0  0
 19 20  1  0  0  0  0
 21 17  1  0  0  0  0
 23 26  1  0  0  0  0
 23 25  1  0  0  0  0
 25 24  2  0  0  0  0
 26 27  1  0  0  0  0
 27 24  1  0  0  0  0
 27 22  1  1  0  0  0
M  END
>  <MODEL>
6

>  <REMARK>
 VINA RESULT:      -7.8      2.780      6.512
  Name = 
  5 active torsions:
  status: ('A' for Active; 'I' for Inactive)
    1  A    between atoms: C_1  and  C_15
    2  A    between atoms: C_1  and  C_18
    3  A    between atoms: N_2  and  C_15
    4  A    between atoms: C_9  and  C_15
    5  A    between atoms: C_9  and  C_27
                            x       y       z     vdW  Elec       q    Type
                         _______ _______ _______ _____ _____    ______ ____

>  <TORSDO>
F 5

$$$$
=
 OpenBabel10272401073D

 27 30  0  0  1  0  0  0  0  0999 V2000
  188.6520  177.8650  142.2610 C   0  0  1  0  0  3  0  0  0  0  0  0
  188.6900  177.6280  140.8120 N   0  0  0  0  0  0  0  0  0  0  0  0
  190.4330  176.0790  141.0230 O   0  0  0  0  0  0  0  0  0  0  0  0
  189.3700  177.7530  136.5280 C   0  0  0  0  0  2  0  0  0  0  0  0
  190.5000  176.8430  136.0220 C   0  0  0  0  0  2  0  0  0  0  0  0
  187.6640  178.1930  139.9310 C   0  0  0  0  0  2  0  0  0  0  0  0
  190.6740  175.6150  138.2310 C   0  0  1  0  0  3  0  0  0  0  0  0
  192.0220  175.5340  138.5310 F   0  0  0  0  0  0  0  0  0  0  0  0
  190.1010  176.9250  138.8020 C   0  0  1  0  0  3  0  0  0  0  0  0
  190.4800  175.4790  136.7130 C   0  0  0  0  0  2  0  0  0  0  0  0
  188.9220  177.4220  137.9550 C   0  0  1  0  0  3  0  0  0  0  0  0
  189.7400  176.8080  140.2620 C   0  0  0  0  0  0  0  0  0  0  0  0
  188.2620  178.6280  138.6010 C   0  0  0  0  0  2  0  0  0  0  0  0
  187.5020  177.1370  142.9690 C   0  0  0  0  0  2  0  0  0  0  0  0
  184.4110  178.6480  146.0390 C   0  0  0  0  0  3  0  0  0  0  0  0
  183.7650  178.9950  144.9180 C   0  0  0  0  0  3  0  0  0  0  0  0
  186.6130  178.0660  143.7820 C   0  0  1  0  0  3  0  0  0  0  0  0
  185.9070  178.5790  146.1390 C   0  0  0  0  0  2  0  0  0  0  0  0
  184.4640  179.3540  143.6400 C   0  0  0  0  0  2  0  0  0  0  0  0
  185.2570  178.1720  143.0980 C   0  0  0  0  0  2  0  0  0  0  0  0
  186.4720  177.5210  145.2000 C   0  0  0  0  0  2  0  0  0  0  0  0
  190.0180  177.7830  142.9620 C   0  0  0  0  0  2  0  0  0  0  0  0
  191.4020  177.5010  146.0390 O   0  0  0  0  0  0  0  0  0  0  0  0
  191.1980  176.1040  144.3230 C   0  0  0  0  0  3  0  0  0  0  0  0
  191.9540  176.4410  145.3480 C   0  0  0  0  0  3  0  0  0  0  0  0
  190.1860  177.9240  145.4490 C   0  0  0  0  0  2  0  0  0  0  0  0
  189.9950  176.9850  144.2600 C   0  0  1  0  0  3  0  0  0  0  0  0
  1 22  1  1  0  0  0
  1 14  1  0  0  0  0
  2  1  1  0  0  0  0
  5  4  1  0  0  0  0
  5 10  1  0  0  0  0
  6  2  1  0  0  0  0
  7  8  1  6  0  0  0
  7  9  1  0  0  0  0
  9 12  1  1  0  0  0
 10  7  1  0  0  0  0
 11  4  1  6  0  0  0
 11 13  1  0  0  0  0
 11  9  1  0  0  0  0
 12  2  1  0  0  0  0
 12  3  2  0  0  0  0
 13  6  1  0  0  0  0
 15 18  1  0  0  0  0
 16 15  2  0  0  0  0
 17 14  1  6  0  0  0
 17 21  1  0  0  0  0
 19 16  1  0  0  0  0
 20 19  1  0  0  0  0
 20 17  1  0  0  0  0
 21 18  1  0  0  0  0
 24 25  2  0  0  0  0
 25 23  1  0  0  0  0
 26 23  1  0  0  0  0
 27 22  1  6  0  0  0
 27 24  1  0  0  0  0
 27 26  1  0  0  0  0
M  END
>  <MODEL>
7

>  <REMARK>
 VINA RESULT:      -7.7      1.673      2.332
  Name = 
  5 active torsions:
  status: ('A' for Active; 'I' for Inactive)
    1  A    between atoms: C_1  and  C_15
    2  A    between atoms: C_1  and  C_18
    3  A    between atoms: N_2  and  C_15
    4  A    between atoms: C_9  and  C_15
    5  A    between atoms: C_9  and  C_27
                            x       y       z     vdW  Elec       q    Type
                         _______ _______ _______ _____ _____    ______ ____

>  <TORSDO>
F 5

$$$$
=
 OpenBabel10272401073D

 27 30  0  0  1  0  0  0  0  0999 V2000
  186.9490  177.9810  142.2850 C   0  0  1  0  0  3  0  0  0  0  0  0
  187.9420  177.9300  141.2040 N   0  0  0  0  0  0  0  0  0  0  0  0
  186.3370  178.4560  139.5840 O   0  0  0  0  0  0  0  0  0  0  0  0
  190.6970  176.7920  138.0500 C   0  0  0  0  0  2  0  0  0  0  0  0
  190.1500  176.9460  136.6220 C   0  0  0  0  0  2  0  0  0  0  0  0
  189.3710  177.7940  141.5030 C   0  0  0  0  0  2  0  0  0  0  0  0
  188.1420  178.2810  137.3980 C   0  0  1  0  0  3  0  0  0  0  0  0
  187.0420  177.7500  136.7500 F   0  0  0  0  0  0  0  0  0  0  0  0
  188.3720  177.5250  138.7190 C   0  0  1  0  0  3  0  0  0  0  0  0
  189.3570  178.2430  136.4580 C   0  0  0  0  0  2  0  0  0  0  0  0
  189.8580  177.5270  139.1000 C   0  0  1  0  0  3  0  0  0  0  0  0
  187.4990  178.0380  139.8370 C   0  0  0  0  0  0  0  0  0  0  0  0
  190.0650  176.9130  140.4740 C   0  0  0  0  0  2  0  0  0  0  0  0
  187.2200  176.9740  143.4110 C   0  0  0  0  0  2  0  0  0  0  0  0
  189.0380  177.6020  147.6020 C   0  0  0  0  0  3  0  0  0  0  0  0
  187.7480  177.7800  147.9160 C   0  0  0  0  0  3  0  0  0  0  0  0
  187.6390  177.6330  144.7170 C   0  0  1  0  0  3  0  0  0  0  0  0
  189.6080  177.9240  146.2520 C   0  0  0  0  0  2  0  0  0  0  0  0
  186.7310  178.3190  146.9540 C   0  0  0  0  0  2  0  0  0  0  0  0
  186.5570  177.3890  145.7610 C   0  0  0  0  0  2  0  0  0  0  0  0
  188.9780  177.0570  145.1690 C   0  0  0  0  0  2  0  0  0  0  0  0
  186.5700  179.3980  142.7420 C   0  0  0  0  0  2  0  0  0  0  0  0
  183.6080  178.8620  144.2940 O   0  0  0  0  0  0  0  0  0  0  0  0
  184.3510  178.4550  142.2400 C   0  0  0  0  0  3  0  0  0  0  0  0
  183.5360  178.0380  143.1880 C   0  0  0  0  0  3  0  0  0  0  0  0
  184.5350  179.9130  144.0950 C   0  0  0  0  0  2  0  0  0  0  0  0
  185.0740  179.6830  142.6850 C   0  0  1  0  0  3  0  0  0  0  0  0
  1 22  1  1  0  0  0
  1 14  1  0  0  0  0
  2  6  1  0  0  0  0
  2  1  1  0  0  0  0
  3 12  2  0  0  0  0
  5  4  1  0  0  0  0
  7  8  1  6  0  0  0
  7  9  1  0  0  0  0
  9 11  1  0  0  0  0
  9 12  1  1  0  0  0
 10  5  1  0  0  0  0
 10  7  1  0  0  0  0
 11  4  1  6  0  0  0
 11 13  1  0  0  0  0
 12  2  1  0  0  0  0
 13  6  1  0  0  0  0
 15 16  2  0  0  0  0
 17 14  1  6  0  0  0
 17 21  1  0  0  0  0
 17 20  1  0  0  0  0
 18 15  1  0  0  0  0
 19 16  1  0  0  0  0
 20 19  1  0  0  0  0
 21 18  1  0  0  0  0
 24 27  1  0  0  0  0
 24 25  2  0  0  0  0
 25 23  1  0  0  0  0
 26 23  1  0  0  0  0
 27 22  1  1  0  0  0
 27 26  1  0  0  0  0
M  END
>  <MODEL>
8

>  <REMARK>
 VINA RESULT:      -7.6      2.270      4.173
  Name = 
  5 active torsions:
  status: ('A' for Active; 'I' for Inactive)
    1  A    between atoms: C_1  and  C_15
    2  A    between atoms: C_1  and  C_18
    3  A    between atoms: N_2  and  C_15
    4  A    between atoms: C_9  and  C_15
    5  A    between atoms: C_9  and  C_27
                            x       y       z     vdW  Elec       q    Type
                         _______ _______ _______ _____ _____    ______ ____

>  <TORSDO>
F 5

$$$$
=
 OpenBabel10272401073D

 27 30  0  0  1  0  0  0  0  0999 V2000
  188.0320  178.3300  140.8120 C   0  0  1  0  0  3  0  0  0  0  0  0
  186.9060  178.3820  139.8710 N   0  0  0  0  0  0  0  0  0  0  0  0
  185.5070  179.3770  141.4630 O   0  0  0  0  0  0  0  0  0  0  0  0
  183.4420  177.5850  137.3810 C   0  0  0  0  0  2  0  0  0  0  0  0
  182.1020  178.0680  137.9580 C   0  0  0  0  0  2  0  0  0  0  0  0
  187.0910  178.0410  138.4570 C   0  0  0  0  0  2  0  0  0  0  0  0
  183.2270  179.4340  139.7700 C   0  0  1  0  0  3  0  0  0  0  0  0
  182.5550  179.1570  140.9470 F   0  0  0  0  0  0  0  0  0  0  0  0
  184.3690  178.4180  139.5810 C   0  0  1  0  0  3  0  0  0  0  0  0
  182.2280  179.4490  138.6020 C   0  0  0  0  0  2  0  0  0  0  0  0
  184.6570  178.1890  138.0920 C   0  0  1  0  0  3  0  0  0  0  0  0
  185.6110  178.7970  140.3470 C   0  0  0  0  0  0  0  0  0  0  0  0
  185.8780  177.3050  137.9070 C   0  0  0  0  0  2  0  0  0  0  0  0
  187.8770  177.2490  141.8910 C   0  0  0  0  0  2  0  0  0  0  0  0
  188.9670  177.5320  146.3620 C   0  0  0  0  0  3  0  0  0  0  0  0
  187.6340  177.5870  146.4790 C   0  0  0  0  0  3  0  0  0  0  0  0
  188.0330  177.7870  143.3060 C   0  0  1  0  0  3  0  0  0  0  0  0
  189.7100  178.0380  145.1610 C   0  0  0  0  0  2  0  0  0  0  0  0
  186.7360  178.1610  145.4210 C   0  0  0  0  0  2  0  0  0  0  0  0
  186.8270  177.3570  144.1310 C   0  0  0  0  0  2  0  0  0  0  0  0
  189.3290  177.2560  143.9100 C   0  0  0  0  0  2  0  0  0  0  0  0
  189.4200  178.4160  140.1580 C   0  0  0  0  0  2  0  0  0  0  0  0
  192.5020  177.0800  139.7350 O   0  0  0  0  0  0  0  0  0  0  0  0
  190.4900  176.5540  138.9530 C   0  0  0  0  0  3  0  0  0  0  0  0
  191.7810  176.5410  138.6880 C   0  0  0  0  0  3  0  0  0  0  0  0
  191.6520  177.4920  140.7890 C   0  0  0  0  0  2  0  0  0  0  0  0
  190.2480  177.1450  140.3020 C   0  0  1  0  0  3  0  0  0  0  0  0
  1 22  1  6  0  0  0
  1 14  1  0  0  0  0
  2 12  1  0  0  0  0
  2  1  1  0  0  0  0
  4  5  1  0  0  0  0
  5 10  1  0  0  0  0
  6  2  1  0  0  0  0
  7  8  1  1  0  0  0
  9  7  1  0  0  0  0
  9 12  1  1  0  0  0
 10  7  1  0  0  0  0
 11  4  1  1  0  0  0
 11  9  1  0  0  0  0
 12  3  2  0  0  0  0
 13 11  1  0  0  0  0
 13  6  1  0  0  0  0
 15 16  2  0  0  0  0
 17 14  1  6  0  0  0
 17 21  1  0  0  0  0
 17 20  1  0  0  0  0
 18 15  1  0  0  0  0
 19 16  1  0  0  0  0
 20 19  1  0  0  0  0
 21 18  1  0  0  0  0
 23 26  1  0  0  0  0
 24 27  1  0  0  0  0
 25 24  2  0  0  0  0
 25 23  1  0  0  0  0
 27 22  1  6  0  0  0
 27 26  1  0  0  0  0
M  END
>  <MODEL>
9

>  <REMARK>
 VINA RESULT:      -7.6      3.200      5.304
  Name = 
  5 active torsions:
  status: ('A' for Active; 'I' for Inactive)
    1  A    between atoms: C_1  and  C_15
    2  A    between atoms: C_1  and  C_18
    3  A    between atoms: N_2  and  C_15
    4  A    between atoms: C_9  and  C_15
    5  A    between atoms: C_9  and  C_27
                            x       y       z     vdW  Elec       q    Type
                         _______ _______ _______ _____ _____    ______ ____

>  <TORSDO>
F 5

$$$$
