=
 OpenBabel10272401153D

 27 31  0  0  0  0  0  0  0  0999 V2000
  189.0280  177.7420  142.7250 N   0  0  0  0  0  0  0  0  0  0  0  0
  187.9750  177.7830  143.5990 C   0  0  0  0  0  0  0  0  0  0  0  0
  186.4910  178.2950  141.7550 N   0  0  0  0  0  0  0  0  0  0  0  0
  187.0590  177.6170  145.8330 C   0  0  0  0  0  3  0  0  0  0  0  0
  188.8700  178.2540  139.2760 C   0  0  0  0  0  0  0  0  0  0  0  0
  188.1690  177.5440  144.9810 C   0  0  0  0  0  0  0  0  0  0  0  0
  185.5620  178.1540  143.9880 C   0  0  0  0  0  0  0  0  0  0  0  0
  188.8040  177.9680  141.4120 C   0  0  0  0  0  0  0  0  0  0  0  0
  186.6610  178.0860  143.0990 C   0  0  0  0  0  0  0  0  0  0  0  0
  187.5630  178.4130  139.6090 N   0  0  0  0  0  0  0  0  0  0  0  0
  185.7890  177.9130  145.3480 C   0  0  0  0  0  3  0  0  0  0  0  0
  189.6960  177.9650  140.3680 C   0  0  0  0  0  2  0  0  0  0  0  0
  187.5650  178.2330  140.9370 C   0  0  0  0  0  0  0  0  0  0  0  0
  183.2000  178.8340  144.4970 C   0  0  0  0  0  3  0  0  0  0  0  0
  181.5860  179.1270  142.7370 C   0  0  0  0  0  3  0  0  0  0  0  0
  182.5330  178.7880  141.8240 N   0  0  0  0  0  0  0  0  0  0  0  0
  183.8020  178.4700  142.1980 C   0  0  0  0  0  3  0  0  0  0  0  0
  184.1740  178.4760  143.5510 C   0  0  0  0  0  0  0  0  0  0  0  0
  181.9040  179.1570  144.0950 C   0  0  0  0  0  3  0  0  0  0  0  0
  191.9820  176.6260  146.6160 N   0  0  0  0  0  0  0  0  0  0  0  0
  189.4940  177.2090  145.5770 C   0  0  0  0  0  0  0  0  0  0  0  0
  190.5850  176.9130  144.7500 C   0  0  0  0  0  3  0  0  0  0  0  0
  191.7960  176.6270  145.2960 N   0  0  0  0  0  0  0  0  0  0  0  0
  190.9660  176.9120  147.4710 C   0  0  0  0  0  3  0  0  0  0  0  0
  189.7050  177.2110  146.9610 C   0  0  0  0  0  3  0  0  0  0  0  0
  188.2330  178.7880  136.9600 C   0  0  0  0  0  1  0  0  0  0  0  0
  189.3570  178.3360  137.8710 C   0  0  0  0  0  2  0  0  0  0  0  0
  1  2  1  0  0  0  0
  2  6  1  0  0  0  0
  3  9  1  0  0  0  0
  5 10  2  0  0  0  0
  5 12  1  0  0  0  0
  6 21  1  0  0  0  0
  6  4  2  0  0  0  0
  7 11  2  0  0  0  0
  8  1  2  0  0  0  0
  9  2  2  0  0  0  0
  9  7  1  0  0  0  0
 10 13  1  0  0  0  0
 11  4  1  0  0  0  0
 12  8  1  0  0  0  0
 13  8  1  0  0  0  0
 13  3  2  0  0  0  0
 15 19  2  0  0  0  0
 16 17  2  0  0  0  0
 16 15  1  0  0  0  0
 17 18  1  0  0  0  0
 18  7  1  0  0  0  0
 18 14  2  0  0  0  0
 19 14  1  0  0  0  0
 20 24  1  0  0  0  0
 21 25  1  0  0  0  0
 22 23  1  0  0  0  0
 22 21  2  0  0  0  0
 23 20  2  0  0  0  0
 25 24  2  0  0  0  0
 26 27  1  0  0  0  0
 27  5  1  0  0  0  0
M  END
>  <MODEL>
1

>  <REMARK>
 VINA RESULT:     -10.6      0.000      0.000
  Name = 
  3 active torsions:
  status: ('A' for Active; 'I' for Inactive)
    1  A    between atoms: C_9  and  C_15
    2  A    between atoms: C_13  and  C_22
    3  A    between atoms: C_14  and  C_17
                            x       y       z     vdW  Elec       q    Type
                         _______ _______ _______ _____ _____    ______ ____

>  <TORSDO>
F 3

$$$$
=
 OpenBabel10272401153D

 27 31  0  0  0  0  0  0  0  0999 V2000
  186.8540  178.1880  141.4610 N   0  0  0  0  0  0  0  0  0  0  0  0
  188.1420  177.8370  141.7670 C   0  0  0  0  0  0  0  0  0  0  0  0
  187.5470  177.7780  144.1140 N   0  0  0  0  0  0  0  0  0  0  0  0
  190.4190  177.3350  141.1190 C   0  0  0  0  0  3  0  0  0  0  0  0
  184.2390  178.6240  143.7310 C   0  0  0  0  0  0  0  0  0  0  0  0
  189.1120  177.6770  140.7480 C   0  0  0  0  0  0  0  0  0  0  0  0
  189.8360  177.2960  143.4840 C   0  0  0  0  0  0  0  0  0  0  0  0
  185.9530  178.3230  142.4590 C   0  0  0  0  0  0  0  0  0  0  0  0
  188.5060  177.6400  143.1450 C   0  0  0  0  0  0  0  0  0  0  0  0
  185.2470  178.2920  144.5770 N   0  0  0  0  0  0  0  0  0  0  0  0
  190.7710  177.1470  142.4530 C   0  0  0  0  0  3  0  0  0  0  0  0
  184.6220  178.6520  142.3850 C   0  0  0  0  0  2  0  0  0  0  0  0
  186.2890  178.1180  143.7530 C   0  0  0  0  0  0  0  0  0  0  0  0
  189.4040  177.2720  145.9570 C   0  0  0  0  0  3  0  0  0  0  0  0
  191.1340  176.6580  147.5130 C   0  0  0  0  0  3  0  0  0  0  0  0
  191.9910  176.4750  146.4740 N   0  0  0  0  0  0  0  0  0  0  0  0
  191.6030  176.6760  145.1860 C   0  0  0  0  0  3  0  0  0  0  0  0
  190.2960  177.0900  144.8870 C   0  0  0  0  0  0  0  0  0  0  0  0
  189.8200  177.0610  147.2710 C   0  0  0  0  0  3  0  0  0  0  0  0
  188.3220  178.2160  136.6080 N   0  0  0  0  0  0  0  0  0  0  0  0
  188.8130  177.8480  139.2980 C   0  0  0  0  0  0  0  0  0  0  0  0
  189.0130  179.0880  138.6770 C   0  0  0  0  0  3  0  0  0  0  0  0
  188.7580  179.2350  137.3500 N   0  0  0  0  0  0  0  0  0  0  0  0
  188.1150  176.9880  137.1490 C   0  0  0  0  0  3  0  0  0  0  0  0
  188.3620  176.7860  138.5050 C   0  0  0  0  0  3  0  0  0  0  0  0
  181.9230  179.0330  143.0090 C   0  0  0  0  0  1  0  0  0  0  0  0
  182.8500  178.8860  144.1990 C   0  0  0  0  0  2  0  0  0  0  0  0
  1  2  1  0  0  0  0
  1  8  2  0  0  0  0
  2  9  1  0  0  0  0
  4 11  2  0  0  0  0
  5 27  1  0  0  0  0
  5 10  2  0  0  0  0
  6  4  1  0  0  0  0
  6  2  2  0  0  0  0
  7 18  1  0  0  0  0
  8 13  1  0  0  0  0
  9  7  2  0  0  0  0
  9  3  1  0  0  0  0
 11  7  1  0  0  0  0
 12  8  1  0  0  0  0
 12  5  1  0  0  0  0
 13  3  2  0  0  0  0
 13 10  1  0  0  0  0
 14 19  1  0  0  0  0
 16 15  1  0  0  0  0
 17 16  2  0  0  0  0
 18 17  1  0  0  0  0
 18 14  2  0  0  0  0
 19 15  2  0  0  0  0
 20 24  2  0  0  0  0
 20 23  1  0  0  0  0
 21  6  1  0  0  0  0
 22 21  1  0  0  0  0
 23 22  2  0  0  0  0
 24 25  1  0  0  0  0
 25 21  2  0  0  0  0
 26 27  1  0  0  0  0
M  END
>  <MODEL>
2

>  <REMARK>
 VINA RESULT:     -10.2      1.410      7.057
  Name = 
  3 active torsions:
  status: ('A' for Active; 'I' for Inactive)
    1  A    between atoms: C_9  and  C_15
    2  A    between atoms: C_13  and  C_22
    3  A    between atoms: C_14  and  C_17
                            x       y       z     vdW  Elec       q    Type
                         _______ _______ _______ _____ _____    ______ ____

>  <TORSDO>
F 3

$$$$
=
 OpenBabel10272401153D

 27 31  0  0  0  0  0  0  0  0999 V2000
  187.5790  177.7830  144.0740 N   0  0  0  0  0  0  0  0  0  0  0  0
  188.5610  177.6160  143.1350 C   0  0  0  0  0  0  0  0  0  0  0  0
  186.9730  178.1970  141.4010 N   0  0  0  0  0  0  0  0  0  0  0  0
  190.8340  177.0680  142.5110 C   0  0  0  0  0  3  0  0  0  0  0  0
  184.2740  178.7260  143.4600 C   0  0  0  0  0  0  0  0  0  0  0  0
  189.8730  177.2420  143.5150 C   0  0  0  0  0  0  0  0  0  0  0  0
  189.2390  177.6280  140.7580 C   0  0  0  0  0  0  0  0  0  0  0  0
  186.3400  178.1480  143.6750 C   0  0  0  0  0  0  0  0  0  0  0  0
  188.2430  177.8150  141.7460 C   0  0  0  0  0  0  0  0  0  0  0  0
  184.7690  178.7210  142.1960 N   0  0  0  0  0  0  0  0  0  0  0  0
  190.5250  177.2580  141.1680 C   0  0  0  0  0  3  0  0  0  0  0  0
  185.2200  178.3810  144.4340 C   0  0  0  0  0  2  0  0  0  0  0  0
  186.0450  178.3550  142.3710 C   0  0  0  0  0  0  0  0  0  0  0  0
  188.6030  176.7010  138.5130 C   0  0  0  0  0  3  0  0  0  0  0  0
  188.4650  178.1230  136.5770 C   0  0  0  0  0  3  0  0  0  0  0  0
  188.8280  179.1850  137.3420 N   0  0  0  0  0  0  0  0  0  0  0  0
  189.0840  179.0520  138.6710 C   0  0  0  0  0  3  0  0  0  0  0  0
  188.9860  177.8000  139.2990 C   0  0  0  0  0  0  0  0  0  0  0  0
  188.3440  176.8570  137.1510 C   0  0  0  0  0  3  0  0  0  0  0  0
  191.1250  176.6740  147.5350 N   0  0  0  0  0  0  0  0  0  0  0  0
  190.2870  177.0320  144.9320 C   0  0  0  0  0  0  0  0  0  0  0  0
  191.6140  176.7040  145.2380 C   0  0  0  0  0  3  0  0  0  0  0  0
  191.9920  176.5320  146.5320 N   0  0  0  0  0  0  0  0  0  0  0  0
  189.8260  176.9970  147.3050 C   0  0  0  0  0  3  0  0  0  0  0  0
  189.3890  177.1840  145.9950 C   0  0  0  0  0  3  0  0  0  0  0  0
  181.9860  178.8640  142.5660 C   0  0  0  0  0  1  0  0  0  0  0  0
  182.8700  179.1100  143.7730 C   0  0  0  0  0  2  0  0  0  0  0  0
  2  6  1  0  0  0  0
  2  1  1  0  0  0  0
  3  9  1  0  0  0  0
  3 13  2  0  0  0  0
  4  6  2  0  0  0  0
  5 27  1  0  0  0  0
  5 12  1  0  0  0  0
  6 21  1  0  0  0  0
  7 11  2  0  0  0  0
  7  9  1  0  0  0  0
  8  1  2  0  0  0  0
  8 12  1  0  0  0  0
  9  2  2  0  0  0  0
 10 13  1  0  0  0  0
 10  5  2  0  0  0  0
 11  4  1  0  0  0  0
 13  8  1  0  0  0  0
 14 18  1  0  0  0  0
 15 19  1  0  0  0  0
 15 16  2  0  0  0  0
 16 17  1  0  0  0  0
 17 18  2  0  0  0  0
 18  7  1  0  0  0  0
 19 14  2  0  0  0  0
 21 22  2  0  0  0  0
 21 25  1  0  0  0  0
 22 23  1  0  0  0  0
 23 20  2  0  0  0  0
 24 20  1  0  0  0  0
 25 24  2  0  0  0  0
 26 27  1  0  0  0  0
M  END
>  <MODEL>
3

>  <REMARK>
 VINA RESULT:     -10.1      1.225      5.303
  Name = 
  3 active torsions:
  status: ('A' for Active; 'I' for Inactive)
    1  A    between atoms: C_9  and  C_15
    2  A    between atoms: C_13  and  C_22
    3  A    between atoms: C_14  and  C_17
                            x       y       z     vdW  Elec       q    Type
                         _______ _______ _______ _____ _____    ______ ____

>  <TORSDO>
F 3

$$$$
=
 OpenBabel10272401153D

 27 31  0  0  0  0  0  0  0  0999 V2000
  186.6000  178.1740  141.6580 N   0  0  0  0  0  0  0  0  0  0  0  0
  186.7580  178.0020  143.0070 C   0  0  0  0  0  0  0  0  0  0  0  0
  189.1120  177.5530  142.6550 N   0  0  0  0  0  0  0  0  0  0  0  0
  185.8730  177.9360  145.2590 C   0  0  0  0  0  3  0  0  0  0  0  0
  189.1060  177.9300  139.2400 C   0  0  0  0  0  0  0  0  0  0  0  0
  185.6590  178.1420  143.8900 C   0  0  0  0  0  0  0  0  0  0  0  0
  188.2360  177.4600  144.9130 C   0  0  0  0  0  0  0  0  0  0  0  0
  187.6730  178.0410  140.8470 C   0  0  0  0  0  0  0  0  0  0  0  0
  188.0570  177.6630  143.5230 C   0  0  0  0  0  0  0  0  0  0  0  0
  189.8220  177.6690  140.3640 N   0  0  0  0  0  0  0  0  0  0  0  0
  187.1300  177.6060  145.7570 C   0  0  0  0  0  3  0  0  0  0  0  0
  187.7500  178.1790  139.4830 C   0  0  0  0  0  2  0  0  0  0  0  0
  188.9000  177.7420  141.3330 C   0  0  0  0  0  0  0  0  0  0  0  0
  189.6530  176.9160  146.9130 C   0  0  0  0  0  3  0  0  0  0  0  0
  191.9820  176.3600  146.6700 C   0  0  0  0  0  3  0  0  0  0  0  0
  191.8720  176.5250  145.3260 N   0  0  0  0  0  0  0  0  0  0  0  0
  190.6940  176.8790  144.7450 C   0  0  0  0  0  3  0  0  0  0  0  0
  189.5460  177.0930  145.5240 C   0  0  0  0  0  0  0  0  0  0  0  0
  190.8690  176.5520  147.4910 C   0  0  0  0  0  3  0  0  0  0  0  0
  181.7510  179.1220  142.5410 N   0  0  0  0  0  0  0  0  0  0  0  0
  184.2860  178.5050  143.4380 C   0  0  0  0  0  0  0  0  0  0  0  0
  183.9600  178.4760  142.0750 C   0  0  0  0  0  3  0  0  0  0  0  0
  182.7030  178.7880  141.6680 N   0  0  0  0  0  0  0  0  0  0  0  0
  182.0010  179.1620  143.8750 C   0  0  0  0  0  3  0  0  0  0  0  0
  183.2760  178.8500  144.3430 C   0  0  0  0  0  3  0  0  0  0  0  0
  188.9810  178.9830  137.0200 C   0  0  0  0  0  1  0  0  0  0  0  0
  189.7260  177.9880  137.8880 C   0  0  0  0  0  2  0  0  0  0  0  0
  1  2  1  0  0  0  0
  2  9  2  0  0  0  0
  2  6  1  0  0  0  0
  3  9  1  0  0  0  0
  4 11  1  0  0  0  0
  5 12  1  0  0  0  0
  5 10  2  0  0  0  0
  6  4  2  0  0  0  0
  7 18  1  0  0  0  0
  7 11  2  0  0  0  0
  8 13  1  0  0  0  0
  8  1  2  0  0  0  0
  9  7  1  0  0  0  0
 10 13  1  0  0  0  0
 12  8  1  0  0  0  0
 13  3  2  0  0  0  0
 14 19  1  0  0  0  0
 15 19  2  0  0  0  0
 16 15  1  0  0  0  0
 17 16  2  0  0  0  0
 17 18  1  0  0  0  0
 18 14  2  0  0  0  0
 20 24  1  0  0  0  0
 21  6  1  0  0  0  0
 21 25  1  0  0  0  0
 22 21  2  0  0  0  0
 23 22  1  0  0  0  0
 23 20  2  0  0  0  0
 24 25  2  0  0  0  0
 26 27  1  0  0  0  0
 27  5  1  0  0  0  0
M  END
>  <MODEL>
4

>  <REMARK>
 VINA RESULT:     -10.1      0.682      6.075
  Name = 
  3 active torsions:
  status: ('A' for Active; 'I' for Inactive)
    1  A    between atoms: C_9  and  C_15
    2  A    between atoms: C_13  and  C_22
    3  A    between atoms: C_14  and  C_17
                            x       y       z     vdW  Elec       q    Type
                         _______ _______ _______ _____ _____    ______ ____

>  <TORSDO>
F 3

$$$$
=
 OpenBabel10272401153D

 27 31  0  0  0  0  0  0  0  0999 V2000
  187.7780  177.6970  143.0600 N   0  0  0  0  0  0  0  0  0  0  0  0
  187.8890  177.6300  144.4230 C   0  0  0  0  0  0  0  0  0  0  0  0
  190.2150  177.0010  144.1850 N   0  0  0  0  0  0  0  0  0  0  0  0
  186.9430  177.8120  146.6440 C   0  0  0  0  0  3  0  0  0  0  0  0
  190.3240  177.0870  140.7510 C   0  0  0  0  0  0  0  0  0  0  0  0
  186.7790  177.9140  145.2570 C   0  0  0  0  0  0  0  0  0  0  0  0
  189.2780  177.1570  146.4130 C   0  0  0  0  0  0  0  0  0  0  0  0
  188.8610  177.4260  142.2970 C   0  0  0  0  0  0  0  0  0  0  0  0
  189.1480  177.2530  145.0070 C   0  0  0  0  0  0  0  0  0  0  0  0
  190.9910  176.8770  141.9150 N   0  0  0  0  0  0  0  0  0  0  0  0
  188.1620  177.4450  147.2070 C   0  0  0  0  0  3  0  0  0  0  0  0
  188.9820  177.4440  140.9300 C   0  0  0  0  0  2  0  0  0  0  0  0
  190.0510  177.0920  142.8450 C   0  0  0  0  0  0  0  0  0  0  0  0
  191.2190  175.5920  146.7040 C   0  0  0  0  0  3  0  0  0  0  0  0
  192.9380  176.0340  148.3290 C   0  0  0  0  0  3  0  0  0  0  0  0
  192.2860  177.1690  148.6960 N   0  0  0  0  0  0  0  0  0  0  0  0
  191.1190  177.5430  148.1060 C   0  0  0  0  0  3  0  0  0  0  0  0
  190.5430  176.7600  147.0930 C   0  0  0  0  0  0  0  0  0  0  0  0
  192.4140  175.2230  147.3210 C   0  0  0  0  0  3  0  0  0  0  0  0
  182.9750  179.1450  143.8190 N   0  0  0  0  0  0  0  0  0  0  0  0
  185.4450  178.3260  144.7330 C   0  0  0  0  0  0  0  0  0  0  0  0
  184.4660  178.8190  145.6040 C   0  0  0  0  0  3  0  0  0  0  0  0
  183.2580  179.2110  145.1210 N   0  0  0  0  0  0  0  0  0  0  0  0
  183.8840  178.6840  142.9220 C   0  0  0  0  0  3  0  0  0  0  0  0
  185.1370  178.2690  143.3680 C   0  0  0  0  0  3  0  0  0  0  0  0
  189.9430  176.7230  138.3480 C   0  0  0  0  0  1  0  0  0  0  0  0
  190.9820  176.9910  139.4190 C   0  0  0  0  0  2  0  0  0  0  0  0
  1  2  1  0  0  0  0
  2  9  2  0  0  0  0
  2  6  1  0  0  0  0
  3  9  1  0  0  0  0
  4 11  1  0  0  0  0
  5 12  1  0  0  0  0
  5 10  2  0  0  0  0
  6  4  2  0  0  0  0
  7 18  1  0  0  0  0
  7 11  2  0  0  0  0
  8 13  1  0  0  0  0
  8  1  2  0  0  0  0
  9  7  1  0  0  0  0
 10 13  1  0  0  0  0
 12  8  1  0  0  0  0
 13  3  2  0  0  0  0
 14 18  2  0  0  0  0
 14 19  1  0  0  0  0
 15 16  1  0  0  0  0
 17 16  2  0  0  0  0
 18 17  1  0  0  0  0
 19 15  2  0  0  0  0
 20 23  1  0  0  0  0
 21  6  1  0  0  0  0
 21 22  1  0  0  0  0
 23 22  2  0  0  0  0
 24 25  1  0  0  0  0
 24 20  2  0  0  0  0
 25 21  2  0  0  0  0
 26 27  1  0  0  0  0
 27  5  1  0  0  0  0
M  END
>  <MODEL>
5

>  <REMARK>
 VINA RESULT:      -9.9      1.661      6.502
  Name = 
  3 active torsions:
  status: ('A' for Active; 'I' for Inactive)
    1  A    between atoms: C_9  and  C_15
    2  A    between atoms: C_13  and  C_22
    3  A    between atoms: C_14  and  C_17
                            x       y       z     vdW  Elec       q    Type
                         _______ _______ _______ _____ _____    ______ ____

>  <TORSDO>
F 3

$$$$
=
 OpenBabel10272401153D

 27 31  0  0  0  0  0  0  0  0999 V2000
  190.7730  177.0390  142.9490 N   0  0  0  0  0  0  0  0  0  0  0  0
  189.6810  177.3930  142.2020 C   0  0  0  0  0  0  0  0  0  0  0  0
  188.3870  177.6220  144.2370 N   0  0  0  0  0  0  0  0  0  0  0  0
  188.6090  177.8180  140.0740 C   0  0  0  0  0  3  0  0  0  0  0  0
  190.9010  176.7970  146.4290 C   0  0  0  0  0  0  0  0  0  0  0  0
  189.7610  177.4680  140.7900 C   0  0  0  0  0  0  0  0  0  0  0  0
  187.2940  178.0280  142.1130 C   0  0  0  0  0  0  0  0  0  0  0  0
  190.6610  176.9860  144.2950 C   0  0  0  0  0  0  0  0  0  0  0  0
  188.4390  177.6800  142.8690 C   0  0  0  0  0  0  0  0  0  0  0  0
  189.6080  177.1730  146.2550 N   0  0  0  0  0  0  0  0  0  0  0  0
  187.4070  178.0920  140.7200 C   0  0  0  0  0  3  0  0  0  0  0  0
  191.6150  176.6710  145.2310 C   0  0  0  0  0  2  0  0  0  0  0  0
  189.4990  177.2750  144.9240 C   0  0  0  0  0  0  0  0  0  0  0  0
  185.8510  178.4790  144.1180 C   0  0  0  0  0  3  0  0  0  0  0  0
  183.5000  178.9290  143.8790 C   0  0  0  0  0  3  0  0  0  0  0  0
  183.6180  178.7870  142.5330 N   0  0  0  0  0  0  0  0  0  0  0  0
  184.8120  178.4960  141.9490 C   0  0  0  0  0  3  0  0  0  0  0  0
  185.9680  178.3250  142.7270 C   0  0  0  0  0  0  0  0  0  0  0  0
  184.6190  178.7780  144.6990 C   0  0  0  0  0  3  0  0  0  0  0  0
  193.3680  176.6980  138.6800 N   0  0  0  0  0  0  0  0  0  0  0  0
  191.0130  177.2020  140.0250 C   0  0  0  0  0  0  0  0  0  0  0  0
  192.2530  177.6040  140.5380 C   0  0  0  0  0  3  0  0  0  0  0  0
  193.3930  177.3410  139.8480 N   0  0  0  0  0  0  0  0  0  0  0  0
  192.1980  176.2760  138.1330 C   0  0  0  0  0  3  0  0  0  0  0  0
  191.0020  176.5210  138.8020 C   0  0  0  0  0  3  0  0  0  0  0  0
  192.6190  175.5640  147.6870 C   0  0  0  0  0  1  0  0  0  0  0  0
  191.5040  176.5870  147.7740 C   0  0  0  0  0  2  0  0  0  0  0  0
  1  8  2  0  0  0  0
  2  9  1  0  0  0  0
  2  1  1  0  0  0  0
  3 13  2  0  0  0  0
  4 11  2  0  0  0  0
  4  6  1  0  0  0  0
  5 27  1  0  0  0  0
  6  2  2  0  0  0  0
  7 18  1  0  0  0  0
  7  9  2  0  0  0  0
  8 13  1  0  0  0  0
  8 12  1  0  0  0  0
  9  3  1  0  0  0  0
 10  5  2  0  0  0  0
 11  7  1  0  0  0  0
 12  5  1  0  0  0  0
 13 10  1  0  0  0  0
 14 19  1  0  0  0  0
 15 19  2  0  0  0  0
 16 15  1  0  0  0  0
 17 16  2  0  0  0  0
 17 18  1  0  0  0  0
 18 14  2  0  0  0  0
 20 23  1  0  0  0  0
 21 22  1  0  0  0  0
 21  6  1  0  0  0  0
 23 22  2  0  0  0  0
 24 20  2  0  0  0  0
 24 25  1  0  0  0  0
 25 21  2  0  0  0  0
 26 27  1  0  0  0  0
M  END
>  <MODEL>
6

>  <REMARK>
 VINA RESULT:      -9.9      2.135      5.660
  Name = 
  3 active torsions:
  status: ('A' for Active; 'I' for Inactive)
    1  A    between atoms: C_9  and  C_15
    2  A    between atoms: C_13  and  C_22
    3  A    between atoms: C_14  and  C_17
                            x       y       z     vdW  Elec       q    Type
                         _______ _______ _______ _____ _____    ______ ____

>  <TORSDO>
F 3

$$$$
=
 OpenBabel10272401153D

 27 31  0  0  0  0  0  0  0  0999 V2000
  188.6690  177.3620  145.3210 N   0  0  0  0  0  0  0  0  0  0  0  0
  188.4830  177.5420  143.9770 C   0  0  0  0  0  0  0  0  0  0  0  0
  190.7590  176.8150  143.5830 N   0  0  0  0  0  0  0  0  0  0  0  0
  187.1110  178.1820  142.0880 C   0  0  0  0  0  3  0  0  0  0  0  0
  191.5870  176.2280  146.8660 C   0  0  0  0  0  0  0  0  0  0  0  0
  187.2410  177.9980  143.4710 C   0  0  0  0  0  0  0  0  0  0  0  0
  189.4060  177.4730  141.6850 C   0  0  0  0  0  0  0  0  0  0  0  0
  189.8660  176.9190  145.7670 C   0  0  0  0  0  0  0  0  0  0  0  0
  189.5720  177.2740  143.0760 C   0  0  0  0  0  0  0  0  0  0  0  0
  191.9730  176.2090  145.5650 N   0  0  0  0  0  0  0  0  0  0  0  0
  188.1660  177.9250  141.2180 C   0  0  0  0  0  3  0  0  0  0  0  0
  190.2680  176.6590  147.0540 C   0  0  0  0  0  2  0  0  0  0  0  0
  190.8840  176.6470  144.9190 C   0  0  0  0  0  0  0  0  0  0  0  0
  190.1970  176.6080  139.4650 C   0  0  0  0  0  3  0  0  0  0  0  0
  192.5000  176.8200  138.7990 C   0  0  0  0  0  3  0  0  0  0  0  0
  192.7760  177.4310  139.9810 N   0  0  0  0  0  0  0  0  0  0  0  0
  191.8110  177.6450  140.9160 C   0  0  0  0  0  3  0  0  0  0  0  0
  190.4890  177.2320  140.6890 C   0  0  0  0  0  0  0  0  0  0  0  0
  191.2000  176.3970  138.5190 C   0  0  0  0  0  3  0  0  0  0  0  0
  183.9220  178.8550  145.9820 N   0  0  0  0  0  0  0  0  0  0  0  0
  186.0600  178.2840  144.3350 C   0  0  0  0  0  0  0  0  0  0  0  0
  186.2070  178.3750  145.7250 C   0  0  0  0  0  3  0  0  0  0  0  0
  185.1320  178.6560  146.5070 N   0  0  0  0  0  0  0  0  0  0  0  0
  183.7150  178.7870  144.6420 C   0  0  0  0  0  3  0  0  0  0  0  0
  184.7860  178.5020  143.7970 C   0  0  0  0  0  3  0  0  0  0  0  0
  192.6920  176.9260  148.9510 C   0  0  0  0  0  1  0  0  0  0  0  0
  192.4760  175.7860  147.9760 C   0  0  0  0  0  2  0  0  0  0  0  0
  1  8  2  0  0  0  0
  2  1  1  0  0  0  0
  3 13  2  0  0  0  0
  4  6  2  0  0  0  0
  5 12  1  0  0  0  0
  5 27  1  0  0  0  0
  6  2  1  0  0  0  0
  6 21  1  0  0  0  0
  7  9  1  0  0  0  0
  8 12  1  0  0  0  0
  9  3  1  0  0  0  0
  9  2  2  0  0  0  0
 10  5  2  0  0  0  0
 11  7  2  0  0  0  0
 11  4  1  0  0  0  0
 13 10  1  0  0  0  0
 13  8  1  0  0  0  0
 14 18  1  0  0  0  0
 15 16  2  0  0  0  0
 16 17  1  0  0  0  0
 18 17  2  0  0  0  0
 18  7  1  0  0  0  0
 19 15  1  0  0  0  0
 19 14  2  0  0  0  0
 20 23  1  0  0  0  0
 21 22  1  0  0  0  0
 22 23  2  0  0  0  0
 24 20  2  0  0  0  0
 25 21  2  0  0  0  0
 25 24  1  0  0  0  0
 27 26  1  0  0  0  0
M  END
>  <MODEL>
7

>  <REMARK>
 VINA RESULT:      -9.8      2.146      7.304
  Name = 
  3 active torsions:
  status: ('A' for Active; 'I' for Inactive)
    1  A    between atoms: C_9  and  C_15
    2  A    between atoms: C_13  and  C_22
    3  A    between atoms: C_14  and  C_17
                            x       y       z     vdW  Elec       q    Type
                         _______ _______ _______ _____ _____    ______ ____

>  <TORSDO>
F 3

$$$$
=
 OpenBabel10272401153D

 27 31  0  0  0  0  0  0  0  0999 V2000
  190.4720  177.0410  144.4120 N   0  0  0  0  0  0  0  0  0  0  0  0
  189.4150  177.2680  145.2520 C   0  0  0  0  0  0  0  0  0  0  0  0
  188.0120  177.7210  143.3310 N   0  0  0  0  0  0  0  0  0  0  0  0
  188.4550  177.4170  147.4690 C   0  0  0  0  0  3  0  0  0  0  0  0
  190.4120  177.2080  140.9260 C   0  0  0  0  0  0  0  0  0  0  0  0
  189.5650  177.1560  146.6560 C   0  0  0  0  0  0  0  0  0  0  0  0
  187.0420  177.8960  145.5440 C   0  0  0  0  0  0  0  0  0  0  0  0
  190.2890  177.1510  143.0780 C   0  0  0  0  0  0  0  0  0  0  0  0
  188.1420  177.6370  144.6920 C   0  0  0  0  0  0  0  0  0  0  0  0
  189.1210  177.5190  141.2100 N   0  0  0  0  0  0  0  0  0  0  0  0
  187.2250  177.7760  146.9260 C   0  0  0  0  0  3  0  0  0  0  0  0
  191.1920  176.9580  142.0620 C   0  0  0  0  0  2  0  0  0  0  0  0
  189.0880  177.4770  142.5490 C   0  0  0  0  0  0  0  0  0  0  0  0
  185.4030  178.2290  143.6710 C   0  0  0  0  0  3  0  0  0  0  0  0
  183.1640  178.9980  144.1030 C   0  0  0  0  0  3  0  0  0  0  0  0
  183.4490  179.0530  145.4300 N   0  0  0  0  0  0  0  0  0  0  0  0
  184.6750  178.7130  145.9120 C   0  0  0  0  0  3  0  0  0  0  0  0
  185.6960  178.2960  145.0430 C   0  0  0  0  0  0  0  0  0  0  0  0
  184.1400  178.5820  143.1960 C   0  0  0  0  0  3  0  0  0  0  0  0
  193.2410  176.0190  148.4590 N   0  0  0  0  0  0  0  0  0  0  0  0
  190.8450  176.7650  147.3140 C   0  0  0  0  0  0  0  0  0  0  0  0
  191.5800  175.6730  146.8340 C   0  0  0  0  0  3  0  0  0  0  0  0
  192.7560  175.3310  147.4240 N   0  0  0  0  0  0  0  0  0  0  0  0
  192.5790  177.0910  148.9660 C   0  0  0  0  0  3  0  0  0  0  0  0
  191.3690  177.4810  148.3960 C   0  0  0  0  0  3  0  0  0  0  0  0
  189.9010  177.6520  138.5610 C   0  0  0  0  0  1  0  0  0  0  0  0
  190.9250  177.1000  139.5320 C   0  0  0  0  0  2  0  0  0  0  0  0
  1  2  1  0  0  0  0
  2  6  1  0  0  0  0
  3  9  1  0  0  0  0
  5 10  2  0  0  0  0
  5 12  1  0  0  0  0
  6 21  1  0  0  0  0
  6  4  2  0  0  0  0
  7 11  2  0  0  0  0
  8  1  2  0  0  0  0
  9  2  2  0  0  0  0
  9  7  1  0  0  0  0
 10 13  1  0  0  0  0
 11  4  1  0  0  0  0
 12  8  1  0  0  0  0
 13  8  1  0  0  0  0
 13  3  2  0  0  0  0
 14 18  1  0  0  0  0
 15 16  2  0  0  0  0
 16 17  1  0  0  0  0
 18  7  1  0  0  0  0
 18 17  2  0  0  0  0
 19 14  2  0  0  0  0
 19 15  1  0  0  0  0
 20 24  1  0  0  0  0
 21 25  1  0  0  0  0
 22 21  2  0  0  0  0
 22 23  1  0  0  0  0
 23 20  2  0  0  0  0
 25 24  2  0  0  0  0
 26 27  1  0  0  0  0
 27  5  1  0  0  0  0
M  END
>  <MODEL>
8

>  <REMARK>
 VINA RESULT:      -9.7      1.533      2.477
  Name = 
  3 active torsions:
  status: ('A' for Active; 'I' for Inactive)
    1  A    between atoms: C_9  and  C_15
    2  A    between atoms: C_13  and  C_22
    3  A    between atoms: C_14  and  C_17
                            x       y       z     vdW  Elec       q    Type
                         _______ _______ _______ _____ _____    ______ ____

>  <TORSDO>
F 3

$$$$
=
 OpenBabel10272401153D

 27 31  0  0  0  0  0  0  0  0999 V2000
  188.1660  177.6880  144.5700 N   0  0  0  0  0  0  0  0  0  0  0  0
  188.1570  177.7500  143.2030 C   0  0  0  0  0  0  0  0  0  0  0  0
  190.4890  177.0980  143.1770 N   0  0  0  0  0  0  0  0  0  0  0  0
  187.0320  178.1720  141.1020 C   0  0  0  0  0  3  0  0  0  0  0  0
  190.8850  176.8170  146.5780 C   0  0  0  0  0  0  0  0  0  0  0  0
  186.9800  178.1060  142.5000 C   0  0  0  0  0  0  0  0  0  0  0  0
  189.3830  177.5390  141.0670 C   0  0  0  0  0  0  0  0  0  0  0  0
  189.3060  177.3370  145.2070 C   0  0  0  0  0  0  0  0  0  0  0  0
  189.3660  177.4600  142.4800 C   0  0  0  0  0  0  0  0  0  0  0  0
  191.4450  176.7100  145.3460 N   0  0  0  0  0  0  0  0  0  0  0  0
  188.2030  177.8940  140.4040 C   0  0  0  0  0  3  0  0  0  0  0  0
  189.5390  177.2000  146.5530 C   0  0  0  0  0  2  0  0  0  0  0  0
  190.4380  177.0440  144.5270 C   0  0  0  0  0  0  0  0  0  0  0  0
  191.8680  177.6360  140.7200 C   0  0  0  0  0  3  0  0  0  0  0  0
  192.8820  176.7200  138.7400 C   0  0  0  0  0  3  0  0  0  0  0  0
  191.6530  176.3570  138.2890 N   0  0  0  0  0  0  0  0  0  0  0  0
  190.5260  176.6110  139.0080 C   0  0  0  0  0  3  0  0  0  0  0  0
  190.5990  177.2670  140.2470 C   0  0  0  0  0  0  0  0  0  0  0  0
  193.0120  177.3680  139.9690 C   0  0  0  0  0  3  0  0  0  0  0  0
  183.2480  178.9180  144.3620 N   0  0  0  0  0  0  0  0  0  0  0  0
  185.6840  178.4070  143.1730 C   0  0  0  0  0  0  0  0  0  0  0  0
  184.5100  178.5340  142.4180 C   0  0  0  0  0  3  0  0  0  0  0  0
  183.3270  178.7880  143.0370 N   0  0  0  0  0  0  0  0  0  0  0  0
  184.3480  178.7990  145.1490 C   0  0  0  0  0  3  0  0  0  0  0  0
  185.5840  178.5380  144.5620 C   0  0  0  0  0  3  0  0  0  0  0  0
  192.6450  175.4100  147.5680 C   0  0  0  0  0  1  0  0  0  0  0  0
  191.6310  176.5060  147.8290 C   0  0  0  0  0  2  0  0  0  0  0  0
  1  8  2  0  0  0  0
  2  1  1  0  0  0  0
  3 13  2  0  0  0  0
  4  6  2  0  0  0  0
  5 27  1  0  0  0  0
  6 21  1  0  0  0  0
  6  2  1  0  0  0  0
  7  9  1  0  0  0  0
  8 12  1  0  0  0  0
  9  3  1  0  0  0  0
  9  2  2  0  0  0  0
 10  5  2  0  0  0  0
 11  7  2  0  0  0  0
 11  4  1  0  0  0  0
 12  5  1  0  0  0  0
 13  8  1  0  0  0  0
 13 10  1  0  0  0  0
 15 19  1  0  0  0  0
 16 15  2  0  0  0  0
 16 17  1  0  0  0  0
 17 18  2  0  0  0  0
 18 14  1  0  0  0  0
 18  7  1  0  0  0  0
 19 14  2  0  0  0  0
 20 24  1  0  0  0  0
 21 25  1  0  0  0  0
 22 23  1  0  0  0  0
 22 21  2  0  0  0  0
 23 20  2  0  0  0  0
 25 24  2  0  0  0  0
 26 27  1  0  0  0  0
M  END
>  <MODEL>
9

>  <REMARK>
 VINA RESULT:      -9.5      1.845      7.364
  Name = 
  3 active torsions:
  status: ('A' for Active; 'I' for Inactive)
    1  A    between atoms: C_9  and  C_15
    2  A    between atoms: C_13  and  C_22
    3  A    between atoms: C_14  and  C_17
                            x       y       z     vdW  Elec       q    Type
                         _______ _______ _______ _____ _____    ______ ____

>  <TORSDO>
F 3

$$$$
