=
 OpenBabel10272414353D

 43 48  0  0  1  0  0  0  0  0999 V2000
  194.3810  174.3560  136.5490 C   0  0  0  0  0  0  0  0  0  0  0  0
  189.8940  176.7450  136.9680 C   0  0  0  0  0  0  0  0  0  0  0  0
  190.8300  176.8680  139.2960 C   0  0  0  0  0  3  0  0  0  0  0  0
  192.1370  175.2500  136.1400 C   0  0  0  0  0  0  0  0  0  0  0  0
  194.4210  174.8370  137.7900 C   0  0  0  0  0  3  0  0  0  0  0  0
  195.5530  173.6220  136.0040 C   0  0  0  0  0  1  0  0  0  0  0  0
  192.1100  175.8080  137.4400 C   0  0  0  0  0  0  0  0  0  0  0  0
  193.1930  174.5580  135.7060 C   0  0  0  0  0  3  0  0  0  0  0  0
  193.2610  175.5760  138.4010 C   0  0  0  0  0  3  0  0  0  0  0  0
  189.8890  177.6930  139.7570 C   0  0  0  0  0  0  0  0  0  0  0  0
  190.9780  176.5410  137.8620 C   0  0  0  0  0  0  0  0  0  0  0  0
  189.9350  176.1390  135.7020 C   0  0  0  0  0  3  0  0  0  0  0  0
  188.8220  177.4830  137.3280 C   0  0  1  0  0  3  0  0  0  0  0  0
  188.9570  178.7190  138.6270 S   0  0  0  0  0  0  0  0  0  0  0  0
  191.0430  175.4050  135.2910 C   0  0  0  0  0  3  0  0  0  0  0  0
  189.6770  177.8680  141.2300 C   0  0  1  0  0  3  0  0  0  0  0  0
  188.6210  178.7510  141.4560 O   0  0  0  0  0  1  0  0  0  0  0  0
  189.3960  176.5430  141.9300 C   0  0  0  0  0  2  0  0  0  0  0  0
  191.9930  176.6360  142.6400 O   0  0  0  0  0  0  0  0  0  0  0  0
  190.6560  176.1650  143.1390 S   0  0  0  0  0  0  0  0  0  0  0  0
  190.6910  174.6750  143.3410 O   0  0  0  0  0  0  0  0  0  0  0  0
  190.2900  176.9520  144.6500 N   0  0  0  0  0  0  0  0  0  0  0  0
  188.9580  177.4270  144.9210 C   0  0  0  0  0  0  0  0  0  0  0  0
  188.7730  178.3450  145.7640 O   0  0  0  0  0  0  0  0  0  0  0  0
  191.0320  176.8690  146.9810 C   0  0  0  0  0  2  0  0  0  0  0  0
  191.3850  177.2910  145.5640 C   0  0  0  0  0  3  0  0  0  0  0  0
  191.9810  176.0270  146.1650 C   0  0  0  0  0  2  0  0  0  0  0  0
  187.7690  176.8040  144.2640 C   0  0  0  0  0  2  0  0  0  0  0  0
  186.5280  177.5440  144.6310 C   0  0  0  0  0  0  0  0  0  0  0  0
  184.6090  178.8770  143.9850 C   0  0  0  0  0  3  0  0  0  0  0  0
  185.0090  178.3860  146.3220 C   0  0  0  0  0  3  0  0  0  0  0  0
  184.2350  178.9920  145.3280 C   0  0  0  0  0  3  0  0  0  0  0  0
  186.1550  177.6650  145.9740 C   0  0  0  0  0  3  0  0  0  0  0  0
  185.7550  178.1550  143.6360 C   0  0  0  0  0  3  0  0  0  0  0  0
  187.5540  177.4910  136.5270 C   0  0  0  0  0  2  0  0  0  0  0  0
  184.1590  177.0240  137.9580 C   0  0  0  0  0  2  0  0  0  0  0  0
  183.8350  175.6780  137.3140 C   0  0  1  0  0  3  0  0  0  0  0  0
  186.1990  175.5840  136.5300 C   0  0  0  0  0  2  0  0  0  0  0  0
  185.3180  177.6810  137.2120 C   0  0  0  0  0  2  0  0  0  0  0  0
  186.4970  176.8150  137.2610 N   0  0  0  0  0  0  0  0  0  0  0  0
  185.0900  174.8110  137.2400 C   0  0  0  0  0  2  0  0  0  0  0  0
  182.5040  175.8550  139.2220 C   0  0  0  0  0  1  0  0  0  0  0  0
  182.8180  174.9960  138.0930 N   0  0  0  0  0  2  0  0  0  0  0  0
  1  5  1  0  0  0  0
  2 13  1  0  0  0  0
  2 11  1  0  0  0  0
  3 10  2  0  0  0  0
  4  7  1  0  0  0  0
  5  9  2  0  0  0  0
  6  1  1  0  0  0  0
  7 11  2  0  0  0  0
  7  9  1  0  0  0  0
  8  4  1  0  0  0  0
  8  1  2  0  0  0  0
 10 16  1  0  0  0  0
 11  3  1  0  0  0  0
 12  2  2  0  0  0  0
 13 35  1  6  0  0  0
 13 14  1  0  0  0  0
 14 10  1  0  0  0  0
 15 12  1  0  0  0  0
 15  4  2  0  0  0  0
 16 17  1  6  0  0  0
 16 18  1  0  0  0  0
 18 20  1  0  0  0  0
 19 20  2  0  0  0  0
 20 21  2  0  0  0  0
 20 22  1  0  0  0  0
 22 23  1  0  0  0  0
 22 26  1  0  0  0  0
 23 24  2  0  0  0  0
 26 27  1  0  0  0  0
 26 25  1  0  0  0  0
 27 25  1  0  0  0  0
 28 29  1  0  0  0  0
 28 23  1  0  0  0  0
 29 33  1  0  0  0  0
 30 32  2  0  0  0  0
 32 31  1  0  0  0  0
 33 31  2  0  0  0  0
 34 30  1  0  0  0  0
 34 29  2  0  0  0  0
 35 40  1  0  0  0  0
 37 36  1  0  0  0  0
 37 43  1  1  0  0  0
 38 41  1  0  0  0  0
 38 40  1  0  0  0  0
 39 40  1  0  0  0  0
 39 36  1  0  0  0  0
 41 37  1  0  0  0  0
 43 42  1  0  0  0  0
M  END
>  <MODEL>
1

>  <REMARK>
 VINA RESULT:      -9.1      0.000      0.000
  Name = 
  10 active torsions:
  status: ('A' for Active; 'I' for Inactive)
    1  A    between atoms: C_1  and  C_34
    2  A    between atoms: C_1  and  N_35
    3  A    between atoms: C_2  and  C_6
    4  A    between atoms: C_2  and  C_27
    5  A    between atoms: N_4  and  S_12
    6  A    between atoms: N_4  and  C_15
    7  A    between atoms: C_6  and  S_12
    8  A    between atoms: C_11  and  C_14
    9  A    between atoms: C_14  and  C_22
   10  A    between atoms: C_19  and  N_37
                            x       y       z     vdW  Elec       q    Type
                         _______ _______ _______ _____ _____    ______ ____

>  <TORSDO>
F 10

$$$$
=
 OpenBabel10272414353D

 43 48  0  0  1  0  0  0  0  0999 V2000
  186.5040  178.3150  146.4860 C   0  0  0  0  0  0  0  0  0  0  0  0
  183.2180  178.5580  142.5920 C   0  0  0  0  0  0  0  0  0  0  0  0
  185.4380  178.2650  141.4530 C   0  0  0  0  0  3  0  0  0  0  0  0
  184.5080  178.6210  145.0990 C   0  0  0  0  0  0  0  0  0  0  0  0
  187.2740  178.0310  145.4360 C   0  0  0  0  0  3  0  0  0  0  0  0
  187.0860  178.2940  147.8530 C   0  0  0  0  0  1  0  0  0  0  0  0
  185.2530  178.3120  143.9370 C   0  0  0  0  0  0  0  0  0  0  0  0
  185.0800  178.6350  146.3050 C   0  0  0  0  0  3  0  0  0  0  0  0
  186.7450  178.0500  144.0270 C   0  0  0  0  0  3  0  0  0  0  0  0
  184.9210  178.0830  140.2370 C   0  0  0  0  0  0  0  0  0  0  0  0
  184.6110  178.2990  142.6790 C   0  0  0  0  0  0  0  0  0  0  0  0
  182.5190  178.9070  143.7600 C   0  0  0  0  0  3  0  0  0  0  0  0
  182.5700  178.5060  141.4090 C   0  0  1  0  0  3  0  0  0  0  0  0
  183.2300  177.5330  140.0480 S   0  0  0  0  0  0  0  0  0  0  0  0
  183.1540  178.9330  144.9970 C   0  0  0  0  0  3  0  0  0  0  0  0
  185.7760  178.2150  139.0130 C   0  0  1  0  0  3  0  0  0  0  0  0
  185.3240  179.2760  138.2300 O   0  0  0  0  0  1  0  0  0  0  0  0
  187.2450  178.4230  139.3600 C   0  0  0  0  0  2  0  0  0  0  0  0
  188.6820  179.5330  137.3710 O   0  0  0  0  0  0  0  0  0  0  0  0
  188.2930  178.1940  137.9310 S   0  0  0  0  0  0  0  0  0  0  0  0
  187.5240  177.4190  136.8960 O   0  0  0  0  0  0  0  0  0  0  0  0
  189.7280  177.3110  138.3770 N   0  0  0  0  0  0  0  0  0  0  0  0
  190.1350  177.2320  139.7550 C   0  0  0  0  0  0  0  0  0  0  0  0
  191.3390  176.9960  140.0470 O   0  0  0  0  0  0  0  0  0  0  0  0
  191.1940  175.4620  137.7300 C   0  0  0  0  0  2  0  0  0  0  0  0
  190.6140  176.8080  137.3250 C   0  0  0  0  0  3  0  0  0  0  0  0
  190.0570  175.5180  136.7390 C   0  0  0  0  0  2  0  0  0  0  0  0
  189.1400  177.3610  140.8630 C   0  0  0  0  0  2  0  0  0  0  0  0
  189.8330  177.3770  142.1830 C   0  0  0  0  0  0  0  0  0  0  0  0
  190.8270  176.1880  144.0480 C   0  0  0  0  0  3  0  0  0  0  0  0
  190.7030  178.6070  144.0830 C   0  0  0  0  0  3  0  0  0  0  0  0
  191.0770  177.4050  144.6910 C   0  0  0  0  0  3  0  0  0  0  0  0
  190.0800  178.5930  142.8310 C   0  0  0  0  0  3  0  0  0  0  0  0
  190.2050  176.1740  142.7950 C   0  0  0  0  0  3  0  0  0  0  0  0
  181.1770  179.0360  141.2370 C   0  0  0  0  0  2  0  0  0  0  0  0
  179.9820  181.6260  138.8600 C   0  0  0  0  0  2  0  0  0  0  0  0
  181.3430  182.1520  138.4090 C   0  0  1  0  0  3  0  0  0  0  0  0
  182.3870  180.2610  139.6530 C   0  0  0  0  0  2  0  0  0  0  0  0
  180.1430  180.8460  140.1630 C   0  0  0  0  0  2  0  0  0  0  0  0
  181.0620  179.7250  139.9620 N   0  0  0  0  0  0  0  0  0  0  0  0
  182.3500  181.0070  138.3220 C   0  0  0  0  0  2  0  0  0  0  0  0
  180.6900  184.1220  137.3440 C   0  0  0  0  0  1  0  0  0  0  0  0
  181.2160  182.7880  137.1100 N   0  0  0  0  0  2  0  0  0  0  0  0
  1  6  1  0  0  0  0
  2 11  2  0  0  0  0
  2 12  1  0  0  0  0
  3 11  1  0  0  0  0
  4  8  2  0  0  0  0
  5  1  2  0  0  0  0
  7  9  2  0  0  0  0
  7  4  1  0  0  0  0
  8  1  1  0  0  0  0
  9  5  1  0  0  0  0
 10  3  2  0  0  0  0
 11  7  1  0  0  0  0
 12 15  2  0  0  0  0
 13 35  1  1  0  0  0
 13  2  1  0  0  0  0
 14 10  1  0  0  0  0
 14 13  1  0  0  0  0
 15  4  1  0  0  0  0
 16 17  1  1  0  0  0
 16 18  1  0  0  0  0
 16 10  1  0  0  0  0
 19 20  2  0  0  0  0
 20 22  1  0  0  0  0
 20 18  1  0  0  0  0
 21 20  2  0  0  0  0
 22 23  1  0  0  0  0
 23 24  2  0  0  0  0
 23 28  1  0  0  0  0
 26 25  1  0  0  0  0
 26 22  1  0  0  0  0
 27 26  1  0  0  0  0
 27 25  1  0  0  0  0
 28 29  1  0  0  0  0
 29 34  2  0  0  0  0
 29 33  1  0  0  0  0
 30 32  2  0  0  0  0
 31 32  1  0  0  0  0
 33 31  2  0  0  0  0
 34 30  1  0  0  0  0
 36 39  1  0  0  0  0
 37 43  1  6  0  0  0
 37 36  1  0  0  0  0
 38 40  1  0  0  0  0
 40 39  1  0  0  0  0
 40 35  1  0  0  0  0
 41 37  1  0  0  0  0
 41 38  1  0  0  0  0
 43 42  1  0  0  0  0
M  END
>  <MODEL>
2

>  <REMARK>
 VINA RESULT:      -9.0      3.425      8.207
  Name = 
  10 active torsions:
  status: ('A' for Active; 'I' for Inactive)
    1  A    between atoms: C_1  and  C_34
    2  A    between atoms: C_1  and  N_35
    3  A    between atoms: C_2  and  C_6
    4  A    between atoms: C_2  and  C_27
    5  A    between atoms: N_4  and  S_12
    6  A    between atoms: N_4  and  C_15
    7  A    between atoms: C_6  and  S_12
    8  A    between atoms: C_11  and  C_14
    9  A    between atoms: C_14  and  C_22
   10  A    between atoms: C_19  and  N_37
                            x       y       z     vdW  Elec       q    Type
                         _______ _______ _______ _____ _____    ______ ____

>  <TORSDO>
F 10

$$$$
=
 OpenBabel10272414353D

 43 48  0  0  1  0  0  0  0  0999 V2000
  193.1450  175.5500  136.0270 C   0  0  0  0  0  0  0  0  0  0  0  0
  190.9750  177.4660  140.2270 C   0  0  0  0  0  0  0  0  0  0  0  0
  189.0950  177.4620  138.5590 C   0  0  0  0  0  3  0  0  0  0  0  0
  192.7360  176.4940  138.2500 C   0  0  0  0  0  0  0  0  0  0  0  0
  191.8600  175.6250  135.6830 C   0  0  0  0  0  3  0  0  0  0  0  0
  194.1310  174.9770  135.0730 C   0  0  0  0  0  1  0  0  0  0  0  0
  191.3530  176.5890  137.9680 C   0  0  0  0  0  0  0  0  0  0  0  0
  193.5950  176.0150  137.3470 C   0  0  0  0  0  3  0  0  0  0  0  0
  190.8190  176.2070  136.6010 C   0  0  0  0  0  3  0  0  0  0  0  0
  188.1520  177.7850  139.4460 C   0  0  0  0  0  0  0  0  0  0  0  0
  190.4730  177.0940  138.9520 C   0  0  0  0  0  0  0  0  0  0  0  0
  192.3590  177.4010  140.4560 C   0  0  0  0  0  3  0  0  0  0  0  0
  190.1490  177.9060  141.2010 C   0  0  1  0  0  3  0  0  0  0  0  0
  188.4050  177.4680  141.1880 S   0  0  0  0  0  0  0  0  0  0  0  0
  193.2270  176.9170  139.4830 C   0  0  0  0  0  3  0  0  0  0  0  0
  186.8210  178.3030  138.9950 C   0  0  1  0  0  3  0  0  0  0  0  0
  186.4570  177.6960  137.7930 O   0  0  0  0  0  1  0  0  0  0  0  0
  185.7330  178.0720  140.0370 C   0  0  0  0  0  2  0  0  0  0  0  0
  183.6270  178.1510  138.3600 O   0  0  0  0  0  0  0  0  0  0  0  0
  184.1970  178.8510  139.5620 S   0  0  0  0  0  0  0  0  0  0  0  0
  184.4780  180.2880  139.2210 O   0  0  0  0  0  0  0  0  0  0  0  0
  183.0550  178.7720  140.8760 N   0  0  0  0  0  0  0  0  0  0  0  0
  183.5150  178.7560  142.2400 C   0  0  0  0  0  0  0  0  0  0  0  0
  182.7840  178.2750  143.1480 O   0  0  0  0  0  0  0  0  0  0  0  0
  180.7770  179.5380  141.3340 C   0  0  0  0  0  2  0  0  0  0  0  0
  181.6400  178.5390  140.5800 C   0  0  0  0  0  3  0  0  0  0  0  0
  181.0450  179.7420  139.8640 C   0  0  0  0  0  2  0  0  0  0  0  0
  184.8280  179.3610  142.6200 C   0  0  0  0  0  2  0  0  0  0  0  0
  185.3070  178.7890  143.9110 C   0  0  0  0  0  0  0  0  0  0  0  0
  185.3070  178.7880  146.3350 C   0  0  0  0  0  3  0  0  0  0  0  0
  186.7320  177.2490  145.1250 C   0  0  0  0  0  3  0  0  0  0  0  0
  186.2560  177.7600  146.3360 C   0  0  0  0  0  3  0  0  0  0  0  0
  186.2600  177.7640  143.9140 C   0  0  0  0  0  3  0  0  0  0  0  0
  184.8330  179.3030  145.1240 C   0  0  0  0  0  3  0  0  0  0  0  0
  190.6650  178.5600  142.4490 C   0  0  0  0  0  2  0  0  0  0  0  0
  191.6400  176.0240  144.9800 C   0  0  0  0  0  2  0  0  0  0  0  0
  191.2890  176.8220  146.2340 C   0  0  1  0  0  3  0  0  0  0  0  0
  190.2350  178.5240  144.7480 C   0  0  0  0  0  2  0  0  0  0  0  0
  191.7530  176.9710  143.7870 C   0  0  0  0  0  2  0  0  0  0  0  0
  190.4850  177.6720  143.5860 N   0  0  0  0  0  0  0  0  0  0  0  0
  190.0370  177.6620  145.9930 C   0  0  0  0  0  2  0  0  0  0  0  0
  192.3570  175.6430  147.9400 C   0  0  0  0  0  1  0  0  0  0  0  0
  191.0600  175.9140  147.3430 N   0  0  0  0  0  2  0  0  0  0  0  0
  1  8  1  0  0  0  0
  2 12  1  0  0  0  0
  2 13  1  0  0  0  0
  3 11  1  0  0  0  0
  3 10  2  0  0  0  0
  4 15  1  0  0  0  0
  5  1  2  0  0  0  0
  5  9  1  0  0  0  0
  6  1  1  0  0  0  0
  7  4  1  0  0  0  0
  7 11  1  0  0  0  0
  8  4  2  0  0  0  0
  9  7  2  0  0  0  0
 10 14  1  0  0  0  0
 11  2  2  0  0  0  0
 13 35  1  1  0  0  0
 14 13  1  0  0  0  0
 15 12  2  0  0  0  0
 16 17  1  6  0  0  0
 16 10  1  0  0  0  0
 16 18  1  0  0  0  0
 19 20  2  0  0  0  0
 20 18  1  0  0  0  0
 20 22  1  0  0  0  0
 21 20  2  0  0  0  0
 22 23  1  0  0  0  0
 23 28  1  0  0  0  0
 23 24  2  0  0  0  0
 26 22  1  0  0  0  0
 26 25  1  0  0  0  0
 27 26  1  0  0  0  0
 27 25  1  0  0  0  0
 28 29  1  0  0  0  0
 29 33  2  0  0  0  0
 29 34  1  0  0  0  0
 30 32  1  0  0  0  0
 31 32  2  0  0  0  0
 33 31  1  0  0  0  0
 34 30  2  0  0  0  0
 35 40  1  0  0  0  0
 36 37  1  0  0  0  0
 37 43  1  1  0  0  0
 38 41  1  0  0  0  0
 39 36  1  0  0  0  0
 40 39  1  0  0  0  0
 40 38  1  0  0  0  0
 41 37  1  0  0  0  0
 43 42  1  0  0  0  0
M  END
>  <MODEL>
3

>  <REMARK>
 VINA RESULT:      -8.9      2.888      6.875
  Name = 
  10 active torsions:
  status: ('A' for Active; 'I' for Inactive)
    1  A    between atoms: C_1  and  C_34
    2  A    between atoms: C_1  and  N_35
    3  A    between atoms: C_2  and  C_6
    4  A    between atoms: C_2  and  C_27
    5  A    between atoms: N_4  and  S_12
    6  A    between atoms: N_4  and  C_15
    7  A    between atoms: C_6  and  S_12
    8  A    between atoms: C_11  and  C_14
    9  A    between atoms: C_14  and  C_22
   10  A    between atoms: C_19  and  N_37
                            x       y       z     vdW  Elec       q    Type
                         _______ _______ _______ _____ _____    ______ ____

>  <TORSDO>
F 10

$$$$
=
 OpenBabel10272414353D

 43 48  0  0  1  0  0  0  0  0999 V2000
  191.6400  176.2390  147.1580 C   0  0  0  0  0  0  0  0  0  0  0  0
  187.4470  177.9490  144.8100 C   0  0  0  0  0  0  0  0  0  0  0  0
  189.0980  177.7040  142.9320 C   0  0  0  0  0  3  0  0  0  0  0  0
  189.4260  177.1600  146.6580 C   0  0  0  0  0  0  0  0  0  0  0  0
  191.9740  176.1600  145.8700 C   0  0  0  0  0  3  0  0  0  0  0  0
  192.5950  175.7710  148.1970 C   0  0  0  0  0  1  0  0  0  0  0  0
  189.6970  177.0910  145.2710 C   0  0  0  0  0  0  0  0  0  0  0  0
  190.3300  176.7710  147.5600 C   0  0  0  0  0  3  0  0  0  0  0  0
  191.0550  176.6310  144.7750 C   0  0  0  0  0  3  0  0  0  0  0  0
  188.2080  177.9290  141.9640 C   0  0  0  0  0  0  0  0  0  0  0  0
  188.7130  177.5040  144.3450 C   0  0  0  0  0  0  0  0  0  0  0  0
  187.2290  178.0480  146.1940 C   0  0  0  0  0  3  0  0  0  0  0  0
  186.4720  178.3040  143.9460 C   0  0  1  0  0  3  0  0  0  0  0  0
  186.4640  177.6680  142.2640 S   0  0  0  0  0  0  0  0  0  0  0  0
  188.2030  177.6540  147.1060 C   0  0  0  0  0  3  0  0  0  0  0  0
  188.6540  178.2840  140.5790 C   0  0  1  0  0  3  0  0  0  0  0  0
  190.0370  178.1410  140.4740 O   0  0  0  0  0  1  0  0  0  0  0  0
  187.9690  177.4280  139.5200 C   0  0  0  0  0  2  0  0  0  0  0  0
  188.8490  179.4270  137.9450 O   0  0  0  0  0  0  0  0  0  0  0  0
  187.8810  178.2770  137.9500 S   0  0  0  0  0  0  0  0  0  0  0  0
  186.4820  178.7960  137.7670 O   0  0  0  0  0  0  0  0  0  0  0  0
  188.2740  177.1810  136.6540 N   0  0  0  0  0  0  0  0  0  0  0  0
  189.6460  176.8500  136.3710 C   0  0  0  0  0  0  0  0  0  0  0  0
  189.9740  176.4380  135.2250 O   0  0  0  0  0  0  0  0  0  0  0  0
  187.3320  175.2500  135.4810 C   0  0  0  0  0  2  0  0  0  0  0  0
  187.2150  176.7440  135.7410 C   0  0  0  0  0  3  0  0  0  0  0  0
  186.2870  175.7620  136.4410 C   0  0  0  0  0  2  0  0  0  0  0  0
  190.6930  176.9230  137.4350 C   0  0  0  0  0  2  0  0  0  0  0  0
  191.7580  175.9100  137.1830 C   0  0  0  0  0  0  0  0  0  0  0  0
  192.4520  173.5950  136.9910 C   0  0  0  0  0  3  0  0  0  0  0  0
  194.0850  175.3700  136.7660 C   0  0  0  0  0  3  0  0  0  0  0  0
  193.7710  174.0080  136.7750 C   0  0  0  0  0  3  0  0  0  0  0  0
  193.0800  176.3200  136.9720 C   0  0  0  0  0  3  0  0  0  0  0  0
  191.4460  174.5450  137.1960 C   0  0  0  0  0  3  0  0  0  0  0  0
  185.2370  179.0300  144.3920 C   0  0  0  0  0  2  0  0  0  0  0  0
  181.6280  178.3900  143.7970 C   0  0  0  0  0  2  0  0  0  0  0  0
  181.5390  178.9520  142.3790 C   0  0  1  0  0  3  0  0  0  0  0  0
  184.0230  179.1490  142.3950 C   0  0  0  0  0  2  0  0  0  0  0  0
  182.8960  178.9090  144.4710 C   0  0  0  0  0  2  0  0  0  0  0  0
  184.0720  178.4980  143.7040 N   0  0  0  0  0  0  0  0  0  0  0  0
  182.8180  178.6420  141.6060 C   0  0  0  0  0  2  0  0  0  0  0  0
  179.9820  179.3210  140.6810 C   0  0  0  0  0  1  0  0  0  0  0  0
  180.4010  178.3660  141.6930 N   0  0  0  0  0  2  0  0  0  0  0  0
  1  8  1  0  0  0  0
  1  6  1  0  0  0  0
  2 12  1  0  0  0  0
  3 11  1  0  0  0  0
  4 15  1  0  0  0  0
  4  8  2  0  0  0  0
  5  1  2  0  0  0  0
  7  4  1  0  0  0  0
  9  7  2  0  0  0  0
  9  5  1  0  0  0  0
 10 14  1  0  0  0  0
 10  3  2  0  0  0  0
 11  2  2  0  0  0  0
 11  7  1  0  0  0  0
 12 15  2  0  0  0  0
 13 35  1  1  0  0  0
 13  2  1  0  0  0  0
 14 13  1  0  0  0  0
 16 17  1  1  0  0  0
 16 10  1  0  0  0  0
 18 16  1  0  0  0  0
 19 20  2  0  0  0  0
 20 18  1  0  0  0  0
 21 20  2  0  0  0  0
 22 20  1  0  0  0  0
 23 22  1  0  0  0  0
 23 28  1  0  0  0  0
 24 23  2  0  0  0  0
 25 26  1  0  0  0  0
 25 27  1  0  0  0  0
 26 27  1  0  0  0  0
 26 22  1  0  0  0  0
 29 34  1  0  0  0  0
 29 28  1  0  0  0  0
 30 34  2  0  0  0  0
 31 32  2  0  0  0  0
 31 33  1  0  0  0  0
 32 30  1  0  0  0  0
 33 29  2  0  0  0  0
 36 39  1  0  0  0  0
 37 43  1  6  0  0  0
 37 36  1  0  0  0  0
 38 40  1  0  0  0  0
 40 35  1  0  0  0  0
 40 39  1  0  0  0  0
 41 37  1  0  0  0  0
 41 38  1  0  0  0  0
 42 43  1  0  0  0  0
M  END
>  <MODEL>
4

>  <REMARK>
 VINA RESULT:      -8.8      2.546      8.780
  Name = 
  10 active torsions:
  status: ('A' for Active; 'I' for Inactive)
    1  A    between atoms: C_1  and  C_34
    2  A    between atoms: C_1  and  N_35
    3  A    between atoms: C_2  and  C_6
    4  A    between atoms: C_2  and  C_27
    5  A    between atoms: N_4  and  S_12
    6  A    between atoms: N_4  and  C_15
    7  A    between atoms: C_6  and  S_12
    8  A    between atoms: C_11  and  C_14
    9  A    between atoms: C_14  and  C_22
   10  A    between atoms: C_19  and  N_37
                            x       y       z     vdW  Elec       q    Type
                         _______ _______ _______ _____ _____    ______ ____

>  <TORSDO>
F 10

$$$$
=
 OpenBabel10272414353D

 43 48  0  0  1  0  0  0  0  0999 V2000
  190.9150  177.9360  143.2640 C   0  0  0  0  0  0  0  0  0  0  0  0
  190.0620  177.1930  138.2900 C   0  0  0  0  0  0  0  0  0  0  0  0
  187.8140  177.9030  139.1590 C   0  0  0  0  0  3  0  0  0  0  0  0
  191.1130  177.3080  140.9040 C   0  0  0  0  0  0  0  0  0  0  0  0
  189.6670  178.3760  143.1130 C   0  0  0  0  0  3  0  0  0  0  0  0
  191.5750  178.0310  144.5930 C   0  0  0  0  0  1  0  0  0  0  0  0
  189.7990  177.7700  140.6590 C   0  0  0  0  0  0  0  0  0  0  0  0
  191.6520  177.3700  142.1240 C   0  0  0  0  0  3  0  0  0  0  0  0
  188.9420  178.2920  141.7970 C   0  0  0  0  0  3  0  0  0  0  0  0
  187.2530  178.0160  137.9540 C   0  0  0  0  0  0  0  0  0  0  0  0
  189.2650  177.6960  139.3530 C   0  0  0  0  0  0  0  0  0  0  0  0
  191.3450  176.7000  138.5790 C   0  0  0  0  0  3  0  0  0  0  0  0
  189.5930  177.1550  137.0250 C   0  0  1  0  0  3  0  0  0  0  0  0
  188.2720  178.2590  136.5050 S   0  0  0  0  0  0  0  0  0  0  0  0
  191.8660  176.7620  139.8670 C   0  0  0  0  0  3  0  0  0  0  0  0
  185.7640  178.0650  137.8030 C   0  0  1  0  0  3  0  0  0  0  0  0
  185.3290  176.9890  137.0290 O   0  0  0  0  0  1  0  0  0  0  0  0
  185.0500  178.0500  139.1500 C   0  0  0  0  0  2  0  0  0  0  0  0
  182.7640  178.8250  137.9550 O   0  0  0  0  0  0  0  0  0  0  0  0
  183.6270  179.1310  139.1470 S   0  0  0  0  0  0  0  0  0  0  0  0
  184.1090  180.5530  139.0670 O   0  0  0  0  0  0  0  0  0  0  0  0
  182.7030  178.9060  140.6070 N   0  0  0  0  0  0  0  0  0  0  0  0
  183.3690  178.6940  141.8660 C   0  0  0  0  0  0  0  0  0  0  0  0
  182.7670  178.1150  142.8100 O   0  0  0  0  0  0  0  0  0  0  0  0
  180.5650  179.6160  141.5640 C   0  0  0  0  0  2  0  0  0  0  0  0
  181.2490  178.7510  140.5160 C   0  0  0  0  0  3  0  0  0  0  0  0
  180.6010  180.0720  140.1270 C   0  0  0  0  0  2  0  0  0  0  0  0
  184.7530  179.2080  142.1030 C   0  0  0  0  0  2  0  0  0  0  0  0
  185.2430  178.7730  143.4410 C   0  0  0  0  0  0  0  0  0  0  0  0
  185.3680  179.1000  145.8410 C   0  0  0  0  0  3  0  0  0  0  0  0
  186.5840  177.2800  144.8030 C   0  0  0  0  0  3  0  0  0  0  0  0
  186.2190  177.9950  145.9480 C   0  0  0  0  0  3  0  0  0  0  0  0
  186.0990  177.6700  143.5510 C   0  0  0  0  0  3  0  0  0  0  0  0
  184.8810  179.4890  144.5880 C   0  0  0  0  0  3  0  0  0  0  0  0
  190.2890  176.3880  135.9390 C   0  0  0  0  0  2  0  0  0  0  0  0
  189.5770  173.1090  134.3480 C   0  0  0  0  0  2  0  0  0  0  0  0
  189.0420  172.3810  135.5810 C   0  0  1  0  0  3  0  0  0  0  0  0
  189.0880  174.5650  136.7810 C   0  0  0  0  0  2  0  0  0  0  0  0
  190.3570  174.3460  134.7860 C   0  0  0  0  0  2  0  0  0  0  0  0
  189.4850  175.2420  135.5470 N   0  0  0  0  0  0  0  0  0  0  0  0
  188.2360  173.3410  136.4530 C   0  0  0  0  0  2  0  0  0  0  0  0
  186.8460  171.5940  135.5890 C   0  0  0  0  0  1  0  0  0  0  0  0
  188.1990  171.2750  135.1660 N   0  0  0  0  0  2  0  0  0  0  0  0
  1  6  1  0  0  0  0
  2 12  2  0  0  0  0
  2 11  1  0  0  0  0
  3 11  1  0  0  0  0
  4  8  1  0  0  0  0
  5  1  1  0  0  0  0
  7  4  1  0  0  0  0
  7  9  1  0  0  0  0
  8  1  2  0  0  0  0
  9  5  2  0  0  0  0
 10  3  2  0  0  0  0
 11  7  2  0  0  0  0
 12 15  1  0  0  0  0
 13 35  1  6  0  0  0
 13  2  1  0  0  0  0
 14 13  1  0  0  0  0
 14 10  1  0  0  0  0
 15  4  2  0  0  0  0
 16 17  1  6  0  0  0
 16 10  1  0  0  0  0
 16 18  1  0  0  0  0
 19 20  2  0  0  0  0
 20 18  1  0  0  0  0
 20 22  1  0  0  0  0
 21 20  2  0  0  0  0
 22 23  1  0  0  0  0
 23 28  1  0  0  0  0
 23 24  2  0  0  0  0
 26 22  1  0  0  0  0
 26 25  1  0  0  0  0
 27 26  1  0  0  0  0
 27 25  1  0  0  0  0
 28 29  1  0  0  0  0
 29 33  2  0  0  0  0
 29 34  1  0  0  0  0
 30 32  1  0  0  0  0
 31 32  2  0  0  0  0
 33 31  1  0  0  0  0
 34 30  2  0  0  0  0
 36 39  1  0  0  0  0
 36 37  1  0  0  0  0
 37 43  1  6  0  0  0
 37 41  1  0  0  0  0
 39 40  1  0  0  0  0
 40 35  1  0  0  0  0
 40 38  1  0  0  0  0
 41 38  1  0  0  0  0
 43 42  1  0  0  0  0
M  END
>  <MODEL>
5

>  <REMARK>
 VINA RESULT:      -8.8      3.611      6.435
  Name = 
  10 active torsions:
  status: ('A' for Active; 'I' for Inactive)
    1  A    between atoms: C_1  and  C_34
    2  A    between atoms: C_1  and  N_35
    3  A    between atoms: C_2  and  C_6
    4  A    between atoms: C_2  and  C_27
    5  A    between atoms: N_4  and  S_12
    6  A    between atoms: N_4  and  C_15
    7  A    between atoms: C_6  and  S_12
    8  A    between atoms: C_11  and  C_14
    9  A    between atoms: C_14  and  C_22
   10  A    between atoms: C_19  and  N_37
                            x       y       z     vdW  Elec       q    Type
                         _______ _______ _______ _____ _____    ______ ____

>  <TORSDO>
F 10

$$$$
=
 OpenBabel10272414353D

 43 48  0  0  1  0  0  0  0  0999 V2000
  187.8130  177.9370  147.5400 C   0  0  0  0  0  0  0  0  0  0  0  0
  187.9070  177.8340  142.4410 C   0  0  0  0  0  0  0  0  0  0  0  0
  185.4530  177.9440  142.9680 C   0  0  0  0  0  3  0  0  0  0  0  0
  188.4990  177.7400  145.1960 C   0  0  0  0  0  0  0  0  0  0  0  0
  186.5360  178.1410  147.2200 C   0  0  0  0  0  3  0  0  0  0  0  0
  188.2260  177.9490  148.9680 C   0  0  0  0  0  1  0  0  0  0  0  0
  187.1690  177.9690  144.7750 C   0  0  0  0  0  0  0  0  0  0  0  0
  188.8200  177.7140  146.4920 C   0  0  0  0  0  3  0  0  0  0  0  0
  186.0550  178.1260  145.7940 C   0  0  0  0  0  3  0  0  0  0  0  0
  185.0710  178.1330  141.7050 C   0  0  0  0  0  0  0  0  0  0  0  0
  186.8680  177.9970  143.3950 C   0  0  0  0  0  0  0  0  0  0  0  0
  189.2090  177.5640  142.8950 C   0  0  0  0  0  3  0  0  0  0  0  0
  187.6560  177.9050  141.1160 C   0  0  1  0  0  3  0  0  0  0  0  0
  186.2190  178.7960  140.5040 S   0  0  0  0  0  0  0  0  0  0  0  0
  189.5020  177.5220  144.2540 C   0  0  0  0  0  3  0  0  0  0  0  0
  183.6470  177.9130  141.2930 C   0  0  1  0  0  3  0  0  0  0  0  0
  182.8120  178.7950  141.9780 O   0  0  0  0  0  1  0  0  0  0  0  0
  183.4520  178.0850  139.7910 C   0  0  0  0  0  2  0  0  0  0  0  0
  180.7950  177.9070  139.3900 O   0  0  0  0  0  0  0  0  0  0  0  0
  182.0650  177.1270  139.1980 S   0  0  0  0  0  0  0  0  0  0  0  0
  181.9960  175.8490  139.9890 O   0  0  0  0  0  0  0  0  0  0  0  0
  182.2710  176.7590  137.5080 N   0  0  0  0  0  0  0  0  0  0  0  0
  183.3620  175.9270  137.0700 C   0  0  0  0  0  0  0  0  0  0  0  0
  183.7790  176.0030  135.8830 O   0  0  0  0  0  0  0  0  0  0  0  0
  181.0290  176.4840  135.4170 C   0  0  0  0  0  2  0  0  0  0  0  0
  181.4390  177.4480  136.5190 C   0  0  0  0  0  3  0  0  0  0  0  0
  180.0400  176.8490  136.4970 C   0  0  0  0  0  2  0  0  0  0  0  0
  183.9770  174.9170  137.9850 C   0  0  0  0  0  2  0  0  0  0  0  0
  184.2540  173.6520  137.2470 C   0  0  0  0  0  0  0  0  0  0  0  0
  183.4970  171.5200  136.3760 C   0  0  0  0  0  3  0  0  0  0  0  0
  185.8150  172.1740  136.1270 C   0  0  0  0  0  3  0  0  0  0  0  0
  184.7900  171.2460  135.9180 C   0  0  0  0  0  3  0  0  0  0  0  0
  185.5480  173.3740  136.7920 C   0  0  0  0  0  3  0  0  0  0  0  0
  183.2290  172.7210  137.0410 C   0  0  0  0  0  3  0  0  0  0  0  0
  188.6600  177.4700  140.0890 C   0  0  0  0  0  2  0  0  0  0  0  0
  188.4970  178.8340  136.6390 C   0  0  0  0  0  2  0  0  0  0  0  0
  188.4590  177.5070  135.8830 C   0  0  1  0  0  3  0  0  0  0  0  0
  188.1970  176.3630  138.0820 C   0  0  0  0  0  2  0  0  0  0  0  0
  189.0020  178.5960  138.0610 C   0  0  0  0  0  2  0  0  0  0  0  0
  188.1180  177.6590  138.7540 N   0  0  0  0  0  0  0  0  0  0  0  0
  187.6450  176.4770  136.6620 C   0  0  0  0  0  2  0  0  0  0  0  0
  186.9280  176.6180  134.3630 C   0  0  0  0  0  1  0  0  0  0  0  0
  187.8650  177.7080  134.5740 N   0  0  0  0  0  2  0  0  0  0  0  0
  1  6  1  0  0  0  0
  2 12  2  0  0  0  0
  2 11  1  0  0  0  0
  3 11  1  0  0  0  0
  4  8  1  0  0  0  0
  5  1  1  0  0  0  0
  7  4  1  0  0  0  0
  7  9  1  0  0  0  0
  8  1  2  0  0  0  0
  9  5  2  0  0  0  0
 10  3  2  0  0  0  0
 11  7  2  0  0  0  0
 12 15  1  0  0  0  0
 13 35  1  6  0  0  0
 13  2  1  0  0  0  0
 14 13  1  0  0  0  0
 14 10  1  0  0  0  0
 15  4  2  0  0  0  0
 16 10  1  0  0  0  0
 16 17  1  1  0  0  0
 18 16  1  0  0  0  0
 20 19  2  0  0  0  0
 20 18  1  0  0  0  0
 20 21  2  0  0  0  0
 22 20  1  0  0  0  0
 23 22  1  0  0  0  0
 23 28  1  0  0  0  0
 24 23  2  0  0  0  0
 25 27  1  0  0  0  0
 25 26  1  0  0  0  0
 26 22  1  0  0  0  0
 27 26  1  0  0  0  0
 29 28  1  0  0  0  0
 30 34  2  0  0  0  0
 31 33  1  0  0  0  0
 32 31  2  0  0  0  0
 32 30  1  0  0  0  0
 33 29  2  0  0  0  0
 34 29  1  0  0  0  0
 36 39  1  0  0  0  0
 37 43  1  6  0  0  0
 37 36  1  0  0  0  0
 37 41  1  0  0  0  0
 38 40  1  0  0  0  0
 39 40  1  0  0  0  0
 40 35  1  0  0  0  0
 41 38  1  0  0  0  0
 42 43  1  0  0  0  0
M  END
>  <MODEL>
6

>  <REMARK>
 VINA RESULT:      -8.6      4.000      9.245
  Name = 
  10 active torsions:
  status: ('A' for Active; 'I' for Inactive)
    1  A    between atoms: C_1  and  C_34
    2  A    between atoms: C_1  and  N_35
    3  A    between atoms: C_2  and  C_6
    4  A    between atoms: C_2  and  C_27
    5  A    between atoms: N_4  and  S_12
    6  A    between atoms: N_4  and  C_15
    7  A    between atoms: C_6  and  S_12
    8  A    between atoms: C_11  and  C_14
    9  A    between atoms: C_14  and  C_22
   10  A    between atoms: C_19  and  N_37
                            x       y       z     vdW  Elec       q    Type
                         _______ _______ _______ _____ _____    ______ ____

>  <TORSDO>
F 10

$$$$
=
 OpenBabel10272414353D

 43 48  0  0  1  0  0  0  0  0999 V2000
  191.6860  176.2440  147.2170 C   0  0  0  0  0  0  0  0  0  0  0  0
  187.4380  177.9610  144.9730 C   0  0  0  0  0  0  0  0  0  0  0  0
  189.0340  177.6900  143.0520 C   0  0  0  0  0  3  0  0  0  0  0  0
  189.4630  177.1750  146.7710 C   0  0  0  0  0  0  0  0  0  0  0  0
  191.9820  176.1520  145.9210 C   0  0  0  0  0  3  0  0  0  0  0  0
  192.6660  175.7790  148.2320 C   0  0  0  0  0  1  0  0  0  0  0  0
  189.6950  177.0920  145.3780 C   0  0  0  0  0  0  0  0  0  0  0  0
  190.3900  176.7880  147.6510 C   0  0  0  0  0  3  0  0  0  0  0  0
  191.0360  176.6190  144.8480 C   0  0  0  0  0  3  0  0  0  0  0  0
  188.1180  177.9120  142.1080 C   0  0  0  0  0  0  0  0  0  0  0  0
  188.6880  177.5040  144.4770 C   0  0  0  0  0  0  0  0  0  0  0  0
  187.2600  178.0740  146.3620 C   0  0  0  0  0  3  0  0  0  0  0  0
  186.4410  178.3150  144.1340 C   0  0  1  0  0  3  0  0  0  0  0  0
  186.3820  177.6640  142.4590 S   0  0  0  0  0  0  0  0  0  0  0  0
  188.2570  177.6810  147.2490 C   0  0  0  0  0  3  0  0  0  0  0  0
  188.5270  178.2520  140.7070 C   0  0  1  0  0  3  0  0  0  0  0  0
  189.5510  177.4000  140.2910 O   0  0  0  0  0  1  0  0  0  0  0  0
  187.3590  178.1640  139.7320 C   0  0  0  0  0  2  0  0  0  0  0  0
  189.3330  178.7300  137.9900 O   0  0  0  0  0  0  0  0  0  0  0  0
  187.9180  178.2250  138.0360 S   0  0  0  0  0  0  0  0  0  0  0  0
  187.0240  179.1620  137.2730 O   0  0  0  0  0  0  0  0  0  0  0  0
  187.8450  176.6360  137.3240 N   0  0  0  0  0  0  0  0  0  0  0  0
  186.5770  176.0510  136.9760 C   0  0  0  0  0  0  0  0  0  0  0  0
  186.4610  174.8000  136.8800 O   0  0  0  0  0  0  0  0  0  0  0  0
  189.1040  175.0540  135.9450 C   0  0  0  0  0  2  0  0  0  0  0  0
  189.0640  175.8260  137.2540 C   0  0  0  0  0  3  0  0  0  0  0  0
  189.9440  176.2970  136.1050 C   0  0  0  0  0  2  0  0  0  0  0  0
  185.3940  176.9090  136.6560 C   0  0  0  0  0  2  0  0  0  0  0  0
  184.1730  176.3730  137.3220 C   0  0  0  0  0  0  0  0  0  0  0  0
  182.6110  176.3940  139.1770 C   0  0  0  0  0  3  0  0  0  0  0  0
  182.3510  174.7740  137.3950 C   0  0  0  0  0  3  0  0  0  0  0  0
  181.9170  175.3220  138.6060 C   0  0  0  0  0  3  0  0  0  0  0  0
  183.4790  175.2980  136.7560 C   0  0  0  0  0  3  0  0  0  0  0  0
  183.7390  176.9180  138.5370 C   0  0  0  0  0  3  0  0  0  0  0  0
  185.2240  179.0530  144.6080 C   0  0  0  0  0  2  0  0  0  0  0  0
  181.6020  178.4140  144.0960 C   0  0  0  0  0  2  0  0  0  0  0  0
  181.4630  179.0480  142.7130 C   0  0  1  0  0  3  0  0  0  0  0  0
  183.9460  179.2650  142.6600 C   0  0  0  0  0  2  0  0  0  0  0  0
  182.8880  178.9080  144.7560 C   0  0  0  0  0  2  0  0  0  0  0  0
  184.0410  178.5470  143.9310 N   0  0  0  0  0  0  0  0  0  0  0  0
  182.7200  178.7900  141.8840 C   0  0  0  0  0  2  0  0  0  0  0  0
  180.3050  179.0360  140.6870 C   0  0  0  0  0  1  0  0  0  0  0  0
  180.3090  178.4890  142.0330 N   0  0  0  0  0  2  0  0  0  0  0  0
  1  8  1  0  0  0  0
  1  6  1  0  0  0  0
  2 12  1  0  0  0  0
  3 11  1  0  0  0  0
  4 15  1  0  0  0  0
  4  8  2  0  0  0  0
  5  1  2  0  0  0  0
  7  4  1  0  0  0  0
  9  7  2  0  0  0  0
  9  5  1  0  0  0  0
 10 14  1  0  0  0  0
 10  3  2  0  0  0  0
 11  2  2  0  0  0  0
 11  7  1  0  0  0  0
 12 15  2  0  0  0  0
 13 35  1  1  0  0  0
 13  2  1  0  0  0  0
 14 13  1  0  0  0  0
 16 17  1  6  0  0  0
 16 10  1  0  0  0  0
 18 16  1  0  0  0  0
 19 20  2  0  0  0  0
 20 18  1  0  0  0  0
 21 20  2  0  0  0  0
 22 20  1  0  0  0  0
 23 22  1  0  0  0  0
 24 23  2  0  0  0  0
 25 27  1  0  0  0  0
 25 26  1  0  0  0  0
 26 22  1  0  0  0  0
 27 26  1  0  0  0  0
 28 23  1  0  0  0  0
 28 29  1  0  0  0  0
 29 34  1  0  0  0  0
 31 32  2  0  0  0  0
 32 30  1  0  0  0  0
 33 29  2  0  0  0  0
 33 31  1  0  0  0  0
 34 30  2  0  0  0  0
 36 39  1  0  0  0  0
 37 43  1  6  0  0  0
 37 36  1  0  0  0  0
 38 40  1  0  0  0  0
 40 35  1  0  0  0  0
 40 39  1  0  0  0  0
 41 38  1  0  0  0  0
 41 37  1  0  0  0  0
 42 43  1  0  0  0  0
M  END
>  <MODEL>
7

>  <REMARK>
 VINA RESULT:      -8.5      2.810      8.131
  Name = 
  10 active torsions:
  status: ('A' for Active; 'I' for Inactive)
    1  A    between atoms: C_1  and  C_34
    2  A    between atoms: C_1  and  N_35
    3  A    between atoms: C_2  and  C_6
    4  A    between atoms: C_2  and  C_27
    5  A    between atoms: N_4  and  S_12
    6  A    between atoms: N_4  and  C_15
    7  A    between atoms: C_6  and  S_12
    8  A    between atoms: C_11  and  C_14
    9  A    between atoms: C_14  and  C_22
   10  A    between atoms: C_19  and  N_37
                            x       y       z     vdW  Elec       q    Type
                         _______ _______ _______ _____ _____    ______ ____

>  <TORSDO>
F 10

$$$$
=
 OpenBabel10272414353D

 43 48  0  0  1  0  0  0  0  0999 V2000
  190.8850  176.7110  146.6390 C   0  0  0  0  0  0  0  0  0  0  0  0
  189.2590  177.4080  141.8540 C   0  0  0  0  0  0  0  0  0  0  0  0
  187.1600  177.6430  143.2150 C   0  0  0  0  0  3  0  0  0  0  0  0
  190.7180  176.8290  144.1970 C   0  0  0  0  0  0  0  0  0  0  0  0
  189.6140  177.0720  146.8120 C   0  0  0  0  0  3  0  0  0  0  0  0
  191.7490  176.4620  147.8230 C   0  0  0  0  0  1  0  0  0  0  0  0
  189.3660  177.2340  144.2980 C   0  0  0  0  0  0  0  0  0  0  0  0
  191.4450  176.5710  145.2870 C   0  0  0  0  0  3  0  0  0  0  0  0
  188.6880  177.3240  145.6530 C   0  0  0  0  0  3  0  0  0  0  0  0
  186.4070  178.0620  142.1970 C   0  0  0  0  0  0  0  0  0  0  0  0
  188.6290  177.5070  143.1240 C   0  0  0  0  0  0  0  0  0  0  0  0
  190.5880  176.9580  141.7890 C   0  0  0  0  0  3  0  0  0  0  0  0
  188.5920  177.7080  140.7190 C   0  0  1  0  0  3  0  0  0  0  0  0
  187.1670  178.8050  140.7590 S   0  0  0  0  0  0  0  0  0  0  0  0
  191.3090  176.6780  142.9450 C   0  0  0  0  0  3  0  0  0  0  0  0
  184.9120  178.0320  142.2850 C   0  0  1  0  0  3  0  0  0  0  0  0
  184.4970  178.5720  143.5020 O   0  0  0  0  0  1  0  0  0  0  0  0
  184.2550  178.7900  141.1370 C   0  0  0  0  0  2  0  0  0  0  0  0
  181.6250  178.3420  141.5040 O   0  0  0  0  0  0  0  0  0  0  0  0
  182.7610  177.9790  140.5890 S   0  0  0  0  0  0  0  0  0  0  0  0
  182.9830  176.4920  140.6290 O   0  0  0  0  0  0  0  0  0  0  0  0
  182.3760  178.4700  138.9620 N   0  0  0  0  0  0  0  0  0  0  0  0
  181.9630  177.4960  137.9850 C   0  0  0  0  0  0  0  0  0  0  0  0
  182.1020  177.7350  136.7560 O   0  0  0  0  0  0  0  0  0  0  0  0
  181.4960  180.3840  137.7160 C   0  0  0  0  0  2  0  0  0  0  0  0
  182.6520  179.8470  138.5460 C   0  0  0  0  0  3  0  0  0  0  0  0
  181.6340  180.7980  139.1600 C   0  0  0  0  0  2  0  0  0  0  0  0
  181.3060  176.2190  138.3990 C   0  0  0  0  0  2  0  0  0  0  0  0
  182.0110  175.0540  137.7930 C   0  0  0  0  0  0  0  0  0  0  0  0
  184.0690  173.8720  137.2940 C   0  0  0  0  0  3  0  0  0  0  0  0
  181.9520  173.0070  136.4950 C   0  0  0  0  0  3  0  0  0  0  0  0
  183.3430  172.9010  136.5960 C   0  0  0  0  0  3  0  0  0  0  0  0
  181.2880  174.0830  137.0910 C   0  0  0  0  0  3  0  0  0  0  0  0
  183.4040  174.9490  137.8910 C   0  0  0  0  0  3  0  0  0  0  0  0
  189.1280  177.3570  139.3630 C   0  0  0  0  0  2  0  0  0  0  0  0
  187.7200  178.7550  136.2240 C   0  0  0  0  0  2  0  0  0  0  0  0
  187.2640  177.4440  135.5870 C   0  0  1  0  0  3  0  0  0  0  0  0
  187.8020  176.3130  137.7420 C   0  0  0  0  0  2  0  0  0  0  0  0
  188.7280  178.4600  137.3320 C   0  0  0  0  0  2  0  0  0  0  0  0
  188.1150  177.6060  138.3490 N   0  0  0  0  0  0  0  0  0  0  0  0
  186.7410  176.4890  136.6590 C   0  0  0  0  0  2  0  0  0  0  0  0
  185.1390  176.7740  134.8950 C   0  0  0  0  0  1  0  0  0  0  0  0
  186.2160  177.7090  134.6190 N   0  0  0  0  0  2  0  0  0  0  0  0
  1  5  1  0  0  0  0
  1  6  1  0  0  0  0
  2 11  1  0  0  0  0
  4  7  1  0  0  0  0
  4  8  1  0  0  0  0
  7  9  1  0  0  0  0
  8  1  2  0  0  0  0
  9  5  2  0  0  0  0
 10 16  1  0  0  0  0
 10  3  2  0  0  0  0
 11  3  1  0  0  0  0
 11  7  2  0  0  0  0
 12  2  2  0  0  0  0
 12 15  1  0  0  0  0
 13 35  1  6  0  0  0
 13 14  1  0  0  0  0
 13  2  1  0  0  0  0
 14 10  1  0  0  0  0
 15  4  2  0  0  0  0
 16 17  1  1  0  0  0
 18 16  1  0  0  0  0
 20 21  2  0  0  0  0
 20 18  1  0  0  0  0
 20 19  2  0  0  0  0
 22 20  1  0  0  0  0
 23 28  1  0  0  0  0
 23 22  1  0  0  0  0
 24 23  2  0  0  0  0
 25 26  1  0  0  0  0
 25 27  1  0  0  0  0
 26 22  1  0  0  0  0
 26 27  1  0  0  0  0
 29 34  1  0  0  0  0
 29 28  1  0  0  0  0
 30 34  2  0  0  0  0
 31 32  2  0  0  0  0
 31 33  1  0  0  0  0
 32 30  1  0  0  0  0
 33 29  2  0  0  0  0
 36 39  1  0  0  0  0
 37 43  1  6  0  0  0
 37 36  1  0  0  0  0
 37 41  1  0  0  0  0
 38 40  1  0  0  0  0
 39 40  1  0  0  0  0
 40 35  1  0  0  0  0
 41 38  1  0  0  0  0
 43 42  1  0  0  0  0
M  END
>  <MODEL>
8

>  <REMARK>
 VINA RESULT:      -8.4      3.733      8.118
  Name = 
  10 active torsions:
  status: ('A' for Active; 'I' for Inactive)
    1  A    between atoms: C_1  and  C_34
    2  A    between atoms: C_1  and  N_35
    3  A    between atoms: C_2  and  C_6
    4  A    between atoms: C_2  and  C_27
    5  A    between atoms: N_4  and  S_12
    6  A    between atoms: N_4  and  C_15
    7  A    between atoms: C_6  and  S_12
    8  A    between atoms: C_11  and  C_14
    9  A    between atoms: C_14  and  C_22
   10  A    between atoms: C_19  and  N_37
                            x       y       z     vdW  Elec       q    Type
                         _______ _______ _______ _____ _____    ______ ____

>  <TORSDO>
F 10

$$$$
=
 OpenBabel10272414353D

 43 48  0  0  1  0  0  0  0  0999 V2000
  186.7180  177.8760  145.1260 C   0  0  0  0  0  0  0  0  0  0  0  0
  184.4010  178.6730  140.6520 C   0  0  0  0  0  0  0  0  0  0  0  0
  186.7890  178.2500  139.9950 C   0  0  0  0  0  3  0  0  0  0  0  0
  185.1060  178.4540  143.3730 C   0  0  0  0  0  0  0  0  0  0  0  0
  187.6760  177.5910  144.2460 C   0  0  0  0  0  3  0  0  0  0  0  0
  186.9800  177.7130  146.5800 C   0  0  0  0  0  1  0  0  0  0  0  0
  186.0640  178.1530  142.3770 C   0  0  0  0  0  0  0  0  0  0  0  0
  185.3970  178.3380  144.6710 C   0  0  0  0  0  3  0  0  0  0  0  0
  187.4750  177.7500  142.7630 C   0  0  0  0  0  3  0  0  0  0  0  0
  186.5420  178.1960  138.6860 C   0  0  0  0  0  0  0  0  0  0  0  0
  185.7170  178.2810  141.0130 C   0  0  0  0  0  0  0  0  0  0  0  0
  183.4900  179.0080  141.6670 C   0  0  0  0  0  3  0  0  0  0  0  0
  184.0280  178.7570  139.3570 C   0  0  1  0  0  3  0  0  0  0  0  0
  184.8970  177.8180  138.0930 S   0  0  0  0  0  0  0  0  0  0  0  0
  183.8360  178.8950  143.0090 C   0  0  0  0  0  3  0  0  0  0  0  0
  187.6530  178.3270  137.6890 C   0  0  1  0  0  3  0  0  0  0  0  0
  187.5390  179.5380  137.0070 O   0  0  0  0  0  1  0  0  0  0  0  0
  189.0250  178.2360  138.3460 C   0  0  0  0  0  2  0  0  0  0  0  0
  190.1930  177.0750  136.2150 O   0  0  0  0  0  0  0  0  0  0  0  0
  189.9750  176.8730  137.6890 S   0  0  0  0  0  0  0  0  0  0  0  0
  189.2040  175.6020  137.9140 O   0  0  0  0  0  0  0  0  0  0  0  0
  191.5160  176.7740  138.4960 N   0  0  0  0  0  0  0  0  0  0  0  0
  191.6200  177.0500  139.9050 C   0  0  0  0  0  0  0  0  0  0  0  0
  192.7230  177.4050  140.4000 O   0  0  0  0  0  0  0  0  0  0  0  0
  193.6030  175.5090  138.3160 C   0  0  0  0  0  2  0  0  0  0  0  0
  192.7310  176.5900  137.6970 C   0  0  0  0  0  3  0  0  0  0  0  0
  192.7640  175.1900  137.1030 C   0  0  0  0  0  2  0  0  0  0  0  0
  190.4500  176.8590  140.8160 C   0  0  0  0  0  2  0  0  0  0  0  0
  190.8490  177.1190  142.2290 C   0  0  0  0  0  0  0  0  0  0  0  0
  191.4110  176.2950  144.4390 C   0  0  0  0  0  3  0  0  0  0  0  0
  191.3080  178.6800  144.0270 C   0  0  0  0  0  3  0  0  0  0  0  0
  191.5320  177.6100  144.9000 C   0  0  0  0  0  3  0  0  0  0  0  0
  190.9650  178.4340  142.6950 C   0  0  0  0  0  3  0  0  0  0  0  0
  191.0690  176.0490  143.1050 C   0  0  0  0  0  3  0  0  0  0  0  0
  182.7520  179.4230  138.9350 C   0  0  0  0  0  2  0  0  0  0  0  0
  180.8770  177.1820  136.6440 C   0  0  0  0  0  2  0  0  0  0  0  0
  181.1600  175.8590  137.3540 C   0  0  1  0  0  3  0  0  0  0  0  0
  182.1650  177.1760  139.2160 C   0  0  0  0  0  2  0  0  0  0  0  0
  181.8780  178.2350  137.1110 C   0  0  0  0  0  2  0  0  0  0  0  0
  181.7690  178.4200  138.5580 N   0  0  0  0  0  0  0  0  0  0  0  0
  181.1780  176.0650  138.8670 C   0  0  0  0  0  2  0  0  0  0  0  0
  180.7910  173.5940  136.9320 C   0  0  0  0  0  1  0  0  0  0  0  0
  180.1370  174.8900  137.0070 N   0  0  0  0  0  2  0  0  0  0  0  0
  1  6  1  0  0  0  0
  2 11  2  0  0  0  0
  2 12  1  0  0  0  0
  3 11  1  0  0  0  0
  4  8  2  0  0  0  0
  5  1  2  0  0  0  0
  7  9  2  0  0  0  0
  7  4  1  0  0  0  0
  8  1  1  0  0  0  0
  9  5  1  0  0  0  0
 10  3  2  0  0  0  0
 11  7  1  0  0  0  0
 12 15  2  0  0  0  0
 13 35  1  1  0  0  0
 13  2  1  0  0  0  0
 14 10  1  0  0  0  0
 14 13  1  0  0  0  0
 15  4  1  0  0  0  0
 16 17  1  1  0  0  0
 16 18  1  0  0  0  0
 16 10  1  0  0  0  0
 19 20  2  0  0  0  0
 20 21  2  0  0  0  0
 20 18  1  0  0  0  0
 20 22  1  0  0  0  0
 22 23  1  0  0  0  0
 23 24  2  0  0  0  0
 23 28  1  0  0  0  0
 26 25  1  0  0  0  0
 26 22  1  0  0  0  0
 27 26  1  0  0  0  0
 27 25  1  0  0  0  0
 28 29  1  0  0  0  0
 29 33  2  0  0  0  0
 29 34  1  0  0  0  0
 30 32  1  0  0  0  0
 31 32  2  0  0  0  0
 33 31  1  0  0  0  0
 34 30  2  0  0  0  0
 36 39  1  0  0  0  0
 36 37  1  0  0  0  0
 37 43  1  1  0  0  0
 37 41  1  0  0  0  0
 39 40  1  0  0  0  0
 40 35  1  0  0  0  0
 40 38  1  0  0  0  0
 41 38  1  0  0  0  0
 42 43  1  0  0  0  0
M  END
>  <MODEL>
9

>  <REMARK>
 VINA RESULT:      -8.4      2.744      7.056
  Name = 
  10 active torsions:
  status: ('A' for Active; 'I' for Inactive)
    1  A    between atoms: C_1  and  C_34
    2  A    between atoms: C_1  and  N_35
    3  A    between atoms: C_2  and  C_6
    4  A    between atoms: C_2  and  C_27
    5  A    between atoms: N_4  and  S_12
    6  A    between atoms: N_4  and  C_15
    7  A    between atoms: C_6  and  S_12
    8  A    between atoms: C_11  and  C_14
    9  A    between atoms: C_14  and  C_22
   10  A    between atoms: C_19  and  N_37
                            x       y       z     vdW  Elec       q    Type
                         _______ _______ _______ _____ _____    ______ ____

>  <TORSDO>
F 10

$$$$
