=
 OpenBabel10272400423D

 25 27  0  0  1  0  0  0  0  0999 V2000
  187.2140  177.9570  146.1290 C   0  0  0  0  0  0  0  0  0  0  0  0
  188.4710  177.4300  145.7730 C   0  0  0  0  0  0  0  0  0  0  0  0
  187.9490  178.1510  148.3800 C   0  0  0  0  0  3  0  0  0  0  0  0
  189.1650  177.6440  148.0520 N   0  0  0  0  0  0  0  0  0  0  0  0
  190.7150  176.7260  146.4170 N   0  0  0  0  0  0  0  0  0  0  0  0
  191.7660  176.5480  147.4050 C   0  0  0  0  0  1  0  0  0  0  0  0
  188.7670  177.0080  144.4310 N   0  0  0  0  0  0  0  0  0  0  0  0
  186.9930  178.3010  147.4280 N   0  0  0  0  0  0  0  0  0  0  0  0
  190.9440  176.3360  145.0880 N   0  0  0  0  0  2  0  0  0  0  0  0
  189.9190  176.5040  144.1010 C   0  0  0  0  0  0  0  0  0  0  0  0
  189.4420  177.2810  146.7720 C   0  0  0  0  0  0  0  0  0  0  0  0
  186.1260  178.1550  145.1340 C   0  0  1  0  0  3  0  0  0  0  0  0
  184.1120  178.5800  143.2520 C   0  0  0  0  0  3  0  0  0  0  0  0
  184.8340  178.5820  145.5170 C   0  0  0  0  0  0  0  0  0  0  0  0
  183.8740  178.7780  144.5740 N   0  0  0  0  0  0  0  0  0  0  0  0
  185.3710  178.1630  142.8240 C   0  0  0  0  0  3  0  0  0  0  0  0
  184.5500  178.7700  146.7300 O   0  0  0  0  0  0  0  0  0  0  0  0
  186.3750  177.9560  143.7690 C   0  0  0  0  0  3  0  0  0  0  0  0
  190.1590  176.0600  142.6990 C   0  0  0  0  0  2  0  0  0  0  0  0
  190.3730  177.2440  141.8080 C   0  0  0  0  0  0  0  0  0  0  0  0
  191.5040  177.6780  141.6560 O   0  0  0  0  0  0  0  0  0  0  0  0
  188.8090  179.0050  141.7580 F   0  0  0  0  0  0  0  0  0  0  0  0
  189.6060  178.2460  139.7930 F   0  0  0  0  0  0  0  0  0  0  0  0
  188.1790  176.9820  140.9900 F   0  0  0  0  0  0  0  0  0  0  0  0
  189.2280  177.8800  141.0730 C   0  0  0  0  0  0  0  0  0  0  0  0
  1  8  1  0  0  0  0
  2  1  2  0  0  0  0
  2 11  1  0  0  0  0
  4  3  1  0  0  0  0
  5 11  1  0  0  0  0
  5  6  1  0  0  0  0
  7  2  1  0  0  0  0
  8  3  2  0  0  0  0
  9  5  1  0  0  0  0
 10  7  2  0  0  0  0
 10  9  1  0  0  0  0
 11  4  2  0  0  0  0
 12 14  1  0  0  0  0
 12  1  1  6  0  0  0
 13 15  2  0  0  0  0
 14 17  2  0  0  0  0
 15 14  1  0  0  0  0
 16 13  1  0  0  0  0
 16 18  2  0  0  0  0
 18 12  1  0  0  0  0
 19 10  1  0  0  0  0
 20 19  1  0  0  0  0
 21 20  2  0  0  0  0
 23 25  1  0  0  0  0
 24 25  1  0  0  0  0
 25 22  1  0  0  0  0
 25 20  1  0  0  0  0
M  END
>  <MODEL>
1

>  <REMARK>
 VINA RESULT:      -9.0      0.000      0.000
  Name = 
  4 active torsions:
  status: ('A' for Active; 'I' for Inactive)
    1  A    between atoms: C_1  and  C_5
    2  A    between atoms: C_6  and  C_15
    3  A    between atoms: C_6  and  C_23
    4  A    between atoms: C_15  and  C_21
                            x       y       z     vdW  Elec       q    Type
                         _______ _______ _______ _____ _____    ______ ____

>  <TORSDO>
F 4

$$$$
=
 OpenBabel10272400423D

 25 27  0  0  1  0  0  0  0  0999 V2000
  185.8390  178.5470  142.4790 C   0  0  0  0  0  0  0  0  0  0  0  0
  187.0570  178.2940  141.8180 C   0  0  0  0  0  0  0  0  0  0  0  0
  184.8110  178.9900  140.3830 C   0  0  0  0  0  3  0  0  0  0  0  0
  185.9770  178.7500  139.7330 N   0  0  0  0  0  0  0  0  0  0  0  0
  188.3410  178.1700  139.7480 N   0  0  0  0  0  0  0  0  0  0  0  0
  188.4490  178.2680  138.3020 C   0  0  0  0  0  1  0  0  0  0  0  0
  188.2590  177.9650  142.5350 N   0  0  0  0  0  0  0  0  0  0  0  0
  184.7510  178.8900  141.7360 N   0  0  0  0  0  0  0  0  0  0  0  0
  189.4780  177.8490  140.5050 N   0  0  0  0  0  2  0  0  0  0  0  0
  189.3900  177.7480  141.9320 C   0  0  0  0  0  0  0  0  0  0  0  0
  187.0970  178.4070  140.4210 C   0  0  0  0  0  0  0  0  0  0  0  0
  185.7020  178.4450  143.9570 C   0  0  1  0  0  3  0  0  0  0  0  0
  185.4190  178.2000  146.7200 C   0  0  0  0  0  3  0  0  0  0  0  0
  184.7160  179.1680  144.6650 C   0  0  0  0  0  0  0  0  0  0  0  0
  184.6050  179.0270  146.0130 N   0  0  0  0  0  0  0  0  0  0  0  0
  186.4040  177.4630  146.0670 C   0  0  0  0  0  3  0  0  0  0  0  0
  183.9410  179.9590  144.0660 O   0  0  0  0  0  0  0  0  0  0  0  0
  186.5390  177.5870  144.6840 C   0  0  0  0  0  3  0  0  0  0  0  0
  190.6080  177.4370  142.7300 C   0  0  0  0  0  2  0  0  0  0  0  0
  190.6260  178.2480  143.9890 C   0  0  0  0  0  0  0  0  0  0  0  0
  190.8650  179.4440  143.9230 O   0  0  0  0  0  0  0  0  0  0  0  0
  191.5010  177.3440  145.9800 F   0  0  0  0  0  0  0  0  0  0  0  0
  189.5590  178.4770  146.1010 F   0  0  0  0  0  0  0  0  0  0  0  0
  189.6170  176.4480  145.1260 F   0  0  0  0  0  0  0  0  0  0  0  0
  190.3190  177.6240  145.3200 C   0  0  0  0  0  0  0  0  0  0  0  0
  2  1  1  0  0  0  0
  2  7  1  0  0  0  0
  3  8  1  0  0  0  0
  4  3  2  0  0  0  0
  4 11  1  0  0  0  0
  5 11  1  0  0  0  0
  5  9  1  0  0  0  0
  6  5  1  0  0  0  0
  8  1  2  0  0  0  0
  9 10  1  0  0  0  0
 10  7  2  0  0  0  0
 10 19  1  0  0  0  0
 11  2  2  0  0  0  0
 12  1  1  6  0  0  0
 12 14  1  0  0  0  0
 12 18  1  0  0  0  0
 14 15  1  0  0  0  0
 15 13  2  0  0  0  0
 16 13  1  0  0  0  0
 17 14  2  0  0  0  0
 18 16  2  0  0  0  0
 19 20  1  0  0  0  0
 20 25  1  0  0  0  0
 21 20  2  0  0  0  0
 24 25  1  0  0  0  0
 25 22  1  0  0  0  0
 25 23  1  0  0  0  0
M  END
>  <MODEL>
2

>  <REMARK>
 VINA RESULT:      -9.0      2.873      4.996
  Name = 
  4 active torsions:
  status: ('A' for Active; 'I' for Inactive)
    1  A    between atoms: C_1  and  C_5
    2  A    between atoms: C_6  and  C_15
    3  A    between atoms: C_6  and  C_23
    4  A    between atoms: C_15  and  C_21
                            x       y       z     vdW  Elec       q    Type
                         _______ _______ _______ _____ _____    ______ ____

>  <TORSDO>
F 4

$$$$
=
 OpenBabel10272400423D

 25 27  0  0  1  0  0  0  0  0999 V2000
  188.8360  177.6470  142.0740 C   0  0  0  0  0  0  0  0  0  0  0  0
  187.5370  177.8910  142.5610 C   0  0  0  0  0  0  0  0  0  0  0  0
  188.1480  178.3670  139.9170 C   0  0  0  0  0  3  0  0  0  0  0  0
  186.8910  178.6070  140.3710 N   0  0  0  0  0  0  0  0  0  0  0  0
  185.2410  178.6080  142.1600 N   0  0  0  0  0  0  0  0  0  0  0  0
  184.1920  179.1140  141.2900 C   0  0  0  0  0  1  0  0  0  0  0  0
  187.1710  177.6200  143.9240 N   0  0  0  0  0  0  0  0  0  0  0  0
  189.1000  177.8930  140.7610 N   0  0  0  0  0  0  0  0  0  0  0  0
  184.9480  178.3270  143.5030 N   0  0  0  0  0  2  0  0  0  0  0  0
  185.9690  177.8270  144.3740 C   0  0  0  0  0  0  0  0  0  0  0  0
  186.5690  178.3780  141.6720 C   0  0  0  0  0  0  0  0  0  0  0  0
  189.9280  177.1360  142.9470 C   0  0  1  0  0  3  0  0  0  0  0  0
  191.9320  176.1560  144.6200 C   0  0  0  0  0  3  0  0  0  0  0  0
  190.6630  177.9920  143.7980 C   0  0  0  0  0  0  0  0  0  0  0  0
  191.6360  177.4820  144.6000 N   0  0  0  0  0  0  0  0  0  0  0  0
  191.2320  175.2720  143.8020 C   0  0  0  0  0  3  0  0  0  0  0  0
  190.4420  179.2320  143.8140 O   0  0  0  0  0  0  0  0  0  0  0  0
  190.2290  175.7670  142.9700 C   0  0  0  0  0  3  0  0  0  0  0  0
  185.6420  177.5020  145.7910 C   0  0  0  0  0  2  0  0  0  0  0  0
  186.3440  178.4470  146.7170 C   0  0  0  0  0  0  0  0  0  0  0  0
  185.8240  179.5210  146.9760 O   0  0  0  0  0  0  0  0  0  0  0  0
  187.6340  176.7450  147.7110 F   0  0  0  0  0  0  0  0  0  0  0  0
  188.7050  178.3000  146.4840 F   0  0  0  0  0  0  0  0  0  0  0  0
  187.8430  178.8500  148.4890 F   0  0  0  0  0  0  0  0  0  0  0  0
  187.6530  178.0810  147.3550 C   0  0  0  0  0  0  0  0  0  0  0  0
  1  2  1  0  0  0  0
  2  7  1  0  0  0  0
  3  4  2  0  0  0  0
  3  8  1  0  0  0  0
  4 11  1  0  0  0  0
  5  9  1  0  0  0  0
  6  5  1  0  0  0  0
  7 10  2  0  0  0  0
  8  1  2  0  0  0  0
  9 10  1  0  0  0  0
 10 19  1  0  0  0  0
 11  5  1  0  0  0  0
 11  2  2  0  0  0  0
 12  1  1  1  0  0  0
 12 18  1  0  0  0  0
 12 14  1  0  0  0  0
 14 17  2  0  0  0  0
 14 15  1  0  0  0  0
 15 13  2  0  0  0  0
 16 13  1  0  0  0  0
 18 16  2  0  0  0  0
 19 20  1  0  0  0  0
 20 21  2  0  0  0  0
 20 25  1  0  0  0  0
 23 25  1  0  0  0  0
 25 22  1  0  0  0  0
 25 24  1  0  0  0  0
M  END
>  <MODEL>
3

>  <REMARK>
 VINA RESULT:      -8.9      2.853      6.605
  Name = 
  4 active torsions:
  status: ('A' for Active; 'I' for Inactive)
    1  A    between atoms: C_1  and  C_5
    2  A    between atoms: C_6  and  C_15
    3  A    between atoms: C_6  and  C_23
    4  A    between atoms: C_15  and  C_21
                            x       y       z     vdW  Elec       q    Type
                         _______ _______ _______ _____ _____    ______ ____

>  <TORSDO>
F 4

$$$$
=
 OpenBabel10272400423D

 25 27  0  0  1  0  0  0  0  0999 V2000
  188.5970  178.0430  141.6490 C   0  0  0  0  0  0  0  0  0  0  0  0
  187.2200  178.2970  141.8100 C   0  0  0  0  0  0  0  0  0  0  0  0
  188.3640  178.3430  139.3030 C   0  0  0  0  0  3  0  0  0  0  0  0
  187.0360  178.5890  139.4430 N   0  0  0  0  0  0  0  0  0  0  0  0
  185.0480  178.8090  140.8280 N   0  0  0  0  0  0  0  0  0  0  0  0
  184.1960  179.1000  139.6870 C   0  0  0  0  0  1  0  0  0  0  0  0
  186.5810  178.2460  143.0960 N   0  0  0  0  0  0  0  0  0  0  0  0
  189.1250  178.0730  140.3950 N   0  0  0  0  0  0  0  0  0  0  0  0
  184.4840  178.7480  142.1120 N   0  0  0  0  0  2  0  0  0  0  0  0
  185.3080  178.4620  143.2480 C   0  0  0  0  0  0  0  0  0  0  0  0
  186.4520  178.5700  140.6700 C   0  0  0  0  0  0  0  0  0  0  0  0
  189.4890  177.7500  142.8030 C   0  0  1  0  0  3  0  0  0  0  0  0
  191.2110  177.2000  144.9270 C   0  0  0  0  0  3  0  0  0  0  0  0
  189.5290  176.4750  143.4100 C   0  0  0  0  0  0  0  0  0  0  0  0
  190.3790  176.2400  144.4450 N   0  0  0  0  0  0  0  0  0  0  0  0
  191.2120  178.4720  144.3590 C   0  0  0  0  0  3  0  0  0  0  0  0
  188.7720  175.5490  143.0150 O   0  0  0  0  0  0  0  0  0  0  0  0
  190.3520  178.7410  143.2950 C   0  0  0  0  0  3  0  0  0  0  0  0
  184.6970  178.3680  144.6040 C   0  0  0  0  0  2  0  0  0  0  0  0
  185.6600  178.8530  145.6430 C   0  0  0  0  0  0  0  0  0  0  0  0
  185.5710  180.0020  146.0470 O   0  0  0  0  0  0  0  0  0  0  0  0
  186.6670  178.0110  147.5990 F   0  0  0  0  0  0  0  0  0  0  0  0
  186.4880  176.6330  145.8280 F   0  0  0  0  0  0  0  0  0  0  0  0
  187.9560  178.3390  145.7790 F   0  0  0  0  0  0  0  0  0  0  0  0
  186.7060  177.9420  146.2190 C   0  0  0  0  0  0  0  0  0  0  0  0
  1  2  1  0  0  0  0
  2  7  1  0  0  0  0
  3  4  2  0  0  0  0
  3  8  1  0  0  0  0
  4 11  1  0  0  0  0
  5  9  1  0  0  0  0
  6  5  1  0  0  0  0
  7 10  2  0  0  0  0
  8  1  2  0  0  0  0
  9 10  1  0  0  0  0
 10 19  1  0  0  0  0
 11  5  1  0  0  0  0
 11  2  2  0  0  0  0
 12  1  1  6  0  0  0
 12 18  1  0  0  0  0
 12 14  1  0  0  0  0
 14 15  1  0  0  0  0
 15 13  2  0  0  0  0
 16 13  1  0  0  0  0
 17 14  2  0  0  0  0
 18 16  2  0  0  0  0
 19 20  1  0  0  0  0
 20 21  2  0  0  0  0
 20 25  1  0  0  0  0
 23 25  1  0  0  0  0
 24 25  1  0  0  0  0
 25 22  1  0  0  0  0
M  END
>  <MODEL>
4

>  <REMARK>
 VINA RESULT:      -8.8      2.994      6.683
  Name = 
  4 active torsions:
  status: ('A' for Active; 'I' for Inactive)
    1  A    between atoms: C_1  and  C_5
    2  A    between atoms: C_6  and  C_15
    3  A    between atoms: C_6  and  C_23
    4  A    between atoms: C_15  and  C_21
                            x       y       z     vdW  Elec       q    Type
                         _______ _______ _______ _____ _____    ______ ____

>  <TORSDO>
F 4

$$$$
=
 OpenBabel10272400423D

 25 27  0  0  1  0  0  0  0  0999 V2000
  188.9760  177.0480  143.7400 C   0  0  0  0  0  0  0  0  0  0  0  0
  188.4260  177.5130  142.5290 C   0  0  0  0  0  0  0  0  0  0  0  0
  190.7240  175.9930  142.5230 C   0  0  0  0  0  3  0  0  0  0  0  0
  190.2050  176.4340  141.3490 N   0  0  0  0  0  0  0  0  0  0  0  0
  188.5020  177.6390  140.0960 N   0  0  0  0  0  0  0  0  0  0  0  0
  189.1230  177.3340  138.8180 C   0  0  0  0  0  1  0  0  0  0  0  0
  187.2090  178.2760  142.4910 N   0  0  0  0  0  0  0  0  0  0  0  0
  190.1130  176.2980  143.6960 N   0  0  0  0  0  0  0  0  0  0  0  0
  187.3130  178.3840  140.1250 N   0  0  0  0  0  2  0  0  0  0  0  0
  186.6860  178.6930  141.3760 C   0  0  0  0  0  0  0  0  0  0  0  0
  189.0720  177.1840  141.3300 C   0  0  0  0  0  0  0  0  0  0  0  0
  188.3630  177.3530  145.0610 C   0  0  1  0  0  3  0  0  0  0  0  0
  187.2000  177.9810  147.5160 C   0  0  0  0  0  3  0  0  0  0  0  0
  189.1480  177.5840  146.2120 C   0  0  0  0  0  0  0  0  0  0  0  0
  188.5500  177.8870  147.3950 N   0  0  0  0  0  0  0  0  0  0  0  0
  186.3830  177.7660  146.4090 C   0  0  0  0  0  3  0  0  0  0  0  0
  190.4040  177.4990  146.1640 O   0  0  0  0  0  0  0  0  0  0  0  0
  186.9700  177.4550  145.1830 C   0  0  0  0  0  3  0  0  0  0  0  0
  185.4080  179.4570  141.3960 C   0  0  0  0  0  2  0  0  0  0  0  0
  184.3610  178.6990  142.1520 C   0  0  0  0  0  0  0  0  0  0  0  0
  183.9130  177.6680  141.6760 O   0  0  0  0  0  0  0  0  0  0  0  0
  183.7900  178.0850  144.3530 F   0  0  0  0  0  0  0  0  0  0  0  0
  184.7550  180.0940  144.0360 F   0  0  0  0  0  0  0  0  0  0  0  0
  182.6350  179.7480  143.3650 F   0  0  0  0  0  0  0  0  0  0  0  0
  183.8820  179.1660  143.4970 C   0  0  0  0  0  0  0  0  0  0  0  0
  2  1  2  0  0  0  0
  3  8  2  0  0  0  0
  4  3  1  0  0  0  0
  5  9  1  0  0  0  0
  5 11  1  0  0  0  0
  6  5  1  0  0  0  0
  7  2  1  0  0  0  0
  8  1  1  0  0  0  0
  9 10  1  0  0  0  0
 10 19  1  0  0  0  0
 10  7  2  0  0  0  0
 11  4  2  0  0  0  0
 11  2  1  0  0  0  0
 12  1  1  6  0  0  0
 12 18  1  0  0  0  0
 12 14  1  0  0  0  0
 14 15  1  0  0  0  0
 15 13  2  0  0  0  0
 16 13  1  0  0  0  0
 17 14  2  0  0  0  0
 18 16  2  0  0  0  0
 19 20  1  0  0  0  0
 20 25  1  0  0  0  0
 21 20  2  0  0  0  0
 24 25  1  0  0  0  0
 25 23  1  0  0  0  0
 25 22  1  0  0  0  0
M  END
>  <MODEL>
5

>  <REMARK>
 VINA RESULT:      -8.7      3.060      5.651
  Name = 
  4 active torsions:
  status: ('A' for Active; 'I' for Inactive)
    1  A    between atoms: C_1  and  C_5
    2  A    between atoms: C_6  and  C_15
    3  A    between atoms: C_6  and  C_23
    4  A    between atoms: C_15  and  C_21
                            x       y       z     vdW  Elec       q    Type
                         _______ _______ _______ _____ _____    ______ ____

>  <TORSDO>
F 4

$$$$
=
 OpenBabel10272400423D

 25 27  0  0  1  0  0  0  0  0999 V2000
  185.4580  178.4350  144.6480 C   0  0  0  0  0  0  0  0  0  0  0  0
  185.7620  178.5040  143.2740 C   0  0  0  0  0  0  0  0  0  0  0  0
  183.1780  178.8830  144.1520 C   0  0  0  0  0  3  0  0  0  0  0  0
  183.4550  178.9530  142.8250 N   0  0  0  0  0  0  0  0  0  0  0  0
  185.0340  178.8610  140.9750 N   0  0  0  0  0  0  0  0  0  0  0  0
  184.0030  179.1320  139.9870 C   0  0  0  0  0  1  0  0  0  0  0  0
  187.1030  178.3490  142.7830 N   0  0  0  0  0  0  0  0  0  0  0  0
  184.1690  178.6300  145.0440 N   0  0  0  0  0  0  0  0  0  0  0  0
  186.3630  178.6960  140.5570 N   0  0  0  0  0  2  0  0  0  0  0  0
  187.3920  178.4290  141.5180 C   0  0  0  0  0  0  0  0  0  0  0  0
  184.7230  178.7700  142.3710 C   0  0  0  0  0  0  0  0  0  0  0  0
  186.4940  178.1520  145.6770 C   0  0  1  0  0  3  0  0  0  0  0  0
  188.4160  177.5630  147.6110 C   0  0  0  0  0  3  0  0  0  0  0  0
  186.3770  178.6250  147.0040 C   0  0  0  0  0  0  0  0  0  0  0  0
  187.3330  178.3210  147.9220 N   0  0  0  0  0  0  0  0  0  0  0  0
  188.5750  177.0700  146.3170 C   0  0  0  0  0  3  0  0  0  0  0  0
  185.4010  179.3430  147.3490 O   0  0  0  0  0  0  0  0  0  0  0  0
  187.6090  177.3650  145.3560 C   0  0  0  0  0  3  0  0  0  0  0  0
  188.8060  178.2850  141.0700 C   0  0  0  0  0  2  0  0  0  0  0  0
  189.5570  177.3840  142.0000 C   0  0  0  0  0  0  0  0  0  0  0  0
  189.3140  176.1880  141.9950 O   0  0  0  0  0  0  0  0  0  0  0  0
  191.7850  178.1270  142.1860 F   0  0  0  0  0  0  0  0  0  0  0  0
  190.2310  179.1200  143.4790 F   0  0  0  0  0  0  0  0  0  0  0  0
  190.8740  177.0080  143.9180 F   0  0  0  0  0  0  0  0  0  0  0  0
  190.6250  177.9210  142.9100 C   0  0  0  0  0  0  0  0  0  0  0  0
  1  8  1  0  0  0  0
  2  1  2  0  0  0  0
  3  8  2  0  0  0  0
  4  3  1  0  0  0  0
  5 11  1  0  0  0  0
  6  5  1  0  0  0  0
  7  2  1  0  0  0  0
  9  5  1  0  0  0  0
  9 10  1  0  0  0  0
 10  7  2  0  0  0  0
 11  4  2  0  0  0  0
 11  2  1  0  0  0  0
 12  1  1  1  0  0  0
 12 14  1  0  0  0  0
 13 15  2  0  0  0  0
 14 17  2  0  0  0  0
 14 15  1  0  0  0  0
 16 13  1  0  0  0  0
 18 12  1  0  0  0  0
 18 16  2  0  0  0  0
 19 10  1  0  0  0  0
 19 20  1  0  0  0  0
 20 25  1  0  0  0  0
 21 20  2  0  0  0  0
 22 25  1  0  0  0  0
 25 23  1  0  0  0  0
 25 24  1  0  0  0  0
M  END
>  <MODEL>
6

>  <REMARK>
 VINA RESULT:      -8.6      2.172      4.898
  Name = 
  4 active torsions:
  status: ('A' for Active; 'I' for Inactive)
    1  A    between atoms: C_1  and  C_5
    2  A    between atoms: C_6  and  C_15
    3  A    between atoms: C_6  and  C_23
    4  A    between atoms: C_15  and  C_21
                            x       y       z     vdW  Elec       q    Type
                         _______ _______ _______ _____ _____    ______ ____

>  <TORSDO>
F 4

$$$$
=
 OpenBabel10272400423D

 25 27  0  0  1  0  0  0  0  0999 V2000
  189.4620  177.8710  142.6990 C   0  0  0  0  0  0  0  0  0  0  0  0
  189.1100  177.6200  144.0400 C   0  0  0  0  0  0  0  0  0  0  0  0
  191.7590  177.7020  143.2860 C   0  0  0  0  0  3  0  0  0  0  0  0
  191.4350  177.4580  144.5820 N   0  0  0  0  0  0  0  0  0  0  0  0
  189.7790  177.1790  146.3430 N   0  0  0  0  0  0  0  0  0  0  0  0
  190.7930  176.9570  147.3610 C   0  0  0  0  0  1  0  0  0  0  0  0
  187.7410  177.6060  144.4780 N   0  0  0  0  0  0  0  0  0  0  0  0
  190.7820  177.9050  142.3650 N   0  0  0  0  0  0  0  0  0  0  0  0
  188.4240  177.1750  146.7070 N   0  0  0  0  0  2  0  0  0  0  0  0
  187.4110  177.3920  145.7170 C   0  0  0  0  0  0  0  0  0  0  0  0
  190.1350  177.4150  144.9750 C   0  0  0  0  0  0  0  0  0  0  0  0
  188.4430  178.0940  141.6390 C   0  0  1  0  0  3  0  0  0  0  0  0
  186.5000  178.4630  139.6730 C   0  0  0  0  0  3  0  0  0  0  0  0
  188.6800  177.7420  140.2910 C   0  0  0  0  0  0  0  0  0  0  0  0
  187.7120  177.9370  139.3560 N   0  0  0  0  0  0  0  0  0  0  0  0
  186.2170  178.8210  140.9890 C   0  0  0  0  0  3  0  0  0  0  0  0
  189.7890  177.2620  139.9350 O   0  0  0  0  0  0  0  0  0  0  0  0
  187.1900  178.6310  141.9680 C   0  0  0  0  0  3  0  0  0  0  0  0
  185.9760  177.4170  146.1170 C   0  0  0  0  0  2  0  0  0  0  0  0
  185.3960  178.7780  145.8870 C   0  0  0  0  0  0  0  0  0  0  0  0
  185.6980  179.6880  146.6420 O   0  0  0  0  0  0  0  0  0  0  0  0
  184.8930  180.1940  144.0730 F   0  0  0  0  0  0  0  0  0  0  0  0
  184.4940  177.9910  143.8330 F   0  0  0  0  0  0  0  0  0  0  0  0
  183.1910  179.2270  145.1900 F   0  0  0  0  0  0  0  0  0  0  0  0
  184.4820  179.0470  144.7270 C   0  0  0  0  0  0  0  0  0  0  0  0
  1  2  1  0  0  0  0
  2  7  1  0  0  0  0
  2 11  2  0  0  0  0
  3  4  2  0  0  0  0
  4 11  1  0  0  0  0
  5  9  1  0  0  0  0
  5  6  1  0  0  0  0
  7 10  2  0  0  0  0
  8  1  2  0  0  0  0
  8  3  1  0  0  0  0
 10 19  1  0  0  0  0
 10  9  1  0  0  0  0
 11  5  1  0  0  0  0
 12 18  1  0  0  0  0
 12  1  1  1  0  0  0
 13 16  1  0  0  0  0
 14 12  1  0  0  0  0
 15 13  2  0  0  0  0
 15 14  1  0  0  0  0
 16 18  2  0  0  0  0
 17 14  2  0  0  0  0
 20 19  1  0  0  0  0
 20 21  2  0  0  0  0
 22 25  1  0  0  0  0
 23 25  1  0  0  0  0
 25 24  1  0  0  0  0
 25 20  1  0  0  0  0
M  END
>  <MODEL>
7

>  <REMARK>
 VINA RESULT:      -8.6      2.646      5.053
  Name = 
  4 active torsions:
  status: ('A' for Active; 'I' for Inactive)
    1  A    between atoms: C_1  and  C_5
    2  A    between atoms: C_6  and  C_15
    3  A    between atoms: C_6  and  C_23
    4  A    between atoms: C_15  and  C_21
                            x       y       z     vdW  Elec       q    Type
                         _______ _______ _______ _____ _____    ______ ____

>  <TORSDO>
F 4

$$$$
=
 OpenBabel10272400423D

 25 27  0  0  1  0  0  0  0  0999 V2000
  184.7760  178.5090  143.4460 C   0  0  0  0  0  0  0  0  0  0  0  0
  185.9470  177.9930  144.0360 C   0  0  0  0  0  0  0  0  0  0  0  0
  184.0010  179.1630  145.5960 C   0  0  0  0  0  3  0  0  0  0  0  0
  185.1240  178.6710  146.1770 N   0  0  0  0  0  0  0  0  0  0  0  0
  187.2770  177.5460  146.0300 N   0  0  0  0  0  0  0  0  0  0  0  0
  187.4930  177.6150  147.4650 C   0  0  0  0  0  1  0  0  0  0  0  0
  186.9670  177.3430  143.2590 N   0  0  0  0  0  0  0  0  0  0  0  0
  183.8360  179.0790  144.2500 N   0  0  0  0  0  0  0  0  0  0  0  0
  188.2380  176.9270  145.2160 N   0  0  0  0  0  2  0  0  0  0  0  0
  188.0420  176.8500  143.7990 C   0  0  0  0  0  0  0  0  0  0  0  0
  186.0960  178.0890  145.4260 C   0  0  0  0  0  0  0  0  0  0  0  0
  184.5360  178.4570  141.9790 C   0  0  1  0  0  3  0  0  0  0  0  0
  184.1110  178.3040  139.2270 C   0  0  0  0  0  3  0  0  0  0  0  0
  185.3500  179.1630  141.0650 C   0  0  0  0  0  0  0  0  0  0  0  0
  185.1150  179.0690  139.7290 N   0  0  0  0  0  0  0  0  0  0  0  0
  183.2830  177.5860  140.0870 C   0  0  0  0  0  3  0  0  0  0  0  0
  186.2890  179.8990  141.4720 O   0  0  0  0  0  0  0  0  0  0  0  0
  183.5020  177.6630  141.4620 C   0  0  0  0  0  3  0  0  0  0  0  0
  189.0520  176.1630  142.9460 C   0  0  0  0  0  2  0  0  0  0  0  0
  189.9950  177.1630  142.3510 C   0  0  0  0  0  0  0  0  0  0  0  0
  189.6860  177.7270  141.3130 O   0  0  0  0  0  0  0  0  0  0  0  0
  191.4750  176.6790  144.1190 F   0  0  0  0  0  0  0  0  0  0  0  0
  192.3570  177.3470  142.1580 F   0  0  0  0  0  0  0  0  0  0  0  0
  191.2540  178.8210  143.4530 F   0  0  0  0  0  0  0  0  0  0  0  0
  191.2910  177.5060  143.0260 C   0  0  0  0  0  0  0  0  0  0  0  0
  1  2  2  0  0  0  0
  1  8  1  0  0  0  0
  2 11  1  0  0  0  0
  3  4  1  0  0  0  0
  5  6  1  0  0  0  0
  7 10  2  0  0  0  0
  7  2  1  0  0  0  0
  8  3  2  0  0  0  0
  9  5  1  0  0  0  0
 10  9  1  0  0  0  0
 11  5  1  0  0  0  0
 11  4  2  0  0  0  0
 12  1  1  6  0  0  0
 13 15  2  0  0  0  0
 13 16  1  0  0  0  0
 14 17  2  0  0  0  0
 14 12  1  0  0  0  0
 15 14  1  0  0  0  0
 16 18  2  0  0  0  0
 18 12  1  0  0  0  0
 19 10  1  0  0  0  0
 20 19  1  0  0  0  0
 20 25  1  0  0  0  0
 21 20  2  0  0  0  0
 23 25  1  0  0  0  0
 25 24  1  0  0  0  0
 25 22  1  0  0  0  0
M  END
>  <MODEL>
8

>  <REMARK>
 VINA RESULT:      -8.4      2.540      3.728
  Name = 
  4 active torsions:
  status: ('A' for Active; 'I' for Inactive)
    1  A    between atoms: C_1  and  C_5
    2  A    between atoms: C_6  and  C_15
    3  A    between atoms: C_6  and  C_23
    4  A    between atoms: C_15  and  C_21
                            x       y       z     vdW  Elec       q    Type
                         _______ _______ _______ _____ _____    ______ ____

>  <TORSDO>
F 4

$$$$
=
 OpenBabel10272400423D

 25 27  0  0  1  0  0  0  0  0999 V2000
  187.7190  177.7820  144.6280 C   0  0  0  0  0  0  0  0  0  0  0  0
  186.6270  178.1200  143.8040 C   0  0  0  0  0  0  0  0  0  0  0  0
  186.3160  177.9700  146.5380 C   0  0  0  0  0  3  0  0  0  0  0  0
  185.2560  178.2970  145.7560 N   0  0  0  0  0  0  0  0  0  0  0  0
  184.2810  178.7410  143.5710 N   0  0  0  0  0  0  0  0  0  0  0  0
  182.9690  179.0190  144.1320 C   0  0  0  0  0  1  0  0  0  0  0  0
  186.7600  178.2440  142.3780 N   0  0  0  0  0  0  0  0  0  0  0  0
  187.5260  177.7190  145.9750 N   0  0  0  0  0  0  0  0  0  0  0  0
  184.4740  178.8420  142.1850 N   0  0  0  0  0  2  0  0  0  0  0  0
  185.7600  178.5720  141.6150 C   0  0  0  0  0  0  0  0  0  0  0  0
  185.3880  178.3770  144.4060 C   0  0  0  0  0  0  0  0  0  0  0  0
  189.0680  177.4860  144.0770 C   0  0  1  0  0  3  0  0  0  0  0  0
  191.5890  176.9740  142.9990 C   0  0  0  0  0  3  0  0  0  0  0  0
  189.3260  176.3190  143.3230 C   0  0  0  0  0  0  0  0  0  0  0  0
  190.5670  176.0980  142.8130 N   0  0  0  0  0  0  0  0  0  0  0  0
  191.3830  178.1410  143.7320 C   0  0  0  0  0  3  0  0  0  0  0  0
  188.4220  175.4640  143.1280 O   0  0  0  0  0  0  0  0  0  0  0  0
  190.1200  178.3930  144.2650 C   0  0  0  0  0  3  0  0  0  0  0  0
  185.9650  178.7110  140.1450 C   0  0  0  0  0  2  0  0  0  0  0  0
  184.6600  178.9830  139.4630 C   0  0  0  0  0  0  0  0  0  0  0  0
  184.2710  180.1350  139.3590 O   0  0  0  0  0  0  0  0  0  0  0  0
  183.3400  177.0800  139.8930 F   0  0  0  0  0  0  0  0  0  0  0  0
  182.7910  178.3670  138.1290 F   0  0  0  0  0  0  0  0  0  0  0  0
  184.6450  177.0930  138.0550 F   0  0  0  0  0  0  0  0  0  0  0  0
  183.8440  177.8680  138.8750 C   0  0  0  0  0  0  0  0  0  0  0  0
  1  8  1  0  0  0  0
  2 11  1  0  0  0  0
  2  1  2  0  0  0  0
  4  3  1  0  0  0  0
  5  6  1  0  0  0  0
  5 11  1  0  0  0  0
  7  2  1  0  0  0  0
  8  3  2  0  0  0  0
  9  5  1  0  0  0  0
 10  9  1  0  0  0  0
 10  7  2  0  0  0  0
 11  4  2  0  0  0  0
 12 18  1  0  0  0  0
 12  1  1  6  0  0  0
 13 16  1  0  0  0  0
 14 12  1  0  0  0  0
 15 13  2  0  0  0  0
 15 14  1  0  0  0  0
 16 18  2  0  0  0  0
 17 14  2  0  0  0  0
 19 10  1  0  0  0  0
 20 19  1  0  0  0  0
 21 20  2  0  0  0  0
 23 25  1  0  0  0  0
 24 25  1  0  0  0  0
 25 20  1  0  0  0  0
 25 22  1  0  0  0  0
M  END
>  <MODEL>
9

>  <REMARK>
 VINA RESULT:      -8.4      3.144      5.751
  Name = 
  4 active torsions:
  status: ('A' for Active; 'I' for Inactive)
    1  A    between atoms: C_1  and  C_5
    2  A    between atoms: C_6  and  C_15
    3  A    between atoms: C_6  and  C_23
    4  A    between atoms: C_15  and  C_21
                            x       y       z     vdW  Elec       q    Type
                         _______ _______ _______ _____ _____    ______ ____

>  <TORSDO>
F 4

$$$$
