=
 OpenBabel10272414453D

 37 41  0  0  1  0  0  0  0  0999 V2000
  188.5200  176.8960  136.9510 C   0  0  2  0  0  3  0  0  0  0  0  0
  188.8130  175.3910  136.7350 C   0  0  2  0  0  3  0  0  0  0  0  0
  190.3090  175.0540  136.8780 C   0  0  2  0  0  3  0  0  0  0  0  0
  190.6260  177.0250  138.3880 C   0  0  0  0  0  2  0  0  0  0  0  0
  189.0910  178.9350  138.3270 C   0  0  0  0  0  1  0  0  0  0  0  0
  189.1580  177.4200  138.2590 C   0  0  1  0  0  3  0  0  0  0  0  0
  190.8020  175.5190  138.2450 C   0  0  0  0  0  2  0  0  0  0  0  0
  193.2110  174.4250  136.9700 C   0  0  0  0  0  3  0  0  0  0  0  0
  192.6340  175.2970  135.8660 C   0  0  2  0  0  0  0  0  0  0  0  0
  191.7610  174.5480  134.8890 C   0  0  0  0  0  2  0  0  0  0  0  0
  193.6530  176.1940  135.2190 C   0  0  0  0  0  2  0  0  0  0  0  0
  196.2260  177.4830  134.8650 C   0  0  0  0  0  1  0  0  0  0  0  0
  196.0150  176.4470  135.8430 N   0  0  0  0  0  0  0  0  0  0  0  0
  194.8790  175.8640  136.0030 C   0  0  0  0  0  0  0  0  0  0  0  0
  191.1600  175.6550  135.7500 C   0  0  1  0  0  3  0  0  0  0  0  0
  194.6830  174.8130  137.0480 C   0  0  0  0  0  3  0  0  0  0  0  0
  186.1300  173.5500  134.4900 C   0  0  2  0  0  3  0  0  0  0  0  0
  186.1390  172.1270  134.3500 O   0  0  0  0  0  0  0  0  0  0  0  0
  186.1000  171.4840  135.6180 C   0  0  0  0  0  2  0  0  0  0  0  0
  187.5170  171.1600  136.1680 C   0  0  2  0  0  3  0  0  0  0  0  0
  188.4180  172.3840  136.4760 C   0  0  0  0  0  2  0  0  0  0  0  0
  188.2570  174.8750  135.4020 C   0  0  1  0  0  3  0  0  0  0  0  0
  188.3460  173.3560  135.3130 C   0  0  2  0  0  3  0  0  0  0  0  0
  187.0250  174.0340  135.6280 C   0  0  2  0  0  3  0  0  0  0  0  0
  188.2350  170.0550  135.3890 C   0  0  0  0  0  2  0  0  0  0  0  0
  187.3810  168.8120  135.1980 C   0  0  0  0  0  1  0  0  0  0  0  0
  184.4680  174.3790  136.1510 C   0  0  0  0  0  1  0  0  0  0  0  0
  184.7160  174.0720  134.6860 C   0  0  0  0  0  2  0  0  0  0  0  0
  186.9980  177.1420  136.8930 C   0  0  2  0  0  3  0  0  0  0  0  0
  186.4990  178.0000  135.7280 C   0  0  2  0  0  3  0  0  0  0  0  0
  185.3950  177.4210  135.0990 O   0  0  0  0  0  1  0  0  0  0  0  0
  187.6090  178.2070  134.7160 C   0  0  0  0  0  1  0  0  0  0  0  0
  186.2440  177.2370  138.2260 C   0  0  0  0  0  2  0  0  0  0  0  0
  185.3510  178.4640  138.3180 C   0  0  0  0  0  2  0  0  0  0  0  0
  184.7830  178.5960  139.7200 C   0  0  0  0  0  2  0  0  0  0  0  0
  185.8630  178.6860  140.7040 C   0  0  0  0  0  0  0  0  0  0  0  0
  186.7540  178.7570  141.5140 C   0  0  0  0  0  3  0  0  0  0  0  0
  1 29  1  1  0  0  0
  1  6  1  0  0  0  0
  2 22  1  6  0  0  0
  2  3  1  0  0  0  0
  2  1  1  0  0  0  0
  3  7  1  1  0  0  0
  6  5  1  6  0  0  0
  6  4  1  0  0  0  0
  7  4  1  0  0  0  0
  8 16  2  0  0  0  0
  9 10  1  6  0  0  0
  9  8  1  0  0  0  0
 11  9  1  0  0  0  0
 11 14  1  0  0  0  0
 12 13  1  0  0  0  0
 13 14  2  0  0  0  0
 14 16  1  0  0  0  0
 15 10  1  6  0  0  0
 15  9  1  0  0  0  0
 15  3  1  0  0  0  0
 17 28  1  1  0  0  0
 17 24  1  0  0  0  0
 18 17  1  0  0  0  0
 18 19  1  0  0  0  0
 19 20  1  0  0  0  0
 20 25  1  6  0  0  0
 20 21  1  0  0  0  0
 22 24  1  0  0  0  0
 23 22  1  0  0  0  0
 23 24  1  0  0  0  0
 23 21  1  0  0  0  0
 26 25  1  0  0  0  0
 28 27  1  0  0  0  0
 29 33  1  0  0  0  0
 30 29  1  0  0  0  0
 31 30  1  0  0  0  0
 32 30  1  0  0  0  0
 33 34  1  0  0  0  0
 34 35  1  0  0  0  0
 35 36  1  0  0  0  0
 36 37  3  0  0  0  0
M  END
>  <MODEL>
1

>  <REMARK>
 VINA RESULT:      -4.4      0.000      0.000
  Name = 
  10 active torsions:
  status: ('A' for Active; 'I' for Inactive)
    1  A    between atoms: C_1  and  C_23
    2  A    between atoms: C_3  and  C_30
    3  A    between atoms: C_4  and  C_13
    4  A    between atoms: C_9  and  C_13
    5  A    between atoms: C_9  and  C_16
    6  A    between atoms: C_10  and  C_29
    7  A    between atoms: C_11  and  C_26
    8  A    between atoms: C_13  and  C_20
    9  A    between atoms: C_14  and  C_31
   10  A    between atoms: C_16  and  C_30
                            x       y       z     vdW  Elec       q    Type
                         _______ _______ _______ _____ _____    ______ ____

>  <TORSDO>
F 10

$$$$
=
 OpenBabel10272414453D

 37 41  0  0  1  0  0  0  0  0999 V2000
  191.7730  175.6330  138.2540 C   0  0  2  0  0  3  0  0  0  0  0  0
  190.5170  176.4900  138.5440 C   0  0  2  0  0  3  0  0  0  0  0  0
  190.5900  177.2040  139.9060 C   0  0  2  0  0  3  0  0  0  0  0  0
  193.0900  177.1680  139.8100 C   0  0  0  0  0  2  0  0  0  0  0  0
  194.2880  175.5250  138.4430 C   0  0  0  0  0  1  0  0  0  0  0  0
  193.0760  176.4370  138.4710 C   0  0  1  0  0  3  0  0  0  0  0  0
  191.8580  178.0490  139.9660 C   0  0  0  0  0  2  0  0  0  0  0  0
  190.4290  178.4410  142.6030 C   0  0  0  0  0  3  0  0  0  0  0  0
  190.4490  176.9300  142.4360 C   0  0  2  0  0  0  0  0  0  0  0  0
  189.1910  176.3670  141.8210 C   0  0  0  0  0  2  0  0  0  0  0  0
  190.9150  176.1990  143.6650 C   0  0  0  0  0  2  0  0  0  0  0  0
  192.0270  175.8990  146.3240 C   0  0  0  0  0  1  0  0  0  0  0  0
  191.7200  177.1890  145.7630 N   0  0  0  0  0  0  0  0  0  0  0  0
  191.2200  177.3320  144.5860 C   0  0  0  0  0  0  0  0  0  0  0  0
  190.5220  176.2250  141.0890 C   0  0  1  0  0  3  0  0  0  0  0  0
  190.9410  178.6860  144.0180 C   0  0  0  0  0  3  0  0  0  0  0  0
  187.2120  175.3750  136.6840 C   0  0  2  0  0  3  0  0  0  0  0  0
  186.0140  176.1510  136.7810 O   0  0  0  0  0  0  0  0  0  0  0  0
  186.2440  177.5020  136.4000 C   0  0  0  0  0  2  0  0  0  0  0  0
  186.6000  178.4120  137.6090 C   0  0  2  0  0  3  0  0  0  0  0  0
  187.9240  178.0730  138.3420 C   0  0  0  0  0  2  0  0  0  0  0  0
  189.2180  175.6850  138.4120 C   0  0  1  0  0  3  0  0  0  0  0  0
  187.9910  176.5750  138.5750 C   0  0  2  0  0  3  0  0  0  0  0  0
  188.4400  176.1230  137.1970 C   0  0  2  0  0  3  0  0  0  0  0  0
  185.4220  178.6520  138.5580 C   0  0  0  0  0  2  0  0  0  0  0  0
  185.8430  178.7390  140.0160 C   0  0  0  0  0  1  0  0  0  0  0  0
  187.4760  173.3940  135.1960 C   0  0  0  0  0  1  0  0  0  0  0  0
  187.4480  174.9090  135.2560 C   0  0  0  0  0  2  0  0  0  0  0  0
  191.6750  175.0330  136.8370 C   0  0  2  0  0  3  0  0  0  0  0  0
  191.6260  176.0360  135.6820 C   0  0  2  0  0  3  0  0  0  0  0  0
  190.6250  175.7150  134.7630 O   0  0  0  0  0  1  0  0  0  0  0  0
  192.9670  176.0870  134.9740 C   0  0  0  0  0  1  0  0  0  0  0  0
  190.8990  173.7190  136.6740 C   0  0  0  0  0  2  0  0  0  0  0  0
  191.6550  172.6770  135.8670 C   0  0  0  0  0  2  0  0  0  0  0  0
  193.1230  172.6740  136.2540 C   0  0  0  0  0  2  0  0  0  0  0  0
  193.6460  171.3060  136.2690 C   0  0  0  0  0  0  0  0  0  0  0  0
  194.0750  170.1780  136.2820 C   0  0  0  0  0  3  0  0  0  0  0  0
  1 29  1  6  0  0  0
  1  6  1  0  0  0  0
  1  2  1  0  0  0  0
  2 22  1  1  0  0  0
  2  3  1  0  0  0  0
  3  7  1  6  0  0  0
  3 15  1  0  0  0  0
  4  7  1  0  0  0  0
  6  5  1  1  0  0  0
  6  4  1  0  0  0  0
  8 16  2  0  0  0  0
  9 10  1  1  0  0  0
  9  8  1  0  0  0  0
  9 11  1  0  0  0  0
 11 14  1  0  0  0  0
 13 12  1  0  0  0  0
 14 13  2  0  0  0  0
 15 10  1  6  0  0  0
 15  9  1  0  0  0  0
 16 14  1  0  0  0  0
 17 28  1  6  0  0  0
 17 18  1  0  0  0  0
 17 24  1  0  0  0  0
 19 18  1  0  0  0  0
 19 20  1  0  0  0  0
 20 21  1  0  0  0  0
 20 25  1  1  0  0  0
 21 23  1  0  0  0  0
 22 23  1  0  0  0  0
 24 22  1  0  0  0  0
 24 23  1  0  0  0  0
 25 26  1  0  0  0  0
 27 28  1  0  0  0  0
 30 29  1  0  0  0  0
 31 30  1  0  0  0  0
 32 30  1  0  0  0  0
 33 29  1  0  0  0  0
 34 35  1  0  0  0  0
 34 33  1  0  0  0  0
 35 36  1  0  0  0  0
 36 37  3  0  0  0  0
M  END
>  <MODEL>
2

>  <REMARK>
 VINA RESULT:      -4.1      3.405      7.155
  Name = 
  10 active torsions:
  status: ('A' for Active; 'I' for Inactive)
    1  A    between atoms: C_1  and  C_23
    2  A    between atoms: C_3  and  C_30
    3  A    between atoms: C_4  and  C_13
    4  A    between atoms: C_9  and  C_13
    5  A    between atoms: C_9  and  C_16
    6  A    between atoms: C_10  and  C_29
    7  A    between atoms: C_11  and  C_26
    8  A    between atoms: C_13  and  C_20
    9  A    between atoms: C_14  and  C_31
   10  A    between atoms: C_16  and  C_30
                            x       y       z     vdW  Elec       q    Type
                         _______ _______ _______ _____ _____    ______ ____

>  <TORSDO>
F 10

$$$$
=
 OpenBabel10272414453D

 37 41  0  0  1  0  0  0  0  0999 V2000
  190.4940  176.7800  138.5680 C   0  0  2  0  0  3  0  0  0  0  0  0
  190.2440  175.5310  137.6890 C   0  0  2  0  0  3  0  0  0  0  0  0
  191.5300  175.0160  137.0150 C   0  0  2  0  0  3  0  0  0  0  0  0
  192.9100  176.0070  138.8530 C   0  0  0  0  0  2  0  0  0  0  0  0
  192.0730  177.8680  140.2110 C   0  0  0  0  0  1  0  0  0  0  0  0
  191.6710  176.5630  139.5480 C   0  0  1  0  0  3  0  0  0  0  0  0
  192.5820  174.7350  138.0840 C   0  0  0  0  0  2  0  0  0  0  0  0
  194.3120  174.5170  136.0970 C   0  0  0  0  0  3  0  0  0  0  0  0
  193.4990  175.6730  135.5370 C   0  0  2  0  0  0  0  0  0  0  0  0
  192.3550  175.2430  134.6510 C   0  0  0  0  0  2  0  0  0  0  0  0
  194.3450  176.7750  134.9600 C   0  0  0  0  0  2  0  0  0  0  0  0
  196.7820  178.2180  134.3470 C   0  0  0  0  0  1  0  0  0  0  0  0
  196.7970  176.9130  134.9560 N   0  0  0  0  0  0  0  0  0  0  0  0
  195.7200  176.2610  135.2260 C   0  0  0  0  0  0  0  0  0  0  0  0
  192.0680  175.9860  135.9520 C   0  0  1  0  0  3  0  0  0  0  0  0
  195.7660  174.9220  135.8870 C   0  0  0  0  0  3  0  0  0  0  0  0
  186.4870  175.4990  136.4600 C   0  0  2  0  0  3  0  0  0  0  0  0
  185.8880  174.3030  135.9540 O   0  0  0  0  0  0  0  0  0  0  0  0
  186.0070  173.2340  136.8840 C   0  0  0  0  0  2  0  0  0  0  0  0
  187.2760  172.3690  136.6410 C   0  0  2  0  0  3  0  0  0  0  0  0
  188.6340  173.0930  136.8350 C   0  0  0  0  0  2  0  0  0  0  0  0
  189.1340  175.7580  136.6550 C   0  0  1  0  0  3  0  0  0  0  0  0
  188.5820  174.4370  136.1320 C   0  0  2  0  0  3  0  0  0  0  0  0
  187.8140  175.2380  137.1680 C   0  0  2  0  0  3  0  0  0  0  0  0
  187.2070  171.5340  135.3600 C   0  0  0  0  0  2  0  0  0  0  0  0
  188.5420  170.9130  134.9840 C   0  0  0  0  0  1  0  0  0  0  0  0
  184.8430  177.3610  136.6540 C   0  0  0  0  0  1  0  0  0  0  0  0
  185.5390  176.2350  137.3940 C   0  0  0  0  0  2  0  0  0  0  0  0
  189.1890  177.1770  139.2870 C   0  0  2  0  0  3  0  0  0  0  0  0
  188.6260  178.5600  138.9470 C   0  0  2  0  0  3  0  0  0  0  0  0
  187.2330  178.5420  138.8650 O   0  0  0  0  0  1  0  0  0  0  0  0
  189.2060  179.0530  137.6350 C   0  0  0  0  0  1  0  0  0  0  0  0
  188.9750  176.6500  140.7130 C   0  0  0  0  0  2  0  0  0  0  0  0
  188.6010  177.7420  141.7010 C   0  0  0  0  0  2  0  0  0  0  0  0
  189.5910  177.7720  142.8520 C   0  0  0  0  0  2  0  0  0  0  0  0
  188.8890  177.6910  144.1350 C   0  0  0  0  0  0  0  0  0  0  0  0
  188.3100  177.6210  145.1910 C   0  0  0  0  0  3  0  0  0  0  0  0
  1 29  1  1  0  0  0
  1  6  1  0  0  0  0
  2 22  1  6  0  0  0
  2  1  1  0  0  0  0
  3  2  1  0  0  0  0
  3  7  1  1  0  0  0
  4  6  1  0  0  0  0
  6  5  1  6  0  0  0
  7  4  1  0  0  0  0
  9 10  1  6  0  0  0
  9 15  1  0  0  0  0
  9  8  1  0  0  0  0
 11 14  1  0  0  0  0
 11  9  1  0  0  0  0
 12 13  1  0  0  0  0
 13 14  2  0  0  0  0
 14 16  1  0  0  0  0
 15 10  1  6  0  0  0
 15  3  1  0  0  0  0
 16  8  2  0  0  0  0
 17 24  1  0  0  0  0
 17 28  1  1  0  0  0
 18 17  1  0  0  0  0
 18 19  1  0  0  0  0
 20 25  1  6  0  0  0
 20 21  1  0  0  0  0
 20 19  1  0  0  0  0
 22 24  1  0  0  0  0
 23 22  1  0  0  0  0
 23 21  1  0  0  0  0
 23 24  1  0  0  0  0
 26 25  1  0  0  0  0
 27 28  1  0  0  0  0
 29 33  1  0  0  0  0
 30 29  1  0  0  0  0
 31 30  1  0  0  0  0
 32 30  1  0  0  0  0
 33 34  1  0  0  0  0
 34 35  1  0  0  0  0
 35 36  1  0  0  0  0
 36 37  3  0  0  0  0
M  END
>  <MODEL>
3

>  <REMARK>
 VINA RESULT:      -4.1      1.851      2.772
  Name = 
  10 active torsions:
  status: ('A' for Active; 'I' for Inactive)
    1  A    between atoms: C_1  and  C_23
    2  A    between atoms: C_3  and  C_30
    3  A    between atoms: C_4  and  C_13
    4  A    between atoms: C_9  and  C_13
    5  A    between atoms: C_9  and  C_16
    6  A    between atoms: C_10  and  C_29
    7  A    between atoms: C_11  and  C_26
    8  A    between atoms: C_13  and  C_20
    9  A    between atoms: C_14  and  C_31
   10  A    between atoms: C_16  and  C_30
                            x       y       z     vdW  Elec       q    Type
                         _______ _______ _______ _____ _____    ______ ____

>  <TORSDO>
F 10

$$$$
=
 OpenBabel10272414453D

 37 41  0  0  1  0  0  0  0  0999 V2000
  187.2990  176.7900  137.8210 C   0  0  2  0  0  3  0  0  0  0  0  0
  187.8480  175.7230  136.8440 C   0  0  2  0  0  3  0  0  0  0  0  0
  186.7280  174.9480  136.1240 C   0  0  2  0  0  3  0  0  0  0  0  0
  185.1800  176.8960  136.4010 C   0  0  0  0  0  2  0  0  0  0  0  0
  185.5290  178.5570  138.1680 C   0  0  0  0  0  1  0  0  0  0  0  0
  186.2450  177.6970  137.1440 C   0  0  1  0  0  3  0  0  0  0  0  0
  185.8140  175.9350  135.4040 C   0  0  0  0  0  2  0  0  0  0  0  0
  184.7530  173.1370  134.8410 C   0  0  0  0  0  3  0  0  0  0  0  0
  184.9310  173.1560  136.3510 C   0  0  2  0  0  0  0  0  0  0  0  0
  186.2460  172.5790  136.8160 C   0  0  0  0  0  2  0  0  0  0  0  0
  183.7330  172.6420  137.1010 C   0  0  0  0  0  2  0  0  0  0  0  0
  181.0160  171.6990  137.4540 C   0  0  0  0  0  1  0  0  0  0  0  0
  181.5830  171.9310  136.1510 N   0  0  0  0  0  0  0  0  0  0  0  0
  182.7910  172.3430  135.9840 C   0  0  0  0  0  0  0  0  0  0  0  0
  185.9270  174.0490  137.0770 C   0  0  1  0  0  3  0  0  0  0  0  0
  183.3420  172.6050  134.6190 C   0  0  0  0  0  3  0  0  0  0  0  0
  191.4210  174.1300  137.4120 C   0  0  2  0  0  3  0  0  0  0  0  0
  191.8970  173.0720  136.5750 O   0  0  0  0  0  0  0  0  0  0  0  0
  191.8430  173.4370  135.2020 C   0  0  0  0  0  2  0  0  0  0  0  0
  190.5140  173.0020  134.5200 C   0  0  2  0  0  3  0  0  0  0  0  0
  189.2260  173.6730  135.0650 C   0  0  0  0  0  2  0  0  0  0  0  0
  188.8340  174.7630  137.5230 C   0  0  1  0  0  3  0  0  0  0  0  0
  189.2540  173.6400  136.5820 C   0  0  2  0  0  3  0  0  0  0  0  0
  190.1800  174.8140  136.8450 C   0  0  2  0  0  3  0  0  0  0  0  0
  190.3870  171.4870  134.3470 C   0  0  0  0  0  2  0  0  0  0  0  0
  188.9480  171.0010  134.4100 C   0  0  0  0  0  1  0  0  0  0  0  0
  191.9690  176.5600  137.4410 C   0  0  0  0  0  1  0  0  0  0  0  0
  192.5100  175.1610  137.6640 C   0  0  0  0  0  2  0  0  0  0  0  0
  188.4700  177.5910  138.4260 C   0  0  2  0  0  3  0  0  0  0  0  0
  189.2510  178.4790  137.4550 C   0  0  2  0  0  3  0  0  0  0  0  0
  188.9660  179.8320  137.6520 O   0  0  0  0  0  1  0  0  0  0  0  0
  188.9340  178.0960  136.0230 C   0  0  0  0  0  1  0  0  0  0  0  0
  189.2410  176.9510  139.5880 C   0  0  0  0  0  2  0  0  0  0  0  0
  189.3300  177.8490  140.8110 C   0  0  0  0  0  2  0  0  0  0  0  0
  187.9450  178.3120  141.2250 C   0  0  0  0  0  2  0  0  0  0  0  0
  187.5830  177.7450  142.5260 C   0  0  0  0  0  0  0  0  0  0  0  0
  187.2840  177.2770  143.5970 C   0  0  0  0  0  3  0  0  0  0  0  0
  1 29  1  6  0  0  0
  2 22  1  1  0  0  0
  2  1  1  0  0  0  0
  3  7  1  1  0  0  0
  3  2  1  0  0  0  0
  3 15  1  0  0  0  0
  4  6  1  0  0  0  0
  6  1  1  0  0  0  0
  6  5  1  1  0  0  0
  7  4  1  0  0  0  0
  9  8  1  6  0  0  0
  9 10  1  0  0  0  0
  9 15  1  0  0  0  0
  9 11  1  0  0  0  0
 13 12  1  0  0  0  0
 14 13  2  0  0  0  0
 14 11  1  0  0  0  0
 15 10  1  6  0  0  0
 16  8  2  0  0  0  0
 16 14  1  0  0  0  0
 17 28  1  6  0  0  0
 18 17  1  0  0  0  0
 19 18  1  0  0  0  0
 20 25  1  1  0  0  0
 20 21  1  0  0  0  0
 20 19  1  0  0  0  0
 21 23  1  0  0  0  0
 23 24  1  0  0  0  0
 23 22  1  0  0  0  0
 24 17  1  0  0  0  0
 24 22  1  0  0  0  0
 25 26  1  0  0  0  0
 27 28  1  0  0  0  0
 29 33  1  0  0  0  0
 30 31  1  0  0  0  0
 30 29  1  0  0  0  0
 32 30  1  0  0  0  0
 33 34  1  0  0  0  0
 34 35  1  0  0  0  0
 35 36  1  0  0  0  0
 36 37  3  0  0  0  0
M  END
>  <MODEL>
4

>  <REMARK>
 VINA RESULT:      -3.9      3.311      6.647
  Name = 
  10 active torsions:
  status: ('A' for Active; 'I' for Inactive)
    1  A    between atoms: C_1  and  C_23
    2  A    between atoms: C_3  and  C_30
    3  A    between atoms: C_4  and  C_13
    4  A    between atoms: C_9  and  C_13
    5  A    between atoms: C_9  and  C_16
    6  A    between atoms: C_10  and  C_29
    7  A    between atoms: C_11  and  C_26
    8  A    between atoms: C_13  and  C_20
    9  A    between atoms: C_14  and  C_31
   10  A    between atoms: C_16  and  C_30
                            x       y       z     vdW  Elec       q    Type
                         _______ _______ _______ _____ _____    ______ ____

>  <TORSDO>
F 10

$$$$
=
 OpenBabel10272414453D

 37 41  0  0  1  0  0  0  0  0999 V2000
  186.5610  177.8860  139.5410 C   0  0  2  0  0  3  0  0  0  0  0  0
  186.2960  178.4140  140.9720 C   0  0  2  0  0  3  0  0  0  0  0  0
  187.5650  178.4230  141.8430 C   0  0  2  0  0  3  0  0  0  0  0  0
  188.9900  178.6270  139.7960 C   0  0  0  0  0  2  0  0  0  0  0  0
  188.1790  177.8960  137.6020 C   0  0  0  0  0  1  0  0  0  0  0  0
  187.7670  178.5960  138.8840 C   0  0  1  0  0  3  0  0  0  0  0  0
  188.6490  179.2400  141.1480 C   0  0  0  0  0  2  0  0  0  0  0  0
  189.2720  178.1810  144.2640 C   0  0  0  0  0  3  0  0  0  0  0  0
  188.9370  176.9630  143.4170 C   0  0  2  0  0  0  0  0  0  0  0  0
  187.4920  176.5370  143.5050 C   0  0  0  0  0  2  0  0  0  0  0  0
  189.9220  175.8370  143.5750 C   0  0  0  0  0  2  0  0  0  0  0  0
  192.3460  174.5240  144.4710 C   0  0  0  0  0  1  0  0  0  0  0  0
  191.9800  175.8440  144.9150 N   0  0  0  0  0  0  0  0  0  0  0  0
  190.9030  176.4330  144.5280 C   0  0  0  0  0  0  0  0  0  0  0  0
  188.0650  177.0080  142.1710 C   0  0  1  0  0  3  0  0  0  0  0  0
  190.5650  177.8160  144.9820 C   0  0  0  0  0  3  0  0  0  0  0  0
  182.7760  178.1830  142.7570 C   0  0  2  0  0  3  0  0  0  0  0  0
  182.6380  178.4660  144.1520 O   0  0  0  0  0  0  0  0  0  0  0  0
  183.1580  179.7510  144.4710 C   0  0  0  0  0  2  0  0  0  0  0  0
  184.6470  179.7000  144.9130 C   0  0  2  0  0  3  0  0  0  0  0  0
  185.6560  179.2230  143.8360 C   0  0  0  0  0  2  0  0  0  0  0  0
  185.1540  177.6630  141.6680 C   0  0  1  0  0  3  0  0  0  0  0  0
  185.1050  177.9820  143.1580 C   0  0  2  0  0  3  0  0  0  0  0  0
  184.1240  178.6300  142.1970 C   0  0  2  0  0  3  0  0  0  0  0  0
  184.8550  179.0380  146.2780 C   0  0  0  0  0  2  0  0  0  0  0  0
  186.2920  178.6040  146.5150 C   0  0  0  0  0  1  0  0  0  0  0  0
  180.3060  178.4440  142.5570 C   0  0  0  0  0  1  0  0  0  0  0  0
  181.6490  178.8140  141.9560 C   0  0  0  0  0  2  0  0  0  0  0  0
  185.2740  178.0010  138.6990 C   0  0  2  0  0  3  0  0  0  0  0  0
  185.0010  176.8510  137.7260 C   0  0  2  0  0  3  0  0  0  0  0  0
  184.9060  177.3030  136.4080 O   0  0  0  0  0  1  0  0  0  0  0  0
  183.7220  176.1330  138.1090 C   0  0  0  0  0  1  0  0  0  0  0  0
  184.8170  179.4070  138.2880 C   0  0  0  0  0  2  0  0  0  0  0  0
  183.6380  179.9120  139.1030 C   0  0  0  0  0  2  0  0  0  0  0  0
  182.3360  179.6220  138.3800 C   0  0  0  0  0  2  0  0  0  0  0  0
  181.5560  180.8510  138.2140 C   0  0  0  0  0  0  0  0  0  0  0  0
  180.9150  181.8630  138.0750 C   0  0  0  0  0  3  0  0  0  0  0  0
  1 29  1  6  0  0  0
  1  2  1  0  0  0  0
  2 22  1  1  0  0  0
  2  3  1  0  0  0  0
  3  7  1  6  0  0  0
  3 15  1  0  0  0  0
  4  7  1  0  0  0  0
  6  5  1  6  0  0  0
  6  1  1  0  0  0  0
  6  4  1  0  0  0  0
  8 16  2  0  0  0  0
  9 10  1  1  0  0  0
  9 11  1  0  0  0  0
  9  8  1  0  0  0  0
 11 14  1  0  0  0  0
 12 13  1  0  0  0  0
 14 13  2  0  0  0  0
 14 16  1  0  0  0  0
 15  9  1  0  0  0  0
 15 10  1  1  0  0  0
 17 28  1  6  0  0  0
 17 18  1  0  0  0  0
 18 19  1  0  0  0  0
 19 20  1  0  0  0  0
 20 25  1  1  0  0  0
 21 20  1  0  0  0  0
 22 24  1  0  0  0  0
 22 23  1  0  0  0  0
 23 21  1  0  0  0  0
 24 17  1  0  0  0  0
 24 23  1  0  0  0  0
 25 26  1  0  0  0  0
 28 27  1  0  0  0  0
 30 32  1  0  0  0  0
 30 29  1  0  0  0  0
 31 30  1  0  0  0  0
 33 29  1  0  0  0  0
 33 34  1  0  0  0  0
 35 34  1  0  0  0  0
 36 35  1  0  0  0  0
 37 36  3  0  0  0  0
M  END
>  <MODEL>
5

>  <REMARK>
 VINA RESULT:      -3.8      4.876      8.308
  Name = 
  10 active torsions:
  status: ('A' for Active; 'I' for Inactive)
    1  A    between atoms: C_1  and  C_23
    2  A    between atoms: C_3  and  C_30
    3  A    between atoms: C_4  and  C_13
    4  A    between atoms: C_9  and  C_13
    5  A    between atoms: C_9  and  C_16
    6  A    between atoms: C_10  and  C_29
    7  A    between atoms: C_11  and  C_26
    8  A    between atoms: C_13  and  C_20
    9  A    between atoms: C_14  and  C_31
   10  A    between atoms: C_16  and  C_30
                            x       y       z     vdW  Elec       q    Type
                         _______ _______ _______ _____ _____    ______ ____

>  <TORSDO>
F 10

$$$$
=
 OpenBabel10272414453D

 37 41  0  0  1  0  0  0  0  0999 V2000
  182.8760  176.8450  138.5880 C   0  0  2  0  0  3  0  0  0  0  0  0
  183.8980  176.5700  137.4590 C   0  0  2  0  0  3  0  0  0  0  0  0
  183.4380  175.4530  136.5040 C   0  0  2  0  0  3  0  0  0  0  0  0
  181.0460  175.9470  137.0520 C   0  0  0  0  0  2  0  0  0  0  0  0
  180.4230  177.0500  139.1500 C   0  0  0  0  0  1  0  0  0  0  0  0
  181.4480  177.0460  138.0310 C   0  0  1  0  0  3  0  0  0  0  0  0
  182.0690  175.8100  135.9330 C   0  0  0  0  0  2  0  0  0  0  0  0
  184.8310  173.2710  135.0450 C   0  0  0  0  0  3  0  0  0  0  0  0
  184.1370  173.0070  136.3720 C   0  0  2  0  0  0  0  0  0  0  0  0
  184.8250  173.6400  137.5570 C   0  0  0  0  0  2  0  0  0  0  0  0
  183.7640  171.5640  136.5750 C   0  0  0  0  0  2  0  0  0  0  0  0
  183.4030  168.7800  135.8530 C   0  0  0  0  0  1  0  0  0  0  0  0
  184.0540  169.7200  134.9780 N   0  0  0  0  0  0  0  0  0  0  0  0
  184.2250  170.9560  135.2920 C   0  0  0  0  0  0  0  0  0  0  0  0
  183.4120  174.0740  137.1790 C   0  0  1  0  0  3  0  0  0  0  0  0
  184.8760  171.9160  134.3490 C   0  0  0  0  0  3  0  0  0  0  0  0
  187.5890  177.5890  138.4400 C   0  0  2  0  0  3  0  0  0  0  0  0
  188.6280  177.6290  137.4570 O   0  0  0  0  0  0  0  0  0  0  0  0
  188.2680  178.4600  136.3610 C   0  0  0  0  0  2  0  0  0  0  0  0
  187.5900  177.6670  135.2070 C   0  0  2  0  0  3  0  0  0  0  0  0
  186.2280  177.0100  135.5500 C   0  0  0  0  0  2  0  0  0  0  0  0
  185.3040  176.2870  138.0010 C   0  0  1  0  0  3  0  0  0  0  0  0
  186.3440  176.3000  136.8860 C   0  0  2  0  0  3  0  0  0  0  0  0
  186.1980  177.4880  137.8200 C   0  0  2  0  0  3  0  0  0  0  0  0
  188.5490  176.7330  134.4650 C   0  0  0  0  0  2  0  0  0  0  0  0
  189.9640  177.2810  134.3800 C   0  0  0  0  0  1  0  0  0  0  0  0
  188.1410  178.3800  140.7370 C   0  0  0  0  0  1  0  0  0  0  0  0
  187.6600  178.7970  139.3600 C   0  0  0  0  0  2  0  0  0  0  0  0
  183.3540  178.0370  139.4420 C   0  0  2  0  0  3  0  0  0  0  0  0
  183.4740  179.3800  138.7160 C   0  0  2  0  0  3  0  0  0  0  0  0
  184.5320  180.1420  139.2150 O   0  0  0  0  0  1  0  0  0  0  0  0
  182.1800  180.1620  138.8430 C   0  0  0  0  0  1  0  0  0  0  0  0
  184.3480  177.7470  140.5740 C   0  0  0  0  0  2  0  0  0  0  0  0
  183.9110  178.3220  141.9120 C   0  0  0  0  0  2  0  0  0  0  0  0
  185.0550  178.2610  142.9090 C   0  0  0  0  0  2  0  0  0  0  0  0
  184.5720  178.5510  144.2610 C   0  0  0  0  0  0  0  0  0  0  0  0
  184.1760  178.7900  145.3750 C   0  0  0  0  0  3  0  0  0  0  0  0
  1 29  1  6  0  0  0
  2 22  1  1  0  0  0
  2  1  1  0  0  0  0
  3  7  1  1  0  0  0
  3 15  1  0  0  0  0
  3  2  1  0  0  0  0
  4  6  1  0  0  0  0
  6  1  1  0  0  0  0
  6  5  1  1  0  0  0
  7  4  1  0  0  0  0
  9  8  1  6  0  0  0
  9 11  1  0  0  0  0
  9 15  1  0  0  0  0
  9 10  1  0  0  0  0
 13 14  2  0  0  0  0
 13 12  1  0  0  0  0
 14 11  1  0  0  0  0
 15 10  1  1  0  0  0
 16  8  2  0  0  0  0
 16 14  1  0  0  0  0
 17 28  1  6  0  0  0
 18 17  1  0  0  0  0
 19 18  1  0  0  0  0
 20 25  1  1  0  0  0
 20 21  1  0  0  0  0
 20 19  1  0  0  0  0
 21 23  1  0  0  0  0
 23 24  1  0  0  0  0
 23 22  1  0  0  0  0
 24 22  1  0  0  0  0
 24 17  1  0  0  0  0
 26 25  1  0  0  0  0
 28 27  1  0  0  0  0
 29 33  1  0  0  0  0
 30 32  1  0  0  0  0
 30 31  1  0  0  0  0
 30 29  1  0  0  0  0
 33 34  1  0  0  0  0
 34 35  1  0  0  0  0
 35 36  1  0  0  0  0
 36 37  3  0  0  0  0
M  END
>  <MODEL>
6

>  <REMARK>
 VINA RESULT:      -3.7      3.949      7.654
  Name = 
  10 active torsions:
  status: ('A' for Active; 'I' for Inactive)
    1  A    between atoms: C_1  and  C_23
    2  A    between atoms: C_3  and  C_30
    3  A    between atoms: C_4  and  C_13
    4  A    between atoms: C_9  and  C_13
    5  A    between atoms: C_9  and  C_16
    6  A    between atoms: C_10  and  C_29
    7  A    between atoms: C_11  and  C_26
    8  A    between atoms: C_13  and  C_20
    9  A    between atoms: C_14  and  C_31
   10  A    between atoms: C_16  and  C_30
                            x       y       z     vdW  Elec       q    Type
                         _______ _______ _______ _____ _____    ______ ____

>  <TORSDO>
F 10

$$$$
=
 OpenBabel10272414453D

 37 41  0  0  1  0  0  0  0  0999 V2000
  185.9550  176.8590  136.2640 C   0  0  2  0  0  3  0  0  0  0  0  0
  186.3570  177.0000  137.7510 C   0  0  2  0  0  3  0  0  0  0  0  0
  185.1740  177.4090  138.6480 C   0  0  2  0  0  3  0  0  0  0  0  0
  183.5690  176.3730  137.0300 C   0  0  0  0  0  2  0  0  0  0  0  0
  184.1660  176.0520  134.6750 C   0  0  0  0  0  1  0  0  0  0  0  0
  184.7020  175.9680  136.0920 C   0  0  1  0  0  3  0  0  0  0  0  0
  184.0410  176.4020  138.4780 C   0  0  0  0  0  2  0  0  0  0  0  0
  182.8390  178.3190  140.2440 C   0  0  0  0  0  3  0  0  0  0  0  0
  183.4870  179.2320  139.2150 C   0  0  2  0  0  0  0  0  0  0  0  0
  184.8630  179.7130  139.6060 C   0  0  0  0  0  2  0  0  0  0  0  0
  182.5720  180.3190  138.7200 C   0  0  0  0  0  2  0  0  0  0  0  0
  180.0790  181.7610  138.3990 C   0  0  0  0  0  1  0  0  0  0  0  0
  180.2110  180.6520  139.3080 N   0  0  0  0  0  0  0  0  0  0  0  0
  181.3160  180.0100  139.4620 C   0  0  0  0  0  0  0  0  0  0  0  0
  184.6880  178.8390  138.3670 C   0  0  1  0  0  3  0  0  0  0  0  0
  181.4150  178.8420  140.3910 C   0  0  0  0  0  3  0  0  0  0  0  0
  190.1030  177.8330  138.7030 C   0  0  2  0  0  3  0  0  0  0  0  0
  190.4890  178.0360  140.0650 O   0  0  0  0  0  0  0  0  0  0  0  0
  190.1130  176.9310  140.8770 C   0  0  0  0  0  2  0  0  0  0  0  0
  188.7170  177.1210  141.5360 C   0  0  2  0  0  3  0  0  0  0  0  0
  187.5150  177.2030  140.5590 C   0  0  0  0  0  2  0  0  0  0  0  0
  187.5490  177.9470  137.9450 C   0  0  1  0  0  3  0  0  0  0  0  0
  187.8650  178.1470  139.4230 C   0  0  2  0  0  3  0  0  0  0  0  0
  188.7120  177.2180  138.5710 C   0  0  2  0  0  3  0  0  0  0  0  0
  188.6980  178.2020  142.6200 C   0  0  0  0  0  2  0  0  0  0  0  0
  189.7910  178.0180  143.6600 C   0  0  0  0  0  1  0  0  0  0  0  0
  190.4170  175.8680  137.2040 C   0  0  0  0  0  1  0  0  0  0  0  0
  191.1190  176.9750  137.9670 C   0  0  0  0  0  2  0  0  0  0  0  0
  187.1600  176.3520  135.4460 C   0  0  2  0  0  3  0  0  0  0  0  0
  187.6750  177.2910  134.3520 C   0  0  2  0  0  3  0  0  0  0  0  0
  189.0290  177.5850  134.5220 O   0  0  0  0  0  1  0  0  0  0  0  0
  186.8730  178.5780  134.3460 C   0  0  0  0  0  1  0  0  0  0  0  0
  187.2640  174.8410  135.1970 C   0  0  0  0  0  2  0  0  0  0  0  0
  187.8230  174.0790  136.3870 C   0  0  0  0  0  2  0  0  0  0  0  0
  187.2040  172.6950  136.4630 C   0  0  0  0  0  2  0  0  0  0  0  0
  185.9130  172.7470  137.1530 C   0  0  0  0  0  0  0  0  0  0  0  0
  184.8490  172.7890  137.7200 C   0  0  0  0  0  3  0  0  0  0  0  0
  1 29  1  6  0  0  0
  1  2  1  0  0  0  0
  2 22  1  6  0  0  0
  2  3  1  0  0  0  0
  3  7  1  6  0  0  0
  4  7  1  0  0  0  0
  6  5  1  6  0  0  0
  6  1  1  0  0  0  0
  6  4  1  0  0  0  0
  8 16  2  0  0  0  0
  9 11  1  6  0  0  0
  9 10  1  0  0  0  0
  9  8  1  0  0  0  0
 11 14  1  0  0  0  0
 12 13  1  0  0  0  0
 13 14  2  0  0  0  0
 14 16  1  0  0  0  0
 15  3  1  0  0  0  0
 15  9  1  0  0  0  0
 15 10  1  1  0  0  0
 17 28  1  1  0  0  0
 17 18  1  0  0  0  0
 18 19  1  0  0  0  0
 19 20  1  0  0  0  0
 20 25  1  6  0  0  0
 21 20  1  0  0  0  0
 22 24  1  0  0  0  0
 22 23  1  0  0  0  0
 23 21  1  0  0  0  0
 24 17  1  0  0  0  0
 24 23  1  0  0  0  0
 25 26  1  0  0  0  0
 27 28  1  0  0  0  0
 30 31  1  0  0  0  0
 30 29  1  0  0  0  0
 32 30  1  0  0  0  0
 33 29  1  0  0  0  0
 33 34  1  0  0  0  0
 34 35  1  0  0  0  0
 35 36  1  0  0  0  0
 36 37  3  0  0  0  0
M  END
>  <MODEL>
7

>  <REMARK>
 VINA RESULT:      -3.6      3.746      8.632
  Name = 
  10 active torsions:
  status: ('A' for Active; 'I' for Inactive)
    1  A    between atoms: C_1  and  C_23
    2  A    between atoms: C_3  and  C_30
    3  A    between atoms: C_4  and  C_13
    4  A    between atoms: C_9  and  C_13
    5  A    between atoms: C_9  and  C_16
    6  A    between atoms: C_10  and  C_29
    7  A    between atoms: C_11  and  C_26
    8  A    between atoms: C_13  and  C_20
    9  A    between atoms: C_14  and  C_31
   10  A    between atoms: C_16  and  C_30
                            x       y       z     vdW  Elec       q    Type
                         _______ _______ _______ _____ _____    ______ ____

>  <TORSDO>
F 10

$$$$
=
 OpenBabel10272414453D

 37 41  0  0  1  0  0  0  0  0999 V2000
  186.6010  177.7440  137.7620 C   0  0  2  0  0  3  0  0  0  0  0  0
  186.2080  177.7130  139.2590 C   0  0  2  0  0  3  0  0  0  0  0  0
  184.7190  178.0330  139.4860 C   0  0  2  0  0  3  0  0  0  0  0  0
  184.1740  177.2030  137.1890 C   0  0  0  0  0  2  0  0  0  0  0  0
  185.8710  177.1390  135.4220 C   0  0  0  0  0  1  0  0  0  0  0  0
  185.6400  176.8920  136.9010 C   0  0  1  0  0  3  0  0  0  0  0  0
  183.8660  177.0640  138.6730 C   0  0  0  0  0  2  0  0  0  0  0  0
  181.8410  178.7510  139.6670 C   0  0  0  0  0  3  0  0  0  0  0  0
  182.8810  179.7820  139.2560 C   0  0  2  0  0  0  0  0  0  0  0  0
  183.8030  180.1990  140.3770 C   0  0  0  0  0  2  0  0  0  0  0  0
  182.3070  180.9300  138.4720 C   0  0  0  0  0  2  0  0  0  0  0  0
  180.2870  182.4210  137.0240 C   0  0  0  0  0  1  0  0  0  0  0  0
  179.9820  181.2040  137.7310 N   0  0  0  0  0  0  0  0  0  0  0  0
  180.8700  180.5390  138.3830 C   0  0  0  0  0  0  0  0  0  0  0  0
  184.3710  179.4910  139.1500 C   0  0  1  0  0  3  0  0  0  0  0  0
  180.5300  179.2620  139.0820 C   0  0  0  0  0  3  0  0  0  0  0  0
  188.9080  178.3960  142.0650 C   0  0  2  0  0  3  0  0  0  0  0  0
  188.5340  178.4750  143.4430 O   0  0  0  0  0  0  0  0  0  0  0  0
  187.8270  177.3110  143.8520 C   0  0  0  0  0  2  0  0  0  0  0  0
  186.2870  177.4680  143.7130 C   0  0  2  0  0  3  0  0  0  0  0  0
  185.7550  177.6550  142.2690 C   0  0  0  0  0  2  0  0  0  0  0  0
  187.1030  178.6190  140.1150 C   0  0  1  0  0  3  0  0  0  0  0  0
  186.6100  178.6860  141.5560 C   0  0  2  0  0  3  0  0  0  0  0  0
  187.8000  177.8190  141.1870 C   0  0  2  0  0  3  0  0  0  0  0  0
  185.6820  178.4520  144.7180 C   0  0  0  0  0  2  0  0  0  0  0  0
  186.1650  178.2200  146.1410 C   0  0  0  0  0  1  0  0  0  0  0  0
  190.6520  177.6540  140.4470 C   0  0  0  0  0  1  0  0  0  0  0  0
  190.1830  177.5860  141.8880 C   0  0  0  0  0  2  0  0  0  0  0  0
  188.0750  177.3170  137.6040 C   0  0  2  0  0  3  0  0  0  0  0  0
  189.0180  178.3640  137.0060 C   0  0  2  0  0  3  0  0  0  0  0  0
  188.4610  179.6430  137.0490 O   0  0  0  0  0  1  0  0  0  0  0  0
  189.3560  178.0060  135.5710 C   0  0  0  0  0  1  0  0  0  0  0  0
  188.3570  175.8410  137.2950 C   0  0  0  0  0  2  0  0  0  0  0  0
  189.5270  175.2800  138.0860 C   0  0  0  0  0  2  0  0  0  0  0  0
  190.6740  174.9310  137.1550 C   0  0  0  0  0  2  0  0  0  0  0  0
  191.8190  175.8100  137.4000 C   0  0  0  0  0  0  0  0  0  0  0  0
  192.7640  176.5320  137.6020 C   0  0  0  0  0  3  0  0  0  0  0  0
  1 29  1  1  0  0  0
  1  2  1  0  0  0  0
  2  3  1  0  0  0  0
  2 22  1  1  0  0  0
  3  7  1  6  0  0  0
  4  7  1  0  0  0  0
  6  5  1  6  0  0  0
  6  4  1  0  0  0  0
  6  1  1  0  0  0  0
  9 11  1  6  0  0  0
  9  8  1  0  0  0  0
  9 10  1  0  0  0  0
 12 13  1  0  0  0  0
 13 14  2  0  0  0  0
 14 11  1  0  0  0  0
 14 16  1  0  0  0  0
 15  9  1  0  0  0  0
 15  3  1  0  0  0  0
 15 10  1  1  0  0  0
 16  8  2  0  0  0  0
 17 28  1  1  0  0  0
 17 18  1  0  0  0  0
 18 19  1  0  0  0  0
 20 19  1  0  0  0  0
 20 25  1  1  0  0  0
 21 20  1  0  0  0  0
 22 24  1  0  0  0  0
 22 23  1  0  0  0  0
 23 21  1  0  0  0  0
 24 23  1  0  0  0  0
 24 17  1  0  0  0  0
 25 26  1  0  0  0  0
 27 28  1  0  0  0  0
 30 31  1  0  0  0  0
 30 29  1  0  0  0  0
 32 30  1  0  0  0  0
 33 29  1  0  0  0  0
 33 34  1  0  0  0  0
 35 36  1  0  0  0  0
 35 34  1  0  0  0  0
 36 37  3  0  0  0  0
M  END
>  <MODEL>
8

>  <REMARK>
 VINA RESULT:      -3.4      4.203      9.397
  Name = 
  10 active torsions:
  status: ('A' for Active; 'I' for Inactive)
    1  A    between atoms: C_1  and  C_23
    2  A    between atoms: C_3  and  C_30
    3  A    between atoms: C_4  and  C_13
    4  A    between atoms: C_9  and  C_13
    5  A    between atoms: C_9  and  C_16
    6  A    between atoms: C_10  and  C_29
    7  A    between atoms: C_11  and  C_26
    8  A    between atoms: C_13  and  C_20
    9  A    between atoms: C_14  and  C_31
   10  A    between atoms: C_16  and  C_30
                            x       y       z     vdW  Elec       q    Type
                         _______ _______ _______ _____ _____    ______ ____

>  <TORSDO>
F 10

$$$$
=
 OpenBabel10272414453D

 37 41  0  0  1  0  0  0  0  0999 V2000
  186.4240  177.4680  137.7000 C   0  0  2  0  0  3  0  0  0  0  0  0
  186.0640  177.5660  139.2030 C   0  0  2  0  0  3  0  0  0  0  0  0
  184.6060  178.0030  139.4340 C   0  0  2  0  0  3  0  0  0  0  0  0
  183.9530  177.0600  137.2100 C   0  0  0  0  0  2  0  0  0  0  0  0
  185.6000  176.7600  135.4210 C   0  0  0  0  0  1  0  0  0  0  0  0
  185.3870  176.6300  136.9180 C   0  0  1  0  0  3  0  0  0  0  0  0
  183.6700  177.0430  138.7060 C   0  0  0  0  0  2  0  0  0  0  0  0
  181.8610  179.0330  139.9200 C   0  0  0  0  0  3  0  0  0  0  0  0
  182.9240  179.9100  139.2770 C   0  0  2  0  0  0  0  0  0  0  0  0
  184.0290  180.3210  140.2200 C   0  0  0  0  0  2  0  0  0  0  0  0
  182.3540  181.0420  138.4660 C   0  0  0  0  0  2  0  0  0  0  0  0
  180.2970  182.6080  137.1560 C   0  0  0  0  0  1  0  0  0  0  0  0
  179.9830  181.4940  138.0140 N   0  0  0  0  0  0  0  0  0  0  0  0
  180.8890  180.7970  138.6050 C   0  0  0  0  0  0  0  0  0  0  0  0
  184.3510  179.4560  139.0050 C   0  0  1  0  0  3  0  0  0  0  0  0
  180.5340  179.6270  139.4650 C   0  0  0  0  0  3  0  0  0  0  0  0
  188.9170  178.2360  141.8560 C   0  0  2  0  0  3  0  0  0  0  0  0
  188.6090  178.3920  143.2440 O   0  0  0  0  0  0  0  0  0  0  0  0
  187.8670  177.2830  143.7350 C   0  0  0  0  0  2  0  0  0  0  0  0
  186.3310  177.5090  143.6560 C   0  0  2  0  0  3  0  0  0  0  0  0
  185.7440  177.6600  142.2280 C   0  0  0  0  0  2  0  0  0  0  0  0
  187.0380  178.4620  139.9780 C   0  0  1  0  0  3  0  0  0  0  0  0
  186.6140  178.6160  141.4340 C   0  0  2  0  0  3  0  0  0  0  0  0
  187.7450  177.6770  141.0540 C   0  0  2  0  0  3  0  0  0  0  0  0
  185.8200  178.5650  144.6400 C   0  0  0  0  0  2  0  0  0  0  0  0
  186.2560  178.3020  146.0720 C   0  0  0  0  0  1  0  0  0  0  0  0
  190.5030  177.2780  140.1910 C   0  0  0  0  0  1  0  0  0  0  0  0
  190.1430  177.3570  141.6620 C   0  0  0  0  0  2  0  0  0  0  0  0
  187.8610  176.9310  137.5440 C   0  0  2  0  0  3  0  0  0  0  0  0
  188.7500  177.6660  136.5380 C   0  0  2  0  0  3  0  0  0  0  0  0
  190.0930  177.3150  136.6860 O   0  0  0  0  0  1  0  0  0  0  0  0
  188.5960  179.1660  136.7010 C   0  0  0  0  0  1  0  0  0  0  0  0
  188.0770  175.4210  137.7190 C   0  0  0  0  0  2  0  0  0  0  0  0
  188.1090  174.6680  136.3990 C   0  0  0  0  0  2  0  0  0  0  0  0
  187.6880  173.2240  136.6070 C   0  0  0  0  0  2  0  0  0  0  0  0
  186.3570  173.1610  137.2150 C   0  0  0  0  0  0  0  0  0  0  0  0
  185.2600  173.1070  137.7130 C   0  0  0  0  0  3  0  0  0  0  0  0
  1 29  1  1  0  0  0
  1  2  1  0  0  0  0
  2  3  1  0  0  0  0
  2 22  1  1  0  0  0
  3  7  1  6  0  0  0
  4  7  1  0  0  0  0
  6  5  1  6  0  0  0
  6  4  1  0  0  0  0
  6  1  1  0  0  0  0
  9 11  1  6  0  0  0
  9  8  1  0  0  0  0
  9 10  1  0  0  0  0
 11 14  1  0  0  0  0
 12 13  1  0  0  0  0
 13 14  2  0  0  0  0
 14 16  1  0  0  0  0
 15  9  1  0  0  0  0
 15  3  1  0  0  0  0
 15 10  1  1  0  0  0
 16  8  2  0  0  0  0
 17 28  1  1  0  0  0
 17 18  1  0  0  0  0
 18 19  1  0  0  0  0
 20 19  1  0  0  0  0
 20 25  1  1  0  0  0
 21 20  1  0  0  0  0
 22 24  1  0  0  0  0
 22 23  1  0  0  0  0
 23 21  1  0  0  0  0
 24 23  1  0  0  0  0
 24 17  1  0  0  0  0
 25 26  1  0  0  0  0
 27 28  1  0  0  0  0
 29 33  1  0  0  0  0
 30 31  1  0  0  0  0
 30 32  1  0  0  0  0
 30 29  1  0  0  0  0
 34 35  1  0  0  0  0
 34 33  1  0  0  0  0
 35 36  1  0  0  0  0
 36 37  3  0  0  0  0
M  END
>  <MODEL>
9

>  <REMARK>
 VINA RESULT:      -3.3      4.340      9.354
  Name = 
  10 active torsions:
  status: ('A' for Active; 'I' for Inactive)
    1  A    between atoms: C_1  and  C_23
    2  A    between atoms: C_3  and  C_30
    3  A    between atoms: C_4  and  C_13
    4  A    between atoms: C_9  and  C_13
    5  A    between atoms: C_9  and  C_16
    6  A    between atoms: C_10  and  C_29
    7  A    between atoms: C_11  and  C_26
    8  A    between atoms: C_13  and  C_20
    9  A    between atoms: C_14  and  C_31
   10  A    between atoms: C_16  and  C_30
                            x       y       z     vdW  Elec       q    Type
                         _______ _______ _______ _____ _____    ______ ____

>  <TORSDO>
F 10

$$$$
