=
 OpenBabel10272401163D

 55 61  0  0  1  0  0  0  0  0999 V2000
  187.4910  177.6570  145.1990 C   0  0  0  0  0  2  0  0  0  0  0  0
  186.0180  177.2060  147.0280 O   0  0  0  0  0  1  0  0  0  0  0  0
  185.9490  179.0200  144.0860 C   0  0  1  0  0  3  0  0  0  0  0  0
  185.4120  178.9290  145.4890 C   0  0  0  0  0  2  0  0  0  0  0  0
  186.5440  178.2370  146.2520 C   0  0  2  0  0  3  0  0  0  0  0  0
  186.6940  177.7360  143.9180 C   0  0  1  0  0  3  0  0  0  0  0  0
  185.6110  179.2800  141.7550 C   0  0  1  0  0  3  0  0  0  0  0  0
  184.9320  179.0910  143.0520 N   0  0  0  0  0  2  0  0  0  0  0  0
  187.4490  177.7820  142.6170 C   0  0  0  0  0  0  0  0  0  0  0  0
  186.9100  178.4780  141.5860 C   0  0  0  0  0  0  0  0  0  0  0  0
  184.5520  179.8530  139.5880 N   0  0  0  0  0  0  0  0  0  0  0  0
  182.8460  178.5040  138.5880 C   0  0  0  0  0  0  0  0  0  0  0  0
  183.8370  177.8670  140.7040 C   0  0  0  0  0  3  0  0  0  0  0  0
  182.9340  177.6200  139.6700 C   0  0  0  0  0  3  0  0  0  0  0  0
  183.6780  179.6300  138.5700 C   0  0  0  0  0  3  0  0  0  0  0  0
  184.6490  179.0010  140.6460 C   0  0  0  0  0  0  0  0  0  0  0  0
  181.8940  178.2490  137.4950 C   0  0  0  0  0  0  0  0  0  0  0  0
  180.6860  178.9360  137.4460 O   0  0  0  0  0  1  0  0  0  0  0  0
  182.1630  177.4090  136.5960 O   0  0  0  0  0  0  0  0  0  0  0  0
  190.1910  178.6110  143.1860 O   0  0  0  0  0  0  0  0  0  0  0  0
  188.6520  177.0220  142.4220 N   0  0  0  0  0  2  0  0  0  0  0  0
  189.9810  177.5360  142.5650 C   0  0  0  0  0  0  0  0  0  0  0  0
  191.1380  176.7730  142.0160 C   0  0  0  0  0  2  0  0  0  0  0  0
  191.8280  177.5510  140.9110 C   0  0  0  0  0  2  0  0  0  0  0  0
  190.9350  177.6100  139.6890 C   0  0  0  0  0  2  0  0  0  0  0  0
  190.9790  176.2780  138.9660 C   0  0  0  0  0  2  0  0  0  0  0  0
  190.7550  176.4850  137.4740 C   0  0  0  0  0  2  0  0  0  0  0  0
  193.8690  171.0960  136.2470 C   0  0  0  0  0  0  0  0  0  0  0  0
  196.6070  174.4060  138.4300 F   0  0  0  0  0  0  0  0  0  0  0  0
  194.4890  174.9160  137.5120 C   0  0  0  0  0  0  0  0  0  0  0  0
  192.0350  174.2760  137.3230 C   0  0  0  0  0  2  0  0  0  0  0  0
  191.3610  175.4090  136.5610 C   0  0  2  0  0  3  0  0  0  0  0  0
  196.4470  174.8440  136.2290 F   0  0  0  0  0  0  0  0  0  0  0  0
  195.8200  174.2390  137.3040 C   0  0  0  0  0  0  0  0  0  0  0  0
  193.3340  174.5830  136.5960 C   0  0  1  0  0  0  0  0  0  0  0  0
  192.8270  170.8400  135.5870 O   0  0  0  0  0  0  0  0  0  0  0  0
  192.6930  175.7850  135.9220 C   0  0  0  0  0  2  0  0  0  0  0  0
  194.4720  170.0820  136.9800 O   0  0  0  0  0  1  0  0  0  0  0  0
  195.6220  172.7210  137.0450 C   0  0  1  0  0  3  0  0  0  0  0  0
  193.6930  173.5000  135.5820 C   0  0  0  0  0  2  0  0  0  0  0  0
  194.3610  175.7510  138.3950 O   0  0  0  0  0  0  0  0  0  0  0  0
  194.4200  172.4210  136.2500 N   0  0  0  0  0  0  0  0  0  0  0  0
  196.8500  171.9990  136.4670 C   0  0  1  0  0  3  0  0  0  0  0  0
  197.0160  172.2850  135.1100 O   0  0  0  0  0  1  0  0  0  0  0  0
  198.1170  172.3230  137.2410 C   0  0  0  0  0  2  0  0  0  0  0  0
  198.9660  171.2150  137.2470 O   0  0  0  0  0  1  0  0  0  0  0  0
  187.6060  178.5410  140.2590 C   0  0  0  0  0  2  0  0  0  0  0  0
  187.3850  177.2580  139.4740 C   0  0  0  0  0  2  0  0  0  0  0  0
  187.9630  178.5890  137.3530 C   0  0  0  0  0  3  0  0  0  0  0  0
  185.6240  177.2830  136.0140 C   0  0  2  0  0  3  0  0  0  0  0  0
  186.0480  176.9660  137.4360 C   0  0  0  0  0  3  0  0  0  0  0  0
  187.7990  178.8250  136.0470 C   0  0  0  0  0  3  0  0  0  0  0  0
  187.0950  177.5810  138.0510 C   0  0  0  0  0  0  0  0  0  0  0  0
  186.3850  176.6610  135.0600 C   0  0  0  0  0  2  0  0  0  0  0  0
  186.7740  178.0450  135.4720 N   0  0  0  0  0  0  0  0  0  0  0  0
  1  5  1  0  0  0  0
  3  4  1  1  0  0  0
  4  5  1  0  0  0  0
  5  2  1  1  0  0  0
  6  3  1  0  0  0  0
  6  1  1  1  0  0  0
  7 16  1  6  0  0  0
  7  8  1  0  0  0  0
  8  3  1  0  0  0  0
  9  6  1  0  0  0  0
 10  7  1  0  0  0  0
 10  9  2  0  0  0  0
 11 16  1  0  0  0  0
 12 14  2  0  0  0  0
 14 13  1  0  0  0  0
 15 12  1  0  0  0  0
 15 11  2  0  0  0  0
 16 13  2  0  0  0  0
 17 12  1  0  0  0  0
 18 17  1  0  0  0  0
 19 17  2  0  0  0  0
 21 22  1  0  0  0  0
 21  9  1  0  0  0  0
 22 20  2  0  0  0  0
 23 22  1  0  0  0  0
 24 23  1  0  0  0  0
 25 24  1  0  0  0  0
 26 25  1  0  0  0  0
 27 26  1  0  0  0  0
 28 42  1  0  0  0  0
 28 38  1  0  0  0  0
 30 41  2  0  0  0  0
 32 31  1  0  0  0  0
 32 27  1  1  0  0  0
 33 34  1  0  0  0  0
 34 30  1  0  0  0  0
 34 29  1  0  0  0  0
 35 40  1  6  0  0  0
 35 31  1  0  0  0  0
 35 30  1  0  0  0  0
 36 28  2  0  0  0  0
 37 32  1  0  0  0  0
 37 35  1  0  0  0  0
 39 43  1  6  0  0  0
 39 34  1  0  0  0  0
 40 42  1  0  0  0  0
 42 39  1  0  0  0  0
 43 44  1  6  0  0  0
 43 45  1  0  0  0  0
 45 46  1  0  0  0  0
 47 10  1  0  0  0  0
 48 47  1  0  0  0  0
 49 53  1  0  0  0  0
 50 54  1  6  0  0  0
 50 51  1  0  0  0  0
 51 53  2  0  0  0  0
 52 49  2  0  0  0  0
 53 48  1  0  0  0  0
 54 55  1  0  0  0  0
 55 50  1  0  0  0  0
 55 52  1  0  0  0  0
M  END
>  <MODEL>
1

>  <REMARK>
 VINA RESULT:      -7.2      0.000      0.000
  Name = 
  14 active torsions:
  status: ('A' for Active; 'I' for Inactive)
    1  A    between atoms: C_2  and  C_28
    2  A    between atoms: C_2  and  C_44
    3  A    between atoms: C_4  and  C_35
    4  A    between atoms: C_4  and  C_37
    5  A    between atoms: C_8  and  C_51
    6  A    between atoms: C_10  and  C_32
    7  A    between atoms: C_11  and  C_29
    8  A    between atoms: N_19  and  C_45
    9  A    between atoms: C_28  and  C_49
   10  A    between atoms: C_29  and  C_38
   11  A    between atoms: C_33  and  C_52
   12  A    between atoms: C_35  and  C_43
   13  A    between atoms: C_37  and  C_40
   14  A    between atoms: C_43  and  C_51
                            x       y       z     vdW  Elec       q    Type
                         _______ _______ _______ _____ _____    ______ ____

>  <TORSDO>
F 14

$$$$
=
 OpenBabel10272401163D

 55 61  0  0  1  0  0  0  0  0999 V2000
  180.7600  174.3520  136.8390 C   0  0  0  0  0  2  0  0  0  0  0  0
  180.0560  172.0710  136.9950 O   0  0  0  0  0  1  0  0  0  0  0  0
  182.6490  173.8480  135.5550 C   0  0  1  0  0  3  0  0  0  0  0  0
  181.7940  172.6150  135.4480 C   0  0  0  0  0  2  0  0  0  0  0  0
  180.4750  173.0480  136.0910 C   0  0  2  0  0  3  0  0  0  0  0  0
  182.2680  174.4180  136.8820 C   0  0  1  0  0  3  0  0  0  0  0  0
  184.7740  174.8970  135.5690 C   0  0  1  0  0  3  0  0  0  0  0  0
  184.0780  173.5950  135.5660 N   0  0  0  0  0  2  0  0  0  0  0  0
  182.9130  175.7700  137.0310 C   0  0  0  0  0  0  0  0  0  0  0  0
  184.1160  175.9750  136.4440 C   0  0  0  0  0  0  0  0  0  0  0  0
  187.1990  175.2220  135.1680 N   0  0  0  0  0  0  0  0  0  0  0  0
  188.8780  174.3010  136.6040 C   0  0  0  0  0  0  0  0  0  0  0  0
  186.5300  173.9450  137.0720 C   0  0  0  0  0  3  0  0  0  0  0  0
  187.8710  173.7510  137.4030 C   0  0  0  0  0  3  0  0  0  0  0  0
  188.5120  175.0440  135.4750 C   0  0  0  0  0  3  0  0  0  0  0  0
  186.2080  174.6930  135.9380 C   0  0  0  0  0  0  0  0  0  0  0  0
  190.2950  174.0980  136.9470 C   0  0  0  0  0  0  0  0  0  0  0  0
  191.0680  173.1950  136.2250 O   0  0  0  0  0  0  0  0  0  0  0  0
  190.8210  174.7380  137.8970 O   0  0  0  0  0  1  0  0  0  0  0  0
  182.2500  175.5860  139.8700 O   0  0  0  0  0  0  0  0  0  0  0  0
  182.3340  176.7880  137.8640 N   0  0  0  0  0  2  0  0  0  0  0  0
  181.8810  176.5910  139.2070 C   0  0  0  0  0  0  0  0  0  0  0  0
  180.9980  177.6040  139.8520 C   0  0  0  0  0  2  0  0  0  0  0  0
  181.7880  178.8350  140.2580 C   0  0  0  0  0  2  0  0  0  0  0  0
  182.3590  178.6440  141.6470 C   0  0  0  0  0  2  0  0  0  0  0  0
  183.7150  177.9750  141.5490 C   0  0  0  0  0  2  0  0  0  0  0  0
  184.5350  178.2690  142.7980 C   0  0  0  0  0  2  0  0  0  0  0  0
  190.4870  176.0790  142.9930 C   0  0  0  0  0  0  0  0  0  0  0  0
  188.5070  176.5640  147.3600 F   0  0  0  0  0  0  0  0  0  0  0  0
  187.5270  177.4800  145.4130 C   0  0  0  0  0  0  0  0  0  0  0  0
  186.7990  177.0950  143.0070 C   0  0  0  0  0  2  0  0  0  0  0  0
  186.0540  178.3550  142.5850 C   0  0  2  0  0  3  0  0  0  0  0  0
  189.2380  178.5530  146.6010 F   0  0  0  0  0  0  0  0  0  0  0  0
  188.7870  177.3000  146.2210 C   0  0  0  0  0  0  0  0  0  0  0  0
  187.6250  177.9280  143.9730 C   0  0  1  0  0  0  0  0  0  0  0  0
  190.4600  176.3800  141.7700 O   0  0  0  0  0  0  0  0  0  0  0  0
  186.8060  179.1630  143.6370 C   0  0  0  0  0  2  0  0  0  0  0  0
  191.1270  174.9120  143.3890 O   0  0  0  0  0  1  0  0  0  0  0  0
  189.8650  176.5550  145.3890 C   0  0  1  0  0  3  0  0  0  0  0  0
  189.0720  178.0750  143.5090 C   0  0  0  0  0  2  0  0  0  0  0  0
  186.4370  177.2960  145.9340 O   0  0  0  0  0  0  0  0  0  0  0  0
  189.8540  176.9250  143.9640 N   0  0  0  0  0  0  0  0  0  0  0  0
  191.2900  176.6310  145.9590 C   0  0  1  0  0  3  0  0  0  0  0  0
  191.9190  177.8250  145.5980 O   0  0  0  0  0  1  0  0  0  0  0  0
  191.3080  176.4540  147.4680 C   0  0  0  0  0  2  0  0  0  0  0  0
  192.4790  175.7990  147.8550 O   0  0  0  0  0  1  0  0  0  0  0  0
  184.8180  177.2940  136.5770 C   0  0  0  0  0  2  0  0  0  0  0  0
  185.2140  177.5500  138.0220 C   0  0  0  0  0  2  0  0  0  0  0  0
  187.3210  178.0250  139.4150 C   0  0  0  0  0  3  0  0  0  0  0  0
  188.6520  178.9660  136.9030 C   0  0  2  0  0  3  0  0  0  0  0  0
  187.2410  178.4110  136.9350 C   0  0  0  0  0  3  0  0  0  0  0  0
  188.6210  178.3290  139.4920 C   0  0  0  0  0  3  0  0  0  0  0  0
  186.6280  178.0090  138.0820 C   0  0  0  0  0  0  0  0  0  0  0  0
  189.6250  178.0030  136.9350 C   0  0  0  0  0  2  0  0  0  0  0  0
  189.1950  178.6050  138.2340 N   0  0  0  0  0  0  0  0  0  0  0  0
  3  4  1  1  0  0  0
  3  8  1  0  0  0  0
  3  6  1  0  0  0  0
  4  5  1  0  0  0  0
  5  1  1  0  0  0  0
  5  2  1  1  0  0  0
  6  1  1  6  0  0  0
  6  9  1  0  0  0  0
  7 16  1  1  0  0  0
  7 10  1  0  0  0  0
  8  7  1  0  0  0  0
  9 21  1  0  0  0  0
 10 47  1  0  0  0  0
 10  9  2  0  0  0  0
 11 15  2  0  0  0  0
 11 16  1  0  0  0  0
 12 17  1  0  0  0  0
 12 14  2  0  0  0  0
 13 14  1  0  0  0  0
 15 12  1  0  0  0  0
 16 13  2  0  0  0  0
 17 19  1  0  0  0  0
 18 17  2  0  0  0  0
 21 22  1  0  0  0  0
 22 23  1  0  0  0  0
 22 20  2  0  0  0  0
 23 24  1  0  0  0  0
 24 25  1  0  0  0  0
 26 25  1  0  0  0  0
 26 27  1  0  0  0  0
 28 38  1  0  0  0  0
 28 42  1  0  0  0  0
 30 41  2  0  0  0  0
 30 34  1  0  0  0  0
 32 27  1  1  0  0  0
 32 31  1  0  0  0  0
 32 37  1  0  0  0  0
 34 33  1  0  0  0  0
 34 29  1  0  0  0  0
 35 31  1  6  0  0  0
 35 30  1  0  0  0  0
 36 28  2  0  0  0  0
 37 35  1  0  0  0  0
 39 43  1  1  0  0  0
 39 34  1  0  0  0  0
 40 42  1  0  0  0  0
 40 35  1  0  0  0  0
 42 39  1  0  0  0  0
 43 44  1  1  0  0  0
 43 45  1  0  0  0  0
 45 46  1  0  0  0  0
 47 48  1  0  0  0  0
 48 53  1  0  0  0  0
 49 52  2  0  0  0  0
 50 51  1  1  0  0  0
 50 54  1  0  0  0  0
 50 55  1  0  0  0  0
 51 53  2  0  0  0  0
 53 49  1  0  0  0  0
 54 55  1  0  0  0  0
 55 52  1  0  0  0  0
M  END
>  <MODEL>
2

>  <REMARK>
 VINA RESULT:      -7.0      4.167      9.176
  Name = 
  14 active torsions:
  status: ('A' for Active; 'I' for Inactive)
    1  A    between atoms: C_2  and  C_28
    2  A    between atoms: C_2  and  C_44
    3  A    between atoms: C_4  and  C_35
    4  A    between atoms: C_4  and  C_37
    5  A    between atoms: C_8  and  C_51
    6  A    between atoms: C_10  and  C_32
    7  A    between atoms: C_11  and  C_29
    8  A    between atoms: N_19  and  C_45
    9  A    between atoms: C_28  and  C_49
   10  A    between atoms: C_29  and  C_38
   11  A    between atoms: C_33  and  C_52
   12  A    between atoms: C_35  and  C_43
   13  A    between atoms: C_37  and  C_40
   14  A    between atoms: C_43  and  C_51
                            x       y       z     vdW  Elec       q    Type
                         _______ _______ _______ _____ _____    ______ ____

>  <TORSDO>
F 14

$$$$
=
 OpenBabel10272401163D

 55 61  0  0  1  0  0  0  0  0999 V2000
  180.7310  174.4510  137.3710 C   0  0  0  0  0  2  0  0  0  0  0  0
  180.0310  172.2940  138.1330 O   0  0  0  0  0  1  0  0  0  0  0  0
  182.4410  173.5960  136.0230 C   0  0  1  0  0  3  0  0  0  0  0  0
  181.5670  172.4040  136.3070 C   0  0  0  0  0  2  0  0  0  0  0  0
  180.3420  173.0220  136.9850 C   0  0  2  0  0  3  0  0  0  0  0  0
  182.2340  174.4680  137.2180 C   0  0  1  0  0  3  0  0  0  0  0  0
  184.5610  174.5370  135.5410 C   0  0  1  0  0  3  0  0  0  0  0  0
  183.8570  173.2970  135.9220 N   0  0  0  0  0  2  0  0  0  0  0  0
  182.9050  175.7920  136.9720 C   0  0  0  0  0  0  0  0  0  0  0  0
  184.0280  175.8110  136.2150 C   0  0  0  0  0  0  0  0  0  0  0  0
  186.4780  173.6920  136.8650 N   0  0  0  0  0  0  0  0  0  0  0  0
  188.7540  174.0710  136.2260 C   0  0  0  0  0  0  0  0  0  0  0  0
  186.9380  174.9220  134.8710 C   0  0  0  0  0  3  0  0  0  0  0  0
  188.3050  174.7700  135.1010 C   0  0  0  0  0  3  0  0  0  0  0  0
  187.8080  173.5330  137.1070 C   0  0  0  0  0  3  0  0  0  0  0  0
  186.0280  174.3690  135.7730 C   0  0  0  0  0  0  0  0  0  0  0  0
  190.1960  173.9080  136.4750 C   0  0  0  0  0  0  0  0  0  0  0  0
  190.6980  174.0120  137.7680 O   0  0  0  0  0  1  0  0  0  0  0  0
  190.9870  173.6750  135.5230 O   0  0  0  0  0  0  0  0  0  0  0  0
  182.7530  176.3440  139.8360 O   0  0  0  0  0  0  0  0  0  0  0  0
  182.4450  176.9950  137.6090 N   0  0  0  0  0  2  0  0  0  0  0  0
  182.2390  177.1510  139.0170 C   0  0  0  0  0  0  0  0  0  0  0  0
  181.4470  178.3050  139.5310 C   0  0  0  0  0  2  0  0  0  0  0  0
  182.0260  178.8270  140.8320 C   0  0  0  0  0  2  0  0  0  0  0  0
  181.1110  178.4650  141.9840 C   0  0  0  0  0  2  0  0  0  0  0  0
  181.5070  179.2580  143.2130 C   0  0  0  0  0  2  0  0  0  0  0  0
  182.9900  179.6030  143.1580 C   0  0  0  0  0  2  0  0  0  0  0  0
  188.4250  177.6880  145.8120 C   0  0  0  0  0  0  0  0  0  0  0  0
  188.9360  179.0220  141.2090 F   0  0  0  0  0  0  0  0  0  0  0  0
  186.8180  178.6840  142.2050 C   0  0  0  0  0  0  0  0  0  0  0  0
  185.2900  179.1570  144.1830 C   0  0  0  0  0  2  0  0  0  0  0  0
  183.9300  178.5800  143.8120 C   0  0  2  0  0  3  0  0  0  0  0  0
  188.1090  176.9330  141.3370 F   0  0  0  0  0  0  0  0  0  0  0  0
  188.2100  178.1450  141.9980 C   0  0  0  0  0  0  0  0  0  0  0  0
  185.9540  178.1090  143.3040 C   0  0  1  0  0  0  0  0  0  0  0  0
  187.6510  177.3290  146.7390 O   0  0  0  0  0  1  0  0  0  0  0  0
  184.5950  177.6070  142.8450 C   0  0  0  0  0  2  0  0  0  0  0  0
  189.6520  178.2530  146.1340 O   0  0  0  0  0  0  0  0  0  0  0  0
  188.9350  177.9720  143.3600 C   0  0  1  0  0  3  0  0  0  0  0  0
  186.6890  177.0550  144.1270 C   0  0  0  0  0  2  0  0  0  0  0  0
  186.3860  179.5560  141.4670 O   0  0  0  0  0  0  0  0  0  0  0  0
  188.0380  177.5260  144.4400 N   0  0  0  0  0  0  0  0  0  0  0  0
  190.2020  177.1030  143.3120 C   0  0  1  0  0  3  0  0  0  0  0  0
  189.8860  175.7480  143.1840 O   0  0  0  0  0  1  0  0  0  0  0  0
  191.1480  177.5380  142.2060 C   0  0  0  0  0  2  0  0  0  0  0  0
  192.3380  176.8120  142.2860 O   0  0  0  0  0  1  0  0  0  0  0  0
  184.7530  177.0980  135.9540 C   0  0  0  0  0  2  0  0  0  0  0  0
  185.2010  177.7370  137.2580 C   0  0  0  0  0  2  0  0  0  0  0  0
  187.4060  176.9250  138.3000 C   0  0  0  0  0  3  0  0  0  0  0  0
  188.8480  178.8240  136.4890 C   0  0  2  0  0  3  0  0  0  0  0  0
  187.3430  178.6380  136.4640 C   0  0  0  0  0  3  0  0  0  0  0  0
  188.7420  176.8700  138.3010 C   0  0  0  0  0  3  0  0  0  0  0  0
  186.6870  177.7940  137.3070 C   0  0  0  0  0  0  0  0  0  0  0  0
  189.5370  177.8380  135.8340 C   0  0  0  0  0  2  0  0  0  0  0  0
  189.3250  177.6820  137.3050 N   0  0  0  0  0  0  0  0  0  0  0  0
  3  4  1  1  0  0  0
  3  6  1  0  0  0  0
  4  5  1  0  0  0  0
  5  1  1  0  0  0  0
  5  2  1  1  0  0  0
  6  1  1  6  0  0  0
  7 16  1  1  0  0  0
  7  8  1  0  0  0  0
  7 10  1  0  0  0  0
  8  3  1  0  0  0  0
  9  6  1  0  0  0  0
  9 21  1  0  0  0  0
 10  9  2  0  0  0  0
 11 15  1  0  0  0  0
 12 17  1  0  0  0  0
 12 15  2  0  0  0  0
 13 14  2  0  0  0  0
 13 16  1  0  0  0  0
 14 12  1  0  0  0  0
 16 11  2  0  0  0  0
 17 18  1  0  0  0  0
 19 17  2  0  0  0  0
 21 22  1  0  0  0  0
 22 23  1  0  0  0  0
 22 20  2  0  0  0  0
 23 24  1  0  0  0  0
 24 25  1  0  0  0  0
 25 26  1  0  0  0  0
 27 26  1  0  0  0  0
 28 38  2  0  0  0  0
 28 36  1  0  0  0  0
 29 34  1  0  0  0  0
 30 35  1  0  0  0  0
 32 27  1  6  0  0  0
 32 31  1  0  0  0  0
 33 34  1  0  0  0  0
 34 30  1  0  0  0  0
 34 39  1  0  0  0  0
 35 37  1  6  0  0  0
 35 40  1  0  0  0  0
 35 31  1  0  0  0  0
 37 32  1  0  0  0  0
 39 43  1  6  0  0  0
 39 42  1  0  0  0  0
 40 42  1  0  0  0  0
 41 30  2  0  0  0  0
 42 28  1  0  0  0  0
 43 44  1  6  0  0  0
 45 46  1  0  0  0  0
 45 43  1  0  0  0  0
 47 10  1  0  0  0  0
 47 48  1  0  0  0  0
 48 53  1  0  0  0  0
 49 52  2  0  0  0  0
 50 54  1  6  0  0  0
 50 55  1  0  0  0  0
 51 50  1  0  0  0  0
 51 53  2  0  0  0  0
 53 49  1  0  0  0  0
 54 55  1  0  0  0  0
 55 52  1  0  0  0  0
M  END
>  <MODEL>
3

>  <REMARK>
 VINA RESULT:      -6.5      3.869      9.262
  Name = 
  14 active torsions:
  status: ('A' for Active; 'I' for Inactive)
    1  A    between atoms: C_2  and  C_28
    2  A    between atoms: C_2  and  C_44
    3  A    between atoms: C_4  and  C_35
    4  A    between atoms: C_4  and  C_37
    5  A    between atoms: C_8  and  C_51
    6  A    between atoms: C_10  and  C_32
    7  A    between atoms: C_11  and  C_29
    8  A    between atoms: N_19  and  C_45
    9  A    between atoms: C_28  and  C_49
   10  A    between atoms: C_29  and  C_38
   11  A    between atoms: C_33  and  C_52
   12  A    between atoms: C_35  and  C_43
   13  A    between atoms: C_37  and  C_40
   14  A    between atoms: C_43  and  C_51
                            x       y       z     vdW  Elec       q    Type
                         _______ _______ _______ _____ _____    ______ ____

>  <TORSDO>
F 14

$$$$
=
 OpenBabel10272401163D

 55 61  0  0  1  0  0  0  0  0999 V2000
  182.8280  179.5510  139.3570 C   0  0  0  0  0  2  0  0  0  0  0  0
  180.8390  180.7990  139.8130 O   0  0  0  0  0  1  0  0  0  0  0  0
  182.7970  178.4430  141.4170 C   0  0  1  0  0  3  0  0  0  0  0  0
  181.4050  178.9990  141.2790 C   0  0  0  0  0  2  0  0  0  0  0  0
  181.3760  179.5120  139.8370 C   0  0  2  0  0  3  0  0  0  0  0  0
  183.6300  179.4000  140.6280 C   0  0  1  0  0  3  0  0  0  0  0  0
  184.6240  177.7550  142.7590 C   0  0  1  0  0  3  0  0  0  0  0  0
  183.3050  178.4170  142.7770 N   0  0  0  0  0  2  0  0  0  0  0  0
  185.0270  178.8500  140.5220 C   0  0  0  0  0  0  0  0  0  0  0  0
  185.5050  178.1100  141.5510 C   0  0  0  0  0  0  0  0  0  0  0  0
  186.2950  177.1690  144.4940 N   0  0  0  0  0  0  0  0  0  0  0  0
  186.6360  178.4970  146.4570 C   0  0  0  0  0  0  0  0  0  0  0  0
  184.9900  179.1450  144.8040 C   0  0  0  0  0  3  0  0  0  0  0  0
  185.6480  179.3810  146.0110 C   0  0  0  0  0  3  0  0  0  0  0  0
  186.9470  177.3820  145.6690 C   0  0  0  0  0  3  0  0  0  0  0  0
  185.3310  178.0220  144.0480 C   0  0  0  0  0  0  0  0  0  0  0  0
  187.3320  178.7390  147.7310 C   0  0  0  0  0  0  0  0  0  0  0  0
  188.4350  177.9690  148.0830 O   0  0  0  0  0  0  0  0  0  0  0  0
  186.9370  179.6450  148.5130 O   0  0  0  0  0  1  0  0  0  0  0  0
  185.1890  177.5200  137.9270 O   0  0  0  0  0  0  0  0  0  0  0  0
  185.8820  179.1860  139.4180 N   0  0  0  0  0  2  0  0  0  0  0  0
  186.0360  178.4010  138.2300 C   0  0  0  0  0  0  0  0  0  0  0  0
  187.1840  178.6550  137.3140 C   0  0  0  0  0  2  0  0  0  0  0  0
  188.5000  178.3000  137.9790 C   0  0  0  0  0  2  0  0  0  0  0  0
  188.7240  176.8030  137.9110 C   0  0  0  0  0  2  0  0  0  0  0  0
  188.6850  176.3510  136.4640 C   0  0  0  0  0  2  0  0  0  0  0  0
  188.7330  174.8310  136.3890 C   0  0  0  0  0  2  0  0  0  0  0  0
  194.2510  171.6990  136.4090 C   0  0  0  0  0  0  0  0  0  0  0  0
  194.3770  175.7660  138.9900 F   0  0  0  0  0  0  0  0  0  0  0  0
  192.6010  175.2530  137.5160 C   0  0  0  0  0  0  0  0  0  0  0  0
  190.9050  173.5250  136.7370 C   0  0  0  0  0  2  0  0  0  0  0  0
  189.9980  174.2420  135.7460 C   0  0  2  0  0  3  0  0  0  0  0  0
  194.6120  176.2170  136.7990 F   0  0  0  0  0  0  0  0  0  0  0  0
  194.0950  175.3150  137.7120 C   0  0  0  0  0  0  0  0  0  0  0  0
  192.0360  174.4670  136.3550 C   0  0  1  0  0  0  0  0  0  0  0  0
  193.6750  171.0180  135.5190 O   0  0  0  0  0  0  0  0  0  0  0  0
  191.1000  175.2540  135.4530 C   0  0  0  0  0  2  0  0  0  0  0  0
  195.0490  171.0540  137.3440 O   0  0  0  0  0  1  0  0  0  0  0  0
  194.7270  173.9100  137.5200 C   0  0  1  0  0  3  0  0  0  0  0  0
  193.1230  173.7590  135.5510 C   0  0  0  0  0  2  0  0  0  0  0  0
  191.8610  175.8630  138.2730 O   0  0  0  0  0  0  0  0  0  0  0  0
  194.0740  173.1220  136.4610 N   0  0  0  0  0  0  0  0  0  0  0  0
  196.2530  173.9070  137.3360 C   0  0  1  0  0  3  0  0  0  0  0  0
  196.6320  174.6500  136.2150 O   0  0  0  0  0  1  0  0  0  0  0  0
  196.9750  174.4060  138.5770 C   0  0  0  0  0  2  0  0  0  0  0  0
  197.9110  175.3800  138.2220 O   0  0  0  0  0  1  0  0  0  0  0  0
  186.8980  177.5540  141.5120 C   0  0  0  0  0  2  0  0  0  0  0  0
  187.9250  178.6750  141.5110 C   0  0  0  0  0  2  0  0  0  0  0  0
  190.2080  177.5140  141.2920 C   0  0  0  0  0  3  0  0  0  0  0  0
  190.5740  177.8940  144.2400 C   0  0  2  0  0  3  0  0  0  0  0  0
  189.3610  178.4030  143.4830 C   0  0  0  0  0  3  0  0  0  0  0  0
  191.3940  177.1740  141.8070 C   0  0  0  0  0  3  0  0  0  0  0  0
  189.1840  178.2050  142.1480 C   0  0  0  0  0  0  0  0  0  0  0  0
  191.6810  178.6890  144.1040 C   0  0  0  0  0  2  0  0  0  0  0  0
  191.5280  177.5370  143.1630 N   0  0  0  0  0  0  0  0  0  0  0  0
  1  5  1  0  0  0  0
  3  4  1  1  0  0  0
  3  8  1  0  0  0  0
  5  2  1  1  0  0  0
  5  4  1  0  0  0  0
  6  1  1  6  0  0  0
  6  3  1  0  0  0  0
  7  8  1  0  0  0  0
  7 16  1  1  0  0  0
  9  6  1  0  0  0  0
  9 10  2  0  0  0  0
 10  7  1  0  0  0  0
 11 15  1  0  0  0  0
 12 17  1  0  0  0  0
 13 14  2  0  0  0  0
 14 12  1  0  0  0  0
 15 12  2  0  0  0  0
 16 11  2  0  0  0  0
 16 13  1  0  0  0  0
 17 18  2  0  0  0  0
 17 19  1  0  0  0  0
 20 22  2  0  0  0  0
 21  9  1  0  0  0  0
 22 21  1  0  0  0  0
 23 24  1  0  0  0  0
 23 22  1  0  0  0  0
 25 24  1  0  0  0  0
 26 25  1  0  0  0  0
 27 26  1  0  0  0  0
 28 42  1  0  0  0  0
 28 38  1  0  0  0  0
 30 34  1  0  0  0  0
 30 41  2  0  0  0  0
 32 27  1  1  0  0  0
 32 31  1  0  0  0  0
 33 34  1  0  0  0  0
 34 29  1  0  0  0  0
 35 37  1  6  0  0  0
 35 31  1  0  0  0  0
 35 30  1  0  0  0  0
 36 28  2  0  0  0  0
 37 32  1  0  0  0  0
 39 43  1  6  0  0  0
 39 34  1  0  0  0  0
 40 35  1  0  0  0  0
 40 42  1  0  0  0  0
 42 39  1  0  0  0  0
 43 44  1  6  0  0  0
 43 45  1  0  0  0  0
 46 45  1  0  0  0  0
 47 10  1  0  0  0  0
 48 47  1  0  0  0  0
 48 53  1  0  0  0  0
 49 52  2  0  0  0  0
 49 53  1  0  0  0  0
 50 51  1  6  0  0  0
 52 55  1  0  0  0  0
 53 51  2  0  0  0  0
 54 50  1  0  0  0  0
 55 54  1  0  0  0  0
 55 50  1  0  0  0  0
M  END
>  <MODEL>
4

>  <REMARK>
 VINA RESULT:      -6.3      1.990      5.684
  Name = 
  14 active torsions:
  status: ('A' for Active; 'I' for Inactive)
    1  A    between atoms: C_2  and  C_28
    2  A    between atoms: C_2  and  C_44
    3  A    between atoms: C_4  and  C_35
    4  A    between atoms: C_4  and  C_37
    5  A    between atoms: C_8  and  C_51
    6  A    between atoms: C_10  and  C_32
    7  A    between atoms: C_11  and  C_29
    8  A    between atoms: N_19  and  C_45
    9  A    between atoms: C_28  and  C_49
   10  A    between atoms: C_29  and  C_38
   11  A    between atoms: C_33  and  C_52
   12  A    between atoms: C_35  and  C_43
   13  A    between atoms: C_37  and  C_40
   14  A    between atoms: C_43  and  C_51
                            x       y       z     vdW  Elec       q    Type
                         _______ _______ _______ _____ _____    ______ ____

>  <TORSDO>
F 14

$$$$
=
 OpenBabel10272401163D

 55 61  0  0  1  0  0  0  0  0999 V2000
  188.0420  177.5770  145.2280 C   0  0  0  0  0  2  0  0  0  0  0  0
  186.7570  176.9100  147.1320 O   0  0  0  0  0  1  0  0  0  0  0  0
  186.3020  178.8310  144.2940 C   0  0  1  0  0  3  0  0  0  0  0  0
  185.8820  178.6310  145.7250 C   0  0  0  0  0  2  0  0  0  0  0  0
  187.1270  178.0190  146.3720 C   0  0  2  0  0  3  0  0  0  0  0  0
  187.1480  177.6330  144.0120 C   0  0  1  0  0  3  0  0  0  0  0  0
  185.7690  179.1550  142.0090 C   0  0  1  0  0  3  0  0  0  0  0  0
  185.2090  178.8480  143.3390 N   0  0  0  0  0  2  0  0  0  0  0  0
  187.7970  177.8060  142.6650 C   0  0  0  0  0  0  0  0  0  0  0  0
  187.1210  178.4890  141.7100 C   0  0  0  0  0  0  0  0  0  0  0  0
  184.6260  179.6290  139.8600 N   0  0  0  0  0  0  0  0  0  0  0  0
  182.8630  178.2540  139.0060 C   0  0  0  0  0  0  0  0  0  0  0  0
  183.9350  177.7150  141.1090 C   0  0  0  0  0  3  0  0  0  0  0  0
  182.9860  177.4270  140.1280 C   0  0  0  0  0  3  0  0  0  0  0  0
  183.7060  179.3650  138.8930 C   0  0  0  0  0  3  0  0  0  0  0  0
  184.7580  178.8330  140.9570 C   0  0  0  0  0  0  0  0  0  0  0  0
  181.8620  177.9560  137.9690 C   0  0  0  0  0  0  0  0  0  0  0  0
  181.8970  178.6260  136.7510 O   0  0  0  0  0  0  0  0  0  0  0  0
  180.9660  177.0950  138.1740 O   0  0  0  0  0  1  0  0  0  0  0  0
  190.4860  178.8340  143.1550 O   0  0  0  0  0  0  0  0  0  0  0  0
  189.0480  177.1730  142.3490 N   0  0  0  0  0  2  0  0  0  0  0  0
  190.3330  177.7920  142.4640 C   0  0  0  0  0  0  0  0  0  0  0  0
  191.5170  177.1790  141.7970 C   0  0  0  0  0  2  0  0  0  0  0  0
  191.5600  177.5380  140.3240 C   0  0  0  0  0  2  0  0  0  0  0  0
  192.6490  176.7450  139.6330 C   0  0  0  0  0  2  0  0  0  0  0  0
  192.2020  176.3890  138.2290 C   0  0  0  0  0  2  0  0  0  0  0  0
  192.8760  175.1000  137.7760 C   0  0  0  0  0  2  0  0  0  0  0  0
  198.7270  174.1210  135.5280 C   0  0  0  0  0  0  0  0  0  0  0  0
  196.1570  170.0660  135.9360 F   0  0  0  0  0  0  0  0  0  0  0  0
  195.4650  172.1100  136.9030 C   0  0  0  0  0  0  0  0  0  0  0  0
  195.0810  174.6030  136.5770 C   0  0  0  0  0  2  0  0  0  0  0  0
  194.4110  175.0960  137.8530 C   0  0  2  0  0  3  0  0  0  0  0  0
  196.9980  170.6690  137.9340 F   0  0  0  0  0  0  0  0  0  0  0  0
  196.5980  171.1370  136.6940 C   0  0  0  0  0  0  0  0  0  0  0  0
  195.7680  173.5110  137.3820 C   0  0  1  0  0  0  0  0  0  0  0  0
  198.8750  175.3280  135.8560 O   0  0  0  0  0  1  0  0  0  0  0  0
  195.0120  173.9310  138.6310 C   0  0  0  0  0  2  0  0  0  0  0  0
  199.2990  173.6660  134.3470 O   0  0  0  0  0  0  0  0  0  0  0  0
  197.7780  171.8270  135.9570 C   0  0  1  0  0  3  0  0  0  0  0  0
  197.2660  173.7640  137.5250 C   0  0  0  0  0  2  0  0  0  0  0  0
  194.3120  171.7520  136.7180 O   0  0  0  0  0  0  0  0  0  0  0  0
  197.9700  173.2300  136.3590 N   0  0  0  0  0  0  0  0  0  0  0  0
  199.1090  171.0600  136.0080 C   0  0  1  0  0  3  0  0  0  0  0  0
  199.6650  171.0920  137.2890 O   0  0  0  0  0  1  0  0  0  0  0  0
  198.9580  169.6270  135.5270 C   0  0  0  0  0  2  0  0  0  0  0  0
  200.2170  169.0700  135.2910 O   0  0  0  0  0  1  0  0  0  0  0  0
  187.7070  178.6740  140.3420 C   0  0  0  0  0  2  0  0  0  0  0  0
  187.7220  177.3590  139.5800 C   0  0  0  0  0  2  0  0  0  0  0  0
  188.9530  178.1780  137.4770 C   0  0  0  0  0  3  0  0  0  0  0  0
  186.4380  177.6790  135.9300 C   0  0  2  0  0  3  0  0  0  0  0  0
  186.5750  177.3710  137.4090 C   0  0  0  0  0  3  0  0  0  0  0  0
  189.0150  178.3280  136.1500 C   0  0  0  0  0  3  0  0  0  0  0  0
  187.7100  177.6240  138.1160 C   0  0  0  0  0  0  0  0  0  0  0  0
  187.0040  176.7350  135.1150 C   0  0  0  0  0  2  0  0  0  0  0  0
  187.8350  177.9180  135.4960 N   0  0  0  0  0  0  0  0  0  0  0  0
  1  5  1  0  0  0  0
  3  4  1  1  0  0  0
  4  5  1  0  0  0  0
  5  2  1  6  0  0  0
  6  3  1  0  0  0  0
  6  1  1  1  0  0  0
  7 16  1  6  0  0  0
  7  8  1  0  0  0  0
  8  3  1  0  0  0  0
  9  6  1  0  0  0  0
 10  7  1  0  0  0  0
 10  9  2  0  0  0  0
 11 16  1  0  0  0  0
 12 14  2  0  0  0  0
 14 13  1  0  0  0  0
 15 12  1  0  0  0  0
 15 11  2  0  0  0  0
 16 13  2  0  0  0  0
 17 19  1  0  0  0  0
 17 12  1  0  0  0  0
 18 17  2  0  0  0  0
 21 22  1  0  0  0  0
 21  9  1  0  0  0  0
 22 20  2  0  0  0  0
 23 22  1  0  0  0  0
 24 23  1  0  0  0  0
 25 24  1  0  0  0  0
 26 25  1  0  0  0  0
 27 26  1  0  0  0  0
 28 36  1  0  0  0  0
 28 42  1  0  0  0  0
 29 34  1  0  0  0  0
 30 35  1  0  0  0  0
 31 32  1  0  0  0  0
 32 27  1  6  0  0  0
 32 37  1  0  0  0  0
 34 30  1  0  0  0  0
 34 33  1  0  0  0  0
 35 31  1  6  0  0  0
 35 40  1  0  0  0  0
 35 37  1  0  0  0  0
 38 28  2  0  0  0  0
 39 43  1  1  0  0  0
 39 42  1  0  0  0  0
 39 34  1  0  0  0  0
 41 30  2  0  0  0  0
 42 40  1  0  0  0  0
 43 44  1  1  0  0  0
 45 43  1  0  0  0  0
 46 45  1  0  0  0  0
 47 10  1  0  0  0  0
 48 47  1  0  0  0  0
 49 53  1  0  0  0  0
 50 54  1  6  0  0  0
 50 51  1  0  0  0  0
 51 53  2  0  0  0  0
 52 49  2  0  0  0  0
 53 48  1  0  0  0  0
 54 55  1  0  0  0  0
 55 50  1  0  0  0  0
 55 52  1  0  0  0  0
M  END
>  <MODEL>
5

>  <REMARK>
 VINA RESULT:      -6.3      1.593      2.591
  Name = 
  14 active torsions:
  status: ('A' for Active; 'I' for Inactive)
    1  A    between atoms: C_2  and  C_28
    2  A    between atoms: C_2  and  C_44
    3  A    between atoms: C_4  and  C_35
    4  A    between atoms: C_4  and  C_37
    5  A    between atoms: C_8  and  C_51
    6  A    between atoms: C_10  and  C_32
    7  A    between atoms: C_11  and  C_29
    8  A    between atoms: N_19  and  C_45
    9  A    between atoms: C_28  and  C_49
   10  A    between atoms: C_29  and  C_38
   11  A    between atoms: C_33  and  C_52
   12  A    between atoms: C_35  and  C_43
   13  A    between atoms: C_37  and  C_40
   14  A    between atoms: C_43  and  C_51
                            x       y       z     vdW  Elec       q    Type
                         _______ _______ _______ _____ _____    ______ ____

>  <TORSDO>
F 14

$$$$
=
 OpenBabel10272401163D

 55 61  0  0  1  0  0  0  0  0999 V2000
  185.7330  170.4660  135.0860 C   0  0  0  0  0  2  0  0  0  0  0  0
  186.3050  168.2030  135.6070 O   0  0  0  0  0  1  0  0  0  0  0  0
  187.8920  171.0170  134.3730 C   0  0  1  0  0  3  0  0  0  0  0  0
  187.8790  169.5120  134.3740 C   0  0  0  0  0  2  0  0  0  0  0  0
  186.4050  169.1760  134.6120 C   0  0  2  0  0  3  0  0  0  0  0  0
  186.8940  171.3710  135.4270 C   0  0  1  0  0  3  0  0  0  0  0  0
  189.0460  173.0740  134.5910 C   0  0  1  0  0  3  0  0  0  0  0  0
  189.1650  171.6100  134.7390 N   0  0  0  0  0  2  0  0  0  0  0  0
  186.6650  172.8580  135.3950 C   0  0  0  0  0  0  0  0  0  0  0  0
  187.6980  173.6590  135.0410 C   0  0  0  0  0  0  0  0  0  0  0  0
  191.0780  174.4940  134.5850 N   0  0  0  0  0  0  0  0  0  0  0  0
  192.3330  174.9600  136.5700 C   0  0  0  0  0  0  0  0  0  0  0  0
  190.3520  173.5700  136.6640 C   0  0  0  0  0  3  0  0  0  0  0  0
  191.4280  174.1850  137.3040 C   0  0  0  0  0  3  0  0  0  0  0  0
  192.1340  175.1020  135.1910 C   0  0  0  0  0  3  0  0  0  0  0  0
  190.1900  173.7390  135.2870 C   0  0  0  0  0  0  0  0  0  0  0  0
  193.4710  175.6090  137.2400 C   0  0  0  0  0  0  0  0  0  0  0  0
  194.5600  174.8530  137.6590 O   0  0  0  0  0  1  0  0  0  0  0  0
  193.4700  176.8530  137.4400 O   0  0  0  0  0  0  0  0  0  0  0  0
  185.6290  172.9870  138.1220 O   0  0  0  0  0  0  0  0  0  0  0  0
  185.4240  173.4340  135.8340 N   0  0  0  0  0  2  0  0  0  0  0  0
  184.8920  173.3260  137.1590 C   0  0  0  0  0  0  0  0  0  0  0  0
  183.4620  173.6600  137.4170 C   0  0  0  0  0  2  0  0  0  0  0  0
  183.3140  175.0930  137.8910 C   0  0  0  0  0  2  0  0  0  0  0  0
  182.8620  175.9710  136.7430 C   0  0  0  0  0  2  0  0  0  0  0  0
  183.5230  177.3310  136.8560 C   0  0  0  0  0  2  0  0  0  0  0  0
  183.2880  177.9130  138.2440 C   0  0  0  0  0  2  0  0  0  0  0  0
  187.4530  177.2000  142.9770 C   0  0  0  0  0  0  0  0  0  0  0  0
  183.0770  178.5320  144.4940 F   0  0  0  0  0  0  0  0  0  0  0  0
  183.7040  178.5950  142.2150 C   0  0  0  0  0  0  0  0  0  0  0  0
  184.7660  177.3650  140.2590 C   0  0  0  0  0  2  0  0  0  0  0  0
  184.5580  178.2530  139.0390 C   0  0  2  0  0  3  0  0  0  0  0  0
  184.2190  180.3110  143.7240 F   0  0  0  0  0  0  0  0  0  0  0  0
  184.0840  178.9360  143.6340 C   0  0  0  0  0  0  0  0  0  0  0  0
  184.7650  178.6040  141.1400 C   0  0  1  0  0  0  0  0  0  0  0  0
  188.2690  177.1100  142.0220 O   0  0  0  0  0  0  0  0  0  0  0  0
  184.4440  179.4780  139.9390 C   0  0  0  0  0  2  0  0  0  0  0  0
  187.6050  176.3680  144.0790 O   0  0  0  0  0  1  0  0  0  0  0  0
  185.4050  178.2240  144.0290 C   0  0  1  0  0  3  0  0  0  0  0  0
  186.1530  178.9100  141.6970 C   0  0  0  0  0  2  0  0  0  0  0  0
  182.5400  178.3470  141.9380 O   0  0  0  0  0  0  0  0  0  0  0  0
  186.3720  178.1420  142.9220 N   0  0  0  0  0  0  0  0  0  0  0  0
  186.0780  178.7690  145.3000 C   0  0  1  0  0  3  0  0  0  0  0  0
  185.2980  179.7580  145.9040 O   0  0  0  0  0  1  0  0  0  0  0  0
  186.4000  177.6640  146.2910 C   0  0  0  0  0  2  0  0  0  0  0  0
  187.1440  178.1810  147.3530 O   0  0  0  0  0  1  0  0  0  0  0  0
  187.5370  175.1500  135.0130 C   0  0  0  0  0  2  0  0  0  0  0  0
  186.9600  175.6530  136.3260 C   0  0  0  0  0  2  0  0  0  0  0  0
  187.4020  178.1850  136.2830 C   0  0  0  0  0  3  0  0  0  0  0  0
  189.6680  177.7220  138.1850 C   0  0  2  0  0  3  0  0  0  0  0  0
  188.7600  176.6110  137.6940 C   0  0  0  0  0  3  0  0  0  0  0  0
  188.0160  179.2670  136.7730 C   0  0  0  0  0  3  0  0  0  0  0  0
  187.7480  176.8200  136.8080 C   0  0  0  0  0  0  0  0  0  0  0  0
  189.1200  178.4810  139.1850 C   0  0  0  0  0  2  0  0  0  0  0  0
  188.9570  178.9570  137.7770 N   0  0  0  0  0  0  0  0  0  0  0  0
  3  4  1  1  0  0  0
  3  8  1  0  0  0  0
  3  6  1  0  0  0  0
  4  5  1  0  0  0  0
  5  1  1  0  0  0  0
  5  2  1  1  0  0  0
  6  1  1  6  0  0  0
  7  8  1  0  0  0  0
  7 10  1  0  0  0  0
  7 16  1  1  0  0  0
  9  6  1  0  0  0  0
  9 21  1  0  0  0  0
 10  9  2  0  0  0  0
 11 15  2  0  0  0  0
 11 16  1  0  0  0  0
 12 17  1  0  0  0  0
 12 14  2  0  0  0  0
 13 14  1  0  0  0  0
 15 12  1  0  0  0  0
 16 13  2  0  0  0  0
 17 19  2  0  0  0  0
 17 18  1  0  0  0  0
 21 22  1  0  0  0  0
 22 23  1  0  0  0  0
 22 20  2  0  0  0  0
 23 24  1  0  0  0  0
 25 26  1  0  0  0  0
 25 24  1  0  0  0  0
 26 27  1  0  0  0  0
 28 38  1  0  0  0  0
 30 34  1  0  0  0  0
 31 35  1  0  0  0  0
 32 27  1  1  0  0  0
 32 37  1  0  0  0  0
 32 31  1  0  0  0  0
 34 33  1  0  0  0  0
 34 39  1  0  0  0  0
 34 29  1  0  0  0  0
 35 37  1  6  0  0  0
 35 40  1  0  0  0  0
 35 30  1  0  0  0  0
 36 28  2  0  0  0  0
 39 43  1  1  0  0  0
 40 42  1  0  0  0  0
 41 30  2  0  0  0  0
 42 28  1  0  0  0  0
 42 39  1  0  0  0  0
 43 44  1  1  0  0  0
 43 45  1  0  0  0  0
 45 46  1  0  0  0  0
 47 10  1  0  0  0  0
 47 48  1  0  0  0  0
 48 53  1  0  0  0  0
 49 52  2  0  0  0  0
 49 53  1  0  0  0  0
 50 51  1  6  0  0  0
 50 54  1  0  0  0  0
 52 55  1  0  0  0  0
 53 51  2  0  0  0  0
 55 50  1  0  0  0  0
 55 54  1  0  0  0  0
M  END
>  <MODEL>
6

>  <REMARK>
 VINA RESULT:      -6.1      4.314     10.824
  Name = 
  14 active torsions:
  status: ('A' for Active; 'I' for Inactive)
    1  A    between atoms: C_2  and  C_28
    2  A    between atoms: C_2  and  C_44
    3  A    between atoms: C_4  and  C_35
    4  A    between atoms: C_4  and  C_37
    5  A    between atoms: C_8  and  C_51
    6  A    between atoms: C_10  and  C_32
    7  A    between atoms: C_11  and  C_29
    8  A    between atoms: N_19  and  C_45
    9  A    between atoms: C_28  and  C_49
   10  A    between atoms: C_29  and  C_38
   11  A    between atoms: C_33  and  C_52
   12  A    between atoms: C_35  and  C_43
   13  A    between atoms: C_37  and  C_40
   14  A    between atoms: C_43  and  C_51
                            x       y       z     vdW  Elec       q    Type
                         _______ _______ _______ _____ _____    ______ ____

>  <TORSDO>
F 14

$$$$
=
 OpenBabel10272401163D

 55 61  0  0  1  0  0  0  0  0999 V2000
  182.9510  179.5460  138.8100 C   0  0  0  0  0  2  0  0  0  0  0  0
  180.9090  180.7640  139.0670 O   0  0  0  0  0  1  0  0  0  0  0  0
  182.7590  178.4730  140.8800 C   0  0  1  0  0  3  0  0  0  0  0  0
  181.3750  179.0010  140.6100 C   0  0  0  0  0  2  0  0  0  0  0  0
  181.4640  179.4880  139.1620 C   0  0  2  0  0  3  0  0  0  0  0  0
  183.6420  179.4310  140.1480 C   0  0  1  0  0  3  0  0  0  0  0  0
  184.4730  177.8420  142.3880 C   0  0  1  0  0  3  0  0  0  0  0  0
  183.1470  178.4800  142.2790 N   0  0  0  0  0  2  0  0  0  0  0  0
  185.0510  178.9050  140.1750 C   0  0  0  0  0  0  0  0  0  0  0  0
  185.4500  178.1920  141.2550 C   0  0  0  0  0  0  0  0  0  0  0  0
  184.6500  179.2370  144.4310 N   0  0  0  0  0  0  0  0  0  0  0  0
  186.1650  178.7270  146.2130 C   0  0  0  0  0  0  0  0  0  0  0  0
  186.0460  177.3070  144.2560 C   0  0  0  0  0  3  0  0  0  0  0  0
  186.5970  177.6020  145.5030 C   0  0  0  0  0  3  0  0  0  0  0  0
  185.1760  179.5410  145.6480 C   0  0  0  0  0  3  0  0  0  0  0  0
  185.0610  178.1440  143.7290 C   0  0  0  0  0  0  0  0  0  0  0  0
  186.7440  179.0450  147.5280 C   0  0  0  0  0  0  0  0  0  0  0  0
  186.4390  180.2490  148.1550 O   0  0  0  0  0  1  0  0  0  0  0  0
  187.5200  178.2320  148.0980 O   0  0  0  0  0  0  0  0  0  0  0  0
  185.3320  177.6560  137.5500 O   0  0  0  0  0  0  0  0  0  0  0  0
  185.9940  179.2370  139.1430 N   0  0  0  0  0  2  0  0  0  0  0  0
  186.1940  178.4870  137.9400 C   0  0  0  0  0  0  0  0  0  0  0  0
  187.4120  178.7170  137.1120 C   0  0  0  0  0  2  0  0  0  0  0  0
  188.6620  178.2710  137.8470 C   0  0  0  0  0  2  0  0  0  0  0  0
  188.7140  176.7590  137.9020 C   0  0  0  0  0  2  0  0  0  0  0  0
  188.5620  176.1960  136.5030 C   0  0  0  0  0  2  0  0  0  0  0  0
  189.7410  175.2900  136.1720 C   0  0  0  0  0  2  0  0  0  0  0  0
  195.9680  176.1960  135.3680 C   0  0  0  0  0  0  0  0  0  0  0  0
  194.8070  171.5730  136.0740 F   0  0  0  0  0  0  0  0  0  0  0  0
  193.2790  173.3370  136.4510 C   0  0  0  0  0  0  0  0  0  0  0  0
  192.2180  175.4700  135.5580 C   0  0  0  0  0  2  0  0  0  0  0  0
  191.1240  175.8430  136.5490 C   0  0  2  0  0  3  0  0  0  0  0  0
  194.8750  172.6760  138.0340 F   0  0  0  0  0  0  0  0  0  0  0  0
  194.6760  172.8160  136.6710 C   0  0  0  0  0  0  0  0  0  0  0  0
  192.9880  174.8020  136.6860 C   0  0  1  0  0  0  0  0  0  0  0  0
  195.6350  177.4070  135.4670 O   0  0  0  0  0  1  0  0  0  0  0  0
  191.8450  175.0740  137.6510 C   0  0  0  0  0  2  0  0  0  0  0  0
  196.9360  175.8340  134.4400 O   0  0  0  0  0  0  0  0  0  0  0  0
  195.7220  173.7850  136.0570 C   0  0  1  0  0  3  0  0  0  0  0  0
  194.2390  175.5880  137.0680 C   0  0  0  0  0  2  0  0  0  0  0  0
  192.3870  172.5720  136.1180 O   0  0  0  0  0  0  0  0  0  0  0  0
  195.3480  175.2020  136.1960 N   0  0  0  0  0  0  0  0  0  0  0  0
  197.1680  173.5560  136.5240 C   0  0  1  0  0  3  0  0  0  0  0  0
  197.3130  173.8320  137.8860 O   0  0  0  0  0  1  0  0  0  0  0  0
  197.6510  172.1500  136.2100 C   0  0  0  0  0  2  0  0  0  0  0  0
  198.9240  171.9530  136.7490 O   0  0  0  0  0  1  0  0  0  0  0  0
  186.8500  177.6620  141.3480 C   0  0  0  0  0  2  0  0  0  0  0  0
  187.8470  178.7980  141.5140 C   0  0  0  0  0  2  0  0  0  0  0  0
  190.1350  177.6670  141.2040 C   0  0  0  0  0  3  0  0  0  0  0  0
  190.4910  177.7980  144.1750 C   0  0  2  0  0  3  0  0  0  0  0  0
  189.2790  178.3650  143.4610 C   0  0  0  0  0  3  0  0  0  0  0  0
  191.3210  177.2890  141.6920 C   0  0  0  0  0  3  0  0  0  0  0  0
  189.1060  178.2800  142.1130 C   0  0  0  0  0  0  0  0  0  0  0  0
  191.5960  178.6040  144.1100 C   0  0  0  0  0  2  0  0  0  0  0  0
  191.4500  177.5360  143.0750 N   0  0  0  0  0  0  0  0  0  0  0  0
  1  5  1  0  0  0  0
  3  4  1  1  0  0  0
  3  8  1  0  0  0  0
  5  2  1  1  0  0  0
  5  4  1  0  0  0  0
  6  1  1  6  0  0  0
  6  9  1  0  0  0  0
  6  3  1  0  0  0  0
  7 16  1  1  0  0  0
  8  7  1  0  0  0  0
  9 10  2  0  0  0  0
 10 47  1  0  0  0  0
 10  7  1  0  0  0  0
 11 15  1  0  0  0  0
 12 17  1  0  0  0  0
 13 14  2  0  0  0  0
 14 12  1  0  0  0  0
 15 12  2  0  0  0  0
 16 13  1  0  0  0  0
 16 11  2  0  0  0  0
 17 19  2  0  0  0  0
 17 18  1  0  0  0  0
 20 22  2  0  0  0  0
 21  9  1  0  0  0  0
 22 21  1  0  0  0  0
 23 24  1  0  0  0  0
 23 22  1  0  0  0  0
 24 25  1  0  0  0  0
 26 25  1  0  0  0  0
 27 26  1  0  0  0  0
 28 36  1  0  0  0  0
 28 42  1  0  0  0  0
 29 34  1  0  0  0  0
 30 34  1  0  0  0  0
 30 35  1  0  0  0  0
 31 32  1  0  0  0  0
 32 27  1  6  0  0  0
 32 37  1  0  0  0  0
 34 33  1  0  0  0  0
 35 31  1  6  0  0  0
 35 40  1  0  0  0  0
 35 37  1  0  0  0  0
 38 28  2  0  0  0  0
 39 42  1  0  0  0  0
 39 43  1  1  0  0  0
 39 34  1  0  0  0  0
 41 30  2  0  0  0  0
 42 40  1  0  0  0  0
 43 44  1  1  0  0  0
 45 43  1  0  0  0  0
 45 46  1  0  0  0  0
 47 48  1  0  0  0  0
 48 53  1  0  0  0  0
 49 52  2  0  0  0  0
 49 53  1  0  0  0  0
 50 51  1  6  0  0  0
 52 55  1  0  0  0  0
 53 51  2  0  0  0  0
 54 50  1  0  0  0  0
 55 54  1  0  0  0  0
 55 50  1  0  0  0  0
M  END
>  <MODEL>
7

>  <REMARK>
 VINA RESULT:      -6.0      1.941      5.829
  Name = 
  14 active torsions:
  status: ('A' for Active; 'I' for Inactive)
    1  A    between atoms: C_2  and  C_28
    2  A    between atoms: C_2  and  C_44
    3  A    between atoms: C_4  and  C_35
    4  A    between atoms: C_4  and  C_37
    5  A    between atoms: C_8  and  C_51
    6  A    between atoms: C_10  and  C_32
    7  A    between atoms: C_11  and  C_29
    8  A    between atoms: N_19  and  C_45
    9  A    between atoms: C_28  and  C_49
   10  A    between atoms: C_29  and  C_38
   11  A    between atoms: C_33  and  C_52
   12  A    between atoms: C_35  and  C_43
   13  A    between atoms: C_37  and  C_40
   14  A    between atoms: C_43  and  C_51
                            x       y       z     vdW  Elec       q    Type
                         _______ _______ _______ _____ _____    ______ ____

>  <TORSDO>
F 14

$$$$
=
 OpenBabel10272401163D

 55 61  0  0  1  0  0  0  0  0999 V2000
  183.0630  179.3420  138.3990 C   0  0  0  0  0  2  0  0  0  0  0  0
  181.0760  180.6730  138.4230 O   0  0  0  0  0  1  0  0  0  0  0  0
  182.7120  178.4920  140.5500 C   0  0  1  0  0  3  0  0  0  0  0  0
  181.3730  179.0540  140.1540 C   0  0  0  0  0  2  0  0  0  0  0  0
  181.5580  179.3880  138.6720 C   0  0  2  0  0  3  0  0  0  0  0  0
  183.6780  179.3300  139.7780 C   0  0  1  0  0  3  0  0  0  0  0  0
  184.3130  177.9370  142.2050 C   0  0  1  0  0  3  0  0  0  0  0  0
  183.0280  178.6210  141.9600 N   0  0  0  0  0  2  0  0  0  0  0  0
  185.0560  178.7450  139.9340 C   0  0  0  0  0  0  0  0  0  0  0  0
  185.3630  178.1260  141.0990 C   0  0  0  0  0  0  0  0  0  0  0  0
  185.7890  177.5850  144.1660 N   0  0  0  0  0  0  0  0  0  0  0  0
  185.8300  179.0820  146.0340 C   0  0  0  0  0  0  0  0  0  0  0  0
  184.3660  179.5030  144.1520 C   0  0  0  0  0  3  0  0  0  0  0  0
  184.8620  179.8700  145.4030 C   0  0  0  0  0  3  0  0  0  0  0  0
  186.2840  177.9270  145.3860 C   0  0  0  0  0  3  0  0  0  0  0  0
  184.8470  178.3440  143.5400 C   0  0  0  0  0  0  0  0  0  0  0  0
  186.3550  179.4630  147.3550 C   0  0  0  0  0  0  0  0  0  0  0  0
  187.2190  178.6130  148.0370 O   0  0  0  0  0  1  0  0  0  0  0  0
  186.0280  180.5610  147.8800 O   0  0  0  0  0  0  0  0  0  0  0  0
  185.5060  177.1230  137.5470 O   0  0  0  0  0  0  0  0  0  0  0  0
  186.0650  178.9280  138.9280 N   0  0  0  0  0  2  0  0  0  0  0  0
  186.3430  178.0090  137.8650 C   0  0  0  0  0  0  0  0  0  0  0  0
  187.6130  178.1240  137.0940 C   0  0  0  0  0  2  0  0  0  0  0  0
  188.7750  178.4680  138.0060 C   0  0  0  0  0  2  0  0  0  0  0  0
  189.0900  177.2910  138.9050 C   0  0  0  0  0  2  0  0  0  0  0  0
  190.5910  177.1030  138.9850 C   0  0  0  0  0  2  0  0  0  0  0  0
  191.0480  176.0870  137.9470 C   0  0  0  0  0  2  0  0  0  0  0  0
  197.2180  175.0350  138.9870 C   0  0  0  0  0  0  0  0  0  0  0  0
  196.2190  176.0240  134.3770 F   0  0  0  0  0  0  0  0  0  0  0  0
  194.5360  175.5330  135.9640 C   0  0  0  0  0  0  0  0  0  0  0  0
  193.5830  175.9940  138.2770 C   0  0  0  0  0  2  0  0  0  0  0  0
  192.2640  175.2370  138.3470 C   0  0  2  0  0  3  0  0  0  0  0  0
  195.7490  173.8730  134.8410 F   0  0  0  0  0  0  0  0  0  0  0  0
  195.8720  175.1400  135.3850 C   0  0  0  0  0  0  0  0  0  0  0  0
  194.1050  174.9580  137.2930 C   0  0  1  0  0  0  0  0  0  0  0  0
  196.7940  174.6710  140.1160 O   0  0  0  0  0  1  0  0  0  0  0  0
  192.7510  174.2680  137.2750 C   0  0  0  0  0  2  0  0  0  0  0  0
  198.3990  175.7620  138.9090 O   0  0  0  0  0  0  0  0  0  0  0  0
  196.9690  175.1660  136.4830 C   0  0  1  0  0  3  0  0  0  0  0  0
  195.1770  174.0680  137.9150 C   0  0  0  0  0  2  0  0  0  0  0  0
  193.8000  176.2840  135.3420 O   0  0  0  0  0  0  0  0  0  0  0  0
  196.4830  174.7140  137.7970 N   0  0  0  0  0  0  0  0  0  0  0  0
  198.2750  174.4470  136.1090 C   0  0  1  0  0  3  0  0  0  0  0  0
  198.0210  173.2130  135.5060 O   0  0  0  0  0  1  0  0  0  0  0  0
  199.1610  175.3030  135.2200 C   0  0  0  0  0  2  0  0  0  0  0  0
  200.1890  174.5250  134.6830 O   0  0  0  0  0  1  0  0  0  0  0  0
  186.7270  177.5430  141.3200 C   0  0  0  0  0  2  0  0  0  0  0  0
  187.6940  178.6080  141.8120 C   0  0  0  0  0  2  0  0  0  0  0  0
  188.6860  176.5490  142.9890 C   0  0  0  0  0  3  0  0  0  0  0  0
  191.1790  178.1400  143.4590 C   0  0  2  0  0  3  0  0  0  0  0  0
  189.9830  178.6800  142.6960 C   0  0  0  0  0  3  0  0  0  0  0  0
  189.7290  175.9030  143.5210 C   0  0  0  0  0  3  0  0  0  0  0  0
  188.8410  177.9640  142.5070 C   0  0  0  0  0  0  0  0  0  0  0  0
  191.9740  177.3060  142.7190 C   0  0  0  0  0  2  0  0  0  0  0  0
  190.9000  176.6880  143.5550 N   0  0  0  0  0  0  0  0  0  0  0  0
  1  5  1  0  0  0  0
  3  4  1  1  0  0  0
  3  8  1  0  0  0  0
  5  2  1  1  0  0  0
  5  4  1  0  0  0  0
  6  1  1  6  0  0  0
  6  9  1  0  0  0  0
  6  3  1  0  0  0  0
  7 16  1  1  0  0  0
  8  7  1  0  0  0  0
  9 10  2  0  0  0  0
 10 47  1  0  0  0  0
 10  7  1  0  0  0  0
 11 15  1  0  0  0  0
 12 17  1  0  0  0  0
 13 14  2  0  0  0  0
 14 12  1  0  0  0  0
 15 12  2  0  0  0  0
 16 13  1  0  0  0  0
 16 11  2  0  0  0  0
 17 19  2  0  0  0  0
 17 18  1  0  0  0  0
 20 22  2  0  0  0  0
 21  9  1  0  0  0  0
 22 21  1  0  0  0  0
 23 22  1  0  0  0  0
 23 24  1  0  0  0  0
 24 25  1  0  0  0  0
 25 26  1  0  0  0  0
 27 26  1  0  0  0  0
 28 36  1  0  0  0  0
 29 34  1  0  0  0  0
 30 35  1  0  0  0  0
 31 32  1  0  0  0  0
 32 27  1  6  0  0  0
 33 34  1  0  0  0  0
 34 30  1  0  0  0  0
 34 39  1  0  0  0  0
 35 37  1  6  0  0  0
 35 40  1  0  0  0  0
 35 31  1  0  0  0  0
 37 32  1  0  0  0  0
 38 28  2  0  0  0  0
 39 43  1  6  0  0  0
 39 42  1  0  0  0  0
 41 30  2  0  0  0  0
 42 40  1  0  0  0  0
 42 28  1  0  0  0  0
 43 44  1  6  0  0  0
 45 43  1  0  0  0  0
 46 45  1  0  0  0  0
 47 48  1  0  0  0  0
 48 53  1  0  0  0  0
 49 52  2  0  0  0  0
 50 51  1  6  0  0  0
 50 55  1  0  0  0  0
 52 55  1  0  0  0  0
 53 51  2  0  0  0  0
 53 49  1  0  0  0  0
 54 50  1  0  0  0  0
 54 55  1  0  0  0  0
M  END
>  <MODEL>
8

>  <REMARK>
 VINA RESULT:      -6.0      2.241      5.893
  Name = 
  14 active torsions:
  status: ('A' for Active; 'I' for Inactive)
    1  A    between atoms: C_2  and  C_28
    2  A    between atoms: C_2  and  C_44
    3  A    between atoms: C_4  and  C_35
    4  A    between atoms: C_4  and  C_37
    5  A    between atoms: C_8  and  C_51
    6  A    between atoms: C_10  and  C_32
    7  A    between atoms: C_11  and  C_29
    8  A    between atoms: N_19  and  C_45
    9  A    between atoms: C_28  and  C_49
   10  A    between atoms: C_29  and  C_38
   11  A    between atoms: C_33  and  C_52
   12  A    between atoms: C_35  and  C_43
   13  A    between atoms: C_37  and  C_40
   14  A    between atoms: C_43  and  C_51
                            x       y       z     vdW  Elec       q    Type
                         _______ _______ _______ _____ _____    ______ ____

>  <TORSDO>
F 14

$$$$
=
 OpenBabel10272401163D

 55 61  0  0  1  0  0  0  0  0999 V2000
  189.2970  178.4890  137.5520 C   0  0  0  0  0  2  0  0  0  0  0  0
  187.2050  179.5630  137.1180 O   0  0  0  0  0  1  0  0  0  0  0  0
  189.0600  176.9610  135.7970 C   0  0  1  0  0  3  0  0  0  0  0  0
  188.0500  178.0340  135.4890 C   0  0  0  0  0  2  0  0  0  0  0  0
  188.3800  179.1270  136.5070 C   0  0  2  0  0  3  0  0  0  0  0  0
  189.1680  177.0080  137.2860 C   0  0  1  0  0  3  0  0  0  0  0  0
  189.7820  174.7080  135.6840 C   0  0  1  0  0  3  0  0  0  0  0  0
  188.6540  175.6210  135.4150 N   0  0  0  0  0  2  0  0  0  0  0  0
  190.2980  176.1100  137.7160 C   0  0  0  0  0  0  0  0  0  0  0  0
  190.5540  175.0030  136.9790 C   0  0  0  0  0  0  0  0  0  0  0  0
  189.8250  172.4070  134.7600 N   0  0  0  0  0  0  0  0  0  0  0  0
  188.3850  170.6700  135.5570 C   0  0  0  0  0  0  0  0  0  0  0  0
  188.2860  172.8880  136.5210 C   0  0  0  0  0  3  0  0  0  0  0  0
  187.8320  171.5700  136.4730 C   0  0  0  0  0  3  0  0  0  0  0  0
  189.3950  171.1180  134.6980 C   0  0  0  0  0  3  0  0  0  0  0  0
  189.2970  173.2940  135.6480 C   0  0  0  0  0  0  0  0  0  0  0  0
  187.9080  169.2780  135.5010 C   0  0  0  0  0  0  0  0  0  0  0  0
  188.6800  168.2520  136.0340 O   0  0  0  0  0  1  0  0  0  0  0  0
  186.7990  169.0040  134.9700 O   0  0  0  0  0  0  0  0  0  0  0  0
  189.1940  176.7510  140.3430 O   0  0  0  0  0  0  0  0  0  0  0  0
  191.0190  176.3480  138.9360 N   0  0  0  0  0  2  0  0  0  0  0  0
  190.4380  176.8170  140.1570 C   0  0  0  0  0  0  0  0  0  0  0  0
  191.3110  177.3490  141.2410 C   0  0  0  0  0  2  0  0  0  0  0  0
  190.9890  176.6910  142.5700 C   0  0  0  0  0  2  0  0  0  0  0  0
  191.1800  177.6870  143.6960 C   0  0  0  0  0  2  0  0  0  0  0  0
  190.3030  177.2970  144.8690 C   0  0  0  0  0  2  0  0  0  0  0  0
  188.9720  178.0350  144.7960 C   0  0  0  0  0  2  0  0  0  0  0  0
  184.7540  179.0190  140.1600 C   0  0  0  0  0  0  0  0  0  0  0  0
  183.0520  180.1250  144.5310 F   0  0  0  0  0  0  0  0  0  0  0  0
  185.0610  178.9190  144.2190 C   0  0  0  0  0  0  0  0  0  0  0  0
  187.2940  178.7680  143.0090 C   0  0  0  0  0  2  0  0  0  0  0  0
  188.0430  177.6070  143.6500 C   0  0  2  0  0  3  0  0  0  0  0  0
  182.9510  177.9040  144.1850 F   0  0  0  0  0  0  0  0  0  0  0  0
  183.6120  179.0680  143.8330 C   0  0  0  0  0  0  0  0  0  0  0  0
  185.9790  178.0860  143.3530 C   0  0  1  0  0  0  0  0  0  0  0  0
  185.6160  178.4090  139.4740 O   0  0  0  0  0  0  0  0  0  0  0  0
  186.7220  176.9860  144.0930 C   0  0  0  0  0  2  0  0  0  0  0  0
  184.0920  180.1060  139.6030 O   0  0  0  0  0  1  0  0  0  0  0  0
  183.4800  179.3400  142.3100 C   0  0  1  0  0  3  0  0  0  0  0  0
  185.2730  177.5470  142.1130 C   0  0  0  0  0  2  0  0  0  0  0  0
  185.4770  179.4420  145.2420 O   0  0  0  0  0  0  0  0  0  0  0  0
  184.4690  178.6050  141.5030 N   0  0  0  0  0  0  0  0  0  0  0  0
  182.0640  179.1510  141.7400 C   0  0  1  0  0  3  0  0  0  0  0  0
  181.9490  177.9360  141.0600 O   0  0  0  0  0  1  0  0  0  0  0  0
  180.9980  179.2650  142.8160 C   0  0  0  0  0  2  0  0  0  0  0  0
  180.5670  180.5890  142.9180 O   0  0  0  0  0  1  0  0  0  0  0  0
  191.6520  174.0600  137.3720 C   0  0  0  0  0  2  0  0  0  0  0  0
  192.7490  174.0430  136.3200 C   0  0  0  0  0  2  0  0  0  0  0  0
  194.8200  172.5210  136.2590 C   0  0  0  0  0  3  0  0  0  0  0  0
  195.6880  173.7630  138.8410 C   0  0  2  0  0  3  0  0  0  0  0  0
  194.4380  174.1910  138.0960 C   0  0  0  0  0  3  0  0  0  0  0  0
  196.0250  172.1770  136.7240 C   0  0  0  0  0  3  0  0  0  0  0  0
  194.0310  173.6060  136.9360 C   0  0  0  0  0  0  0  0  0  0  0  0
  196.8450  174.2820  138.3220 C   0  0  0  0  0  2  0  0  0  0  0  0
  196.4130  172.9300  137.8520 N   0  0  0  0  0  0  0  0  0  0  0  0
  3  4  1  1  0  0  0
  3  6  1  0  0  0  0
  4  5  1  0  0  0  0
  5  2  1  1  0  0  0
  5  1  1  0  0  0  0
  6  1  1  6  0  0  0
  6  9  1  0  0  0  0
  7 16  1  1  0  0  0
  7 10  1  0  0  0  0
  8  7  1  0  0  0  0
  8  3  1  0  0  0  0
  9 21  1  0  0  0  0
 10 47  1  0  0  0  0
 10  9  2  0  0  0  0
 11 16  1  0  0  0  0
 12 14  2  0  0  0  0
 14 13  1  0  0  0  0
 15 11  2  0  0  0  0
 15 12  1  0  0  0  0
 16 13  2  0  0  0  0
 17 12  1  0  0  0  0
 17 18  1  0  0  0  0
 19 17  2  0  0  0  0
 21 22  1  0  0  0  0
 22 20  2  0  0  0  0
 22 23  1  0  0  0  0
 23 24  1  0  0  0  0
 24 25  1  0  0  0  0
 25 26  1  0  0  0  0
 27 26  1  0  0  0  0
 28 42  1  0  0  0  0
 30 41  2  0  0  0  0
 31 35  1  0  0  0  0
 31 32  1  0  0  0  0
 32 37  1  0  0  0  0
 32 27  1  1  0  0  0
 34 33  1  0  0  0  0
 34 30  1  0  0  0  0
 34 29  1  0  0  0  0
 35 40  1  6  0  0  0
 35 37  1  0  0  0  0
 35 30  1  0  0  0  0
 36 28  2  0  0  0  0
 38 28  1  0  0  0  0
 39 43  1  6  0  0  0
 39 34  1  0  0  0  0
 42 40  1  0  0  0  0
 42 39  1  0  0  0  0
 43 44  1  1  0  0  0
 43 45  1  0  0  0  0
 45 46  1  0  0  0  0
 48 53  1  0  0  0  0
 48 47  1  0  0  0  0
 49 52  2  0  0  0  0
 49 53  1  0  0  0  0
 50 51  1  6  0  0  0
 52 55  1  0  0  0  0
 53 51  2  0  0  0  0
 54 50  1  0  0  0  0
 55 54  1  0  0  0  0
 55 50  1  0  0  0  0
M  END
>  <MODEL>
9

>  <REMARK>
 VINA RESULT:      -5.7      4.270     10.831
  Name = 
  14 active torsions:
  status: ('A' for Active; 'I' for Inactive)
    1  A    between atoms: C_2  and  C_28
    2  A    between atoms: C_2  and  C_44
    3  A    between atoms: C_4  and  C_35
    4  A    between atoms: C_4  and  C_37
    5  A    between atoms: C_8  and  C_51
    6  A    between atoms: C_10  and  C_32
    7  A    between atoms: C_11  and  C_29
    8  A    between atoms: N_19  and  C_45
    9  A    between atoms: C_28  and  C_49
   10  A    between atoms: C_29  and  C_38
   11  A    between atoms: C_33  and  C_52
   12  A    between atoms: C_35  and  C_43
   13  A    between atoms: C_37  and  C_40
   14  A    between atoms: C_43  and  C_51
                            x       y       z     vdW  Elec       q    Type
                         _______ _______ _______ _____ _____    ______ ____

>  <TORSDO>
F 14

$$$$
