=
 OpenBabel10272400233D

 31 34  0  0  1  0  0  0  0  0999 V2000
  193.3430  175.7510  135.7280 C   0  0  0  0  0  0  0  0  0  0  0  0
  190.1620  176.9330  137.4260 C   0  0  2  0  0  3  0  0  0  0  0  0
  189.0320  175.9250  137.2500 C   0  0  0  0  0  0  0  0  0  0  0  0
  190.4330  173.9650  136.7710 O   0  0  0  0  0  1  0  0  0  0  0  0
  191.5680  176.4380  137.2350 C   0  0  0  0  0  0  0  0  0  0  0  0
  194.1620  175.4580  136.8220 C   0  0  0  0  0  3  0  0  0  0  0  0
  189.1850  174.5530  136.9280 C   0  0  0  0  0  0  0  0  0  0  0  0
  190.5160  176.8590  139.9110 C   0  0  2  0  0  3  0  0  0  0  0  0
  193.8470  175.5380  134.3460 C   0  0  0  0  0  1  0  0  0  0  0  0
  187.5650  177.8560  137.8730 C   0  0  0  0  0  2  0  0  0  0  0  0
  188.0530  173.7470  136.7700 C   0  0  0  0  0  3  0  0  0  0  0  0
  191.9960  176.4900  139.7480 C   0  0  0  0  0  2  0  0  0  0  0  0
  190.0040  177.7190  138.7440 C   0  0  2  0  0  3  0  0  0  0  0  0
  192.0520  176.2440  135.9330 C   0  0  0  0  0  3  0  0  0  0  0  0
  186.7730  174.2730  136.9450 C   0  0  0  0  0  3  0  0  0  0  0  0
  192.4000  176.1530  138.3390 C   0  0  0  0  0  0  0  0  0  0  0  0
  193.6940  175.6680  138.1220 C   0  0  0  0  0  3  0  0  0  0  0  0
  188.5500  178.1880  139.0030 C   0  0  0  0  0  2  0  0  0  0  0  0
  187.7350  176.4310  137.4550 C   0  0  0  0  0  0  0  0  0  0  0  0
  186.6140  175.6130  137.2940 C   0  0  0  0  0  3  0  0  0  0  0  0
  190.0600  179.0200  143.6540 C   0  0  0  0  0  1  0  0  0  0  0  0
  190.2870  175.5650  142.4930 O   0  0  0  0  0  0  0  0  0  0  0  0
  190.2050  176.8240  142.4550 C   0  0  0  0  0  0  0  0  0  0  0  0
  190.0140  177.5670  143.6680 N   0  0  0  0  0  0  0  0  0  0  0  0
  190.3040  177.5140  141.2010 N   0  0  0  0  0  2  0  0  0  0  0  0
  189.8680  176.8940  144.9530 C   0  0  0  0  0  2  0  0  0  0  0  0
  189.1040  177.7700  145.9330 C   0  0  0  0  0  2  0  0  0  0  0  0
  187.8100  177.2570  146.1250 O   0  0  0  0  0  0  0  0  0  0  0  0
  186.8830  178.0950  145.4680 C   0  0  1  0  0  3  0  0  0  0  0  0
  186.2980  177.4650  144.3620 O   0  0  0  0  0  1  0  0  0  0  0  0
  185.8210  178.6490  146.4100 C   0  0  0  0  0  1  0  0  0  0  0  0
  1 14  2  0  0  0  0
  1  6  1  0  0  0  0
  2  5  1  1  0  0  0
  2 13  1  0  0  0  0
  3  2  1  0  0  0  0
  3 19  1  0  0  0  0
  4  7  1  0  0  0  0
  5 16  2  0  0  0  0
  6 17  2  0  0  0  0
  7  3  2  0  0  0  0
  8 25  1  1  0  0  0
  9  1  1  0  0  0  0
 10 18  1  0  0  0  0
 11  7  1  0  0  0  0
 11 15  2  0  0  0  0
 12  8  1  0  0  0  0
 13 18  1  1  0  0  0
 13  8  1  0  0  0  0
 14  5  1  0  0  0  0
 15 20  1  0  0  0  0
 16 12  1  0  0  0  0
 17 16  1  0  0  0  0
 19 10  1  0  0  0  0
 20 19  2  0  0  0  0
 21 24  1  0  0  0  0
 23 22  2  0  0  0  0
 23 24  1  0  0  0  0
 24 26  1  0  0  0  0
 25 23  1  0  0  0  0
 26 27  1  0  0  0  0
 27 28  1  0  0  0  0
 29 28  1  0  0  0  0
 29 31  1  1  0  0  0
 30 29  1  0  0  0  0
M  END
>  <MODEL>
1

>  <REMARK>
 VINA RESULT:      -6.7      0.000      0.000
  Name = 
  5 active torsions:
  status: ('A' for Active; 'I' for Inactive)
    1  A    between atoms: C_1  and  O_24
    2  A    between atoms: C_6  and  C_19
    3  A    between atoms: C_6  and  N_22
    4  A    between atoms: C_15  and  N_23
    5  A    between atoms: C_19  and  O_24
                            x       y       z     vdW  Elec       q    Type
                         _______ _______ _______ _____ _____    ______ ____

>  <TORSDO>
F 5

$$$$
=
 OpenBabel10272400233D

 31 34  0  0  1  0  0  0  0  0999 V2000
  190.1390  177.4120  141.8150 C   0  0  0  0  0  0  0  0  0  0  0  0
  189.8420  175.9610  138.3210 C   0  0  2  0  0  3  0  0  0  0  0  0
  188.9920  176.8500  137.4220 C   0  0  0  0  0  0  0  0  0  0  0  0
  189.2400  178.9270  138.7090 O   0  0  0  0  0  1  0  0  0  0  0  0
  190.4370  176.5870  139.5520 C   0  0  0  0  0  0  0  0  0  0  0  0
  191.4790  177.8060  141.8510 C   0  0  0  0  0  3  0  0  0  0  0  0
  188.7120  178.2240  137.6350 C   0  0  0  0  0  0  0  0  0  0  0  0
  192.0860  176.1210  137.2050 C   0  0  2  0  0  3  0  0  0  0  0  0
  189.2650  177.6450  142.9950 C   0  0  0  0  0  1  0  0  0  0  0  0
  188.8240  174.7980  135.9960 C   0  0  0  0  0  2  0  0  0  0  0  0
  187.8900  178.9120  136.7380 C   0  0  0  0  0  3  0  0  0  0  0  0
  192.7540  176.6290  138.4880 C   0  0  0  0  0  2  0  0  0  0  0  0
  190.8980  175.1910  137.5010 C   0  0  2  0  0  3  0  0  0  0  0  0
  189.6200  176.8000  140.6710 C   0  0  0  0  0  3  0  0  0  0  0  0
  187.3560  178.2670  135.6220 C   0  0  0  0  0  3  0  0  0  0  0  0
  191.7940  176.9740  139.5930 C   0  0  0  0  0  0  0  0  0  0  0  0
  192.3040  177.5790  140.7470 C   0  0  0  0  0  3  0  0  0  0  0  0
  190.3310  174.5880  136.1920 C   0  0  0  0  0  2  0  0  0  0  0  0
  188.4700  176.2250  136.2740 C   0  0  0  0  0  0  0  0  0  0  0  0
  187.6510  176.9250  135.3870 C   0  0  0  0  0  3  0  0  0  0  0  0
  194.9880  173.9540  134.8020 C   0  0  0  0  0  1  0  0  0  0  0  0
  194.5470  177.2910  136.2190 O   0  0  0  0  0  0  0  0  0  0  0  0
  194.2880  176.1000  135.8920 C   0  0  0  0  0  0  0  0  0  0  0  0
  195.2060  175.3680  135.0670 N   0  0  0  0  0  0  0  0  0  0  0  0
  193.0790  175.4750  136.3470 N   0  0  0  0  0  2  0  0  0  0  0  0
  196.4220  175.9860  134.5540 C   0  0  0  0  0  2  0  0  0  0  0  0
  197.6440  175.4500  135.2840 C   0  0  0  0  0  2  0  0  0  0  0  0
  197.5890  175.8170  136.6400 O   0  0  0  0  0  0  0  0  0  0  0  0
  197.8600  174.6820  137.4340 C   0  0  1  0  0  3  0  0  0  0  0  0
  198.9440  174.8900  138.2950 O   0  0  0  0  0  1  0  0  0  0  0  0
  196.6360  174.1920  138.1980 C   0  0  0  0  0  1  0  0  0  0  0  0
  1  6  1  0  0  0  0
  1  9  1  0  0  0  0
  2  3  1  6  0  0  0
  2  5  1  0  0  0  0
  3  7  1  0  0  0  0
  5 16  2  0  0  0  0
  5 14  1  0  0  0  0
  7  4  1  0  0  0  0
  8 25  1  6  0  0  0
  8 13  1  0  0  0  0
  8 12  1  0  0  0  0
 10 18  1  0  0  0  0
 10 19  1  0  0  0  0
 11  7  2  0  0  0  0
 12 16  1  0  0  0  0
 13 18  1  6  0  0  0
 13  2  1  0  0  0  0
 14  1  2  0  0  0  0
 15 11  1  0  0  0  0
 16 17  1  0  0  0  0
 17  6  2  0  0  0  0
 19  3  2  0  0  0  0
 20 15  2  0  0  0  0
 20 19  1  0  0  0  0
 21 24  1  0  0  0  0
 23 22  2  0  0  0  0
 23 25  1  0  0  0  0
 24 23  1  0  0  0  0
 26 24  1  0  0  0  0
 26 27  1  0  0  0  0
 27 28  1  0  0  0  0
 28 29  1  0  0  0  0
 29 31  1  1  0  0  0
 29 30  1  0  0  0  0
M  END
>  <MODEL>
2

>  <REMARK>
 VINA RESULT:      -6.7      3.459      7.879
  Name = 
  5 active torsions:
  status: ('A' for Active; 'I' for Inactive)
    1  A    between atoms: C_1  and  O_24
    2  A    between atoms: C_6  and  C_19
    3  A    between atoms: C_6  and  N_22
    4  A    between atoms: C_15  and  N_23
    5  A    between atoms: C_19  and  O_24
                            x       y       z     vdW  Elec       q    Type
                         _______ _______ _______ _____ _____    ______ ____

>  <TORSDO>
F 5

$$$$
=
 OpenBabel10272400233D

 31 34  0  0  1  0  0  0  0  0999 V2000
  186.1110  179.0640  146.9410 C   0  0  0  0  0  0  0  0  0  0  0  0
  189.3530  178.2200  145.1580 C   0  0  2  0  0  3  0  0  0  0  0  0
  190.1640  177.1930  145.9390 C   0  0  0  0  0  0  0  0  0  0  0  0
  188.3120  176.2720  147.2640 O   0  0  0  0  0  1  0  0  0  0  0  0
  187.8840  178.3170  145.4600 C   0  0  0  0  0  0  0  0  0  0  0  0
  185.1590  178.4750  146.1050 C   0  0  0  0  0  3  0  0  0  0  0  0
  189.6590  176.3110  146.9280 C   0  0  0  0  0  0  0  0  0  0  0  0
  188.7970  176.9350  143.0730 C   0  0  2  0  0  3  0  0  0  0  0  0
  185.6780  179.7710  148.1750 C   0  0  0  0  0  1  0  0  0  0  0  0
  192.0600  177.9970  144.5140 C   0  0  0  0  0  2  0  0  0  0  0  0
  190.5280  175.4360  147.5870 C   0  0  0  0  0  3  0  0  0  0  0  0
  187.2910  177.1380  143.2770 C   0  0  0  0  0  2  0  0  0  0  0  0
  189.6210  178.1010  143.6420 C   0  0  2  0  0  3  0  0  0  0  0  0
  187.4690  178.9900  146.6180 C   0  0  0  0  0  3  0  0  0  0  0  0
  191.8860  175.4080  147.2700 C   0  0  0  0  0  3  0  0  0  0  0  0
  186.9210  177.7320  144.6090 C   0  0  0  0  0  0  0  0  0  0  0  0
  185.5640  177.8200  144.9380 C   0  0  0  0  0  3  0  0  0  0  0  0
  191.1220  177.9340  143.3020 C   0  0  0  0  0  2  0  0  0  0  0  0
  191.5310  177.1280  145.6100 C   0  0  0  0  0  0  0  0  0  0  0  0
  192.3870  176.2490  146.2780 C   0  0  0  0  0  3  0  0  0  0  0  0
  189.9050  176.1620  138.9420 C   0  0  0  0  0  1  0  0  0  0  0  0
  188.0660  178.6630  140.8650 O   0  0  0  0  0  0  0  0  0  0  0  0
  188.7040  177.6070  140.6000 C   0  0  0  0  0  0  0  0  0  0  0  0
  189.0510  177.3000  139.2420 N   0  0  0  0  0  0  0  0  0  0  0  0
  189.0830  176.7110  141.6560 N   0  0  0  0  0  2  0  0  0  0  0  0
  188.6450  178.1670  138.1430 C   0  0  0  0  0  2  0  0  0  0  0  0
  187.2690  177.7720  137.6300 C   0  0  0  0  0  2  0  0  0  0  0  0
  186.3770  178.8490  137.7780 O   0  0  0  0  0  0  0  0  0  0  0  0
  185.3620  178.4810  138.6880 C   0  0  1  0  0  3  0  0  0  0  0  0
  184.9840  179.5480  139.5120 O   0  0  0  0  0  1  0  0  0  0  0  0
  184.1530  177.8600  138.0000 C   0  0  0  0  0  1  0  0  0  0  0  0
  1  9  1  0  0  0  0
  2  5  1  6  0  0  0
  2  3  1  0  0  0  0
  3  7  1  0  0  0  0
  5 14  2  0  0  0  0
  6  1  2  0  0  0  0
  7  4  1  0  0  0  0
  7 11  2  0  0  0  0
  8 25  1  6  0  0  0
  8 12  1  0  0  0  0
  8 13  1  0  0  0  0
 10 19  1  0  0  0  0
 12 16  1  0  0  0  0
 13 18  1  1  0  0  0
 13  2  1  0  0  0  0
 14  1  1  0  0  0  0
 15 11  1  0  0  0  0
 16 17  2  0  0  0  0
 16  5  1  0  0  0  0
 17  6  1  0  0  0  0
 18 10  1  0  0  0  0
 19  3  2  0  0  0  0
 19 20  1  0  0  0  0
 20 15  2  0  0  0  0
 21 24  1  0  0  0  0
 23 22  2  0  0  0  0
 23 25  1  0  0  0  0
 24 23  1  0  0  0  0
 26 24  1  0  0  0  0
 27 28  1  0  0  0  0
 27 26  1  0  0  0  0
 28 29  1  0  0  0  0
 29 31  1  6  0  0  0
 29 30  1  0  0  0  0
M  END
>  <MODEL>
3

>  <REMARK>
 VINA RESULT:      -6.2      2.961      8.915
  Name = 
  5 active torsions:
  status: ('A' for Active; 'I' for Inactive)
    1  A    between atoms: C_1  and  O_24
    2  A    between atoms: C_6  and  C_19
    3  A    between atoms: C_6  and  N_22
    4  A    between atoms: C_15  and  N_23
    5  A    between atoms: C_19  and  O_24
                            x       y       z     vdW  Elec       q    Type
                         _______ _______ _______ _____ _____    ______ ____

>  <TORSDO>
F 5

$$$$
=
 OpenBabel10272400233D

 31 34  0  0  1  0  0  0  0  0999 V2000
  181.1300  178.8450  142.3320 C   0  0  0  0  0  0  0  0  0  0  0  0
  181.7050  178.0560  138.6650 C   0  0  2  0  0  3  0  0  0  0  0  0
  181.3240  179.2360  137.7780 C   0  0  0  0  0  0  0  0  0  0  0  0
  181.4830  180.9840  139.4960 O   0  0  0  0  0  1  0  0  0  0  0  0
  181.9800  178.3400  140.1150 C   0  0  0  0  0  0  0  0  0  0  0  0
  182.4370  178.9340  142.8170 C   0  0  0  0  0  3  0  0  0  0  0  0
  181.2100  180.5860  138.1940 C   0  0  0  0  0  0  0  0  0  0  0  0
  184.1800  177.9090  138.2660 C   0  0  2  0  0  3  0  0  0  0  0  0
  179.9820  179.0690  143.2500 C   0  0  0  0  0  1  0  0  0  0  0  0
  181.2860  177.5160  135.9580 C   0  0  0  0  0  2  0  0  0  0  0  0
  180.8230  181.5650  137.2740 C   0  0  0  0  0  3  0  0  0  0  0  0
  184.4900  178.0560  139.7600 C   0  0  0  0  0  2  0  0  0  0  0  0
  182.8290  177.2180  138.0210 C   0  0  2  0  0  3  0  0  0  0  0  0
  180.9010  178.5440  140.9870 C   0  0  0  0  0  3  0  0  0  0  0  0
  180.5660  181.2320  135.9440 C   0  0  0  0  0  3  0  0  0  0  0  0
  183.3010  178.4200  140.6070 C   0  0  0  0  0  0  0  0  0  0  0  0
  183.5180  178.7130  141.9580 C   0  0  0  0  0  3  0  0  0  0  0  0
  182.6070  176.9630  136.5090 C   0  0  0  0  0  2  0  0  0  0  0  0
  181.0920  178.9230  136.4260 C   0  0  0  0  0  0  0  0  0  0  0  0
  180.7060  179.9120  135.5180 C   0  0  0  0  0  3  0  0  0  0  0  0
  187.3680  175.5960  136.4290 C   0  0  0  0  0  1  0  0  0  0  0  0
  186.7510  179.0240  137.5290 O   0  0  0  0  0  0  0  0  0  0  0  0
  186.5360  177.8100  137.2590 C   0  0  0  0  0  0  0  0  0  0  0  0
  187.5520  177.0270  136.6160 N   0  0  0  0  0  0  0  0  0  0  0  0
  185.2750  177.2110  137.5950 N   0  0  0  0  0  2  0  0  0  0  0  0
  188.8270  177.6160  136.2250 C   0  0  0  0  0  2  0  0  0  0  0  0
  189.8990  177.3060  137.2570 C   0  0  0  0  0  2  0  0  0  0  0  0
  189.8270  178.2310  138.3130 O   0  0  0  0  0  0  0  0  0  0  0  0
  189.7380  177.5260  139.5330 C   0  0  1  0  0  3  0  0  0  0  0  0
  190.9660  177.4850  140.2060 O   0  0  0  0  0  1  0  0  0  0  0  0
  188.6320  178.0560  140.4380 C   0  0  0  0  0  1  0  0  0  0  0  0
  1  6  1  0  0  0  0
  1  9  1  0  0  0  0
  2  3  1  6  0  0  0
  2  5  1  0  0  0  0
  3  7  1  0  0  0  0
  5 16  2  0  0  0  0
  5 14  1  0  0  0  0
  7  4  1  0  0  0  0
  8 25  1  6  0  0  0
  8 12  1  0  0  0  0
 10 19  1  0  0  0  0
 10 18  1  0  0  0  0
 11  7  2  0  0  0  0
 12 16  1  0  0  0  0
 13 18  1  6  0  0  0
 13  8  1  0  0  0  0
 13  2  1  0  0  0  0
 14  1  2  0  0  0  0
 15 11  1  0  0  0  0
 16 17  1  0  0  0  0
 17  6  2  0  0  0  0
 19  3  2  0  0  0  0
 20 15  2  0  0  0  0
 20 19  1  0  0  0  0
 21 24  1  0  0  0  0
 23 22  2  0  0  0  0
 23 25  1  0  0  0  0
 24 23  1  0  0  0  0
 26 24  1  0  0  0  0
 26 27  1  0  0  0  0
 27 28  1  0  0  0  0
 28 29  1  0  0  0  0
 29 30  1  0  0  0  0
 29 31  1  1  0  0  0
M  END
>  <MODEL>
4

>  <REMARK>
 VINA RESULT:      -6.2      5.361      9.313
  Name = 
  5 active torsions:
  status: ('A' for Active; 'I' for Inactive)
    1  A    between atoms: C_1  and  O_24
    2  A    between atoms: C_6  and  C_19
    3  A    between atoms: C_6  and  N_22
    4  A    between atoms: C_15  and  N_23
    5  A    between atoms: C_19  and  O_24
                            x       y       z     vdW  Elec       q    Type
                         _______ _______ _______ _____ _____    ______ ____

>  <TORSDO>
F 5

$$$$
=
 OpenBabel10272400233D

 31 34  0  0  1  0  0  0  0  0999 V2000
  181.2230  178.6790  143.0320 C   0  0  0  0  0  0  0  0  0  0  0  0
  182.2780  178.1290  139.4280 C   0  0  2  0  0  3  0  0  0  0  0  0
  181.6770  179.1850  138.5080 C   0  0  0  0  0  0  0  0  0  0  0  0
  181.2370  180.8850  140.2250 O   0  0  0  0  0  1  0  0  0  0  0  0
  182.3520  178.4510  140.8950 C   0  0  0  0  0  0  0  0  0  0  0  0
  182.4190  179.0960  143.6230 C   0  0  0  0  0  3  0  0  0  0  0  0
  181.1830  180.4530  138.9060 C   0  0  0  0  0  0  0  0  0  0  0  0
  184.7300  178.6360  139.2360 C   0  0  2  0  0  3  0  0  0  0  0  0
  179.9860  178.5830  143.8500 C   0  0  0  0  0  1  0  0  0  0  0  0
  182.2340  177.5460  136.6980 C   0  0  0  0  0  2  0  0  0  0  0  0
  180.6310  181.3140  137.9530 C   0  0  0  0  0  3  0  0  0  0  0  0
  184.8690  178.8320  140.7500 C   0  0  0  0  0  2  0  0  0  0  0  0
  183.6290  177.6220  138.8830 C   0  0  2  0  0  3  0  0  0  0  0  0
  181.1900  178.3530  141.6740 C   0  0  0  0  0  3  0  0  0  0  0  0
  180.5780  180.9480  136.6080 C   0  0  0  0  0  3  0  0  0  0  0  0
  183.5620  178.8610  141.4940 C   0  0  0  0  0  0  0  0  0  0  0  0
  183.5850  179.1770  142.8570 C   0  0  0  0  0  3  0  0  0  0  0  0
  183.6040  177.3450  137.3600 C   0  0  0  0  0  2  0  0  0  0  0  0
  181.6440  178.8470  137.1420 C   0  0  0  0  0  0  0  0  0  0  0  0
  181.0900  179.7170  136.2020 C   0  0  0  0  0  3  0  0  0  0  0  0
  188.4300  177.2820  137.4020 C   0  0  0  0  0  1  0  0  0  0  0  0
  187.3220  178.8350  140.5150 O   0  0  0  0  0  0  0  0  0  0  0  0
  187.2780  178.3690  139.3430 C   0  0  0  0  0  0  0  0  0  0  0  0
  188.4850  177.9490  138.6920 N   0  0  0  0  0  0  0  0  0  0  0  0
  186.0200  178.2570  138.6610 N   0  0  0  0  0  2  0  0  0  0  0  0
  189.7830  178.0880  139.3420 C   0  0  0  0  0  2  0  0  0  0  0  0
  190.0850  176.8710  140.2010 C   0  0  0  0  0  2  0  0  0  0  0  0
  190.2180  177.2570  141.5460 O   0  0  0  0  0  0  0  0  0  0  0  0
  189.6480  176.2600  142.3680 C   0  0  1  0  0  3  0  0  0  0  0  0
  190.6140  175.3880  142.8830 O   0  0  0  0  0  1  0  0  0  0  0  0
  188.7810  176.8400  143.4790 C   0  0  0  0  0  1  0  0  0  0  0  0
  1  6  1  0  0  0  0
  1  9  1  0  0  0  0
  2  3  1  6  0  0  0
  2  5  1  0  0  0  0
  3  7  1  0  0  0  0
  5 16  2  0  0  0  0
  5 14  1  0  0  0  0
  7  4  1  0  0  0  0
  8 25  1  1  0  0  0
  8 12  1  0  0  0  0
 10 19  1  0  0  0  0
 10 18  1  0  0  0  0
 11  7  2  0  0  0  0
 12 16  1  0  0  0  0
 13 18  1  6  0  0  0
 13  8  1  0  0  0  0
 13  2  1  0  0  0  0
 14  1  2  0  0  0  0
 15 11  1  0  0  0  0
 16 17  1  0  0  0  0
 17  6  2  0  0  0  0
 19  3  2  0  0  0  0
 20 15  2  0  0  0  0
 20 19  1  0  0  0  0
 21 24  1  0  0  0  0
 23 22  2  0  0  0  0
 24 26  1  0  0  0  0
 24 23  1  0  0  0  0
 25 23  1  0  0  0  0
 26 27  1  0  0  0  0
 27 28  1  0  0  0  0
 28 29  1  0  0  0  0
 29 30  1  0  0  0  0
 29 31  1  1  0  0  0
M  END
>  <MODEL>
5

>  <REMARK>
 VINA RESULT:      -6.2      4.865      8.711
  Name = 
  5 active torsions:
  status: ('A' for Active; 'I' for Inactive)
    1  A    between atoms: C_1  and  O_24
    2  A    between atoms: C_6  and  C_19
    3  A    between atoms: C_6  and  N_22
    4  A    between atoms: C_15  and  N_23
    5  A    between atoms: C_19  and  O_24
                            x       y       z     vdW  Elec       q    Type
                         _______ _______ _______ _____ _____    ______ ____

>  <TORSDO>
F 5

$$$$
=
 OpenBabel10272400233D

 31 34  0  0  1  0  0  0  0  0999 V2000
  180.8100  181.3900  137.7750 C   0  0  0  0  0  0  0  0  0  0  0  0
  183.7550  179.5730  139.3320 C   0  0  2  0  0  3  0  0  0  0  0  0
  183.4710  179.1970  140.7820 C   0  0  0  0  0  0  0  0  0  0  0  0
  181.0190  179.2920  140.6560 O   0  0  0  0  0  1  0  0  0  0  0  0
  182.5750  179.8650  138.4490 C   0  0  0  0  0  0  0  0  0  0  0  0
  180.3310  180.4410  136.8680 C   0  0  0  0  0  3  0  0  0  0  0  0
  182.1890  179.0910  141.3780 C   0  0  0  0  0  0  0  0  0  0  0  0
  183.9470  177.3110  138.2590 C   0  0  2  0  0  3  0  0  0  0  0  0
  180.1250  182.7030  137.9040 C   0  0  0  0  0  1  0  0  0  0  0  0
  185.9580  178.9470  140.9290 C   0  0  0  0  0  2  0  0  0  0  0  0
  182.0780  178.7630  142.7320 C   0  0  0  0  0  3  0  0  0  0  0  0
  182.8390  177.6310  137.2480 C   0  0  0  0  0  2  0  0  0  0  0  0
  184.7260  178.5680  138.6790 C   0  0  2  0  0  3  0  0  0  0  0  0
  181.9300  181.1060  138.5600 C   0  0  0  0  0  3  0  0  0  0  0  0
  183.2150  178.5190  143.5020 C   0  0  0  0  0  3  0  0  0  0  0  0
  182.0990  178.9110  137.5240 C   0  0  0  0  0  0  0  0  0  0  0  0
  180.9800  179.2100  136.7380 C   0  0  0  0  0  3  0  0  0  0  0  0
  185.9210  178.1950  139.5920 C   0  0  0  0  0  2  0  0  0  0  0  0
  184.6050  178.9170  141.5660 C   0  0  0  0  0  0  0  0  0  0  0  0
  184.4790  178.5900  142.9180 C   0  0  0  0  0  3  0  0  0  0  0  0
  186.6230  174.1550  136.9290 C   0  0  0  0  0  1  0  0  0  0  0  0
  185.7900  177.5980  136.0410 O   0  0  0  0  0  0  0  0  0  0  0  0
  185.7340  176.4780  136.6200 C   0  0  0  0  0  0  0  0  0  0  0  0
  186.5750  175.4010  136.1810 N   0  0  0  0  0  0  0  0  0  0  0  0
  184.8320  176.2800  137.7190 N   0  0  0  0  0  2  0  0  0  0  0  0
  187.4720  175.5570  135.0420 C   0  0  0  0  0  2  0  0  0  0  0  0
  188.8990  175.7910  135.5120 C   0  0  0  0  0  2  0  0  0  0  0  0
  189.1520  177.1710  135.6000 O   0  0  0  0  0  0  0  0  0  0  0  0
  189.2910  177.5260  136.9590 C   0  0  1  0  0  3  0  0  0  0  0  0
  190.5500  177.1800  137.4660 O   0  0  0  0  0  1  0  0  0  0  0  0
  188.9790  178.9950  137.2180 C   0  0  0  0  0  1  0  0  0  0  0  0
  1  9  1  0  0  0  0
  1 14  1  0  0  0  0
  2  5  1  6  0  0  0
  2  3  1  0  0  0  0
  3  7  2  0  0  0  0
  3 19  1  0  0  0  0
  4  7  1  0  0  0  0
  5 14  2  0  0  0  0
  6  1  2  0  0  0  0
  7 11  1  0  0  0  0
  8 25  1  6  0  0  0
  8 13  1  0  0  0  0
 10 19  1  0  0  0  0
 11 15  2  0  0  0  0
 12 16  1  0  0  0  0
 12  8  1  0  0  0  0
 13  2  1  0  0  0  0
 13 18  1  1  0  0  0
 16  5  1  0  0  0  0
 17  6  1  0  0  0  0
 17 16  2  0  0  0  0
 18 10  1  0  0  0  0
 19 20  2  0  0  0  0
 20 15  1  0  0  0  0
 22 23  2  0  0  0  0
 23 25  1  0  0  0  0
 24 23  1  0  0  0  0
 24 21  1  0  0  0  0
 26 27  1  0  0  0  0
 26 24  1  0  0  0  0
 27 28  1  0  0  0  0
 28 29  1  0  0  0  0
 29 31  1  6  0  0  0
 29 30  1  0  0  0  0
M  END
>  <MODEL>
6

>  <REMARK>
 VINA RESULT:      -5.8      4.982      9.550
  Name = 
  5 active torsions:
  status: ('A' for Active; 'I' for Inactive)
    1  A    between atoms: C_1  and  O_24
    2  A    between atoms: C_6  and  C_19
    3  A    between atoms: C_6  and  N_22
    4  A    between atoms: C_15  and  N_23
    5  A    between atoms: C_19  and  O_24
                            x       y       z     vdW  Elec       q    Type
                         _______ _______ _______ _____ _____    ______ ____

>  <TORSDO>
F 5

$$$$
=
 OpenBabel10272400233D

 31 34  0  0  1  0  0  0  0  0999 V2000
  192.0140  177.2440  139.9480 C   0  0  0  0  0  0  0  0  0  0  0  0
  189.3080  177.6750  137.3230 C   0  0  2  0  0  3  0  0  0  0  0  0
  189.0820  176.3850  136.5430 C   0  0  0  0  0  0  0  0  0  0  0  0
  190.0280  174.8430  138.2050 O   0  0  0  0  0  1  0  0  0  0  0  0
  189.9800  177.5650  138.6630 C   0  0  0  0  0  0  0  0  0  0  0  0
  191.2760  177.2930  141.1340 C   0  0  0  0  0  3  0  0  0  0  0  0
  189.4430  175.0820  136.9680 C   0  0  0  0  0  0  0  0  0  0  0  0
  187.1030  177.9420  138.4960 C   0  0  2  0  0  3  0  0  0  0  0  0
  193.4860  177.0430  139.9980 C   0  0  0  0  0  1  0  0  0  0  0  0
  187.9780  177.8950  134.8780 C   0  0  0  0  0  2  0  0  0  0  0  0
  189.1990  173.9870  136.1340 C   0  0  0  0  0  3  0  0  0  0  0  0
  187.7730  177.9760  139.8740 C   0  0  0  0  0  2  0  0  0  0  0  0
  188.0140  178.5130  137.3960 C   0  0  2  0  0  3  0  0  0  0  0  0
  191.3690  177.3840  138.7170 C   0  0  0  0  0  3  0  0  0  0  0  0
  188.5860  174.1590  134.8930 C   0  0  0  0  0  3  0  0  0  0  0  0
  189.2360  177.6270  139.8620 C   0  0  0  0  0  0  0  0  0  0  0  0
  189.8940  177.4940  141.0900 C   0  0  0  0  0  3  0  0  0  0  0  0
  187.2620  178.5900  136.0440 C   0  0  0  0  0  2  0  0  0  0  0  0
  188.4350  176.5360  135.3030 C   0  0  0  0  0  0  0  0  0  0  0  0
  188.1980  175.4330  134.4800 C   0  0  0  0  0  3  0  0  0  0  0  0
  183.3840  180.1580  138.8790 C   0  0  0  0  0  1  0  0  0  0  0  0
  184.4890  176.7860  138.0180 O   0  0  0  0  0  0  0  0  0  0  0  0
  184.5470  178.0120  138.3100 C   0  0  0  0  0  0  0  0  0  0  0  0
  183.3410  178.7840  138.4060 N   0  0  0  0  0  0  0  0  0  0  0  0
  185.8170  178.6370  138.5480 N   0  0  0  0  0  2  0  0  0  0  0  0
  182.0380  178.1900  138.1290 C   0  0  0  0  0  2  0  0  0  0  0  0
  181.0380  178.5660  139.2110 C   0  0  0  0  0  2  0  0  0  0  0  0
  181.1920  177.7160  140.3200 O   0  0  0  0  0  0  0  0  0  0  0  0
  181.2350  178.4990  141.4940 C   0  0  1  0  0  3  0  0  0  0  0  0
  182.5480  178.7770  141.8920 O   0  0  0  0  0  1  0  0  0  0  0  0
  180.4120  179.7760  141.3790 C   0  0  0  0  0  1  0  0  0  0  0  0
  1  9  1  0  0  0  0
  1  6  1  0  0  0  0
  2  3  1  1  0  0  0
  2 13  1  0  0  0  0
  2  5  1  0  0  0  0
  3  7  1  0  0  0  0
  5 14  1  0  0  0  0
  5 16  2  0  0  0  0
  7  4  1  0  0  0  0
  8 25  1  1  0  0  0
  8 12  1  0  0  0  0
 10 19  1  0  0  0  0
 10 18  1  0  0  0  0
 11  7  2  0  0  0  0
 13 18  1  6  0  0  0
 13  8  1  0  0  0  0
 14  1  2  0  0  0  0
 15 11  1  0  0  0  0
 16 12  1  0  0  0  0
 16 17  1  0  0  0  0
 17  6  2  0  0  0  0
 19  3  2  0  0  0  0
 20 15  2  0  0  0  0
 20 19  1  0  0  0  0
 22 23  2  0  0  0  0
 23 24  1  0  0  0  0
 23 25  1  0  0  0  0
 24 21  1  0  0  0  0
 26 24  1  0  0  0  0
 26 27  1  0  0  0  0
 27 28  1  0  0  0  0
 28 29  1  0  0  0  0
 29 31  1  6  0  0  0
 29 30  1  0  0  0  0
M  END
>  <MODEL>
7

>  <REMARK>
 VINA RESULT:      -5.7      3.810      5.490
  Name = 
  5 active torsions:
  status: ('A' for Active; 'I' for Inactive)
    1  A    between atoms: C_1  and  O_24
    2  A    between atoms: C_6  and  C_19
    3  A    between atoms: C_6  and  N_22
    4  A    between atoms: C_15  and  N_23
    5  A    between atoms: C_19  and  O_24
                            x       y       z     vdW  Elec       q    Type
                         _______ _______ _______ _____ _____    ______ ____

>  <TORSDO>
F 5

$$$$
=
 OpenBabel10272400233D

 31 34  0  0  1  0  0  0  0  0999 V2000
  190.0560  177.1880  142.0210 C   0  0  0  0  0  0  0  0  0  0  0  0
  190.1230  175.9800  138.4240 C   0  0  2  0  0  3  0  0  0  0  0  0
  189.2250  176.8340  137.5360 C   0  0  0  0  0  0  0  0  0  0  0  0
  189.1570  178.8220  138.9770 O   0  0  0  0  0  1  0  0  0  0  0  0
  190.5720  176.5740  139.7300 C   0  0  0  0  0  0  0  0  0  0  0  0
  191.3370  177.7260  142.1690 C   0  0  0  0  0  3  0  0  0  0  0  0
  188.7750  178.1470  137.8250 C   0  0  0  0  0  0  0  0  0  0  0  0
  192.3910  176.4760  137.4650 C   0  0  2  0  0  3  0  0  0  0  0  0
  189.0980  177.2300  143.1570 C   0  0  0  0  0  1  0  0  0  0  0  0
  189.3760  174.8890  135.9650 C   0  0  0  0  0  2  0  0  0  0  0  0
  187.9290  178.8040  136.9270 C   0  0  0  0  0  3  0  0  0  0  0  0
  192.9240  176.9570  138.8200 C   0  0  0  0  0  2  0  0  0  0  0  0
  191.3050  175.3980  137.6210 C   0  0  2  0  0  3  0  0  0  0  0  0
  189.6760  176.6090  140.8070 C   0  0  0  0  0  3  0  0  0  0  0  0
  187.5350  178.1890  135.7380 C   0  0  0  0  0  3  0  0  0  0  0  0
  191.8700  177.1080  139.8830 C   0  0  0  0  0  0  0  0  0  0  0  0
  192.2430  177.6770  141.1060 C   0  0  0  0  0  3  0  0  0  0  0  0
  190.8850  174.8370  136.2400 C   0  0  0  0  0  2  0  0  0  0  0  0
  188.8440  176.2420  136.3180 C   0  0  0  0  0  0  0  0  0  0  0  0
  187.9980  176.9110  135.4310 C   0  0  0  0  0  3  0  0  0  0  0  0
  195.5080  175.1420  134.7470 C   0  0  0  0  0  1  0  0  0  0  0  0
  194.2560  174.3470  138.0840 O   0  0  0  0  0  0  0  0  0  0  0  0
  194.3890  174.9450  136.9810 C   0  0  0  0  0  0  0  0  0  0  0  0
  195.4340  174.5570  136.0760 N   0  0  0  0  0  0  0  0  0  0  0  0
  193.4970  176.0130  136.6290 N   0  0  0  0  0  2  0  0  0  0  0  0
  196.3820  173.5050  136.4220 C   0  0  0  0  0  2  0  0  0  0  0  0
  195.9880  172.1920  135.7650 C   0  0  0  0  0  2  0  0  0  0  0  0
  195.4600  171.3150  136.7280 O   0  0  0  0  0  0  0  0  0  0  0  0
  194.0950  171.0910  136.4460 C   0  0  1  0  0  3  0  0  0  0  0  0
  193.7170  171.6420  135.2150 O   0  0  0  0  0  1  0  0  0  0  0  0
  193.7110  169.6190  136.5320 C   0  0  0  0  0  1  0  0  0  0  0  0
  1  6  1  0  0  0  0
  1  9  1  0  0  0  0
  2  3  1  6  0  0  0
  2  5  1  0  0  0  0
  3  7  1  0  0  0  0
  5 16  2  0  0  0  0
  5 14  1  0  0  0  0
  7  4  1  0  0  0  0
  8 25  1  6  0  0  0
  8 13  1  0  0  0  0
  8 12  1  0  0  0  0
 10 18  1  0  0  0  0
 10 19  1  0  0  0  0
 11  7  2  0  0  0  0
 12 16  1  0  0  0  0
 13 18  1  6  0  0  0
 13  2  1  0  0  0  0
 14  1  2  0  0  0  0
 15 11  1  0  0  0  0
 16 17  1  0  0  0  0
 17  6  2  0  0  0  0
 19  3  2  0  0  0  0
 20 15  2  0  0  0  0
 20 19  1  0  0  0  0
 21 24  1  0  0  0  0
 23 22  2  0  0  0  0
 24 26  1  0  0  0  0
 24 23  1  0  0  0  0
 25 23  1  0  0  0  0
 27 26  1  0  0  0  0
 27 28  1  0  0  0  0
 29 31  1  6  0  0  0
 29 28  1  0  0  0  0
 30 29  1  0  0  0  0
M  END
>  <MODEL>
8

>  <REMARK>
 VINA RESULT:      -5.6      3.244      7.705
  Name = 
  5 active torsions:
  status: ('A' for Active; 'I' for Inactive)
    1  A    between atoms: C_1  and  O_24
    2  A    between atoms: C_6  and  C_19
    3  A    between atoms: C_6  and  N_22
    4  A    between atoms: C_15  and  N_23
    5  A    between atoms: C_19  and  O_24
                            x       y       z     vdW  Elec       q    Type
                         _______ _______ _______ _____ _____    ______ ____

>  <TORSDO>
F 5

$$$$
=
 OpenBabel10272400233D

 31 34  0  0  1  0  0  0  0  0999 V2000
  190.2890  176.8040  139.1400 C   0  0  0  0  0  0  0  0  0  0  0  0
  188.5800  176.9320  142.5250 C   0  0  2  0  0  3  0  0  0  0  0  0
  189.4810  177.5710  143.5770 C   0  0  0  0  0  0  0  0  0  0  0  0
  190.9520  178.7880  142.0330 O   0  0  0  0  0  1  0  0  0  0  0  0
  188.8930  177.2140  141.0830 C   0  0  0  0  0  0  0  0  0  0  0  0
  189.5590  177.7470  138.4110 C   0  0  0  0  0  3  0  0  0  0  0  0
  190.5890  178.4160  143.3200 C   0  0  0  0  0  0  0  0  0  0  0  0
  186.7010  178.5940  142.4010 C   0  0  2  0  0  3  0  0  0  0  0  0
  191.4220  176.0880  138.4980 C   0  0  0  0  0  1  0  0  0  0  0  0
  187.9250  176.4660  145.1990 C   0  0  0  0  0  2  0  0  0  0  0  0
  191.3460  178.9110  144.3860 C   0  0  0  0  0  3  0  0  0  0  0  0
  186.9030  178.7990  140.8950 C   0  0  0  0  0  2  0  0  0  0  0  0
  187.0910  177.1760  142.8490 C   0  0  2  0  0  3  0  0  0  0  0  0
  189.9550  176.5350  140.4690 C   0  0  0  0  0  3  0  0  0  0  0  0
  191.0120  178.5970  145.7040 C   0  0  0  0  0  3  0  0  0  0  0  0
  188.1470  178.1580  140.3440 C   0  0  0  0  0  0  0  0  0  0  0  0
  188.4860  178.4140  139.0100 C   0  0  0  0  0  3  0  0  0  0  0  0
  186.7500  176.9560  144.3430 C   0  0  0  0  0  2  0  0  0  0  0  0
  189.1390  177.2910  144.9130 C   0  0  0  0  0  0  0  0  0  0  0  0
  189.9050  177.7920  145.9680 C   0  0  0  0  0  3  0  0  0  0  0  0
  182.6870  179.5380  143.7740 C   0  0  0  0  0  1  0  0  0  0  0  0
  184.2940  177.7020  141.0570 O   0  0  0  0  0  0  0  0  0  0  0  0
  184.1630  178.4420  142.0710 C   0  0  0  0  0  0  0  0  0  0  0  0
  182.8530  178.8060  142.5290 N   0  0  0  0  0  0  0  0  0  0  0  0
  185.3240  178.9180  142.7690 N   0  0  0  0  0  2  0  0  0  0  0  0
  181.6560  178.3740  141.8190 C   0  0  0  0  0  2  0  0  0  0  0  0
  181.1760  179.4590  140.8680 C   0  0  0  0  0  2  0  0  0  0  0  0
  181.6320  179.1900  139.5660 O   0  0  0  0  0  0  0  0  0  0  0  0
  182.1710  180.3740  139.0160 C   0  0  1  0  0  3  0  0  0  0  0  0
  183.5580  180.2890  138.8460 O   0  0  0  0  0  1  0  0  0  0  0  0
  181.4820  180.7860  137.7200 C   0  0  0  0  0  1  0  0  0  0  0  0
  1 14  1  0  0  0  0
  2  5  1  6  0  0  0
  2 13  1  0  0  0  0
  2  3  1  0  0  0  0
  3 19  1  0  0  0  0
  4  7  1  0  0  0  0
  6 17  1  0  0  0  0
  6  1  2  0  0  0  0
  7  3  2  0  0  0  0
  7 11  1  0  0  0  0
  8 25  1  6  0  0  0
  8 13  1  0  0  0  0
  9  1  1  0  0  0  0
 11 15  2  0  0  0  0
 12  8  1  0  0  0  0
 13 18  1  1  0  0  0
 14  5  2  0  0  0  0
 15 20  1  0  0  0  0
 16 12  1  0  0  0  0
 16  5  1  0  0  0  0
 17 16  2  0  0  0  0
 18 10  1  0  0  0  0
 19 10  1  0  0  0  0
 19 20  2  0  0  0  0
 22 23  2  0  0  0  0
 23 24  1  0  0  0  0
 23 25  1  0  0  0  0
 24 21  1  0  0  0  0
 26 24  1  0  0  0  0
 27 26  1  0  0  0  0
 28 27  1  0  0  0  0
 29 31  1  6  0  0  0
 29 28  1  0  0  0  0
 30 29  1  0  0  0  0
M  END
>  <MODEL>
9

>  <REMARK>
 VINA RESULT:      -5.5      3.855      7.145
  Name = 
  5 active torsions:
  status: ('A' for Active; 'I' for Inactive)
    1  A    between atoms: C_1  and  O_24
    2  A    between atoms: C_6  and  C_19
    3  A    between atoms: C_6  and  N_22
    4  A    between atoms: C_15  and  N_23
    5  A    between atoms: C_19  and  O_24
                            x       y       z     vdW  Elec       q    Type
                         _______ _______ _______ _____ _____    ______ ____

>  <TORSDO>
F 5

$$$$
