=
 OpenBabel10272414293D

 43 49  0  0  1  0  0  0  0  0999 V2000
  183.7660  177.2800  135.6250 N   0  0  0  0  0  2  0  0  0  0  0  0
  188.8810  177.9900  137.7070 C   0  0  2  0  0  3  0  0  0  0  0  0
  186.8460  177.4440  135.7230 C   0  0  1  0  0  3  0  0  0  0  0  0
  184.3070  176.6220  136.8050 C   0  0  0  0  0  2  0  0  0  0  0  0
  184.6920  177.0710  134.5210 C   0  0  0  0  0  2  0  0  0  0  0  0
  186.4870  177.9890  137.1340 C   0  0  1  0  0  3  0  0  0  0  0  0
  185.9060  177.9800  134.6530 C   0  0  0  0  0  2  0  0  0  0  0  0
  185.0760  177.6340  137.6470 C   0  0  0  0  0  2  0  0  0  0  0  0
  187.4290  177.9800  139.5450 C   0  0  0  0  0  2  0  0  0  0  0  0
  187.5360  177.4850  138.1190 C   0  0  2  0  0  3  0  0  0  0  0  0
  189.3000  177.3450  136.3950 C   0  0  0  0  0  2  0  0  0  0  0  0
  189.7170  177.7680  138.9480 C   0  0  1  0  0  3  0  0  0  0  0  0
  188.8000  178.1310  140.0600 N   0  0  2  0  0  0  0  0  0  0  0  0
  188.2940  177.7820  135.3250 C   0  0  0  0  0  2  0  0  0  0  0  0
  188.3370  178.0070  142.4590 C   0  0  1  0  0  3  0  0  0  0  0  0
  189.8380  178.0190  142.2610 C   0  0  0  0  0  2  0  0  0  0  0  0
  188.9540  177.3040  141.2590 C   0  0  2  0  0  3  0  0  0  0  0  0
  187.9740  176.9770  143.5150 C   0  0  0  0  0  2  0  0  0  0  0  0
  187.6570  177.6480  144.8550 C   0  0  2  0  0  3  0  0  0  0  0  0
  188.5540  177.1740  146.0080 C   0  0  1  0  0  3  0  0  0  0  0  0
  189.9160  177.8660  146.0280 C   0  0  0  0  0  2  0  0  0  0  0  0
  191.0300  176.8610  145.8050 C   0  0  0  0  0  2  0  0  0  0  0  0
  191.5590  176.3880  147.1430 C   0  0  0  0  0  1  0  0  0  0  0  0
  187.8450  177.3500  147.3420 C   0  0  0  0  0  2  0  0  0  0  0  0
  188.9520  178.0620  149.3220 F   0  0  0  0  0  0  0  0  0  0  0  0
  188.4340  178.5130  148.1220 C   0  0  0  0  0  2  0  0  0  0  0  0
  186.3100  177.4620  145.1750 O   0  0  0  0  0  0  0  0  0  0  0  0
  185.7430  178.7370  145.1030 C   0  0  0  0  0  2  0  0  0  0  0  0
  184.6130  178.7330  144.1320 C   0  0  0  0  0  0  0  0  0  0  0  0
  182.2730  178.9280  143.6830 N   0  0  0  0  0  0  0  0  0  0  0  0
  183.7690  178.4160  141.8890 C   0  0  0  0  0  3  0  0  0  0  0  0
  182.4770  178.6640  142.3630 C   0  0  0  0  0  3  0  0  0  0  0  0
  184.8410  178.4510  142.7830 C   0  0  0  0  0  3  0  0  0  0  0  0
  183.3050  178.9620  144.5700 C   0  0  0  0  0  3  0  0  0  0  0  0
  190.2370  176.3180  138.9990 C   0  0  0  0  0  2  0  0  0  0  0  0
  192.2600  173.3360  136.4160 C   0  0  0  0  0  2  0  0  0  0  0  0
  194.0530  175.1640  136.1440 C   0  0  2  0  0  3  0  0  0  0  0  0
  193.2540  174.0290  135.4800 C   0  0  1  0  0  3  0  0  0  0  0  0
  191.7000  176.2750  138.6880 C   0  0  0  0  0  3  0  0  0  0  0  0
  191.3860  174.3510  137.1460 C   0  0  0  0  0  2  0  0  0  0  0  0
  192.2310  175.3890  137.8390 C   0  0  0  0  0  0  0  0  0  0  0  0
  194.6650  173.7880  135.9760 C   0  0  0  0  0  2  0  0  0  0  0  0
  193.7150  175.3990  137.6200 C   0  0  0  0  0  2  0  0  0  0  0  0
  1  4  1  0  0  0  0
  2 11  1  6  0  0  0
  2 10  1  0  0  0  0
  2 12  1  0  0  0  0
  3  7  1  6  0  0  0
  3  6  1  0  0  0  0
  4  8  1  0  0  0  0
  5  7  1  0  0  0  0
  5  1  1  0  0  0  0
  6  8  1  1  0  0  0
  6 10  1  0  0  0  0
 10  9  1  1  0  0  0
 12 35  1  1  0  0  0
 12 13  1  0  0  0  0
 13  9  1  6  0  0  0
 13 17  1  0  0  0  0
 14  3  1  0  0  0  0
 14 11  1  0  0  0  0
 15 18  1  1  0  0  0
 16 15  1  0  0  0  0
 17 16  1  1  0  0  0
 17 15  1  0  0  0  0
 19 18  1  6  0  0  0
 19 27  1  0  0  0  0
 19 20  1  0  0  0  0
 20 21  1  1  0  0  0
 20 24  1  0  0  0  0
 22 21  1  0  0  0  0
 22 23  1  0  0  0  0
 24 26  1  0  0  0  0
 26 25  1  0  0  0  0
 28 27  1  0  0  0  0
 29 34  1  0  0  0  0
 29 28  1  0  0  0  0
 30 34  2  0  0  0  0
 31 32  2  0  0  0  0
 31 33  1  0  0  0  0
 32 30  1  0  0  0  0
 33 29  2  0  0  0  0
 36 40  1  0  0  0  0
 37 42  1  1  0  0  0
 37 43  1  0  0  0  0
 38 42  1  1  0  0  0
 38 37  1  0  0  0  0
 38 36  1  0  0  0  0
 39 35  1  0  0  0  0
 40 41  1  0  0  0  0
 41 39  2  0  0  0  0
 43 41  1  0  0  0  0
M  END
>  <MODEL>
1

>  <REMARK>
 VINA RESULT:      -8.6      0.000      0.000
  Name = 
  13 active torsions:
  status: ('A' for Active; 'I' for Inactive)
    1  A    between atoms: C_1  and  C_28
    2  A    between atoms: C_1  and  C_34
    3  A    between atoms: C_2  and  C_6
    4  A    between atoms: C_3  and  C_4
    5  A    between atoms: C_3  and  C_12
    6  A    between atoms: C_4  and  C_15
    7  A    between atoms: C_4  and  C_22
    8  A    between atoms: C_6  and  C_22
    9  A    between atoms: C_11  and  C_14
   10  A    between atoms: C_13  and  N_38
   11  A    between atoms: C_14  and  O_41
   12  A    between atoms: C_15  and  C_42
   13  A    between atoms: C_22  and  O_41
                            x       y       z     vdW  Elec       q    Type
                         _______ _______ _______ _____ _____    ______ ____

>  <TORSDO>
F 13

$$$$
=
 OpenBabel10272414293D

 43 49  0  0  1  0  0  0  0  0999 V2000
  193.0240  175.0650  146.8750 N   0  0  0  0  0  2  0  0  0  0  0  0
  188.8430  178.1850  144.9280 C   0  0  2  0  0  3  0  0  0  0  0  0
  190.4360  176.7440  146.8690 C   0  0  1  0  0  3  0  0  0  0  0  0
  192.1680  174.7370  145.7450 C   0  0  0  0  0  2  0  0  0  0  0  0
  192.1760  175.3740  148.0160 C   0  0  0  0  0  2  0  0  0  0  0  0
  190.9450  177.0020  145.4230 C   0  0  1  0  0  3  0  0  0  0  0  0
  191.5710  176.7640  147.8810 C   0  0  0  0  0  2  0  0  0  0  0  0
  191.9630  175.9770  144.8820 C   0  0  0  0  0  2  0  0  0  0  0  0
  189.9990  177.4050  143.0460 C   0  0  0  0  0  2  0  0  0  0  0  0
  189.7340  177.0650  144.4970 C   0  0  2  0  0  3  0  0  0  0  0  0
  188.2260  177.8680  146.2820 C   0  0  0  0  0  2  0  0  0  0  0  0
  187.9450  178.3790  143.7270 C   0  0  1  0  0  3  0  0  0  0  0  0
  188.8620  178.2080  142.5700 N   0  0  2  0  0  0  0  0  0  0  0  0
  189.3700  177.7690  147.2970 C   0  0  0  0  0  2  0  0  0  0  0  0
  188.9020  178.0300  140.1310 C   0  0  1  0  0  3  0  0  0  0  0  0
  187.5480  178.5610  140.5490 C   0  0  0  0  0  2  0  0  0  0  0  0
  188.2550  177.5400  141.4170 C   0  0  2  0  0  3  0  0  0  0  0  0
  188.7210  176.9840  139.0440 C   0  0  0  0  0  2  0  0  0  0  0  0
  189.0000  177.5730  137.6580 C   0  0  2  0  0  3  0  0  0  0  0  0
  187.9480  177.1940  136.6050 C   0  0  1  0  0  3  0  0  0  0  0  0
  187.4470  175.7590  136.7520 C   0  0  0  0  0  2  0  0  0  0  0  0
  187.5600  175.0150  135.4340 C   0  0  0  0  0  2  0  0  0  0  0  0
  188.9810  175.1100  134.9210 C   0  0  0  0  0  1  0  0  0  0  0  0
  186.7840  178.1730  136.6380 C   0  0  0  0  0  2  0  0  0  0  0  0
  185.1060  178.2370  138.3200 F   0  0  0  0  0  0  0  0  0  0  0  0
  185.5420  177.5210  137.2210 C   0  0  0  0  0  2  0  0  0  0  0  0
  190.2770  177.2020  137.2300 O   0  0  0  0  0  0  0  0  0  0  0  0
  190.6900  176.2210  138.1360 C   0  0  0  0  0  2  0  0  0  0  0  0
  191.9800  175.6280  137.6840 C   0  0  0  0  0  0  0  0  0  0  0  0
  194.3080  175.8680  137.2010 N   0  0  0  0  0  0  0  0  0  0  0  0
  193.2420  173.7660  136.7980 C   0  0  0  0  0  3  0  0  0  0  0  0
  194.3820  174.5740  136.7840 C   0  0  0  0  0  3  0  0  0  0  0  0
  192.0340  174.3000  137.2520 C   0  0  0  0  0  3  0  0  0  0  0  0
  193.1400  176.4070  137.6430 C   0  0  0  0  0  3  0  0  0  0  0  0
  186.7690  177.3820  143.7610 C   0  0  0  0  0  2  0  0  0  0  0  0
  183.2140  178.8160  141.5350 C   0  0  0  0  0  2  0  0  0  0  0  0
  181.9970  178.5100  143.7840 C   0  0  2  0  0  3  0  0  0  0  0  0
  181.9290  178.3900  142.2510 C   0  0  1  0  0  3  0  0  0  0  0  0
  185.5570  178.0220  144.3620 C   0  0  0  0  0  3  0  0  0  0  0  0
  184.4390  178.1420  142.1450 C   0  0  0  0  0  2  0  0  0  0  0  0
  184.4870  178.3620  143.6360 C   0  0  0  0  0  0  0  0  0  0  0  0
  181.3260  179.5870  142.9570 C   0  0  0  0  0  2  0  0  0  0  0  0
  183.3340  179.0330  144.3210 C   0  0  0  0  0  2  0  0  0  0  0  0
  1  5  1  0  0  0  0
  2 11  1  1  0  0  0
  3 14  1  1  0  0  0
  3  7  1  0  0  0  0
  4  1  1  0  0  0  0
  6  8  1  6  0  0  0
  6  3  1  0  0  0  0
  7  5  1  0  0  0  0
  8  4  1  0  0  0  0
 10  9  1  6  0  0  0
 10  2  1  0  0  0  0
 10  6  1  0  0  0  0
 11 14  1  0  0  0  0
 12 35  1  6  0  0  0
 12  2  1  0  0  0  0
 13  9  1  1  0  0  0
 13 12  1  0  0  0  0
 15 18  1  6  0  0  0
 15 16  1  0  0  0  0
 15 17  1  0  0  0  0
 17 16  1  6  0  0  0
 17 13  1  0  0  0  0
 19 18  1  1  0  0  0
 20 24  1  1  0  0  0
 20 21  1  0  0  0  0
 20 19  1  0  0  0  0
 22 21  1  0  0  0  0
 23 22  1  0  0  0  0
 24 26  1  0  0  0  0
 26 25  1  0  0  0  0
 27 19  1  0  0  0  0
 27 28  1  0  0  0  0
 29 28  1  0  0  0  0
 30 34  2  0  0  0  0
 31 33  1  0  0  0  0
 32 31  2  0  0  0  0
 32 30  1  0  0  0  0
 33 29  2  0  0  0  0
 34 29  1  0  0  0  0
 35 39  1  0  0  0  0
 36 40  1  0  0  0  0
 37 42  1  6  0  0  0
 37 43  1  0  0  0  0
 38 36  1  6  0  0  0
 38 42  1  0  0  0  0
 38 37  1  0  0  0  0
 40 41  1  0  0  0  0
 41 43  1  0  0  0  0
 41 39  2  0  0  0  0
M  END
>  <MODEL>
2

>  <REMARK>
 VINA RESULT:      -7.7      3.056     10.542
  Name = 
  13 active torsions:
  status: ('A' for Active; 'I' for Inactive)
    1  A    between atoms: C_1  and  C_28
    2  A    between atoms: C_1  and  C_34
    3  A    between atoms: C_2  and  C_6
    4  A    between atoms: C_3  and  C_4
    5  A    between atoms: C_3  and  C_12
    6  A    between atoms: C_4  and  C_15
    7  A    between atoms: C_4  and  C_22
    8  A    between atoms: C_6  and  C_22
    9  A    between atoms: C_11  and  C_14
   10  A    between atoms: C_13  and  N_38
   11  A    between atoms: C_14  and  O_41
   12  A    between atoms: C_15  and  C_42
   13  A    between atoms: C_22  and  O_41
                            x       y       z     vdW  Elec       q    Type
                         _______ _______ _______ _____ _____    ______ ____

>  <TORSDO>
F 13

$$$$
=
 OpenBabel10272414293D

 43 49  0  0  1  0  0  0  0  0999 V2000
  193.0740  175.2930  147.1770 N   0  0  0  0  0  2  0  0  0  0  0  0
  188.8190  178.2160  145.0920 C   0  0  2  0  0  3  0  0  0  0  0  0
  190.4390  176.8960  147.0940 C   0  0  1  0  0  3  0  0  0  0  0  0
  192.2340  174.8970  146.0560 C   0  0  0  0  0  2  0  0  0  0  0  0
  192.2100  175.6210  148.3010 C   0  0  0  0  0  2  0  0  0  0  0  0
  190.9500  177.1130  145.6410 C   0  0  1  0  0  3  0  0  0  0  0  0
  191.5680  176.9870  148.1100 C   0  0  0  0  0  2  0  0  0  0  0  0
  192.0000  176.0980  145.1450 C   0  0  0  0  0  2  0  0  0  0  0  0
  190.0080  177.3980  143.2470 C   0  0  0  0  0  2  0  0  0  0  0  0
  189.7430  177.1060  144.7080 C   0  0  2  0  0  3  0  0  0  0  0  0
  188.2030  177.9340  146.4530 C   0  0  0  0  0  2  0  0  0  0  0  0
  187.9230  178.3390  143.8790 C   0  0  1  0  0  3  0  0  0  0  0  0
  188.8510  178.1500  142.7340 N   0  0  2  0  0  0  0  0  0  0  0  0
  189.3430  177.9060  147.4770 C   0  0  0  0  0  2  0  0  0  0  0  0
  188.9760  177.8120  140.3150 C   0  0  1  0  0  3  0  0  0  0  0  0
  187.6210  178.3990  140.6460 C   0  0  0  0  0  2  0  0  0  0  0  0
  188.2710  177.4210  141.6040 C   0  0  2  0  0  3  0  0  0  0  0  0
  188.8090  176.7010  139.2920 C   0  0  0  0  0  2  0  0  0  0  0  0
  189.0680  177.2140  137.8720 C   0  0  2  0  0  3  0  0  0  0  0  0
  190.5110  176.9990  137.3920 C   0  0  1  0  0  3  0  0  0  0  0  0
  191.3030  176.0530  138.2920 C   0  0  0  0  0  2  0  0  0  0  0  0
  192.6780  176.6220  138.5880 C   0  0  0  0  0  2  0  0  0  0  0  0
  192.6480  177.3460  139.9180 C   0  0  0  0  0  1  0  0  0  0  0  0
  190.5260  176.5060  135.9530 C   0  0  0  0  0  2  0  0  0  0  0  0
  190.2370  174.1480  135.8810 F   0  0  0  0  0  0  0  0  0  0  0  0
  189.5610  175.3490  135.7640 C   0  0  0  0  0  2  0  0  0  0  0  0
  188.7190  178.5640  137.7820 O   0  0  0  0  0  0  0  0  0  0  0  0
  187.9730  178.6660  136.6040 C   0  0  0  0  0  2  0  0  0  0  0  0
  186.6470  178.0130  136.7880 C   0  0  0  0  0  0  0  0  0  0  0  0
  184.9630  176.5010  136.0190 N   0  0  0  0  0  0  0  0  0  0  0  0
  184.5700  177.7760  138.0040 C   0  0  0  0  0  3  0  0  0  0  0  0
  184.1540  176.8290  137.0630 C   0  0  0  0  0  3  0  0  0  0  0  0
  185.8260  178.3700  137.8610 C   0  0  0  0  0  3  0  0  0  0  0  0
  186.1880  177.0720  135.8620 C   0  0  0  0  0  3  0  0  0  0  0  0
  186.7760  177.3110  143.9450 C   0  0  0  0  0  2  0  0  0  0  0  0
  183.3220  178.8720  141.6450 C   0  0  0  0  0  2  0  0  0  0  0  0
  182.0150  178.4810  143.8290 C   0  0  2  0  0  3  0  0  0  0  0  0
  182.0070  178.4280  142.2910 C   0  0  1  0  0  3  0  0  0  0  0  0
  185.5450  177.9360  144.5250 C   0  0  0  0  0  3  0  0  0  0  0  0
  184.5170  178.1610  142.2730 C   0  0  0  0  0  2  0  0  0  0  0  0
  184.5080  178.3170  143.7730 C   0  0  0  0  0  0  0  0  0  0  0  0
  181.3860  179.6000  143.0230 C   0  0  0  0  0  2  0  0  0  0  0  0
  183.3340  178.9690  144.4400 C   0  0  0  0  0  2  0  0  0  0  0  0
  1  5  1  0  0  0  0
  2 11  1  1  0  0  0
  3 14  1  1  0  0  0
  3  7  1  0  0  0  0
  4  1  1  0  0  0  0
  6  8  1  6  0  0  0
  6  3  1  0  0  0  0
  7  5  1  0  0  0  0
  8  4  1  0  0  0  0
 10  9  1  6  0  0  0
 10  2  1  0  0  0  0
 10  6  1  0  0  0  0
 11 14  1  0  0  0  0
 12 35  1  1  0  0  0
 12  2  1  0  0  0  0
 13  9  1  1  0  0  0
 13 12  1  0  0  0  0
 15 18  1  6  0  0  0
 15 16  1  0  0  0  0
 15 17  1  0  0  0  0
 17 16  1  6  0  0  0
 17 13  1  0  0  0  0
 19 18  1  1  0  0  0
 20 24  1  6  0  0  0
 20 19  1  0  0  0  0
 20 21  1  0  0  0  0
 21 22  1  0  0  0  0
 22 23  1  0  0  0  0
 26 25  1  0  0  0  0
 26 24  1  0  0  0  0
 27 19  1  0  0  0  0
 28 29  1  0  0  0  0
 28 27  1  0  0  0  0
 29 33  1  0  0  0  0
 30 32  2  0  0  0  0
 32 31  1  0  0  0  0
 33 31  2  0  0  0  0
 34 30  1  0  0  0  0
 34 29  2  0  0  0  0
 35 39  1  0  0  0  0
 36 40  1  0  0  0  0
 37 42  1  6  0  0  0
 37 43  1  0  0  0  0
 38 36  1  6  0  0  0
 38 42  1  0  0  0  0
 38 37  1  0  0  0  0
 40 41  1  0  0  0  0
 41 43  1  0  0  0  0
 41 39  2  0  0  0  0
M  END
>  <MODEL>
3

>  <REMARK>
 VINA RESULT:      -7.3      3.102      9.804
  Name = 
  13 active torsions:
  status: ('A' for Active; 'I' for Inactive)
    1  A    between atoms: C_1  and  C_28
    2  A    between atoms: C_1  and  C_34
    3  A    between atoms: C_2  and  C_6
    4  A    between atoms: C_3  and  C_4
    5  A    between atoms: C_3  and  C_12
    6  A    between atoms: C_4  and  C_15
    7  A    between atoms: C_4  and  C_22
    8  A    between atoms: C_6  and  C_22
    9  A    between atoms: C_11  and  C_14
   10  A    between atoms: C_13  and  N_38
   11  A    between atoms: C_14  and  O_41
   12  A    between atoms: C_15  and  C_42
   13  A    between atoms: C_22  and  O_41
                            x       y       z     vdW  Elec       q    Type
                         _______ _______ _______ _____ _____    ______ ____

>  <TORSDO>
F 13

$$$$
=
 OpenBabel10272414293D

 43 49  0  0  1  0  0  0  0  0999 V2000
  186.6580  177.8470  146.3850 N   0  0  0  0  0  2  0  0  0  0  0  0
  184.7290  179.0640  141.3060 C   0  0  2  0  0  3  0  0  0  0  0  0
  184.6470  178.5510  144.1530 C   0  0  1  0  0  3  0  0  0  0  0  0
  186.9060  177.0830  145.1710 C   0  0  0  0  0  2  0  0  0  0  0  0
  185.2210  178.0300  146.5240 C   0  0  0  0  0  2  0  0  0  0  0  0
  185.9910  178.7360  143.3930 C   0  0  1  0  0  3  0  0  0  0  0  0
  184.7160  179.1020  145.5690 C   0  0  0  0  0  2  0  0  0  0  0  0
  187.2140  178.0360  144.0210 C   0  0  0  0  0  2  0  0  0  0  0  0
  186.9650  178.4310  141.0140 C   0  0  0  0  0  2  0  0  0  0  0  0
  185.7980  178.2500  141.9600 C   0  0  2  0  0  3  0  0  0  0  0  0
  183.3830  178.7730  141.9530 C   0  0  0  0  0  2  0  0  0  0  0  0
  184.9300  178.7610  139.8370 C   0  0  1  0  0  3  0  0  0  0  0  0
  186.4080  178.7270  139.6840 N   0  0  2  0  0  0  0  0  0  0  0  0
  183.4710  179.2180  143.4170 C   0  0  0  0  0  2  0  0  0  0  0  0
  188.3250  178.0350  138.3310 C   0  0  1  0  0  3  0  0  0  0  0  0
  187.1850  178.3890  137.4000 C   0  0  0  0  0  2  0  0  0  0  0  0
  186.8900  177.7260  138.7300 C   0  0  2  0  0  3  0  0  0  0  0  0
  188.9980  176.7630  137.8450 C   0  0  0  0  0  2  0  0  0  0  0  0
  190.3720  176.5810  138.4990 C   0  0  2  0  0  3  0  0  0  0  0  0
  191.2130  175.4630  137.8640 C   0  0  1  0  0  3  0  0  0  0  0  0
  190.3830  174.4970  137.0220 C   0  0  0  0  0  2  0  0  0  0  0  0
  190.9000  174.4480  135.5970 C   0  0  0  0  0  2  0  0  0  0  0  0
  189.8770  175.0650  134.6660 C   0  0  0  0  0  1  0  0  0  0  0  0
  192.3470  176.0530  137.0380 C   0  0  0  0  0  2  0  0  0  0  0  0
  193.6580  174.3180  137.9970 F   0  0  0  0  0  0  0  0  0  0  0  0
  193.6970  175.6410  137.5980 C   0  0  0  0  0  2  0  0  0  0  0  0
  190.2230  176.3620  139.8700 O   0  0  0  0  0  0  0  0  0  0  0  0
  191.1080  177.2570  140.4770 C   0  0  0  0  0  2  0  0  0  0  0  0
  191.0020  177.1450  141.9590 C   0  0  0  0  0  0  0  0  0  0  0  0
  190.1350  176.0370  143.8910 N   0  0  0  0  0  0  0  0  0  0  0  0
  191.4760  177.9970  144.1720 C   0  0  0  0  0  3  0  0  0  0  0  0
  190.7280  176.9460  144.7120 C   0  0  0  0  0  3  0  0  0  0  0  0
  191.6110  178.0940  142.7850 C   0  0  0  0  0  3  0  0  0  0  0  0
  190.2520  176.1170  142.5380 C   0  0  0  0  0  3  0  0  0  0  0  0
  184.2190  177.4490  139.4510 C   0  0  0  0  0  2  0  0  0  0  0  0
  182.0950  174.3270  137.1280 C   0  0  0  0  0  2  0  0  0  0  0  0
  180.3610  176.1820  136.7020 C   0  0  2  0  0  3  0  0  0  0  0  0
  180.6160  174.6890  136.9770 C   0  0  1  0  0  3  0  0  0  0  0  0
  183.2320  177.6910  138.3530 C   0  0  0  0  0  3  0  0  0  0  0  0
  182.7960  175.2560  138.1150 C   0  0  0  0  0  2  0  0  0  0  0  0
  182.5720  176.7000  137.7450 C   0  0  0  0  0  0  0  0  0  0  0  0
  180.3600  175.1790  135.5660 C   0  0  0  0  0  2  0  0  0  0  0  0
  181.6300  177.0380  136.6280 C   0  0  0  0  0  2  0  0  0  0  0  0
  1  5  1  0  0  0  0
  2 11  1  1  0  0  0
  2 10  1  0  0  0  0
  3 14  1  6  0  0  0
  3  7  1  0  0  0  0
  4  1  1  0  0  0  0
  6  8  1  1  0  0  0
  6  3  1  0  0  0  0
  7  5  1  0  0  0  0
  8  4  1  0  0  0  0
 10  9  1  6  0  0  0
 10  6  1  0  0  0  0
 11 14  1  0  0  0  0
 12 35  1  1  0  0  0
 12  2  1  0  0  0  0
 13 12  1  0  0  0  0
 13  9  1  1  0  0  0
 15 18  1  6  0  0  0
 15 17  1  0  0  0  0
 16 15  1  0  0  0  0
 17 16  1  6  0  0  0
 17 13  1  0  0  0  0
 19 18  1  6  0  0  0
 19 27  1  0  0  0  0
 20 21  1  6  0  0  0
 20 19  1  0  0  0  0
 22 21  1  0  0  0  0
 23 22  1  0  0  0  0
 24 26  1  0  0  0  0
 24 20  1  0  0  0  0
 26 25  1  0  0  0  0
 27 28  1  0  0  0  0
 28 29  1  0  0  0  0
 29 34  2  0  0  0  0
 29 33  1  0  0  0  0
 30 32  2  0  0  0  0
 31 32  1  0  0  0  0
 33 31  2  0  0  0  0
 34 30  1  0  0  0  0
 36 40  1  0  0  0  0
 37 42  1  6  0  0  0
 37 38  1  0  0  0  0
 38 42  1  6  0  0  0
 38 36  1  0  0  0  0
 39 35  1  0  0  0  0
 41 40  1  0  0  0  0
 41 39  2  0  0  0  0
 43 37  1  0  0  0  0
 43 41  1  0  0  0  0
M  END
>  <MODEL>
4

>  <REMARK>
 VINA RESULT:      -7.0      3.088      8.957
  Name = 
  13 active torsions:
  status: ('A' for Active; 'I' for Inactive)
    1  A    between atoms: C_1  and  C_28
    2  A    between atoms: C_1  and  C_34
    3  A    between atoms: C_2  and  C_6
    4  A    between atoms: C_3  and  C_4
    5  A    between atoms: C_3  and  C_12
    6  A    between atoms: C_4  and  C_15
    7  A    between atoms: C_4  and  C_22
    8  A    between atoms: C_6  and  C_22
    9  A    between atoms: C_11  and  C_14
   10  A    between atoms: C_13  and  N_38
   11  A    between atoms: C_14  and  O_41
   12  A    between atoms: C_15  and  C_42
   13  A    between atoms: C_22  and  O_41
                            x       y       z     vdW  Elec       q    Type
                         _______ _______ _______ _____ _____    ______ ____

>  <TORSDO>
F 13

$$$$
=
 OpenBabel10272414293D

 43 49  0  0  1  0  0  0  0  0999 V2000
  181.7520  176.9620  136.2000 N   0  0  0  0  0  2  0  0  0  0  0  0
  187.2570  177.7800  136.3690 C   0  0  2  0  0  3  0  0  0  0  0  0
  184.6780  177.1210  135.2330 C   0  0  1  0  0  3  0  0  0  0  0  0
  182.6740  176.3760  137.1620 C   0  0  0  0  0  2  0  0  0  0  0  0
  182.2500  176.6830  134.8620 C   0  0  0  0  0  2  0  0  0  0  0  0
  184.8110  177.7530  136.6480 C   0  0  1  0  0  3  0  0  0  0  0  0
  183.4200  177.5930  134.5190 C   0  0  0  0  0  2  0  0  0  0  0  0
  183.6650  177.4360  137.6310 C   0  0  0  0  0  2  0  0  0  0  0  0
  186.5180  177.8870  138.5900 C   0  0  0  0  0  2  0  0  0  0  0  0
  186.1420  177.3050  137.2440 C   0  0  2  0  0  3  0  0  0  0  0  0
  187.2160  177.0540  135.0340 C   0  0  0  0  0  2  0  0  0  0  0  0
  188.4690  177.6310  137.2630 C   0  0  1  0  0  3  0  0  0  0  0  0
  187.9790  178.0650  138.5970 N   0  0  2  0  0  0  0  0  0  0  0  0
  185.8980  177.4280  134.3470 C   0  0  0  0  0  2  0  0  0  0  0  0
  188.5090  178.1560  140.9830 C   0  0  1  0  0  3  0  0  0  0  0  0
  189.8020  178.0020  140.2110 C   0  0  0  0  0  2  0  0  0  0  0  0
  188.5460  177.3130  139.7180 C   0  0  2  0  0  3  0  0  0  0  0  0
  188.5330  177.2440  142.1980 C   0  0  0  0  0  2  0  0  0  0  0  0
  188.3210  178.0400  143.4900 C   0  0  2  0  0  3  0  0  0  0  0  0
  189.3350  177.7030  144.5940 C   0  0  1  0  0  3  0  0  0  0  0  0
  190.6310  178.5030  144.4790 C   0  0  0  0  0  2  0  0  0  0  0  0
  191.6540  177.7470  143.6540 C   0  0  0  0  0  2  0  0  0  0  0  0
  191.6690  176.2930  144.0760 C   0  0  0  0  0  1  0  0  0  0  0  0
  188.7090  177.8940  145.9670 C   0  0  0  0  0  2  0  0  0  0  0  0
  188.9040  177.3130  148.2640 F   0  0  0  0  0  0  0  0  0  0  0  0
  189.4060  177.0330  147.0060 C   0  0  0  0  0  2  0  0  0  0  0  0
  187.0160  177.8600  143.9520 O   0  0  0  0  0  0  0  0  0  0  0  0
  186.2450  177.6830  142.7990 C   0  0  0  0  0  2  0  0  0  0  0  0
  184.8540  178.1560  143.0450 C   0  0  0  0  0  0  0  0  0  0  0  0
  182.7260  178.8420  142.2010 N   0  0  0  0  0  0  0  0  0  0  0  0
  183.1220  178.9010  144.5580 C   0  0  0  0  0  3  0  0  0  0  0  0
  182.2800  179.1020  143.4610 C   0  0  0  0  0  3  0  0  0  0  0  0
  184.4180  178.4250  144.3450 C   0  0  0  0  0  3  0  0  0  0  0  0
  183.9860  178.3820  141.9730 C   0  0  0  0  0  3  0  0  0  0  0  0
  189.0010  176.1850  137.2180 C   0  0  0  0  0  2  0  0  0  0  0  0
  193.3450  176.0170  138.0850 C   0  0  0  0  0  2  0  0  0  0  0  0
  193.4970  174.8340  135.8030 C   0  0  2  0  0  3  0  0  0  0  0  0
  194.0130  174.9220  137.2500 C   0  0  1  0  0  3  0  0  0  0  0  0
  190.0940  176.0590  136.2040 C   0  0  0  0  0  3  0  0  0  0  0  0
  191.8250  175.9430  137.9840 C   0  0  0  0  0  2  0  0  0  0  0  0
  191.3810  175.9390  136.5430 C   0  0  0  0  0  0  0  0  0  0  0  0
  194.7920  175.5580  136.1170 C   0  0  0  0  0  2  0  0  0  0  0  0
  192.4100  175.8570  135.4550 C   0  0  0  0  0  2  0  0  0  0  0  0
  1  4  1  0  0  0  0
  2 11  1  6  0  0  0
  2 10  1  0  0  0  0
  2 12  1  0  0  0  0
  3 14  1  6  0  0  0
  3  6  1  0  0  0  0
  4  8  1  0  0  0  0
  5  1  1  0  0  0  0
  6 10  1  0  0  0  0
  6  8  1  1  0  0  0
  7  5  1  0  0  0  0
  7  3  1  0  0  0  0
 10  9  1  1  0  0  0
 12 35  1  1  0  0  0
 12 13  1  0  0  0  0
 13  9  1  6  0  0  0
 13 17  1  0  0  0  0
 14 11  1  0  0  0  0
 15 18  1  1  0  0  0
 16 15  1  0  0  0  0
 17 16  1  6  0  0  0
 17 15  1  0  0  0  0
 19 18  1  6  0  0  0
 19 27  1  0  0  0  0
 19 20  1  0  0  0  0
 20 21  1  1  0  0  0
 20 24  1  0  0  0  0
 22 23  1  0  0  0  0
 22 21  1  0  0  0  0
 24 26  1  0  0  0  0
 26 25  1  0  0  0  0
 28 29  1  0  0  0  0
 28 27  1  0  0  0  0
 29 33  1  0  0  0  0
 30 32  2  0  0  0  0
 32 31  1  0  0  0  0
 33 31  2  0  0  0  0
 34 30  1  0  0  0  0
 34 29  2  0  0  0  0
 37 43  1  1  0  0  0
 37 42  1  0  0  0  0
 37 38  1  0  0  0  0
 38 42  1  6  0  0  0
 38 36  1  0  0  0  0
 39 41  2  0  0  0  0
 39 35  1  0  0  0  0
 40 36  1  0  0  0  0
 41 40  1  0  0  0  0
 43 41  1  0  0  0  0
M  END
>  <MODEL>
5

>  <REMARK>
 VINA RESULT:      -7.0      1.308      2.053
  Name = 
  13 active torsions:
  status: ('A' for Active; 'I' for Inactive)
    1  A    between atoms: C_1  and  C_28
    2  A    between atoms: C_1  and  C_34
    3  A    between atoms: C_2  and  C_6
    4  A    between atoms: C_3  and  C_4
    5  A    between atoms: C_3  and  C_12
    6  A    between atoms: C_4  and  C_15
    7  A    between atoms: C_4  and  C_22
    8  A    between atoms: C_6  and  C_22
    9  A    between atoms: C_11  and  C_14
   10  A    between atoms: C_13  and  N_38
   11  A    between atoms: C_14  and  O_41
   12  A    between atoms: C_15  and  C_42
   13  A    between atoms: C_22  and  O_41
                            x       y       z     vdW  Elec       q    Type
                         _______ _______ _______ _____ _____    ______ ____

>  <TORSDO>
F 13

$$$$
=
 OpenBabel10272414293D

 43 49  0  0  1  0  0  0  0  0999 V2000
  187.5230  178.2730  148.7490 N   0  0  0  0  0  2  0  0  0  0  0  0
  187.2150  177.2960  143.2760 C   0  0  2  0  0  3  0  0  0  0  0  0
  188.4420  177.6130  145.8790 C   0  0  1  0  0  3  0  0  0  0  0  0
  186.8790  179.1290  147.7630 C   0  0  0  0  0  2  0  0  0  0  0  0
  188.8820  178.0050  148.3020 C   0  0  0  0  0  2  0  0  0  0  0  0
  186.8980  177.5520  145.7040 C   0  0  1  0  0  3  0  0  0  0  0  0
  188.8900  176.9730  147.1840 C   0  0  0  0  0  2  0  0  0  0  0  0
  186.0750  178.2730  146.7910 C   0  0  0  0  0  2  0  0  0  0  0  0
  185.0980  178.0670  143.9160 C   0  0  0  0  0  2  0  0  0  0  0  0
  186.5520  178.1210  144.3320 C   0  0  2  0  0  3  0  0  0  0  0  0
  188.7240  177.4700  143.3510 C   0  0  0  0  0  2  0  0  0  0  0  0
  186.4790  177.7060  142.0200 C   0  0  1  0  0  3  0  0  0  0  0  0
  185.0660  177.8300  142.4640 N   0  0  2  0  0  0  0  0  0  0  0  0
  189.1820  176.9340  144.7120 C   0  0  0  0  0  2  0  0  0  0  0  0
  183.1880  178.3500  140.9850 C   0  0  1  0  0  3  0  0  0  0  0  0
  184.4660  178.8060  140.3140 C   0  0  0  0  0  2  0  0  0  0  0  0
  184.3270  178.9170  141.8190 C   0  0  2  0  0  3  0  0  0  0  0  0
  182.1170  179.4130  140.8060 C   0  0  0  0  0  2  0  0  0  0  0  0
  181.3880  179.2430  139.4690 C   0  0  2  0  0  3  0  0  0  0  0  0
  181.5370  177.8400  138.8610 C   0  0  1  0  0  3  0  0  0  0  0  0
  180.3710  176.9150  139.2020 C   0  0  0  0  0  2  0  0  0  0  0  0
  180.8710  175.5180  139.5170 C   0  0  0  0  0  2  0  0  0  0  0  0
  180.5540  174.5960  138.3580 C   0  0  0  0  0  1  0  0  0  0  0  0
  181.7260  177.9300  137.3540 C   0  0  0  0  0  2  0  0  0  0  0  0
  183.7730  176.8760  137.9400 F   0  0  0  0  0  0  0  0  0  0  0  0
  182.8830  177.0600  136.8980 C   0  0  0  0  0  2  0  0  0  0  0  0
  181.8190  180.2160  138.5650 O   0  0  0  0  0  0  0  0  0  0  0  0
  181.0430  181.3430  138.8510 C   0  0  0  0  0  2  0  0  0  0  0  0
  180.8720  182.1650  137.6200 C   0  0  0  0  0  0  0  0  0  0  0  0
  180.6150  184.3010  136.5800 N   0  0  0  0  0  0  0  0  0  0  0  0
  180.5390  182.3290  135.2310 C   0  0  0  0  0  3  0  0  0  0  0  0
  180.4860  183.7200  135.3560 C   0  0  0  0  0  3  0  0  0  0  0  0
  180.7330  181.5490  136.3730 C   0  0  0  0  0  3  0  0  0  0  0  0
  180.8000  183.5580  137.7050 C   0  0  0  0  0  3  0  0  0  0  0  0
  187.0790  179.0010  141.4370 C   0  0  0  0  0  2  0  0  0  0  0  0
  187.0210  177.3160  137.3370 C   0  0  0  0  0  2  0  0  0  0  0  0
  189.3490  178.3980  137.1320 C   0  0  2  0  0  3  0  0  0  0  0  0
  188.0160  178.0590  136.4420 C   0  0  1  0  0  3  0  0  0  0  0  0
  188.2790  178.6910  140.5980 C   0  0  0  0  0  3  0  0  0  0  0  0
  186.8490  178.0200  138.6790 C   0  0  0  0  0  2  0  0  0  0  0  0
  188.1850  178.2530  139.3390 C   0  0  0  0  0  0  0  0  0  0  0  0
  189.2390  177.1920  136.2220 C   0  0  0  0  0  2  0  0  0  0  0  0
  189.4440  177.9330  138.5900 C   0  0  0  0  0  2  0  0  0  0  0  0
  2 11  1  6  0  0  0
  2 10  1  0  0  0  0
  3 14  1  6  0  0  0
  3  7  1  0  0  0  0
  4  1  1  0  0  0  0
  5  1  1  0  0  0  0
  6  3  1  0  0  0  0
  6  8  1  1  0  0  0
  7  5  1  0  0  0  0
  8  4  1  0  0  0  0
 10  9  1  6  0  0  0
 10  6  1  0  0  0  0
 11 14  1  0  0  0  0
 12 35  1  1  0  0  0
 12 13  1  0  0  0  0
 12  2  1  0  0  0  0
 13  9  1  1  0  0  0
 15 18  1  6  0  0  0
 15 17  1  0  0  0  0
 16 15  1  0  0  0  0
 17 16  1  6  0  0  0
 17 13  1  0  0  0  0
 19 18  1  1  0  0  0
 20 24  1  6  0  0  0
 20 21  1  0  0  0  0
 20 19  1  0  0  0  0
 21 22  1  0  0  0  0
 23 22  1  0  0  0  0
 26 24  1  0  0  0  0
 26 25  1  0  0  0  0
 27 28  1  0  0  0  0
 27 19  1  0  0  0  0
 29 34  1  0  0  0  0
 29 28  1  0  0  0  0
 30 34  2  0  0  0  0
 31 32  2  0  0  0  0
 31 33  1  0  0  0  0
 32 30  1  0  0  0  0
 33 29  2  0  0  0  0
 36 40  1  0  0  0  0
 37 42  1  6  0  0  0
 37 43  1  0  0  0  0
 38 42  1  6  0  0  0
 38 37  1  0  0  0  0
 38 36  1  0  0  0  0
 39 35  1  0  0  0  0
 40 41  1  0  0  0  0
 41 39  2  0  0  0  0
 43 41  1  0  0  0  0
M  END
>  <MODEL>
6

>  <REMARK>
 VINA RESULT:      -6.9      4.135      8.838
  Name = 
  13 active torsions:
  status: ('A' for Active; 'I' for Inactive)
    1  A    between atoms: C_1  and  C_28
    2  A    between atoms: C_1  and  C_34
    3  A    between atoms: C_2  and  C_6
    4  A    between atoms: C_3  and  C_4
    5  A    between atoms: C_3  and  C_12
    6  A    between atoms: C_4  and  C_15
    7  A    between atoms: C_4  and  C_22
    8  A    between atoms: C_6  and  C_22
    9  A    between atoms: C_11  and  C_14
   10  A    between atoms: C_13  and  N_38
   11  A    between atoms: C_14  and  O_41
   12  A    between atoms: C_15  and  C_42
   13  A    between atoms: C_22  and  O_41
                            x       y       z     vdW  Elec       q    Type
                         _______ _______ _______ _____ _____    ______ ____

>  <TORSDO>
F 13

$$$$
=
 OpenBabel10272414293D

 43 49  0  0  1  0  0  0  0  0999 V2000
  187.9440  178.2100  148.9200 N   0  0  0  0  0  2  0  0  0  0  0  0
  188.1180  177.1950  143.4480 C   0  0  2  0  0  3  0  0  0  0  0  0
  189.1160  177.5680  146.1390 C   0  0  1  0  0  3  0  0  0  0  0  0
  187.3540  179.0380  147.8780 C   0  0  0  0  0  2  0  0  0  0  0  0
  189.3440  177.9870  148.5870 C   0  0  0  0  0  2  0  0  0  0  0  0
  187.5950  177.4520  145.8400 C   0  0  1  0  0  3  0  0  0  0  0  0
  189.4780  176.9510  147.4810 C   0  0  0  0  0  2  0  0  0  0  0  0
  186.6610  178.1490  146.8510 C   0  0  0  0  0  2  0  0  0  0  0  0
  185.9300  177.8940  143.9070 C   0  0  0  0  0  2  0  0  0  0  0  0
  187.3430  178.0010  144.4390 C   0  0  2  0  0  3  0  0  0  0  0  0
  189.6090  177.4220  143.6440 C   0  0  0  0  0  2  0  0  0  0  0  0
  187.4720  177.5730  142.1330 C   0  0  1  0  0  3  0  0  0  0  0  0
  186.0250  177.6490  142.4590 N   0  0  2  0  0  0  0  0  0  0  0  0
  189.9720  176.9090  145.0420 C   0  0  0  0  0  2  0  0  0  0  0  0
  183.9880  178.1680  141.2080 C   0  0  1  0  0  3  0  0  0  0  0  0
  185.1740  178.3390  140.2830 C   0  0  0  0  0  2  0  0  0  0  0  0
  185.3040  178.7070  141.7480 C   0  0  2  0  0  3  0  0  0  0  0  0
  183.0180  179.3190  141.0040 C   0  0  0  0  0  2  0  0  0  0  0  0
  181.7840  178.8680  140.2150 C   0  0  2  0  0  3  0  0  0  0  0  0
  180.4630  179.4250  140.7660 C   0  0  1  0  0  3  0  0  0  0  0  0
  180.4750  179.5980  142.2840 C   0  0  0  0  0  2  0  0  0  0  0  0
  180.0030  178.3300  142.9700 C   0  0  0  0  0  2  0  0  0  0  0  0
  180.3370  178.4000  144.4450 C   0  0  0  0  0  1  0  0  0  0  0  0
  180.1120  180.7380  140.0820 C   0  0  0  0  0  2  0  0  0  0  0  0
  181.5830  181.7790  138.5320 F   0  0  0  0  0  0  0  0  0  0  0  0
  180.6470  180.7700  138.6610 C   0  0  0  0  0  2  0  0  0  0  0  0
  181.7390  177.4730  140.1570 O   0  0  0  0  0  0  0  0  0  0  0  0
  181.1450  177.1820  138.9250 C   0  0  0  0  0  2  0  0  0  0  0  0
  182.1990  176.9430  137.9000 C   0  0  0  0  0  0  0  0  0  0  0  0
  183.0410  177.2690  135.6870 N   0  0  0  0  0  0  0  0  0  0  0  0
  184.2460  175.8640  137.2000 C   0  0  0  0  0  3  0  0  0  0  0  0
  184.1080  176.4650  135.9450 C   0  0  0  0  0  3  0  0  0  0  0  0
  183.2820  176.1070  138.1810 C   0  0  0  0  0  3  0  0  0  0  0  0
  182.0900  177.5150  136.6290 C   0  0  0  0  0  3  0  0  0  0  0  0
  188.0740  178.8850  141.5910 C   0  0  0  0  0  2  0  0  0  0  0  0
  191.2460  176.7200  139.3750 C   0  0  0  0  0  2  0  0  0  0  0  0
  189.5420  176.7180  137.4440 C   0  0  2  0  0  3  0  0  0  0  0  0
  190.6430  175.9500  138.1980 C   0  0  1  0  0  3  0  0  0  0  0  0
  188.2170  178.8200  140.1030 C   0  0  0  0  0  3  0  0  0  0  0  0
  190.1590  177.2790  140.2880 C   0  0  0  0  0  2  0  0  0  0  0  0
  189.1570  178.0850  139.5000 C   0  0  0  0  0  0  0  0  0  0  0  0
  190.9590  176.6760  136.9070 C   0  0  0  0  0  2  0  0  0  0  0  0
  189.2470  178.1140  138.0030 C   0  0  0  0  0  2  0  0  0  0  0  0
  2 11  1  6  0  0  0
  2 10  1  0  0  0  0
  3 14  1  6  0  0  0
  3  7  1  0  0  0  0
  4  1  1  0  0  0  0
  5  1  1  0  0  0  0
  6  3  1  0  0  0  0
  6  8  1  1  0  0  0
  7  5  1  0  0  0  0
  8  4  1  0  0  0  0
 10  9  1  6  0  0  0
 10  6  1  0  0  0  0
 11 14  1  0  0  0  0
 12 35  1  1  0  0  0
 12 13  1  0  0  0  0
 12  2  1  0  0  0  0
 13  9  1  1  0  0  0
 15 18  1  6  0  0  0
 15 17  1  0  0  0  0
 16 15  1  0  0  0  0
 17 16  1  6  0  0  0
 17 13  1  0  0  0  0
 19 20  1  0  0  0  0
 19 18  1  1  0  0  0
 20 24  1  6  0  0  0
 20 21  1  0  0  0  0
 21 22  1  0  0  0  0
 22 23  1  0  0  0  0
 25 26  1  0  0  0  0
 26 24  1  0  0  0  0
 27 19  1  0  0  0  0
 28 27  1  0  0  0  0
 29 33  1  0  0  0  0
 29 28  1  0  0  0  0
 30 32  2  0  0  0  0
 30 34  1  0  0  0  0
 31 33  2  0  0  0  0
 32 31  1  0  0  0  0
 34 29  2  0  0  0  0
 36 40  1  0  0  0  0
 37 42  1  6  0  0  0
 37 43  1  0  0  0  0
 37 38  1  0  0  0  0
 38 42  1  6  0  0  0
 38 36  1  0  0  0  0
 39 35  1  0  0  0  0
 41 39  2  0  0  0  0
 41 40  1  0  0  0  0
 43 41  1  0  0  0  0
M  END
>  <MODEL>
7

>  <REMARK>
 VINA RESULT:      -6.9      3.215      8.305
  Name = 
  13 active torsions:
  status: ('A' for Active; 'I' for Inactive)
    1  A    between atoms: C_1  and  C_28
    2  A    between atoms: C_1  and  C_34
    3  A    between atoms: C_2  and  C_6
    4  A    between atoms: C_3  and  C_4
    5  A    between atoms: C_3  and  C_12
    6  A    between atoms: C_4  and  C_15
    7  A    between atoms: C_4  and  C_22
    8  A    between atoms: C_6  and  C_22
    9  A    between atoms: C_11  and  C_14
   10  A    between atoms: C_13  and  N_38
   11  A    between atoms: C_14  and  O_41
   12  A    between atoms: C_15  and  C_42
   13  A    between atoms: C_22  and  O_41
                            x       y       z     vdW  Elec       q    Type
                         _______ _______ _______ _____ _____    ______ ____

>  <TORSDO>
F 13

$$$$
=
 OpenBabel10272414293D

 43 49  0  0  1  0  0  0  0  0999 V2000
  180.7550  180.3690  138.3550 N   0  0  0  0  0  2  0  0  0  0  0  0
  183.8730  178.1840  142.4180 C   0  0  2  0  0  3  0  0  0  0  0  0
  181.5930  179.4740  141.1860 C   0  0  1  0  0  3  0  0  0  0  0  0
  182.1430  180.7030  138.6410 C   0  0  0  0  0  2  0  0  0  0  0  0
  179.9890  180.5130  139.5840 C   0  0  0  0  0  2  0  0  0  0  0  0
  182.7260  178.8300  140.3380 C   0  0  1  0  0  3  0  0  0  0  0  0
  180.2350  179.3360  140.5160 C   0  0  0  0  0  2  0  0  0  0  0  0
  182.9260  179.4270  138.9300 C   0  0  0  0  0  2  0  0  0  0  0  0
  185.2460  178.2680  140.5230 C   0  0  0  0  0  2  0  0  0  0  0  0
  184.0260  178.9260  141.1300 C   0  0  2  0  0  3  0  0  0  0  0  0
  182.8700  178.8970  143.3130 C   0  0  0  0  0  2  0  0  0  0  0  0
  185.3030  178.0220  142.8820 C   0  0  1  0  0  3  0  0  0  0  0  0
  186.0490  177.7260  141.6310 N   0  0  2  0  0  0  0  0  0  0  0  0
  181.5150  178.8680  142.5990 C   0  0  0  0  0  2  0  0  0  0  0  0
  188.3040  177.4420  140.7290 C   0  0  1  0  0  3  0  0  0  0  0  0
  188.3810  177.3730  142.2390 C   0  0  0  0  0  2  0  0  0  0  0  0
  187.3900  178.3110  141.5790 C   0  0  2  0  0  3  0  0  0  0  0  0
  189.4540  178.2840  140.2030 C   0  0  0  0  0  2  0  0  0  0  0  0
  190.0010  177.7140  138.8900 C   0  0  2  0  0  3  0  0  0  0  0  0
  188.9440  177.6000  137.7810 C   0  0  1  0  0  3  0  0  0  0  0  0
  188.8160  178.8720  136.9460 C   0  0  0  0  0  2  0  0  0  0  0  0
  187.3650  179.1370  136.5920 C   0  0  0  0  0  2  0  0  0  0  0  0
  186.4870  178.0960  137.2540 C   0  0  0  0  0  1  0  0  0  0  0  0
  189.2340  176.4020  136.8900 C   0  0  0  0  0  2  0  0  0  0  0  0
  190.6610  175.7960  135.0880 F   0  0  0  0  0  0  0  0  0  0  0  0
  189.9050  176.8350  135.5980 C   0  0  0  0  0  2  0  0  0  0  0  0
  190.6010  176.4740  139.1230 O   0  0  0  0  0  0  0  0  0  0  0  0
  191.9750  176.7260  139.0840 C   0  0  0  0  0  2  0  0  0  0  0  0
  192.5990  175.9540  137.9730 C   0  0  0  0  0  0  0  0  0  0  0  0
  194.0450  175.8690  136.0720 N   0  0  0  0  0  0  0  0  0  0  0  0
  192.8180  173.9130  136.6940 C   0  0  0  0  0  3  0  0  0  0  0  0
  193.7260  174.5640  135.8540 C   0  0  0  0  0  3  0  0  0  0  0  0
  192.2530  174.6170  137.7600 C   0  0  0  0  0  3  0  0  0  0  0  0
  193.5010  176.5720  137.1030 C   0  0  0  0  0  3  0  0  0  0  0  0
  185.7800  179.2860  143.6250 C   0  0  0  0  0  2  0  0  0  0  0  0
  188.5130  177.1760  146.4050 C   0  0  0  0  0  2  0  0  0  0  0  0
  187.4360  178.6760  148.2000 C   0  0  2  0  0  3  0  0  0  0  0  0
  188.7160  177.9990  147.6790 C   0  0  1  0  0  3  0  0  0  0  0  0
  185.5840  179.1330  145.1000 C   0  0  0  0  0  3  0  0  0  0  0  0
  187.7710  177.9770  145.3390 C   0  0  0  0  0  2  0  0  0  0  0  0
  186.4890  178.5470  145.8910 C   0  0  0  0  0  0  0  0  0  0  0  0
  187.9240  177.3780  148.8110 C   0  0  0  0  0  2  0  0  0  0  0  0
  186.1870  178.4060  147.3530 C   0  0  0  0  0  2  0  0  0  0  0  0
  1  4  1  0  0  0  0
  1  5  1  0  0  0  0
  2 12  1  0  0  0  0
  2 11  1  1  0  0  0
  3  7  1  6  0  0  0
  3 14  1  0  0  0  0
  4  8  1  0  0  0  0
  5  7  1  0  0  0  0
  6  8  1  6  0  0  0
  6 10  1  0  0  0  0
  6  3  1  0  0  0  0
 10  9  1  6  0  0  0
 10  2  1  0  0  0  0
 12 35  1  6  0  0  0
 13  9  1  6  0  0  0
 13 12  1  0  0  0  0
 14 11  1  0  0  0  0
 15 18  1  6  0  0  0
 15 17  1  0  0  0  0
 15 16  1  0  0  0  0
 17 13  1  0  0  0  0
 17 16  1  1  0  0  0
 19 27  1  0  0  0  0
 19 18  1  1  0  0  0
 20 24  1  6  0  0  0
 20 19  1  0  0  0  0
 21 20  1  0  0  0  0
 22 21  1  0  0  0  0
 22 23  1  0  0  0  0
 25 26  1  0  0  0  0
 26 24  1  0  0  0  0
 28 27  1  0  0  0  0
 29 28  1  0  0  0  0
 30 34  1  0  0  0  0
 31 33  2  0  0  0  0
 32 30  2  0  0  0  0
 32 31  1  0  0  0  0
 33 29  1  0  0  0  0
 34 29  2  0  0  0  0
 35 39  1  0  0  0  0
 37 43  1  6  0  0  0
 37 42  1  0  0  0  0
 38 36  1  6  0  0  0
 38 37  1  0  0  0  0
 38 42  1  0  0  0  0
 39 41  2  0  0  0  0
 40 41  1  0  0  0  0
 40 36  1  0  0  0  0
 41 43  1  0  0  0  0
M  END
>  <MODEL>
8

>  <REMARK>
 VINA RESULT:      -6.7      3.223      9.380
  Name = 
  13 active torsions:
  status: ('A' for Active; 'I' for Inactive)
    1  A    between atoms: C_1  and  C_28
    2  A    between atoms: C_1  and  C_34
    3  A    between atoms: C_2  and  C_6
    4  A    between atoms: C_3  and  C_4
    5  A    between atoms: C_3  and  C_12
    6  A    between atoms: C_4  and  C_15
    7  A    between atoms: C_4  and  C_22
    8  A    between atoms: C_6  and  C_22
    9  A    between atoms: C_11  and  C_14
   10  A    between atoms: C_13  and  N_38
   11  A    between atoms: C_14  and  O_41
   12  A    between atoms: C_15  and  C_42
   13  A    between atoms: C_22  and  O_41
                            x       y       z     vdW  Elec       q    Type
                         _______ _______ _______ _____ _____    ______ ____

>  <TORSDO>
F 13

$$$$
=
 OpenBabel10272414293D

 43 49  0  0  1  0  0  0  0  0999 V2000
  194.5970  175.6450  135.7020 N   0  0  0  0  0  2  0  0  0  0  0  0
  189.2650  175.9650  137.2730 C   0  0  2  0  0  3  0  0  0  0  0  0
  191.5190  175.6490  135.4850 C   0  0  1  0  0  3  0  0  0  0  0  0
  194.0000  176.7180  136.4850 C   0  0  0  0  0  2  0  0  0  0  0  0
  193.8020  175.4620  134.4970 C   0  0  0  0  0  2  0  0  0  0  0  0
  191.6950  175.6590  137.0300 C   0  0  1  0  0  3  0  0  0  0  0  0
  192.5120  174.7170  134.8080 C   0  0  0  0  0  2  0  0  0  0  0  0
  193.0740  176.1240  137.5410 C   0  0  0  0  0  2  0  0  0  0  0  0
  190.5280  176.6070  139.1380 C   0  0  0  0  0  2  0  0  0  0  0  0
  190.6000  176.5360  137.6280 C   0  0  2  0  0  3  0  0  0  0  0  0
  189.0270  176.0890  135.7760 C   0  0  0  0  0  2  0  0  0  0  0  0
  188.3340  176.6690  138.2360 C   0  0  1  0  0  3  0  0  0  0  0  0
  189.1070  176.7130  139.5050 N   0  0  2  0  0  0  0  0  0  0  0  0
  190.0930  175.2440  135.0690 C   0  0  0  0  0  2  0  0  0  0  0  0
  188.7360  177.5860  141.7590 C   0  0  1  0  0  3  0  0  0  0  0  0
  187.5250  177.9160  140.9130 C   0  0  0  0  0  2  0  0  0  0  0  0
  188.9050  177.9340  140.2880 C   0  0  2  0  0  3  0  0  0  0  0  0
  189.1050  178.7920  142.6070 C   0  0  0  0  0  2  0  0  0  0  0  0
  189.1980  178.4170  144.0890 C   0  0  2  0  0  3  0  0  0  0  0  0
  190.6320  178.1430  144.5660 C   0  0  1  0  0  3  0  0  0  0  0  0
  190.8110  176.7420  145.1480 C   0  0  0  0  0  2  0  0  0  0  0  0
  191.5750  176.8000  146.4570 C   0  0  0  0  0  2  0  0  0  0  0  0
  191.9840  175.4010  146.8660 C   0  0  0  0  0  1  0  0  0  0  0  0
  191.6240  178.3830  143.4370 C   0  0  0  0  0  2  0  0  0  0  0  0
  192.7510  177.3550  141.6150 F   0  0  0  0  0  0  0  0  0  0  0  0
  191.8880  177.1020  142.6650 C   0  0  0  0  0  2  0  0  0  0  0  0
  188.3760  177.3190  144.3560 O   0  0  0  0  0  0  0  0  0  0  0  0
  187.7290  177.6350  145.5540 C   0  0  0  0  0  2  0  0  0  0  0  0
  186.3470  178.1110  145.2710 C   0  0  0  0  0  0  0  0  0  0  0  0
  184.2740  179.0180  146.0430 N   0  0  0  0  0  0  0  0  0  0  0  0
  184.5070  178.4370  143.7360 C   0  0  0  0  0  3  0  0  0  0  0  0
  183.7440  178.9430  144.7920 C   0  0  0  0  0  3  0  0  0  0  0  0
  185.8170  178.0180  143.9810 C   0  0  0  0  0  3  0  0  0  0  0  0
  185.5470  178.6120  146.3030 C   0  0  0  0  0  3  0  0  0  0  0  0
  187.9290  178.0510  137.6870 C   0  0  0  0  0  2  0  0  0  0  0  0
  184.2630  176.9290  135.4620 C   0  0  0  0  0  2  0  0  0  0  0  0
  183.1000  177.2020  137.7430 C   0  0  2  0  0  3  0  0  0  0  0  0
  183.1920  176.4120  136.4260 C   0  0  1  0  0  3  0  0  0  0  0  0
  186.5250  178.3830  138.0850 C   0  0  0  0  0  3  0  0  0  0  0  0
  185.6060  177.1000  136.1650 C   0  0  0  0  0  2  0  0  0  0  0  0
  185.4610  177.9470  137.4040 C   0  0  0  0  0  0  0  0  0  0  0  0
  182.1280  177.4740  136.6130 C   0  0  0  0  0  2  0  0  0  0  0  0
  184.0930  178.3630  137.8560 C   0  0  0  0  0  2  0  0  0  0  0  0
  1  4  1  0  0  0  0
  2 11  1  6  0  0  0
  2 10  1  0  0  0  0
  2 12  1  0  0  0  0
  3  7  1  6  0  0  0
  3  6  1  0  0  0  0
  4  8  1  0  0  0  0
  5  7  1  0  0  0  0
  5  1  1  0  0  0  0
  6  8  1  6  0  0  0
  6 10  1  0  0  0  0
 10  9  1  1  0  0  0
 12 35  1  6  0  0  0
 12 13  1  0  0  0  0
 13  9  1  6  0  0  0
 13 17  1  0  0  0  0
 14  3  1  0  0  0  0
 14 11  1  0  0  0  0
 15 18  1  1  0  0  0
 16 15  1  0  0  0  0
 17 16  1  6  0  0  0
 17 15  1  0  0  0  0
 19 18  1  6  0  0  0
 19 27  1  0  0  0  0
 19 20  1  0  0  0  0
 20 24  1  6  0  0  0
 20 21  1  0  0  0  0
 21 22  1  0  0  0  0
 22 23  1  0  0  0  0
 25 26  1  0  0  0  0
 26 24  1  0  0  0  0
 27 28  1  0  0  0  0
 29 28  1  0  0  0  0
 29 34  1  0  0  0  0
 30 34  2  0  0  0  0
 31 33  1  0  0  0  0
 31 32  2  0  0  0  0
 32 30  1  0  0  0  0
 33 29  2  0  0  0  0
 35 39  1  0  0  0  0
 36 40  1  0  0  0  0
 37 42  1  6  0  0  0
 37 43  1  0  0  0  0
 38 36  1  6  0  0  0
 38 42  1  0  0  0  0
 38 37  1  0  0  0  0
 40 41  1  0  0  0  0
 41 43  1  0  0  0  0
 41 39  2  0  0  0  0
M  END
>  <MODEL>
9

>  <REMARK>
 VINA RESULT:      -6.7      2.277      5.845
  Name = 
  13 active torsions:
  status: ('A' for Active; 'I' for Inactive)
    1  A    between atoms: C_1  and  C_28
    2  A    between atoms: C_1  and  C_34
    3  A    between atoms: C_2  and  C_6
    4  A    between atoms: C_3  and  C_4
    5  A    between atoms: C_3  and  C_12
    6  A    between atoms: C_4  and  C_15
    7  A    between atoms: C_4  and  C_22
    8  A    between atoms: C_6  and  C_22
    9  A    between atoms: C_11  and  C_14
   10  A    between atoms: C_13  and  N_38
   11  A    between atoms: C_14  and  O_41
   12  A    between atoms: C_15  and  C_42
   13  A    between atoms: C_22  and  O_41
                            x       y       z     vdW  Elec       q    Type
                         _______ _______ _______ _____ _____    ______ ____

>  <TORSDO>
F 13

$$$$
