=
 OpenBabel10272401093D

 27 31  0  0  1  0  0  0  0  0999 V2000
  187.5290  178.5450  141.9330 N   0  0  0  0  0  2  0  0  0  0  0  0
  187.9700  177.5310  144.0830 C   0  0  0  0  0  0  0  0  0  0  0  0
  189.6210  176.4540  142.5600 N   0  0  0  0  0  2  0  0  0  0  0  0
  190.4940  176.9580  147.3370 C   0  0  0  0  0  3  0  0  0  0  0  0
  191.7250  176.3170  147.1810 C   0  0  0  0  0  0  0  0  0  0  0  0
  187.6470  177.9460  145.3410 N   0  0  0  0  0  0  0  0  0  0  0  0
  191.2950  176.0530  144.8110 C   0  0  0  0  0  3  0  0  0  0  0  0
  190.2550  177.2260  138.9860 C   0  0  0  0  0  0  0  0  0  0  0  0
  192.1250  175.8650  145.9200 C   0  0  0  0  0  3  0  0  0  0  0  0
  191.3290  176.6610  137.7250 Cl  0  0  0  0  0  0  0  0  0  0  0  0
  190.0550  176.6940  144.9580 C   0  0  0  0  0  0  0  0  0  0  0  0
  186.9900  177.6770  142.9620 C   0  0  1  0  0  3  0  0  0  0  0  0
  192.7680  176.0800  148.5660 Cl  0  0  0  0  0  0  0  0  0  0  0  0
  189.6600  177.1480  146.2320 C   0  0  0  0  0  0  0  0  0  0  0  0
  188.5280  178.1210  141.0060 C   0  0  0  0  0  0  0  0  0  0  0  0
  189.2090  176.9100  143.8590 C   0  0  0  0  0  0  0  0  0  0  0  0
  190.2690  176.6150  140.2400 C   0  0  0  0  0  3  0  0  0  0  0  0
  188.4640  177.7670  146.3780 N   0  0  0  0  0  0  0  0  0  0  0  0
  189.4050  178.3040  138.7480 C   0  0  0  0  0  3  0  0  0  0  0  0
  188.5440  178.7440  139.7530 C   0  0  0  0  0  3  0  0  0  0  0  0
  189.4240  177.0530  141.2680 C   0  0  0  0  0  0  0  0  0  0  0  0
  183.0730  178.9870  144.1650 C   0  0  0  0  0  3  0  0  0  0  0  0
  185.6330  178.1500  143.3950 C   0  0  0  0  0  0  0  0  0  0  0  0
  184.6290  178.3160  142.4350 C   0  0  0  0  0  3  0  0  0  0  0  0
  183.3520  178.7360  142.8190 C   0  0  0  0  0  3  0  0  0  0  0  0
  184.0700  178.8170  145.1300 C   0  0  0  0  0  3  0  0  0  0  0  0
  185.3480  178.3970  144.7480 C   0  0  0  0  0  3  0  0  0  0  0  0
  1 12  1  0  0  0  0
  2  6  1  0  0  0  0
  3 16  1  0  0  0  0
  5  4  1  0  0  0  0
  5 13  1  0  0  0  0
  6 18  2  0  0  0  0
  7 11  2  0  0  0  0
  7  9  1  0  0  0  0
  8 17  1  0  0  0  0
  9  5  2  0  0  0  0
 10  8  1  0  0  0  0
 11 14  1  0  0  0  0
 12 23  1  1  0  0  0
 12  2  1  0  0  0  0
 14 18  1  0  0  0  0
 14  4  2  0  0  0  0
 15 21  1  0  0  0  0
 15  1  1  0  0  0  0
 16  2  2  0  0  0  0
 16 11  1  0  0  0  0
 17 21  2  0  0  0  0
 19  8  2  0  0  0  0
 19 20  1  0  0  0  0
 20 15  2  0  0  0  0
 21  3  1  0  0  0  0
 22 26  1  0  0  0  0
 23 27  1  0  0  0  0
 24 25  1  0  0  0  0
 24 23  2  0  0  0  0
 25 22  2  0  0  0  0
 27 26  2  0  0  0  0
M  END
>  <MODEL>
1

>  <REMARK>
 VINA RESULT:     -11.3      0.000      0.000
  Name = 
  1 active torsions:
  status: ('A' for Active; 'I' for Inactive)
    1  A    between atoms: C_9  and  C_15
                            x       y       z     vdW  Elec       q    Type
                         _______ _______ _______ _____ _____    ______ ____

>  <TORSDO>
F 1

$$$$
=
 OpenBabel10272401093D

 27 31  0  0  1  0  0  0  0  0999 V2000
  186.7690  178.7990  140.3170 N   0  0  0  0  0  2  0  0  0  0  0  0
  186.0830  178.2040  142.5570 C   0  0  0  0  0  0  0  0  0  0  0  0
  188.2570  177.0240  142.2600 N   0  0  0  0  0  2  0  0  0  0  0  0
  186.6720  178.4020  146.6680 C   0  0  0  0  0  3  0  0  0  0  0  0
  187.8130  177.8480  147.2530 C   0  0  0  0  0  0  0  0  0  0  0  0
  185.1880  178.7990  143.3960 N   0  0  0  0  0  0  0  0  0  0  0  0
  188.6020  177.1510  145.0700 C   0  0  0  0  0  3  0  0  0  0  0  0
  190.5770  177.2280  139.3710 C   0  0  0  0  0  0  0  0  0  0  0  0
  188.7760  177.2220  146.4560 C   0  0  0  0  0  3  0  0  0  0  0  0
  192.1250  176.5480  138.9220 Cl  0  0  0  0  0  0  0  0  0  0  0  0
  187.4580  177.7030  144.4730 C   0  0  0  0  0  0  0  0  0  0  0  0
  185.7840  178.0770  141.0960 C   0  0  1  0  0  3  0  0  0  0  0  0
  188.0360  177.9350  148.9860 Cl  0  0  0  0  0  0  0  0  0  0  0  0
  186.4920  178.3320  145.2840 C   0  0  0  0  0  0  0  0  0  0  0  0
  188.0900  178.3080  140.0900 C   0  0  0  0  0  0  0  0  0  0  0  0
  187.2640  177.6590  143.0840 C   0  0  0  0  0  0  0  0  0  0  0  0
  189.9650  176.8420  140.5640 C   0  0  0  0  0  3  0  0  0  0  0  0
  185.3870  178.8670  144.7120 N   0  0  0  0  0  0  0  0  0  0  0  0
  189.9670  178.1770  138.5530 C   0  0  0  0  0  3  0  0  0  0  0  0
  188.7280  178.7080  138.9100 C   0  0  0  0  0  3  0  0  0  0  0  0
  188.7290  177.3770  140.9490 C   0  0  0  0  0  0  0  0  0  0  0  0
  181.8170  179.2890  139.9520 C   0  0  0  0  0  3  0  0  0  0  0  0
  184.3950  178.5030  140.7190 C   0  0  0  0  0  0  0  0  0  0  0  0
  184.2180  179.3750  139.6400 C   0  0  0  0  0  3  0  0  0  0  0  0
  182.9310  179.7690  139.2580 C   0  0  0  0  0  3  0  0  0  0  0  0
  181.9880  178.4120  141.0280 C   0  0  0  0  0  3  0  0  0  0  0  0
  183.2730  178.0170  141.4100 C   0  0  0  0  0  3  0  0  0  0  0  0
  1 12  1  0  0  0  0
  2 16  2  0  0  0  0
  2  6  1  0  0  0  0
  3 16  1  0  0  0  0
  4  5  1  0  0  0  0
  5 13  1  0  0  0  0
  6 18  2  0  0  0  0
  7  9  1  0  0  0  0
  8 17  1  0  0  0  0
  9  5  2  0  0  0  0
 10  8  1  0  0  0  0
 11  7  2  0  0  0  0
 11 14  1  0  0  0  0
 12 23  1  1  0  0  0
 12  2  1  0  0  0  0
 14  4  2  0  0  0  0
 15  1  1  0  0  0  0
 15 21  1  0  0  0  0
 16 11  1  0  0  0  0
 17 21  2  0  0  0  0
 18 14  1  0  0  0  0
 19 20  1  0  0  0  0
 19  8  2  0  0  0  0
 20 15  2  0  0  0  0
 21  3  1  0  0  0  0
 22 26  1  0  0  0  0
 23 27  1  0  0  0  0
 24 23  2  0  0  0  0
 25 24  1  0  0  0  0
 25 22  2  0  0  0  0
 26 27  2  0  0  0  0
M  END
>  <MODEL>
2

>  <REMARK>
 VINA RESULT:     -10.4      2.099      2.997
  Name = 
  1 active torsions:
  status: ('A' for Active; 'I' for Inactive)
    1  A    between atoms: C_9  and  C_15
                            x       y       z     vdW  Elec       q    Type
                         _______ _______ _______ _____ _____    ______ ____

>  <TORSDO>
F 1

$$$$
=
 OpenBabel10272401093D

 27 31  0  0  1  0  0  0  0  0999 V2000
  189.6350  176.7000  142.7320 N   0  0  0  0  0  2  0  0  0  0  0  0
  187.8370  177.7410  143.9680 C   0  0  0  0  0  0  0  0  0  0  0  0
  187.6070  178.6750  141.6700 N   0  0  0  0  0  2  0  0  0  0  0  0
  183.7680  178.2430  144.6560 C   0  0  0  0  0  3  0  0  0  0  0  0
  182.9420  178.8030  143.6780 C   0  0  0  0  0  0  0  0  0  0  0  0
  187.2440  177.3800  145.1420 N   0  0  0  0  0  0  0  0  0  0  0  0
  184.8440  179.0310  142.1940 C   0  0  0  0  0  3  0  0  0  0  0  0
  189.5560  177.7720  138.6450 C   0  0  0  0  0  0  0  0  0  0  0  0
  183.4800  179.1970  142.4490 C   0  0  0  0  0  3  0  0  0  0  0  0
  189.5920  178.2370  136.9580 Cl  0  0  0  0  0  0  0  0  0  0  0  0
  185.6820  178.4710  143.1710 C   0  0  0  0  0  0  0  0  0  0  0  0
  189.3200  177.6260  143.8020 C   0  0  1  0  0  3  0  0  0  0  0  0
  181.2340  179.0130  143.9930 Cl  0  0  0  0  0  0  0  0  0  0  0  0
  185.1330  178.0770  144.4070 C   0  0  0  0  0  0  0  0  0  0  0  0
  189.5050  177.0380  141.3520 C   0  0  0  0  0  0  0  0  0  0  0  0
  187.0520  178.2790  142.9360 C   0  0  0  0  0  0  0  0  0  0  0  0
  188.6870  178.4140  139.5280 C   0  0  0  0  0  3  0  0  0  0  0  0
  185.9380  177.5350  145.3530 N   0  0  0  0  0  0  0  0  0  0  0  0
  190.3760  176.7420  139.1030 C   0  0  0  0  0  3  0  0  0  0  0  0
  190.3520  176.3820  140.4500 C   0  0  0  0  0  3  0  0  0  0  0  0
  188.6360  178.0550  140.8810 C   0  0  0  0  0  0  0  0  0  0  0  0
  191.4620  176.5620  147.3780 C   0  0  0  0  0  3  0  0  0  0  0  0
  190.0470  177.2490  145.0590 C   0  0  0  0  0  0  0  0  0  0  0  0
  191.2360  176.5180  144.9670 C   0  0  0  0  0  3  0  0  0  0  0  0
  191.9410  176.1720  146.1240 C   0  0  0  0  0  3  0  0  0  0  0  0
  190.2770  177.2980  147.4760 C   0  0  0  0  0  3  0  0  0  0  0  0
  189.5720  177.6440  146.3200 C   0  0  0  0  0  3  0  0  0  0  0  0
  1 12  1  0  0  0  0
  2  6  1  0  0  0  0
  3 16  1  0  0  0  0
  5 13  1  0  0  0  0
  5  4  2  0  0  0  0
  6 18  2  0  0  0  0
  7  9  2  0  0  0  0
  7 11  1  0  0  0  0
  8 19  2  0  0  0  0
  8 17  1  0  0  0  0
  9  5  1  0  0  0  0
 10  8  1  0  0  0  0
 11 14  2  0  0  0  0
 12  2  1  0  0  0  0
 12 23  1  1  0  0  0
 14  4  1  0  0  0  0
 14 18  1  0  0  0  0
 15  1  1  0  0  0  0
 16 11  1  0  0  0  0
 16  2  2  0  0  0  0
 17 21  2  0  0  0  0
 19 20  1  0  0  0  0
 20 15  2  0  0  0  0
 21 15  1  0  0  0  0
 21  3  1  0  0  0  0
 22 26  1  0  0  0  0
 23 27  1  0  0  0  0
 24 23  2  0  0  0  0
 24 25  1  0  0  0  0
 25 22  2  0  0  0  0
 27 26  2  0  0  0  0
M  END
>  <MODEL>
3

>  <REMARK>
 VINA RESULT:     -10.3      2.472      5.802
  Name = 
  1 active torsions:
  status: ('A' for Active; 'I' for Inactive)
    1  A    between atoms: C_9  and  C_15
                            x       y       z     vdW  Elec       q    Type
                         _______ _______ _______ _____ _____    ______ ____

>  <TORSDO>
F 1

$$$$
=
 OpenBabel10272401093D

 27 31  0  0  1  0  0  0  0  0999 V2000
  189.6140  178.3690  141.6040 N   0  0  0  0  0  2  0  0  0  0  0  0
  187.2360  178.1260  141.2410 C   0  0  0  0  0  0  0  0  0  0  0  0
  187.5720  177.3340  143.5790 N   0  0  0  0  0  2  0  0  0  0  0  0
  183.3340  179.2620  142.1120 C   0  0  0  0  0  3  0  0  0  0  0  0
  182.7980  179.0600  143.3870 C   0  0  0  0  0  0  0  0  0  0  0  0
  186.4190  178.7020  140.3150 N   0  0  0  0  0  0  0  0  0  0  0  0
  184.8950  178.0910  144.1200 C   0  0  0  0  0  3  0  0  0  0  0  0
  190.7080  177.3720  145.5630 C   0  0  0  0  0  0  0  0  0  0  0  0
  183.5780  178.4750  144.3890 C   0  0  0  0  0  3  0  0  0  0  0  0
  191.2090  176.9130  147.1760 Cl  0  0  0  0  0  0  0  0  0  0  0  0
  185.4410  178.2890  142.8420 C   0  0  0  0  0  0  0  0  0  0  0  0
  188.6020  177.6500  140.8560 C   0  0  1  0  0  3  0  0  0  0  0  0
  181.1510  179.5380  143.7290 Cl  0  0  0  0  0  0  0  0  0  0  0  0
  184.6490  178.8790  141.8380 C   0  0  0  0  0  0  0  0  0  0  0  0
  189.9050  178.0950  142.9740 C   0  0  0  0  0  0  0  0  0  0  0  0
  186.7650  177.9270  142.5490 C   0  0  0  0  0  0  0  0  0  0  0  0
  189.3990  177.1300  145.1430 C   0  0  0  0  0  3  0  0  0  0  0  0
  185.1720  179.0720  140.6030 N   0  0  0  0  0  0  0  0  0  0  0  0
  191.6070  178.0040  144.7060 C   0  0  0  0  0  3  0  0  0  0  0  0
  191.2060  178.3580  143.4180 C   0  0  0  0  0  3  0  0  0  0  0  0
  188.9730  177.4940  143.8590 C   0  0  0  0  0  0  0  0  0  0  0  0
  189.3570  177.8180  136.6230 C   0  0  0  0  0  3  0  0  0  0  0  0
  188.8810  177.7250  139.3830 C   0  0  0  0  0  0  0  0  0  0  0  0
  189.0100  176.5400  138.6510 C   0  0  0  0  0  3  0  0  0  0  0  0
  189.2500  176.5860  137.2740 C   0  0  0  0  0  3  0  0  0  0  0  0
  189.2220  179.0060  137.3480 C   0  0  0  0  0  3  0  0  0  0  0  0
  188.9820  178.9620  138.7240 C   0  0  0  0  0  3  0  0  0  0  0  0
  1 15  1  0  0  0  0
  2 16  1  0  0  0  0
  3 21  1  0  0  0  0
  4  5  2  0  0  0  0
  5 13  1  0  0  0  0
  5  9  1  0  0  0  0
  6 18  1  0  0  0  0
  6  2  2  0  0  0  0
  7  9  2  0  0  0  0
  8 10  1  0  0  0  0
 11  7  1  0  0  0  0
 12 23  1  6  0  0  0
 12  2  1  0  0  0  0
 12  1  1  0  0  0  0
 14  4  1  0  0  0  0
 14 11  1  0  0  0  0
 15 20  2  0  0  0  0
 15 21  1  0  0  0  0
 16 11  2  0  0  0  0
 16  3  1  0  0  0  0
 17  8  1  0  0  0  0
 18 14  2  0  0  0  0
 19  8  2  0  0  0  0
 20 19  1  0  0  0  0
 21 17  2  0  0  0  0
 22 25  2  0  0  0  0
 22 26  1  0  0  0  0
 24 23  2  0  0  0  0
 25 24  1  0  0  0  0
 26 27  2  0  0  0  0
 27 23  1  0  0  0  0
M  END
>  <MODEL>
4

>  <REMARK>
 VINA RESULT:     -10.1      2.782      6.853
  Name = 
  1 active torsions:
  status: ('A' for Active; 'I' for Inactive)
    1  A    between atoms: C_9  and  C_15
                            x       y       z     vdW  Elec       q    Type
                         _______ _______ _______ _____ _____    ______ ____

>  <TORSDO>
F 1

$$$$
=
 OpenBabel10272401093D

 27 31  0  0  1  0  0  0  0  0999 V2000
  189.7460  176.8580  140.6260 N   0  0  0  0  0  2  0  0  0  0  0  0
  187.9600  177.9730  141.8140 C   0  0  0  0  0  0  0  0  0  0  0  0
  187.6020  178.6280  139.4380 N   0  0  0  0  0  2  0  0  0  0  0  0
  183.9050  178.4120  142.6200 C   0  0  0  0  0  3  0  0  0  0  0  0
  183.0200  178.8270  141.6230 C   0  0  0  0  0  0  0  0  0  0  0  0
  187.4290  177.7290  143.0460 N   0  0  0  0  0  0  0  0  0  0  0  0
  184.8500  178.9470  140.0390 C   0  0  0  0  0  3  0  0  0  0  0  0
  189.4620  177.4500  136.4510 C   0  0  0  0  0  0  0  0  0  0  0  0
  183.4920  179.0950  140.3340 C   0  0  0  0  0  3  0  0  0  0  0  0
  189.4120  177.7180  134.7230 Cl  0  0  0  0  0  0  0  0  0  0  0  0
  185.7480  178.5330  141.0360 C   0  0  0  0  0  0  0  0  0  0  0  0
  189.4380  177.8900  141.5960 C   0  0  1  0  0  3  0  0  0  0  0  0
  181.3190  179.0130  141.9860 Cl  0  0  0  0  0  0  0  0  0  0  0  0
  185.2640  178.2640  142.3310 C   0  0  0  0  0  0  0  0  0  0  0  0
  189.5480  177.0300  139.2230 C   0  0  0  0  0  0  0  0  0  0  0  0
  187.1140  178.3610  140.7630 C   0  0  0  0  0  0  0  0  0  0  0  0
  188.6050  178.1590  137.2930 C   0  0  0  0  0  3  0  0  0  0  0  0
  186.1270  177.8630  143.2960 N   0  0  0  0  0  0  0  0  0  0  0  0
  190.3390  176.5080  136.9860 C   0  0  0  0  0  3  0  0  0  0  0  0
  190.3820  176.3050  138.3650 C   0  0  0  0  0  3  0  0  0  0  0  0
  188.6220  177.9570  138.6790 C   0  0  0  0  0  0  0  0  0  0  0  0
  191.7460  177.2610  145.1730 C   0  0  0  0  0  3  0  0  0  0  0  0
  190.2300  177.6850  142.8550 C   0  0  0  0  0  0  0  0  0  0  0  0
  190.6220  176.3910  143.2120 C   0  0  0  0  0  3  0  0  0  0  0  0
  191.3770  176.1780  144.3700 C   0  0  0  0  0  3  0  0  0  0  0  0
  191.3610  178.5580  144.8190 C   0  0  0  0  0  3  0  0  0  0  0  0
  190.6070  178.7710  143.6610 C   0  0  0  0  0  3  0  0  0  0  0  0
  1 12  1  0  0  0  0
  2  6  1  0  0  0  0
  3 16  1  0  0  0  0
  5 13  1  0  0  0  0
  5  4  2  0  0  0  0
  6 18  2  0  0  0  0
  7  9  2  0  0  0  0
  7 11  1  0  0  0  0
  8 19  2  0  0  0  0
  8 17  1  0  0  0  0
  9  5  1  0  0  0  0
 10  8  1  0  0  0  0
 11 14  2  0  0  0  0
 12  2  1  0  0  0  0
 12 23  1  1  0  0  0
 14  4  1  0  0  0  0
 14 18  1  0  0  0  0
 15  1  1  0  0  0  0
 16 11  1  0  0  0  0
 16  2  2  0  0  0  0
 17 21  2  0  0  0  0
 19 20  1  0  0  0  0
 20 15  2  0  0  0  0
 21 15  1  0  0  0  0
 21  3  1  0  0  0  0
 23 24  2  0  0  0  0
 23 27  1  0  0  0  0
 24 25  1  0  0  0  0
 25 22  2  0  0  0  0
 26 22  1  0  0  0  0
 27 26  2  0  0  0  0
M  END
>  <MODEL>
5

>  <REMARK>
 VINA RESULT:      -9.9      3.203      6.286
  Name = 
  1 active torsions:
  status: ('A' for Active; 'I' for Inactive)
    1  A    between atoms: C_9  and  C_15
                            x       y       z     vdW  Elec       q    Type
                         _______ _______ _______ _____ _____    ______ ____

>  <TORSDO>
F 1

$$$$
=
 OpenBabel10272401093D

 27 31  0  0  1  0  0  0  0  0999 V2000
  189.8440  178.0590  142.9560 N   0  0  0  0  0  2  0  0  0  0  0  0
  188.0680  177.8390  141.3290 C   0  0  0  0  0  0  0  0  0  0  0  0
  186.9580  177.3430  143.5030 N   0  0  0  0  0  2  0  0  0  0  0  0
  184.4790  179.1870  139.7220 C   0  0  0  0  0  3  0  0  0  0  0  0
  183.3050  179.1650  140.4790 C   0  0  0  0  0  0  0  0  0  0  0  0
  187.9710  178.3160  140.0550 N   0  0  0  0  0  0  0  0  0  0  0  0
  184.5260  178.2390  142.3570 C   0  0  0  0  0  3  0  0  0  0  0  0
  188.4280  177.5450  146.9040 C   0  0  0  0  0  0  0  0  0  0  0  0
  183.3280  178.6910  141.7950 C   0  0  0  0  0  3  0  0  0  0  0  0
  187.8910  177.2830  148.5490 Cl  0  0  0  0  0  0  0  0  0  0  0  0
  185.7100  178.2560  141.6040 C   0  0  0  0  0  0  0  0  0  0  0  0
  189.3620  177.2800  141.8320 C   0  0  1  0  0  3  0  0  0  0  0  0
  181.8040  179.7290  139.7800 Cl  0  0  0  0  0  0  0  0  0  0  0  0
  185.6780  178.7360  140.2800 C   0  0  0  0  0  0  0  0  0  0  0  0
  189.2880  177.9540  144.2660 C   0  0  0  0  0  0  0  0  0  0  0  0
  186.9290  177.8230  142.1490 C   0  0  0  0  0  0  0  0  0  0  0  0
  187.5640  177.2890  145.8390 C   0  0  0  0  0  3  0  0  0  0  0  0
  186.8190  178.7540  139.5490 N   0  0  0  0  0  0  0  0  0  0  0  0
  189.7080  178.0370  146.6580 C   0  0  0  0  0  3  0  0  0  0  0  0
  190.1350  178.2350  145.3450 C   0  0  0  0  0  3  0  0  0  0  0  0
  187.9680  177.4980  144.5140 C   0  0  0  0  0  0  0  0  0  0  0  0
  192.4500  176.9130  138.8590 C   0  0  0  0  0  3  0  0  0  0  0  0
  190.4250  177.1580  140.7790 C   0  0  0  0  0  0  0  0  0  0  0  0
  191.7090  177.6450  141.0450 C   0  0  0  0  0  3  0  0  0  0  0  0
  192.7200  177.5250  140.0860 C   0  0  0  0  0  3  0  0  0  0  0  0
  191.1700  176.4190  138.5890 C   0  0  0  0  0  3  0  0  0  0  0  0
  190.1590  176.5380  139.5470 C   0  0  0  0  0  3  0  0  0  0  0  0
  1 15  1  0  0  0  0
  2 12  1  0  0  0  0
  2 16  1  0  0  0  0
  3 21  1  0  0  0  0
  4 14  1  0  0  0  0
  4  5  2  0  0  0  0
  5  9  1  0  0  0  0
  6  2  2  0  0  0  0
  8 10  1  0  0  0  0
  9  7  2  0  0  0  0
 11 16  2  0  0  0  0
 11  7  1  0  0  0  0
 12 23  1  6  0  0  0
 12  1  1  0  0  0  0
 13  5  1  0  0  0  0
 14 11  1  0  0  0  0
 15 21  2  0  0  0  0
 15 20  1  0  0  0  0
 16  3  1  0  0  0  0
 17  8  2  0  0  0  0
 18  6  1  0  0  0  0
 18 14  2  0  0  0  0
 19  8  1  0  0  0  0
 20 19  2  0  0  0  0
 21 17  1  0  0  0  0
 22 25  1  0  0  0  0
 23 24  1  0  0  0  0
 25 24  2  0  0  0  0
 26 22  2  0  0  0  0
 26 27  1  0  0  0  0
 27 23  2  0  0  0  0
M  END
>  <MODEL>
6

>  <REMARK>
 VINA RESULT:      -9.8      2.830      7.711
  Name = 
  1 active torsions:
  status: ('A' for Active; 'I' for Inactive)
    1  A    between atoms: C_9  and  C_15
                            x       y       z     vdW  Elec       q    Type
                         _______ _______ _______ _____ _____    ______ ____

>  <TORSDO>
F 1

$$$$
=
 OpenBabel10272401093D

 27 31  0  0  1  0  0  0  0  0999 V2000
  188.5120  177.0520  143.6020 N   0  0  0  0  0  2  0  0  0  0  0  0
  186.3970  178.1740  143.9430 C   0  0  0  0  0  0  0  0  0  0  0  0
  186.9820  178.6990  141.5800 N   0  0  0  0  0  2  0  0  0  0  0  0
  182.3440  178.5370  143.0960 C   0  0  0  0  0  3  0  0  0  0  0  0
  181.9100  178.8770  141.8120 C   0  0  0  0  0  0  0  0  0  0  0  0
  185.4320  177.9760  144.8870 N   0  0  0  0  0  0  0  0  0  0  0  0
  184.2100  178.9700  141.0540 C   0  0  0  0  0  3  0  0  0  0  0  0
  189.8610  177.4270  139.6150 C   0  0  0  0  0  0  0  0  0  0  0  0
  182.8420  179.0930  140.7920 C   0  0  0  0  0  3  0  0  0  0  0  0
  190.4820  177.6080  137.9890 Cl  0  0  0  0  0  0  0  0  0  0  0  0
  184.6550  178.6310  142.3410 C   0  0  0  0  0  0  0  0  0  0  0  0
  187.8450  178.1220  144.3180 C   0  0  1  0  0  3  0  0  0  0  0  0
  180.2000  179.0320  141.4800 Cl  0  0  0  0  0  0  0  0  0  0  0  0
  183.7100  178.4140  143.3620 C   0  0  0  0  0  0  0  0  0  0  0  0
  188.8710  177.1490  142.2240 C   0  0  0  0  0  0  0  0  0  0  0  0
  186.0210  178.4850  142.6270 C   0  0  0  0  0  0  0  0  0  0  0  0
  188.7400  178.1530  140.0190 C   0  0  0  0  0  3  0  0  0  0  0  0
  184.1350  178.0860  144.6070 N   0  0  0  0  0  0  0  0  0  0  0  0
  190.4690  176.5380  140.4990 C   0  0  0  0  0  3  0  0  0  0  0  0
  189.9770  176.4050  141.7970 C   0  0  0  0  0  3  0  0  0  0  0  0
  188.2210  178.0200  141.3130 C   0  0  0  0  0  0  0  0  0  0  0  0
  188.6070  177.7980  148.5400 C   0  0  0  0  0  3  0  0  0  0  0  0
  188.0900  178.0030  145.7950 C   0  0  0  0  0  0  0  0  0  0  0  0
  189.2650  177.3930  146.2450 C   0  0  0  0  0  3  0  0  0  0  0  0
  189.5230  177.2890  147.6150 C   0  0  0  0  0  3  0  0  0  0  0  0
  187.4330  178.4130  148.0960 C   0  0  0  0  0  3  0  0  0  0  0  0
  187.1740  178.5190  146.7260 C   0  0  0  0  0  3  0  0  0  0  0  0
  1 12  1  0  0  0  0
  2 12  1  0  0  0  0
  2  6  1  0  0  0  0
  3 16  1  0  0  0  0
  4 14  1  0  0  0  0
  5  4  2  0  0  0  0
  7 11  1  0  0  0  0
  8 17  2  0  0  0  0
  8 19  1  0  0  0  0
  9  7  2  0  0  0  0
  9  5  1  0  0  0  0
 10  8  1  0  0  0  0
 11 16  1  0  0  0  0
 11 14  2  0  0  0  0
 12 23  1  1  0  0  0
 13  5  1  0  0  0  0
 14 18  1  0  0  0  0
 15  1  1  0  0  0  0
 16  2  2  0  0  0  0
 17 21  1  0  0  0  0
 18  6  2  0  0  0  0
 19 20  2  0  0  0  0
 20 15  1  0  0  0  0
 21  3  1  0  0  0  0
 21 15  2  0  0  0  0
 23 24  2  0  0  0  0
 23 27  1  0  0  0  0
 24 25  1  0  0  0  0
 25 22  2  0  0  0  0
 26 22  1  0  0  0  0
 27 26  2  0  0  0  0
M  END
>  <MODEL>
7

>  <REMARK>
 VINA RESULT:      -9.6      2.799      6.097
  Name = 
  1 active torsions:
  status: ('A' for Active; 'I' for Inactive)
    1  A    between atoms: C_9  and  C_15
                            x       y       z     vdW  Elec       q    Type
                         _______ _______ _______ _____ _____    ______ ____

>  <TORSDO>
F 1

$$$$
=
 OpenBabel10272401093D

 27 31  0  0  1  0  0  0  0  0999 V2000
  186.4270  177.6140  143.0770 N   0  0  0  0  0  2  0  0  0  0  0  0
  187.7370  178.0380  141.0890 C   0  0  0  0  0  0  0  0  0  0  0  0
  189.3630  178.3250  142.9550 N   0  0  0  0  0  2  0  0  0  0  0  0
  190.7950  176.9370  138.4980 C   0  0  0  0  0  3  0  0  0  0  0  0
  192.1220  176.9020  138.9330 C   0  0  0  0  0  0  0  0  0  0  0  0
  187.5070  177.7010  139.7890 N   0  0  0  0  0  0  0  0  0  0  0  0
  191.4210  177.6010  141.1450 C   0  0  0  0  0  3  0  0  0  0  0  0
  188.7960  177.7370  146.5740 C   0  0  0  0  0  0  0  0  0  0  0  0
  192.4350  177.2350  140.2550 C   0  0  0  0  0  3  0  0  0  0  0  0
  189.7310  177.8350  148.0500 Cl  0  0  0  0  0  0  0  0  0  0  0  0
  190.0850  177.6410  140.7170 C   0  0  0  0  0  0  0  0  0  0  0  0
  186.6160  178.5170  141.9580 C   0  0  1  0  0  3  0  0  0  0  0  0
  193.3940  176.4440  137.8230 Cl  0  0  0  0  0  0  0  0  0  0  0  0
  189.7790  177.3040  139.3840 C   0  0  0  0  0  0  0  0  0  0  0  0
  187.2950  177.5920  144.2090 C   0  0  0  0  0  0  0  0  0  0  0  0
  189.0460  177.9910  141.5930 C   0  0  0  0  0  0  0  0  0  0  0  0
  189.3650  178.1210  145.3590 C   0  0  0  0  0  3  0  0  0  0  0  0
  188.4900  177.3400  138.9650 N   0  0  0  0  0  0  0  0  0  0  0  0
  187.4910  177.2490  146.6060 C   0  0  0  0  0  3  0  0  0  0  0  0
  186.7460  177.1820  145.4300 C   0  0  0  0  0  3  0  0  0  0  0  0
  188.6390  178.0450  144.1650 C   0  0  0  0  0  0  0  0  0  0  0  0
  182.8870  179.1520  139.9080 C   0  0  0  0  0  3  0  0  0  0  0  0
  185.3230  178.7280  141.2250 C   0  0  0  0  0  0  0  0  0  0  0  0
  184.1150  178.5150  141.8960 C   0  0  0  0  0  3  0  0  0  0  0  0
  182.8980  178.7250  141.2390 C   0  0  0  0  0  3  0  0  0  0  0  0
  184.0920  179.3720  139.2330 C   0  0  0  0  0  3  0  0  0  0  0  0
  185.3080  179.1630  139.8900 C   0  0  0  0  0  3  0  0  0  0  0  0
  1 15  1  0  0  0  0
  2 16  1  0  0  0  0
  2 12  1  0  0  0  0
  3 21  1  0  0  0  0
  4  5  2  0  0  0  0
  4 14  1  0  0  0  0
  5  9  1  0  0  0  0
  6  2  2  0  0  0  0
  8 19  1  0  0  0  0
  8 10  1  0  0  0  0
  9  7  2  0  0  0  0
 11  7  1  0  0  0  0
 11 16  2  0  0  0  0
 12 23  1  6  0  0  0
 12  1  1  0  0  0  0
 13  5  1  0  0  0  0
 14 11  1  0  0  0  0
 15 20  1  0  0  0  0
 16  3  1  0  0  0  0
 17  8  2  0  0  0  0
 18 14  2  0  0  0  0
 18  6  1  0  0  0  0
 20 19  2  0  0  0  0
 21 15  2  0  0  0  0
 21 17  1  0  0  0  0
 22 25  1  0  0  0  0
 23 24  1  0  0  0  0
 25 24  2  0  0  0  0
 26 27  1  0  0  0  0
 26 22  2  0  0  0  0
 27 23  2  0  0  0  0
M  END
>  <MODEL>
8

>  <REMARK>
 VINA RESULT:      -9.2      2.118      5.777
  Name = 
  1 active torsions:
  status: ('A' for Active; 'I' for Inactive)
    1  A    between atoms: C_9  and  C_15
                            x       y       z     vdW  Elec       q    Type
                         _______ _______ _______ _____ _____    ______ ____

>  <TORSDO>
F 1

$$$$
=
 OpenBabel10272401093D

 27 31  0  0  1  0  0  0  0  0999 V2000
  184.9150  177.8780  140.4340 N   0  0  0  0  0  2  0  0  0  0  0  0
  186.9320  178.0840  141.7510 C   0  0  0  0  0  0  0  0  0  0  0  0
  185.1390  178.9240  143.2620 N   0  0  0  0  0  2  0  0  0  0  0  0
  189.2300  176.9140  145.0120 C   0  0  0  0  0  3  0  0  0  0  0  0
  188.7810  177.1340  146.3170 C   0  0  0  0  0  0  0  0  0  0  0  0
  188.1460  177.4790  141.6110 N   0  0  0  0  0  0  0  0  0  0  0  0
  186.7530  178.1420  145.4570 C   0  0  0  0  0  3  0  0  0  0  0  0
  181.4800  178.9630  142.6440 C   0  0  0  0  0  0  0  0  0  0  0  0
  187.5440  177.7470  146.5390 C   0  0  0  0  0  3  0  0  0  0  0  0
  180.0410  179.4590  143.5070 Cl  0  0  0  0  0  0  0  0  0  0  0  0
  187.1960  177.9280  144.1420 C   0  0  0  0  0  0  0  0  0  0  0  0
  186.1840  178.5690  140.5490 C   0  0  1  0  0  3  0  0  0  0  0  0
  189.7680  176.6410  147.6750 Cl  0  0  0  0  0  0  0  0  0  0  0  0
  188.4420  177.3090  143.9270 C   0  0  0  0  0  0  0  0  0  0  0  0
  183.7900  178.1820  141.2580 C   0  0  0  0  0  0  0  0  0  0  0  0
  186.4140  178.3010  143.0370 C   0  0  0  0  0  0  0  0  0  0  0  0
  182.7400  179.1810  143.2040 C   0  0  0  0  0  3  0  0  0  0  0  0
  188.8740  177.0990  142.6600 N   0  0  0  0  0  0  0  0  0  0  0  0
  181.3700  178.3270  141.4090 C   0  0  0  0  0  3  0  0  0  0  0  0
  182.5200  177.9440  140.7200 C   0  0  0  0  0  3  0  0  0  0  0  0
  183.9060  178.7870  142.5350 C   0  0  0  0  0  0  0  0  0  0  0  0
  188.3580  178.3190  136.8450 C   0  0  0  0  0  3  0  0  0  0  0  0
  186.9590  178.4700  139.2670 C   0  0  0  0  0  0  0  0  0  0  0  0
  186.2780  178.1920  138.0780 C   0  0  0  0  0  3  0  0  0  0  0  0
  186.9760  178.1140  136.8680 C   0  0  0  0  0  3  0  0  0  0  0  0
  189.0440  178.6030  138.0300 C   0  0  0  0  0  3  0  0  0  0  0  0
  188.3470  178.6810  139.2390 C   0  0  0  0  0  3  0  0  0  0  0  0
  1 12  1  0  0  0  0
  1 15  1  0  0  0  0
  2 16  1  0  0  0  0
  4  5  2  0  0  0  0
  5  9  1  0  0  0  0
  5 13  1  0  0  0  0
  6  2  2  0  0  0  0
  6 18  1  0  0  0  0
  7  9  2  0  0  0  0
  8 17  1  0  0  0  0
  8 10  1  0  0  0  0
 11  7  1  0  0  0  0
 12 23  1  6  0  0  0
 12  2  1  0  0  0  0
 14 11  1  0  0  0  0
 14  4  1  0  0  0  0
 15 21  1  0  0  0  0
 16  3  1  0  0  0  0
 16 11  2  0  0  0  0
 18 14  2  0  0  0  0
 19  8  2  0  0  0  0
 20 15  2  0  0  0  0
 20 19  1  0  0  0  0
 21 17  2  0  0  0  0
 21  3  1  0  0  0  0
 22 25  2  0  0  0  0
 22 26  1  0  0  0  0
 24 23  2  0  0  0  0
 25 24  1  0  0  0  0
 26 27  2  0  0  0  0
 27 23  1  0  0  0  0
M  END
>  <MODEL>
9

>  <REMARK>
 VINA RESULT:      -8.7      3.114      5.999
  Name = 
  1 active torsions:
  status: ('A' for Active; 'I' for Inactive)
    1  A    between atoms: C_9  and  C_15
                            x       y       z     vdW  Elec       q    Type
                         _______ _______ _______ _____ _____    ______ ____

>  <TORSDO>
F 1

$$$$
