=
 OpenBabel10272401523D

 28 32  0  0  1  0  0  0  0  0999 V2000
  187.6510  176.9410  144.1250 C   0  0  0  0  0  0  0  0  0  0  0  0
  184.3180  178.1200  140.0840 C   0  0  0  0  0  3  0  0  0  0  0  0
  184.9940  180.6100  144.7030 C   0  0  0  0  0  1  0  0  0  0  0  0
  182.3070  178.4570  141.4010 C   0  0  0  0  0  0  0  0  0  0  0  0
  184.5710  178.6090  142.5520 C   0  0  2  0  0  3  0  0  0  0  0  0
  182.1450  178.0080  139.0250 C   0  0  0  0  0  0  0  0  0  0  0  0
  183.7120  178.3520  141.3290 C   0  0  0  0  0  0  0  0  0  0  0  0
  182.5730  179.4060  143.6730 C   0  0  0  0  0  2  0  0  0  0  0  0
  181.5320  178.2670  140.2530 C   0  0  0  0  0  3  0  0  0  0  0  0
  185.8690  178.3200  145.0660 C   0  0  0  0  0  0  0  0  0  0  0  0
  185.6850  177.5610  142.6550 C   0  0  0  0  0  2  0  0  0  0  0  0
  181.6200  178.7220  142.7040 C   0  0  0  0  0  2  0  0  0  0  0  0
  187.7100  177.6070  146.4670 C   0  0  0  0  0  3  0  0  0  0  0  0
  184.6180  179.1380  144.9020 C   0  0  2  0  0  3  0  0  0  0  0  0
  186.5170  178.3090  146.3050 C   0  0  0  0  0  3  0  0  0  0  0  0
  181.3690  177.8220  137.8890 O   0  0  0  0  0  1  0  0  0  0  0  0
  183.5360  177.9420  138.9390 C   0  0  0  0  0  3  0  0  0  0  0  0
  183.7910  178.6040  143.8040 N   0  0  2  0  0  0  0  0  0  0  0  0
  188.2690  176.9240  145.3870 C   0  0  0  0  0  3  0  0  0  0  0  0
  186.4300  177.6330  143.9670 C   0  0  0  0  0  0  0  0  0  0  0  0
  188.2400  176.1650  142.9620 C   0  0  1  0  0  3  0  0  0  0  0  0
  189.3840  176.8690  142.2010 C   0  0  2  0  0  3  0  0  0  0  0  0
  189.6830  175.7580  143.1940 C   0  0  0  0  0  2  0  0  0  0  0  0
  190.9520  178.3960  143.4870 C   0  0  0  0  0  0  0  0  0  0  0  0
  189.0070  179.3460  142.2440 C   0  0  0  0  0  1  0  0  0  0  0  0
  189.7350  178.1880  142.7450 N   0  0  0  0  0  0  0  0  0  0  0  0
  191.2570  179.7210  144.1000 C   0  0  0  0  0  1  0  0  0  0  0  0
  191.7830  177.4610  143.6290 O   0  0  0  0  0  0  0  0  0  0  0  0
  1 19  1  0  0  0  0
  2  7  1  0  0  0  0
  4 12  1  0  0  0  0
  5 11  1  1  0  0  0
  5 18  1  0  0  0  0
  6  9  2  0  0  0  0
  7  4  2  0  0  0  0
  7  5  1  0  0  0  0
  9  4  1  0  0  0  0
 10 15  2  0  0  0  0
 11 20  1  0  0  0  0
 12  8  1  0  0  0  0
 14  3  1  6  0  0  0
 14 10  1  0  0  0  0
 15 13  1  0  0  0  0
 16  6  1  0  0  0  0
 17  6  1  0  0  0  0
 17  2  2  0  0  0  0
 18  8  1  6  0  0  0
 18 14  1  0  0  0  0
 19 13  2  0  0  0  0
 20  1  2  0  0  0  0
 20 10  1  0  0  0  0
 21 23  1  0  0  0  0
 21  1  1  1  0  0  0
 22 26  1  1  0  0  0
 22 21  1  0  0  0  0
 22 23  1  0  0  0  0
 24 28  2  0  0  0  0
 24 27  1  0  0  0  0
 25 26  1  0  0  0  0
 26 24  1  0  0  0  0
M  END
>  <MODEL>
1

>  <REMARK>
 VINA RESULT:      -7.3      0.000      0.000
  Name = 
  2 active torsions:
  status: ('A' for Active; 'I' for Inactive)
    1  A    between atoms: C_1  and  C_2
    2  A    between atoms: C_3  and  N_11
                            x       y       z     vdW  Elec       q    Type
                         _______ _______ _______ _____ _____    ______ ____

>  <TORSDO>
F 2

$$$$
=
 OpenBabel10272401523D

 28 32  0  0  1  0  0  0  0  0999 V2000
  189.2270  177.6930  137.5460 C   0  0  0  0  0  0  0  0  0  0  0  0
  186.3220  179.2250  141.7940 C   0  0  0  0  0  3  0  0  0  0  0  0
  191.4050  177.7770  141.5590 C   0  0  0  0  0  1  0  0  0  0  0  0
  186.9790  177.4410  143.3040 C   0  0  0  0  0  0  0  0  0  0  0  0
  188.4540  177.9600  141.2980 C   0  0  2  0  0  3  0  0  0  0  0  0
  184.9600  178.7150  143.7270 C   0  0  0  0  0  0  0  0  0  0  0  0
  187.2060  178.1870  142.1280 C   0  0  0  0  0  0  0  0  0  0  0  0
  189.2800  176.5520  143.0910 C   0  0  0  0  0  2  0  0  0  0  0  0
  185.8480  177.6980  144.0860 C   0  0  0  0  0  3  0  0  0  0  0  0
  190.3630  176.8210  139.5230 C   0  0  0  0  0  0  0  0  0  0  0  0
  188.1100  177.9450  139.8040 C   0  0  0  0  0  2  0  0  0  0  0  0
  187.9050  176.3380  143.7080 C   0  0  0  0  0  2  0  0  0  0  0  0
  191.3390  176.5000  137.3310 C   0  0  0  0  0  3  0  0  0  0  0  0
  190.4790  176.6840  141.0160 C   0  0  2  0  0  3  0  0  0  0  0  0
  191.3940  176.3320  138.7140 C   0  0  0  0  0  3  0  0  0  0  0  0
  183.8410  178.9650  144.5100 O   0  0  0  0  0  1  0  0  0  0  0  0
  185.2000  179.4820  142.5870 C   0  0  0  0  0  3  0  0  0  0  0  0
  189.1440  176.7020  141.6420 N   0  0  2  0  0  0  0  0  0  0  0  0
  190.2620  177.1700  136.7520 C   0  0  0  0  0  3  0  0  0  0  0  0
  189.2700  177.5020  138.9450 C   0  0  0  0  0  0  0  0  0  0  0  0
  188.0370  178.3860  136.9100 C   0  0  1  0  0  3  0  0  0  0  0  0
  187.1740  177.5100  135.9770 C   0  0  2  0  0  3  0  0  0  0  0  0
  186.7070  177.8340  137.3860 C   0  0  0  0  0  2  0  0  0  0  0  0
  187.1070  175.0810  136.7110 C   0  0  0  0  0  0  0  0  0  0  0  0
  188.4000  175.7480  134.6840 C   0  0  0  0  0  1  0  0  0  0  0  0
  187.6400  176.1200  135.8690 N   0  0  0  0  0  0  0  0  0  0  0  0
  187.6450  173.6910  136.6460 C   0  0  0  0  0  1  0  0  0  0  0  0
  186.1720  175.3270  137.5190 O   0  0  0  0  0  0  0  0  0  0  0  0
  1 20  1  0  0  0  0
  2  7  2  0  0  0  0
  2 17  1  0  0  0  0
  4 12  1  0  0  0  0
  4  9  2  0  0  0  0
  5 11  1  6  0  0  0
  5 18  1  0  0  0  0
  5  7  1  0  0  0  0
  6  9  1  0  0  0  0
  6 16  1  0  0  0  0
  7  4  1  0  0  0  0
  8 12  1  0  0  0  0
 10 14  1  0  0  0  0
 13 15  2  0  0  0  0
 14  3  1  1  0  0  0
 14 18  1  0  0  0  0
 15 10  1  0  0  0  0
 17  6  2  0  0  0  0
 18  8  1  1  0  0  0
 19 13  1  0  0  0  0
 19  1  2  0  0  0  0
 20 10  2  0  0  0  0
 20 11  1  0  0  0  0
 21 23  1  0  0  0  0
 21  1  1  1  0  0  0
 22 26  1  1  0  0  0
 22 21  1  0  0  0  0
 22 23  1  0  0  0  0
 24 28  2  0  0  0  0
 25 26  1  0  0  0  0
 26 24  1  0  0  0  0
 27 24  1  0  0  0  0
M  END
>  <MODEL>
2

>  <REMARK>
 VINA RESULT:      -6.6      4.046      6.988
  Name = 
  2 active torsions:
  status: ('A' for Active; 'I' for Inactive)
    1  A    between atoms: C_1  and  C_2
    2  A    between atoms: C_3  and  N_11
                            x       y       z     vdW  Elec       q    Type
                         _______ _______ _______ _____ _____    ______ ____

>  <TORSDO>
F 2

$$$$
=
 OpenBabel10272401523D

 28 32  0  0  1  0  0  0  0  0999 V2000
  185.2320  178.8300  140.8140 C   0  0  0  0  0  0  0  0  0  0  0  0
  189.8880  176.8710  138.9940 C   0  0  0  0  0  3  0  0  0  0  0  0
  187.5730  176.1750  143.7000 C   0  0  0  0  0  1  0  0  0  0  0  0
  191.2520  177.4110  140.9270 C   0  0  0  0  0  0  0  0  0  0  0  0
  188.7260  177.2860  141.2010 C   0  0  2  0  0  3  0  0  0  0  0  0
  192.2960  176.9760  138.7830 C   0  0  0  0  0  0  0  0  0  0  0  0
  189.9790  177.2260  140.3490 C   0  0  0  0  0  0  0  0  0  0  0  0
  190.1670  177.3320  143.1510 C   0  0  0  0  0  2  0  0  0  0  0  0
  192.4010  177.3020  140.1370 C   0  0  0  0  0  3  0  0  0  0  0  0
  186.5590  178.2400  142.7770 C   0  0  0  0  0  0  0  0  0  0  0  0
  187.6270  178.0800  140.4850 C   0  0  0  0  0  2  0  0  0  0  0  0
  191.3970  177.7720  142.3720 C   0  0  0  0  0  2  0  0  0  0  0  0
  184.3030  179.0720  143.0520 C   0  0  0  0  0  3  0  0  0  0  0  0
  187.8010  177.6590  143.3950 C   0  0  2  0  0  3  0  0  0  0  0  0
  185.4880  178.5880  143.6050 C   0  0  0  0  0  3  0  0  0  0  0  0
  193.4410  176.8690  138.0050 O   0  0  0  0  0  1  0  0  0  0  0  0
  191.0420  176.7540  138.2140 C   0  0  0  0  0  3  0  0  0  0  0  0
  188.9680  177.8920  142.5250 N   0  0  2  0  0  0  0  0  0  0  0  0
  184.1780  179.1980  141.6690 C   0  0  0  0  0  3  0  0  0  0  0  0
  186.4400  178.3610  141.3750 C   0  0  0  0  0  0  0  0  0  0  0  0
  185.1080  179.0050  139.3120 C   0  0  1  0  0  3  0  0  0  0  0  0
  183.8140  178.4500  138.6800 C   0  0  2  0  0  3  0  0  0  0  0  0
  183.9830  179.9410  138.9170 C   0  0  0  0  0  2  0  0  0  0  0  0
  181.6810  178.5240  140.0540 C   0  0  0  0  0  0  0  0  0  0  0  0
  183.0390  176.4330  139.9490 C   0  0  0  0  0  1  0  0  0  0  0  0
  182.8890  177.8510  139.6520 N   0  0  0  0  0  0  0  0  0  0  0  0
  180.7910  177.9400  141.0990 C   0  0  0  0  0  1  0  0  0  0  0  0
  181.3510  179.6190  139.5260 O   0  0  0  0  0  0  0  0  0  0  0  0
  1 20  2  0  0  0  0
  1 19  1  0  0  0  0
  2  7  1  0  0  0  0
  4 12  1  0  0  0  0
  5 11  1  6  0  0  0
  5 18  1  0  0  0  0
  6  9  2  0  0  0  0
  7  4  2  0  0  0  0
  7  5  1  0  0  0  0
  9  4  1  0  0  0  0
 10 14  1  0  0  0  0
 10 15  2  0  0  0  0
 11 20  1  0  0  0  0
 12  8  1  0  0  0  0
 13 15  1  0  0  0  0
 14  3  1  6  0  0  0
 16  6  1  0  0  0  0
 17  6  1  0  0  0  0
 17  2  2  0  0  0  0
 18  8  1  1  0  0  0
 18 14  1  0  0  0  0
 19 13  2  0  0  0  0
 20 10  1  0  0  0  0
 21  1  1  1  0  0  0
 22 23  1  0  0  0  0
 22 21  1  0  0  0  0
 22 26  1  1  0  0  0
 23 21  1  0  0  0  0
 24 27  1  0  0  0  0
 26 25  1  0  0  0  0
 26 24  1  0  0  0  0
 28 24  2  0  0  0  0
M  END
>  <MODEL>
3

>  <REMARK>
 VINA RESULT:      -6.3      2.442      7.436
  Name = 
  2 active torsions:
  status: ('A' for Active; 'I' for Inactive)
    1  A    between atoms: C_1  and  C_2
    2  A    between atoms: C_3  and  N_11
                            x       y       z     vdW  Elec       q    Type
                         _______ _______ _______ _____ _____    ______ ____

>  <TORSDO>
F 2

$$$$
=
 OpenBabel10272401523D

 28 32  0  0  1  0  0  0  0  0999 V2000
  186.9980  178.3250  139.0430 C   0  0  0  0  0  0  0  0  0  0  0  0
  187.1360  177.4090  144.3310 C   0  0  0  0  0  3  0  0  0  0  0  0
  183.0160  177.2740  141.0150 C   0  0  0  0  0  1  0  0  0  0  0  0
  185.2380  178.7880  144.9550 C   0  0  0  0  0  0  0  0  0  0  0  0
  185.4520  178.0080  142.5430 C   0  0  2  0  0  3  0  0  0  0  0  0
  186.8810  178.1510  146.6200 C   0  0  0  0  0  0  0  0  0  0  0  0
  185.9720  178.1030  143.9640 C   0  0  0  0  0  0  0  0  0  0  0  0
  183.3680  178.9580  143.3410 C   0  0  0  0  0  2  0  0  0  0  0  0
  185.7060  178.8220  146.2730 C   0  0  0  0  0  3  0  0  0  0  0  0
  184.7250  178.6560  139.8700 C   0  0  0  0  0  0  0  0  0  0  0  0
  186.5870  178.2430  141.5390 C   0  0  0  0  0  2  0  0  0  0  0  0
  183.9820  179.5260  144.6120 C   0  0  0  0  0  2  0  0  0  0  0  0
  185.1850  178.8400  137.5010 C   0  0  0  0  0  3  0  0  0  0  0  0
  183.7200  178.6340  140.9880 C   0  0  2  0  0  3  0  0  0  0  0  0
  184.2820  178.8740  138.5620 C   0  0  0  0  0  3  0  0  0  0  0  0
  187.3380  178.1890  147.9300 O   0  0  0  0  0  1  0  0  0  0  0  0
  187.5910  177.4400  145.6520 C   0  0  0  0  0  3  0  0  0  0  0  0
  184.3660  178.9700  142.2710 N   0  0  2  0  0  0  0  0  0  0  0  0
  186.5330  178.5730  137.7400 C   0  0  0  0  0  3  0  0  0  0  0  0
  186.0880  178.3830  140.1210 C   0  0  0  0  0  0  0  0  0  0  0  0
  188.4720  178.0740  139.3040 C   0  0  1  0  0  3  0  0  0  0  0  0
  189.1670  177.1020  138.3270 C   0  0  2  0  0  3  0  0  0  0  0  0
  189.3670  178.6040  138.2010 C   0  0  0  0  0  2  0  0  0  0  0  0
  188.4230  177.0010  135.9020 C   0  0  0  0  0  0  0  0  0  0  0  0
  187.4830  175.4050  137.5750 C   0  0  0  0  0  1  0  0  0  0  0  0
  188.2820  176.5860  137.2740 N   0  0  0  0  0  0  0  0  0  0  0  0
  187.4680  176.5290  134.8570 C   0  0  0  0  0  1  0  0  0  0  0  0
  189.3590  177.7700  135.5580 O   0  0  0  0  0  0  0  0  0  0  0  0
  1 20  1  0  0  0  0
  2 17  1  0  0  0  0
  4  9  2  0  0  0  0
  5 11  1  6  0  0  0
  5  7  1  0  0  0  0
  6 16  1  0  0  0  0
  7  2  2  0  0  0  0
  7  4  1  0  0  0  0
  8 12  1  0  0  0  0
  9  6  1  0  0  0  0
 10 20  2  0  0  0  0
 10 14  1  0  0  0  0
 12  4  1  0  0  0  0
 13 19  1  0  0  0  0
 13 15  2  0  0  0  0
 14  3  1  1  0  0  0
 14 18  1  0  0  0  0
 15 10  1  0  0  0  0
 17  6  2  0  0  0  0
 18  5  1  0  0  0  0
 18  8  1  1  0  0  0
 19  1  2  0  0  0  0
 20 11  1  0  0  0  0
 21  1  1  6  0  0  0
 22 26  1  6  0  0  0
 22 21  1  0  0  0  0
 23 22  1  0  0  0  0
 23 21  1  0  0  0  0
 24 26  1  0  0  0  0
 26 25  1  0  0  0  0
 27 24  1  0  0  0  0
 28 24  2  0  0  0  0
M  END
>  <MODEL>
4

>  <REMARK>
 VINA RESULT:      -6.2      3.378      6.356
  Name = 
  2 active torsions:
  status: ('A' for Active; 'I' for Inactive)
    1  A    between atoms: C_1  and  C_2
    2  A    between atoms: C_3  and  N_11
                            x       y       z     vdW  Elec       q    Type
                         _______ _______ _______ _____ _____    ______ ____

>  <TORSDO>
F 2

$$$$
=
 OpenBabel10272401523D

 28 32  0  0  1  0  0  0  0  0999 V2000
  184.9430  177.7430  137.2690 C   0  0  0  0  0  0  0  0  0  0  0  0
  185.2460  177.9840  142.6240 C   0  0  0  0  0  3  0  0  0  0  0  0
  181.3940  176.0250  139.5720 C   0  0  0  0  0  1  0  0  0  0  0  0
  183.0230  178.8640  143.0420 C   0  0  0  0  0  0  0  0  0  0  0  0
  183.4920  177.7100  140.8240 C   0  0  2  0  0  3  0  0  0  0  0  0
  184.7500  179.0670  144.7300 C   0  0  0  0  0  0  0  0  0  0  0  0
  183.9390  178.2310  142.1750 C   0  0  0  0  0  0  0  0  0  0  0  0
  181.2100  178.1700  141.5050 C   0  0  0  0  0  2  0  0  0  0  0  0
  183.4390  179.2930  144.3070 C   0  0  0  0  0  3  0  0  0  0  0  0
  182.6560  177.5760  138.1090 C   0  0  0  0  0  0  0  0  0  0  0  0
  184.5290  178.0510  139.7480 C   0  0  0  0  0  2  0  0  0  0  0  0
  181.6150  179.1310  142.6120 C   0  0  0  0  0  2  0  0  0  0  0  0
  183.0840  177.4030  135.7320 C   0  0  0  0  0  3  0  0  0  0  0  0
  181.6800  177.4950  139.2490 C   0  0  2  0  0  3  0  0  0  0  0  0
  182.1910  177.3930  136.8030 C   0  0  0  0  0  3  0  0  0  0  0  0
  185.1560  179.4940  145.9870 O   0  0  0  0  0  1  0  0  0  0  0  0
  185.6510  178.4070  143.8930 C   0  0  0  0  0  3  0  0  0  0  0  0
  182.1810  178.2500  140.4130 N   0  0  2  0  0  0  0  0  0  0  0  0
  184.4480  177.5830  135.9630 C   0  0  0  0  0  3  0  0  0  0  0  0
  184.0350  177.7560  138.3510 C   0  0  0  0  0  0  0  0  0  0  0  0
  186.4210  177.9780  137.5140 C   0  0  1  0  0  3  0  0  0  0  0  0
  187.3610  176.8350  137.0720 C   0  0  2  0  0  3  0  0  0  0  0  0
  187.2220  178.0940  136.2310 C   0  0  0  0  0  2  0  0  0  0  0  0
  186.8350  175.3700  135.0670 C   0  0  0  0  0  0  0  0  0  0  0  0
  186.0590  174.7120  137.3450 C   0  0  0  0  0  1  0  0  0  0  0  0
  186.6620  175.6970  136.4580 N   0  0  0  0  0  0  0  0  0  0  0  0
  186.0600  174.2610  134.4390 C   0  0  0  0  0  1  0  0  0  0  0  0
  187.6480  176.0150  134.3530 O   0  0  0  0  0  0  0  0  0  0  0  0
  1 20  1  0  0  0  0
  2 17  1  0  0  0  0
  4  9  2  0  0  0  0
  5 11  1  6  0  0  0
  5  7  1  0  0  0  0
  6 16  1  0  0  0  0
  7  2  2  0  0  0  0
  7  4  1  0  0  0  0
  8 12  1  0  0  0  0
  9  6  1  0  0  0  0
 10 20  2  0  0  0  0
 10 14  1  0  0  0  0
 12  4  1  0  0  0  0
 13 19  1  0  0  0  0
 13 15  2  0  0  0  0
 14  3  1  1  0  0  0
 14 18  1  0  0  0  0
 15 10  1  0  0  0  0
 17  6  2  0  0  0  0
 18  5  1  0  0  0  0
 18  8  1  1  0  0  0
 19  1  2  0  0  0  0
 20 11  1  0  0  0  0
 21  1  1  6  0  0  0
 22 26  1  6  0  0  0
 22 21  1  0  0  0  0
 23 22  1  0  0  0  0
 23 21  1  0  0  0  0
 24 26  1  0  0  0  0
 26 25  1  0  0  0  0
 27 24  1  0  0  0  0
 28 24  2  0  0  0  0
M  END
>  <MODEL>
5

>  <REMARK>
 VINA RESULT:      -6.1      3.613      7.112
  Name = 
  2 active torsions:
  status: ('A' for Active; 'I' for Inactive)
    1  A    between atoms: C_1  and  C_2
    2  A    between atoms: C_3  and  N_11
                            x       y       z     vdW  Elec       q    Type
                         _______ _______ _______ _____ _____    ______ ____

>  <TORSDO>
F 2

$$$$
=
 OpenBabel10272401523D

 28 32  0  0  1  0  0  0  0  0999 V2000
  190.7440  177.0290  138.9960 C   0  0  0  0  0  0  0  0  0  0  0  0
  191.6240  175.2500  143.9850 C   0  0  0  0  0  3  0  0  0  0  0  0
  187.2320  177.3360  141.8980 C   0  0  0  0  0  1  0  0  0  0  0  0
  190.6880  177.1440  145.1810 C   0  0  0  0  0  0  0  0  0  0  0  0
  190.0150  176.7660  142.7560 C   0  0  2  0  0  3  0  0  0  0  0  0
  192.2180  175.6320  146.2990 C   0  0  0  0  0  0  0  0  0  0  0  0
  190.8220  176.4020  143.9870 C   0  0  0  0  0  0  0  0  0  0  0  0
  188.7700  178.3170  144.1430 C   0  0  0  0  0  2  0  0  0  0  0  0
  191.4000  176.7650  146.3230 C   0  0  0  0  0  3  0  0  0  0  0  0
  189.0740  178.0940  140.4240 C   0  0  0  0  0  0  0  0  0  0  0  0
  190.8920  176.6960  141.5010 C   0  0  0  0  0  2  0  0  0  0  0  0
  189.8290  178.3680  145.2340 C   0  0  0  0  0  2  0  0  0  0  0  0
  189.0390  178.4780  138.0340 C   0  0  0  0  0  3  0  0  0  0  0  0
  188.4270  178.2850  141.7670 C   0  0  2  0  0  3  0  0  0  0  0  0
  188.4940  178.6890  139.3000 C   0  0  0  0  0  3  0  0  0  0  0  0
  192.9200  175.2610  147.4370 O   0  0  0  0  0  1  0  0  0  0  0  0
  192.3240  174.8720  145.1330 C   0  0  0  0  0  3  0  0  0  0  0  0
  189.4170  178.1120  142.8470 N   0  0  2  0  0  0  0  0  0  0  0  0
  190.1580  177.6600  137.8840 C   0  0  0  0  0  3  0  0  0  0  0  0
  190.2050  177.2610  140.2800 C   0  0  0  0  0  0  0  0  0  0  0  0
  191.9840  176.1710  138.8350 C   0  0  1  0  0  3  0  0  0  0  0  0
  191.9320  175.1280  137.6970 C   0  0  2  0  0  3  0  0  0  0  0  0
  192.7120  176.4220  137.5280 C   0  0  0  0  0  2  0  0  0  0  0  0
  190.6360  175.6270  135.5720 C   0  0  0  0  0  0  0  0  0  0  0  0
  189.5550  174.3770  137.4420 C   0  0  0  0  0  1  0  0  0  0  0  0
  190.6790  175.1500  136.9300 N   0  0  0  0  0  0  0  0  0  0  0  0
  189.3430  175.7170  134.8330 C   0  0  0  0  0  1  0  0  0  0  0  0
  191.6930  175.9770  134.9820 O   0  0  0  0  0  0  0  0  0  0  0  0
  1 20  1  0  0  0  0
  2  7  2  0  0  0  0
  2 17  1  0  0  0  0
  4 12  1  0  0  0  0
  4  9  2  0  0  0  0
  5 11  1  6  0  0  0
  5 18  1  0  0  0  0
  5  7  1  0  0  0  0
  6  9  1  0  0  0  0
  6 16  1  0  0  0  0
  7  4  1  0  0  0  0
  8 12  1  0  0  0  0
 10 14  1  0  0  0  0
 13 15  2  0  0  0  0
 14  3  1  1  0  0  0
 14 18  1  0  0  0  0
 15 10  1  0  0  0  0
 17  6  2  0  0  0  0
 18  8  1  1  0  0  0
 19 13  1  0  0  0  0
 19  1  2  0  0  0  0
 20 10  2  0  0  0  0
 20 11  1  0  0  0  0
 21  1  1  6  0  0  0
 22 26  1  6  0  0  0
 22 21  1  0  0  0  0
 23 22  1  0  0  0  0
 23 21  1  0  0  0  0
 24 26  1  0  0  0  0
 26 25  1  0  0  0  0
 27 24  1  0  0  0  0
 28 24  2  0  0  0  0
M  END
>  <MODEL>
6

>  <REMARK>
 VINA RESULT:      -5.6      4.180      8.161
  Name = 
  2 active torsions:
  status: ('A' for Active; 'I' for Inactive)
    1  A    between atoms: C_1  and  C_2
    2  A    between atoms: C_3  and  N_11
                            x       y       z     vdW  Elec       q    Type
                         _______ _______ _______ _____ _____    ______ ____

>  <TORSDO>
F 2

$$$$
=
 OpenBabel10272401523D

 28 32  0  0  1  0  0  0  0  0999 V2000
  189.0420  176.7880  143.3050 C   0  0  0  0  0  0  0  0  0  0  0  0
  188.6570  178.2830  138.1620 C   0  0  0  0  0  3  0  0  0  0  0  0
  185.8930  179.9550  142.3530 C   0  0  0  0  0  1  0  0  0  0  0  0
  186.2430  178.1390  137.9560 C   0  0  0  0  0  0  0  0  0  0  0  0
  187.2690  178.3430  140.2750 C   0  0  2  0  0  3  0  0  0  0  0  0
  187.6390  178.1120  135.9740 C   0  0  0  0  0  0  0  0  0  0  0  0
  187.3930  178.2130  138.7690 C   0  0  0  0  0  0  0  0  0  0  0  0
  184.8890  178.6830  139.9560 C   0  0  0  0  0  2  0  0  0  0  0  0
  186.3730  178.0710  136.5650 C   0  0  0  0  0  3  0  0  0  0  0  0
  186.8180  177.7550  143.0210 C   0  0  0  0  0  0  0  0  0  0  0  0
  188.2810  177.4300  140.9770 C   0  0  0  0  0  2  0  0  0  0  0  0
  184.8750  178.0800  138.5590 C   0  0  0  0  0  2  0  0  0  0  0  0
  187.5440  177.0200  145.2110 C   0  0  0  0  0  3  0  0  0  0  0  0
  185.7830  178.4380  142.1700 C   0  0  2  0  0  3  0  0  0  0  0  0
  186.5760  177.5960  144.3890 C   0  0  0  0  0  3  0  0  0  0  0  0
  187.7610  178.0460  134.5930 O   0  0  0  0  0  1  0  0  0  0  0  0
  188.7780  178.2260  136.7710 C   0  0  0  0  0  3  0  0  0  0  0  0
  185.9140  178.0190  140.7620 N   0  0  2  0  0  0  0  0  0  0  0  0
  188.7640  176.6140  144.6720 C   0  0  0  0  0  3  0  0  0  0  0  0
  188.0530  177.3490  142.4680 C   0  0  0  0  0  0  0  0  0  0  0  0
  190.3550  176.3100  142.7140 C   0  0  1  0  0  3  0  0  0  0  0  0
  191.6180  176.6410  143.5380 C   0  0  2  0  0  3  0  0  0  0  0  0
  191.0270  175.2410  143.5550 C   0  0  0  0  0  2  0  0  0  0  0  0
  191.5610  176.7470  146.0740 C   0  0  0  0  0  0  0  0  0  0  0  0
  191.1500  178.8020  144.7180 C   0  0  0  0  0  1  0  0  0  0  0  0
  191.3380  177.3590  144.7890 N   0  0  0  0  0  0  0  0  0  0  0  0
  191.1990  177.4590  147.3340 C   0  0  0  0  0  1  0  0  0  0  0  0
  192.0710  175.5980  146.1560 O   0  0  0  0  0  0  0  0  0  0  0  0
  1 19  1  0  0  0  0
  2  7  1  0  0  0  0
  4 12  1  0  0  0  0
  4  7  2  0  0  0  0
  5 18  1  0  0  0  0
  5 11  1  1  0  0  0
  6  9  2  0  0  0  0
  6 17  1  0  0  0  0
  7  5  1  0  0  0  0
  9  4  1  0  0  0  0
 10 15  2  0  0  0  0
 11 20  1  0  0  0  0
 12  8  1  0  0  0  0
 14  3  1  6  0  0  0
 14 10  1  0  0  0  0
 15 13  1  0  0  0  0
 16  6  1  0  0  0  0
 17  2  2  0  0  0  0
 18  8  1  6  0  0  0
 18 14  1  0  0  0  0
 19 13  2  0  0  0  0
 20 10  1  0  0  0  0
 20  1  2  0  0  0  0
 21  1  1  1  0  0  0
 21 22  1  0  0  0  0
 21 23  1  0  0  0  0
 22 23  1  0  0  0  0
 22 26  1  1  0  0  0
 24 28  2  0  0  0  0
 24 27  1  0  0  0  0
 25 26  1  0  0  0  0
 26 24  1  0  0  0  0
M  END
>  <MODEL>
7

>  <REMARK>
 VINA RESULT:      -5.6      2.957      3.865
  Name = 
  2 active torsions:
  status: ('A' for Active; 'I' for Inactive)
    1  A    between atoms: C_1  and  C_2
    2  A    between atoms: C_3  and  N_11
                            x       y       z     vdW  Elec       q    Type
                         _______ _______ _______ _____ _____    ______ ____

>  <TORSDO>
F 2

$$$$
=
 OpenBabel10272401523D

 28 32  0  0  1  0  0  0  0  0999 V2000
  191.1800  176.4190  136.6380 C   0  0  0  0  0  0  0  0  0  0  0  0
  190.3990  176.0370  141.9360 C   0  0  0  0  0  3  0  0  0  0  0  0
  186.8600  176.7830  138.0750 C   0  0  0  0  0  1  0  0  0  0  0  0
  188.9490  177.9660  142.1970 C   0  0  0  0  0  0  0  0  0  0  0  0
  189.2030  176.9210  139.8910 C   0  0  2  0  0  3  0  0  0  0  0  0
  190.1090  177.0470  144.1160 C   0  0  0  0  0  0  0  0  0  0  0  0
  189.5540  177.0010  141.3640 C   0  0  0  0  0  0  0  0  0  0  0  0
  187.4260  178.5140  140.3230 C   0  0  0  0  0  2  0  0  0  0  0  0
  189.2440  177.9940  143.5640 C   0  0  0  0  0  3  0  0  0  0  0  0
  189.0330  177.4830  137.1080 C   0  0  0  0  0  0  0  0  0  0  0  0
  190.4670  176.7120  139.0500 C   0  0  0  0  0  2  0  0  0  0  0  0
  188.0270  179.0010  141.6330 C   0  0  0  0  0  2  0  0  0  0  0  0
  189.8060  177.2850  134.8230 C   0  0  0  0  0  3  0  0  0  0  0  0
  187.9420  177.8680  138.0690 C   0  0  2  0  0  3  0  0  0  0  0  0
  188.8360  177.6890  135.7390 C   0  0  0  0  0  3  0  0  0  0  0  0
  190.3970  177.0790  145.4740 O   0  0  0  0  0  1  0  0  0  0  0  0
  190.6800  176.0650  143.3050 C   0  0  0  0  0  3  0  0  0  0  0  0
  188.5010  178.1260  139.4090 N   0  0  2  0  0  0  0  0  0  0  0  0
  190.9710  176.6610  135.2690 C   0  0  0  0  0  3  0  0  0  0  0  0
  190.2080  176.8480  137.5680 C   0  0  0  0  0  0  0  0  0  0  0  0
  192.4650  175.7750  137.1240 C   0  0  1  0  0  3  0  0  0  0  0  0
  192.5530  174.2440  136.9440 C   0  0  2  0  0  3  0  0  0  0  0  0
  193.2890  175.1790  135.9990 C   0  0  0  0  0  2  0  0  0  0  0  0
  191.4620  172.9640  135.0440 C   0  0  0  0  0  0  0  0  0  0  0  0
  190.1730  173.4810  137.1170 C   0  0  0  0  0  1  0  0  0  0  0  0
  191.3700  173.6520  136.3050 N   0  0  0  0  0  0  0  0  0  0  0  0
  190.2410  172.4370  134.3690 C   0  0  0  0  0  1  0  0  0  0  0  0
  192.5790  172.7920  134.4870 O   0  0  0  0  0  0  0  0  0  0  0  0
  1 20  1  0  0  0  0
  2 17  1  0  0  0  0
  4  9  2  0  0  0  0
  5 11  1  6  0  0  0
  5  7  1  0  0  0  0
  6 16  1  0  0  0  0
  7  2  2  0  0  0  0
  7  4  1  0  0  0  0
  8 12  1  0  0  0  0
  9  6  1  0  0  0  0
 10 20  2  0  0  0  0
 10 14  1  0  0  0  0
 12  4  1  0  0  0  0
 13 19  1  0  0  0  0
 13 15  2  0  0  0  0
 14  3  1  1  0  0  0
 14 18  1  0  0  0  0
 15 10  1  0  0  0  0
 17  6  2  0  0  0  0
 18  5  1  0  0  0  0
 18  8  1  1  0  0  0
 19  1  2  0  0  0  0
 20 11  1  0  0  0  0
 21  1  1  6  0  0  0
 22 26  1  6  0  0  0
 22 21  1  0  0  0  0
 23 22  1  0  0  0  0
 23 21  1  0  0  0  0
 24 26  1  0  0  0  0
 26 25  1  0  0  0  0
 27 24  1  0  0  0  0
 28 24  2  0  0  0  0
M  END
>  <MODEL>
8

>  <REMARK>
 VINA RESULT:      -5.5      5.375      8.491
  Name = 
  2 active torsions:
  status: ('A' for Active; 'I' for Inactive)
    1  A    between atoms: C_1  and  C_2
    2  A    between atoms: C_3  and  N_11
                            x       y       z     vdW  Elec       q    Type
                         _______ _______ _______ _____ _____    ______ ____

>  <TORSDO>
F 2

$$$$
=
 OpenBabel10272401523D

 28 32  0  0  1  0  0  0  0  0999 V2000
  185.2310  178.5730  138.3190 C   0  0  0  0  0  0  0  0  0  0  0  0
  185.0960  179.3340  143.6330 C   0  0  0  0  0  3  0  0  0  0  0  0
  189.2750  178.8570  140.4220 C   0  0  0  0  0  1  0  0  0  0  0  0
  186.7090  177.6290  144.2520 C   0  0  0  0  0  0  0  0  0  0  0  0
  186.7040  178.5080  141.8640 C   0  0  2  0  0  3  0  0  0  0  0  0
  185.1510  178.4870  145.8980 C   0  0  0  0  0  0  0  0  0  0  0  0
  186.1330  178.4610  143.2680 C   0  0  0  0  0  0  0  0  0  0  0  0
  188.5690  177.1880  142.6780 C   0  0  0  0  0  2  0  0  0  0  0  0
  186.2030  177.6340  145.5560 C   0  0  0  0  0  3  0  0  0  0  0  0
  187.3870  177.8270  139.1890 C   0  0  0  0  0  0  0  0  0  0  0  0
  185.5760  178.5040  140.8260 C   0  0  0  0  0  2  0  0  0  0  0  0
  187.8280  176.6950  143.9120 C   0  0  0  0  0  2  0  0  0  0  0  0
  186.9730  177.8000  136.8030 C   0  0  0  0  0  3  0  0  0  0  0  0
  188.3480  177.6400  140.3300 C   0  0  2  0  0  3  0  0  0  0  0  0
  187.8250  177.5770  137.8850 C   0  0  0  0  0  3  0  0  0  0  0  0
  184.6550  178.4890  147.1950 O   0  0  0  0  0  1  0  0  0  0  0  0
  184.6030  179.3410  144.9400 C   0  0  0  0  0  3  0  0  0  0  0  0
  187.6160  177.3820  141.5840 N   0  0  2  0  0  0  0  0  0  0  0  0
  185.6850  178.2890  137.0200 C   0  0  0  0  0  3  0  0  0  0  0  0
  186.0850  178.3250  139.4160 C   0  0  0  0  0  0  0  0  0  0  0  0
  183.8160  179.0670  138.5540 C   0  0  1  0  0  3  0  0  0  0  0  0
  182.6910  178.1150  138.0940 C   0  0  2  0  0  3  0  0  0  0  0  0
  183.0570  178.2280  139.5650 C   0  0  0  0  0  2  0  0  0  0  0  0
  183.2580  175.6480  138.2920 C   0  0  0  0  0  0  0  0  0  0  0  0
  183.2680  176.7680  136.0610 C   0  0  0  0  0  1  0  0  0  0  0  0
  183.1800  176.8570  137.5130 N   0  0  0  0  0  0  0  0  0  0  0  0
  183.8300  174.3990  137.7110 C   0  0  0  0  0  1  0  0  0  0  0  0
  182.8420  175.6240  139.4800 O   0  0  0  0  0  0  0  0  0  0  0  0
  1 20  1  0  0  0  0
  2 17  1  0  0  0  0
  4  9  2  0  0  0  0
  5 11  1  6  0  0  0
  5  7  1  0  0  0  0
  6 16  1  0  0  0  0
  7  2  2  0  0  0  0
  7  4  1  0  0  0  0
  8 12  1  0  0  0  0
  9  6  1  0  0  0  0
 10 20  2  0  0  0  0
 10 14  1  0  0  0  0
 12  4  1  0  0  0  0
 13 19  1  0  0  0  0
 13 15  2  0  0  0  0
 14  3  1  1  0  0  0
 14 18  1  0  0  0  0
 15 10  1  0  0  0  0
 17  6  2  0  0  0  0
 18  5  1  0  0  0  0
 18  8  1  1  0  0  0
 19  1  2  0  0  0  0
 20 11  1  0  0  0  0
 21  1  1  6  0  0  0
 21 23  1  0  0  0  0
 22 26  1  6  0  0  0
 22 21  1  0  0  0  0
 22 23  1  0  0  0  0
 24 28  2  0  0  0  0
 25 26  1  0  0  0  0
 26 24  1  0  0  0  0
 27 24  1  0  0  0  0
M  END
>  <MODEL>
9

>  <REMARK>
 VINA RESULT:      -5.3      2.907      7.265
  Name = 
  2 active torsions:
  status: ('A' for Active; 'I' for Inactive)
    1  A    between atoms: C_1  and  C_2
    2  A    between atoms: C_3  and  N_11
                            x       y       z     vdW  Elec       q    Type
                         _______ _______ _______ _____ _____    ______ ____

>  <TORSDO>
F 2

$$$$
