=
 OpenBabel10272401443D

 28 32  0  0  1  0  0  0  0  0999 V2000
  189.8060  177.0990  139.2260 C   0  0  1  0  0  3  0  0  0  0  0  0
  194.6050  174.5740  138.0960 C   0  0  0  0  0  3  0  0  0  0  0  0
  189.5180  173.5290  136.6850 C   0  0  0  0  0  1  0  0  0  0  0  0
  194.2690  175.2510  135.7850 C   0  0  0  0  0  0  0  0  0  0  0  0
  192.2520  174.8190  137.2830 C   0  0  1  0  0  3  0  0  0  0  0  0
  196.5120  175.0400  136.6830 C   0  0  0  0  0  0  0  0  0  0  0  0
  193.7360  174.8620  137.0360 C   0  0  0  0  0  0  0  0  0  0  0  0
  191.9400  175.7500  134.9520 C   0  0  0  0  0  2  0  0  0  0  0  0
  195.6550  175.3260  135.6170 C   0  0  0  0  0  3  0  0  0  0  0  0
  189.5470  175.8850  137.0430 C   0  0  2  0  0  3  0  0  0  0  0  0
  191.8230  176.0410  138.0790 C   0  0  0  0  0  2  0  0  0  0  0  0
  193.3920  175.4640  134.5820 C   0  0  0  0  0  2  0  0  0  0  0  0
  188.9470  178.1880  137.1620 C   0  0  0  0  0  2  0  0  0  0  0  0
  189.9920  174.7980  136.1510 N   0  0  0  0  0  0  0  0  0  0  0  0
  189.6040  177.1720  136.3420 N   0  0  0  0  0  2  0  0  0  0  0  0
  197.8860  175.1270  136.5090 O   0  0  0  0  0  1  0  0  0  0  0  0
  195.9880  174.6610  137.9200 C   0  0  0  0  0  3  0  0  0  0  0  0
  191.4530  174.7190  135.9660 C   0  0  2  0  0  3  0  0  0  0  0  0
  189.7320  178.4130  138.4510 C   0  0  0  0  0  2  0  0  0  0  0  0
  190.3340  175.9370  138.3710 C   0  0  1  0  0  3  0  0  0  0  0  0
  190.4530  177.2290  140.6090 C   0  0  0  0  0  2  0  0  0  0  0  0
  189.4670  177.2830  141.6840 N   0  0  0  0  0  0  0  0  0  0  0  0
  188.1950  176.5380  143.5870 C   0  0  1  0  0  3  0  0  0  0  0  0
  188.2440  178.0560  141.6280 C   0  0  0  0  0  3  0  0  0  0  0  0
  190.3000  175.5100  142.9840 O   0  0  0  0  0  0  0  0  0  0  0  0
  189.4120  176.3790  142.7660 C   0  0  0  0  0  0  0  0  0  0  0  0
  188.5640  176.9920  144.9860 C   0  0  0  0  0  1  0  0  0  0  0  0
  187.4380  177.6640  142.8760 C   0  0  0  0  0  3  0  0  0  0  0  0
  1 21  1  1  0  0  0
  4  7  1  0  0  0  0
  5 11  1  6  0  0  0
  6 17  2  0  0  0  0
  7  5  1  0  0  0  0
  7  2  2  0  0  0  0
  9  4  2  0  0  0  0
  9  6  1  0  0  0  0
 10 15  1  6  0  0  0
 10 20  1  0  0  0  0
 12  8  1  0  0  0  0
 12  4  1  0  0  0  0
 13 19  1  0  0  0  0
 14  3  1  0  0  0  0
 14 10  1  0  0  0  0
 15 13  1  0  0  0  0
 16  6  1  0  0  0  0
 17  2  1  0  0  0  0
 18  8  1  6  0  0  0
 18 14  1  0  0  0  0
 18  5  1  0  0  0  0
 19  1  1  0  0  0  0
 20 11  1  6  0  0  0
 20  1  1  0  0  0  0
 21 22  1  0  0  0  0
 22 26  1  0  0  0  0
 23 27  1  1  0  0  0
 24 22  1  0  0  0  0
 24 28  2  0  0  0  0
 26 25  2  0  0  0  0
 26 23  1  0  0  0  0
 28 23  1  0  0  0  0
M  END
>  <MODEL>
1

>  <REMARK>
 VINA RESULT:      -7.4      0.000      0.000
  Name = 
  2 active torsions:
  status: ('A' for Active; 'I' for Inactive)
    1  A    between atoms: C_1  and  C_2
    2  A    between atoms: C_2  and  N_3
                            x       y       z     vdW  Elec       q    Type
                         _______ _______ _______ _____ _____    ______ ____

>  <TORSDO>
F 2

$$$$
=
 OpenBabel10272401443D

 28 32  0  0  1  0  0  0  0  0999 V2000
  183.6630  176.4140  137.7230 C   0  0  1  0  0  3  0  0  0  0  0  0
  184.6890  179.0490  142.4860 C   0  0  0  0  0  3  0  0  0  0  0  0
  181.8410  180.3900  138.1220 C   0  0  0  0  0  1  0  0  0  0  0  0
  182.3210  178.8070  142.9810 C   0  0  0  0  0  0  0  0  0  0  0  0
  183.0960  178.9820  140.5590 C   0  0  1  0  0  3  0  0  0  0  0  0
  183.9490  178.8260  144.7780 C   0  0  0  0  0  0  0  0  0  0  0  0
  183.3650  178.9680  142.0400 C   0  0  0  0  0  0  0  0  0  0  0  0
  180.6730  178.4930  141.0960 C   0  0  0  0  0  2  0  0  0  0  0  0
  182.6230  178.7490  144.3450 C   0  0  0  0  0  3  0  0  0  0  0  0
  181.7700  178.0080  138.1500 C   0  0  2  0  0  3  0  0  0  0  0  0
  183.4730  177.6400  139.9500 C   0  0  0  0  0  2  0  0  0  0  0  0
  180.8750  178.8260  142.5710 C   0  0  0  0  0  2  0  0  0  0  0  0
  181.2730  175.7290  137.6640 C   0  0  0  0  0  2  0  0  0  0  0  0
  181.2860  179.2330  138.8120 N   0  0  0  0  0  0  0  0  0  0  0  0
  180.9170  176.8690  138.5050 N   0  0  0  0  0  2  0  0  0  0  0  0
  184.2410  178.7570  146.1340 O   0  0  0  0  0  1  0  0  0  0  0  0
  184.9810  178.9800  143.8500 C   0  0  0  0  0  3  0  0  0  0  0  0
  181.6260  179.3280  140.2440 C   0  0  2  0  0  3  0  0  0  0  0  0
  182.6920  175.2640  137.9810 C   0  0  0  0  0  2  0  0  0  0  0  0
  183.2550  177.7070  138.4470 C   0  0  1  0  0  3  0  0  0  0  0  0
  185.1390  176.0280  137.8730 C   0  0  0  0  0  2  0  0  0  0  0  0
  186.0250  176.9020  137.1120 N   0  0  0  0  0  0  0  0  0  0  0  0
  187.3700  178.8360  136.6180 C   0  0  1  0  0  3  0  0  0  0  0  0
  186.0760  176.9490  135.6660 C   0  0  0  0  0  3  0  0  0  0  0  0
  186.7380  178.2730  138.8840 O   0  0  0  0  0  0  0  0  0  0  0  0
  186.7140  178.0090  137.6510 C   0  0  0  0  0  0  0  0  0  0  0  0
  188.8760  178.7920  136.7930 C   0  0  0  0  0  1  0  0  0  0  0  0
  186.9940  178.1290  135.3130 C   0  0  0  0  0  3  0  0  0  0  0  0
  1 21  1  1  0  0  0
  1 19  1  0  0  0  0
  1 20  1  0  0  0  0
  2 17  1  0  0  0  0
  3 14  1  0  0  0  0
  4  9  2  0  0  0  0
  5 11  1  1  0  0  0
  5  7  1  0  0  0  0
  6 16  1  0  0  0  0
  7  2  2  0  0  0  0
  7  4  1  0  0  0  0
  8 12  1  0  0  0  0
  9  6  1  0  0  0  0
 10 20  1  0  0  0  0
 10 15  1  1  0  0  0
 10 14  1  0  0  0  0
 12  4  1  0  0  0  0
 13 19  1  0  0  0  0
 13 15  1  0  0  0  0
 14 18  1  0  0  0  0
 17  6  2  0  0  0  0
 18  5  1  0  0  0  0
 18  8  1  1  0  0  0
 20 11  1  1  0  0  0
 22 26  1  0  0  0  0
 22 21  1  0  0  0  0
 23 27  1  1  0  0  0
 23 26  1  0  0  0  0
 24 22  1  0  0  0  0
 26 25  2  0  0  0  0
 28 24  2  0  0  0  0
 28 23  1  0  0  0  0
M  END
>  <MODEL>
2

>  <REMARK>
 VINA RESULT:      -7.3      5.667     10.569
  Name = 
  2 active torsions:
  status: ('A' for Active; 'I' for Inactive)
    1  A    between atoms: C_1  and  C_2
    2  A    between atoms: C_2  and  N_3
                            x       y       z     vdW  Elec       q    Type
                         _______ _______ _______ _____ _____    ______ ____

>  <TORSDO>
F 2

$$$$
=
 OpenBabel10272401443D

 28 32  0  0  1  0  0  0  0  0999 V2000
  190.1120  175.2110  136.8770 C   0  0  1  0  0  3  0  0  0  0  0  0
  191.5670  177.4670  141.7210 C   0  0  0  0  0  3  0  0  0  0  0  0
  189.1720  179.4750  137.3410 C   0  0  0  0  0  1  0  0  0  0  0  0
  189.1910  177.7270  142.1670 C   0  0  0  0  0  0  0  0  0  0  0  0
  190.0410  177.7820  139.7650 C   0  0  1  0  0  3  0  0  0  0  0  0
  190.7440  177.3610  143.9930 C   0  0  0  0  0  0  0  0  0  0  0  0
  190.2670  177.6810  141.2490 C   0  0  0  0  0  0  0  0  0  0  0  0
  187.5590  177.8120  140.2450 C   0  0  0  0  0  2  0  0  0  0  0  0
  189.4430  177.5780  143.5340 C   0  0  0  0  0  3  0  0  0  0  0  0
  188.5940  177.1640  137.3090 C   0  0  2  0  0  3  0  0  0  0  0  0
  190.1370  176.4040  139.1300 C   0  0  0  0  0  2  0  0  0  0  0  0
  187.7920  178.0640  141.7310 C   0  0  0  0  0  2  0  0  0  0  0  0
  187.6330  175.0540  136.7570 C   0  0  0  0  0  2  0  0  0  0  0  0
  188.3680  178.4510  137.9920 N   0  0  0  0  0  0  0  0  0  0  0  0
  187.5090  176.2270  137.6190 N   0  0  0  0  0  2  0  0  0  0  0  0
  190.9830  177.2040  145.3520 O   0  0  0  0  0  1  0  0  0  0  0  0
  191.8060  177.3100  143.0880 C   0  0  0  0  0  3  0  0  0  0  0  0
  188.6860  178.4410  139.4320 C   0  0  2  0  0  3  0  0  0  0  0  0
  188.9120  174.2900  137.0880 C   0  0  0  0  0  2  0  0  0  0  0  0
  189.9730  176.5460  137.6240 C   0  0  1  0  0  3  0  0  0  0  0  0
  191.4680  174.5150  137.0430 C   0  0  0  0  0  2  0  0  0  0  0  0
  192.5080  175.1120  136.2130 N   0  0  0  0  0  0  0  0  0  0  0  0
  194.4140  176.4720  135.6550 C   0  0  1  0  0  3  0  0  0  0  0  0
  192.3730  175.3620  134.7940 C   0  0  0  0  0  3  0  0  0  0  0  0
  193.9340  175.8320  137.9370 O   0  0  0  0  0  0  0  0  0  0  0  0
  193.6390  175.7910  136.7120 C   0  0  0  0  0  0  0  0  0  0  0  0
  195.7950  175.8540  135.5390 C   0  0  0  0  0  1  0  0  0  0  0  0
  193.6170  176.1640  134.3840 C   0  0  0  0  0  3  0  0  0  0  0  0
  1 21  1  1  0  0  0
  1 19  1  0  0  0  0
  1 20  1  0  0  0  0
  2 17  1  0  0  0  0
  3 14  1  0  0  0  0
  4  9  2  0  0  0  0
  5 11  1  1  0  0  0
  5  7  1  0  0  0  0
  6 16  1  0  0  0  0
  7  2  2  0  0  0  0
  7  4  1  0  0  0  0
  8 12  1  0  0  0  0
  9  6  1  0  0  0  0
 10 15  1  1  0  0  0
 10 20  1  0  0  0  0
 10 14  1  0  0  0  0
 12  4  1  0  0  0  0
 13 19  1  0  0  0  0
 13 15  1  0  0  0  0
 14 18  1  0  0  0  0
 17  6  2  0  0  0  0
 18  5  1  0  0  0  0
 18  8  1  1  0  0  0
 20 11  1  1  0  0  0
 22 26  1  0  0  0  0
 22 21  1  0  0  0  0
 23 27  1  6  0  0  0
 23 26  1  0  0  0  0
 24 22  1  0  0  0  0
 26 25  2  0  0  0  0
 28 24  2  0  0  0  0
 28 23  1  0  0  0  0
M  END
>  <MODEL>
3

>  <REMARK>
 VINA RESULT:      -7.2      1.849      7.101
  Name = 
  2 active torsions:
  status: ('A' for Active; 'I' for Inactive)
    1  A    between atoms: C_1  and  C_2
    2  A    between atoms: C_2  and  N_3
                            x       y       z     vdW  Elec       q    Type
                         _______ _______ _______ _____ _____    ______ ____

>  <TORSDO>
F 2

$$$$
=
 OpenBabel10272401443D

 28 32  0  0  1  0  0  0  0  0999 V2000
  182.4040  175.9450  138.2600 C   0  0  1  0  0  3  0  0  0  0  0  0
  185.0170  178.5570  142.3870 C   0  0  0  0  0  3  0  0  0  0  0  0
  181.5320  180.2310  138.6450 C   0  0  0  0  0  1  0  0  0  0  0  0
  182.8320  178.8490  143.4130 C   0  0  0  0  0  0  0  0  0  0  0  0
  183.0310  178.7250  140.8760 C   0  0  1  0  0  3  0  0  0  0  0  0
  184.8110  178.6210  144.7960 C   0  0  0  0  0  0  0  0  0  0  0  0
  183.6340  178.7350  142.2540 C   0  0  0  0  0  0  0  0  0  0  0  0
  180.7570  178.7890  141.9790 C   0  0  0  0  0  2  0  0  0  0  0  0
  183.4310  178.8020  144.6760 C   0  0  0  0  0  3  0  0  0  0  0  0
  181.0110  177.9240  138.9290 C   0  0  2  0  0  3  0  0  0  0  0  0
  182.9870  177.3030  140.3380 C   0  0  0  0  0  2  0  0  0  0  0  0
  181.3610  179.1520  143.3320 C   0  0  0  0  0  2  0  0  0  0  0  0
  179.9820  175.7780  138.7990 C   0  0  0  0  0  2  0  0  0  0  0  0
  180.9430  179.2580  139.5530 N   0  0  0  0  0  0  0  0  0  0  0  0
  180.0620  177.0120  139.5770 N   0  0  0  0  0  2  0  0  0  0  0  0
  185.3950  178.5650  146.0540 O   0  0  0  0  0  1  0  0  0  0  0  0
  185.6030  178.5020  143.6530 C   0  0  0  0  0  3  0  0  0  0  0  0
  181.6230  179.3560  140.8580 C   0  0  2  0  0  3  0  0  0  0  0  0
  181.3180  175.0420  138.8410 C   0  0  0  0  0  2  0  0  0  0  0  0
  182.4360  177.3320  138.9210 C   0  0  1  0  0  3  0  0  0  0  0  0
  183.7700  175.2640  138.1200 C   0  0  0  0  0  2  0  0  0  0  0  0
  183.7580  174.1830  137.1410 N   0  0  0  0  0  0  0  0  0  0  0  0
  184.5180  172.2210  135.9700 C   0  0  1  0  0  3  0  0  0  0  0  0
  183.1290  174.2700  135.8400 C   0  0  0  0  0  3  0  0  0  0  0  0
  185.3430  172.7860  138.1730 O   0  0  0  0  0  0  0  0  0  0  0  0
  184.5930  173.0460  137.1930 C   0  0  0  0  0  0  0  0  0  0  0  0
  183.9390  170.8570  136.2960 C   0  0  0  0  0  1  0  0  0  0  0  0
  183.5290  172.9900  135.0900 C   0  0  0  0  0  3  0  0  0  0  0  0
  1 21  1  1  0  0  0
  1 19  1  0  0  0  0
  1 20  1  0  0  0  0
  2 17  1  0  0  0  0
  3 14  1  0  0  0  0
  4  9  2  0  0  0  0
  5 11  1  1  0  0  0
  5  7  1  0  0  0  0
  6 16  1  0  0  0  0
  7  2  2  0  0  0  0
  7  4  1  0  0  0  0
  8 12  1  0  0  0  0
  9  6  1  0  0  0  0
 10 14  1  0  0  0  0
 10 15  1  1  0  0  0
 12  4  1  0  0  0  0
 13 19  1  0  0  0  0
 13 15  1  0  0  0  0
 14 18  1  0  0  0  0
 17  6  2  0  0  0  0
 18  5  1  0  0  0  0
 18  8  1  1  0  0  0
 20 10  1  0  0  0  0
 20 11  1  1  0  0  0
 22 26  1  0  0  0  0
 22 21  1  0  0  0  0
 23 27  1  1  0  0  0
 23 26  1  0  0  0  0
 24 22  1  0  0  0  0
 26 25  2  0  0  0  0
 28 24  2  0  0  0  0
 28 23  1  0  0  0  0
M  END
>  <MODEL>
4

>  <REMARK>
 VINA RESULT:      -7.1      7.768     11.084
  Name = 
  2 active torsions:
  status: ('A' for Active; 'I' for Inactive)
    1  A    between atoms: C_1  and  C_2
    2  A    between atoms: C_2  and  N_3
                            x       y       z     vdW  Elec       q    Type
                         _______ _______ _______ _____ _____    ______ ____

>  <TORSDO>
F 2

$$$$
=
 OpenBabel10272401443D

 28 32  0  0  1  0  0  0  0  0999 V2000
  188.9540  177.3520  137.6290 C   0  0  1  0  0  3  0  0  0  0  0  0
  183.8910  178.9830  139.1740 C   0  0  0  0  0  3  0  0  0  0  0  0
  185.9950  177.6630  134.4000 C   0  0  0  0  0  1  0  0  0  0  0  0
  183.1280  176.7580  138.5600 C   0  0  0  0  0  0  0  0  0  0  0  0
  185.1210  177.7890  137.3520 C   0  0  1  0  0  3  0  0  0  0  0  0
  182.0350  177.9730  140.3510 C   0  0  0  0  0  0  0  0  0  0  0  0
  184.0090  177.8470  138.3640 C   0  0  0  0  0  0  0  0  0  0  0  0
  184.4530  175.3920  136.9020 C   0  0  0  0  0  2  0  0  0  0  0  0
  182.1400  176.8360  139.5460 C   0  0  0  0  0  3  0  0  0  0  0  0
  187.3060  176.4400  135.9680 C   0  0  2  0  0  3  0  0  0  0  0  0
  186.4470  177.5310  138.0530 C   0  0  0  0  0  2  0  0  0  0  0  0
  183.1330  175.5610  137.6490 C   0  0  0  0  0  2  0  0  0  0  0  0
  188.8780  174.9550  136.9710 C   0  0  0  0  0  2  0  0  0  0  0  0
  185.9820  176.5420  135.3280 N   0  0  0  0  0  0  0  0  0  0  0  0
  187.4870  175.1060  136.5510 N   0  0  0  0  0  2  0  0  0  0  0  0
  181.0580  178.0380  141.3350 O   0  0  0  0  0  1  0  0  0  0  0  0
  182.9070  179.0470  140.1630 C   0  0  0  0  0  3  0  0  0  0  0  0
  184.8610  176.7200  136.2710 C   0  0  2  0  0  3  0  0  0  0  0  0
  189.1930  175.9210  138.1090 C   0  0  0  0  0  2  0  0  0  0  0  0
  187.5590  177.5450  137.0160 C   0  0  1  0  0  3  0  0  0  0  0  0
  189.3700  178.4250  138.6410 C   0  0  0  0  0  2  0  0  0  0  0  0
  189.5580  177.8850  139.9830 N   0  0  0  0  0  0  0  0  0  0  0  0
  189.2420  177.6390  142.3570 C   0  0  1  0  0  3  0  0  0  0  0  0
  190.7910  177.2880  140.4550 C   0  0  0  0  0  3  0  0  0  0  0  0
  187.6040  178.7480  140.9640 O   0  0  0  0  0  0  0  0  0  0  0  0
  188.7010  178.1370  141.0760 C   0  0  0  0  0  0  0  0  0  0  0  0
  188.3540  176.5380  142.9060 C   0  0  0  0  0  1  0  0  0  0  0  0
  190.5950  177.0430  141.9580 C   0  0  0  0  0  3  0  0  0  0  0  0
  1 19  1  0  0  0  0
  1 21  1  1  0  0  0
  2 17  1  0  0  0  0
  3 14  1  0  0  0  0
  4  9  2  0  0  0  0
  5 11  1  1  0  0  0
  5  7  1  0  0  0  0
  6 16  1  0  0  0  0
  7  4  1  0  0  0  0
  7  2  2  0  0  0  0
  8 12  1  0  0  0  0
  9  6  1  0  0  0  0
 10 15  1  1  0  0  0
 10 20  1  0  0  0  0
 12  4  1  0  0  0  0
 13 19  1  0  0  0  0
 14 10  1  0  0  0  0
 14 18  1  0  0  0  0
 15 13  1  0  0  0  0
 17  6  2  0  0  0  0
 18  8  1  1  0  0  0
 18  5  1  0  0  0  0
 20  1  1  0  0  0  0
 20 11  1  1  0  0  0
 21 22  1  0  0  0  0
 22 24  1  0  0  0  0
 22 26  1  0  0  0  0
 23 27  1  6  0  0  0
 24 28  2  0  0  0  0
 25 26  2  0  0  0  0
 26 23  1  0  0  0  0
 28 23  1  0  0  0  0
M  END
>  <MODEL>
5

>  <REMARK>
 VINA RESULT:      -6.5      4.158      8.015
  Name = 
  2 active torsions:
  status: ('A' for Active; 'I' for Inactive)
    1  A    between atoms: C_1  and  C_2
    2  A    between atoms: C_2  and  N_3
                            x       y       z     vdW  Elec       q    Type
                         _______ _______ _______ _____ _____    ______ ____

>  <TORSDO>
F 2

$$$$
=
 OpenBabel10272401443D

 28 32  0  0  1  0  0  0  0  0999 V2000
  186.0710  177.5420  136.7290 C   0  0  1  0  0  3  0  0  0  0  0  0
  190.6000  176.7910  139.8280 C   0  0  0  0  0  3  0  0  0  0  0  0
  187.3730  173.3760  137.2060 C   0  0  0  0  0  1  0  0  0  0  0  0
  191.7120  176.0530  137.7950 C   0  0  0  0  0  0  0  0  0  0  0  0
  189.2010  175.7030  138.0630 C   0  0  1  0  0  3  0  0  0  0  0  0
  192.9720  177.1680  139.5420 C   0  0  0  0  0  0  0  0  0  0  0  0
  190.5370  176.1680  138.5760 C   0  0  0  0  0  0  0  0  0  0  0  0
  190.3430  175.1640  135.8710 C   0  0  0  0  0  2  0  0  0  0  0  0
  192.9220  176.5450  138.2920 C   0  0  0  0  0  3  0  0  0  0  0  0
  187.1740  175.4120  135.9850 C   0  0  2  0  0  3  0  0  0  0  0  0
  188.3760  176.8960  137.6060 C   0  0  0  0  0  2  0  0  0  0  0  0
  191.7280  175.2970  136.4950 C   0  0  0  0  0  2  0  0  0  0  0  0
  186.6150  177.0550  134.3510 C   0  0  0  0  0  2  0  0  0  0  0  0
  188.0670  174.2840  136.3040 N   0  0  0  0  0  0  0  0  0  0  0  0
  187.6340  176.0960  134.7720 N   0  0  0  0  0  2  0  0  0  0  0  0
  194.1760  177.6630  140.0220 O   0  0  0  0  0  1  0  0  0  0  0  0
  191.8130  177.2870  140.3110 C   0  0  0  0  0  3  0  0  0  0  0  0
  189.3490  174.6750  136.9210 C   0  0  2  0  0  3  0  0  0  0  0  0
  186.4710  178.1630  135.3910 C   0  0  0  0  0  2  0  0  0  0  0  0
  187.0090  176.4040  137.1570 C   0  0  1  0  0  3  0  0  0  0  0  0
  185.7610  178.5700  137.8230 C   0  0  0  0  0  2  0  0  0  0  0  0
  184.6690  178.1470  138.6930 N   0  0  0  0  0  0  0  0  0  0  0  0
  183.4260  177.8490  140.7330 C   0  0  1  0  0  3  0  0  0  0  0  0
  183.8250  176.9980  138.4410 C   0  0  0  0  0  3  0  0  0  0  0  0
  185.1690  179.5160  140.5380 O   0  0  0  0  0  0  0  0  0  0  0  0
  184.4820  178.5950  140.0180 C   0  0  0  0  0  0  0  0  0  0  0  0
  182.2750  178.7750  141.0760 C   0  0  0  0  0  1  0  0  0  0  0  0
  182.9580  176.8250  139.6960 C   0  0  0  0  0  3  0  0  0  0  0  0
  1 20  1  0  0  0  0
  1 21  1  1  0  0  0
  2 17  1  0  0  0  0
  4  9  2  0  0  0  0
  4  7  1  0  0  0  0
  5 11  1  6  0  0  0
  5  7  1  0  0  0  0
  6 16  1  0  0  0  0
  6 17  2  0  0  0  0
  7  2  2  0  0  0  0
  8 12  1  0  0  0  0
  9  6  1  0  0  0  0
 10 15  1  6  0  0  0
 10 14  1  0  0  0  0
 10 20  1  0  0  0  0
 12  4  1  0  0  0  0
 13 15  1  0  0  0  0
 13 19  1  0  0  0  0
 14 18  1  0  0  0  0
 14  3  1  0  0  0  0
 18  8  1  6  0  0  0
 18  5  1  0  0  0  0
 19  1  1  0  0  0  0
 20 11  1  6  0  0  0
 21 22  1  0  0  0  0
 22 26  1  0  0  0  0
 23 27  1  6  0  0  0
 24 22  1  0  0  0  0
 24 28  2  0  0  0  0
 26 25  2  0  0  0  0
 26 23  1  0  0  0  0
 28 23  1  0  0  0  0
M  END
>  <MODEL>
6

>  <REMARK>
 VINA RESULT:      -6.1      3.414      4.572
  Name = 
  2 active torsions:
  status: ('A' for Active; 'I' for Inactive)
    1  A    between atoms: C_1  and  C_2
    2  A    between atoms: C_2  and  N_3
                            x       y       z     vdW  Elec       q    Type
                         _______ _______ _______ _____ _____    ______ ____

>  <TORSDO>
F 2

$$$$
=
 OpenBabel10272401443D

 28 32  0  0  1  0  0  0  0  0999 V2000
  190.9110  176.1520  137.4510 C   0  0  1  0  0  3  0  0  0  0  0  0
  193.2680  171.4030  135.8480 C   0  0  0  0  0  3  0  0  0  0  0  0
  194.7170  176.5560  135.2980 C   0  0  0  0  0  1  0  0  0  0  0  0
  195.0440  171.9000  137.4330 C   0  0  0  0  0  0  0  0  0  0  0  0
  193.7710  173.8070  136.3200 C   0  0  1  0  0  3  0  0  0  0  0  0
  194.4450  169.6000  136.9500 C   0  0  0  0  0  0  0  0  0  0  0  0
  194.0540  172.3430  136.5250 C   0  0  0  0  0  0  0  0  0  0  0  0
  195.4570  174.2850  138.1440 C   0  0  0  0  0  2  0  0  0  0  0  0
  195.2380  170.5290  137.6280 C   0  0  0  0  0  3  0  0  0  0  0  0
  193.3860  176.5370  137.2750 C   0  0  2  0  0  3  0  0  0  0  0  0
  192.5060  174.2000  137.0670 C   0  0  0  0  0  2  0  0  0  0  0  0
  195.9910  172.8570  138.1020 C   0  0  0  0  0  2  0  0  0  0  0  0
  192.2600  177.1600  139.2800 C   0  0  0  0  0  2  0  0  0  0  0  0
  194.6800  176.1370  136.6920 N   0  0  0  0  0  0  0  0  0  0  0  0
  193.4690  176.5450  138.7390 N   0  0  0  0  0  2  0  0  0  0  0  0
  194.6380  168.2410  137.1590 O   0  0  0  0  0  1  0  0  0  0  0  0
  193.4640  170.0360  136.0580 C   0  0  0  0  0  3  0  0  0  0  0  0
  194.9580  174.6900  136.7590 C   0  0  2  0  0  3  0  0  0  0  0  0
  191.0420  176.2950  138.9660 C   0  0  0  0  0  2  0  0  0  0  0  0
  192.2080  175.6650  136.7870 C   0  0  1  0  0  3  0  0  0  0  0  0
  189.6420  175.4180  137.0030 C   0  0  0  0  0  2  0  0  0  0  0  0
  188.5280  176.3260  136.7560 N   0  0  0  0  0  0  0  0  0  0  0  0
  186.2560  177.0210  136.3650 C   0  0  1  0  0  3  0  0  0  0  0  0
  188.6490  177.5930  136.0650 C   0  0  0  0  0  3  0  0  0  0  0  0
  186.7780  174.8710  137.3420 O   0  0  0  0  0  0  0  0  0  0  0  0
  187.1660  175.9750  136.8750 C   0  0  0  0  0  0  0  0  0  0  0  0
  185.4150  177.5790  137.4970 C   0  0  0  0  0  1  0  0  0  0  0  0
  187.2150  178.1070  135.8670 C   0  0  0  0  0  3  0  0  0  0  0  0
  1 21  1  1  0  0  0
  1 19  1  0  0  0  0
  2 17  2  0  0  0  0
  2  7  1  0  0  0  0
  3 14  1  0  0  0  0
  4  9  1  0  0  0  0
  4 12  1  0  0  0  0
  5  7  1  0  0  0  0
  5 18  1  0  0  0  0
  5 11  1  1  0  0  0
  6 16  1  0  0  0  0
  6  9  2  0  0  0  0
  7  4  2  0  0  0  0
 10 15  1  1  0  0  0
 12  8  1  0  0  0  0
 14 18  1  0  0  0  0
 14 10  1  0  0  0  0
 15 13  1  0  0  0  0
 17  6  1  0  0  0  0
 18  8  1  1  0  0  0
 19 13  1  0  0  0  0
 20 11  1  1  0  0  0
 20 10  1  0  0  0  0
 20  1  1  0  0  0  0
 22 26  1  0  0  0  0
 22 21  1  0  0  0  0
 23 26  1  0  0  0  0
 23 27  1  1  0  0  0
 24 22  1  0  0  0  0
 26 25  2  0  0  0  0
 28 24  2  0  0  0  0
 28 23  1  0  0  0  0
M  END
>  <MODEL>
7

>  <REMARK>
 VINA RESULT:      -6.1      3.339      5.089
  Name = 
  2 active torsions:
  status: ('A' for Active; 'I' for Inactive)
    1  A    between atoms: C_1  and  C_2
    2  A    between atoms: C_2  and  N_3
                            x       y       z     vdW  Elec       q    Type
                         _______ _______ _______ _____ _____    ______ ____

>  <TORSDO>
F 2

$$$$
=
 OpenBabel10272401443D

 28 32  0  0  1  0  0  0  0  0999 V2000
  188.8040  177.8730  139.2410 C   0  0  1  0  0  3  0  0  0  0  0  0
  186.6790  173.1310  137.3210 C   0  0  0  0  0  3  0  0  0  0  0  0
  184.5570  178.0090  138.1350 C   0  0  0  0  0  1  0  0  0  0  0  0
  186.4370  174.2570  135.1800 C   0  0  0  0  0  0  0  0  0  0  0  0
  186.3140  175.6060  137.3390 C   0  0  1  0  0  3  0  0  0  0  0  0
  186.8490  171.8690  135.2650 C   0  0  0  0  0  0  0  0  0  0  0  0
  186.4550  174.3070  136.5930 C   0  0  0  0  0  0  0  0  0  0  0  0
  186.3030  176.7760  135.0970 C   0  0  0  0  0  2  0  0  0  0  0  0
  186.6230  173.0340  134.5280 C   0  0  0  0  0  3  0  0  0  0  0  0
  186.8680  178.4410  137.7470 C   0  0  2  0  0  3  0  0  0  0  0  0
  187.6740  176.0710  137.8350 C   0  0  0  0  0  2  0  0  0  0  0  0
  186.0910  175.4630  134.3490 C   0  0  0  0  0  2  0  0  0  0  0  0
  188.9640  179.5130  137.3790 C   0  0  0  0  0  2  0  0  0  0  0  0
  185.6010  178.0220  137.1200 N   0  0  0  0  0  0  0  0  0  0  0  0
  187.8150  178.8920  136.7230 N   0  0  0  0  0  2  0  0  0  0  0  0
  187.0440  170.6610  134.6090 O   0  0  0  0  0  1  0  0  0  0  0  0
  186.8740  171.9170  136.6600 C   0  0  0  0  0  3  0  0  0  0  0  0
  185.6490  176.6970  136.4730 C   0  0  2  0  0  3  0  0  0  0  0  0
  189.7340  178.4730  138.1880 C   0  0  0  0  0  2  0  0  0  0  0  0
  187.4910  177.3480  138.6410 C   0  0  1  0  0  3  0  0  0  0  0  0
  189.5010  176.9120  140.2110 C   0  0  0  0  0  2  0  0  0  0  0  0
  189.0890  177.1180  141.5950 N   0  0  0  0  0  0  0  0  0  0  0  0
  188.8080  176.6370  143.9370 C   0  0  1  0  0  3  0  0  0  0  0  0
  187.9430  177.9090  141.9930 C   0  0  0  0  0  3  0  0  0  0  0  0
  190.4630  175.4940  142.5940 O   0  0  0  0  0  0  0  0  0  0  0  0
  189.5440  176.3510  142.6880 C   0  0  0  0  0  0  0  0  0  0  0  0
  189.7420  177.2460  144.9650 C   0  0  0  0  0  1  0  0  0  0  0  0
  187.7810  177.6880  143.5050 C   0  0  0  0  0  3  0  0  0  0  0  0
  1 21  1  6  0  0  0
  4  7  1  0  0  0  0
  5 11  1  6  0  0  0
  6 17  2  0  0  0  0
  7  2  2  0  0  0  0
  7  5  1  0  0  0  0
  9  4  2  0  0  0  0
  9  6  1  0  0  0  0
 10 15  1  6  0  0  0
 10 20  1  0  0  0  0
 12  8  1  0  0  0  0
 12  4  1  0  0  0  0
 13 19  1  0  0  0  0
 14 10  1  0  0  0  0
 14  3  1  0  0  0  0
 15 13  1  0  0  0  0
 16  6  1  0  0  0  0
 17  2  1  0  0  0  0
 18  8  1  6  0  0  0
 18 14  1  0  0  0  0
 18  5  1  0  0  0  0
 19  1  1  0  0  0  0
 20 11  1  6  0  0  0
 20  1  1  0  0  0  0
 21 22  1  0  0  0  0
 22 24  1  0  0  0  0
 22 26  1  0  0  0  0
 23 27  1  1  0  0  0
 24 28  2  0  0  0  0
 25 26  2  0  0  0  0
 26 23  1  0  0  0  0
 28 23  1  0  0  0  0
M  END
>  <MODEL>
8

>  <REMARK>
 VINA RESULT:      -6.1      4.313      5.674
  Name = 
  2 active torsions:
  status: ('A' for Active; 'I' for Inactive)
    1  A    between atoms: C_1  and  C_2
    2  A    between atoms: C_2  and  N_3
                            x       y       z     vdW  Elec       q    Type
                         _______ _______ _______ _____ _____    ______ ____

>  <TORSDO>
F 2

$$$$
=
 OpenBabel10272401443D

 28 32  0  0  1  0  0  0  0  0999 V2000
  182.9780  178.3650  140.4120 C   0  0  1  0  0  3  0  0  0  0  0  0
  184.8530  173.8890  137.7420 C   0  0  0  0  0  3  0  0  0  0  0  0
  180.0040  175.2250  139.6530 C   0  0  0  0  0  1  0  0  0  0  0  0
  183.4280  174.5560  135.8880 C   0  0  0  0  0  0  0  0  0  0  0  0
  182.7590  175.1480  138.2760 C   0  0  1  0  0  3  0  0  0  0  0  0
  185.5060  173.3800  135.4690 C   0  0  0  0  0  0  0  0  0  0  0  0
  183.6820  174.5000  137.2790 C   0  0  0  0  0  0  0  0  0  0  0  0
  181.4250  176.0300  136.3170 C   0  0  0  0  0  2  0  0  0  0  0  0
  184.3390  173.9840  134.9960 C   0  0  0  0  0  3  0  0  0  0  0  0
  181.0440  177.3200  139.1990 C   0  0  2  0  0  3  0  0  0  0  0  0
  183.3560  176.4610  138.7590 C   0  0  0  0  0  2  0  0  0  0  0  0
  182.1370  175.0990  135.3400 C   0  0  0  0  0  2  0  0  0  0  0  0
  181.4700  179.6460  138.9060 C   0  0  0  0  0  2  0  0  0  0  0  0
  180.4450  176.1180  138.5910 N   0  0  0  0  0  0  0  0  0  0  0  0
  181.0920  178.4120  138.2210 N   0  0  0  0  0  2  0  0  0  0  0  0
  186.4100  172.8240  134.5750 O   0  0  0  0  0  1  0  0  0  0  0  0
  185.7610  173.3290  136.8410 C   0  0  0  0  0  3  0  0  0  0  0  0
  181.3480  175.3740  137.6920 C   0  0  2  0  0  3  0  0  0  0  0  0
  182.8970  179.5380  139.4370 C   0  0  0  0  0  2  0  0  0  0  0  0
  182.4360  177.0590  139.8120 C   0  0  1  0  0  3  0  0  0  0  0  0
  184.3310  178.2380  141.1210 C   0  0  0  0  0  2  0  0  0  0  0  0
  184.2350  178.4770  142.5570 N   0  0  0  0  0  0  0  0  0  0  0  0
  184.7740  178.2820  144.8950 C   0  0  1  0  0  3  0  0  0  0  0  0
  183.0080  178.8250  143.2430 C   0  0  0  0  0  3  0  0  0  0  0  0
  186.3530  177.6640  143.1700 O   0  0  0  0  0  0  0  0  0  0  0  0
  185.2220  178.1130  143.4970 C   0  0  0  0  0  0  0  0  0  0  0  0
  185.6070  179.3460  145.5840 C   0  0  0  0  0  1  0  0  0  0  0  0
  183.3370  178.7880  144.7430 C   0  0  0  0  0  3  0  0  0  0  0  0
  1 21  1  6  0  0  0
  4  7  2  0  0  0  0
  5 11  1  6  0  0  0
  6 17  1  0  0  0  0
  7  2  1  0  0  0  0
  7  5  1  0  0  0  0
  9  6  2  0  0  0  0
  9  4  1  0  0  0  0
 10 15  1  6  0  0  0
 10 20  1  0  0  0  0
 12  4  1  0  0  0  0
 12  8  1  0  0  0  0
 13 19  1  0  0  0  0
 14 10  1  0  0  0  0
 14  3  1  0  0  0  0
 15 13  1  0  0  0  0
 16  6  1  0  0  0  0
 17  2  2  0  0  0  0
 18  8  1  6  0  0  0
 18  5  1  0  0  0  0
 18 14  1  0  0  0  0
 19  1  1  0  0  0  0
 20 11  1  6  0  0  0
 20  1  1  0  0  0  0
 21 22  1  0  0  0  0
 22 24  1  0  0  0  0
 22 26  1  0  0  0  0
 23 27  1  6  0  0  0
 24 28  2  0  0  0  0
 25 26  2  0  0  0  0
 26 23  1  0  0  0  0
 28 23  1  0  0  0  0
M  END
>  <MODEL>
9

>  <REMARK>
 VINA RESULT:      -6.0      7.104      8.668
  Name = 
  2 active torsions:
  status: ('A' for Active; 'I' for Inactive)
    1  A    between atoms: C_1  and  C_2
    2  A    between atoms: C_2  and  N_3
                            x       y       z     vdW  Elec       q    Type
                         _______ _______ _______ _____ _____    ______ ____

>  <TORSDO>
F 2

$$$$
