=
 OpenBabel10272413143D

 32 37  0  0  1  0  0  0  0  0999 V2000
  189.7380  177.6630  141.3820 C   0  0  0  0  0  0  0  0  0  0  0  0
  187.6530  178.0280  142.6040 C   0  0  0  0  0  0  0  0  0  0  0  0
  191.1300  177.3050  141.3540 N   0  0  0  0  0  2  0  0  0  0  0  0
  189.0900  177.7070  142.5560 C   0  0  0  0  0  0  0  0  0  0  0  0
  186.9910  177.9670  143.7850 C   0  0  0  0  0  0  0  0  0  0  0  0
  183.2530  178.8680  140.5590 C   0  0  0  0  0  2  0  0  0  0  0  0
  186.9630  178.3720  141.3390 C   0  0  0  0  0  0  0  0  0  0  0  0
  183.6380  179.4630  142.8510 O   0  0  0  0  0  0  0  0  0  0  0  0
  185.0280  179.1750  142.7700 C   0  0  1  0  0  3  0  0  0  0  0  0
  187.0170  177.5140  146.2390 C   0  0  0  0  0  3  0  0  0  0  0  0
  189.7920  177.3480  143.7950 C   0  0  0  0  0  0  0  0  0  0  0  0
  185.4880  178.1810  143.8370 C   0  0  0  0  0  2  0  0  0  0  0  0
  189.1170  177.2840  144.9410 C   0  0  0  0  0  3  0  0  0  0  0  0
  191.1820  177.0230  143.7430 N   0  0  0  0  0  2  0  0  0  0  0  0
  187.6330  178.3040  140.1840 C   0  0  0  0  0  3  0  0  0  0  0  0
  187.6190  177.1880  147.2960 O   0  0  0  0  0  0  0  0  0  0  0  0
  189.0260  177.9270  140.1550 N   0  0  0  0  0  0  0  0  0  0  0  0
  185.5490  178.7730  141.4050 C   0  0  0  0  0  0  0  0  0  0  0  0
  187.7080  177.5890  144.9860 N   0  0  0  0  0  0  0  0  0  0  0  0
  191.9650  177.3530  142.5550 C   0  0  0  0  0  2  0  0  0  0  0  0
  182.8990  178.5970  142.0180 C   0  0  0  0  0  2  0  0  0  0  0  0
  184.7110  178.6010  140.3790 C   0  0  0  0  0  3  0  0  0  0  0  0
  188.1750  177.7730  136.8550 N   0  0  0  0  0  0  0  0  0  0  0  0
  189.3930  176.1120  135.5280 C   0  0  0  0  0  1  0  0  0  0  0  0
  188.8500  175.6530  137.9340 C   0  0  0  0  0  2  0  0  0  0  0  0
  189.7340  177.8250  138.8770 C   0  0  1  0  0  3  0  0  0  0  0  0
  190.0590  176.3700  138.5310 C   0  0  0  0  0  2  0  0  0  0  0  0
  188.9840  178.5250  137.7780 C   0  0  0  0  0  0  0  0  0  0  0  0
  189.0200  179.7830  137.7150 O   0  0  0  0  0  0  0  0  0  0  0  0
  188.3910  176.3410  136.6490 C   0  0  1  0  0  3  0  0  0  0  0  0
  186.0510  177.6550  135.8970 O   0  0  0  0  0  1  0  0  0  0  0  0
  187.1940  178.4470  136.0150 C   0  0  0  0  0  2  0  0  0  0  0  0
  1  4  2  0  0  0  0
  2  5  2  0  0  0  0
  3  1  1  0  0  0  0
  3 20  1  0  0  0  0
  4  2  1  0  0  0  0
  4 11  1  0  0  0  0
  5 12  1  0  0  0  0
  5 19  1  0  0  0  0
  6 21  1  0  0  0  0
  7 18  1  0  0  0  0
  7  2  1  0  0  0  0
  9  8  1  0  0  0  0
  9 12  1  1  0  0  0
 10 16  2  0  0  0  0
 11 13  2  0  0  0  0
 13 19  1  0  0  0  0
 14 11  1  0  0  0  0
 15  7  2  0  0  0  0
 17 15  1  0  0  0  0
 17  1  1  0  0  0  0
 18  9  1  0  0  0  0
 19 10  1  0  0  0  0
 20 14  1  0  0  0  0
 21  8  1  0  0  0  0
 22  6  1  0  0  0  0
 22 18  2  0  0  0  0
 23 28  1  0  0  0  0
 25 27  1  0  0  0  0
 26 27  1  6  0  0  0
 26 17  1  0  0  0  0
 28 26  1  0  0  0  0
 29 28  2  0  0  0  0
 30 24  1  6  0  0  0
 30 23  1  0  0  0  0
 30 25  1  0  0  0  0
 31 32  1  0  0  0  0
 32 23  1  0  0  0  0
M  END
>  <MODEL>
1

>  <REMARK>
 VINA RESULT:      -9.4      0.000      0.000
  Name = 
  2 active torsions:
  status: ('A' for Active; 'I' for Inactive)
    1  A    between atoms: N_3  and  C_19
    2  A    between atoms: C_16  and  N_27
                            x       y       z     vdW  Elec       q    Type
                         _______ _______ _______ _____ _____    ______ ____

>  <TORSDO>
F 2

$$$$
=
 OpenBabel10272413143D

 32 37  0  0  1  0  0  0  0  0999 V2000
  184.5520  178.6750  143.1470 C   0  0  0  0  0  0  0  0  0  0  0  0
  186.7820  177.9250  143.8100 C   0  0  0  0  0  0  0  0  0  0  0  0
  183.2370  179.1500  143.4810 N   0  0  0  0  0  2  0  0  0  0  0  0
  185.4150  178.3710  144.1290 C   0  0  0  0  0  0  0  0  0  0  0  0
  187.6720  177.7230  144.8120 C   0  0  0  0  0  0  0  0  0  0  0  0
  190.5410  177.0800  140.7430 C   0  0  0  0  0  2  0  0  0  0  0  0
  187.1540  177.7480  142.3860 C   0  0  0  0  0  0  0  0  0  0  0  0
  190.5600  176.1300  142.9460 O   0  0  0  0  0  0  0  0  0  0  0  0
  189.2280  176.5460  143.2180 C   0  0  1  0  0  3  0  0  0  0  0  0
  188.2000  177.7410  147.2500 C   0  0  0  0  0  3  0  0  0  0  0  0
  185.0280  178.5680  145.5320 C   0  0  0  0  0  0  0  0  0  0  0  0
  189.1180  177.3740  144.4980 C   0  0  0  0  0  2  0  0  0  0  0  0
  185.9250  178.3730  146.4980 C   0  0  0  0  0  3  0  0  0  0  0  0
  183.7070  179.0150  145.8370 N   0  0  0  0  0  2  0  0  0  0  0  0
  186.2770  178.0740  141.4320 C   0  0  0  0  0  3  0  0  0  0  0  0
  187.8700  177.9280  148.4510 O   0  0  0  0  0  0  0  0  0  0  0  0
  184.9630  178.5680  141.7680 N   0  0  0  0  0  0  0  0  0  0  0  0
  188.4930  177.2220  142.0780 C   0  0  0  0  0  0  0  0  0  0  0  0
  187.2650  177.9460  146.1840 N   0  0  0  0  0  0  0  0  0  0  0  0
  182.6640  178.9650  144.8150 C   0  0  0  0  0  2  0  0  0  0  0  0
  191.2140  177.0620  142.1120 C   0  0  0  0  0  2  0  0  0  0  0  0
  189.1200  177.4990  140.9310 C   0  0  0  0  0  3  0  0  0  0  0  0
  183.2900  176.9890  139.2500 N   0  0  0  0  0  0  0  0  0  0  0  0
  183.2940  178.1480  137.0910 C   0  0  0  0  0  1  0  0  0  0  0  0
  185.2840  178.3050  138.6120 C   0  0  0  0  0  2  0  0  0  0  0  0
  184.0280  178.9510  140.7080 C   0  0  1  0  0  3  0  0  0  0  0  0
  184.7650  179.4590  139.4670 C   0  0  0  0  0  2  0  0  0  0  0  0
  183.0710  177.8350  140.3930 C   0  0  0  0  0  0  0  0  0  0  0  0
  182.1120  177.6090  141.1780 O   0  0  0  0  0  0  0  0  0  0  0  0
  184.1310  177.4230  138.1340 C   0  0  1  0  0  3  0  0  0  0  0  0
  183.3000  174.8630  138.2890 O   0  0  0  0  0  1  0  0  0  0  0  0
  182.5830  175.7210  139.1230 C   0  0  0  0  0  2  0  0  0  0  0  0
  1  3  1  0  0  0  0
  1  4  2  0  0  0  0
  2  4  1  0  0  0  0
  2  5  2  0  0  0  0
  3 20  1  0  0  0  0
  4 11  1  0  0  0  0
  5 19  1  0  0  0  0
  6 22  1  0  0  0  0
  6 21  1  0  0  0  0
  7  2  1  0  0  0  0
  8  9  1  0  0  0  0
  9 12  1  1  0  0  0
 10 16  2  0  0  0  0
 11 14  1  0  0  0  0
 11 13  2  0  0  0  0
 12  5  1  0  0  0  0
 15 17  1  0  0  0  0
 15  7  2  0  0  0  0
 17  1  1  0  0  0  0
 18  7  1  0  0  0  0
 18  9  1  0  0  0  0
 19 13  1  0  0  0  0
 19 10  1  0  0  0  0
 20 14  1  0  0  0  0
 21  8  1  0  0  0  0
 22 18  2  0  0  0  0
 23 28  1  0  0  0  0
 25 27  1  0  0  0  0
 26 27  1  6  0  0  0
 26 17  1  0  0  0  0
 28 26  1  0  0  0  0
 28 29  2  0  0  0  0
 30 24  1  6  0  0  0
 30 25  1  0  0  0  0
 30 23  1  0  0  0  0
 31 32  1  0  0  0  0
 32 23  1  0  0  0  0
M  END
>  <MODEL>
2

>  <REMARK>
 VINA RESULT:      -9.3      3.031      5.499
  Name = 
  2 active torsions:
  status: ('A' for Active; 'I' for Inactive)
    1  A    between atoms: N_3  and  C_19
    2  A    between atoms: C_16  and  N_27
                            x       y       z     vdW  Elec       q    Type
                         _______ _______ _______ _____ _____    ______ ____

>  <TORSDO>
F 2

$$$$
=
 OpenBabel10272413143D

 32 37  0  0  1  0  0  0  0  0999 V2000
  186.2570  178.3900  140.1450 C   0  0  0  0  0  0  0  0  0  0  0  0
  186.9210  178.0460  142.4720 C   0  0  0  0  0  0  0  0  0  0  0  0
  185.2800  178.7740  139.1620 N   0  0  0  0  0  2  0  0  0  0  0  0
  185.9240  178.3920  141.4450 C   0  0  0  0  0  0  0  0  0  0  0  0
  186.5980  178.1530  143.7840 C   0  0  0  0  0  0  0  0  0  0  0  0
  191.4810  177.0160  144.0190 C   0  0  0  0  0  2  0  0  0  0  0  0
  188.2720  177.6240  142.0320 C   0  0  0  0  0  0  0  0  0  0  0  0
  189.6050  176.5450  145.4360 O   0  0  0  0  0  0  0  0  0  0  0  0
  188.6620  176.8560  144.4180 C   0  0  1  0  0  3  0  0  0  0  0  0
  184.9230  178.7280  145.5420 C   0  0  0  0  0  3  0  0  0  0  0  0
  184.5830  178.8270  141.8570 C   0  0  0  0  0  0  0  0  0  0  0  0
  187.6460  177.9110  144.8570 C   0  0  0  0  0  2  0  0  0  0  0  0
  184.2940  178.9350  143.1530 C   0  0  0  0  0  3  0  0  0  0  0  0
  183.6230  179.1770  140.8600 N   0  0  0  0  0  2  0  0  0  0  0  0
  188.5770  177.6480  140.7310 C   0  0  0  0  0  3  0  0  0  0  0  0
  183.7780  179.1190  145.8920 O   0  0  0  0  0  0  0  0  0  0  0  0
  187.6020  178.0510  139.7460 N   0  0  0  0  0  0  0  0  0  0  0  0
  189.2370  177.1990  143.0580 C   0  0  0  0  0  0  0  0  0  0  0  0
  185.2740  178.6050  144.1580 N   0  0  0  0  0  0  0  0  0  0  0  0
  183.8490  178.8030  139.4660 C   0  0  0  0  0  2  0  0  0  0  0  0
  190.7540  177.3530  145.3170 C   0  0  0  0  0  2  0  0  0  0  0  0
  190.5570  177.3030  142.8820 C   0  0  0  0  0  3  0  0  0  0  0  0
  188.8320  175.8770  137.4230 N   0  0  0  0  0  0  0  0  0  0  0  0
  190.6080  176.7630  135.9870 C   0  0  0  0  0  1  0  0  0  0  0  0
  190.4240  177.5150  138.3730 C   0  0  0  0  0  2  0  0  0  0  0  0
  187.9650  178.1030  138.3280 C   0  0  1  0  0  3  0  0  0  0  0  0
  189.3930  178.6170  138.1350 C   0  0  0  0  0  2  0  0  0  0  0  0
  187.7340  176.7780  137.6560 C   0  0  0  0  0  0  0  0  0  0  0  0
  186.5580  176.4380  137.3580 O   0  0  0  0  0  0  0  0  0  0  0  0
  190.2140  176.3570  137.3980 C   0  0  1  0  0  3  0  0  0  0  0  0
  189.6900  173.7080  137.4470 O   0  0  0  0  0  1  0  0  0  0  0  0
  188.5840  174.4810  137.0900 C   0  0  0  0  0  2  0  0  0  0  0  0
  1  4  2  0  0  0  0
  2  5  2  0  0  0  0
  3 20  1  0  0  0  0
  3  1  1  0  0  0  0
  4 11  1  0  0  0  0
  4  2  1  0  0  0  0
  5 19  1  0  0  0  0
  5 12  1  0  0  0  0
  6 21  1  0  0  0  0
  7  2  1  0  0  0  0
  7 18  1  0  0  0  0
  9 12  1  1  0  0  0
  9  8  1  0  0  0  0
 10 16  2  0  0  0  0
 11 13  2  0  0  0  0
 13 19  1  0  0  0  0
 14 11  1  0  0  0  0
 15  7  2  0  0  0  0
 17  1  1  0  0  0  0
 17 15  1  0  0  0  0
 18  9  1  0  0  0  0
 19 10  1  0  0  0  0
 20 14  1  0  0  0  0
 21  8  1  0  0  0  0
 22 18  2  0  0  0  0
 22  6  1  0  0  0  0
 23 28  1  0  0  0  0
 26 27  1  1  0  0  0
 26 17  1  0  0  0  0
 27 25  1  0  0  0  0
 28 26  1  0  0  0  0
 29 28  2  0  0  0  0
 30 24  1  6  0  0  0
 30 23  1  0  0  0  0
 30 25  1  0  0  0  0
 32 23  1  0  0  0  0
 32 31  1  0  0  0  0
M  END
>  <MODEL>
3

>  <REMARK>
 VINA RESULT:      -9.2      2.123      4.718
  Name = 
  2 active torsions:
  status: ('A' for Active; 'I' for Inactive)
    1  A    between atoms: N_3  and  C_19
    2  A    between atoms: C_16  and  N_27
                            x       y       z     vdW  Elec       q    Type
                         _______ _______ _______ _____ _____    ______ ____

>  <TORSDO>
F 2

$$$$
=
 OpenBabel10272413143D

 32 37  0  0  1  0  0  0  0  0999 V2000
  187.1930  178.1670  139.8080 C   0  0  0  0  0  0  0  0  0  0  0  0
  187.2580  178.1520  142.2520 C   0  0  0  0  0  0  0  0  0  0  0  0
  187.8280  177.9630  138.5340 N   0  0  0  0  0  2  0  0  0  0  0  0
  187.9000  177.9910  140.9350 C   0  0  0  0  0  0  0  0  0  0  0  0
  187.9580  177.8690  143.3770 C   0  0  0  0  0  0  0  0  0  0  0  0
  183.3790  178.7890  145.2160 C   0  0  0  0  0  2  0  0  0  0  0  0
  185.8410  178.5840  142.2990 C   0  0  0  0  0  0  0  0  0  0  0  0
  185.5970  179.1180  146.0660 O   0  0  0  0  0  0  0  0  0  0  0  0
  186.1900  178.9890  144.7790 C   0  0  1  0  0  3  0  0  0  0  0  0
  190.0750  177.1070  144.4540 C   0  0  0  0  0  3  0  0  0  0  0  0
  189.2980  177.5490  140.8620 C   0  0  0  0  0  0  0  0  0  0  0  0
  187.2800  177.9180  144.7360 C   0  0  0  0  0  2  0  0  0  0  0  0
  189.9610  177.2670  141.9830 C   0  0  0  0  0  3  0  0  0  0  0  0
  189.9130  177.3790  139.5840 N   0  0  0  0  0  2  0  0  0  0  0  0
  185.1610  178.7360  141.1580 C   0  0  0  0  0  3  0  0  0  0  0  0
  191.2690  176.7110  144.3870 O   0  0  0  0  0  0  0  0  0  0  0  0
  185.7940  178.5130  139.8810 N   0  0  0  0  0  0  0  0  0  0  0  0
  185.2320  178.8240  143.6170 C   0  0  0  0  0  0  0  0  0  0  0  0
  189.3290  177.4150  143.2710 N   0  0  0  0  0  0  0  0  0  0  0  0
  189.2850  177.9410  138.3910 C   0  0  0  0  0  2  0  0  0  0  0  0
  184.4570  178.2950  146.1760 C   0  0  0  0  0  2  0  0  0  0  0  0
  183.9180  178.7000  143.8270 C   0  0  0  0  0  3  0  0  0  0  0  0
  182.5370  179.0810  139.0410 N   0  0  0  0  0  0  0  0  0  0  0  0
  181.6570  177.6880  137.2280 C   0  0  0  0  0  1  0  0  0  0  0  0
  183.3580  176.7590  138.8220 C   0  0  0  0  0  2  0  0  0  0  0  0
  185.0230  178.6530  138.6430 C   0  0  1  0  0  3  0  0  0  0  0  0
  184.5930  177.2900  138.0960 C   0  0  0  0  0  2  0  0  0  0  0  0
  183.8650  179.5940  138.8230 C   0  0  0  0  0  0  0  0  0  0  0  0
  184.0800  180.8340  138.8460 O   0  0  0  0  0  0  0  0  0  0  0  0
  182.1780  177.7160  138.6560 C   0  0  1  0  0  3  0  0  0  0  0  0
  181.0980  179.5360  140.8190 O   0  0  0  0  0  1  0  0  0  0  0  0
  181.4830  179.9520  139.5440 C   0  0  0  0  0  2  0  0  0  0  0  0
  1 17  1  0  0  0  0
  1  4  2  0  0  0  0
  2  7  1  0  0  0  0
  2  5  2  0  0  0  0
  3  1  1  0  0  0  0
  4  2  1  0  0  0  0
  5 12  1  0  0  0  0
  6 21  1  0  0  0  0
  7 18  1  0  0  0  0
  8 21  1  0  0  0  0
  9 12  1  1  0  0  0
  9  8  1  0  0  0  0
 11  4  1  0  0  0  0
 11 13  2  0  0  0  0
 13 19  1  0  0  0  0
 14 11  1  0  0  0  0
 15  7  2  0  0  0  0
 16 10  2  0  0  0  0
 17 15  1  0  0  0  0
 18 22  2  0  0  0  0
 18  9  1  0  0  0  0
 19  5  1  0  0  0  0
 19 10  1  0  0  0  0
 20  3  1  0  0  0  0
 20 14  1  0  0  0  0
 22  6  1  0  0  0  0
 23 32  1  0  0  0  0
 26 27  1  1  0  0  0
 26 28  1  0  0  0  0
 26 17  1  0  0  0  0
 27 25  1  0  0  0  0
 28 29  2  0  0  0  0
 28 23  1  0  0  0  0
 30 24  1  6  0  0  0
 30 25  1  0  0  0  0
 30 23  1  0  0  0  0
 32 31  1  0  0  0  0
M  END
>  <MODEL>
4

>  <REMARK>
 VINA RESULT:      -9.2      2.437      4.432
  Name = 
  2 active torsions:
  status: ('A' for Active; 'I' for Inactive)
    1  A    between atoms: N_3  and  C_19
    2  A    between atoms: C_16  and  N_27
                            x       y       z     vdW  Elec       q    Type
                         _______ _______ _______ _____ _____    ______ ____

>  <TORSDO>
F 2

$$$$
=
 OpenBabel10272413143D

 32 37  0  0  1  0  0  0  0  0999 V2000
  186.6060  178.4020  144.6620 C   0  0  0  0  0  0  0  0  0  0  0  0
  185.2090  178.6270  142.6690 C   0  0  0  0  0  0  0  0  0  0  0  0
  186.7530  178.3370  146.0910 N   0  0  0  0  0  2  0  0  0  0  0  0
  185.3910  178.6010  144.1310 C   0  0  0  0  0  0  0  0  0  0  0  0
  183.9610  178.7250  142.1500 C   0  0  0  0  0  0  0  0  0  0  0  0
  186.7410  178.0360  138.0270 C   0  0  0  0  0  2  0  0  0  0  0  0
  186.4080  178.5050  141.8060 C   0  0  0  0  0  0  0  0  0  0  0  0
  184.7140  179.2390  138.4720 O   0  0  0  0  0  0  0  0  0  0  0  0
  184.9260  179.2270  139.8780 C   0  0  1  0  0  3  0  0  0  0  0  0
  181.4980  178.9010  142.5020 C   0  0  0  0  0  3  0  0  0  0  0  0
  184.2160  178.7050  145.0070 C   0  0  0  0  0  0  0  0  0  0  0  0
  183.7450  178.6380  140.6480 C   0  0  0  0  0  2  0  0  0  0  0  0
  182.9980  178.7880  144.4710 C   0  0  0  0  0  3  0  0  0  0  0  0
  184.3920  178.6640  146.4230 N   0  0  0  0  0  2  0  0  0  0  0  0
  187.6030  178.2930  142.3670 C   0  0  0  0  0  3  0  0  0  0  0  0
  180.4910  178.9720  143.2550 O   0  0  0  0  0  0  0  0  0  0  0  0
  187.7470  178.2090  143.8000 N   0  0  0  0  0  0  0  0  0  0  0  0
  186.2310  178.6170  140.3500 C   0  0  0  0  0  0  0  0  0  0  0  0
  182.8220  178.8050  143.0400 N   0  0  0  0  0  0  0  0  0  0  0  0
  185.7230  178.8450  146.9990 C   0  0  0  0  0  2  0  0  0  0  0  0
  185.2230  178.0650  137.8790 C   0  0  0  0  0  2  0  0  0  0  0  0
  187.0640  178.0330  139.4850 C   0  0  0  0  0  3  0  0  0  0  0  0
  190.8430  177.3260  142.6740 N   0  0  0  0  0  0  0  0  0  0  0  0
  191.9820  175.5880  143.9730 C   0  0  0  0  0  1  0  0  0  0  0  0
  189.4860  175.5440  143.7210 C   0  0  0  0  0  2  0  0  0  0  0  0
  189.0590  177.9430  144.3940 C   0  0  1  0  0  3  0  0  0  0  0  0
  189.1720  176.4950  144.8740 C   0  0  0  0  0  2  0  0  0  0  0  0
  190.1720  178.3290  143.4590 C   0  0  0  0  0  0  0  0  0  0  0  0
  190.4640  179.5460  143.3220 O   0  0  0  0  0  0  0  0  0  0  0  0
  190.8120  175.9150  143.0580 C   0  0  1  0  0  3  0  0  0  0  0  0
  191.0740  177.2820  140.3530 O   0  0  0  0  0  1  0  0  0  0  0  0
  191.6720  177.7100  141.5390 C   0  0  0  0  0  2  0  0  0  0  0  0
  1  3  1  0  0  0  0
  2  4  1  0  0  0  0
  3 20  1  0  0  0  0
  4  1  2  0  0  0  0
  4 11  1  0  0  0  0
  5  2  2  0  0  0  0
  5 19  1  0  0  0  0
  6 22  1  0  0  0  0
  7 15  2  0  0  0  0
  7  2  1  0  0  0  0
  8  9  1  0  0  0  0
  9 18  1  0  0  0  0
  9 12  1  1  0  0  0
 10 19  1  0  0  0  0
 10 16  2  0  0  0  0
 11 14  1  0  0  0  0
 12  5  1  0  0  0  0
 13 11  2  0  0  0  0
 14 20  1  0  0  0  0
 15 17  1  0  0  0  0
 17  1  1  0  0  0  0
 18  7  1  0  0  0  0
 19 13  1  0  0  0  0
 21  6  1  0  0  0  0
 21  8  1  0  0  0  0
 22 18  2  0  0  0  0
 23 30  1  0  0  0  0
 23 28  1  0  0  0  0
 25 27  1  0  0  0  0
 26 17  1  6  0  0  0
 26 27  1  0  0  0  0
 28 26  1  0  0  0  0
 29 28  2  0  0  0  0
 30 25  1  0  0  0  0
 30 24  1  1  0  0  0
 31 32  1  0  0  0  0
 32 23  1  0  0  0  0
M  END
>  <MODEL>
5

>  <REMARK>
 VINA RESULT:      -8.6      2.549      5.549
  Name = 
  2 active torsions:
  status: ('A' for Active; 'I' for Inactive)
    1  A    between atoms: N_3  and  C_19
    2  A    between atoms: C_16  and  N_27
                            x       y       z     vdW  Elec       q    Type
                         _______ _______ _______ _____ _____    ______ ____

>  <TORSDO>
F 2

$$$$
=
 OpenBabel10272413143D

 32 37  0  0  1  0  0  0  0  0999 V2000
  186.8770  178.0220  137.7210 C   0  0  0  0  0  0  0  0  0  0  0  0
  188.4240  177.8000  139.6000 C   0  0  0  0  0  0  0  0  0  0  0  0
  186.6040  177.9930  136.3090 N   0  0  0  0  0  2  0  0  0  0  0  0
  188.1290  177.8200  138.1560 C   0  0  0  0  0  0  0  0  0  0  0  0
  189.6730  177.4920  140.0260 C   0  0  0  0  0  0  0  0  0  0  0  0
  187.1550  177.7850  144.3570 C   0  0  0  0  0  2  0  0  0  0  0  0
  187.3220  178.0830  140.5500 C   0  0  0  0  0  0  0  0  0  0  0  0
  189.4200  178.2600  143.7270 O   0  0  0  0  0  0  0  0  0  0  0  0
  189.1050  178.3030  142.3410 C   0  0  1  0  0  3  0  0  0  0  0  0
  192.0260  176.8550  139.4930 C   0  0  0  0  0  3  0  0  0  0  0  0
  189.2020  177.5280  137.1960 C   0  0  0  0  0  0  0  0  0  0  0  0
  189.9680  177.3550  141.5100 C   0  0  0  0  0  2  0  0  0  0  0  0
  190.4190  177.2170  137.6410 C   0  0  0  0  0  3  0  0  0  0  0  0
  188.9100  177.5320  135.7990 N   0  0  0  0  0  2  0  0  0  0  0  0
  186.0820  178.2650  140.0840 C   0  0  0  0  0  3  0  0  0  0  0  0
  192.9390  176.5880  138.6670 O   0  0  0  0  0  0  0  0  0  0  0  0
  185.8060  178.2180  138.6680 N   0  0  0  0  0  0  0  0  0  0  0  0
  187.6400  178.1450  141.9850 C   0  0  0  0  0  0  0  0  0  0  0  0
  190.7030  177.1890  139.0540 N   0  0  0  0  0  0  0  0  0  0  0  0
  187.6690  178.1300  135.3130 C   0  0  0  0  0  2  0  0  0  0  0  0
  188.6070  177.3210  144.3960 C   0  0  0  0  0  2  0  0  0  0  0  0
  186.7340  177.8730  142.9280 C   0  0  0  0  0  3  0  0  0  0  0  0
  182.6800  178.2840  140.0310 N   0  0  0  0  0  0  0  0  0  0  0  0
  180.9700  177.0240  138.8090 C   0  0  0  0  0  1  0  0  0  0  0  0
  183.3430  176.2110  138.8580 C   0  0  0  0  0  2  0  0  0  0  0  0
  184.4360  178.3870  138.1790 C   0  0  1  0  0  3  0  0  0  0  0  0
  183.8480  177.0600  137.6940 C   0  0  0  0  0  2  0  0  0  0  0  0
  183.5680  179.0610  139.2050 C   0  0  0  0  0  0  0  0  0  0  0  0
  183.6750  180.3030  139.3790 O   0  0  0  0  0  0  0  0  0  0  0  0
  182.2480  176.9450  139.6300 C   0  0  1  0  0  3  0  0  0  0  0  0
  182.9850  178.7310  142.3000 O   0  0  0  0  0  1  0  0  0  0  0  0
  182.0950  178.8630  141.2330 C   0  0  0  0  0  2  0  0  0  0  0  0
  1  4  2  0  0  0  0
  1 17  1  0  0  0  0
  2  5  2  0  0  0  0
  2  7  1  0  0  0  0
  3  1  1  0  0  0  0
  4  2  1  0  0  0  0
  5 12  1  0  0  0  0
  6 21  1  0  0  0  0
  7 18  1  0  0  0  0
  8 21  1  0  0  0  0
  9 12  1  6  0  0  0
  9  8  1  0  0  0  0
 11 13  2  0  0  0  0
 11  4  1  0  0  0  0
 13 19  1  0  0  0  0
 14 11  1  0  0  0  0
 15  7  2  0  0  0  0
 16 10  2  0  0  0  0
 17 15  1  0  0  0  0
 18  9  1  0  0  0  0
 18 22  2  0  0  0  0
 19 10  1  0  0  0  0
 19  5  1  0  0  0  0
 20 14  1  0  0  0  0
 20  3  1  0  0  0  0
 22  6  1  0  0  0  0
 23 32  1  0  0  0  0
 25 30  1  0  0  0  0
 26 27  1  1  0  0  0
 26 17  1  0  0  0  0
 26 28  1  0  0  0  0
 27 25  1  0  0  0  0
 28 29  2  0  0  0  0
 28 23  1  0  0  0  0
 30 24  1  6  0  0  0
 30 23  1  0  0  0  0
 32 31  1  0  0  0  0
M  END
>  <MODEL>
6

>  <REMARK>
 VINA RESULT:      -7.9      2.452      6.118
  Name = 
  2 active torsions:
  status: ('A' for Active; 'I' for Inactive)
    1  A    between atoms: N_3  and  C_19
    2  A    between atoms: C_16  and  N_27
                            x       y       z     vdW  Elec       q    Type
                         _______ _______ _______ _____ _____    ______ ____

>  <TORSDO>
F 2

$$$$
=
 OpenBabel10272413143D

 32 37  0  0  1  0  0  0  0  0999 V2000
  186.3510  178.3780  142.4730 C   0  0  0  0  0  0  0  0  0  0  0  0
  186.0020  178.3820  140.0540 C   0  0  0  0  0  0  0  0  0  0  0  0
  185.8410  178.4650  143.8150 N   0  0  0  0  0  2  0  0  0  0  0  0
  185.5100  178.5120  141.4360 C   0  0  0  0  0  0  0  0  0  0  0  0
  185.1230  178.4170  139.0230 C   0  0  0  0  0  0  0  0  0  0  0  0
  189.4190  177.3130  136.6740 C   0  0  0  0  0  2  0  0  0  0  0  0
  187.4540  178.1770  139.8370 C   0  0  0  0  0  0  0  0  0  0  0  0
  187.4600  178.5440  136.0420 O   0  0  0  0  0  0  0  0  0  0  0  0
  187.0210  178.6810  137.3880 C   0  0  1  0  0  3  0  0  0  0  0  0
  182.7720  178.6150  138.2130 C   0  0  0  0  0  3  0  0  0  0  0  0
  184.0730  178.7010  141.6770 C   0  0  0  0  0  0  0  0  0  0  0  0
  185.5960  178.1710  137.6000 C   0  0  0  0  0  2  0  0  0  0  0  0
  183.2290  178.7200  140.6470 C   0  0  0  0  0  3  0  0  0  0  0  0
  183.5970  178.8110  143.0180 N   0  0  0  0  0  2  0  0  0  0  0  0
  188.2630  178.0320  140.8910 C   0  0  0  0  0  3  0  0  0  0  0  0
  181.5380  178.7590  138.4240 O   0  0  0  0  0  0  0  0  0  0  0  0
  187.7480  178.1020  142.2370 N   0  0  0  0  0  0  0  0  0  0  0  0
  187.9500  178.1330  138.4520 C   0  0  0  0  0  0  0  0  0  0  0  0
  183.7110  178.5840  139.2950 N   0  0  0  0  0  0  0  0  0  0  0  0
  184.5370  179.0600  144.1090 C   0  0  0  0  0  2  0  0  0  0  0  0
  188.1300  177.3170  135.8580 C   0  0  0  0  0  2  0  0  0  0  0  0
  189.0580  177.4660  138.1140 C   0  0  0  0  0  3  0  0  0  0  0  0
  191.0400  177.3410  142.7020 N   0  0  0  0  0  0  0  0  0  0  0  0
  191.5030  175.6830  144.4450 C   0  0  0  0  0  1  0  0  0  0  0  0
  189.4100  175.5180  143.0710 C   0  0  0  0  0  2  0  0  0  0  0  0
  188.6440  177.9080  143.3790 C   0  0  1  0  0  3  0  0  0  0  0  0
  188.5680  176.4750  143.9130 C   0  0  0  0  0  2  0  0  0  0  0  0
  190.0500  178.3260  143.0490 C   0  0  0  0  0  0  0  0  0  0  0  0
  190.3330  179.5530  143.0160 O   0  0  0  0  0  0  0  0  0  0  0  0
  190.8800  175.9370  143.0820 C   0  0  1  0  0  3  0  0  0  0  0  0
  192.1580  177.6470  140.6770 O   0  0  0  0  0  1  0  0  0  0  0  0
  192.2870  177.7410  142.0640 C   0  0  0  0  0  2  0  0  0  0  0  0
  1  3  1  0  0  0  0
  2  4  1  0  0  0  0
  3 20  1  0  0  0  0
  4 11  1  0  0  0  0
  4  1  2  0  0  0  0
  5 19  1  0  0  0  0
  5  2  2  0  0  0  0
  6 22  1  0  0  0  0
  7  2  1  0  0  0  0
  7 15  2  0  0  0  0
  8  9  1  0  0  0  0
  9 12  1  6  0  0  0
  9 18  1  0  0  0  0
 10 16  2  0  0  0  0
 10 19  1  0  0  0  0
 11 14  1  0  0  0  0
 12  5  1  0  0  0  0
 13 11  2  0  0  0  0
 14 20  1  0  0  0  0
 15 17  1  0  0  0  0
 17  1  1  0  0  0  0
 18  7  1  0  0  0  0
 19 13  1  0  0  0  0
 21  8  1  0  0  0  0
 21  6  1  0  0  0  0
 22 18  2  0  0  0  0
 23 28  1  0  0  0  0
 23 30  1  0  0  0  0
 25 30  1  0  0  0  0
 25 27  1  0  0  0  0
 26 17  1  6  0  0  0
 26 27  1  0  0  0  0
 28 26  1  0  0  0  0
 29 28  2  0  0  0  0
 30 24  1  1  0  0  0
 31 32  1  0  0  0  0
 32 23  1  0  0  0  0
M  END
>  <MODEL>
7

>  <REMARK>
 VINA RESULT:      -7.5      2.437      6.394
  Name = 
  2 active torsions:
  status: ('A' for Active; 'I' for Inactive)
    1  A    between atoms: N_3  and  C_19
    2  A    between atoms: C_16  and  N_27
                            x       y       z     vdW  Elec       q    Type
                         _______ _______ _______ _____ _____    ______ ____

>  <TORSDO>
F 2

$$$$
=
 OpenBabel10272413143D

 32 37  0  0  1  0  0  0  0  0999 V2000
  187.1790  178.3800  140.2010 C   0  0  0  0  0  0  0  0  0  0  0  0
  188.2460  177.3850  138.2390 C   0  0  0  0  0  0  0  0  0  0  0  0
  186.0200  178.9130  140.8640 N   0  0  0  0  0  2  0  0  0  0  0  0
  187.0830  177.9760  138.9250 C   0  0  0  0  0  0  0  0  0  0  0  0
  188.1050  176.8870  136.9870 C   0  0  0  0  0  0  0  0  0  0  0  0
  192.8210  175.5700  138.0900 C   0  0  0  0  0  2  0  0  0  0  0  0
  189.5360  177.3180  138.9660 C   0  0  0  0  0  0  0  0  0  0  0  0
  191.7050  176.1630  136.0520 O   0  0  0  0  0  0  0  0  0  0  0  0
  190.6070  176.7550  136.7370 C   0  0  1  0  0  3  0  0  0  0  0  0
  186.6490  176.4160  135.0160 C   0  0  0  0  0  3  0  0  0  0  0  0
  185.7910  178.0380  138.2310 C   0  0  0  0  0  0  0  0  0  0  0  0
  189.2610  176.1720  136.3090 C   0  0  0  0  0  2  0  0  0  0  0  0
  185.6750  177.5320  137.0040 C   0  0  0  0  0  3  0  0  0  0  0  0
  184.6620  178.5970  138.9030 N   0  0  0  0  0  2  0  0  0  0  0  0
  189.5940  177.7150  140.2420 C   0  0  0  0  0  3  0  0  0  0  0  0
  185.5350  176.4550  134.4300 O   0  0  0  0  0  0  0  0  0  0  0  0
  188.4260  178.2340  140.9120 N   0  0  0  0  0  0  0  0  0  0  0  0
  190.7130  176.8050  138.2480 C   0  0  0  0  0  0  0  0  0  0  0  0
  186.8120  176.9450  136.3380 N   0  0  0  0  0  0  0  0  0  0  0  0
  184.8520  179.3850  140.1190 C   0  0  0  0  0  2  0  0  0  0  0  0
  192.2190  175.0710  136.7800 C   0  0  0  0  0  2  0  0  0  0  0  0
  191.7350  176.2230  138.8810 C   0  0  0  0  0  3  0  0  0  0  0  0
  190.1230  177.2130  143.6890 N   0  0  0  0  0  0  0  0  0  0  0  0
  188.7930  177.0610  145.7410 C   0  0  0  0  0  1  0  0  0  0  0  0
  187.7500  176.5380  143.5200 C   0  0  0  0  0  2  0  0  0  0  0  0
  188.5010  178.6320  142.3190 C   0  0  1  0  0  3  0  0  0  0  0  0
  187.3940  177.9760  143.1460 C   0  0  0  0  0  2  0  0  0  0  0  0
  189.8700  178.3810  142.8870 C   0  0  0  0  0  0  0  0  0  0  0  0
  190.8090  179.1700  142.5980 O   0  0  0  0  0  0  0  0  0  0  0  0
  189.0320  176.4960  144.3500 C   0  0  1  0  0  3  0  0  0  0  0  0
  191.6070  175.4130  143.7210 O   0  0  0  0  0  1  0  0  0  0  0  0
  191.4890  176.7830  143.9590 C   0  0  0  0  0  2  0  0  0  0  0  0
  1  3  1  0  0  0  0
  1 17  1  0  0  0  0
  2  4  1  0  0  0  0
  2  7  1  0  0  0  0
  4  1  2  0  0  0  0
  5  2  2  0  0  0  0
  6 22  1  0  0  0  0
  7 15  2  0  0  0  0
  8  9  1  0  0  0  0
  8 21  1  0  0  0  0
  9 12  1  1  0  0  0
  9 18  1  0  0  0  0
 10 19  1  0  0  0  0
 11 14  1  0  0  0  0
 11  4  1  0  0  0  0
 12  5  1  0  0  0  0
 13 11  2  0  0  0  0
 14 20  1  0  0  0  0
 15 17  1  0  0  0  0
 16 10  2  0  0  0  0
 18 22  2  0  0  0  0
 18  7  1  0  0  0  0
 19  5  1  0  0  0  0
 19 13  1  0  0  0  0
 20  3  1  0  0  0  0
 21  6  1  0  0  0  0
 23 32  1  0  0  0  0
 23 30  1  0  0  0  0
 25 30  1  0  0  0  0
 26 17  1  6  0  0  0
 26 28  1  0  0  0  0
 26 27  1  0  0  0  0
 27 25  1  0  0  0  0
 28 23  1  0  0  0  0
 29 28  2  0  0  0  0
 30 24  1  1  0  0  0
 31 32  1  0  0  0  0
M  END
>  <MODEL>
8

>  <REMARK>
 VINA RESULT:      -6.9      2.370      7.706
  Name = 
  2 active torsions:
  status: ('A' for Active; 'I' for Inactive)
    1  A    between atoms: N_3  and  C_19
    2  A    between atoms: C_16  and  N_27
                            x       y       z     vdW  Elec       q    Type
                         _______ _______ _______ _____ _____    ______ ____

>  <TORSDO>
F 2

$$$$
=
 OpenBabel10272413143D

 32 37  0  0  1  0  0  0  0  0999 V2000
  185.9370  178.4920  142.6320 C   0  0  0  0  0  0  0  0  0  0  0  0
  188.2050  177.7110  142.1620 C   0  0  0  0  0  0  0  0  0  0  0  0
  184.9130  178.8890  143.5600 N   0  0  0  0  0  2  0  0  0  0  0  0
  187.1260  178.0800  143.0960 C   0  0  0  0  0  0  0  0  0  0  0  0
  189.4320  177.3970  142.6450 C   0  0  0  0  0  0  0  0  0  0  0  0
  190.2370  177.3640  137.6910 C   0  0  0  0  0  2  0  0  0  0  0  0
  187.9190  177.7320  140.7080 C   0  0  0  0  0  0  0  0  0  0  0  0
  191.1690  176.1310  139.5250 O   0  0  0  0  0  0  0  0  0  0  0  0
  190.1020  176.4770  140.3980 C   0  0  1  0  0  3  0  0  0  0  0  0
  190.9600  177.1040  144.5950 C   0  0  0  0  0  3  0  0  0  0  0  0
  187.3910  178.0800  144.5410 C   0  0  0  0  0  0  0  0  0  0  0  0
  190.5860  177.1250  141.6940 C   0  0  0  0  0  2  0  0  0  0  0  0
  188.6090  177.7790  144.9890 C   0  0  0  0  0  3  0  0  0  0  0  0
  186.3490  178.4530  145.4430 N   0  0  0  0  0  2  0  0  0  0  0  0
  186.7280  178.1620  140.2780 C   0  0  0  0  0  3  0  0  0  0  0  0
  191.1880  177.1220  145.8330 O   0  0  0  0  0  0  0  0  0  0  0  0
  185.7080  178.5780  141.2100 N   0  0  0  0  0  0  0  0  0  0  0  0
  188.9730  177.2820  139.7860 C   0  0  0  0  0  0  0  0  0  0  0  0
  189.6660  177.4270  144.0740 N   0  0  0  0  0  0  0  0  0  0  0  0
  184.9660  178.5160  144.9750 C   0  0  0  0  0  2  0  0  0  0  0  0
  191.4340  177.1790  138.6180 C   0  0  0  0  0  2  0  0  0  0  0  0
  189.0530  177.7220  138.5270 C   0  0  0  0  0  3  0  0  0  0  0  0
  183.0290  177.2940  139.5340 N   0  0  0  0  0  0  0  0  0  0  0  0
  182.1410  178.6970  137.7330 C   0  0  0  0  0  1  0  0  0  0  0  0
  184.6010  178.6860  138.2270 C   0  0  0  0  0  2  0  0  0  0  0  0
  184.4220  179.0780  140.7190 C   0  0  1  0  0  3  0  0  0  0  0  0
  184.5640  179.7300  139.3420 C   0  0  0  0  0  2  0  0  0  0  0  0
  183.3720  178.0010  140.7400 C   0  0  0  0  0  0  0  0  0  0  0  0
  182.8450  177.6800  141.8380 O   0  0  0  0  0  0  0  0  0  0  0  0
  183.3150  177.8600  138.2160 C   0  0  1  0  0  3  0  0  0  0  0  0
  182.6510  175.2190  138.5380 O   0  0  0  0  0  1  0  0  0  0  0  0
  182.2790  176.0470  139.5980 C   0  0  0  0  0  2  0  0  0  0  0  0
  1  4  2  0  0  0  0
  1  3  1  0  0  0  0
  2  5  2  0  0  0  0
  2  4  1  0  0  0  0
  3 20  1  0  0  0  0
  4 11  1  0  0  0  0
  5 19  1  0  0  0  0
  6 22  1  0  0  0  0
  6 21  1  0  0  0  0
  7  2  1  0  0  0  0
  8  9  1  0  0  0  0
  9 12  1  1  0  0  0
 10 16  2  0  0  0  0
 11 13  2  0  0  0  0
 11 14  1  0  0  0  0
 12  5  1  0  0  0  0
 15  7  2  0  0  0  0
 15 17  1  0  0  0  0
 17  1  1  0  0  0  0
 18  9  1  0  0  0  0
 18  7  1  0  0  0  0
 19 10  1  0  0  0  0
 19 13  1  0  0  0  0
 20 14  1  0  0  0  0
 21  8  1  0  0  0  0
 22 18  2  0  0  0  0
 23 32  1  0  0  0  0
 23 28  1  0  0  0  0
 25 27  1  0  0  0  0
 26 27  1  6  0  0  0
 26 28  1  0  0  0  0
 26 17  1  0  0  0  0
 28 29  2  0  0  0  0
 30 24  1  1  0  0  0
 30 25  1  0  0  0  0
 30 23  1  0  0  0  0
 31 32  1  0  0  0  0
M  END
>  <MODEL>
9

>  <REMARK>
 VINA RESULT:      -6.9      2.385      5.458
  Name = 
  2 active torsions:
  status: ('A' for Active; 'I' for Inactive)
    1  A    between atoms: N_3  and  C_19
    2  A    between atoms: C_16  and  N_27
                            x       y       z     vdW  Elec       q    Type
                         _______ _______ _______ _____ _____    ______ ____

>  <TORSDO>
F 2

$$$$
