=
 OpenBabel10272401373D

 55 62  0  0  1  0  0  0  0  0999 V2000
  191.5200  177.6440  142.2390 C   0  0  0  0  0  3  0  0  0  0  0  0
  188.9040  177.1290  143.0940 C   0  0  0  0  0  0  0  0  0  0  0  0
  189.2600  176.9290  141.7560 C   0  0  0  0  0  3  0  0  0  0  0  0
  191.1670  177.8490  143.5730 C   0  0  0  0  0  3  0  0  0  0  0  0
  190.5730  177.1750  141.3240 C   0  0  0  0  0  0  0  0  0  0  0  0
  189.8610  177.5900  144.0000 C   0  0  0  0  0  3  0  0  0  0  0  0
  190.9660  177.0550  139.8850 C   0  0  0  0  0  2  0  0  0  0  0  0
  189.8360  176.5370  139.0100 C   0  0  0  0  0  2  0  0  0  0  0  0
  187.4830  174.9180  135.5510 C   0  0  0  0  0  2  0  0  0  0  0  0
  186.7810  172.7960  134.6460 O   0  0  0  0  0  0  0  0  0  0  0  0
  188.8900  173.8080  137.2530 C   0  0  2  0  0  3  0  0  0  0  0  0
  188.2260  172.8450  136.4560 O   0  0  0  0  0  0  0  0  0  0  0  0
  187.4430  173.4460  135.4960 C   0  0  0  0  0  0  0  0  0  0  0  0
  188.3000  175.1850  136.8230 C   0  0  1  0  0  3  0  0  0  0  0  0
  191.1310  174.8610  137.6920 C   0  0  2  0  0  3  0  0  0  0  0  0
  190.3920  173.7290  136.9800 C   0  0  0  0  0  2  0  0  0  0  0  0
  189.3540  176.1960  136.5730 N   0  0  0  0  0  0  0  0  0  0  0  0
  190.3880  176.2030  137.6270 C   0  0  1  0  0  3  0  0  0  0  0  0
  193.4200  173.9210  137.3370 C   0  0  0  0  0  3  0  0  0  0  0  0
  195.1970  175.2210  136.3070 C   0  0  0  0  0  0  0  0  0  0  0  0
  192.9850  176.1890  136.6010 C   0  0  0  0  0  3  0  0  0  0  0  0
  194.3080  176.2980  136.1610 C   0  0  0  0  0  3  0  0  0  0  0  0
  194.7440  174.0320  136.8970 C   0  0  0  0  0  3  0  0  0  0  0  0
  192.5340  174.9970  137.1890 C   0  0  0  0  0  0  0  0  0  0  0  0
  196.5910  175.3320  135.8460 C   0  0  0  0  0  0  0  0  0  0  0  0
  196.8990  175.0250  134.6610 O   0  0  0  0  0  0  0  0  0  0  0  0
  197.5840  175.7840  136.7130 O   0  0  0  0  0  1  0  0  0  0  0  0
  188.8590  177.5680  136.3270 C   0  0  1  0  0  3  0  0  0  0  0  0
  189.2100  178.0370  134.9250 C   0  0  0  0  0  1  0  0  0  0  0  0
  186.5890  177.9450  135.7720 O   0  0  0  0  0  0  0  0  0  0  0  0
  186.9410  177.9120  138.0900 C   0  0  0  0  0  1  0  0  0  0  0  0
  187.4050  177.8100  136.6720 C   0  0  0  0  0  0  0  0  0  0  0  0
  187.5250  176.8090  143.5760 C   0  0  0  0  0  2  0  0  0  0  0  0
  186.6550  178.0540  143.7050 C   0  0  0  0  0  2  0  0  0  0  0  0
  185.8810  177.9910  145.0100 C   0  0  0  0  0  2  0  0  0  0  0  0
  184.4870  178.5910  144.8430 C   0  0  0  0  0  2  0  0  0  0  0  0
  184.3900  179.4190  143.5670 C   0  0  0  0  0  2  0  0  0  0  0  0
  185.0550  178.4820  140.9560 O   0  0  0  0  0  0  0  0  0  0  0  0
  183.8500  178.4090  141.3160 C   0  0  0  0  0  0  0  0  0  0  0  0
  183.4680  178.7860  142.6370 N   0  0  0  0  0  2  0  0  0  0  0  0
  182.9870  180.4460  138.9840 S   0  0  0  0  0  0  0  0  0  0  0  0
  182.8870  178.2900  137.3060 C   0  0  2  0  0  3  0  0  0  0  0  0
  181.9870  179.0790  139.6100 C   0  0  1  0  0  0  0  0  0  0  0  0
  181.9240  177.0620  140.9560 O   0  0  0  0  0  0  0  0  0  0  0  0
  181.9790  177.4590  136.3970 C   0  0  0  0  0  2  0  0  0  0  0  0
  184.4400  180.2550  138.6440 O   0  0  0  0  0  0  0  0  0  0  0  0
  181.9430  176.2970  138.6920 C   0  0  0  0  0  2  0  0  0  0  0  0
  182.4090  181.8040  138.6880 O   0  0  0  0  0  0  0  0  0  0  0  0
  182.7500  176.7840  137.4990 C   0  0  2  0  0  0  0  0  0  0  0  0
  182.8020  177.9830  140.3360 C   0  0  2  0  0  0  0  0  0  0  0  0
  180.7350  179.5900  140.3020 C   0  0  0  0  0  1  0  0  0  0  0  0
  182.7560  176.5370  139.9550 C   0  0  1  0  0  3  0  0  0  0  0  0
  181.9680  179.1970  138.1380 C   0  0  1  0  0  3  0  0  0  0  0  0
  183.5030  174.6530  136.7000 O   0  0  0  0  0  1  0  0  0  0  0  0
  183.9270  175.9540  137.0050 C   0  0  0  0  0  2  0  0  0  0  0  0
  1  4  1  0  0  0  0
  2 33  1  0  0  0  0
  2  6  1  0  0  0  0
  3  2  2  0  0  0  0
  4  6  2  0  0  0  0
  5  3  1  0  0  0  0
  5  1  2  0  0  0  0
  7  5  1  0  0  0  0
  8  7  1  0  0  0  0
 10 13  2  0  0  0  0
 11 16  1  6  0  0  0
 12 11  1  0  0  0  0
 13  9  1  0  0  0  0
 13 12  1  0  0  0  0
 14  9  1  6  0  0  0
 14 11  1  0  0  0  0
 15 24  1  6  0  0  0
 16 15  1  0  0  0  0
 17 14  1  0  0  0  0
 17 18  1  0  0  0  0
 18 15  1  0  0  0  0
 18  8  1  1  0  0  0
 20 23  1  0  0  0  0
 21 24  2  0  0  0  0
 22 20  2  0  0  0  0
 22 21  1  0  0  0  0
 23 19  2  0  0  0  0
 24 19  1  0  0  0  0
 25 20  1  0  0  0  0
 25 27  1  0  0  0  0
 26 25  2  0  0  0  0
 28 29  1  6  0  0  0
 28 17  1  0  0  0  0
 28 32  1  0  0  0  0
 30 32  2  0  0  0  0
 32 31  1  0  0  0  0
 33 34  1  0  0  0  0
 34 35  1  0  0  0  0
 36 35  1  0  0  0  0
 37 36  1  0  0  0  0
 38 39  2  0  0  0  0
 39 40  1  0  0  0  0
 40 37  1  0  0  0  0
 41 43  1  0  0  0  0
 42 45  1  6  0  0  0
 42 49  1  0  0  0  0
 42 53  1  0  0  0  0
 43 51  1  1  0  0  0
 43 50  1  0  0  0  0
 45 49  1  0  0  0  0
 46 41  2  0  0  0  0
 48 41  2  0  0  0  0
 49 55  1  6  0  0  0
 49 47  1  0  0  0  0
 50 44  1  0  0  0  0
 50 39  1  1  0  0  0
 52 47  1  6  0  0  0
 52 50  1  0  0  0  0
 52 44  1  0  0  0  0
 53 41  1  1  0  0  0
 53 43  1  0  0  0  0
 54 55  1  0  0  0  0
M  END
>  <MODEL>
1

>  <REMARK>
 VINA RESULT:      -7.5      0.000      0.000
  Name = 
  15 active torsions:
  status: ('A' for Active; 'I' for Inactive)
    1  A    between atoms: C_2  and  C_28
    2  A    between atoms: C_2  and  C_44
    3  A    between atoms: C_8  and  N_22
    4  A    between atoms: C_8  and  C_35
    5  A    between atoms: C_10  and  C_32
    6  A    between atoms: C_19  and  C_40
    7  A    between atoms: C_19  and  N_45
    8  A    between atoms: C_20  and  C_42
    9  A    between atoms: C_25  and  C_38
   10  A    between atoms: C_27  and  C_54
   11  A    between atoms: C_28  and  C_49
   12  A    between atoms: C_33  and  C_52
   13  A    between atoms: C_35  and  C_43
   14  A    between atoms: C_43  and  C_51
   15  A    between atoms: C_51  and  C_54
                            x       y       z     vdW  Elec       q    Type
                         _______ _______ _______ _____ _____    ______ ____

>  <TORSDO>
F 15

$$$$
=
 OpenBabel10272401373D

 55 62  0  0  1  0  0  0  0  0999 V2000
  191.6340  176.5750  142.0230 C   0  0  0  0  0  3  0  0  0  0  0  0
  190.3360  177.3040  139.6520 C   0  0  0  0  0  0  0  0  0  0  0  0
  189.6550  176.5730  140.6320 C   0  0  0  0  0  3  0  0  0  0  0  0
  192.3170  177.2980  141.0460 C   0  0  0  0  0  3  0  0  0  0  0  0
  190.2970  176.2140  141.8280 C   0  0  0  0  0  0  0  0  0  0  0  0
  191.6680  177.6630  139.8630 C   0  0  0  0  0  3  0  0  0  0  0  0
  189.6270  175.3610  142.8580 C   0  0  0  0  0  2  0  0  0  0  0  0
  189.7630  175.9230  144.2640 C   0  0  0  0  0  2  0  0  0  0  0  0
  189.2500  178.4270  147.9500 C   0  0  0  0  0  2  0  0  0  0  0  0
  187.8130  178.5720  149.8810 O   0  0  0  0  0  0  0  0  0  0  0  0
  187.8380  176.6660  146.9430 C   0  0  2  0  0  3  0  0  0  0  0  0
  187.3210  177.0540  148.2010 O   0  0  0  0  0  0  0  0  0  0  0  0
  188.0920  178.0420  148.7750 C   0  0  0  0  0  0  0  0  0  0  0  0
  189.2040  177.4040  146.8070 C   0  0  1  0  0  3  0  0  0  0  0  0
  187.4520  176.8430  144.4640 C   0  0  2  0  0  3  0  0  0  0  0  0
  186.8580  177.0910  145.8500 C   0  0  0  0  0  2  0  0  0  0  0  0
  189.3560  178.0710  145.4920 N   0  0  0  0  0  0  0  0  0  0  0  0
  188.9410  177.2050  144.3700 C   0  0  1  0  0  3  0  0  0  0  0  0
  185.2840  177.7210  143.5830 C   0  0  0  0  0  3  0  0  0  0  0  0
  185.1200  178.7890  141.4050 C   0  0  0  0  0  0  0  0  0  0  0  0
  187.2670  177.9770  142.2130 C   0  0  0  0  0  3  0  0  0  0  0  0
  186.5010  178.6020  141.2240 C   0  0  0  0  0  3  0  0  0  0  0  0
  184.5180  178.3440  142.5920 C   0  0  0  0  0  3  0  0  0  0  0  0
  186.6620  177.5360  143.4000 C   0  0  0  0  0  0  0  0  0  0  0  0
  184.3090  179.4450  140.3660 C   0  0  0  0  0  0  0  0  0  0  0  0
  184.8560  179.9140  139.3300 O   0  0  0  0  0  0  0  0  0  0  0  0
  182.9270  179.5490  140.5140 O   0  0  0  0  0  1  0  0  0  0  0  0
  190.6940  178.6440  145.2330 C   0  0  1  0  0  3  0  0  0  0  0  0
  191.7920  177.6330  145.5180 C   0  0  0  0  0  1  0  0  0  0  0  0
  191.9740  179.7080  143.5490 O   0  0  0  0  0  0  0  0  0  0  0  0
  189.7070  179.5530  142.9720 C   0  0  0  0  0  1  0  0  0  0  0  0
  190.8660  179.3220  143.8890 C   0  0  0  0  0  0  0  0  0  0  0  0
  189.6400  177.7440  138.4030 C   0  0  0  0  0  2  0  0  0  0  0  0
  189.3580  176.5820  137.4590 C   0  0  0  0  0  2  0  0  0  0  0  0
  190.5200  176.4260  136.4940 C   0  0  0  0  0  2  0  0  0  0  0  0
  191.0800  175.0060  136.5440 C   0  0  0  0  0  2  0  0  0  0  0  0
  192.0330  174.8290  137.7220 C   0  0  0  0  0  2  0  0  0  0  0  0
  194.3450  176.1510  136.7000 O   0  0  0  0  0  0  0  0  0  0  0  0
  194.3430  174.8910  136.7040 C   0  0  0  0  0  0  0  0  0  0  0  0
  193.2510  174.1730  137.2750 N   0  0  0  0  0  2  0  0  0  0  0  0
  197.1530  174.6440  138.2470 S   0  0  0  0  0  0  0  0  0  0  0  0
  197.2820  172.0660  137.3450 C   0  0  2  0  0  3  0  0  0  0  0  0
  196.9130  174.4810  136.4650 C   0  0  1  0  0  0  0  0  0  0  0  0
  195.3300  174.2250  134.6460 O   0  0  0  0  0  0  0  0  0  0  0  0
  198.0910  171.0810  136.4990 C   0  0  0  0  0  2  0  0  0  0  0  0
  196.2530  173.9320  139.2210 O   0  0  0  0  0  0  0  0  0  0  0  0
  196.3000  172.0600  134.9320 C   0  0  0  0  0  2  0  0  0  0  0  0
  198.3000  175.4130  138.8440 O   0  0  0  0  0  0  0  0  0  0  0  0
  196.6310  171.2940  136.2030 C   0  0  2  0  0  0  0  0  0  0  0  0
  195.4620  174.1400  136.0520 C   0  0  2  0  0  0  0  0  0  0  0  0
  197.6050  175.6070  135.7160 C   0  0  0  0  0  1  0  0  0  0  0  0
  195.1040  172.9590  135.2070 C   0  0  1  0  0  3  0  0  0  0  0  0
  197.8260  173.4680  137.0320 C   0  0  1  0  0  3  0  0  0  0  0  0
  195.3490  169.3950  135.5000 O   0  0  0  0  0  1  0  0  0  0  0  0
  195.7430  170.1320  136.6250 C   0  0  0  0  0  2  0  0  0  0  0  0
  2  6  2  0  0  0  0
  2  3  1  0  0  0  0
  3  5  2  0  0  0  0
  4  1  2  0  0  0  0
  5  1  1  0  0  0  0
  5  7  1  0  0  0  0
  6  4  1  0  0  0  0
  7  8  1  0  0  0  0
  9 13  1  0  0  0  0
 11 16  1  6  0  0  0
 11 12  1  0  0  0  0
 12 13  1  0  0  0  0
 13 10  2  0  0  0  0
 14 11  1  0  0  0  0
 14  9  1  1  0  0  0
 15 24  1  6  0  0  0
 15 16  1  0  0  0  0
 17 14  1  0  0  0  0
 18  8  1  1  0  0  0
 18 15  1  0  0  0  0
 18 17  1  0  0  0  0
 20 23  1  0  0  0  0
 21 24  2  0  0  0  0
 22 20  2  0  0  0  0
 22 21  1  0  0  0  0
 23 19  2  0  0  0  0
 24 19  1  0  0  0  0
 25 27  1  0  0  0  0
 25 20  1  0  0  0  0
 26 25  2  0  0  0  0
 28 17  1  0  0  0  0
 28 29  1  6  0  0  0
 30 32  2  0  0  0  0
 31 32  1  0  0  0  0
 32 28  1  0  0  0  0
 33  2  1  0  0  0  0
 34 33  1  0  0  0  0
 35 36  1  0  0  0  0
 35 34  1  0  0  0  0
 36 37  1  0  0  0  0
 38 39  2  0  0  0  0
 39 40  1  0  0  0  0
 40 37  1  0  0  0  0
 41 48  2  0  0  0  0
 41 46  2  0  0  0  0
 42 45  1  6  0  0  0
 43 51  1  6  0  0  0
 43 53  1  0  0  0  0
 43 41  1  0  0  0  0
 44 52  1  0  0  0  0
 44 50  1  0  0  0  0
 47 49  1  0  0  0  0
 49 45  1  0  0  0  0
 49 55  1  1  0  0  0
 49 42  1  0  0  0  0
 50 43  1  0  0  0  0
 50 39  1  1  0  0  0
 52 47  1  6  0  0  0
 52 50  1  0  0  0  0
 53 42  1  0  0  0  0
 53 41  1  1  0  0  0
 54 55  1  0  0  0  0
M  END
>  <MODEL>
2

>  <REMARK>
 VINA RESULT:      -5.1      3.735     11.601
  Name = 
  15 active torsions:
  status: ('A' for Active; 'I' for Inactive)
    1  A    between atoms: C_2  and  C_28
    2  A    between atoms: C_2  and  C_44
    3  A    between atoms: C_8  and  N_22
    4  A    between atoms: C_8  and  C_35
    5  A    between atoms: C_10  and  C_32
    6  A    between atoms: C_19  and  C_40
    7  A    between atoms: C_19  and  N_45
    8  A    between atoms: C_20  and  C_42
    9  A    between atoms: C_25  and  C_38
   10  A    between atoms: C_27  and  C_54
   11  A    between atoms: C_28  and  C_49
   12  A    between atoms: C_33  and  C_52
   13  A    between atoms: C_35  and  C_43
   14  A    between atoms: C_43  and  C_51
   15  A    between atoms: C_51  and  C_54
                            x       y       z     vdW  Elec       q    Type
                         _______ _______ _______ _____ _____    ______ ____

>  <TORSDO>
F 15

$$$$
