=
 OpenBabel10272400333D

 31 34  0  0  1  0  0  0  0  0999 V2000
  187.4070  178.4420  136.9280 C   0  0  0  0  0  0  0  0  0  0  0  0
  190.6250  177.3450  138.6080 C   0  0  1  0  0  3  0  0  0  0  0  0
  190.9130  175.9730  138.0450 C   0  0  0  0  0  0  0  0  0  0  0  0
  190.6920  173.8340  137.1670 N   0  0  0  0  0  0  0  0  0  0  0  0
  189.1870  177.7490  138.4240 C   0  0  0  0  0  0  0  0  0  0  0  0
  186.4930  178.3850  137.9830 C   0  0  0  0  0  3  0  0  0  0  0  0
  189.8870  174.9590  137.6280 C   0  0  0  0  0  3  0  0  0  0  0  0
  190.0990  176.8120  141.0230 C   0  0  1  0  0  3  0  0  0  0  0  0
  186.9690  178.8190  135.6280 N   0  0  0  0  0  1  0  0  0  0  0  0
  193.4300  177.2860  139.1150 C   0  0  0  0  0  2  0  0  0  0  0  0
  191.9360  174.1380  137.3080 C   0  0  0  0  0  0  0  0  0  0  0  0
  188.6820  177.3870  140.9000 C   0  0  0  0  0  2  0  0  0  0  0  0
  191.0910  177.5020  140.0720 C   0  0  1  0  0  3  0  0  0  0  0  0
  188.7480  178.1260  137.1480 C   0  0  0  0  0  3  0  0  0  0  0  0
  192.9910  173.2520  136.9460 N   0  0  0  0  0  1  0  0  0  0  0  0
  188.2610  177.6830  139.4880 C   0  0  0  0  0  0  0  0  0  0  0  0
  186.9220  178.0140  139.2590 C   0  0  0  0  0  3  0  0  0  0  0  0
  192.5310  177.0210  140.3150 C   0  0  0  0  0  2  0  0  0  0  0  0
  193.4660  176.0830  138.1670 C   0  0  0  0  0  2  0  0  0  0  0  0
  192.1260  175.4620  137.8590 C   0  0  2  0  0  3  0  0  0  0  0  0
  190.5430  176.8170  142.4230 N   0  0  0  0  0  2  0  0  0  0  0  0
  189.7130  177.7080  143.2340 C   0  0  2  0  0  3  0  0  0  0  0  0
  191.7670  178.6750  143.8850 O   0  0  0  0  0  0  0  0  0  0  0  0
  190.5640  178.8230  143.7500 C   0  0  0  0  0  3  0  0  0  0  0  0
  189.1070  176.9180  144.3920 C   0  0  0  0  0  2  0  0  0  0  0  0
  188.7170  177.7160  146.6330 O   0  0  0  0  0  1  0  0  0  0  0  0
  188.2490  177.7790  145.3200 C   0  0  2  0  0  3  0  0  0  0  0  0
  186.7780  177.3910  145.2700 C   0  0  0  0  0  2  0  0  0  0  0  0
  185.9450  178.5820  145.2810 N   0  0  0  0  0  0  0  0  0  0  0  0
  185.0630  178.4730  146.4300 C   0  0  0  0  0  1  0  0  0  0  0  0
  185.0970  178.5100  144.1050 C   0  0  0  0  0  1  0  0  0  0  0  0
  1 14  2  0  0  0  0
  1  6  1  0  0  0  0
  2  3  1  1  0  0  0
  2 13  1  0  0  0  0
  4 11  2  0  0  0  0
  4  7  1  0  0  0  0
  5  2  1  0  0  0  0
  5 16  2  0  0  0  0
  6 17  2  0  0  0  0
  7  3  2  0  0  0  0
  8 21  1  1  0  0  0
  9  1  1  0  0  0  0
 10 18  1  0  0  0  0
 11 20  1  0  0  0  0
 12  8  1  0  0  0  0
 13 18  1  6  0  0  0
 13  8  1  0  0  0  0
 14  5  1  0  0  0  0
 15 11  1  0  0  0  0
 16 12  1  0  0  0  0
 17 16  1  0  0  0  0
 19 10  1  0  0  0  0
 20  3  1  0  0  0  0
 20 19  1  1  0  0  0
 21 22  1  0  0  0  0
 22 24  1  1  0  0  0
 22 25  1  0  0  0  0
 24 23  2  0  0  0  0
 25 27  1  0  0  0  0
 27 26  1  1  0  0  0
 28 29  1  0  0  0  0
 28 27  1  0  0  0  0
 29 30  1  0  0  0  0
 31 29  1  0  0  0  0
M  END
>  <MODEL>
1

>  <REMARK>
 VINA RESULT:      -6.6      0.000      0.000
  Name = 
  7 active torsions:
  status: ('A' for Active; 'I' for Inactive)
    1  A    between atoms: N_1  and  C_24
    2  A    between atoms: C_7  and  CA_9
    3  A    between atoms: C_7  and  C_19
    4  A    between atoms: CA_9  and  C_22
    5  A    between atoms: CA_9  and  N_23
    6  A    between atoms: C_15  and  N_23
    7  A    between atoms: C_19  and  C_24
                            x       y       z     vdW  Elec       q    Type
                         _______ _______ _______ _____ _____    ______ ____

>  <TORSDO>
F 7

$$$$
=
 OpenBabel10272400333D

 31 34  0  0  1  0  0  0  0  0999 V2000
  190.7660  176.5710  143.7960 C   0  0  0  0  0  0  0  0  0  0  0  0
  190.1410  176.2640  140.0680 C   0  0  1  0  0  3  0  0  0  0  0  0
  191.4580  176.6200  139.4190 C   0  0  0  0  0  0  0  0  0  0  0  0
  193.5260  177.5690  138.9510 N   0  0  0  0  0  0  0  0  0  0  0  0
  190.0480  176.7600  141.4860 C   0  0  0  0  0  0  0  0  0  0  0  0
  190.0270  177.7100  144.1220 C   0  0  0  0  0  3  0  0  0  0  0  0
  192.4590  177.6080  139.9450 C   0  0  0  0  0  2  0  0  0  0  0  0
  188.6760  178.2000  139.3630 C   0  0  1  0  0  3  0  0  0  0  0  0
  191.5120  175.8950  144.8000 N   0  0  0  0  0  1  0  0  0  0  0  0
  189.7330  174.9340  137.5780 C   0  0  0  0  0  2  0  0  0  0  0  0
  193.1920  176.7350  138.0280 C   0  0  0  0  0  0  0  0  0  0  0  0
  188.4250  178.6130  140.8190 C   0  0  0  0  0  2  0  0  0  0  0  0
  188.9210  176.6880  139.2220 C   0  0  1  0  0  3  0  0  0  0  0  0
  190.7760  176.0980  142.4830 C   0  0  0  0  0  3  0  0  0  0  0  0
  194.0220  176.4590  136.9030 N   0  0  0  0  0  1  0  0  0  0  0  0
  189.3080  177.9160  141.8160 C   0  0  0  0  0  0  0  0  0  0  0  0
  189.2950  178.3740  143.1360 C   0  0  0  0  0  3  0  0  0  0  0  0
  189.0200  176.2700  137.7450 C   0  0  0  0  0  2  0  0  0  0  0  0
  191.2360  175.1290  137.3530 C   0  0  0  0  0  2  0  0  0  0  0  0
  191.9050  176.1210  138.2710 C   0  0  0  0  0  0  0  0  0  0  0  0
  187.6040  178.6950  138.4890 N   0  0  0  0  0  2  0  0  0  0  0  0
  186.3330  178.0370  138.7940 C   0  0  2  0  0  3  0  0  0  0  0  0
  186.2090  177.8740  136.4410 O   0  0  0  0  0  0  0  0  0  0  0  0
  185.6970  177.6010  137.5140 C   0  0  0  0  0  3  0  0  0  0  0  0
  185.4240  179.0140  139.5360 C   0  0  0  0  0  2  0  0  0  0  0  0
  183.3530  178.3160  140.5530 O   0  0  0  0  0  1  0  0  0  0  0  0
  184.7330  178.3870  140.7480 C   0  0  2  0  0  3  0  0  0  0  0  0
  185.0400  179.1340  142.0380 C   0  0  0  0  0  2  0  0  0  0  0  0
  184.5680  178.3730  143.1830 N   0  0  0  0  0  0  0  0  0  0  0  0
  183.7110  179.2560  143.9550 C   0  0  0  0  0  1  0  0  0  0  0  0
  185.7280  178.1000  144.0120 C   0  0  0  0  0  1  0  0  0  0  0  0
  1  6  1  0  0  0  0
  1  9  1  0  0  0  0
  2  3  1  6  0  0  0
  2  5  1  0  0  0  0
  3  7  1  0  0  0  0
  4  7  1  0  0  0  0
  5 16  2  0  0  0  0
  5 14  1  0  0  0  0
  8 21  1  6  0  0  0
  8 12  1  0  0  0  0
 10 18  1  0  0  0  0
 11 20  1  0  0  0  0
 11  4  2  0  0  0  0
 12 16  1  0  0  0  0
 13 18  1  6  0  0  0
 13  8  1  0  0  0  0
 13  2  1  0  0  0  0
 14  1  2  0  0  0  0
 15 11  1  0  0  0  0
 16 17  1  0  0  0  0
 17  6  2  0  0  0  0
 19 10  1  0  0  0  0
 19 20  1  0  0  0  0
 20  3  2  0  0  0  0
 21 22  1  0  0  0  0
 22 24  1  6  0  0  0
 22 25  1  0  0  0  0
 23 24  2  0  0  0  0
 25 27  1  0  0  0  0
 27 26  1  6  0  0  0
 27 28  1  0  0  0  0
 28 29  1  0  0  0  0
 29 30  1  0  0  0  0
 29 31  1  0  0  0  0
M  END
>  <MODEL>
2

>  <REMARK>
 VINA RESULT:      -6.0      2.834      5.135
  Name = 
  7 active torsions:
  status: ('A' for Active; 'I' for Inactive)
    1  A    between atoms: N_1  and  C_24
    2  A    between atoms: C_7  and  CA_9
    3  A    between atoms: C_7  and  C_19
    4  A    between atoms: CA_9  and  C_22
    5  A    between atoms: CA_9  and  N_23
    6  A    between atoms: C_15  and  N_23
    7  A    between atoms: C_19  and  C_24
                            x       y       z     vdW  Elec       q    Type
                         _______ _______ _______ _____ _____    ______ ____

>  <TORSDO>
F 7

$$$$
=
 OpenBabel10272400333D

 31 34  0  0  1  0  0  0  0  0999 V2000
  183.0420  176.8250  136.0460 C   0  0  0  0  0  0  0  0  0  0  0  0
  186.8290  177.0010  135.9460 C   0  0  1  0  0  3  0  0  0  0  0  0
  187.2910  175.5670  136.0560 C   0  0  0  0  0  0  0  0  0  0  0  0
  187.4530  173.3150  136.6010 N   0  0  0  0  0  0  0  0  0  0  0  0
  185.4120  177.1850  136.4190 C   0  0  0  0  0  0  0  0  0  0  0  0
  182.7580  177.3740  137.2980 C   0  0  0  0  0  3  0  0  0  0  0  0
  186.5990  174.4760  136.8220 C   0  0  0  0  0  2  0  0  0  0  0  0
  187.6210  177.9720  138.1420 C   0  0  1  0  0  3  0  0  0  0  0  0
  181.9840  176.3570  135.2180 N   0  0  0  0  0  1  0  0  0  0  0  0
  189.4090  177.3210  134.7730 C   0  0  0  0  0  2  0  0  0  0  0  0
  188.4480  173.6750  135.8660 C   0  0  0  0  0  0  0  0  0  0  0  0
  186.1900  178.3300  138.5630 C   0  0  0  0  0  2  0  0  0  0  0  0
  187.8000  177.9980  136.6140 C   0  0  1  0  0  3  0  0  0  0  0  0
  184.3640  176.7310  135.6080 C   0  0  0  0  0  3  0  0  0  0  0  0
  189.4720  172.7710  135.4610 N   0  0  0  0  0  1  0  0  0  0  0  0
  185.1240  177.7320  137.6880 C   0  0  0  0  0  0  0  0  0  0  0  0
  183.7960  177.8320  138.1120 C   0  0  0  0  0  3  0  0  0  0  0  0
  189.2700  177.7870  136.2170 C   0  0  0  0  0  2  0  0  0  0  0  0
  189.4360  175.7920  134.6810 C   0  0  0  0  0  2  0  0  0  0  0  0
  188.3960  175.0740  135.5060 C   0  0  0  0  0  0  0  0  0  0  0  0
  188.5980  178.8080  138.8520 N   0  0  0  0  0  2  0  0  0  0  0  0
  189.2400  178.0610  139.9330 C   0  0  2  0  0  3  0  0  0  0  0  0
  190.5030  176.1360  139.4070 O   0  0  0  0  0  0  0  0  0  0  0  0
  189.3950  176.6360  139.5100 C   0  0  0  0  0  3  0  0  0  0  0  0
  188.3790  178.1540  141.1910 C   0  0  0  0  0  2  0  0  0  0  0  0
  187.8630  176.5710  142.9350 O   0  0  0  0  0  1  0  0  0  0  0  0
  188.9010  177.2890  142.3400 C   0  0  2  0  0  3  0  0  0  0  0  0
  189.6380  178.1090  143.3890 C   0  0  0  0  0  2  0  0  0  0  0  0
  191.0290  178.2860  143.0010 N   0  0  0  0  0  0  0  0  0  0  0  0
  191.5930  176.9580  142.8310 C   0  0  0  0  0  1  0  0  0  0  0  0
  191.7090  178.8770  144.1380 C   0  0  0  0  0  1  0  0  0  0  0  0
  1  6  1  0  0  0  0
  2  3  1  1  0  0  0
  2  5  1  0  0  0  0
  2 13  1  0  0  0  0
  3  7  1  0  0  0  0
  4  7  1  0  0  0  0
  5 16  2  0  0  0  0
  6 17  2  0  0  0  0
  8 12  1  0  0  0  0
  8 21  1  1  0  0  0
  9  1  1  0  0  0  0
 10 18  1  0  0  0  0
 11  4  2  0  0  0  0
 13 18  1  1  0  0  0
 13  8  1  0  0  0  0
 14  1  2  0  0  0  0
 14  5  1  0  0  0  0
 15 11  1  0  0  0  0
 16 17  1  0  0  0  0
 16 12  1  0  0  0  0
 19 10  1  0  0  0  0
 19 20  1  0  0  0  0
 20 11  1  0  0  0  0
 20  3  2  0  0  0  0
 21 22  1  0  0  0  0
 22 24  1  6  0  0  0
 22 25  1  0  0  0  0
 23 24  2  0  0  0  0
 25 27  1  0  0  0  0
 27 26  1  1  0  0  0
 27 28  1  0  0  0  0
 29 28  1  0  0  0  0
 29 31  1  0  0  0  0
 30 29  1  0  0  0  0
M  END
>  <MODEL>
3

>  <REMARK>
 VINA RESULT:      -5.9      2.965      4.598
  Name = 
  7 active torsions:
  status: ('A' for Active; 'I' for Inactive)
    1  A    between atoms: N_1  and  C_24
    2  A    between atoms: C_7  and  CA_9
    3  A    between atoms: C_7  and  C_19
    4  A    between atoms: CA_9  and  C_22
    5  A    between atoms: CA_9  and  N_23
    6  A    between atoms: C_15  and  N_23
    7  A    between atoms: C_19  and  C_24
                            x       y       z     vdW  Elec       q    Type
                         _______ _______ _______ _____ _____    ______ ____

>  <TORSDO>
F 7

$$$$
=
 OpenBabel10272400333D

 31 34  0  0  1  0  0  0  0  0999 V2000
  186.5510  177.7310  135.9370 C   0  0  0  0  0  0  0  0  0  0  0  0
  190.0260  176.8780  137.1940 C   0  0  1  0  0  3  0  0  0  0  0  0
  190.1830  175.3980  136.9400 C   0  0  0  0  0  0  0  0  0  0  0  0
  189.7700  173.1280  136.6720 N   0  0  0  0  0  0  0  0  0  0  0  0
  188.5850  177.3110  137.1920 C   0  0  0  0  0  0  0  0  0  0  0  0
  185.8650  177.9800  137.1270 C   0  0  0  0  0  3  0  0  0  0  0  0
  189.0840  174.3760  136.9870 C   0  0  0  0  0  2  0  0  0  0  0  0
  189.9830  176.9680  139.7210 C   0  0  1  0  0  3  0  0  0  0  0  0
  185.8700  177.8120  134.6910 N   0  0  0  0  0  1  0  0  0  0  0  0
  192.8760  176.7780  137.1590 C   0  0  0  0  0  2  0  0  0  0  0  0
  191.0200  173.3830  136.4960 C   0  0  0  0  0  0  0  0  0  0  0  0
  188.5760  177.5800  139.7310 C   0  0  0  0  0  2  0  0  0  0  0  0
  190.7740  177.3530  138.4590 C   0  0  1  0  0  3  0  0  0  0  0  0
  187.9070  177.3980  135.9700 C   0  0  0  0  0  3  0  0  0  0  0  0
  191.9730  172.3760  136.1700 N   0  0  0  0  0  1  0  0  0  0  0  0
  187.8870  177.5550  138.3950 C   0  0  0  0  0  0  0  0  0  0  0  0
  186.5330  177.9000  138.3500 C   0  0  0  0  0  3  0  0  0  0  0  0
  192.2290  176.8590  138.5360 C   0  0  0  0  0  2  0  0  0  0  0  0
  192.7100  175.3830  136.5470 C   0  0  0  0  0  2  0  0  0  0  0  0
  191.3290  174.7860  136.6600 C   0  0  0  0  0  0  0  0  0  0  0  0
  190.6960  177.2810  140.9660 N   0  0  0  0  0  2  0  0  0  0  0  0
  190.4160  176.2810  141.9960 C   0  0  2  0  0  3  0  0  0  0  0  0
  188.3430  175.8210  143.0280 O   0  0  0  0  0  0  0  0  0  0  0  0
  189.1650  176.6660  142.7170 C   0  0  0  0  0  3  0  0  0  0  0  0
  191.5930  176.2140  142.9680 C   0  0  0  0  0  2  0  0  0  0  0  0
  192.0300  178.0610  144.4540 O   0  0  0  0  0  1  0  0  0  0  0  0
  191.2990  176.8810  144.3120 C   0  0  2  0  0  3  0  0  0  0  0  0
  191.5700  175.9540  145.4880 C   0  0  0  0  0  2  0  0  0  0  0  0
  191.7150  176.7250  146.7110 N   0  0  0  0  0  0  0  0  0  0  0  0
  192.3690  175.8630  147.6810 C   0  0  0  0  0  1  0  0  0  0  0  0
  190.3760  176.9670  147.2150 C   0  0  0  0  0  1  0  0  0  0  0  0
  1 14  2  0  0  0  0
  1  6  1  0  0  0  0
  2  3  1  1  0  0  0
  2 13  1  0  0  0  0
  3  7  1  0  0  0  0
  4  7  1  0  0  0  0
  5  2  1  0  0  0  0
  5 16  2  0  0  0  0
  6 17  2  0  0  0  0
  8 12  1  0  0  0  0
  8 21  1  1  0  0  0
  9  1  1  0  0  0  0
 10 18  1  0  0  0  0
 11 20  1  0  0  0  0
 11  4  2  0  0  0  0
 13 18  1  1  0  0  0
 13  8  1  0  0  0  0
 14  5  1  0  0  0  0
 15 11  1  0  0  0  0
 16 12  1  0  0  0  0
 17 16  1  0  0  0  0
 19 20  1  0  0  0  0
 19 10  1  0  0  0  0
 20  3  2  0  0  0  0
 21 22  1  0  0  0  0
 22 24  1  1  0  0  0
 22 25  1  0  0  0  0
 24 23  2  0  0  0  0
 25 27  1  0  0  0  0
 27 26  1  1  0  0  0
 27 28  1  0  0  0  0
 28 29  1  0  0  0  0
 29 31  1  0  0  0  0
 29 30  1  0  0  0  0
M  END
>  <MODEL>
4

>  <REMARK>
 VINA RESULT:      -5.7      2.358      3.013
  Name = 
  7 active torsions:
  status: ('A' for Active; 'I' for Inactive)
    1  A    between atoms: N_1  and  C_24
    2  A    between atoms: C_7  and  CA_9
    3  A    between atoms: C_7  and  C_19
    4  A    between atoms: CA_9  and  C_22
    5  A    between atoms: CA_9  and  N_23
    6  A    between atoms: C_15  and  N_23
    7  A    between atoms: C_19  and  C_24
                            x       y       z     vdW  Elec       q    Type
                         _______ _______ _______ _____ _____    ______ ____

>  <TORSDO>
F 7

$$$$
=
 OpenBabel10272400333D

 31 34  0  0  1  0  0  0  0  0999 V2000
  182.9280  177.1130  135.5890 C   0  0  0  0  0  0  0  0  0  0  0  0
  186.5970  177.2140  136.5400 C   0  0  1  0  0  3  0  0  0  0  0  0
  187.0130  175.7670  136.6560 C   0  0  0  0  0  0  0  0  0  0  0  0
  187.0210  173.4760  137.0390 N   0  0  0  0  0  0  0  0  0  0  0  0
  185.1050  177.3910  136.6220 C   0  0  0  0  0  0  0  0  0  0  0  0
  182.3120  177.5680  136.7560 C   0  0  0  0  0  3  0  0  0  0  0  0
  186.1380  174.6340  137.1120 C   0  0  0  0  0  2  0  0  0  0  0  0
  186.7570  177.9930  138.9410 C   0  0  1  0  0  3  0  0  0  0  0  0
  182.1380  176.7340  134.4680 N   0  0  0  0  0  1  0  0  0  0  0  0
  189.4000  177.5690  136.1470 C   0  0  0  0  0  2  0  0  0  0  0  0
  188.1790  173.8700  136.6350 C   0  0  0  0  0  0  0  0  0  0  0  0
  185.2650  178.3480  138.9830 C   0  0  0  0  0  2  0  0  0  0  0  0
  187.3470  178.1340  137.5270 C   0  0  1  0  0  3  0  0  0  0  0  0
  184.3190  177.0250  135.5220 C   0  0  0  0  0  3  0  0  0  0  0  0
  189.2750  172.9790  136.4530 N   0  0  0  0  0  1  0  0  0  0  0  0
  184.4800  177.8430  137.8050 C   0  0  0  0  0  0  0  0  0  0  0  0
  183.0870  177.9380  137.8570 C   0  0  0  0  0  3  0  0  0  0  0  0
  188.8710  177.9230  137.5310 C   0  0  0  0  0  2  0  0  0  0  0  0
  189.4520  176.0520  135.9410 C   0  0  0  0  0  2  0  0  0  0  0  0
  188.2260  175.2940  136.3900 C   0  0  0  0  0  0  0  0  0  0  0  0
  187.5020  178.7490  139.9560 N   0  0  0  0  0  2  0  0  0  0  0  0
  187.5560  178.0170  141.2210 C   0  0  2  0  0  3  0  0  0  0  0  0
  186.1600  177.9010  143.1210 O   0  0  0  0  0  0  0  0  0  0  0  0
  186.4660  178.5160  142.1140 C   0  0  0  0  0  3  0  0  0  0  0  0
  188.9210  178.2330  141.8710 C   0  0  0  0  0  2  0  0  0  0  0  0
  188.8920  176.0620  142.9190 O   0  0  0  0  0  1  0  0  0  0  0  0
  189.6670  176.9270  142.1460 C   0  0  2  0  0  3  0  0  0  0  0  0
  191.0130  177.1620  142.8160 C   0  0  0  0  0  2  0  0  0  0  0  0
  190.8270  177.8410  144.0890 N   0  0  0  0  0  0  0  0  0  0  0  0
  191.5970  179.0710  144.0300 C   0  0  0  0  0  1  0  0  0  0  0  0
  191.4560  177.0120  145.1010 C   0  0  0  0  0  1  0  0  0  0  0  0
  1  6  1  0  0  0  0
  2  5  1  1  0  0  0
  2  3  1  0  0  0  0
  2 13  1  0  0  0  0
  3  7  1  0  0  0  0
  4  7  1  0  0  0  0
  5 16  2  0  0  0  0
  6 17  2  0  0  0  0
  8 12  1  0  0  0  0
  8 21  1  1  0  0  0
  9  1  1  0  0  0  0
 10 18  1  0  0  0  0
 11  4  2  0  0  0  0
 13 18  1  1  0  0  0
 13  8  1  0  0  0  0
 14  1  2  0  0  0  0
 14  5  1  0  0  0  0
 15 11  1  0  0  0  0
 16 17  1  0  0  0  0
 16 12  1  0  0  0  0
 19 10  1  0  0  0  0
 19 20  1  0  0  0  0
 20 11  1  0  0  0  0
 20  3  2  0  0  0  0
 21 22  1  0  0  0  0
 22 25  1  1  0  0  0
 22 24  1  0  0  0  0
 24 23  2  0  0  0  0
 25 27  1  0  0  0  0
 27 28  1  0  0  0  0
 27 26  1  1  0  0  0
 28 29  1  0  0  0  0
 29 31  1  0  0  0  0
 30 29  1  0  0  0  0
M  END
>  <MODEL>
5

>  <REMARK>
 VINA RESULT:      -5.6      2.887      4.557
  Name = 
  7 active torsions:
  status: ('A' for Active; 'I' for Inactive)
    1  A    between atoms: N_1  and  C_24
    2  A    between atoms: C_7  and  CA_9
    3  A    between atoms: C_7  and  C_19
    4  A    between atoms: CA_9  and  C_22
    5  A    between atoms: CA_9  and  N_23
    6  A    between atoms: C_15  and  N_23
    7  A    between atoms: C_19  and  C_24
                            x       y       z     vdW  Elec       q    Type
                         _______ _______ _______ _____ _____    ______ ____

>  <TORSDO>
F 7

$$$$
=
 OpenBabel10272400333D

 31 34  0  0  1  0  0  0  0  0999 V2000
  183.0380  178.8490  138.4770 C   0  0  0  0  0  0  0  0  0  0  0  0
  186.7590  178.2810  138.0140 C   0  0  1  0  0  3  0  0  0  0  0  0
  186.8750  176.8890  137.4390 C   0  0  0  0  0  0  0  0  0  0  0  0
  186.5130  174.6510  136.9340 N   0  0  0  0  0  0  0  0  0  0  0  0
  185.4320  178.5160  138.6850 C   0  0  0  0  0  0  0  0  0  0  0  0
  182.9100  178.8240  139.8670 C   0  0  0  0  0  3  0  0  0  0  0  0
  185.9590  175.7360  137.7350 C   0  0  0  0  0  2  0  0  0  0  0  0
  187.7910  177.9840  140.3030 C   0  0  1  0  0  3  0  0  0  0  0  0
  181.8870  179.0260  137.6600 N   0  0  0  0  0  1  0  0  0  0  0  0
  189.3230  178.5620  136.7970 C   0  0  0  0  0  2  0  0  0  0  0  0
  187.5530  175.0920  136.3140 C   0  0  0  0  0  0  0  0  0  0  0  0
  186.4910  178.3970  141.0040 C   0  0  0  0  0  2  0  0  0  0  0  0
  187.9460  178.6540  138.9270 C   0  0  1  0  0  3  0  0  0  0  0  0
  184.2940  178.6960  137.8880 C   0  0  0  0  0  3  0  0  0  0  0  0
  188.3310  174.2790  135.4410 N   0  0  0  0  0  1  0  0  0  0  0  0
  185.3010  178.4830  140.0900 C   0  0  0  0  0  0  0  0  0  0  0  0
  184.0390  178.6490  140.6700 C   0  0  0  0  0  3  0  0  0  0  0  0
  189.3200  178.3500  138.3060 C   0  0  0  0  0  2  0  0  0  0  0  0
  188.9900  177.2660  136.0520 C   0  0  0  0  0  2  0  0  0  0  0  0
  187.8240  176.4830  136.6030 C   0  0  0  0  0  0  0  0  0  0  0  0
  188.9480  178.1970  141.1820 N   0  0  0  0  0  2  0  0  0  0  0  0
  189.1910  177.0250  142.0220 C   0  0  2  0  0  3  0  0  0  0  0  0
  187.6740  176.1910  143.6280 O   0  0  0  0  0  0  0  0  0  0  0  0
  188.3540  177.1320  143.2550 C   0  0  0  0  0  3  0  0  0  0  0  0
  190.6730  176.9630  142.3860 C   0  0  0  0  0  2  0  0  0  0  0  0
  191.7050  178.6980  143.7050 O   0  0  0  0  0  1  0  0  0  0  0  0
  190.9700  177.5140  143.7820 C   0  0  2  0  0  3  0  0  0  0  0  0
  191.6990  176.5040  144.6570 C   0  0  0  0  0  2  0  0  0  0  0  0
  191.6510  176.9200  146.0490 N   0  0  0  0  0  0  0  0  0  0  0  0
  192.1360  175.8040  146.8430 C   0  0  0  0  0  1  0  0  0  0  0  0
  190.2500  177.0860  146.3890 C   0  0  0  0  0  1  0  0  0  0  0  0
  1  6  1  0  0  0  0
  2  3  1  1  0  0  0
  2  5  1  0  0  0  0
  2 13  1  0  0  0  0
  3  7  1  0  0  0  0
  4  7  1  0  0  0  0
  5 16  2  0  0  0  0
  6 17  2  0  0  0  0
  8 12  1  0  0  0  0
  8 21  1  1  0  0  0
  9  1  1  0  0  0  0
 10 18  1  0  0  0  0
 11 20  1  0  0  0  0
 11  4  2  0  0  0  0
 13 18  1  6  0  0  0
 13  8  1  0  0  0  0
 14  1  2  0  0  0  0
 14  5  1  0  0  0  0
 15 11  1  0  0  0  0
 16 17  1  0  0  0  0
 16 12  1  0  0  0  0
 19 20  1  0  0  0  0
 19 10  1  0  0  0  0
 20  3  2  0  0  0  0
 21 22  1  0  0  0  0
 22 25  1  1  0  0  0
 22 24  1  0  0  0  0
 24 23  2  0  0  0  0
 25 27  1  0  0  0  0
 27 26  1  6  0  0  0
 27 28  1  0  0  0  0
 28 29  1  0  0  0  0
 29 31  1  0  0  0  0
 29 30  1  0  0  0  0
M  END
>  <MODEL>
6

>  <REMARK>
 VINA RESULT:      -5.5      2.932      4.315
  Name = 
  7 active torsions:
  status: ('A' for Active; 'I' for Inactive)
    1  A    between atoms: N_1  and  C_24
    2  A    between atoms: C_7  and  CA_9
    3  A    between atoms: C_7  and  C_19
    4  A    between atoms: CA_9  and  C_22
    5  A    between atoms: CA_9  and  N_23
    6  A    between atoms: C_15  and  N_23
    7  A    between atoms: C_19  and  C_24
                            x       y       z     vdW  Elec       q    Type
                         _______ _______ _______ _____ _____    ______ ____

>  <TORSDO>
F 7

$$$$
=
 OpenBabel10272400333D

 31 34  0  0  1  0  0  0  0  0999 V2000
  186.0820  177.4690  137.4780 C   0  0  0  0  0  0  0  0  0  0  0  0
  183.5280  178.3710  140.1320 C   0  0  1  0  0  3  0  0  0  0  0  0
  182.7980  179.5740  139.5820 C   0  0  0  0  0  0  0  0  0  0  0  0
  182.2750  181.5440  138.4690 N   0  0  0  0  0  0  0  0  0  0  0  0
  184.8540  178.1470  139.4580 C   0  0  0  0  0  0  0  0  0  0  0  0
  187.2820  177.8300  138.0940 C   0  0  0  0  0  3  0  0  0  0  0  0
  183.3920  180.6370  138.7030 C   0  0  0  0  0  3  0  0  0  0  0  0
  184.7670  179.3710  142.0960 C   0  0  1  0  0  3  0  0  0  0  0  0
  186.0910  176.9440  136.1560 N   0  0  0  0  0  1  0  0  0  0  0  0
  181.1320  178.1200  141.6590 C   0  0  0  0  0  2  0  0  0  0  0  0
  181.2460  181.0970  139.1030 C   0  0  0  0  0  0  0  0  0  0  0  0
  186.1290  178.9880  141.5030 C   0  0  0  0  0  2  0  0  0  0  0  0
  183.6540  178.3990  141.6710 C   0  0  1  0  0  3  0  0  0  0  0  0
  184.8730  177.6260  138.1580 C   0  0  0  0  0  3  0  0  0  0  0  0
  179.9820  181.7530  139.0800 N   0  0  0  0  0  1  0  0  0  0  0  0
  186.0680  178.5200  140.0760 C   0  0  0  0  0  0  0  0  0  0  0  0
  187.2740  178.3470  139.3910 C   0  0  0  0  0  3  0  0  0  0  0  0
  182.3310  178.7080  142.3920 C   0  0  0  0  0  2  0  0  0  0  0  0
  180.5300  179.1300  140.6770 C   0  0  0  0  0  2  0  0  0  0  0  0
  181.5250  179.8720  139.8190 C   0  0  2  0  0  3  0  0  0  0  0  0
  184.8610  179.5390  143.5520 N   0  0  0  0  0  2  0  0  0  0  0  0
  185.3430  178.3160  144.1910 C   0  0  2  0  0  3  0  0  0  0  0  0
  184.0850  178.9910  146.0720 O   0  0  0  0  0  0  0  0  0  0  0  0
  184.5330  178.0620  145.4210 C   0  0  0  0  0  3  0  0  0  0  0  0
  186.8190  178.4810  144.5490 C   0  0  0  0  0  2  0  0  0  0  0  0
  187.4910  177.3370  146.5620 O   0  0  0  0  0  1  0  0  0  0  0  0
  187.4290  177.2250  145.1720 C   0  0  2  0  0  3  0  0  0  0  0  0
  188.8090  176.9150  144.6120 C   0  0  0  0  0  2  0  0  0  0  0  0
  189.1470  177.8620  143.5610 N   0  0  0  0  0  0  0  0  0  0  0  0
  189.3730  177.0900  142.3510 C   0  0  0  0  0  1  0  0  0  0  0  0
  190.4270  178.4460  143.9190 C   0  0  0  0  0  1  0  0  0  0  0  0
  1  6  2  0  0  0  0
  1 14  1  0  0  0  0
  2  5  1  6  0  0  0
  2 13  1  0  0  0  0
  3 20  1  0  0  0  0
  3  2  1  0  0  0  0
  4  7  1  0  0  0  0
  4 11  2  0  0  0  0
  5 16  1  0  0  0  0
  6 17  1  0  0  0  0
  7  3  2  0  0  0  0
  8 21  1  1  0  0  0
  9  1  1  0  0  0  0
 10 18  1  0  0  0  0
 11 20  1  0  0  0  0
 12  8  1  0  0  0  0
 13  8  1  0  0  0  0
 13 18  1  1  0  0  0
 14  5  2  0  0  0  0
 15 11  1  0  0  0  0
 16 12  1  0  0  0  0
 17 16  2  0  0  0  0
 19 10  1  0  0  0  0
 20 19  1  1  0  0  0
 21 22  1  0  0  0  0
 22 25  1  1  0  0  0
 22 24  1  0  0  0  0
 24 23  2  0  0  0  0
 25 27  1  0  0  0  0
 27 26  1  1  0  0  0
 28 27  1  0  0  0  0
 29 31  1  0  0  0  0
 29 28  1  0  0  0  0
 30 29  1  0  0  0  0
M  END
>  <MODEL>
7

>  <REMARK>
 VINA RESULT:      -5.5      3.406      7.529
  Name = 
  7 active torsions:
  status: ('A' for Active; 'I' for Inactive)
    1  A    between atoms: N_1  and  C_24
    2  A    between atoms: C_7  and  CA_9
    3  A    between atoms: C_7  and  C_19
    4  A    between atoms: CA_9  and  C_22
    5  A    between atoms: CA_9  and  N_23
    6  A    between atoms: C_15  and  N_23
    7  A    between atoms: C_19  and  C_24
                            x       y       z     vdW  Elec       q    Type
                         _______ _______ _______ _____ _____    ______ ____

>  <TORSDO>
F 7

$$$$
=
 OpenBabel10272400333D

 31 34  0  0  1  0  0  0  0  0999 V2000
  181.1350  178.7880  143.5770 C   0  0  0  0  0  0  0  0  0  0  0  0
  181.7530  178.6980  139.8370 C   0  0  1  0  0  3  0  0  0  0  0  0
  181.3260  177.3160  139.4020 C   0  0  0  0  0  0  0  0  0  0  0  0
  180.8890  175.0350  139.3410 N   0  0  0  0  0  0  0  0  0  0  0  0
  182.0150  178.7780  141.3170 C   0  0  0  0  0  0  0  0  0  0  0  0
  182.4350  178.7900  144.0870 C   0  0  0  0  0  3  0  0  0  0  0  0
  181.4320  176.0630  140.2220 C   0  0  0  0  0  2  0  0  0  0  0  0
  184.2520  178.6080  139.4630 C   0  0  1  0  0  3  0  0  0  0  0  0
  180.0230  178.7880  144.4640 N   0  0  0  0  0  1  0  0  0  0  0  0
  181.2740  179.2750  137.0850 C   0  0  0  0  0  2  0  0  0  0  0  0
  180.5520  175.5890  138.2280 C   0  0  0  0  0  0  0  0  0  0  0  0
  184.5390  178.8690  140.9470 C   0  0  0  0  0  2  0  0  0  0  0  0
  182.9310  179.2510  139.0060 C   0  0  1  0  0  3  0  0  0  0  0  0
  180.9260  178.7830  142.1970 C   0  0  0  0  0  3  0  0  0  0  0  0
  179.9820  174.8590  137.1470 N   0  0  0  0  0  1  0  0  0  0  0  0
  183.3290  178.7710  141.8340 C   0  0  0  0  0  0  0  0  0  0  0  0
  183.5270  178.7880  143.2170 C   0  0  0  0  0  3  0  0  0  0  0  0
  182.7340  179.1100  137.4880 C   0  0  0  0  0  2  0  0  0  0  0  0
  180.5520  177.9240  137.0410 C   0  0  0  0  0  2  0  0  0  0  0  0
  180.8120  177.0120  138.2140 C   0  0  0  0  0  0  0  0  0  0  0  0
  185.4000  178.9970  138.6340 N   0  0  0  0  0  2  0  0  0  0  0  0
  186.1760  177.8260  138.2290 C   0  0  2  0  0  3  0  0  0  0  0  0
  188.2080  178.9830  137.8990 O   0  0  0  0  0  0  0  0  0  0  0  0
  187.6230  178.0910  138.4920 C   0  0  0  0  0  3  0  0  0  0  0  0
  185.9440  177.5540  136.7450 C   0  0  0  0  0  2  0  0  0  0  0  0
  184.0810  176.0580  137.0710 O   0  0  0  0  0  1  0  0  0  0  0  0
  185.3380  176.1750  136.4760 C   0  0  2  0  0  3  0  0  0  0  0  0
  186.2450  175.0460  136.9440 C   0  0  0  0  0  2  0  0  0  0  0  0
  185.8250  173.7880  136.3490 N   0  0  0  0  0  0  0  0  0  0  0  0
  185.6060  172.8550  137.4410 C   0  0  0  0  0  1  0  0  0  0  0  0
  186.9600  173.2800  135.5990 C   0  0  0  0  0  1  0  0  0  0  0  0
  1  6  1  0  0  0  0
  1  9  1  0  0  0  0
  2  3  1  6  0  0  0
  2  5  1  0  0  0  0
  3  7  1  0  0  0  0
  4  7  1  0  0  0  0
  5 16  2  0  0  0  0
  5 14  1  0  0  0  0
  8 21  1  6  0  0  0
  8 12  1  0  0  0  0
 10 18  1  0  0  0  0
 11  4  2  0  0  0  0
 12 16  1  0  0  0  0
 13 18  1  6  0  0  0
 13  8  1  0  0  0  0
 13  2  1  0  0  0  0
 14  1  2  0  0  0  0
 15 11  1  0  0  0  0
 16 17  1  0  0  0  0
 17  6  2  0  0  0  0
 19 10  1  0  0  0  0
 19 20  1  0  0  0  0
 20 11  1  0  0  0  0
 20  3  2  0  0  0  0
 22 25  1  6  0  0  0
 22 24  1  0  0  0  0
 22 21  1  0  0  0  0
 23 24  2  0  0  0  0
 27 25  1  0  0  0  0
 27 28  1  0  0  0  0
 27 26  1  1  0  0  0
 29 28  1  0  0  0  0
 29 30  1  0  0  0  0
 31 29  1  0  0  0  0
M  END
>  <MODEL>
8

>  <REMARK>
 VINA RESULT:      -5.4      5.016      9.275
  Name = 
  7 active torsions:
  status: ('A' for Active; 'I' for Inactive)
    1  A    between atoms: N_1  and  C_24
    2  A    between atoms: C_7  and  CA_9
    3  A    between atoms: C_7  and  C_19
    4  A    between atoms: CA_9  and  C_22
    5  A    between atoms: CA_9  and  N_23
    6  A    between atoms: C_15  and  N_23
    7  A    between atoms: C_19  and  C_24
                            x       y       z     vdW  Elec       q    Type
                         _______ _______ _______ _____ _____    ______ ____

>  <TORSDO>
F 7

$$$$
=
 OpenBabel10272400333D

 31 34  0  0  1  0  0  0  0  0999 V2000
  183.1830  173.3970  136.9640 C   0  0  0  0  0  0  0  0  0  0  0  0
  183.3520  177.0320  138.0330 C   0  0  1  0  0  3  0  0  0  0  0  0
  182.4840  177.7730  137.0430 C   0  0  0  0  0  0  0  0  0  0  0  0
  181.3750  178.4360  135.1130 N   0  0  0  0  0  0  0  0  0  0  0  0
  183.7780  175.6820  137.5230 C   0  0  0  0  0  0  0  0  0  0  0  0
  184.4670  173.1810  136.4630 C   0  0  0  0  0  3  0  0  0  0  0  0
  182.2920  177.4110  135.5980 C   0  0  0  0  0  3  0  0  0  0  0  0
  185.6540  177.9060  137.4580 C   0  0  1  0  0  3  0  0  0  0  0  0
  182.2210  172.3500  136.9330 N   0  0  0  0  0  1  0  0  0  0  0  0
  182.7860  179.3240  139.6330 C   0  0  0  0  0  2  0  0  0  0  0  0
  181.1070  179.2380  136.0850 C   0  0  0  0  0  0  0  0  0  0  0  0
  186.1590  176.5010  137.1040 C   0  0  0  0  0  2  0  0  0  0  0  0
  184.5490  177.8730  138.5270 C   0  0  1  0  0  3  0  0  0  0  0  0
  182.8400  174.6430  137.4930 C   0  0  0  0  0  3  0  0  0  0  0  0
  180.2340  180.3540  135.9450 N   0  0  0  0  0  1  0  0  0  0  0  0
  185.0750  175.4640  137.0080 C   0  0  0  0  0  0  0  0  0  0  0  0
  185.4110  174.2100  136.4920 C   0  0  0  0  0  3  0  0  0  0  0  0
  184.1620  179.2910  138.9790 C   0  0  0  0  0  2  0  0  0  0  0  0
  181.6890  179.6330  138.6080 C   0  0  0  0  0  2  0  0  0  0  0  0
  181.7820  178.8690  137.3100 C   0  0  2  0  0  3  0  0  0  0  0  0
  186.7730  178.7880  137.8120 N   0  0  0  0  0  2  0  0  0  0  0  0
  187.8250  178.0490  138.5090 C   0  0  2  0  0  3  0  0  0  0  0  0
  188.6850  178.1030  140.7070 O   0  0  0  0  0  0  0  0  0  0  0  0
  187.7510  178.3650  139.9680 C   0  0  0  0  0  3  0  0  0  0  0  0
  189.1850  178.4500  137.9430 C   0  0  0  0  0  2  0  0  0  0  0  0
  189.5460  177.1410  135.9510 O   0  0  0  0  0  1  0  0  0  0  0  0
  189.9280  177.2860  137.2860 C   0  0  2  0  0  3  0  0  0  0  0  0
  189.7230  175.9760  138.0330 C   0  0  0  0  0  2  0  0  0  0  0  0
  191.0060  175.4200  138.4310 N   0  0  0  0  0  0  0  0  0  0  0  0
  191.9480  176.5250  138.4860 C   0  0  0  0  0  1  0  0  0  0  0  0
  191.4450  174.5620  137.3450 C   0  0  0  0  0  1  0  0  0  0  0  0
  1 14  1  0  0  0  0
  2  3  1  6  0  0  0
  2 13  1  0  0  0  0
  3 20  1  0  0  0  0
  4  7  1  0  0  0  0
  4 11  2  0  0  0  0
  5  2  1  0  0  0  0
  6 17  1  0  0  0  0
  6  1  2  0  0  0  0
  7  3  2  0  0  0  0
  8 21  1  1  0  0  0
  8 13  1  0  0  0  0
  9  1  1  0  0  0  0
 11 20  1  0  0  0  0
 12  8  1  0  0  0  0
 13 18  1  6  0  0  0
 14  5  2  0  0  0  0
 15 11  1  0  0  0  0
 16 12  1  0  0  0  0
 16  5  1  0  0  0  0
 17 16  2  0  0  0  0
 18 10  1  0  0  0  0
 19 10  1  0  0  0  0
 20 19  1  6  0  0  0
 21 22  1  0  0  0  0
 22 25  1  6  0  0  0
 22 24  1  0  0  0  0
 24 23  2  0  0  0  0
 27 26  1  6  0  0  0
 27 25  1  0  0  0  0
 27 28  1  0  0  0  0
 28 29  1  0  0  0  0
 29 30  1  0  0  0  0
 31 29  1  0  0  0  0
M  END
>  <MODEL>
9

>  <REMARK>
 VINA RESULT:      -5.4      4.278      8.423
  Name = 
  7 active torsions:
  status: ('A' for Active; 'I' for Inactive)
    1  A    between atoms: N_1  and  C_24
    2  A    between atoms: C_7  and  CA_9
    3  A    between atoms: C_7  and  C_19
    4  A    between atoms: CA_9  and  C_22
    5  A    between atoms: CA_9  and  N_23
    6  A    between atoms: C_15  and  N_23
    7  A    between atoms: C_19  and  C_24
                            x       y       z     vdW  Elec       q    Type
                         _______ _______ _______ _____ _____    ______ ____

>  <TORSDO>
F 7

$$$$
