=
 OpenBabel10272401073D

 27 31  0  0  1  0  0  0  0  0999 V2000
  187.0400  177.1740  143.7100 N   0  0  0  0  0  2  0  0  0  0  0  0
  185.4060  179.0120  144.3050 C   0  0  2  0  0  3  0  0  0  0  0  0
  186.9900  179.0460  141.4410 N   0  0  0  0  0  2  0  0  0  0  0  0
  182.7180  178.5740  142.1560 C   0  0  0  0  0  2  0  0  0  0  0  0
  184.4450  178.2260  143.5540 C   0  0  2  0  0  3  0  0  0  0  0  0
  184.5320  179.2020  140.2790 S   0  0  0  0  0  0  0  0  0  0  0  0
  190.1100  177.1280  140.8070 C   0  0  0  0  0  0  0  0  0  0  0  0
  191.1840  177.1340  139.8740 N   0  0  0  0  0  1  0  0  0  0  0  0
  185.1170  179.3850  142.9040 N   0  0  2  0  0  0  0  0  0  0  0  0
  186.8170  178.4140  144.4490 C   0  0  1  0  0  3  0  0  0  0  0  0
  182.9120  178.5810  140.8670 C   0  0  1  0  0  3  0  0  0  0  0  0
  188.0060  177.1230  142.6580 C   0  0  0  0  0  0  0  0  0  0  0  0
  185.6030  178.6960  141.7100 C   0  0  2  0  0  3  0  0  0  0  0  0
  189.1180  178.1080  140.7360 C   0  0  0  0  0  3  0  0  0  0  0  0
  182.9920  178.5390  143.4300 C   0  0  0  0  0  2  0  0  0  0  0  0
  190.0340  176.1260  141.7760 C   0  0  0  0  0  3  0  0  0  0  0  0
  188.9870  176.1280  142.7020 C   0  0  0  0  0  3  0  0  0  0  0  0
  188.0520  178.1080  141.6420 C   0  0  0  0  0  0  0  0  0  0  0  0
  187.8680  177.8670  148.5760 C   0  0  0  0  0  3  0  0  0  0  0  0
  187.1730  178.2310  145.8890 C   0  0  0  0  0  0  0  0  0  0  0  0
  188.3190  177.5040  146.2240 C   0  0  0  0  0  3  0  0  0  0  0  0
  188.6670  177.3210  147.5670 C   0  0  0  0  0  3  0  0  0  0  0  0
  186.7220  178.5930  148.2450 C   0  0  0  0  0  3  0  0  0  0  0  0
  186.3720  178.7760  146.9040 C   0  0  0  0  0  3  0  0  0  0  0  0
  180.6950  177.4900  140.6320 C   0  0  0  0  0  1  0  0  0  0  0  0
  182.7330  176.3960  139.7290 C   0  0  0  0  0  1  0  0  0  0  0  0
  182.0530  177.7240  139.9970 C   0  0  0  0  0  3  0  0  0  0  0  0
  1 10  1  0  0  0  0
  2 10  1  0  0  0  0
  3 18  1  0  0  0  0
  3 13  1  0  0  0  0
  4 15  1  0  0  0  0
  5  2  1  0  0  0  0
  6 11  1  0  0  0  0
  6 13  1  0  0  0  0
  7 16  1  0  0  0  0
  8  7  1  0  0  0  0
  9  5  1  0  0  0  0
  9  2  1  0  0  0  0
 10 20  1  0  0  0  0
 11  4  1  0  0  0  0
 12 17  1  0  0  0  0
 12  1  1  0  0  0  0
 13  9  1  0  0  0  0
 14  7  2  0  0  0  0
 14 18  1  0  0  0  0
 15  5  1  0  0  0  0
 16 17  2  0  0  0  0
 18 12  2  0  0  0  0
 20 21  2  0  0  0  0
 20 24  1  0  0  0  0
 21 22  1  0  0  0  0
 22 19  2  0  0  0  0
 23 19  1  0  0  0  0
 24 23  2  0  0  0  0
 26 27  1  0  0  0  0
 27 25  1  0  0  0  0
 27 11  1  0  0  0  0
M  END
>  <MODEL>
1

>  <REMARK>
 VINA RESULT:      -8.9      0.000      0.000
  Name = 
  2 active torsions:
  status: ('A' for Active; 'I' for Inactive)
    1  A    between atoms: C_9  and  C_15
    2  A    between atoms: C_16  and  C_17
                            x       y       z     vdW  Elec       q    Type
                         _______ _______ _______ _____ _____    ______ ____

>  <TORSDO>
F 2

$$$$
=
 OpenBabel10272401073D

 27 31  0  0  1  0  0  0  0  0999 V2000
  186.9720  177.2630  143.0540 N   0  0  0  0  0  2  0  0  0  0  0  0
  185.1710  179.0270  143.2740 C   0  0  2  0  0  3  0  0  0  0  0  0
  187.1790  179.0020  140.6890 N   0  0  0  0  0  2  0  0  0  0  0  0
  182.8780  178.3070  140.7730 C   0  0  0  0  0  2  0  0  0  0  0  0
  184.3820  178.1440  142.4370 C   0  0  2  0  0  3  0  0  0  0  0  0
  184.9260  178.9430  139.1590 S   0  0  0  0  0  0  0  0  0  0  0  0
  190.4560  177.2480  140.6610 C   0  0  0  0  0  0  0  0  0  0  0  0
  191.6600  177.2700  139.9040 N   0  0  0  0  0  1  0  0  0  0  0  0
  185.0850  179.3050  141.8250 N   0  0  2  0  0  0  0  0  0  0  0  0
  186.5720  178.5250  143.6700 C   0  0  1  0  0  3  0  0  0  0  0  0
  183.2690  178.2560  139.5310 C   0  0  1  0  0  3  0  0  0  0  0  0
  188.0920  177.2150  142.1670 C   0  0  0  0  0  0  0  0  0  0  0  0
  185.7870  178.5830  140.7650 C   0  0  2  0  0  3  0  0  0  0  0  0
  189.4370  178.1600  140.3770 C   0  0  0  0  0  3  0  0  0  0  0  0
  182.9510  178.3600  142.0740 C   0  0  0  0  0  2  0  0  0  0  0  0
  190.2820  176.2980  141.6690 C   0  0  0  0  0  3  0  0  0  0  0  0
  189.1050  176.2860  142.4220 C   0  0  0  0  0  3  0  0  0  0  0  0
  188.2440  178.1440  141.1090 C   0  0  0  0  0  0  0  0  0  0  0  0
  186.9330  178.3140  147.9430 C   0  0  0  0  0  3  0  0  0  0  0  0
  186.7090  178.4440  145.1550 C   0  0  0  0  0  0  0  0  0  0  0  0
  185.7150  179.0010  145.9660 C   0  0  0  0  0  3  0  0  0  0  0  0
  185.8260  178.9370  147.3590 C   0  0  0  0  0  3  0  0  0  0  0  0
  187.9290  177.7560  147.1360 C   0  0  0  0  0  3  0  0  0  0  0  0
  187.8190  177.8210  145.7450 C   0  0  0  0  0  3  0  0  0  0  0  0
  181.5390  176.4920  139.3120 C   0  0  0  0  0  1  0  0  0  0  0  0
  183.6260  176.3730  137.9740 C   0  0  0  0  0  1  0  0  0  0  0  0
  182.6030  177.3010  138.5960 C   0  0  0  0  0  3  0  0  0  0  0  0
  1 10  1  0  0  0  0
  2 10  1  0  0  0  0
  3 13  1  0  0  0  0
  3 18  1  0  0  0  0
  4 15  1  0  0  0  0
  5  2  1  0  0  0  0
  6 11  1  0  0  0  0
  6 13  1  0  0  0  0
  7 16  1  0  0  0  0
  8  7  1  0  0  0  0
  9  5  1  0  0  0  0
  9  2  1  0  0  0  0
 10 20  1  0  0  0  0
 11  4  1  0  0  0  0
 12 17  1  0  0  0  0
 12  1  1  0  0  0  0
 13  9  1  0  0  0  0
 14  7  2  0  0  0  0
 14 18  1  0  0  0  0
 15  5  1  0  0  0  0
 16 17  2  0  0  0  0
 18 12  2  0  0  0  0
 20 24  2  0  0  0  0
 20 21  1  0  0  0  0
 21 22  2  0  0  0  0
 22 19  1  0  0  0  0
 23 19  2  0  0  0  0
 24 23  1  0  0  0  0
 26 27  1  0  0  0  0
 27 25  1  0  0  0  0
 27 11  1  0  0  0  0
M  END
>  <MODEL>
2

>  <REMARK>
 VINA RESULT:      -8.2      0.923      1.422
  Name = 
  2 active torsions:
  status: ('A' for Active; 'I' for Inactive)
    1  A    between atoms: C_9  and  C_15
    2  A    between atoms: C_16  and  C_17
                            x       y       z     vdW  Elec       q    Type
                         _______ _______ _______ _____ _____    ______ ____

>  <TORSDO>
F 2

$$$$
=
 OpenBabel10272401073D

 27 31  0  0  1  0  0  0  0  0999 V2000
  186.5250  177.4280  142.3340 N   0  0  0  0  0  2  0  0  0  0  0  0
  185.5240  178.9570  140.5840 C   0  0  2  0  0  3  0  0  0  0  0  0
  188.7550  178.9030  141.1060 N   0  0  0  0  0  2  0  0  0  0  0  0
  186.5760  177.6720  137.5390 C   0  0  0  0  0  2  0  0  0  0  0  0
  185.8430  177.8910  139.6530 C   0  0  2  0  0  3  0  0  0  0  0  0
  189.0010  178.3830  138.4430 S   0  0  0  0  0  0  0  0  0  0  0  0
  190.3020  177.5960  144.2220 C   0  0  0  0  0  0  0  0  0  0  0  0
  191.5470  177.6890  144.9030 N   0  0  0  0  0  1  0  0  0  0  0  0
  186.7590  179.0580  139.7790 N   0  0  2  0  0  0  0  0  0  0  0  0
  185.8370  178.6880  142.0670 C   0  0  1  0  0  3  0  0  0  0  0  0
  187.8500  177.5330  137.3000 C   0  0  1  0  0  3  0  0  0  0  0  0
  187.8400  177.4260  142.8920 C   0  0  0  0  0  0  0  0  0  0  0  0
  188.0000  178.3180  140.0070 C   0  0  2  0  0  3  0  0  0  0  0  0
  190.0890  178.3310  143.0540 C   0  0  0  0  0  3  0  0  0  0  0  0
  185.4760  177.8780  138.2070 C   0  0  0  0  0  2  0  0  0  0  0  0
  189.3030  176.7500  144.7060 C   0  0  0  0  0  3  0  0  0  0  0  0
  188.0740  176.6700  144.0450 C   0  0  0  0  0  3  0  0  0  0  0  0
  188.8720  178.2420  142.3690 C   0  0  0  0  0  0  0  0  0  0  0  0
  182.3060  178.9840  144.4920 C   0  0  0  0  0  3  0  0  0  0  0  0
  184.6020  178.7920  142.9000 C   0  0  0  0  0  0  0  0  0  0  0  0
  184.7180  178.8790  144.2910 C   0  0  0  0  0  3  0  0  0  0  0  0
  183.5710  178.9740  145.0870 C   0  0  0  0  0  3  0  0  0  0  0  0
  182.1860  178.8970  143.1030 C   0  0  0  0  0  3  0  0  0  0  0  0
  183.3300  178.8010  142.3060 C   0  0  0  0  0  3  0  0  0  0  0  0
  187.9640  175.0650  137.0690 C   0  0  0  0  0  1  0  0  0  0  0  0
  189.8060  176.4910  136.2100 C   0  0  0  0  0  1  0  0  0  0  0  0
  188.3110  176.4020  136.4410 C   0  0  0  0  0  3  0  0  0  0  0  0
  1 12  1  0  0  0  0
  2 10  1  0  0  0  0
  3 18  1  0  0  0  0
  4 15  1  0  0  0  0
  5  9  1  0  0  0  0
  5  2  1  0  0  0  0
  6 13  1  0  0  0  0
  7 16  1  0  0  0  0
  7  8  1  0  0  0  0
  9 13  1  0  0  0  0
  9  2  1  0  0  0  0
 10  1  1  0  0  0  0
 10 20  1  0  0  0  0
 11  4  1  0  0  0  0
 11  6  1  0  0  0  0
 12 17  1  0  0  0  0
 13  3  1  0  0  0  0
 14  7  2  0  0  0  0
 15  5  1  0  0  0  0
 17 16  2  0  0  0  0
 18 12  2  0  0  0  0
 18 14  1  0  0  0  0
 19 22  1  0  0  0  0
 20 21  1  0  0  0  0
 21 22  2  0  0  0  0
 23 19  2  0  0  0  0
 24 20  2  0  0  0  0
 24 23  1  0  0  0  0
 26 27  1  0  0  0  0
 27 25  1  0  0  0  0
 27 11  1  0  0  0  0
M  END
>  <MODEL>
3

>  <REMARK>
 VINA RESULT:      -7.5      2.714      4.864
  Name = 
  2 active torsions:
  status: ('A' for Active; 'I' for Inactive)
    1  A    between atoms: C_9  and  C_15
    2  A    between atoms: C_16  and  C_17
                            x       y       z     vdW  Elec       q    Type
                         _______ _______ _______ _____ _____    ______ ____

>  <TORSDO>
F 2

$$$$
=
 OpenBabel10272401073D

 27 31  0  0  1  0  0  0  0  0999 V2000
  188.9580  175.9920  138.0500 N   0  0  0  0  0  2  0  0  0  0  0  0
  190.4870  177.5520  139.3270 C   0  0  2  0  0  3  0  0  0  0  0  0
  187.3650  178.3580  138.7680 N   0  0  0  0  0  2  0  0  0  0  0  0
  189.2960  177.5320  142.5850 C   0  0  0  0  0  2  0  0  0  0  0  0
  189.9220  176.9310  140.5100 C   0  0  2  0  0  3  0  0  0  0  0  0
  187.1460  178.6840  141.4630 S   0  0  0  0  0  0  0  0  0  0  0  0
  185.2950  176.7990  136.1040 C   0  0  0  0  0  0  0  0  0  0  0  0
  184.0940  177.0820  135.3950 N   0  0  0  0  0  1  0  0  0  0  0  0
  189.3950  178.2440  140.0440 N   0  0  2  0  0  0  0  0  0  0  0  0
  190.0110  177.0010  137.9710 C   0  0  1  0  0  3  0  0  0  0  0  0
  188.0580  177.8640  142.8240 C   0  0  1  0  0  3  0  0  0  0  0  0
  187.6700  176.2450  137.4840 C   0  0  0  0  0  0  0  0  0  0  0  0
  187.9770  177.8910  140.0020 C   0  0  2  0  0  3  0  0  0  0  0  0
  185.7950  177.7200  137.0260 C   0  0  0  0  0  3  0  0  0  0  0  0
  190.3610  177.1990  141.9110 C   0  0  0  0  0  2  0  0  0  0  0  0
  185.9570  175.5870  135.8970 C   0  0  0  0  0  3  0  0  0  0  0  0
  187.1450  175.3150  136.5820 C   0  0  0  0  0  3  0  0  0  0  0  0
  186.9700  177.4490  137.7350 C   0  0  0  0  0  0  0  0  0  0  0  0
  193.3460  175.5350  135.6990 C   0  0  0  0  0  3  0  0  0  0  0  0
  191.1630  176.4880  137.1710 C   0  0  0  0  0  0  0  0  0  0  0  0
  192.4330  176.4320  137.7550 C   0  0  0  0  0  3  0  0  0  0  0  0
  193.5240  175.9560  137.0200 C   0  0  0  0  0  3  0  0  0  0  0  0
  192.0800  175.5890  135.1120 C   0  0  0  0  0  3  0  0  0  0  0  0
  190.9890  176.0650  135.8440 C   0  0  0  0  0  3  0  0  0  0  0  0
  186.0270  177.9210  144.2490 C   0  0  0  0  0  1  0  0  0  0  0  0
  188.2020  177.1850  145.1940 C   0  0  0  0  0  1  0  0  0  0  0  0
  187.3330  177.2080  143.9530 C   0  0  0  0  0  3  0  0  0  0  0  0
  2  9  1  0  0  0  0
  2  5  1  0  0  0  0
  3 13  1  0  0  0  0
  4 11  1  0  0  0  0
  5 15  1  0  0  0  0
  6 11  1  0  0  0  0
  7 14  1  0  0  0  0
  8  7  1  0  0  0  0
  9  5  1  0  0  0  0
 10  1  1  0  0  0  0
 10  2  1  0  0  0  0
 11 27  1  0  0  0  0
 12 18  1  0  0  0  0
 12  1  1  0  0  0  0
 13  9  1  0  0  0  0
 13  6  1  0  0  0  0
 14 18  2  0  0  0  0
 15  4  1  0  0  0  0
 16  7  2  0  0  0  0
 16 17  1  0  0  0  0
 17 12  2  0  0  0  0
 18  3  1  0  0  0  0
 19 22  1  0  0  0  0
 20 21  1  0  0  0  0
 20 10  1  0  0  0  0
 22 21  2  0  0  0  0
 23 19  2  0  0  0  0
 23 24  1  0  0  0  0
 24 20  2  0  0  0  0
 27 25  1  0  0  0  0
 27 26  1  0  0  0  0
M  END
>  <MODEL>
4

>  <REMARK>
 VINA RESULT:      -7.4      3.773      7.888
  Name = 
  2 active torsions:
  status: ('A' for Active; 'I' for Inactive)
    1  A    between atoms: C_9  and  C_15
    2  A    between atoms: C_16  and  C_17
                            x       y       z     vdW  Elec       q    Type
                         _______ _______ _______ _____ _____    ______ ____

>  <TORSDO>
F 2

$$$$
=
 OpenBabel10272401073D

 27 31  0  0  1  0  0  0  0  0999 V2000
  188.4080  176.9100  141.9130 N   0  0  0  0  0  2  0  0  0  0  0  0
  188.4480  178.1170  139.6890 C   0  0  2  0  0  3  0  0  0  0  0  0
  191.1130  178.0200  141.5870 N   0  0  0  0  0  2  0  0  0  0  0  0
  190.5300  176.2230  137.6610 C   0  0  0  0  0  2  0  0  0  0  0  0
  188.9980  176.8780  139.1710 C   0  0  2  0  0  3  0  0  0  0  0  0
  192.4050  176.9860  139.4240 S   0  0  0  0  0  0  0  0  0  0  0  0
  191.0060  177.2710  145.2260 C   0  0  0  0  0  0  0  0  0  0  0  0
  191.8430  177.4370  146.3640 N   0  0  0  0  0  1  0  0  0  0  0  0
  189.9110  178.0050  139.5090 N   0  0  2  0  0  0  0  0  0  0  0  0
  188.0630  178.1250  141.1790 C   0  0  1  0  0  3  0  0  0  0  0  0
  191.7560  175.9850  138.0340 C   0  0  1  0  0  3  0  0  0  0  0  0
  189.3480  176.9570  142.9880 C   0  0  0  0  0  0  0  0  0  0  0  0
  190.8330  177.2690  140.3730 C   0  0  2  0  0  3  0  0  0  0  0  0
  191.4060  177.7750  143.9870 C   0  0  0  0  0  3  0  0  0  0  0  0
  189.2850  176.6040  137.7330 C   0  0  0  0  0  2  0  0  0  0  0  0
  189.7990  176.5790  145.3420 C   0  0  0  0  0  3  0  0  0  0  0  0
  188.9710  176.4280  144.2260 C   0  0  0  0  0  3  0  0  0  0  0  0
  190.5970  177.6110  142.8570 C   0  0  0  0  0  0  0  0  0  0  0  0
  183.8990  179.0280  141.7140 C   0  0  0  0  0  3  0  0  0  0  0  0
  186.6140  178.4430  141.3530 C   0  0  0  0  0  0  0  0  0  0  0  0
  186.0470  178.3850  142.6300 C   0  0  0  0  0  3  0  0  0  0  0  0
  184.6910  178.6770  142.8110 C   0  0  0  0  0  3  0  0  0  0  0  0
  184.4610  179.0860  140.4360 C   0  0  0  0  0  3  0  0  0  0  0  0
  185.8160  178.7940  140.2530 C   0  0  0  0  0  3  0  0  0  0  0  0
  193.9070  174.8020  137.6700 C   0  0  0  0  0  1  0  0  0  0  0  0
  191.9230  174.2540  136.2810 C   0  0  0  0  0  1  0  0  0  0  0  0
  192.3940  174.6890  137.6540 C   0  0  0  0  0  3  0  0  0  0  0  0
  1 12  1  0  0  0  0
  2 10  1  0  0  0  0
  3 18  1  0  0  0  0
  4 15  1  0  0  0  0
  4 11  1  0  0  0  0
  5  9  1  0  0  0  0
  5  2  1  0  0  0  0
  6 13  1  0  0  0  0
  7 16  1  0  0  0  0
  7  8  1  0  0  0  0
  9  2  1  0  0  0  0
  9 13  1  0  0  0  0
 10 20  1  0  0  0  0
 10  1  1  0  0  0  0
 11  6  1  0  0  0  0
 12 17  1  0  0  0  0
 13  3  1  0  0  0  0
 14  7  2  0  0  0  0
 15  5  1  0  0  0  0
 17 16  2  0  0  0  0
 18 12  2  0  0  0  0
 18 14  1  0  0  0  0
 19 22  1  0  0  0  0
 20 21  1  0  0  0  0
 21 22  2  0  0  0  0
 23 19  2  0  0  0  0
 24 23  1  0  0  0  0
 24 20  2  0  0  0  0
 26 27  1  0  0  0  0
 27 25  1  0  0  0  0
 27 11  1  0  0  0  0
M  END
>  <MODEL>
5

>  <REMARK>
 VINA RESULT:      -7.4      3.163      6.864
  Name = 
  2 active torsions:
  status: ('A' for Active; 'I' for Inactive)
    1  A    between atoms: C_9  and  C_15
    2  A    between atoms: C_16  and  C_17
                            x       y       z     vdW  Elec       q    Type
                         _______ _______ _______ _____ _____    ______ ____

>  <TORSDO>
F 2

$$$$
=
 OpenBabel10272401073D

 27 31  0  0  1  0  0  0  0  0999 V2000
  187.8920  177.0190  142.7080 N   0  0  0  0  0  2  0  0  0  0  0  0
  187.6830  178.3270  140.5520 C   0  0  2  0  0  3  0  0  0  0  0  0
  190.5010  178.2860  142.2170 N   0  0  0  0  0  2  0  0  0  0  0  0
  189.6760  176.6430  138.2670 C   0  0  0  0  0  2  0  0  0  0  0  0
  188.2480  177.1450  139.9290 C   0  0  2  0  0  3  0  0  0  0  0  0
  191.6540  177.4240  139.9050 S   0  0  0  0  0  0  0  0  0  0  0  0
  190.7410  177.3650  145.8100 C   0  0  0  0  0  0  0  0  0  0  0  0
  191.6620  177.5240  146.8820 N   0  0  0  0  0  1  0  0  0  0  0  0
  189.1290  178.3030  140.2470 N   0  0  2  0  0  0  0  0  0  0  0  0
  187.4260  178.2470  142.0680 C   0  0  1  0  0  3  0  0  0  0  0  0
  190.9400  176.4540  138.5250 C   0  0  1  0  0  3  0  0  0  0  0  0
  188.9160  177.0670  143.7040 C   0  0  0  0  0  0  0  0  0  0  0  0
  190.1560  177.5780  140.9930 C   0  0  2  0  0  3  0  0  0  0  0  0
  191.0090  177.9470  144.5690 C   0  0  0  0  0  3  0  0  0  0  0  0
  188.4250  176.9530  138.4610 C   0  0  0  0  0  2  0  0  0  0  0  0
  189.5840  176.6050  145.9900 C   0  0  0  0  0  3  0  0  0  0  0  0
  188.6720  176.4620  144.9400 C   0  0  0  0  0  3  0  0  0  0  0  0
  190.1150  177.7920  143.5030 C   0  0  0  0  0  0  0  0  0  0  0  0
  183.2840  178.9050  142.9900 C   0  0  0  0  0  3  0  0  0  0  0  0
  185.9830  178.4770  142.3760 C   0  0  0  0  0  0  0  0  0  0  0  0
  185.5660  178.5310  143.7100 C   0  0  0  0  0  3  0  0  0  0  0  0
  184.2190  178.7440  144.0180 C   0  0  0  0  0  3  0  0  0  0  0  0
  183.6960  178.8520  141.6560 C   0  0  0  0  0  3  0  0  0  0  0  0
  185.0420  178.6390  141.3470 C   0  0  0  0  0  3  0  0  0  0  0  0
  193.0080  175.5110  137.5290 C   0  0  0  0  0  1  0  0  0  0  0  0
  190.7870  174.5820  136.9210 C   0  0  0  0  0  1  0  0  0  0  0  0
  191.6070  175.2140  138.0290 C   0  0  0  0  0  3  0  0  0  0  0  0
  1 12  1  0  0  0  0
  2 10  1  0  0  0  0
  3 18  1  0  0  0  0
  4 15  1  0  0  0  0
  4 11  1  0  0  0  0
  5  9  1  0  0  0  0
  5  2  1  0  0  0  0
  6 13  1  0  0  0  0
  7 16  1  0  0  0  0
  7  8  1  0  0  0  0
  9  2  1  0  0  0  0
  9 13  1  0  0  0  0
 10 20  1  0  0  0  0
 10  1  1  0  0  0  0
 11  6  1  0  0  0  0
 12 17  1  0  0  0  0
 13  3  1  0  0  0  0
 14  7  2  0  0  0  0
 15  5  1  0  0  0  0
 17 16  2  0  0  0  0
 18 12  2  0  0  0  0
 18 14  1  0  0  0  0
 19 22  1  0  0  0  0
 20 21  1  0  0  0  0
 21 22  2  0  0  0  0
 23 19  2  0  0  0  0
 24 23  1  0  0  0  0
 24 20  2  0  0  0  0
 25 27  1  0  0  0  0
 26 27  1  0  0  0  0
 27 11  1  0  0  0  0
M  END
>  <MODEL>
6

>  <REMARK>
 VINA RESULT:      -7.1      2.819      6.206
  Name = 
  2 active torsions:
  status: ('A' for Active; 'I' for Inactive)
    1  A    between atoms: C_9  and  C_15
    2  A    between atoms: C_16  and  C_17
                            x       y       z     vdW  Elec       q    Type
                         _______ _______ _______ _____ _____    ______ ____

>  <TORSDO>
F 2

$$$$
=
 OpenBabel10272401073D

 27 31  0  0  1  0  0  0  0  0999 V2000
  189.8080  175.6160  138.3590 N   0  0  0  0  0  2  0  0  0  0  0  0
  191.4740  177.1060  139.5450 C   0  0  2  0  0  3  0  0  0  0  0  0
  188.4860  178.2090  138.7870 N   0  0  0  0  0  2  0  0  0  0  0  0
  190.1960  177.5440  142.7400 C   0  0  0  0  0  2  0  0  0  0  0  0
  190.8050  176.6740  140.7570 C   0  0  2  0  0  3  0  0  0  0  0  0
  188.2310  178.8200  141.4300 S   0  0  0  0  0  0  0  0  0  0  0  0
  186.3230  176.6450  136.2010 C   0  0  0  0  0  0  0  0  0  0  0  0
  185.1860  176.9940  135.4220 N   0  0  0  0  0  1  0  0  0  0  0  0
  190.4510  177.9870  140.1490 N   0  0  2  0  0  0  0  0  0  0  0  0
  190.9750  176.4840  138.2280 C   0  0  1  0  0  3  0  0  0  0  0  0
  189.0000  178.0380  142.8970 C   0  0  1  0  0  3  0  0  0  0  0  0
  188.5760  175.9590  137.7220 C   0  0  0  0  0  0  0  0  0  0  0  0
  189.0030  177.7970  140.0840 C   0  0  2  0  0  3  0  0  0  0  0  0
  186.9030  177.5890  137.0520 C   0  0  0  0  0  3  0  0  0  0  0  0
  191.2330  177.0250  142.1430 C   0  0  0  0  0  2  0  0  0  0  0  0
  186.8430  175.3510  136.1360 C   0  0  0  0  0  3  0  0  0  0  0  0
  187.9690  175.0120  136.8910 C   0  0  0  0  0  3  0  0  0  0  0  0
  188.0170  177.2550  137.8300 C   0  0  0  0  0  0  0  0  0  0  0  0
  194.1340  174.3860  136.2160 C   0  0  0  0  0  3  0  0  0  0  0  0
  192.0800  175.7650  137.5260 C   0  0  0  0  0  0  0  0  0  0  0  0
  191.9480  174.3990  137.2580 C   0  0  0  0  0  3  0  0  0  0  0  0
  192.9740  173.7090  136.6040 C   0  0  0  0  0  3  0  0  0  0  0  0
  194.2700  175.7510  136.4810 C   0  0  0  0  0  3  0  0  0  0  0  0
  193.2460  176.4410  137.1350 C   0  0  0  0  0  3  0  0  0  0  0  0
  189.0170  177.4230  145.3010 C   0  0  0  0  0  1  0  0  0  0  0  0
  187.4810  176.2750  143.7240 C   0  0  0  0  0  1  0  0  0  0  0  0
  188.1700  177.5840  144.0520 C   0  0  0  0  0  3  0  0  0  0  0  0
  2  9  1  0  0  0  0
  2  5  1  0  0  0  0
  3 13  1  0  0  0  0
  4 11  1  0  0  0  0
  5 15  1  0  0  0  0
  6 11  1  0  0  0  0
  7 14  1  0  0  0  0
  8  7  1  0  0  0  0
  9  5  1  0  0  0  0
 10  1  1  0  0  0  0
 10  2  1  0  0  0  0
 11 27  1  0  0  0  0
 12 18  1  0  0  0  0
 12  1  1  0  0  0  0
 13  9  1  0  0  0  0
 13  6  1  0  0  0  0
 14 18  2  0  0  0  0
 15  4  1  0  0  0  0
 16  7  2  0  0  0  0
 16 17  1  0  0  0  0
 17 12  2  0  0  0  0
 18  3  1  0  0  0  0
 19 23  2  0  0  0  0
 19 22  1  0  0  0  0
 20 10  1  0  0  0  0
 21 20  1  0  0  0  0
 22 21  2  0  0  0  0
 23 24  1  0  0  0  0
 24 20  2  0  0  0  0
 26 27  1  0  0  0  0
 27 25  1  0  0  0  0
M  END
>  <MODEL>
7

>  <REMARK>
 VINA RESULT:      -6.9      3.891      8.132
  Name = 
  2 active torsions:
  status: ('A' for Active; 'I' for Inactive)
    1  A    between atoms: C_9  and  C_15
    2  A    between atoms: C_16  and  C_17
                            x       y       z     vdW  Elec       q    Type
                         _______ _______ _______ _____ _____    ______ ____

>  <TORSDO>
F 2

$$$$
=
 OpenBabel10272401073D

 27 31  0  0  1  0  0  0  0  0999 V2000
  187.8310  177.0090  142.9040 N   0  0  0  0  0  2  0  0  0  0  0  0
  186.4110  178.6970  144.1430 C   0  0  2  0  0  3  0  0  0  0  0  0
  187.2820  179.2100  141.0300 N   0  0  0  0  0  2  0  0  0  0  0  0
  183.2880  178.5430  142.6400 C   0  0  0  0  0  2  0  0  0  0  0  0
  185.2890  178.0180  143.5240 C   0  0  2  0  0  3  0  0  0  0  0  0
  184.6220  179.4940  140.5140 S   0  0  0  0  0  0  0  0  0  0  0  0
  190.1350  177.4800  139.3930 C   0  0  0  0  0  0  0  0  0  0  0  0
  190.9600  177.6550  138.2470 N   0  0  0  0  0  1  0  0  0  0  0  0
  185.8090  179.2780  142.9240 N   0  0  2  0  0  0  0  0  0  0  0  0
  187.8070  178.1140  143.8590 C   0  0  1  0  0  3  0  0  0  0  0  0
  183.1750  178.7550  141.3590 C   0  0  1  0  0  3  0  0  0  0  0  0
  188.5230  177.1440  141.6610 C   0  0  0  0  0  0  0  0  0  0  0  0
  185.9910  178.7930  141.5570 C   0  0  2  0  0  3  0  0  0  0  0  0
  189.1700  178.4390  139.7090 C   0  0  0  0  0  3  0  0  0  0  0  0
  183.8520  178.3160  143.7940 C   0  0  0  0  0  2  0  0  0  0  0  0
  190.2720  176.3380  140.1840 C   0  0  0  0  0  3  0  0  0  0  0  0
  189.4710  176.1750  141.3180 C   0  0  0  0  0  3  0  0  0  0  0  0
  188.3460  178.2750  140.8280 C   0  0  0  0  0  0  0  0  0  0  0  0
  189.7280  176.9780  147.5270 C   0  0  0  0  0  3  0  0  0  0  0  0
  188.4870  177.7170  145.1280 C   0  0  0  0  0  0  0  0  0  0  0  0
  187.7250  177.5460  146.2890 C   0  0  0  0  0  3  0  0  0  0  0  0
  188.3450  177.1770  147.4880 C   0  0  0  0  0  3  0  0  0  0  0  0
  190.4920  177.1480  146.3700 C   0  0  0  0  0  3  0  0  0  0  0  0
  189.8750  177.5170  145.1710 C   0  0  0  0  0  3  0  0  0  0  0  0
  182.6550  177.5550  139.2510 C   0  0  0  0  0  1  0  0  0  0  0  0
  180.9120  178.9120  140.3820 C   0  0  0  0  0  1  0  0  0  0  0  0
  182.1230  178.0250  140.5910 C   0  0  0  0  0  3  0  0  0  0  0  0
  1 10  1  0  0  0  0
  3 13  1  0  0  0  0
  4 15  1  0  0  0  0
  5 15  1  0  0  0  0
  5  2  1  0  0  0  0
  6 11  1  0  0  0  0
  6 13  1  0  0  0  0
  7 14  2  0  0  0  0
  7 16  1  0  0  0  0
  8  7  1  0  0  0  0
  9  5  1  0  0  0  0
  9  2  1  0  0  0  0
 10  2  1  0  0  0  0
 10 20  1  0  0  0  0
 11  4  1  0  0  0  0
 12  1  1  0  0  0  0
 13  9  1  0  0  0  0
 14 18  1  0  0  0  0
 16 17  2  0  0  0  0
 17 12  1  0  0  0  0
 18  3  1  0  0  0  0
 18 12  2  0  0  0  0
 20 24  2  0  0  0  0
 20 21  1  0  0  0  0
 21 22  2  0  0  0  0
 22 19  1  0  0  0  0
 23 19  2  0  0  0  0
 24 23  1  0  0  0  0
 25 27  1  0  0  0  0
 26 27  1  0  0  0  0
 27 11  1  0  0  0  0
M  END
>  <MODEL>
8

>  <REMARK>
 VINA RESULT:      -6.8      1.083      1.743
  Name = 
  2 active torsions:
  status: ('A' for Active; 'I' for Inactive)
    1  A    between atoms: C_9  and  C_15
    2  A    between atoms: C_16  and  C_17
                            x       y       z     vdW  Elec       q    Type
                         _______ _______ _______ _____ _____    ______ ____

>  <TORSDO>
F 2

$$$$
=
 OpenBabel10272401073D

 27 31  0  0  1  0  0  0  0  0999 V2000
  190.2020  174.8060  137.9010 N   0  0  0  0  0  2  0  0  0  0  0  0
  191.4900  176.8280  138.7120 C   0  0  2  0  0  3  0  0  0  0  0  0
  188.3870  177.1140  137.7120 N   0  0  0  0  0  2  0  0  0  0  0  0
  189.9990  177.7160  141.7150 C   0  0  0  0  0  2  0  0  0  0  0  0
  190.8600  176.5580  139.9900 C   0  0  2  0  0  3  0  0  0  0  0  0
  187.8910  178.2450  140.1400 S   0  0  0  0  0  0  0  0  0  0  0  0
  186.6930  174.6060  135.5550 C   0  0  0  0  0  0  0  0  0  0  0  0
  185.5490  174.5360  134.7130 N   0  0  0  0  0  1  0  0  0  0  0  0
  190.2900  177.6010  139.0930 N   0  0  2  0  0  0  0  0  0  0  0  0
  191.1850  175.8360  137.5750 C   0  0  1  0  0  3  0  0  0  0  0  0
  188.7240  177.9860  141.7500 C   0  0  1  0  0  3  0  0  0  0  0  0
  188.9600  174.7440  137.1980 C   0  0  0  0  0  0  0  0  0  0  0  0
  188.9100  177.1180  139.0700 C   0  0  2  0  0  3  0  0  0  0  0  0
  187.0390  175.8140  136.1650 C   0  0  0  0  0  3  0  0  0  0  0  0
  191.1440  177.2930  141.2570 C   0  0  0  0  0  2  0  0  0  0  0  0
  187.4550  173.4600  135.7930 C   0  0  0  0  0  3  0  0  0  0  0  0
  188.5880  173.5320  136.6080 C   0  0  0  0  0  3  0  0  0  0  0  0
  188.1570  175.8930  137.0020 C   0  0  0  0  0  0  0  0  0  0  0  0
  194.8110  174.0750  136.0960 C   0  0  0  0  0  3  0  0  0  0  0  0
  192.4410  175.2120  137.0610 C   0  0  0  0  0  0  0  0  0  0  0  0
  193.5600  176.0170  136.8250 C   0  0  0  0  0  3  0  0  0  0  0  0
  194.7440  175.4500  136.3430 C   0  0  0  0  0  3  0  0  0  0  0  0
  193.6950  173.2670  136.3300 C   0  0  0  0  0  3  0  0  0  0  0  0
  192.5110  173.8320  136.8120 C   0  0  0  0  0  3  0  0  0  0  0  0
  188.1100  176.1880  143.3470 C   0  0  0  0  0  1  0  0  0  0  0  0
  186.4750  177.9660  142.7710 C   0  0  0  0  0  1  0  0  0  0  0  0
  187.9430  177.6500  142.9780 C   0  0  0  0  0  3  0  0  0  0  0  0
  2  9  1  0  0  0  0
  2  5  1  0  0  0  0
  3 13  1  0  0  0  0
  4 11  1  0  0  0  0
  5 15  1  0  0  0  0
  6 11  1  0  0  0  0
  7 16  2  0  0  0  0
  7 14  1  0  0  0  0
  8  7  1  0  0  0  0
  9  5  1  0  0  0  0
 10  1  1  0  0  0  0
 10  2  1  0  0  0  0
 11 27  1  0  0  0  0
 12  1  1  0  0  0  0
 13  9  1  0  0  0  0
 13  6  1  0  0  0  0
 14 18  2  0  0  0  0
 15  4  1  0  0  0  0
 16 17  1  0  0  0  0
 17 12  2  0  0  0  0
 18 12  1  0  0  0  0
 18  3  1  0  0  0  0
 19 23  2  0  0  0  0
 19 22  1  0  0  0  0
 20 10  1  0  0  0  0
 21 20  1  0  0  0  0
 22 21  2  0  0  0  0
 23 24  1  0  0  0  0
 24 20  2  0  0  0  0
 26 27  1  0  0  0  0
 27 25  1  0  0  0  0
M  END
>  <MODEL>
9

>  <REMARK>
 VINA RESULT:      -6.6      4.510      8.480
  Name = 
  2 active torsions:
  status: ('A' for Active; 'I' for Inactive)
    1  A    between atoms: C_9  and  C_15
    2  A    between atoms: C_16  and  C_17
                            x       y       z     vdW  Elec       q    Type
                         _______ _______ _______ _____ _____    ______ ____

>  <TORSDO>
F 2

$$$$
