=
 OpenBabel10262423543D

 34 38  0  0  1  0  0  0  0  0999 V2000
  187.2300  177.7500  146.7480 C   0  0  0  0  0  0  0  0  0  0  0  0
  189.3800  177.1200  145.6970 O   0  0  0  0  0  0  0  0  0  0  0  0
  187.4970  177.7900  144.3150 C   0  0  0  0  0  0  0  0  0  0  0  0
  187.8570  178.3680  141.8320 C   0  0  1  0  0  3  0  0  0  0  0  0
  189.0340  178.3340  148.3420 C   0  0  0  0  0  2  0  0  0  0  0  0
  190.2470  177.4910  147.9500 C   0  0  0  0  0  2  0  0  0  0  0  0
  189.3950  177.0120  143.0850 O   0  0  0  0  0  0  0  0  0  0  0  0
  188.0400  177.5380  145.6000 C   0  0  0  0  0  0  0  0  0  0  0  0
  187.7280  177.5780  148.1500 C   0  0  0  0  0  2  0  0  0  0  0  0
  186.1500  178.2020  144.1830 C   0  0  0  0  0  0  0  0  0  0  0  0
  185.9130  178.1780  146.5970 C   0  0  0  0  0  3  0  0  0  0  0  0
  189.9550  176.4880  146.8360 C   0  0  0  0  0  2  0  0  0  0  0  0
  186.3620  178.4590  141.7540 C   0  0  0  0  0  3  0  0  0  0  0  0
  185.5580  178.4240  142.8270 C   0  0  0  0  0  0  0  0  0  0  0  0
  188.3080  177.6520  143.0810 C   0  0  0  0  0  0  0  0  0  0  0  0
  185.3800  178.3990  145.3330 C   0  0  0  0  0  3  0  0  0  0  0  0
  182.1550  178.4410  141.1350 C   0  0  0  0  0  0  0  0  0  0  0  0
  181.3240  178.8260  142.1900 C   0  0  0  0  0  3  0  0  0  0  0  0
  184.0920  178.5440  142.6060 C   0  0  0  0  0  0  0  0  0  0  0  0
  181.8700  179.0770  143.4510 C   0  0  0  0  0  3  0  0  0  0  0  0
  183.5290  178.3050  141.3420 C   0  0  0  0  0  3  0  0  0  0  0  0
  183.2460  178.9400  143.6560 C   0  0  0  0  0  3  0  0  0  0  0  0
  181.6140  178.1940  139.8800 O   0  0  0  0  0  1  0  0  0  0  0  0
  188.3790  177.7170  140.5580 C   0  0  0  0  0  2  0  0  0  0  0  0
  188.6800  178.7350  139.5670 N   0  0  0  0  0  2  0  0  0  0  0  0
  188.8780  178.0450  138.3060 C   0  0  0  0  0  2  0  0  0  0  0  0
  187.8370  178.5000  137.2930 C   0  0  0  0  0  2  0  0  0  0  0  0
  185.4070  179.1340  138.4620 O   0  0  0  0  0  0  0  0  0  0  0  0
  186.6760  177.6180  137.3130 N   0  0  0  0  0  0  0  0  0  0  0  0
  185.5040  178.0060  137.9070 C   0  0  0  0  0  0  0  0  0  0  0  0
  184.5020  175.9010  137.2970 C   0  0  0  0  0  3  0  0  0  0  0  0
  185.7000  175.5180  136.6960 C   0  0  0  0  0  3  0  0  0  0  0  0
  186.7840  176.3980  136.7140 C   0  0  0  0  0  3  0  0  0  0  0  0
  184.4000  177.1500  137.9060 C   0  0  0  0  0  3  0  0  0  0  0  0
  1  9  1  0  0  0  0
  2 12  1  0  0  0  0
  3  8  1  0  0  0  0
  4 24  1  6  0  0  0
  4 15  1  0  0  0  0
  6  5  1  0  0  0  0
  8  2  1  0  0  0  0
  8  1  2  0  0  0  0
  9  5  1  0  0  0  0
 10  3  2  0  0  0  0
 10 16  1  0  0  0  0
 11  1  1  0  0  0  0
 12  6  1  0  0  0  0
 13  4  1  0  0  0  0
 13 14  2  0  0  0  0
 14 10  1  0  0  0  0
 15  7  2  0  0  0  0
 15  3  1  0  0  0  0
 16 11  2  0  0  0  0
 17 21  2  0  0  0  0
 17 18  1  0  0  0  0
 18 20  2  0  0  0  0
 19 14  1  0  0  0  0
 19 22  2  0  0  0  0
 20 22  1  0  0  0  0
 21 19  1  0  0  0  0
 23 17  1  0  0  0  0
 25 24  1  0  0  0  0
 26 25  1  0  0  0  0
 27 29  1  0  0  0  0
 27 26  1  0  0  0  0
 29 30  1  0  0  0  0
 30 28  2  0  0  0  0
 31 34  2  0  0  0  0
 32 33  2  0  0  0  0
 32 31  1  0  0  0  0
 33 29  1  0  0  0  0
 34 30  1  0  0  0  0
M  END
>  <MODEL>
1

>  <REMARK>
 VINA RESULT:     -10.4      0.000      0.000
  Name = 
  6 active torsions:
  status: ('A' for Active; 'I' for Inactive)
    1  A    between atoms: C_3  and  N_13
    2  A    between atoms: C_3  and  C_17
    3  A    between atoms: C_5  and  C_18
    4  A    between atoms: C_12  and  C_28
    5  A    between atoms: C_17  and  N_29
    6  A    between atoms: C_18  and  N_29
                            x       y       z     vdW  Elec       q    Type
                         _______ _______ _______ _____ _____    ______ ____

>  <TORSDO>
F 6

$$$$
=
 OpenBabel10262423543D

 34 38  0  0  1  0  0  0  0  0999 V2000
  187.3430  177.7920  146.8690 C   0  0  0  0  0  0  0  0  0  0  0  0
  189.4990  177.1490  145.8390 O   0  0  0  0  0  0  0  0  0  0  0  0
  187.6230  177.7980  144.4380 C   0  0  0  0  0  0  0  0  0  0  0  0
  187.9960  178.3420  141.9480 C   0  0  1  0  0  3  0  0  0  0  0  0
  189.1380  178.3990  148.4650 C   0  0  0  0  0  2  0  0  0  0  0  0
  190.3540  177.5510  148.0910 C   0  0  0  0  0  2  0  0  0  0  0  0
  189.5280  177.0050  143.2290 O   0  0  0  0  0  0  0  0  0  0  0  0
  188.1600  177.5650  145.7290 C   0  0  0  0  0  0  0  0  0  0  0  0
  187.8330  177.6400  148.2760 C   0  0  0  0  0  2  0  0  0  0  0  0
  186.2770  178.2080  144.2920 C   0  0  0  0  0  0  0  0  0  0  0  0
  186.0260  178.2160  146.7060 C   0  0  0  0  0  3  0  0  0  0  0  0
  190.0690  176.5330  146.9890 C   0  0  0  0  0  2  0  0  0  0  0  0
  186.5020  178.4310  141.8620 C   0  0  0  0  0  3  0  0  0  0  0  0
  185.6920  178.4110  142.9300 C   0  0  0  0  0  0  0  0  0  0  0  0
  188.4410  177.6450  143.2090 C   0  0  0  0  0  0  0  0  0  0  0  0
  185.5000  178.4200  145.4360 C   0  0  0  0  0  3  0  0  0  0  0  0
  182.3030  178.4520  141.2090 C   0  0  0  0  0  0  0  0  0  0  0  0
  181.4610  178.8010  142.2670 C   0  0  0  0  0  3  0  0  0  0  0  0
  184.2270  178.5270  142.7000 C   0  0  0  0  0  0  0  0  0  0  0  0
  181.9940  179.0190  143.5400 C   0  0  0  0  0  3  0  0  0  0  0  0
  183.6770  178.3200  141.4240 C   0  0  0  0  0  3  0  0  0  0  0  0
  183.3690  178.8860  143.7540 C   0  0  0  0  0  3  0  0  0  0  0  0
  181.7750  178.2380  139.9430 O   0  0  0  0  0  1  0  0  0  0  0  0
  188.5250  177.6750  140.6870 C   0  0  0  0  0  2  0  0  0  0  0  0
  188.4590  178.6000  139.5690 N   0  0  0  0  0  2  0  0  0  0  0  0
  189.4360  178.1490  138.5950 C   0  0  0  0  0  2  0  0  0  0  0  0
  190.5960  177.4610  139.3000 C   0  0  0  0  0  2  0  0  0  0  0  0
  193.2830  176.9090  138.9120 O   0  0  0  0  0  0  0  0  0  0  0  0
  191.1040  176.3520  138.4980 N   0  0  0  0  0  0  0  0  0  0  0  0
  192.4500  176.1420  138.3580 C   0  0  0  0  0  0  0  0  0  0  0  0
  191.9990  174.2180  136.9780 C   0  0  0  0  0  3  0  0  0  0  0  0
  190.6320  174.4440  137.1280 C   0  0  0  0  0  3  0  0  0  0  0  0
  190.2010  175.5250  137.8990 C   0  0  0  0  0  3  0  0  0  0  0  0
  192.9150  175.0690  137.5940 C   0  0  0  0  0  3  0  0  0  0  0  0
  1  9  1  0  0  0  0
  2 12  1  0  0  0  0
  3  8  1  0  0  0  0
  4 24  1  6  0  0  0
  4 15  1  0  0  0  0
  6  5  1  0  0  0  0
  8  2  1  0  0  0  0
  8  1  2  0  0  0  0
  9  5  1  0  0  0  0
 10  3  2  0  0  0  0
 10 16  1  0  0  0  0
 11  1  1  0  0  0  0
 12  6  1  0  0  0  0
 13  4  1  0  0  0  0
 13 14  2  0  0  0  0
 14 10  1  0  0  0  0
 15  7  2  0  0  0  0
 15  3  1  0  0  0  0
 16 11  2  0  0  0  0
 17 21  2  0  0  0  0
 17 18  1  0  0  0  0
 18 20  2  0  0  0  0
 19 14  1  0  0  0  0
 19 22  2  0  0  0  0
 20 22  1  0  0  0  0
 21 19  1  0  0  0  0
 23 17  1  0  0  0  0
 25 24  1  0  0  0  0
 26 27  1  0  0  0  0
 26 25  1  0  0  0  0
 29 27  1  0  0  0  0
 30 29  1  0  0  0  0
 30 28  2  0  0  0  0
 31 32  1  0  0  0  0
 31 34  2  0  0  0  0
 32 33  2  0  0  0  0
 33 29  1  0  0  0  0
 34 30  1  0  0  0  0
M  END
>  <MODEL>
2

>  <REMARK>
 VINA RESULT:     -10.3      2.062      3.121
  Name = 
  6 active torsions:
  status: ('A' for Active; 'I' for Inactive)
    1  A    between atoms: C_3  and  N_13
    2  A    between atoms: C_3  and  C_17
    3  A    between atoms: C_5  and  C_18
    4  A    between atoms: C_12  and  C_28
    5  A    between atoms: C_17  and  N_29
    6  A    between atoms: C_18  and  N_29
                            x       y       z     vdW  Elec       q    Type
                         _______ _______ _______ _____ _____    ______ ____

>  <TORSDO>
F 6

$$$$
=
 OpenBabel10262423543D

 34 38  0  0  1  0  0  0  0  0999 V2000
  181.8980  178.8800  142.6030 C   0  0  0  0  0  0  0  0  0  0  0  0
  182.6510  179.2670  140.2780 O   0  0  0  0  0  0  0  0  0  0  0  0
  184.2700  178.7530  142.0150 C   0  0  0  0  0  0  0  0  0  0  0  0
  186.6740  178.0810  141.3830 C   0  0  1  0  0  3  0  0  0  0  0  0
  180.0650  178.1590  141.1000 C   0  0  0  0  0  2  0  0  0  0  0  0
  180.2960  178.8680  139.7660 C   0  0  0  0  0  2  0  0  0  0  0  0
  185.2370  179.3080  139.8990 O   0  0  0  0  0  0  0  0  0  0  0  0
  182.9250  178.9810  141.6270 C   0  0  0  0  0  0  0  0  0  0  0  0
  180.4430  179.0360  142.2840 C   0  0  0  0  0  2  0  0  0  0  0  0
  184.5810  178.4740  143.3660 C   0  0  0  0  0  0  0  0  0  0  0  0
  182.2220  178.5820  143.9240 C   0  0  0  0  0  3  0  0  0  0  0  0
  181.4510  179.8670  139.8000 C   0  0  0  0  0  2  0  0  0  0  0  0
  186.9550  178.1370  142.8550 C   0  0  0  0  0  3  0  0  0  0  0  0
  186.0030  178.2770  143.7890 C   0  0  0  0  0  0  0  0  0  0  0  0
  185.3830  178.7790  141.0340 C   0  0  0  0  0  0  0  0  0  0  0  0
  183.5450  178.3830  144.3010 C   0  0  0  0  0  3  0  0  0  0  0  0
  187.8660  177.5170  147.0140 C   0  0  0  0  0  0  0  0  0  0  0  0
  187.1680  178.3080  147.9280 C   0  0  0  0  0  3  0  0  0  0  0  0
  186.4210  178.2990  145.2160 C   0  0  0  0  0  0  0  0  0  0  0  0
  186.0940  179.0910  147.4960 C   0  0  0  0  0  3  0  0  0  0  0  0
  187.4920  177.5090  145.6670 C   0  0  0  0  0  3  0  0  0  0  0  0
  185.7210  179.0830  146.1490 C   0  0  0  0  0  3  0  0  0  0  0  0
  188.9310  176.7360  147.4420 O   0  0  0  0  0  1  0  0  0  0  0  0
  187.8710  178.6440  140.6300 C   0  0  0  0  0  2  0  0  0  0  0  0
  188.4850  177.6050  139.8220 N   0  0  0  0  0  2  0  0  0  0  0  0
  189.9200  177.7440  139.9820 C   0  0  0  0  0  2  0  0  0  0  0  0
  190.4650  176.5980  140.8200 C   0  0  0  0  0  2  0  0  0  0  0  0
  190.4110  174.9020  143.0100 O   0  0  0  0  0  0  0  0  0  0  0  0
  190.6820  177.0230  142.1990 N   0  0  0  0  0  0  0  0  0  0  0  0
  190.6450  176.1220  143.2300 C   0  0  0  0  0  0  0  0  0  0  0  0
  191.1220  177.8950  144.7910 C   0  0  0  0  0  3  0  0  0  0  0  0
  191.1560  178.8010  143.7330 C   0  0  0  0  0  3  0  0  0  0  0  0
  190.9330  178.3420  142.4340 C   0  0  0  0  0  3  0  0  0  0  0  0
  190.8650  176.5480  144.5420 C   0  0  0  0  0  3  0  0  0  0  0  0
  1 11  1  0  0  0  0
  2  8  1  0  0  0  0
  3 10  2  0  0  0  0
  4 24  1  6  0  0  0
  4 13  1  0  0  0  0
  5  9  1  0  0  0  0
  6 12  1  0  0  0  0
  6  5  1  0  0  0  0
  7 15  2  0  0  0  0
  8  3  1  0  0  0  0
  8  1  2  0  0  0  0
  9  1  1  0  0  0  0
 10 14  1  0  0  0  0
 10 16  1  0  0  0  0
 11 16  2  0  0  0  0
 12  2  1  0  0  0  0
 13 14  2  0  0  0  0
 14 19  1  0  0  0  0
 15  4  1  0  0  0  0
 15  3  1  0  0  0  0
 17 23  1  0  0  0  0
 17 18  1  0  0  0  0
 19 21  1  0  0  0  0
 19 22  2  0  0  0  0
 20 18  2  0  0  0  0
 21 17  2  0  0  0  0
 22 20  1  0  0  0  0
 25 26  1  0  0  0  0
 25 24  1  0  0  0  0
 26 27  1  0  0  0  0
 27 29  1  0  0  0  0
 28 30  2  0  0  0  0
 29 33  1  0  0  0  0
 29 30  1  0  0  0  0
 30 34  1  0  0  0  0
 32 31  1  0  0  0  0
 33 32  2  0  0  0  0
 34 31  2  0  0  0  0
M  END
>  <MODEL>
3

>  <REMARK>
 VINA RESULT:     -10.2      2.234      6.983
  Name = 
  6 active torsions:
  status: ('A' for Active; 'I' for Inactive)
    1  A    between atoms: C_3  and  N_13
    2  A    between atoms: C_3  and  C_17
    3  A    between atoms: C_5  and  C_18
    4  A    between atoms: C_12  and  C_28
    5  A    between atoms: C_17  and  N_29
    6  A    between atoms: C_18  and  N_29
                            x       y       z     vdW  Elec       q    Type
                         _______ _______ _______ _____ _____    ______ ____

>  <TORSDO>
F 6

$$$$
=
 OpenBabel10262423543D

 34 38  0  0  1  0  0  0  0  0999 V2000
  187.3050  177.7880  146.8240 C   0  0  0  0  0  0  0  0  0  0  0  0
  189.4530  177.1310  145.7870 O   0  0  0  0  0  0  0  0  0  0  0  0
  187.5740  177.7850  144.3920 C   0  0  0  0  0  0  0  0  0  0  0  0
  187.9380  178.3180  141.8990 C   0  0  1  0  0  3  0  0  0  0  0  0
  189.1100  178.3930  148.4100 C   0  0  0  0  0  2  0  0  0  0  0  0
  190.3200  177.5390  148.0340 C   0  0  0  0  0  2  0  0  0  0  0  0
  189.4700  176.9780  143.1770 O   0  0  0  0  0  0  0  0  0  0  0  0
  188.1150  177.5530  145.6820 C   0  0  0  0  0  0  0  0  0  0  0  0
  187.8010  177.6390  148.2290 C   0  0  0  0  0  2  0  0  0  0  0  0
  186.2290  178.1990  144.2510 C   0  0  0  0  0  0  0  0  0  0  0  0
  185.9890  178.2180  146.6650 C   0  0  0  0  0  3  0  0  0  0  0  0
  190.0260  176.5170  146.9370 C   0  0  0  0  0  2  0  0  0  0  0  0
  186.4440  178.4130  141.8180 C   0  0  0  0  0  3  0  0  0  0  0  0
  185.6390  178.4000  142.8910 C   0  0  0  0  0  0  0  0  0  0  0  0
  188.3860  177.6230  143.1600 C   0  0  0  0  0  0  0  0  0  0  0  0
  185.4580  178.4180  145.3970 C   0  0  0  0  0  3  0  0  0  0  0  0
  182.2410  178.4360  141.1880 C   0  0  0  0  0  0  0  0  0  0  0  0
  181.4070  178.8060  142.2440 C   0  0  0  0  0  3  0  0  0  0  0  0
  184.1740  178.5210  142.6670 C   0  0  0  0  0  0  0  0  0  0  0  0
  181.9480  179.0410  143.5110 C   0  0  0  0  0  3  0  0  0  0  0  0
  183.6160  178.2990  141.3970 C   0  0  0  0  0  3  0  0  0  0  0  0
  183.3230  178.9030  143.7190 C   0  0  0  0  0  3  0  0  0  0  0  0
  181.7050  178.2060  139.9280 O   0  0  0  0  0  1  0  0  0  0  0  0
  188.4590  177.6440  140.6380 C   0  0  0  0  0  2  0  0  0  0  0  0
  187.9860  178.3530  139.4620 N   0  0  0  0  0  2  0  0  0  0  0  0
  189.1600  178.7190  138.6930 C   0  0  0  0  0  2  0  0  0  0  0  0
  189.1040  178.0730  137.3160 C   0  0  0  0  0  2  0  0  0  0  0  0
  187.8090  175.6720  136.8410 O   0  0  0  0  0  0  0  0  0  0  0  0
  189.7550  176.7680  137.3310 N   0  0  0  0  0  0  0  0  0  0  0  0
  189.0460  175.6230  137.0800 C   0  0  0  0  0  0  0  0  0  0  0  0
  191.0570  174.3230  137.3550 C   0  0  0  0  0  3  0  0  0  0  0  0
  191.7660  175.4950  137.6090 C   0  0  0  0  0  3  0  0  0  0  0  0
  191.0920  176.7180  137.5920 C   0  0  0  0  0  3  0  0  0  0  0  0
  189.6900  174.3830  137.0890 C   0  0  0  0  0  3  0  0  0  0  0  0
  1  9  1  0  0  0  0
  2 12  1  0  0  0  0
  3  8  1  0  0  0  0
  4 24  1  6  0  0  0
  4 15  1  0  0  0  0
  6  5  1  0  0  0  0
  8  2  1  0  0  0  0
  8  1  2  0  0  0  0
  9  5  1  0  0  0  0
 10  3  2  0  0  0  0
 10 16  1  0  0  0  0
 11  1  1  0  0  0  0
 12  6  1  0  0  0  0
 13  4  1  0  0  0  0
 13 14  2  0  0  0  0
 14 10  1  0  0  0  0
 15  7  2  0  0  0  0
 15  3  1  0  0  0  0
 16 11  2  0  0  0  0
 17 21  2  0  0  0  0
 17 18  1  0  0  0  0
 18 20  2  0  0  0  0
 19 14  1  0  0  0  0
 19 22  2  0  0  0  0
 20 22  1  0  0  0  0
 21 19  1  0  0  0  0
 23 17  1  0  0  0  0
 25 24  1  0  0  0  0
 26 25  1  0  0  0  0
 27 29  1  0  0  0  0
 27 26  1  0  0  0  0
 28 30  2  0  0  0  0
 29 33  1  0  0  0  0
 30 34  1  0  0  0  0
 30 29  1  0  0  0  0
 31 32  1  0  0  0  0
 33 32  2  0  0  0  0
 34 31  2  0  0  0  0
M  END
>  <MODEL>
4

>  <REMARK>
 VINA RESULT:     -10.1      1.659      2.375
  Name = 
  6 active torsions:
  status: ('A' for Active; 'I' for Inactive)
    1  A    between atoms: C_3  and  N_13
    2  A    between atoms: C_3  and  C_17
    3  A    between atoms: C_5  and  C_18
    4  A    between atoms: C_12  and  C_28
    5  A    between atoms: C_17  and  N_29
    6  A    between atoms: C_18  and  N_29
                            x       y       z     vdW  Elec       q    Type
                         _______ _______ _______ _____ _____    ______ ____

>  <TORSDO>
F 6

$$$$
=
 OpenBabel10262423543D

 34 38  0  0  1  0  0  0  0  0999 V2000
  184.0550  178.6890  142.4600 C   0  0  0  0  0  0  0  0  0  0  0  0
  185.0510  178.8720  140.2020 O   0  0  0  0  0  0  0  0  0  0  0  0
  186.4330  178.2380  142.0980 C   0  0  0  0  0  0  0  0  0  0  0  0
  188.7760  177.2400  141.7140 C   0  0  1  0  0  3  0  0  0  0  0  0
  182.2820  178.1370  140.8200 C   0  0  0  0  0  2  0  0  0  0  0  0
  182.7190  178.7490  139.4890 C   0  0  0  0  0  2  0  0  0  0  0  0
  187.6440  178.5690  140.0620 O   0  0  0  0  0  0  0  0  0  0  0  0
  185.1680  178.6150  141.5810 C   0  0  0  0  0  0  0  0  0  0  0  0
  182.6660  179.0120  142.0040 C   0  0  0  0  0  2  0  0  0  0  0  0
  186.5870  177.9840  143.4810 C   0  0  0  0  0  0  0  0  0  0  0  0
  184.2220  178.4130  143.8150 C   0  0  0  0  0  3  0  0  0  0  0  0
  183.9850  179.5950  139.5960 C   0  0  0  0  0  2  0  0  0  0  0  0
  188.9320  177.3270  143.2020 C   0  0  0  0  0  3  0  0  0  0  0  0
  187.9290  177.6290  144.0390 C   0  0  0  0  0  0  0  0  0  0  0  0
  187.6220  178.0780  141.2240 C   0  0  0  0  0  0  0  0  0  0  0  0
  185.4710  178.0670  144.3190 C   0  0  0  0  0  3  0  0  0  0  0  0
  189.7400  177.2960  147.3640 C   0  0  0  0  0  0  0  0  0  0  0  0
  188.7420  177.6800  148.2620 C   0  0  0  0  0  3  0  0  0  0  0  0
  188.2210  177.6630  145.4970 C   0  0  0  0  0  0  0  0  0  0  0  0
  187.4820  178.0500  147.7860 C   0  0  0  0  0  3  0  0  0  0  0  0
  189.4800  177.2830  145.9920 C   0  0  0  0  0  3  0  0  0  0  0  0
  187.2220  178.0380  146.4130 C   0  0  0  0  0  3  0  0  0  0  0  0
  190.9920  176.9250  147.8350 O   0  0  0  0  0  1  0  0  0  0  0  0
  190.0970  177.6130  141.0550 C   0  0  0  0  0  2  0  0  0  0  0  0
  190.6900  176.4440  140.4310 N   0  0  0  0  0  2  0  0  0  0  0  0
  190.9520  176.7960  139.0480 C   0  0  0  0  0  2  0  0  0  0  0  0
  190.0820  175.9580  138.1230 C   0  0  0  0  0  2  0  0  0  0  0  0
  187.5830  175.0480  137.3460 O   0  0  0  0  0  0  0  0  0  0  0  0
  189.0650  176.7840  137.4790 N   0  0  0  0  0  0  0  0  0  0  0  0
  187.8490  176.2610  137.1290 C   0  0  0  0  0  0  0  0  0  0  0  0
  187.1750  178.4130  136.2780 C   0  0  0  0  0  3  0  0  0  0  0  0
  188.4170  178.9320  136.6380 C   0  0  0  0  0  3  0  0  0  0  0  0
  189.3560  178.0950  137.2430 C   0  0  0  0  0  3  0  0  0  0  0  0
  186.8860  177.0720  136.5230 C   0  0  0  0  0  3  0  0  0  0  0  0
  1 11  1  0  0  0  0
  2  8  1  0  0  0  0
  3 10  2  0  0  0  0
  4 24  1  6  0  0  0
  4 13  1  0  0  0  0
  5  9  1  0  0  0  0
  6 12  1  0  0  0  0
  6  5  1  0  0  0  0
  7 15  2  0  0  0  0
  8  3  1  0  0  0  0
  8  1  2  0  0  0  0
  9  1  1  0  0  0  0
 10 14  1  0  0  0  0
 10 16  1  0  0  0  0
 11 16  2  0  0  0  0
 12  2  1  0  0  0  0
 13 14  2  0  0  0  0
 14 19  1  0  0  0  0
 15  4  1  0  0  0  0
 15  3  1  0  0  0  0
 17 23  1  0  0  0  0
 17 18  1  0  0  0  0
 19 21  1  0  0  0  0
 19 22  2  0  0  0  0
 20 18  2  0  0  0  0
 21 17  2  0  0  0  0
 22 20  1  0  0  0  0
 25 24  1  0  0  0  0
 26 25  1  0  0  0  0
 27 26  1  0  0  0  0
 29 27  1  0  0  0  0
 30 28  2  0  0  0  0
 30 29  1  0  0  0  0
 31 34  2  0  0  0  0
 31 32  1  0  0  0  0
 32 33  2  0  0  0  0
 33 29  1  0  0  0  0
 34 30  1  0  0  0  0
M  END
>  <MODEL>
5

>  <REMARK>
 VINA RESULT:     -10.0      1.704      5.902
  Name = 
  6 active torsions:
  status: ('A' for Active; 'I' for Inactive)
    1  A    between atoms: C_3  and  N_13
    2  A    between atoms: C_3  and  C_17
    3  A    between atoms: C_5  and  C_18
    4  A    between atoms: C_12  and  C_28
    5  A    between atoms: C_17  and  N_29
    6  A    between atoms: C_18  and  N_29
                            x       y       z     vdW  Elec       q    Type
                         _______ _______ _______ _____ _____    ______ ____

>  <TORSDO>
F 6

$$$$
=
 OpenBabel10262423543D

 34 38  0  0  1  0  0  0  0  0999 V2000
  185.1990  178.4110  145.5820 C   0  0  0  0  0  0  0  0  0  0  0  0
  187.5170  177.5510  145.4820 O   0  0  0  0  0  0  0  0  0  0  0  0
  186.3280  178.0980  143.4340 C   0  0  0  0  0  0  0  0  0  0  0  0
  187.6120  178.3060  141.2110 C   0  0  1  0  0  3  0  0  0  0  0  0
  186.3500  179.1380  147.6520 C   0  0  0  0  0  2  0  0  0  0  0  0
  187.5420  178.1990  147.8360 C   0  0  0  0  0  2  0  0  0  0  0  0
  188.4640  177.0770  143.0920 O   0  0  0  0  0  0  0  0  0  0  0  0
  186.3460  178.0070  144.8490 C   0  0  0  0  0  0  0  0  0  0  0  0
  185.1390  178.4170  147.0780 C   0  0  0  0  0  2  0  0  0  0  0  0
  185.1640  178.5420  142.7660 C   0  0  0  0  0  0  0  0  0  0  0  0
  184.0690  178.8670  144.9070 C   0  0  0  0  0  3  0  0  0  0  0  0
  187.5830  177.0620  146.8170 C   0  0  0  0  0  2  0  0  0  0  0  0
  186.2610  178.4470  140.5760 C   0  0  0  0  0  3  0  0  0  0  0  0
  185.1240  178.5970  141.2720 C   0  0  0  0  0  0  0  0  0  0  0  0
  187.5150  177.7550  142.6110 C   0  0  0  0  0  0  0  0  0  0  0  0
  184.0510  178.9300  143.5190 C   0  0  0  0  0  3  0  0  0  0  0  0
  181.5190  178.1560  140.1510 C   0  0  0  0  0  0  0  0  0  0  0  0
  181.4730  178.9920  139.0330 C   0  0  0  0  0  3  0  0  0  0  0  0
  183.8540  178.7440  140.5120 C   0  0  0  0  0  0  0  0  0  0  0  0
  182.6130  179.7010  138.6460 C   0  0  0  0  0  3  0  0  0  0  0  0
  182.7020  178.0310  140.8820 C   0  0  0  0  0  3  0  0  0  0  0  0
  183.7970  179.5740  139.3780 C   0  0  0  0  0  3  0  0  0  0  0  0
  180.3870  177.4500  140.5350 O   0  0  0  0  0  1  0  0  0  0  0  0
  188.4980  177.4630  140.3050 C   0  0  0  0  0  2  0  0  0  0  0  0
  189.8300  178.0370  140.2360 N   0  0  0  0  0  2  0  0  0  0  0  0
  190.7480  177.0210  140.7140 C   0  0  0  0  0  2  0  0  0  0  0  0
  191.8400  177.6600  141.5590 C   0  0  0  0  0  2  0  0  0  0  0  0
  191.2000  179.5320  143.4980 O   0  0  0  0  0  0  0  0  0  0  0  0
  191.6480  177.3520  142.9720 N   0  0  0  0  0  0  0  0  0  0  0  0
  191.3260  178.3350  143.8710 C   0  0  0  0  0  0  0  0  0  0  0  0
  191.2770  176.6960  145.6380 C   0  0  0  0  0  3  0  0  0  0  0  0
  191.6050  175.7060  144.7130 C   0  0  0  0  0  3  0  0  0  0  0  0
  191.7870  176.0570  143.3740 C   0  0  0  0  0  3  0  0  0  0  0  0
  191.1360  178.0180  145.2180 C   0  0  0  0  0  3  0  0  0  0  0  0
  1  9  1  0  0  0  0
  2 12  1  0  0  0  0
  3  8  1  0  0  0  0
  4 24  1  6  0  0  0
  4 15  1  0  0  0  0
  5  6  1  0  0  0  0
  8  2  1  0  0  0  0
  8  1  2  0  0  0  0
  9  5  1  0  0  0  0
 10  3  2  0  0  0  0
 10 16  1  0  0  0  0
 11  1  1  0  0  0  0
 12  6  1  0  0  0  0
 13  4  1  0  0  0  0
 13 14  2  0  0  0  0
 14 10  1  0  0  0  0
 15  7  2  0  0  0  0
 15  3  1  0  0  0  0
 16 11  2  0  0  0  0
 17 23  1  0  0  0  0
 17 21  1  0  0  0  0
 18 17  2  0  0  0  0
 19 21  2  0  0  0  0
 19 14  1  0  0  0  0
 20 18  1  0  0  0  0
 20 22  2  0  0  0  0
 22 19  1  0  0  0  0
 25 24  1  0  0  0  0
 25 26  1  0  0  0  0
 26 27  1  0  0  0  0
 27 29  1  0  0  0  0
 28 30  2  0  0  0  0
 29 33  1  0  0  0  0
 29 30  1  0  0  0  0
 30 34  1  0  0  0  0
 32 31  1  0  0  0  0
 33 32  2  0  0  0  0
 34 31  2  0  0  0  0
M  END
>  <MODEL>
6

>  <REMARK>
 VINA RESULT:      -9.7      2.331      4.689
  Name = 
  6 active torsions:
  status: ('A' for Active; 'I' for Inactive)
    1  A    between atoms: C_3  and  N_13
    2  A    between atoms: C_3  and  C_17
    3  A    between atoms: C_5  and  C_18
    4  A    between atoms: C_12  and  C_28
    5  A    between atoms: C_17  and  N_29
    6  A    between atoms: C_18  and  N_29
                            x       y       z     vdW  Elec       q    Type
                         _______ _______ _______ _____ _____    ______ ____

>  <TORSDO>
F 6

$$$$
=
 OpenBabel10262423543D

 34 38  0  0  1  0  0  0  0  0999 V2000
  185.1280  178.3840  145.3170 C   0  0  0  0  0  0  0  0  0  0  0  0
  187.5290  177.7860  145.2600 O   0  0  0  0  0  0  0  0  0  0  0  0
  186.3270  178.2060  143.1900 C   0  0  0  0  0  0  0  0  0  0  0  0
  187.6220  178.5640  140.9930 C   0  0  1  0  0  3  0  0  0  0  0  0
  186.1520  179.2260  147.4100 C   0  0  0  0  0  2  0  0  0  0  0  0
  187.4360  178.4230  147.6160 C   0  0  0  0  0  2  0  0  0  0  0  0
  188.5680  177.4290  142.8880 O   0  0  0  0  0  0  0  0  0  0  0  0
  186.3270  178.1120  144.6050 C   0  0  0  0  0  0  0  0  0  0  0  0
  185.0400  178.3770  146.8120 C   0  0  0  0  0  2  0  0  0  0  0  0
  185.1330  178.5220  142.5010 C   0  0  0  0  0  0  0  0  0  0  0  0
  183.9680  178.7150  144.6210 C   0  0  0  0  0  3  0  0  0  0  0  0
  187.6230  177.3020  146.5960 C   0  0  0  0  0  2  0  0  0  0  0  0
  186.2760  178.5570  140.3320 C   0  0  0  0  0  3  0  0  0  0  0  0
  185.1160  178.5780  141.0060 C   0  0  0  0  0  0  0  0  0  0  0  0
  187.5590  178.0000  142.3910 C   0  0  0  0  0  0  0  0  0  0  0  0
  183.9700  178.7810  143.2330 C   0  0  0  0  0  3  0  0  0  0  0  0
  182.2350  179.7490  138.8210 C   0  0  0  0  0  0  0  0  0  0  0  0
  181.4330  178.6070  138.7870 C   0  0  0  0  0  3  0  0  0  0  0  0
  183.8520  178.5870  140.2220 C   0  0  0  0  0  0  0  0  0  0  0  0
  181.8300  177.4560  139.4710 C   0  0  0  0  0  3  0  0  0  0  0  0
  183.4340  179.7400  139.5370 C   0  0  0  0  0  3  0  0  0  0  0  0
  183.0300  177.4470  140.1870 C   0  0  0  0  0  3  0  0  0  0  0  0
  181.8400  180.8950  138.1440 O   0  0  0  0  0  1  0  0  0  0  0  0
  188.6120  177.8270  140.1030 C   0  0  0  0  0  2  0  0  0  0  0  0
  188.9570  178.6480  138.9560 N   0  0  0  0  0  2  0  0  0  0  0  0
  189.4960  177.7530  137.9490 C   0  0  0  0  0  2  0  0  0  0  0  0
  188.6850  177.8640  136.6650 C   0  0  0  0  0  2  0  0  0  0  0  0
  188.4430  175.1070  136.7740 O   0  0  0  0  0  0  0  0  0  0  0  0
  187.4180  177.1510  136.7900 N   0  0  0  0  0  0  0  0  0  0  0  0
  187.3810  175.7830  136.8430 C   0  0  0  0  0  0  0  0  0  0  0  0
  184.9810  175.8610  137.0470 C   0  0  0  0  0  3  0  0  0  0  0  0
  185.0330  177.2530  136.9910 C   0  0  0  0  0  3  0  0  0  0  0  0
  186.2710  177.8840  136.8630 C   0  0  0  0  0  3  0  0  0  0  0  0
  186.1580  175.1190  136.9720 C   0  0  0  0  0  3  0  0  0  0  0  0
  1  9  1  0  0  0  0
  2 12  1  0  0  0  0
  3  8  1  0  0  0  0
  4 24  1  6  0  0  0
  4 15  1  0  0  0  0
  5  6  1  0  0  0  0
  8  2  1  0  0  0  0
  8  1  2  0  0  0  0
  9  5  1  0  0  0  0
 10  3  2  0  0  0  0
 10 16  1  0  0  0  0
 11  1  1  0  0  0  0
 12  6  1  0  0  0  0
 13  4  1  0  0  0  0
 13 14  2  0  0  0  0
 14 10  1  0  0  0  0
 15  7  2  0  0  0  0
 15  3  1  0  0  0  0
 16 11  2  0  0  0  0
 17 21  1  0  0  0  0
 18 17  2  0  0  0  0
 18 20  1  0  0  0  0
 19 14  1  0  0  0  0
 20 22  2  0  0  0  0
 21 19  2  0  0  0  0
 22 19  1  0  0  0  0
 23 17  1  0  0  0  0
 25 24  1  0  0  0  0
 26 25  1  0  0  0  0
 27 29  1  0  0  0  0
 27 26  1  0  0  0  0
 28 30  2  0  0  0  0
 29 30  1  0  0  0  0
 29 33  1  0  0  0  0
 30 34  1  0  0  0  0
 32 31  1  0  0  0  0
 33 32  2  0  0  0  0
 34 31  2  0  0  0  0
M  END
>  <MODEL>
7

>  <REMARK>
 VINA RESULT:      -9.5      1.635      2.477
  Name = 
  6 active torsions:
  status: ('A' for Active; 'I' for Inactive)
    1  A    between atoms: C_3  and  N_13
    2  A    between atoms: C_3  and  C_17
    3  A    between atoms: C_5  and  C_18
    4  A    between atoms: C_12  and  C_28
    5  A    between atoms: C_17  and  N_29
    6  A    between atoms: C_18  and  N_29
                            x       y       z     vdW  Elec       q    Type
                         _______ _______ _______ _____ _____    ______ ____

>  <TORSDO>
F 6

$$$$
=
 OpenBabel10262423543D

 34 38  0  0  1  0  0  0  0  0999 V2000
  184.1650  178.6540  142.5980 C   0  0  0  0  0  0  0  0  0  0  0  0
  185.1210  178.8730  140.3250 O   0  0  0  0  0  0  0  0  0  0  0  0
  186.5440  178.2450  142.1930 C   0  0  0  0  0  0  0  0  0  0  0  0
  188.8960  177.2890  141.7610 C   0  0  1  0  0  3  0  0  0  0  0  0
  182.3740  178.0880  140.9820 C   0  0  0  0  0  2  0  0  0  0  0  0
  182.7790  178.7190  139.6500 C   0  0  0  0  0  2  0  0  0  0  0  0
  187.7150  178.6140  140.1400 O   0  0  0  0  0  0  0  0  0  0  0  0
  185.2650  178.6070  141.6990 C   0  0  0  0  0  0  0  0  0  0  0  0
  182.7640  178.9600  142.1670 C   0  0  0  0  0  2  0  0  0  0  0  0
  186.7240  177.9820  143.5700 C   0  0  0  0  0  0  0  0  0  0  0  0
  184.3590  178.3700  143.9470 C   0  0  0  0  0  3  0  0  0  0  0  0
  184.0340  179.5850  139.7430 C   0  0  0  0  0  2  0  0  0  0  0  0
  189.0750  177.3660  143.2480 C   0  0  0  0  0  3  0  0  0  0  0  0
  188.0810  177.6440  144.1030 C   0  0  0  0  0  0  0  0  0  0  0  0
  187.7200  178.1120  141.2980 C   0  0  0  0  0  0  0  0  0  0  0  0
  185.6210  178.0400  144.4270 C   0  0  0  0  0  3  0  0  0  0  0  0
  189.9420  177.2830  147.3980 C   0  0  0  0  0  0  0  0  0  0  0  0
  188.9610  177.6720  148.3130 C   0  0  0  0  0  3  0  0  0  0  0  0
  188.3960  177.6700  145.5570 C   0  0  0  0  0  0  0  0  0  0  0  0
  187.6970  178.0540  147.8590 C   0  0  0  0  0  3  0  0  0  0  0  0
  189.6590  177.2790  146.0300 C   0  0  0  0  0  3  0  0  0  0  0  0
  187.4150  178.0490  146.4900 C   0  0  0  0  0  3  0  0  0  0  0  0
  191.1980  176.9010  147.8480 O   0  0  0  0  0  1  0  0  0  0  0  0
  190.1990  177.6890  141.0850 C   0  0  0  0  0  2  0  0  0  0  0  0
  190.6440  176.6310  140.1960 N   0  0  0  0  0  2  0  0  0  0  0  0
  190.8400  177.2350  138.8910 C   0  0  0  0  0  2  0  0  0  0  0  0
  190.4510  176.2510  137.7970 C   0  0  0  0  0  2  0  0  0  0  0  0
  190.4200  173.5380  137.2380 O   0  0  0  0  0  0  0  0  0  0  0  0
  191.6120  175.4870  137.3530 N   0  0  0  0  0  0  0  0  0  0  0  0
  191.5150  174.1460  137.0910 C   0  0  0  0  0  0  0  0  0  0  0  0
  193.8500  174.1000  136.4940 C   0  0  0  0  0  3  0  0  0  0  0  0
  193.9340  175.4640  136.7650 C   0  0  0  0  0  3  0  0  0  0  0  0
  192.7950  176.1460  137.1960 C   0  0  0  0  0  3  0  0  0  0  0  0
  192.6360  173.4340  136.6570 C   0  0  0  0  0  3  0  0  0  0  0  0
  1 11  1  0  0  0  0
  2  8  1  0  0  0  0
  3 10  2  0  0  0  0
  4 24  1  6  0  0  0
  4 13  1  0  0  0  0
  5  9  1  0  0  0  0
  6 12  1  0  0  0  0
  6  5  1  0  0  0  0
  7 15  2  0  0  0  0
  8  3  1  0  0  0  0
  8  1  2  0  0  0  0
  9  1  1  0  0  0  0
 10 14  1  0  0  0  0
 10 16  1  0  0  0  0
 11 16  2  0  0  0  0
 12  2  1  0  0  0  0
 13 14  2  0  0  0  0
 14 19  1  0  0  0  0
 15  4  1  0  0  0  0
 15  3  1  0  0  0  0
 17 23  1  0  0  0  0
 17 18  1  0  0  0  0
 19 21  1  0  0  0  0
 19 22  2  0  0  0  0
 20 18  2  0  0  0  0
 21 17  2  0  0  0  0
 22 20  1  0  0  0  0
 25 24  1  0  0  0  0
 26 25  1  0  0  0  0
 27 26  1  0  0  0  0
 29 27  1  0  0  0  0
 30 28  2  0  0  0  0
 30 29  1  0  0  0  0
 31 34  2  0  0  0  0
 31 32  1  0  0  0  0
 32 33  2  0  0  0  0
 33 29  1  0  0  0  0
 34 30  1  0  0  0  0
M  END
>  <MODEL>
8

>  <REMARK>
 VINA RESULT:      -9.4      2.941      6.667
  Name = 
  6 active torsions:
  status: ('A' for Active; 'I' for Inactive)
    1  A    between atoms: C_3  and  N_13
    2  A    between atoms: C_3  and  C_17
    3  A    between atoms: C_5  and  C_18
    4  A    between atoms: C_12  and  C_28
    5  A    between atoms: C_17  and  N_29
    6  A    between atoms: C_18  and  N_29
                            x       y       z     vdW  Elec       q    Type
                         _______ _______ _______ _____ _____    ______ ____

>  <TORSDO>
F 6

$$$$
=
 OpenBabel10262423543D

 34 38  0  0  1  0  0  0  0  0999 V2000
  190.2040  176.3220  137.7450 C   0  0  0  0  0  0  0  0  0  0  0  0
  192.4340  176.6750  138.7610 O   0  0  0  0  0  0  0  0  0  0  0  0
  190.4220  177.1930  140.0220 C   0  0  0  0  0  0  0  0  0  0  0  0
  190.5560  177.5910  142.5630 C   0  0  1  0  0  3  0  0  0  0  0  0
  191.7440  174.6510  136.7560 C   0  0  0  0  0  2  0  0  0  0  0  0
  193.1580  175.1930  136.9600 C   0  0  0  0  0  2  0  0  0  0  0  0
  192.4570  177.8200  141.1110 O   0  0  0  0  0  0  0  0  0  0  0  0
  191.0300  176.7360  138.8250 C   0  0  0  0  0  0  0  0  0  0  0  0
  190.7440  175.7620  136.4660 C   0  0  0  0  0  2  0  0  0  0  0  0
  189.0130  177.2760  140.1160 C   0  0  0  0  0  0  0  0  0  0  0  0
  188.8180  176.3900  137.8650 C   0  0  0  0  0  3  0  0  0  0  0  0
  193.1910  176.5990  137.5580 C   0  0  0  0  0  2  0  0  0  0  0  0
  189.1100  177.9730  142.4640 C   0  0  0  0  0  3  0  0  0  0  0  0
  188.3690  177.8010  141.3600 C   0  0  0  0  0  0  0  0  0  0  0  0
  191.2230  177.5780  141.2100 C   0  0  0  0  0  0  0  0  0  0  0  0
  188.2310  176.8620  139.0330 C   0  0  0  0  0  3  0  0  0  0  0  0
  184.9780  179.1910  140.3480 C   0  0  0  0  0  0  0  0  0  0  0  0
  184.2490  179.0230  141.5270 C   0  0  0  0  0  3  0  0  0  0  0  0
  186.9390  178.2080  141.4070 C   0  0  0  0  0  0  0  0  0  0  0  0
  184.8580  178.4560  142.6490 C   0  0  0  0  0  3  0  0  0  0  0  0
  186.3150  178.7890  140.2900 C   0  0  0  0  0  3  0  0  0  0  0  0
  186.1950  178.0550  142.5900 C   0  0  0  0  0  3  0  0  0  0  0  0
  184.3750  179.7570  139.2330 O   0  0  0  0  0  1  0  0  0  0  0  0
  191.2460  178.5200  143.5520 C   0  0  0  0  0  2  0  0  0  0  0  0
  191.8860  177.7450  144.6000 N   0  0  0  0  0  2  0  0  0  0  0  0
  190.9150  176.7620  145.0450 C   0  0  0  0  0  2  0  0  0  0  0  0
  190.6710  176.9110  146.5400 C   0  0  0  0  0  2  0  0  0  0  0  0
  189.8520  178.1130  148.8970 O   0  0  0  0  0  0  0  0  0  0  0  0
  189.3140  177.3800  146.7990 N   0  0  0  0  0  0  0  0  0  0  0  0
  188.9880  177.9710  147.9910 C   0  0  0  0  0  0  0  0  0  0  0  0
  186.7240  178.2660  147.2180 C   0  0  0  0  0  3  0  0  0  0  0  0
  187.0700  177.6630  146.0100 C   0  0  0  0  0  3  0  0  0  0  0  0
  188.3810  177.2230  145.8180 C   0  0  0  0  0  3  0  0  0  0  0  0
  187.6850  178.4230  148.2150 C   0  0  0  0  0  3  0  0  0  0  0  0
  1 11  2  0  0  0  0
  1  8  1  0  0  0  0
  2  8  1  0  0  0  0
  3 10  1  0  0  0  0
  3 15  1  0  0  0  0
  4 24  1  1  0  0  0
  5  6  1  0  0  0  0
  6 12  1  0  0  0  0
  7 15  2  0  0  0  0
  8  3  2  0  0  0  0
  9  5  1  0  0  0  0
  9  1  1  0  0  0  0
 10 14  1  0  0  0  0
 11 16  1  0  0  0  0
 12  2  1  0  0  0  0
 13  4  1  0  0  0  0
 14 19  1  0  0  0  0
 14 13  2  0  0  0  0
 15  4  1  0  0  0  0
 16 10  2  0  0  0  0
 17 18  1  0  0  0  0
 18 20  2  0  0  0  0
 19 22  2  0  0  0  0
 21 17  2  0  0  0  0
 21 19  1  0  0  0  0
 22 20  1  0  0  0  0
 23 17  1  0  0  0  0
 24 25  1  0  0  0  0
 25 26  1  0  0  0  0
 26 27  1  0  0  0  0
 27 29  1  0  0  0  0
 29 30  1  0  0  0  0
 30 34  1  0  0  0  0
 30 28  2  0  0  0  0
 31 34  2  0  0  0  0
 32 31  1  0  0  0  0
 33 32  2  0  0  0  0
 33 29  1  0  0  0  0
M  END
>  <MODEL>
9

>  <REMARK>
 VINA RESULT:      -9.0      2.943      7.673
  Name = 
  6 active torsions:
  status: ('A' for Active; 'I' for Inactive)
    1  A    between atoms: C_3  and  N_13
    2  A    between atoms: C_3  and  C_17
    3  A    between atoms: C_5  and  C_18
    4  A    between atoms: C_12  and  C_28
    5  A    between atoms: C_17  and  N_29
    6  A    between atoms: C_18  and  N_29
                            x       y       z     vdW  Elec       q    Type
                         _______ _______ _______ _____ _____    ______ ____

>  <TORSDO>
F 6

$$$$
