=
 OpenBabel10272415153D

 34 38  0  0  1  0  0  0  0  0999 V2000
  185.9000  178.0510  142.3120 C   0  0  2  0  0  3  0  0  0  0  0  0
  186.6310  178.2070  146.0530 C   0  0  0  0  0  3  0  0  0  0  0  0
  184.7470  179.2290  144.7690 C   0  0  0  0  0  2  0  0  0  0  0  0
  183.5850  178.0260  141.3430 C   0  0  0  0  0  3  0  0  0  0  0  0
  181.6750  178.8470  142.5830 C   0  0  0  0  0  3  0  0  0  0  0  0
  182.2140  178.2880  141.4210 C   0  0  0  0  0  3  0  0  0  0  0  0
  183.8740  178.8740  143.6000 C   0  0  0  0  0  0  0  0  0  0  0  0
  184.4220  178.3210  142.4240 C   0  0  0  0  0  0  0  0  0  0  0  0
  182.5040  179.1410  143.6680 C   0  0  0  0  0  3  0  0  0  0  0  0
  187.8220  177.4710  146.1350 C   0  0  0  0  0  0  0  0  0  0  0  0
  188.3750  176.9330  144.9660 C   0  0  0  0  0  3  0  0  0  0  0  0
  185.9920  178.3920  144.8250 C   0  0  0  0  0  0  0  0  0  0  0  0
  187.7470  177.1190  143.7330 C   0  0  0  0  0  3  0  0  0  0  0  0
  186.5550  177.8460  143.6540 C   0  0  0  0  0  0  0  0  0  0  0  0
  188.1020  178.0590  148.6350 C   0  0  0  0  0  1  0  0  0  0  0  0
  189.3930  176.3930  147.5510 O   0  0  0  0  0  0  0  0  0  0  0  0
  188.4860  177.2610  147.4360 C   0  0  0  0  0  0  0  0  0  0  0  0
  186.6190  179.1020  141.4550 C   0  0  0  0  0  2  0  0  0  0  0  0
  188.0470  178.7140  141.0840 C   0  0  0  0  0  2  0  0  0  0  0  0
  187.8100  177.6170  136.6840 C   0  0  0  0  0  2  0  0  0  0  0  0
  189.4010  178.2140  139.0730 C   0  0  0  0  0  2  0  0  0  0  0  0
  190.8280  175.2010  136.2360 C   0  0  2  0  0  0  0  0  0  0  0  0
  191.6730  176.1510  135.6570 O   0  0  0  0  0  1  0  0  0  0  0  0
  189.3800  175.6770  136.1140 C   0  0  0  0  0  2  0  0  0  0  0  0
  189.0380  176.8240  137.0340 C   0  0  0  0  0  0  0  0  0  0  0  0
  188.0790  177.9440  139.7760 C   0  0  2  0  0  3  0  0  0  0  0  0
  191.0440  176.3540  138.4610 C   0  0  0  0  0  2  0  0  0  0  0  0
  189.7590  177.0830  138.1560 C   0  0  0  0  0  0  0  0  0  0  0  0
  191.1720  175.0270  137.7160 C   0  0  0  0  0  2  0  0  0  0  0  0
  186.9090  178.3740  138.8990 C   0  0  0  0  0  2  0  0  0  0  0  0
  186.7110  177.4300  137.7220 C   0  0  0  0  0  2  0  0  0  0  0  0
  190.9870  173.8750  135.4850 C   0  0  0  0  0  3  0  0  0  0  0  0
  189.7460  173.3170  135.1690 O   0  0  0  0  0  1  0  0  0  0  0  0
  191.7320  172.9630  136.2370 O   0  0  0  0  0  1  0  0  0  0  0  0
  1 18  1  1  0  0  0
  1  8  1  0  0  0  0
  1 14  1  0  0  0  0
  2 10  1  0  0  0  0
  3 12  1  0  0  0  0
  4  6  2  0  0  0  0
  4  8  1  0  0  0  0
  5  9  2  0  0  0  0
  6  5  1  0  0  0  0
  7  9  1  0  0  0  0
  7  3  1  0  0  0  0
  8  7  2  0  0  0  0
 10 17  1  0  0  0  0
 11 10  2  0  0  0  0
 12  2  2  0  0  0  0
 13 11  1  0  0  0  0
 14 13  2  0  0  0  0
 14 12  1  0  0  0  0
 17 16  2  0  0  0  0
 17 15  1  0  0  0  0
 19 18  1  0  0  0  0
 20 25  1  0  0  0  0
 20 31  1  0  0  0  0
 21 26  1  0  0  0  0
 22 23  1  6  0  0  0
 22 29  1  0  0  0  0
 24 22  1  0  0  0  0
 24 25  1  0  0  0  0
 25 28  2  0  0  0  0
 26 19  1  1  0  0  0
 28 27  1  0  0  0  0
 28 21  1  0  0  0  0
 29 27  1  0  0  0  0
 30 26  1  0  0  0  0
 31 30  1  0  0  0  0
 32 22  1  0  0  0  0
 32 34  1  0  0  0  0
 33 32  1  0  0  0  0
M  END
>  <MODEL>
1

>  <REMARK>
 VINA RESULT:     -10.3      0.000      0.000
  Name = 
  5 active torsions:
  status: ('A' for Active; 'I' for Inactive)
    1  A    between atoms: C_1  and  C_9
    2  A    between atoms: C_7  and  C_11
    3  A    between atoms: C_8  and  C_9
    4  A    between atoms: C_8  and  C_18
    5  A    between atoms: C_23  and  C_25
                            x       y       z     vdW  Elec       q    Type
                         _______ _______ _______ _____ _____    ______ ____

>  <TORSDO>
F 5

$$$$
=
 OpenBabel10272415153D

 34 38  0  0  1  0  0  0  0  0999 V2000
  184.5920  178.2640  141.8550 C   0  0  2  0  0  3  0  0  0  0  0  0
  185.8230  178.4530  145.4610 C   0  0  0  0  0  3  0  0  0  0  0  0
  183.7080  179.3360  144.4670 C   0  0  0  0  0  2  0  0  0  0  0  0
  182.1730  178.0680  141.2150 C   0  0  0  0  0  3  0  0  0  0  0  0
  180.3980  178.7330  142.7210 C   0  0  0  0  0  3  0  0  0  0  0  0
  180.8100  178.2240  141.4870 C   0  0  0  0  0  3  0  0  0  0  0  0
  182.7090  178.9220  143.4250 C   0  0  0  0  0  0  0  0  0  0  0  0
  183.1280  178.4190  142.1750 C   0  0  0  0  0  0  0  0  0  0  0  0
  181.3460  179.0840  143.6860 C   0  0  0  0  0  3  0  0  0  0  0  0
  187.0660  177.8100  145.3650 C   0  0  0  0  0  0  0  0  0  0  0  0
  187.4890  177.3220  144.1210 C   0  0  0  0  0  3  0  0  0  0  0  0
  185.0070  178.5960  144.3360 C   0  0  0  0  0  0  0  0  0  0  0  0
  186.6830  177.4680  142.9910 C   0  0  0  0  0  3  0  0  0  0  0  0
  185.4410  178.1020  143.0890 C   0  0  0  0  0  0  0  0  0  0  0  0
  187.4660  178.1080  147.8990 C   0  0  0  0  0  1  0  0  0  0  0  0
  189.0500  177.0980  146.4560 O   0  0  0  0  0  0  0  0  0  0  0  0
  187.9190  177.6440  146.5580 C   0  0  0  0  0  0  0  0  0  0  0  0
  185.1030  179.3720  140.9240 C   0  0  0  0  0  2  0  0  0  0  0  0
  184.5710  179.2630  139.4980 C   0  0  0  0  0  2  0  0  0  0  0  0
  185.8040  176.3050  136.2800 C   0  0  0  0  0  2  0  0  0  0  0  0
  186.4210  178.6060  137.9890 C   0  0  0  0  0  2  0  0  0  0  0  0
  189.5740  175.7180  137.0490 C   0  0  2  0  0  0  0  0  0  0  0  0
  190.0470  176.5670  136.0460 O   0  0  0  0  0  1  0  0  0  0  0  0
  188.1270  175.3330  136.7390 C   0  0  0  0  0  2  0  0  0  0  0  0
  187.1400  176.4540  136.9540 C   0  0  0  0  0  0  0  0  0  0  0  0
  185.2150  178.0990  138.7650 C   0  0  2  0  0  3  0  0  0  0  0  0
  188.7840  177.7090  138.3690 C   0  0  0  0  0  2  0  0  0  0  0  0
  187.4150  177.5050  137.7680 C   0  0  0  0  0  0  0  0  0  0  0  0
  189.6200  176.4310  138.4020 C   0  0  0  0  0  2  0  0  0  0  0  0
  184.2010  177.4640  137.8210 C   0  0  0  0  0  2  0  0  0  0  0  0
  184.6850  176.1200  137.2960 C   0  0  0  0  0  2  0  0  0  0  0  0
  190.4380  174.4530  137.0760 C   0  0  0  0  0  3  0  0  0  0  0  0
  189.6660  173.3150  137.3210 O   0  0  0  0  0  1  0  0  0  0  0  0
  191.4410  174.5550  138.0430 O   0  0  0  0  0  1  0  0  0  0  0  0
  1 18  1  1  0  0  0
  1  8  1  0  0  0  0
  1 14  1  0  0  0  0
  4  6  2  0  0  0  0
  4  8  1  0  0  0  0
  5  9  2  0  0  0  0
  6  5  1  0  0  0  0
  7  9  1  0  0  0  0
  7  3  1  0  0  0  0
  8  7  2  0  0  0  0
 10  2  1  0  0  0  0
 10 17  1  0  0  0  0
 11 10  2  0  0  0  0
 12  3  1  0  0  0  0
 12  2  2  0  0  0  0
 13 14  2  0  0  0  0
 13 11  1  0  0  0  0
 14 12  1  0  0  0  0
 16 17  2  0  0  0  0
 17 15  1  0  0  0  0
 19 18  1  0  0  0  0
 20 25  1  0  0  0  0
 20 31  1  0  0  0  0
 21 26  1  0  0  0  0
 22 23  1  6  0  0  0
 22 32  1  0  0  0  0
 22 29  1  0  0  0  0
 24 25  1  0  0  0  0
 24 22  1  0  0  0  0
 25 28  2  0  0  0  0
 26 19  1  6  0  0  0
 27 29  1  0  0  0  0
 28 21  1  0  0  0  0
 28 27  1  0  0  0  0
 30 26  1  0  0  0  0
 31 30  1  0  0  0  0
 32 33  1  0  0  0  0
 32 34  1  0  0  0  0
M  END
>  <MODEL>
2

>  <REMARK>
 VINA RESULT:     -10.1      1.382      1.931
  Name = 
  5 active torsions:
  status: ('A' for Active; 'I' for Inactive)
    1  A    between atoms: C_1  and  C_9
    2  A    between atoms: C_7  and  C_11
    3  A    between atoms: C_8  and  C_9
    4  A    between atoms: C_8  and  C_18
    5  A    between atoms: C_23  and  C_25
                            x       y       z     vdW  Elec       q    Type
                         _______ _______ _______ _____ _____    ______ ____

>  <TORSDO>
F 5

$$$$
=
 OpenBabel10272415153D

 34 38  0  0  1  0  0  0  0  0999 V2000
  184.3960  178.9450  139.6460 C   0  0  2  0  0  3  0  0  0  0  0  0
  186.1580  176.8920  136.9560 C   0  0  0  0  0  3  0  0  0  0  0  0
  183.7130  177.2690  137.3050 C   0  0  0  0  0  2  0  0  0  0  0  0
  182.2520  180.1940  139.2670 C   0  0  0  0  0  3  0  0  0  0  0  0
  180.7420  179.6180  137.4640 C   0  0  0  0  0  3  0  0  0  0  0  0
  181.0610  180.4130  138.5680 C   0  0  0  0  0  3  0  0  0  0  0  0
  182.8100  178.3850  137.7450 C   0  0  0  0  0  0  0  0  0  0  0  0
  183.1280  179.1790  138.8660 C   0  0  0  0  0  0  0  0  0  0  0  0
  181.6140  178.6040  137.0560 C   0  0  0  0  0  3  0  0  0  0  0  0
  187.5030  177.0540  137.3180 C   0  0  0  0  0  0  0  0  0  0  0  0
  187.8200  177.8320  138.4400 C   0  0  0  0  0  3  0  0  0  0  0  0
  185.1430  177.5080  137.6920 C   0  0  0  0  0  0  0  0  0  0  0  0
  186.8110  178.4450  139.1860 C   0  0  0  0  0  3  0  0  0  0  0  0
  185.4710  178.2890  138.8190 C   0  0  0  0  0  0  0  0  0  0  0  0
  189.9920  176.8610  136.6540 C   0  0  0  0  0  1  0  0  0  0  0  0
  188.3020  175.4770  135.7340 O   0  0  0  0  0  0  0  0  0  0  0  0
  188.5750  176.4170  136.5290 C   0  0  0  0  0  0  0  0  0  0  0  0
  184.1360  178.2130  140.9700 C   0  0  0  0  0  2  0  0  0  0  0  0
  184.0460  179.1460  142.1740 C   0  0  0  0  0  2  0  0  0  0  0  0
  186.6100  177.5300  145.5560 C   0  0  0  0  0  2  0  0  0  0  0  0
  185.9530  177.6590  142.7020 C   0  0  0  0  0  2  0  0  0  0  0  0
  190.1410  177.3160  143.9320 C   0  0  2  0  0  0  0  0  0  0  0  0
  190.0940  175.9400  143.6950 O   0  0  0  0  0  1  0  0  0  0  0  0
  189.1040  177.6770  144.9960 C   0  0  0  0  0  2  0  0  0  0  0  0
  187.6790  177.6160  144.5020 C   0  0  0  0  0  0  0  0  0  0  0  0
  185.1950  178.9030  143.1370 C   0  0  2  0  0  3  0  0  0  0  0  0
  188.4410  177.6920  142.1160 C   0  0  0  0  0  2  0  0  0  0  0  0
  187.3730  177.7040  143.1820 C   0  0  0  0  0  0  0  0  0  0  0  0
  189.8200  178.0790  142.6460 C   0  0  0  0  0  2  0  0  0  0  0  0
  184.6520  178.7310  144.5510 C   0  0  0  0  0  2  0  0  0  0  0  0
  185.7610  178.7940  145.5920 C   0  0  0  0  0  2  0  0  0  0  0  0
  191.5380  177.6830  144.4440 C   0  0  0  0  0  3  0  0  0  0  0  0
  191.6670  177.4100  145.8080 O   0  0  0  0  0  1  0  0  0  0  0  0
  191.8160  179.0310  144.2080 O   0  0  0  0  0  1  0  0  0  0  0  0
  1 18  1  1  0  0  0
  2 10  2  0  0  0  0
  2 12  1  0  0  0  0
  3 12  1  0  0  0  0
  3  7  1  0  0  0  0
  5  6  1  0  0  0  0
  6  4  2  0  0  0  0
  7  8  2  0  0  0  0
  8  4  1  0  0  0  0
  8  1  1  0  0  0  0
  9  5  2  0  0  0  0
  9  7  1  0  0  0  0
 10 11  1  0  0  0  0
 11 13  2  0  0  0  0
 12 14  2  0  0  0  0
 14 13  1  0  0  0  0
 14  1  1  0  0  0  0
 16 17  2  0  0  0  0
 17 15  1  0  0  0  0
 17 10  1  0  0  0  0
 18 19  1  0  0  0  0
 20 31  1  0  0  0  0
 21 26  1  0  0  0  0
 21 28  1  0  0  0  0
 22 23  1  6  0  0  0
 22 32  1  0  0  0  0
 22 24  1  0  0  0  0
 25 24  1  0  0  0  0
 25 20  1  0  0  0  0
 26 19  1  6  0  0  0
 26 30  1  0  0  0  0
 27 29  1  0  0  0  0
 27 28  1  0  0  0  0
 28 25  2  0  0  0  0
 29 22  1  0  0  0  0
 30 31  1  0  0  0  0
 32 33  1  0  0  0  0
 34 32  1  0  0  0  0
M  END
>  <MODEL>
3

>  <REMARK>
 VINA RESULT:      -9.8      2.382      7.433
  Name = 
  5 active torsions:
  status: ('A' for Active; 'I' for Inactive)
    1  A    between atoms: C_1  and  C_9
    2  A    between atoms: C_7  and  C_11
    3  A    between atoms: C_8  and  C_9
    4  A    between atoms: C_8  and  C_18
    5  A    between atoms: C_23  and  C_25
                            x       y       z     vdW  Elec       q    Type
                         _______ _______ _______ _____ _____    ______ ____

>  <TORSDO>
F 5

$$$$
=
 OpenBabel10272415153D

 34 38  0  0  1  0  0  0  0  0999 V2000
  185.7390  178.0340  142.3140 C   0  0  2  0  0  3  0  0  0  0  0  0
  186.5540  178.2440  146.0350 C   0  0  0  0  0  3  0  0  0  0  0  0
  184.6600  179.2750  144.7730 C   0  0  0  0  0  2  0  0  0  0  0  0
  183.4030  178.0320  141.3950 C   0  0  0  0  0  3  0  0  0  0  0  0
  181.5340  178.9080  142.6610 C   0  0  0  0  0  3  0  0  0  0  0  0
  182.0380  178.3190  141.4980 C   0  0  0  0  0  3  0  0  0  0  0  0
  183.7560  178.9150  143.6300 C   0  0  0  0  0  0  0  0  0  0  0  0
  184.2680  178.3310  142.4530 C   0  0  0  0  0  0  0  0  0  0  0  0
  182.3920  179.2070  143.7230 C   0  0  0  0  0  3  0  0  0  0  0  0
  187.7330  177.4890  146.1040 C   0  0  0  0  0  0  0  0  0  0  0  0
  188.2520  176.9200  144.9330 C   0  0  0  0  0  3  0  0  0  0  0  0
  185.8910  178.4180  144.8180 C   0  0  0  0  0  0  0  0  0  0  0  0
  187.6000  177.0960  143.7110 C   0  0  0  0  0  3  0  0  0  0  0  0
  186.4190  177.8420  143.6440 C   0  0  0  0  0  0  0  0  0  0  0  0
  187.9970  178.0300  148.6170 C   0  0  0  0  0  1  0  0  0  0  0  0
  189.3870  176.4840  147.4800 O   0  0  0  0  0  0  0  0  0  0  0  0
  188.4230  177.2910  147.3940 C   0  0  0  0  0  0  0  0  0  0  0  0
  186.4560  179.0570  141.4220 C   0  0  0  0  0  2  0  0  0  0  0  0
  186.7430  178.5440  140.0140 C   0  0  0  0  0  2  0  0  0  0  0  0
  190.8170  176.6520  140.6770 C   0  0  0  0  0  2  0  0  0  0  0  0
  188.2810  176.7780  139.2130 C   0  0  0  0  0  2  0  0  0  0  0  0
  191.9600  175.7790  137.0600 C   0  0  2  0  0  0  0  0  0  0  0  0
  191.6360  174.4230  137.1430 O   0  0  0  0  0  1  0  0  0  0  0  0
  192.0830  176.3530  138.4720 C   0  0  0  0  0  2  0  0  0  0  0  0
  190.7610  176.5140  139.1810 C   0  0  0  0  0  0  0  0  0  0  0  0
  188.2020  178.1490  139.8660 C   0  0  2  0  0  3  0  0  0  0  0  0
  189.5140  176.3670  137.0120 C   0  0  0  0  0  2  0  0  0  0  0  0
  189.5890  176.6000  138.5010 C   0  0  0  0  0  0  0  0  0  0  0  0
  190.8610  176.5340  136.3110 C   0  0  0  0  0  2  0  0  0  0  0  0
  188.8680  178.1270  141.2370 C   0  0  0  0  0  2  0  0  0  0  0  0
  190.3840  178.0420  141.1250 C   0  0  0  0  0  2  0  0  0  0  0  0
  193.3030  175.9240  136.3380 C   0  0  0  0  0  3  0  0  0  0  0  0
  194.1220  176.8630  136.9710 O   0  0  0  0  0  1  0  0  0  0  0  0
  193.1140  176.2920  135.0040 O   0  0  0  0  0  1  0  0  0  0  0  0
  1 18  1  1  0  0  0
  1  8  1  0  0  0  0
  1 14  1  0  0  0  0
  2 10  1  0  0  0  0
  3 12  1  0  0  0  0
  4  6  2  0  0  0  0
  4  8  1  0  0  0  0
  5  9  2  0  0  0  0
  6  5  1  0  0  0  0
  7  9  1  0  0  0  0
  7  3  1  0  0  0  0
  8  7  2  0  0  0  0
 10 17  1  0  0  0  0
 11 10  2  0  0  0  0
 12  2  2  0  0  0  0
 13 11  1  0  0  0  0
 14 13  2  0  0  0  0
 14 12  1  0  0  0  0
 17 16  2  0  0  0  0
 17 15  1  0  0  0  0
 19 18  1  0  0  0  0
 20 31  1  0  0  0  0
 21 26  1  0  0  0  0
 22 23  1  1  0  0  0
 22 24  1  0  0  0  0
 24 25  1  0  0  0  0
 25 20  1  0  0  0  0
 26 19  1  1  0  0  0
 26 30  1  0  0  0  0
 27 28  1  0  0  0  0
 28 25  2  0  0  0  0
 28 21  1  0  0  0  0
 29 27  1  0  0  0  0
 29 22  1  0  0  0  0
 31 30  1  0  0  0  0
 32 33  1  0  0  0  0
 32 22  1  0  0  0  0
 34 32  1  0  0  0  0
M  END
>  <MODEL>
4

>  <REMARK>
 VINA RESULT:      -9.8      1.110      2.202
  Name = 
  5 active torsions:
  status: ('A' for Active; 'I' for Inactive)
    1  A    between atoms: C_1  and  C_9
    2  A    between atoms: C_7  and  C_11
    3  A    between atoms: C_8  and  C_9
    4  A    between atoms: C_8  and  C_18
    5  A    between atoms: C_23  and  C_25
                            x       y       z     vdW  Elec       q    Type
                         _______ _______ _______ _____ _____    ______ ____

>  <TORSDO>
F 5

$$$$
=
 OpenBabel10272415153D

 34 38  0  0  1  0  0  0  0  0999 V2000
  188.9700  177.9900  141.9900 C   0  0  2  0  0  3  0  0  0  0  0  0
  185.5090  177.9040  143.5930 C   0  0  0  0  0  3  0  0  0  0  0  0
  187.6760  177.0230  144.4700 C   0  0  0  0  0  2  0  0  0  0  0  0
  191.1050  178.2040  143.2920 C   0  0  0  0  0  3  0  0  0  0  0  0
  191.2320  177.6210  145.6390 C   0  0  0  0  0  3  0  0  0  0  0  0
  191.8470  178.0800  144.4710 C   0  0  0  0  0  3  0  0  0  0  0  0
  189.1250  177.4180  144.4580 C   0  0  0  0  0  0  0  0  0  0  0  0
  189.7470  177.8700  143.2760 C   0  0  0  0  0  0  0  0  0  0  0  0
  189.8740  177.2880  145.6310 C   0  0  0  0  0  3  0  0  0  0  0  0
  184.7290  178.5230  142.6050 C   0  0  0  0  0  0  0  0  0  0  0  0
  185.3430  178.9600  141.4240 C   0  0  0  0  0  3  0  0  0  0  0  0
  186.8840  177.7370  143.4130 C   0  0  0  0  0  0  0  0  0  0  0  0
  186.7150  178.7890  141.2320 C   0  0  0  0  0  3  0  0  0  0  0  0
  187.4930  178.1800  142.2220 C   0  0  0  0  0  0  0  0  0  0  0  0
  182.6980  178.8320  144.1720 C   0  0  0  0  0  1  0  0  0  0  0  0
  182.5080  178.7880  141.8100 O   0  0  0  0  0  0  0  0  0  0  0  0
  183.2790  178.7150  142.8040 C   0  0  0  0  0  0  0  0  0  0  0  0
  189.2760  176.8410  141.0180 C   0  0  0  0  0  2  0  0  0  0  0  0
  189.8720  177.3070  139.6930 C   0  0  0  0  0  2  0  0  0  0  0  0
  187.7170  178.0380  135.7630 C   0  0  0  0  0  2  0  0  0  0  0  0
  188.9130  176.1930  137.7020 C   0  0  0  0  0  2  0  0  0  0  0  0
  185.3170  174.9830  135.5160 C   0  0  2  0  0  0  0  0  0  0  0  0
  186.1100  174.2660  134.6170 O   0  0  0  0  0  1  0  0  0  0  0  0
  185.7240  176.4570  135.4770 C   0  0  0  0  0  2  0  0  0  0  0  0
  187.0560  176.7380  136.1290 C   0  0  0  0  0  0  0  0  0  0  0  0
  188.8020  177.4000  138.6190 C   0  0  2  0  0  3  0  0  0  0  0  0
  186.9890  174.5480  137.3460 C   0  0  0  0  0  2  0  0  0  0  0  0
  187.5960  175.8960  137.0470 C   0  0  0  0  0  0  0  0  0  0  0  0
  185.5210  174.4490  136.9350 C   0  0  0  0  0  2  0  0  0  0  0  0
  188.9820  178.6910  137.8280 C   0  0  0  0  0  2  0  0  0  0  0  0
  187.7720  178.9880  136.9530 C   0  0  0  0  0  2  0  0  0  0  0  0
  183.8500  174.8540  135.0960 C   0  0  0  0  0  3  0  0  0  0  0  0
  183.0790  175.9000  135.6100 O   0  0  0  0  0  1  0  0  0  0  0  0
  183.3180  173.6320  135.5140 O   0  0  0  0  0  1  0  0  0  0  0  0
  1 18  1  6  0  0  0
  1 14  1  0  0  0  0
  1  8  1  0  0  0  0
  4  6  1  0  0  0  0
  6  5  2  0  0  0  0
  7  3  1  0  0  0  0
  7  9  2  0  0  0  0
  8  4  2  0  0  0  0
  8  7  1  0  0  0  0
  9  5  1  0  0  0  0
 10 17  1  0  0  0  0
 10  2  2  0  0  0  0
 11 10  1  0  0  0  0
 12  2  1  0  0  0  0
 12  3  1  0  0  0  0
 13 11  2  0  0  0  0
 13 14  1  0  0  0  0
 14 12  2  0  0  0  0
 16 17  2  0  0  0  0
 17 15  1  0  0  0  0
 19 18  1  0  0  0  0
 20 25  1  0  0  0  0
 20 31  1  0  0  0  0
 21 26  1  0  0  0  0
 22 23  1  6  0  0  0
 22 29  1  0  0  0  0
 24 22  1  0  0  0  0
 24 25  1  0  0  0  0
 25 28  2  0  0  0  0
 26 19  1  1  0  0  0
 28 27  1  0  0  0  0
 28 21  1  0  0  0  0
 29 27  1  0  0  0  0
 30 26  1  0  0  0  0
 31 30  1  0  0  0  0
 32 34  1  0  0  0  0
 32 22  1  0  0  0  0
 32 33  1  0  0  0  0
M  END
>  <MODEL>
5

>  <REMARK>
 VINA RESULT:      -9.5      3.087      5.501
  Name = 
  5 active torsions:
  status: ('A' for Active; 'I' for Inactive)
    1  A    between atoms: C_1  and  C_9
    2  A    between atoms: C_7  and  C_11
    3  A    between atoms: C_8  and  C_9
    4  A    between atoms: C_8  and  C_18
    5  A    between atoms: C_23  and  C_25
                            x       y       z     vdW  Elec       q    Type
                         _______ _______ _______ _____ _____    ______ ____

>  <TORSDO>
F 5

$$$$
=
 OpenBabel10272415153D

 34 38  0  0  1  0  0  0  0  0999 V2000
  187.6540  177.8930  142.2820 C   0  0  2  0  0  3  0  0  0  0  0  0
  191.3820  177.6510  141.5060 C   0  0  0  0  0  3  0  0  0  0  0  0
  190.2530  178.3290  143.6290 C   0  0  0  0  0  2  0  0  0  0  0  0
  186.6650  177.4110  144.5380 C   0  0  0  0  0  3  0  0  0  0  0  0
  187.9960  177.4970  146.5590 C   0  0  0  0  0  3  0  0  0  0  0  0
  186.7670  177.2880  145.9280 C   0  0  0  0  0  3  0  0  0  0  0  0
  189.0320  177.9430  144.4140 C   0  0  0  0  0  0  0  0  0  0  0  0
  187.7900  177.7440  143.7760 C   0  0  0  0  0  0  0  0  0  0  0  0
  189.1250  177.8270  145.8030 C   0  0  0  0  0  3  0  0  0  0  0  0
  191.3610  177.2510  140.1620 C   0  0  0  0  0  0  0  0  0  0  0  0
  190.1280  177.0660  139.5230 C   0  0  0  0  0  3  0  0  0  0  0  0
  190.1910  177.8500  142.2080 C   0  0  0  0  0  0  0  0  0  0  0  0
  188.9330  177.2710  140.2150 C   0  0  0  0  0  3  0  0  0  0  0  0
  188.9550  177.6620  141.5570 C   0  0  0  0  0  0  0  0  0  0  0  0
  192.6150  176.4860  138.0370 C   0  0  0  0  0  1  0  0  0  0  0  0
  193.7270  177.2900  139.9690 O   0  0  0  0  0  0  0  0  0  0  0  0
  192.6200  177.0240  139.4270 C   0  0  0  0  0  0  0  0  0  0  0  0
  186.9830  179.2170  141.8900 C   0  0  0  0  0  2  0  0  0  0  0  0
  185.4590  179.1470  141.8800 C   0  0  0  0  0  2  0  0  0  0  0  0
  182.9440  177.4510  138.5010 C   0  0  0  0  0  2  0  0  0  0  0  0
  185.2560  179.0030  139.4170 C   0  0  0  0  0  2  0  0  0  0  0  0
  185.6120  176.5330  135.8190 C   0  0  2  0  0  0  0  0  0  0  0  0
  185.3960  177.6640  135.0270 O   0  0  0  0  0  1  0  0  0  0  0  0
  184.3990  176.3180  136.7250 C   0  0  0  0  0  2  0  0  0  0  0  0
  184.2920  177.3210  137.8470 C   0  0  0  0  0  0  0  0  0  0  0  0
  184.9610  178.2910  140.7280 C   0  0  2  0  0  3  0  0  0  0  0  0
  186.6980  177.9670  137.5790 C   0  0  0  0  0  2  0  0  0  0  0  0
  185.3690  178.0190  138.2900 C   0  0  0  0  0  0  0  0  0  0  0  0
  186.8530  176.7340  136.6900 C   0  0  0  0  0  2  0  0  0  0  0  0
  183.4640  178.0480  140.8800 C   0  0  0  0  0  2  0  0  0  0  0  0
  182.9730  176.9550  139.9410 C   0  0  0  0  0  2  0  0  0  0  0  0
  185.7830  175.3150  134.9070 C   0  0  0  0  0  3  0  0  0  0  0  0
  184.9130  174.2830  135.2680 O   0  0  0  0  0  1  0  0  0  0  0  0
  187.0990  174.8490  134.9390 O   0  0  0  0  0  1  0  0  0  0  0  0
  1 18  1  1  0  0  0
  1  8  1  0  0  0  0
  2 12  1  0  0  0  0
  3  7  1  0  0  0  0
  4  6  1  0  0  0  0
  6  5  2  0  0  0  0
  7  9  2  0  0  0  0
  8  7  1  0  0  0  0
  8  4  2  0  0  0  0
  9  5  1  0  0  0  0
 10  2  2  0  0  0  0
 11 10  1  0  0  0  0
 11 13  2  0  0  0  0
 12  3  1  0  0  0  0
 13 14  1  0  0  0  0
 14 12  2  0  0  0  0
 14  1  1  0  0  0  0
 15 17  1  0  0  0  0
 17 16  2  0  0  0  0
 17 10  1  0  0  0  0
 19 18  1  0  0  0  0
 20 31  1  0  0  0  0
 21 26  1  0  0  0  0
 22 23  1  6  0  0  0
 22 29  1  0  0  0  0
 22 24  1  0  0  0  0
 24 25  1  0  0  0  0
 25 28  2  0  0  0  0
 25 20  1  0  0  0  0
 26 30  1  0  0  0  0
 26 19  1  1  0  0  0
 27 28  1  0  0  0  0
 28 21  1  0  0  0  0
 29 27  1  0  0  0  0
 31 30  1  0  0  0  0
 32 34  1  0  0  0  0
 32 33  1  0  0  0  0
 32 22  1  0  0  0  0
M  END
>  <MODEL>
6

>  <REMARK>
 VINA RESULT:      -9.4      2.646      5.631
  Name = 
  5 active torsions:
  status: ('A' for Active; 'I' for Inactive)
    1  A    between atoms: C_1  and  C_9
    2  A    between atoms: C_7  and  C_11
    3  A    between atoms: C_8  and  C_9
    4  A    between atoms: C_8  and  C_18
    5  A    between atoms: C_23  and  C_25
                            x       y       z     vdW  Elec       q    Type
                         _______ _______ _______ _____ _____    ______ ____

>  <TORSDO>
F 5

$$$$
=
 OpenBabel10272415153D

 34 38  0  0  1  0  0  0  0  0999 V2000
  187.9720  177.8020  143.8790 C   0  0  2  0  0  3  0  0  0  0  0  0
  184.2200  178.2030  144.4390 C   0  0  0  0  0  3  0  0  0  0  0  0
  185.9590  177.3010  145.9900 C   0  0  0  0  0  2  0  0  0  0  0  0
  189.6870  178.0450  145.6960 C   0  0  0  0  0  3  0  0  0  0  0  0
  189.1110  177.7990  148.0340 C   0  0  0  0  0  3  0  0  0  0  0  0
  190.0650  178.0380  147.0420 C   0  0  0  0  0  3  0  0  0  0  0  0
  187.3910  177.5820  146.3410 C   0  0  0  0  0  0  0  0  0  0  0  0
  188.3550  177.8120  145.3370 C   0  0  0  0  0  0  0  0  0  0  0  0
  187.7780  177.5690  147.6840 C   0  0  0  0  0  3  0  0  0  0  0  0
  183.8090  178.7280  143.2060 C   0  0  0  0  0  0  0  0  0  0  0  0
  184.7620  178.9440  142.2030 C   0  0  0  0  0  3  0  0  0  0  0  0
  185.5650  177.9110  144.6760 C   0  0  0  0  0  0  0  0  0  0  0  0
  186.1080  178.6470  142.4280 C   0  0  0  0  0  3  0  0  0  0  0  0
  186.5180  178.1310  143.6610 C   0  0  0  0  0  0  0  0  0  0  0  0
  181.3890  179.0040  144.0680 C   0  0  0  0  0  1  0  0  0  0  0  0
  182.0030  179.3850  141.8110 O   0  0  0  0  0  0  0  0  0  0  0  0
  182.3890  179.0530  142.9640 C   0  0  0  0  0  0  0  0  0  0  0  0
  188.3990  176.5060  143.1760 C   0  0  0  0  0  2  0  0  0  0  0  0
  189.6970  176.6410  142.3850 C   0  0  0  0  0  2  0  0  0  0  0  0
  189.2140  178.5140  138.2760 C   0  0  0  0  0  2  0  0  0  0  0  0
  190.7290  176.8360  140.1440 C   0  0  0  0  0  2  0  0  0  0  0  0
  190.5890  175.7500  135.9040 C   0  0  2  0  0  0  0  0  0  0  0  0
  191.8370  176.3490  135.7140 O   0  0  0  0  0  1  0  0  0  0  0  0
  189.6010  176.8010  136.4130 C   0  0  0  0  0  2  0  0  0  0  0  0
  189.8370  177.2140  137.8450 C   0  0  0  0  0  0  0  0  0  0  0  0
  189.4140  176.8470  140.9070 C   0  0  2  0  0  3  0  0  0  0  0  0
  191.2220  175.1700  138.2690 C   0  0  0  0  0  2  0  0  0  0  0  0
  190.5140  176.4240  138.7170 C   0  0  0  0  0  0  0  0  0  0  0  0
  190.6990  174.6300  136.9390 C   0  0  0  0  0  2  0  0  0  0  0  0
  188.6890  178.1730  140.7040 C   0  0  0  0  0  2  0  0  0  0  0  0
  188.1110  178.2900  139.3010 C   0  0  0  0  0  2  0  0  0  0  0  0
  190.0930  175.2010  134.5630 C   0  0  0  0  0  3  0  0  0  0  0  0
  188.7500  175.5180  134.3480 O   0  0  0  0  0  1  0  0  0  0  0  0
  190.2630  173.8160  134.5000 O   0  0  0  0  0  1  0  0  0  0  0  0
  1 18  1  1  0  0  0
  1  8  1  0  0  0  0
  2 12  1  0  0  0  0
  3  7  1  0  0  0  0
  4  6  1  0  0  0  0
  6  5  2  0  0  0  0
  7  9  2  0  0  0  0
  8  4  2  0  0  0  0
  8  7  1  0  0  0  0
  9  5  1  0  0  0  0
 10  2  2  0  0  0  0
 11 13  2  0  0  0  0
 11 10  1  0  0  0  0
 12  3  1  0  0  0  0
 13 14  1  0  0  0  0
 14  1  1  0  0  0  0
 14 12  2  0  0  0  0
 16 17  2  0  0  0  0
 17 10  1  0  0  0  0
 17 15  1  0  0  0  0
 19 18  1  0  0  0  0
 20 31  1  0  0  0  0
 21 26  1  0  0  0  0
 22 23  1  6  0  0  0
 22 24  1  0  0  0  0
 22 29  1  0  0  0  0
 24 25  1  0  0  0  0
 25 20  1  0  0  0  0
 25 28  2  0  0  0  0
 26 19  1  1  0  0  0
 27 28  1  0  0  0  0
 28 21  1  0  0  0  0
 29 27  1  0  0  0  0
 30 26  1  0  0  0  0
 31 30  1  0  0  0  0
 32 22  1  0  0  0  0
 33 32  1  0  0  0  0
 34 32  1  0  0  0  0
M  END
>  <MODEL>
7

>  <REMARK>
 VINA RESULT:      -9.4      2.048      4.545
  Name = 
  5 active torsions:
  status: ('A' for Active; 'I' for Inactive)
    1  A    between atoms: C_1  and  C_9
    2  A    between atoms: C_7  and  C_11
    3  A    between atoms: C_8  and  C_9
    4  A    between atoms: C_8  and  C_18
    5  A    between atoms: C_23  and  C_25
                            x       y       z     vdW  Elec       q    Type
                         _______ _______ _______ _____ _____    ______ ____

>  <TORSDO>
F 5

$$$$
=
 OpenBabel10272415153D

 34 38  0  0  1  0  0  0  0  0999 V2000
  188.9120  178.0710  141.9080 C   0  0  2  0  0  3  0  0  0  0  0  0
  185.4290  177.8890  143.4560 C   0  0  0  0  0  3  0  0  0  0  0  0
  187.5900  176.9780  144.3190 C   0  0  0  0  0  2  0  0  0  0  0  0
  191.0280  178.2330  143.2490 C   0  0  0  0  0  3  0  0  0  0  0  0
  191.1260  177.5360  145.5650 C   0  0  0  0  0  3  0  0  0  0  0  0
  191.7540  178.0550  144.4300 C   0  0  0  0  0  3  0  0  0  0  0  0
  189.0360  177.3800  144.3470 C   0  0  0  0  0  0  0  0  0  0  0  0
  189.6710  177.8920  143.1970 C   0  0  0  0  0  0  0  0  0  0  0  0
  189.7700  177.1970  145.5220 C   0  0  0  0  0  3  0  0  0  0  0  0
  184.6600  178.5510  142.4890 C   0  0  0  0  0  0  0  0  0  0  0  0
  185.2870  179.0490  141.3390 C   0  0  0  0  0  3  0  0  0  0  0  0
  186.8080  177.7380  143.2880 C   0  0  0  0  0  0  0  0  0  0  0  0
  186.6630  178.8950  141.1590 C   0  0  0  0  0  3  0  0  0  0  0  0
  187.4310  178.2420  142.1280 C   0  0  0  0  0  0  0  0  0  0  0  0
  182.6250  178.9410  144.0330 C   0  0  0  0  0  1  0  0  0  0  0  0
  182.4320  178.7010  141.6830 O   0  0  0  0  0  0  0  0  0  0  0  0
  183.2060  178.7260  142.6770 C   0  0  0  0  0  0  0  0  0  0  0  0
  189.2380  176.9730  140.8860 C   0  0  0  0  0  2  0  0  0  0  0  0
  190.2560  177.4030  139.8340 C   0  0  0  0  0  2  0  0  0  0  0  0
  190.5500  174.8450  136.0930 C   0  0  0  0  0  2  0  0  0  0  0  0
  191.8020  176.6100  138.0710 C   0  0  0  0  0  2  0  0  0  0  0  0
  194.1030  173.2820  136.3960 C   0  0  2  0  0  0  0  0  0  0  0  0
  194.7100  174.1610  135.4950 O   0  0  0  0  0  1  0  0  0  0  0  0
  192.5900  173.3000  136.1710 C   0  0  0  0  0  2  0  0  0  0  0  0
  191.9180  174.5630  136.6510 C   0  0  0  0  0  0  0  0  0  0  0  0
  190.5560  176.2670  138.8710 C   0  0  2  0  0  3  0  0  0  0  0  0
  193.8940  175.1420  138.0780 C   0  0  0  0  0  2  0  0  0  0  0  0
  192.4860  175.3660  137.5880 C   0  0  0  0  0  0  0  0  0  0  0  0
  194.3960  173.7200  137.8320 C   0  0  0  0  0  2  0  0  0  0  0  0
  189.3650  176.0550  137.9420 C   0  0  0  0  0  2  0  0  0  0  0  0
  189.4790  174.7480  137.1710 C   0  0  0  0  0  2  0  0  0  0  0  0
  194.6340  171.8680  136.1430 C   0  0  0  0  0  3  0  0  0  0  0  0
  193.6210  170.9140  136.2710 O   0  0  0  0  0  1  0  0  0  0  0  0
  195.6770  171.5640  137.0210 O   0  0  0  0  0  1  0  0  0  0  0  0
  1 18  1  6  0  0  0
  1 14  1  0  0  0  0
  1  8  1  0  0  0  0
  3  7  1  0  0  0  0
  4  6  1  0  0  0  0
  6  5  2  0  0  0  0
  7  9  2  0  0  0  0
  8  4  2  0  0  0  0
  8  7  1  0  0  0  0
  9  5  1  0  0  0  0
 10 17  1  0  0  0  0
 10  2  2  0  0  0  0
 11 10  1  0  0  0  0
 12  2  1  0  0  0  0
 12  3  1  0  0  0  0
 13 11  2  0  0  0  0
 13 14  1  0  0  0  0
 14 12  2  0  0  0  0
 16 17  2  0  0  0  0
 17 15  1  0  0  0  0
 19 18  1  0  0  0  0
 20 25  1  0  0  0  0
 20 31  1  0  0  0  0
 21 26  1  0  0  0  0
 22 23  1  6  0  0  0
 22 29  1  0  0  0  0
 24 22  1  0  0  0  0
 24 25  1  0  0  0  0
 25 28  2  0  0  0  0
 26 19  1  1  0  0  0
 28 21  1  0  0  0  0
 28 27  1  0  0  0  0
 29 27  1  0  0  0  0
 30 26  1  0  0  0  0
 31 30  1  0  0  0  0
 32 33  1  0  0  0  0
 32 22  1  0  0  0  0
 32 34  1  0  0  0  0
M  END
>  <MODEL>
8

>  <REMARK>
 VINA RESULT:      -9.3      2.659      5.144
  Name = 
  5 active torsions:
  status: ('A' for Active; 'I' for Inactive)
    1  A    between atoms: C_1  and  C_9
    2  A    between atoms: C_7  and  C_11
    3  A    between atoms: C_8  and  C_9
    4  A    between atoms: C_8  and  C_18
    5  A    between atoms: C_23  and  C_25
                            x       y       z     vdW  Elec       q    Type
                         _______ _______ _______ _____ _____    ______ ____

>  <TORSDO>
F 5

$$$$
=
 OpenBabel10272415153D

 34 38  0  0  1  0  0  0  0  0999 V2000
  187.3920  177.5950  144.4790 C   0  0  2  0  0  3  0  0  0  0  0  0
  190.6680  177.8340  142.5370 C   0  0  0  0  0  3  0  0  0  0  0  0
  190.1710  178.5270  144.8860 C   0  0  0  0  0  2  0  0  0  0  0  0
  187.2630  177.1790  146.9510 C   0  0  0  0  0  3  0  0  0  0  0  0
  189.1300  177.6410  148.4210 C   0  0  0  0  0  3  0  0  0  0  0  0
  187.8180  177.1980  148.2340 C   0  0  0  0  0  3  0  0  0  0  0  0
  189.3440  178.0390  146.0400 C   0  0  0  0  0  0  0  0  0  0  0  0
  188.0160  177.6030  145.8510 C   0  0  0  0  0  0  0  0  0  0  0  0
  189.8890  178.0630  147.3260 C   0  0  0  0  0  3  0  0  0  0  0  0
  190.2910  177.3160  141.2900 C   0  0  0  0  0  0  0  0  0  0  0  0
  188.9680  176.8950  141.0960 C   0  0  0  0  0  3  0  0  0  0  0  0
  189.7440  177.9190  143.5820 C   0  0  0  0  0  0  0  0  0  0  0  0
  188.0370  176.9830  142.1320 C   0  0  0  0  0  3  0  0  0  0  0  0
  188.4160  177.4930  143.3780 C   0  0  0  0  0  0  0  0  0  0  0  0
  190.9080  176.5850  138.8910 C   0  0  0  0  0  1  0  0  0  0  0  0
  192.4410  177.6580  140.3450 O   0  0  0  0  0  0  0  0  0  0  0  0
  191.2730  177.2110  140.1930 C   0  0  0  0  0  0  0  0  0  0  0  0
  186.4190  178.7650  144.2780 C   0  0  0  0  0  2  0  0  0  0  0  0
  185.1270  178.6270  145.0770 C   0  0  0  0  0  2  0  0  0  0  0  0
  181.2740  179.3630  142.7890 C   0  0  0  0  0  2  0  0  0  0  0  0
  184.2010  179.2060  142.8560 C   0  0  0  0  0  2  0  0  0  0  0  0
  182.0560  177.8640  139.2820 C   0  0  2  0  0  0  0  0  0  0  0  0
  182.3170  179.0920  138.6690 O   0  0  0  0  0  1  0  0  0  0  0  0
  181.2500  178.1030  140.5600 C   0  0  0  0  0  2  0  0  0  0  0  0
  182.0560  178.7100  141.6820 C   0  0  0  0  0  0  0  0  0  0  0  0
  183.9320  178.4630  144.1550 C   0  0  2  0  0  3  0  0  0  0  0  0
  184.2050  178.0470  140.5780 C   0  0  0  0  0  2  0  0  0  0  0  0
  183.4100  178.6130  141.7280 C   0  0  0  0  0  0  0  0  0  0  0  0
  183.3700  177.1710  139.6460 C   0  0  0  0  0  2  0  0  0  0  0  0
  182.6810  179.0090  144.8340 C   0  0  0  0  0  2  0  0  0  0  0  0
  181.4140  178.5970  144.0970 C   0  0  0  0  0  2  0  0  0  0  0  0
  181.2350  176.9970  138.3230 C   0  0  0  0  0  3  0  0  0  0  0  0
  181.5180  175.6400  138.4960 O   0  0  0  0  0  1  0  0  0  0  0  0
  181.4740  177.3600  136.9960 O   0  0  0  0  0  1  0  0  0  0  0  0
  1 18  1  6  0  0  0
  1  8  1  0  0  0  0
  2 12  1  0  0  0  0
  3  7  1  0  0  0  0
  4  6  1  0  0  0  0
  6  5  2  0  0  0  0
  7  9  2  0  0  0  0
  8  7  1  0  0  0  0
  8  4  2  0  0  0  0
  9  5  1  0  0  0  0
 10  2  2  0  0  0  0
 11 10  1  0  0  0  0
 11 13  2  0  0  0  0
 12  3  1  0  0  0  0
 13 14  1  0  0  0  0
 14 12  2  0  0  0  0
 14  1  1  0  0  0  0
 15 17  1  0  0  0  0
 17 16  2  0  0  0  0
 17 10  1  0  0  0  0
 18 19  1  0  0  0  0
 20 31  1  0  0  0  0
 21 26  1  0  0  0  0
 22 23  1  6  0  0  0
 22 29  1  0  0  0  0
 22 24  1  0  0  0  0
 24 25  1  0  0  0  0
 25 28  2  0  0  0  0
 25 20  1  0  0  0  0
 26 30  1  0  0  0  0
 26 19  1  1  0  0  0
 27 28  1  0  0  0  0
 28 21  1  0  0  0  0
 29 27  1  0  0  0  0
 31 30  1  0  0  0  0
 32 33  1  0  0  0  0
 32 22  1  0  0  0  0
 34 32  1  0  0  0  0
M  END
>  <MODEL>
9

>  <REMARK>
 VINA RESULT:      -9.2      3.323      7.458
  Name = 
  5 active torsions:
  status: ('A' for Active; 'I' for Inactive)
    1  A    between atoms: C_1  and  C_9
    2  A    between atoms: C_7  and  C_11
    3  A    between atoms: C_8  and  C_9
    4  A    between atoms: C_8  and  C_18
    5  A    between atoms: C_23  and  C_25
                            x       y       z     vdW  Elec       q    Type
                         _______ _______ _______ _____ _____    ______ ____

>  <TORSDO>
F 5

$$$$
