=
 OpenBabel10272401233D

 55 62  0  0  1  0  0  0  0  0999 V2000
  190.3950  177.4980  139.8540 C   0  0  0  0  0  3  0  0  0  0  0  0
  190.2760  176.8380  137.1360 C   0  0  0  0  0  0  0  0  0  0  0  0
  189.2570  177.5990  137.7160 C   0  0  0  0  0  3  0  0  0  0  0  0
  191.4120  176.7370  139.2750 C   0  0  0  0  0  3  0  0  0  0  0  0
  189.3130  177.9340  139.0820 C   0  0  0  0  0  0  0  0  0  0  0  0
  191.3560  176.4080  137.9170 C   0  0  0  0  0  3  0  0  0  0  0  0
  190.2200  176.5040  135.6850 C   0  0  0  0  0  2  0  0  0  0  0  0
  189.3990  177.5370  134.9390 C   0  0  0  0  0  2  0  0  0  0  0  0
  188.1710  176.8790  134.3460 C   0  0  0  0  0  2  0  0  0  0  0  0
  186.9270  177.6740  134.7000 C   0  0  0  0  0  2  0  0  0  0  0  0
  185.7350  176.8900  134.4220 N   0  0  0  0  0  2  0  0  0  0  0  0
  184.9170  173.4040  134.4830 C   0  0  2  0  0  3  0  0  0  0  0  0
  183.5810  175.2070  138.0060 C   0  0  0  0  0  1  0  0  0  0  0  0
  184.3330  174.5490  136.8580 C   0  0  2  0  0  0  0  0  0  0  0  0
  185.1550  176.5240  135.7070 C   0  0  1  0  0  3  0  0  0  0  0  0
  188.1820  173.7580  136.6230 C   0  0  0  0  0  2  0  0  0  0  0  0
  186.7280  172.2460  137.0570 C   0  0  0  0  0  2  0  0  0  0  0  0
  185.8470  174.6440  137.1270 C   0  0  1  0  0  3  0  0  0  0  0  0
  184.1420  175.3810  135.5820 C   0  0  1  0  0  3  0  0  0  0  0  0
  182.8290  172.0520  134.6810 C   0  0  0  0  0  1  0  0  0  0  0  0
  186.4110  173.4860  134.8530 C   0  0  0  0  0  2  0  0  0  0  0  0
  188.2140  172.4070  137.3120 C   0  0  0  0  0  2  0  0  0  0  0  0
  186.2930  176.8970  137.7500 F   0  0  0  0  0  0  0  0  0  0  0  0
  186.6940  173.5990  136.3620 C   0  0  0  0  0  0  0  0  0  0  0  0
  184.3050  174.6780  134.3460 O   0  0  0  0  0  0  0  0  0  0  0  0
  183.7730  173.1240  136.7150 C   0  0  0  0  0  2  0  0  0  0  0  0
  186.2400  176.0490  136.6620 C   0  0  2  0  0  3  0  0  0  0  0  0
  184.1090  172.4650  135.3780 C   0  0  2  0  0  3  0  0  0  0  0  0
  188.3100  178.6880  139.6950 O   0  0  0  0  0  0  0  0  0  0  0  0
  186.9380  178.3050  139.6810 C   0  0  0  0  0  2  0  0  0  0  0  0
  186.3630  178.3000  141.0950 C   0  0  2  0  0  3  0  0  0  0  0  0
  184.4340  179.1600  139.7530 C   0  0  0  0  0  2  0  0  0  0  0  0
  182.0900  178.9970  140.6030 N   0  0  1  0  0  0  0  0  0  0  0  0
  183.9770  178.0780  141.9530 C   0  0  0  0  0  2  0  0  0  0  0  0
  182.6020  178.7530  141.9590 C   0  0  0  0  0  2  0  0  0  0  0  0
  183.0450  179.8000  139.8210 C   0  0  0  0  0  2  0  0  0  0  0  0
  184.9680  178.9290  141.1600 C   0  0  1  0  0  3  0  0  0  0  0  0
  181.8190  177.7270  139.9290 C   0  0  0  0  0  3  0  0  0  0  0  0
  180.6260  177.8800  139.0050 C   0  0  0  0  0  2  0  0  0  0  0  0
  180.4560  177.2090  140.3500 C   0  0  0  0  0  2  0  0  0  0  0  0
  187.2870  178.9360  142.0310 N   0  0  0  0  0  2  0  0  0  0  0  0
  187.2300  178.2110  143.2930 C   0  0  0  0  0  2  0  0  0  0  0  0
  190.1190  177.2910  145.6120 C   0  0  0  0  0  3  0  0  0  0  0  0
  191.2010  177.8030  144.8920 C   0  0  0  0  0  3  0  0  0  0  0  0
  188.6010  178.0490  143.8750 C   0  0  0  0  0  0  0  0  0  0  0  0
  189.6910  178.5570  143.1610 C   0  0  0  0  0  3  0  0  0  0  0  0
  190.9860  178.4360  143.6660 C   0  0  0  0  0  3  0  0  0  0  0  0
  188.8150  177.4140  145.1180 C   0  0  0  0  0  0  0  0  0  0  0  0
  187.6800  176.8650  145.9250 C   0  0  0  0  0  2  0  0  0  0  0  0
  187.6730  177.4430  147.3070 C   0  0  0  0  0  0  0  0  0  0  0  0
  188.4620  176.9800  148.1720 O   0  0  0  0  0  0  0  0  0  0  0  0
  186.7780  178.4970  147.6700 N   0  0  0  0  0  2  0  0  0  0  0  0
  185.9000  179.1600  146.7160 C   0  0  0  0  0  2  0  0  0  0  0  0
  184.1040  178.7870  145.4900 C   0  0  0  0  0  1  0  0  0  0  0  0
  184.6290  178.5870  146.7680 O   0  0  0  0  0  0  0  0  0  0  0  0
  2  3  2  0  0  0  0
  2  6  1  0  0  0  0
  3  5  1  0  0  0  0
  4  1  1  0  0  0  0
  5 29  1  0  0  0  0
  5  1  2  0  0  0  0
  6  4  2  0  0  0  0
  7  2  1  0  0  0  0
  8  7  1  0  0  0  0
  9 10  1  0  0  0  0
  9  8  1  0  0  0  0
 11 10  1  0  0  0  0
 12 21  1  1  0  0  0
 12 28  1  0  0  0  0
 14 18  1  0  0  0  0
 14 13  1  1  0  0  0
 15 11  1  6  0  0  0
 15 27  1  0  0  0  0
 16 22  1  0  0  0  0
 17 22  1  0  0  0  0
 18 24  1  6  0  0  0
 19 25  1  6  0  0  0
 19 15  1  0  0  0  0
 19 14  1  0  0  0  0
 21 24  1  0  0  0  0
 24 16  1  0  0  0  0
 24 17  1  0  0  0  0
 25 12  1  0  0  0  0
 26 14  1  0  0  0  0
 27 18  1  0  0  0  0
 27 23  1  1  0  0  0
 28 20  1  6  0  0  0
 28 26  1  0  0  0  0
 30 29  1  0  0  0  0
 31 30  1  6  0  0  0
 31 41  1  0  0  0  0
 32 36  1  0  0  0  0
 32 37  1  0  0  0  0
 33 38  1  6  0  0  0
 33 35  1  0  0  0  0
 34 35  1  0  0  0  0
 36 33  1  0  0  0  0
 37 31  1  6  0  0  0
 37 34  1  0  0  0  0
 38 40  1  0  0  0  0
 39 38  1  0  0  0  0
 39 40  1  0  0  0  0
 41 42  1  0  0  0  0
 42 45  1  0  0  0  0
 44 43  2  0  0  0  0
 45 48  2  0  0  0  0
 46 47  2  0  0  0  0
 46 45  1  0  0  0  0
 47 44  1  0  0  0  0
 48 43  1  0  0  0  0
 48 49  1  0  0  0  0
 49 50  1  0  0  0  0
 50 52  1  0  0  0  0
 50 51  2  0  0  0  0
 53 55  1  0  0  0  0
 53 52  1  0  0  0  0
 54 55  1  0  0  0  0
M  END
>  <MODEL>
1

>  <REMARK>
 VINA RESULT:      -7.0      0.000      0.000
  Name = 
  18 active torsions:
  status: ('A' for Active; 'I' for Inactive)
    1  A    between atoms: O_2  and  C_28
    2  A    between atoms: O_2  and  C_44
    3  A    between atoms: C_4  and  O_37
    4  A    between atoms: C_4  and  N_40
    5  A    between atoms: C_5  and  C_45
    6  A    between atoms: C_7  and  N_22
    7  A    between atoms: C_8  and  N_22
    8  A    between atoms: C_8  and  C_43
    9  A    between atoms: C_10  and  N_32
   10  A    between atoms: C_16  and  C_36
   11  A    between atoms: C_26  and  C_45
   12  A    between atoms: C_27  and  C_54
   13  A    between atoms: C_28  and  C_49
   14  A    between atoms: N_33  and  C_36
   15  A    between atoms: N_33  and  C_49
   16  A    between atoms: C_43  and  C_51
   17  A    between atoms: C_49  and  C_52
   18  A    between atoms: C_51  and  C_54
                            x       y       z     vdW  Elec       q    Type
                         _______ _______ _______ _____ _____    ______ ____

>  <TORSDO>
F 18

$$$$
=
 OpenBabel10272401233D

 55 62  0  0  1  0  0  0  0  0999 V2000
  184.7240  178.4560  144.5610 C   0  0  0  0  0  3  0  0  0  0  0  0
  183.1190  178.7680  142.2890 C   0  0  0  0  0  0  0  0  0  0  0  0
  184.4370  178.3190  142.1580 C   0  0  0  0  0  3  0  0  0  0  0  0
  183.4090  178.9050  144.6910 C   0  0  0  0  0  3  0  0  0  0  0  0
  185.2470  178.1590  143.2980 C   0  0  0  0  0  0  0  0  0  0  0  0
  182.6050  179.0600  143.5580 C   0  0  0  0  0  3  0  0  0  0  0  0
  182.2610  178.9160  141.0800 C   0  0  0  0  0  2  0  0  0  0  0  0
  182.7270  177.9760  139.9860 C   0  0  0  0  0  2  0  0  0  0  0  0
  182.3500  176.5540  140.3430 C   0  0  0  0  0  2  0  0  0  0  0  0
  181.3850  175.9930  139.3140 C   0  0  0  0  0  2  0  0  0  0  0  0
  181.8950  174.7400  138.7800 N   0  0  0  0  0  2  0  0  0  0  0  0
  185.1470  174.1610  137.3950 C   0  0  2  0  0  3  0  0  0  0  0  0
  182.5160  175.2770  134.3480 C   0  0  0  0  0  1  0  0  0  0  0  0
  183.3510  174.6020  135.4260 C   0  0  2  0  0  0  0  0  0  0  0  0
  181.8590  174.8480  137.3280 C   0  0  1  0  0  3  0  0  0  0  0  0
  183.1090  170.8850  136.7040 C   0  0  0  0  0  2  0  0  0  0  0  0
  184.6500  171.5380  135.3660 C   0  0  0  0  0  2  0  0  0  0  0  0
  182.7550  173.2130  135.7290 C   0  0  1  0  0  3  0  0  0  0  0  0
  183.1810  175.3610  136.7500 C   0  0  1  0  0  3  0  0  0  0  0  0
  186.8120  175.4970  136.1010 C   0  0  0  0  0  1  0  0  0  0  0  0
  184.5280  172.7650  137.5970 C   0  0  0  0  0  2  0  0  0  0  0  0
  184.0110  170.2020  135.6920 C   0  0  0  0  0  2  0  0  0  0  0  0
  180.4110  173.5170  136.0070 F   0  0  0  0  0  0  0  0  0  0  0  0
  183.7510  172.2240  136.3820 C   0  0  0  0  0  0  0  0  0  0  0  0
  184.2470  175.2200  137.6940 O   0  0  0  0  0  0  0  0  0  0  0  0
  184.8060  174.6050  134.9340 C   0  0  0  0  0  2  0  0  0  0  0  0
  181.6040  173.4840  136.7020 C   0  0  2  0  0  3  0  0  0  0  0  0
  185.8290  174.3460  136.0390 C   0  0  2  0  0  3  0  0  0  0  0  0
  186.5680  177.7180  143.2040 O   0  0  0  0  0  0  0  0  0  0  0  0
  187.4890  178.2330  142.2460 C   0  0  0  0  0  2  0  0  0  0  0  0
  188.8550  177.5670  142.3970 C   0  0  2  0  0  3  0  0  0  0  0  0
  189.0720  177.2660  144.8710 C   0  0  0  0  0  2  0  0  0  0  0  0
  191.2620  177.5900  146.0290 N   0  0  1  0  0  0  0  0  0  0  0  0
  191.1050  177.8500  143.5520 C   0  0  0  0  0  2  0  0  0  0  0  0
  191.7740  178.3070  144.8510 C   0  0  0  0  0  2  0  0  0  0  0  0
  189.8010  177.7360  146.1330 C   0  0  0  0  0  2  0  0  0  0  0  0
  189.5910  178.0260  143.6590 C   0  0  1  0  0  3  0  0  0  0  0  0
  191.6320  176.1770  145.9590 C   0  0  0  0  0  3  0  0  0  0  0  0
  191.0510  175.4350  147.1480 C   0  0  0  0  0  2  0  0  0  0  0  0
  192.5130  175.8230  147.1440 C   0  0  0  0  0  2  0  0  0  0  0  0
  189.6620  177.7660  141.1970 N   0  0  0  0  0  2  0  0  0  0  0  0
  189.3780  176.6800  140.2700 C   0  0  0  0  0  2  0  0  0  0  0  0
  190.2450  177.1820  136.5860 C   0  0  0  0  0  3  0  0  0  0  0  0
  189.3160  178.1640  136.2350 C   0  0  0  0  0  3  0  0  0  0  0  0
  189.3800  177.1730  138.8540 C   0  0  0  0  0  0  0  0  0  0  0  0
  188.4520  178.1560  138.4920 C   0  0  0  0  0  3  0  0  0  0  0  0
  188.4200  178.6510  137.1880 C   0  0  0  0  0  3  0  0  0  0  0  0
  190.2910  176.6840  137.8940 C   0  0  0  0  0  0  0  0  0  0  0  0
  191.3090  175.6410  138.2350 C   0  0  0  0  0  2  0  0  0  0  0  0
  192.6090  175.9100  137.5410 C   0  0  0  0  0  0  0  0  0  0  0  0
  193.3450  176.8460  137.9520 O   0  0  0  0  0  0  0  0  0  0  0  0
  193.0260  175.1370  136.4120 N   0  0  0  0  0  2  0  0  0  0  0  0
  192.2910  173.9780  135.9270 C   0  0  0  0  0  2  0  0  0  0  0  0
  194.0710  173.3820  134.7690 C   0  0  0  0  0  1  0  0  0  0  0  0
  193.1700  172.9130  135.7250 O   0  0  0  0  0  0  0  0  0  0  0  0
  1  4  1  0  0  0  0
  2  6  1  0  0  0  0
  3  2  2  0  0  0  0
  3  5  1  0  0  0  0
  5  1  2  0  0  0  0
  6  4  2  0  0  0  0
  7  2  1  0  0  0  0
  8  9  1  0  0  0  0
  8  7  1  0  0  0  0
 10  9  1  0  0  0  0
 11 10  1  0  0  0  0
 12 21  1  6  0  0  0
 12 25  1  0  0  0  0
 14 13  1  6  0  0  0
 14 18  1  0  0  0  0
 14 19  1  0  0  0  0
 15 11  1  1  0  0  0
 17 22  1  0  0  0  0
 17 24  1  0  0  0  0
 18 24  1  1  0  0  0
 18 27  1  0  0  0  0
 19 15  1  0  0  0  0
 19 25  1  1  0  0  0
 22 16  1  0  0  0  0
 24 16  1  0  0  0  0
 24 21  1  0  0  0  0
 26 14  1  0  0  0  0
 26 28  1  0  0  0  0
 27 23  1  6  0  0  0
 27 15  1  0  0  0  0
 28 20  1  1  0  0  0
 28 12  1  0  0  0  0
 29  5  1  0  0  0  0
 30 29  1  0  0  0  0
 31 30  1  6  0  0  0
 32 36  1  0  0  0  0
 33 38  1  6  0  0  0
 33 36  1  0  0  0  0
 34 37  1  0  0  0  0
 34 35  1  0  0  0  0
 35 33  1  0  0  0  0
 37 31  1  6  0  0  0
 37 32  1  0  0  0  0
 38 40  1  0  0  0  0
 38 39  1  0  0  0  0
 40 39  1  0  0  0  0
 41 31  1  0  0  0  0
 42 41  1  0  0  0  0
 43 48  1  0  0  0  0
 44 43  2  0  0  0  0
 44 47  1  0  0  0  0
 45 42  1  0  0  0  0
 46 45  1  0  0  0  0
 47 46  2  0  0  0  0
 48 49  1  0  0  0  0
 48 45  2  0  0  0  0
 50 51  2  0  0  0  0
 50 49  1  0  0  0  0
 52 50  1  0  0  0  0
 53 52  1  0  0  0  0
 54 55  1  0  0  0  0
 55 53  1  0  0  0  0
M  END
>  <MODEL>
2

>  <REMARK>
 VINA RESULT:      -6.9      2.765      7.983
  Name = 
  18 active torsions:
  status: ('A' for Active; 'I' for Inactive)
    1  A    between atoms: O_2  and  C_28
    2  A    between atoms: O_2  and  C_44
    3  A    between atoms: C_4  and  O_37
    4  A    between atoms: C_4  and  N_40
    5  A    between atoms: C_5  and  C_45
    6  A    between atoms: C_7  and  N_22
    7  A    between atoms: C_8  and  N_22
    8  A    between atoms: C_8  and  C_43
    9  A    between atoms: C_10  and  N_32
   10  A    between atoms: C_16  and  C_36
   11  A    between atoms: C_26  and  C_45
   12  A    between atoms: C_27  and  C_54
   13  A    between atoms: C_28  and  C_49
   14  A    between atoms: N_33  and  C_36
   15  A    between atoms: N_33  and  C_49
   16  A    between atoms: C_43  and  C_51
   17  A    between atoms: C_49  and  C_52
   18  A    between atoms: C_51  and  C_54
                            x       y       z     vdW  Elec       q    Type
                         _______ _______ _______ _____ _____    ______ ____

>  <TORSDO>
F 18

$$$$
=
 OpenBabel10272401233D

 55 62  0  0  1  0  0  0  0  0999 V2000
  190.1060  176.8520  140.0080 C   0  0  0  0  0  3  0  0  0  0  0  0
  189.5610  177.6720  137.3880 C   0  0  0  0  0  0  0  0  0  0  0  0
  188.7270  178.0760  138.4350 C   0  0  0  0  0  3  0  0  0  0  0  0
  190.9390  176.4490  138.9630 C   0  0  0  0  0  3  0  0  0  0  0  0
  188.9970  177.6660  139.7540 C   0  0  0  0  0  0  0  0  0  0  0  0
  190.6690  176.8590  137.6540 C   0  0  0  0  0  3  0  0  0  0  0  0
  189.2800  178.1260  135.9970 C   0  0  0  0  0  2  0  0  0  0  0  0
  188.8790  176.9480  135.1310 C   0  0  0  0  0  2  0  0  0  0  0  0
  187.6170  177.2860  134.3660 C   0  0  0  0  0  2  0  0  0  0  0  0
  186.5610  177.8310  135.3110 C   0  0  0  0  0  2  0  0  0  0  0  0
  185.2480  177.3310  134.9370 N   0  0  0  0  0  2  0  0  0  0  0  0
  184.8770  173.8010  134.4610 C   0  0  2  0  0  3  0  0  0  0  0  0
  183.1910  174.8950  138.1230 C   0  0  0  0  0  1  0  0  0  0  0  0
  184.0630  174.5060  136.9380 C   0  0  2  0  0  0  0  0  0  0  0  0
  184.6710  176.7130  136.1230 C   0  0  1  0  0  3  0  0  0  0  0  0
  187.9880  174.2260  136.8070 C   0  0  0  0  0  2  0  0  0  0  0  0
  186.7220  172.5040  136.9430 C   0  0  0  0  0  2  0  0  0  0  0  0
  185.5420  174.7420  137.3010 C   0  0  1  0  0  3  0  0  0  0  0  0
  183.8160  175.4880  135.7830 C   0  0  1  0  0  3  0  0  0  0  0  0
  182.9700  172.1940  134.3510 C   0  0  0  0  0  1  0  0  0  0  0  0
  186.3320  174.0060  134.9210 C   0  0  0  0  0  2  0  0  0  0  0  0
  188.1640  172.8020  137.2990 C   0  0  0  0  0  2  0  0  0  0  0  0
  185.6760  176.9170  138.2580 F   0  0  0  0  0  0  0  0  0  0  0  0
  186.5430  173.9300  136.4440 C   0  0  0  0  0  0  0  0  0  0  0  0
  184.1130  174.9990  134.4710 O   0  0  0  0  0  0  0  0  0  0  0  0
  183.6940  173.0620  136.5650 C   0  0  0  0  0  2  0  0  0  0  0  0
  185.7720  176.2370  137.0600 C   0  0  2  0  0  3  0  0  0  0  0  0
  184.1600  172.6510  135.1690 C   0  0  2  0  0  3  0  0  0  0  0  0
  188.1830  178.0450  140.8230 O   0  0  0  0  0  0  0  0  0  0  0  0
  188.4470  177.6610  142.1700 C   0  0  0  0  0  2  0  0  0  0  0  0
  187.1500  177.3040  142.8930 C   0  0  2  0  0  3  0  0  0  0  0  0
  185.1860  178.2300  141.6520 C   0  0  0  0  0  2  0  0  0  0  0  0
  183.3880  179.5000  142.8350 N   0  0  1  0  0  0  0  0  0  0  0  0
  185.3030  178.5490  144.1220 C   0  0  0  0  0  2  0  0  0  0  0  0
  184.2810  179.6820  143.9890 C   0  0  0  0  0  2  0  0  0  0  0  0
  184.1640  179.3690  141.5910 C   0  0  0  0  0  2  0  0  0  0  0  0
  186.1200  178.4350  142.8370 C   0  0  1  0  0  3  0  0  0  0  0  0
  182.5380  178.3260  143.0340 C   0  0  0  0  0  3  0  0  0  0  0  0
  181.3880  178.3510  142.0450 C   0  0  0  0  0  2  0  0  0  0  0  0
  181.1570  178.7680  143.4800 C   0  0  0  0  0  2  0  0  0  0  0  0
  187.4230  176.8890  144.2670 N   0  0  0  0  0  2  0  0  0  0  0  0
  188.5470  177.6700  144.7650 C   0  0  0  0  0  2  0  0  0  0  0  0
  189.5240  178.0270  148.4380 C   0  0  0  0  0  3  0  0  0  0  0  0
  188.2640  178.0370  149.0400 C   0  0  0  0  0  3  0  0  0  0  0  0
  188.4820  177.8030  146.2570 C   0  0  0  0  0  0  0  0  0  0  0  0
  187.2240  177.8150  146.8690 C   0  0  0  0  0  3  0  0  0  0  0  0
  187.1140  177.9300  148.2550 C   0  0  0  0  0  3  0  0  0  0  0  0
  189.6460  177.9050  147.0480 C   0  0  0  0  0  0  0  0  0  0  0  0
  191.0140  177.8850  146.4410 C   0  0  0  0  0  2  0  0  0  0  0  0
  191.5220  176.4830  146.3000 C   0  0  0  0  0  0  0  0  0  0  0  0
  191.8630  175.8450  147.3300 O   0  0  0  0  0  0  0  0  0  0  0  0
  191.6420  175.8590  145.0190 N   0  0  0  0  0  2  0  0  0  0  0  0
  191.1820  176.4800  143.7850 C   0  0  0  0  0  2  0  0  0  0  0  0
  191.8490  178.5280  143.3060 C   0  0  0  0  0  1  0  0  0  0  0  0
  192.2290  177.1900  143.1950 O   0  0  0  0  0  0  0  0  0  0  0  0
  2  6  2  0  0  0  0
  2  3  1  0  0  0  0
  3  5  2  0  0  0  0
  4  1  2  0  0  0  0
  5  1  1  0  0  0  0
  5 29  1  0  0  0  0
  6  4  1  0  0  0  0
  7  2  1  0  0  0  0
  8  7  1  0  0  0  0
  9  8  1  0  0  0  0
  9 10  1  0  0  0  0
 11 10  1  0  0  0  0
 12 25  1  0  0  0  0
 12 21  1  1  0  0  0
 12 28  1  0  0  0  0
 14 18  1  0  0  0  0
 14 13  1  1  0  0  0
 15 11  1  6  0  0  0
 15 27  1  0  0  0  0
 16 22  1  0  0  0  0
 17 22  1  0  0  0  0
 18 24  1  6  0  0  0
 19 25  1  6  0  0  0
 19 15  1  0  0  0  0
 19 14  1  0  0  0  0
 21 24  1  0  0  0  0
 24 16  1  0  0  0  0
 24 17  1  0  0  0  0
 26 14  1  0  0  0  0
 27 18  1  0  0  0  0
 27 23  1  1  0  0  0
 28 20  1  6  0  0  0
 28 26  1  0  0  0  0
 29 30  1  0  0  0  0
 31 30  1  1  0  0  0
 31 41  1  0  0  0  0
 32 37  1  0  0  0  0
 33 38  1  1  0  0  0
 33 35  1  0  0  0  0
 35 34  1  0  0  0  0
 36 32  1  0  0  0  0
 36 33  1  0  0  0  0
 37 31  1  1  0  0  0
 37 34  1  0  0  0  0
 38 40  1  0  0  0  0
 39 38  1  0  0  0  0
 39 40  1  0  0  0  0
 41 42  1  0  0  0  0
 42 45  1  0  0  0  0
 43 44  1  0  0  0  0
 45 46  2  0  0  0  0
 45 48  1  0  0  0  0
 46 47  1  0  0  0  0
 47 44  2  0  0  0  0
 48 43  2  0  0  0  0
 49 48  1  0  0  0  0
 50 49  1  0  0  0  0
 50 51  2  0  0  0  0
 52 50  1  0  0  0  0
 53 52  1  0  0  0  0
 55 54  1  0  0  0  0
 55 53  1  0  0  0  0
M  END
>  <MODEL>
3

>  <REMARK>
 VINA RESULT:      -6.8      1.723      2.939
  Name = 
  18 active torsions:
  status: ('A' for Active; 'I' for Inactive)
    1  A    between atoms: O_2  and  C_28
    2  A    between atoms: O_2  and  C_44
    3  A    between atoms: C_4  and  O_37
    4  A    between atoms: C_4  and  N_40
    5  A    between atoms: C_5  and  C_45
    6  A    between atoms: C_7  and  N_22
    7  A    between atoms: C_8  and  N_22
    8  A    between atoms: C_8  and  C_43
    9  A    between atoms: C_10  and  N_32
   10  A    between atoms: C_16  and  C_36
   11  A    between atoms: C_26  and  C_45
   12  A    between atoms: C_27  and  C_54
   13  A    between atoms: C_28  and  C_49
   14  A    between atoms: N_33  and  C_36
   15  A    between atoms: N_33  and  C_49
   16  A    between atoms: C_43  and  C_51
   17  A    between atoms: C_49  and  C_52
   18  A    between atoms: C_51  and  C_54
                            x       y       z     vdW  Elec       q    Type
                         _______ _______ _______ _____ _____    ______ ____

>  <TORSDO>
F 18

$$$$
=
 OpenBabel10272401233D

 55 62  0  0  1  0  0  0  0  0999 V2000
  189.1090  177.6970  139.7630 C   0  0  0  0  0  3  0  0  0  0  0  0
  189.1280  177.7630  136.9640 C   0  0  0  0  0  0  0  0  0  0  0  0
  188.0610  178.3270  137.6700 C   0  0  0  0  0  3  0  0  0  0  0  0
  190.1750  177.1340  139.0580 C   0  0  0  0  0  3  0  0  0  0  0  0
  188.0480  178.2970  139.0770 C   0  0  0  0  0  0  0  0  0  0  0  0
  190.1870  177.1670  137.6610 C   0  0  0  0  0  3  0  0  0  0  0  0
  189.1450  177.8160  135.4760 C   0  0  0  0  0  2  0  0  0  0  0  0
  187.8410  177.2840  134.9150 C   0  0  0  0  0  2  0  0  0  0  0  0
  187.5730  175.9030  135.4750 C   0  0  0  0  0  2  0  0  0  0  0  0
  187.0790  174.9790  134.3760 C   0  0  0  0  0  2  0  0  0  0  0  0
  185.6250  174.9680  134.3470 N   0  0  0  0  0  2  0  0  0  0  0  0
  182.2740  173.7100  134.4610 C   0  0  2  0  0  3  0  0  0  0  0  0
  183.5190  174.7010  138.3230 C   0  0  0  0  0  1  0  0  0  0  0  0
  183.2210  174.0900  136.9610 C   0  0  2  0  0  0  0  0  0  0  0  0
  185.1710  174.8480  135.7250 C   0  0  1  0  0  3  0  0  0  0  0  0
  184.5650  170.6980  135.4820 C   0  0  0  0  0  2  0  0  0  0  0  0
  182.5800  170.8990  136.2630 C   0  0  0  0  0  2  0  0  0  0  0  0
  184.1360  172.8680  136.7450 C   0  0  1  0  0  3  0  0  0  0  0  0
  183.6600  175.0660  135.8600 C   0  0  1  0  0  3  0  0  0  0  0  0
  180.0580  174.5670  135.2270 C   0  0  0  0  0  1  0  0  0  0  0  0
  183.1790  172.4690  134.3460 C   0  0  0  0  0  2  0  0  0  0  0  0
  183.5330  169.7400  136.0470 C   0  0  0  0  0  2  0  0  0  0  0  0
  186.3400  173.5510  137.3250 F   0  0  0  0  0  0  0  0  0  0  0  0
  183.6110  171.8610  135.6940 C   0  0  0  0  0  0  0  0  0  0  0  0
  183.0030  174.9220  134.5970 O   0  0  0  0  0  0  0  0  0  0  0  0
  181.7120  173.8030  136.9190 C   0  0  0  0  0  2  0  0  0  0  0  0
  185.4650  173.4550  136.2620 C   0  0  2  0  0  3  0  0  0  0  0  0
  181.1700  173.5770  135.5090 C   0  0  2  0  0  3  0  0  0  0  0  0
  186.9960  178.8450  139.8130 O   0  0  0  0  0  0  0  0  0  0  0  0
  185.6260  178.5910  139.5120 C   0  0  0  0  0  2  0  0  0  0  0  0
  184.8710  178.1480  140.7630 C   0  0  2  0  0  3  0  0  0  0  0  0
  183.0870  179.5500  139.7080 C   0  0  0  0  0  2  0  0  0  0  0  0
  180.8440  178.5970  139.1600 N   0  0  1  0  0  0  0  0  0  0  0  0
  182.6090  177.1460  140.1630 C   0  0  0  0  0  2  0  0  0  0  0  0
  181.1150  177.4580  140.0510 C   0  0  0  0  0  2  0  0  0  0  0  0
  181.5790  179.7920  139.6040 C   0  0  0  0  0  2  0  0  0  0  0  0
  183.3620  178.3840  140.6470 C   0  0  1  0  0  3  0  0  0  0  0  0
  181.2030  178.2570  137.7830 C   0  0  0  0  0  3  0  0  0  0  0  0
  181.0820  179.4860  136.9030 C   0  0  0  0  0  2  0  0  0  0  0  0
  179.9950  178.4350  136.8830 C   0  0  0  0  0  2  0  0  0  0  0  0
  185.4280  178.7810  141.9540 N   0  0  0  0  0  2  0  0  0  0  0  0
  186.1850  177.7790  142.6930 C   0  0  0  0  0  2  0  0  0  0  0  0
  186.9890  177.9210  146.4220 C   0  0  0  0  0  3  0  0  0  0  0  0
  185.8180  178.5010  146.9150 C   0  0  0  0  0  3  0  0  0  0  0  0
  186.0900  178.0210  144.1690 C   0  0  0  0  0  0  0  0  0  0  0  0
  184.9220  178.6030  144.6730 C   0  0  0  0  0  3  0  0  0  0  0  0
  184.7850  178.8420  146.0400 C   0  0  0  0  0  3  0  0  0  0  0  0
  187.1340  177.6700  145.0520 C   0  0  0  0  0  0  0  0  0  0  0  0
  188.3970  177.0350  144.5620 C   0  0  0  0  0  2  0  0  0  0  0  0
  189.4350  178.0690  144.2500 C   0  0  0  0  0  0  0  0  0  0  0  0
  189.3320  178.7460  143.1940 O   0  0  0  0  0  0  0  0  0  0  0  0
  190.5490  178.2940  145.1180 N   0  0  0  0  0  2  0  0  0  0  0  0
  190.7010  177.6300  146.4050 C   0  0  0  0  0  2  0  0  0  0  0  0
  191.4710  175.5660  146.5210 C   0  0  0  0  0  1  0  0  0  0  0  0
  191.8870  176.8940  146.4190 O   0  0  0  0  0  0  0  0  0  0  0  0
  2  6  2  0  0  0  0
  2  3  1  0  0  0  0
  3  5  2  0  0  0  0
  4  1  2  0  0  0  0
  5  1  1  0  0  0  0
  5 29  1  0  0  0  0
  6  4  1  0  0  0  0
  7  2  1  0  0  0  0
  8  9  1  0  0  0  0
  8  7  1  0  0  0  0
 10  9  1  0  0  0  0
 11 10  1  0  0  0  0
 12 21  1  1  0  0  0
 12 25  1  0  0  0  0
 12 28  1  0  0  0  0
 14 13  1  1  0  0  0
 15 11  1  6  0  0  0
 15 19  1  0  0  0  0
 15 27  1  0  0  0  0
 16 24  1  0  0  0  0
 16 22  1  0  0  0  0
 18 24  1  6  0  0  0
 18 14  1  0  0  0  0
 19 25  1  6  0  0  0
 19 14  1  0  0  0  0
 21 24  1  0  0  0  0
 22 17  1  0  0  0  0
 24 17  1  0  0  0  0
 26 14  1  0  0  0  0
 27 18  1  0  0  0  0
 27 23  1  1  0  0  0
 28 20  1  6  0  0  0
 28 26  1  0  0  0  0
 30 29  1  0  0  0  0
 31 30  1  6  0  0  0
 31 41  1  0  0  0  0
 32 37  1  0  0  0  0
 33 38  1  6  0  0  0
 33 36  1  0  0  0  0
 33 35  1  0  0  0  0
 34 37  1  0  0  0  0
 35 34  1  0  0  0  0
 36 32  1  0  0  0  0
 37 31  1  6  0  0  0
 39 38  1  0  0  0  0
 40 39  1  0  0  0  0
 40 38  1  0  0  0  0
 41 42  1  0  0  0  0
 42 45  1  0  0  0  0
 43 44  1  0  0  0  0
 45 46  2  0  0  0  0
 45 48  1  0  0  0  0
 46 47  1  0  0  0  0
 47 44  2  0  0  0  0
 48 43  2  0  0  0  0
 49 48  1  0  0  0  0
 50 49  1  0  0  0  0
 50 52  1  0  0  0  0
 51 50  2  0  0  0  0
 52 53  1  0  0  0  0
 53 55  1  0  0  0  0
 55 54  1  0  0  0  0
M  END
>  <MODEL>
4

>  <REMARK>
 VINA RESULT:      -6.6      1.794      3.285
  Name = 
  18 active torsions:
  status: ('A' for Active; 'I' for Inactive)
    1  A    between atoms: O_2  and  C_28
    2  A    between atoms: O_2  and  C_44
    3  A    between atoms: C_4  and  O_37
    4  A    between atoms: C_4  and  N_40
    5  A    between atoms: C_5  and  C_45
    6  A    between atoms: C_7  and  N_22
    7  A    between atoms: C_8  and  N_22
    8  A    between atoms: C_8  and  C_43
    9  A    between atoms: C_10  and  N_32
   10  A    between atoms: C_16  and  C_36
   11  A    between atoms: C_26  and  C_45
   12  A    between atoms: C_27  and  C_54
   13  A    between atoms: C_28  and  C_49
   14  A    between atoms: N_33  and  C_36
   15  A    between atoms: N_33  and  C_49
   16  A    between atoms: C_43  and  C_51
   17  A    between atoms: C_49  and  C_52
   18  A    between atoms: C_51  and  C_54
                            x       y       z     vdW  Elec       q    Type
                         _______ _______ _______ _____ _____    ______ ____

>  <TORSDO>
F 18

$$$$
=
 OpenBabel10272401233D

 55 62  0  0  1  0  0  0  0  0999 V2000
  189.1690  177.8910  140.1010 C   0  0  0  0  0  3  0  0  0  0  0  0
  189.3960  176.1700  137.9050 C   0  0  0  0  0  0  0  0  0  0  0  0
  188.2820  177.0070  138.0260 C   0  0  0  0  0  3  0  0  0  0  0  0
  190.2810  177.0560  139.9810 C   0  0  0  0  0  3  0  0  0  0  0  0
  188.1640  177.8740  139.1270 C   0  0  0  0  0  0  0  0  0  0  0  0
  190.3970  176.1970  138.8840 C   0  0  0  0  0  3  0  0  0  0  0  0
  189.5250  175.2690  136.7260 C   0  0  0  0  0  2  0  0  0  0  0  0
  189.4630  176.0710  135.4410 C   0  0  0  0  0  2  0  0  0  0  0  0
  190.2510  175.3620  134.3610 C   0  0  0  0  0  2  0  0  0  0  0  0
  191.6940  175.8350  134.3680 C   0  0  0  0  0  2  0  0  0  0  0  0
  192.5750  174.7490  134.7670 N   0  0  0  0  0  2  0  0  0  0  0  0
  195.0220  172.3360  135.7760 C   0  0  2  0  0  3  0  0  0  0  0  0
  194.5330  175.1710  138.8050 C   0  0  0  0  0  1  0  0  0  0  0  0
  194.8840  174.3450  137.5760 C   0  0  2  0  0  0  0  0  0  0  0  0
  193.1710  175.1270  136.0410 C   0  0  1  0  0  3  0  0  0  0  0  0
  197.0590  175.4210  134.4760 C   0  0  0  0  0  2  0  0  0  0  0  0
  197.8250  174.1590  136.0280 C   0  0  0  0  0  2  0  0  0  0  0  0
  195.5730  175.2530  136.5380 C   0  0  1  0  0  3  0  0  0  0  0  0
  193.5920  173.9100  136.8700 C   0  0  1  0  0  3  0  0  0  0  0  0
  195.2870  170.7300  137.6690 C   0  0  0  0  0  1  0  0  0  0  0  0
  195.7550  173.2940  134.8180 C   0  0  0  0  0  2  0  0  0  0  0  0
  198.4430  175.0840  134.9980 C   0  0  0  0  0  2  0  0  0  0  0  0
  194.2410  177.2170  136.3540 F   0  0  0  0  0  0  0  0  0  0  0  0
  196.4370  174.4920  135.5040 C   0  0  0  0  0  0  0  0  0  0  0  0
  193.6880  172.7370  136.0550 O   0  0  0  0  0  0  0  0  0  0  0  0
  195.7150  173.1470  138.0630 C   0  0  0  0  0  2  0  0  0  0  0  0
  194.4250  175.9600  135.8130 C   0  0  2  0  0  3  0  0  0  0  0  0
  195.8070  172.0100  137.0470 C   0  0  2  0  0  3  0  0  0  0  0  0
  187.0630  178.7180  139.2830 O   0  0  0  0  0  0  0  0  0  0  0  0
  185.7590  178.3820  138.8170 C   0  0  0  0  0  2  0  0  0  0  0  0
  184.8090  178.1520  139.9900 C   0  0  2  0  0  3  0  0  0  0  0  0
  183.1740  177.9210  138.1100 C   0  0  0  0  0  2  0  0  0  0  0  0
  180.8090  177.2310  138.5270 N   0  0  1  0  0  0  0  0  0  0  0  0
  182.4180  177.3970  140.4280 C   0  0  0  0  0  2  0  0  0  0  0  0
  180.9710  177.5530  139.9530 C   0  0  0  0  0  2  0  0  0  0  0  0
  181.7050  178.0580  137.7020 C   0  0  0  0  0  2  0  0  0  0  0  0
  183.3380  178.2750  139.5820 C   0  0  1  0  0  3  0  0  0  0  0  0
  181.0690  175.8100  138.2980 C   0  0  0  0  0  3  0  0  0  0  0  0
  181.5250  175.5950  136.8670 C   0  0  0  0  0  2  0  0  0  0  0  0
  180.1000  175.2770  137.2590 C   0  0  0  0  0  2  0  0  0  0  0  0
  185.1380  179.0390  141.1030 N   0  0  0  0  0  2  0  0  0  0  0  0
  185.9110  178.2810  142.0780 C   0  0  0  0  0  2  0  0  0  0  0  0
  185.3620  178.0530  145.8480 C   0  0  0  0  0  3  0  0  0  0  0  0
  184.1550  178.7430  145.9750 C   0  0  0  0  0  3  0  0  0  0  0  0
  185.3270  178.4280  143.4500 C   0  0  0  0  0  0  0  0  0  0  0  0
  184.1180  179.1190  143.5870 C   0  0  0  0  0  3  0  0  0  0  0  0
  183.5330  179.2760  144.8440 C   0  0  0  0  0  3  0  0  0  0  0  0
  185.9540  177.8830  144.5910 C   0  0  0  0  0  0  0  0  0  0  0  0
  187.2420  177.1260  144.4940 C   0  0  0  0  0  2  0  0  0  0  0  0
  188.1410  177.4420  145.6490 C   0  0  0  0  0  0  0  0  0  0  0  0
  187.6610  177.4810  146.8110 O   0  0  0  0  0  0  0  0  0  0  0  0
  189.5320  177.7170  145.4570 N   0  0  0  0  0  2  0  0  0  0  0  0
  190.1960  177.6010  144.1670 C   0  0  0  0  0  2  0  0  0  0  0  0
  192.0090  178.0640  142.9990 C   0  0  0  0  0  1  0  0  0  0  0  0
  191.2760  178.4820  144.1100 O   0  0  0  0  0  0  0  0  0  0  0  0
  2  3  2  0  0  0  0
  2  6  1  0  0  0  0
  3  5  1  0  0  0  0
  4  1  1  0  0  0  0
  5 29  1  0  0  0  0
  5  1  2  0  0  0  0
  6  4  2  0  0  0  0
  7  2  1  0  0  0  0
  8  7  1  0  0  0  0
  9 10  1  0  0  0  0
  9  8  1  0  0  0  0
 10 11  1  0  0  0  0
 12 21  1  1  0  0  0
 12 25  1  0  0  0  0
 12 28  1  0  0  0  0
 14 26  1  0  0  0  0
 14 13  1  1  0  0  0
 15 11  1  6  0  0  0
 15 19  1  0  0  0  0
 16 22  1  0  0  0  0
 16 24  1  0  0  0  0
 18 24  1  6  0  0  0
 18 14  1  0  0  0  0
 19 25  1  6  0  0  0
 19 14  1  0  0  0  0
 21 24  1  0  0  0  0
 22 17  1  0  0  0  0
 24 17  1  0  0  0  0
 27 15  1  0  0  0  0
 27 23  1  1  0  0  0
 27 18  1  0  0  0  0
 28 20  1  1  0  0  0
 28 26  1  0  0  0  0
 30 29  1  0  0  0  0
 31 30  1  6  0  0  0
 31 41  1  0  0  0  0
 32 37  1  0  0  0  0
 33 38  1  1  0  0  0
 33 35  1  0  0  0  0
 35 34  1  0  0  0  0
 36 32  1  0  0  0  0
 36 33  1  0  0  0  0
 37 31  1  1  0  0  0
 37 34  1  0  0  0  0
 39 40  1  0  0  0  0
 39 38  1  0  0  0  0
 40 38  1  0  0  0  0
 41 42  1  0  0  0  0
 42 45  1  0  0  0  0
 43 44  1  0  0  0  0
 45 46  2  0  0  0  0
 45 48  1  0  0  0  0
 46 47  1  0  0  0  0
 47 44  2  0  0  0  0
 48 43  2  0  0  0  0
 49 48  1  0  0  0  0
 49 50  1  0  0  0  0
 50 51  2  0  0  0  0
 52 50  1  0  0  0  0
 53 52  1  0  0  0  0
 54 55  1  0  0  0  0
 55 53  1  0  0  0  0
M  END
>  <MODEL>
5

>  <REMARK>
 VINA RESULT:      -6.2      3.805      6.506
  Name = 
  18 active torsions:
  status: ('A' for Active; 'I' for Inactive)
    1  A    between atoms: O_2  and  C_28
    2  A    between atoms: O_2  and  C_44
    3  A    between atoms: C_4  and  O_37
    4  A    between atoms: C_4  and  N_40
    5  A    between atoms: C_5  and  C_45
    6  A    between atoms: C_7  and  N_22
    7  A    between atoms: C_8  and  N_22
    8  A    between atoms: C_8  and  C_43
    9  A    between atoms: C_10  and  N_32
   10  A    between atoms: C_16  and  C_36
   11  A    between atoms: C_26  and  C_45
   12  A    between atoms: C_27  and  C_54
   13  A    between atoms: C_28  and  C_49
   14  A    between atoms: N_33  and  C_36
   15  A    between atoms: N_33  and  C_49
   16  A    between atoms: C_43  and  C_51
   17  A    between atoms: C_49  and  C_52
   18  A    between atoms: C_51  and  C_54
                            x       y       z     vdW  Elec       q    Type
                         _______ _______ _______ _____ _____    ______ ____

>  <TORSDO>
F 18

$$$$
=
 OpenBabel10272401233D

 55 62  0  0  1  0  0  0  0  0999 V2000
  191.2150  177.4170  141.3420 C   0  0  0  0  0  3  0  0  0  0  0  0
  188.6030  178.3310  141.7590 C   0  0  0  0  0  0  0  0  0  0  0  0
  189.0130  177.9450  140.4800 C   0  0  0  0  0  3  0  0  0  0  0  0
  190.8060  177.8020  142.6200 C   0  0  0  0  0  3  0  0  0  0  0  0
  190.3250  177.4840  140.2650 C   0  0  0  0  0  0  0  0  0  0  0  0
  189.5020  178.2580  142.8310 C   0  0  0  0  0  3  0  0  0  0  0  0
  187.2070  178.7990  141.9830 C   0  0  0  0  0  2  0  0  0  0  0  0
  186.4300  177.7740  142.7860 C   0  0  0  0  0  2  0  0  0  0  0  0
  185.2780  178.4520  143.4970 C   0  0  0  0  0  2  0  0  0  0  0  0
  184.3390  179.0860  142.4860 C   0  0  0  0  0  2  0  0  0  0  0  0
  183.7300  178.0600  141.6550 N   0  0  0  0  0  2  0  0  0  0  0  0
  184.0270  176.6090  138.3950 C   0  0  2  0  0  3  0  0  0  0  0  0
  181.5220  179.9470  138.2080 C   0  0  0  0  0  1  0  0  0  0  0  0
  182.1920  178.5910  138.3780 C   0  0  2  0  0  0  0  0  0  0  0  0
  182.8520  178.7390  140.7120 C   0  0  1  0  0  3  0  0  0  0  0  0
  180.6300  175.2830  139.8330 C   0  0  0  0  0  2  0  0  0  0  0  0
  180.9010  175.5920  137.7300 C   0  0  0  0  0  2  0  0  0  0  0  0
  181.2590  177.6650  139.1820 C   0  0  1  0  0  3  0  0  0  0  0  0
  183.4200  178.7420  139.2890 C   0  0  1  0  0  3  0  0  0  0  0  0
  184.7990  177.3780  136.1490 C   0  0  0  0  0  1  0  0  0  0  0  0
  183.0140  175.7280  139.1500 C   0  0  0  0  0  2  0  0  0  0  0  0
  179.9940  174.7200  138.5750 C   0  0  0  0  0  2  0  0  0  0  0  0
  180.5170  178.9090  141.0700 F   0  0  0  0  0  0  0  0  0  0  0  0
  181.5430  176.1560  138.9890 C   0  0  0  0  0  0  0  0  0  0  0  0
  184.4380  177.7480  139.1360 O   0  0  0  0  0  0  0  0  0  0  0  0
  182.5660  178.0960  136.9720 C   0  0  0  0  0  2  0  0  0  0  0  0
  181.5020  178.0390  140.6470 C   0  0  2  0  0  3  0  0  0  0  0  0
  183.5960  176.9670  136.9720 C   0  0  2  0  0  3  0  0  0  0  0  0
  190.7700  177.0960  139.0000 O   0  0  0  0  0  0  0  0  0  0  0  0
  190.7410  175.7430  138.5520 C   0  0  0  0  0  2  0  0  0  0  0  0
  191.2310  175.6430  137.1080 C   0  0  2  0  0  3  0  0  0  0  0  0
  189.6890  173.6820  136.9010 C   0  0  0  0  0  2  0  0  0  0  0  0
  187.5860  173.8240  135.5600 N   0  0  1  0  0  0  0  0  0  0  0  0
  189.0660  175.8210  135.7810 C   0  0  0  0  0  2  0  0  0  0  0  0
  188.0950  175.0340  134.8970 C   0  0  0  0  0  2  0  0  0  0  0  0
  188.6970  172.9580  135.9880 C   0  0  0  0  0  2  0  0  0  0  0  0
  190.2280  174.9230  136.2020 C   0  0  1  0  0  3  0  0  0  0  0  0
  186.7520  174.1890  136.7040 C   0  0  0  0  0  3  0  0  0  0  0  0
  186.2300  172.9350  137.3790 C   0  0  0  0  0  2  0  0  0  0  0  0
  185.3270  173.7280  136.4620 C   0  0  0  0  0  2  0  0  0  0  0  0
  192.5520  175.0230  137.0530 N   0  0  0  0  0  2  0  0  0  0  0  0
  192.9340  174.8850  135.6550 C   0  0  0  0  0  2  0  0  0  0  0  0
  196.6950  175.2710  135.1330 C   0  0  0  0  0  3  0  0  0  0  0  0
  196.7920  176.6550  134.9670 C   0  0  0  0  0  3  0  0  0  0  0  0
  194.2920  175.4700  135.4130 C   0  0  0  0  0  0  0  0  0  0  0  0
  194.3990  176.8550  135.2450 C   0  0  0  0  0  3  0  0  0  0  0  0
  195.6430  177.4460  135.0240 C   0  0  0  0  0  3  0  0  0  0  0  0
  195.4530  174.6680  135.3630 C   0  0  0  0  0  0  0  0  0  0  0  0
  195.3920  173.1840  135.5480 C   0  0  0  0  0  2  0  0  0  0  0  0
  196.5530  172.6940  136.3570 C   0  0  0  0  0  0  0  0  0  0  0  0
  197.6250  172.3880  135.7730 O   0  0  0  0  0  0  0  0  0  0  0  0
  196.4660  172.5510  137.7780 N   0  0  0  0  0  2  0  0  0  0  0  0
  195.3040  172.9710  138.5490 C   0  0  0  0  0  2  0  0  0  0  0  0
  196.1380  174.6240  139.7480 C   0  0  0  0  0  1  0  0  0  0  0  0
  195.2940  174.3610  138.6680 O   0  0  0  0  0  0  0  0  0  0  0  0
  1  4  1  0  0  0  0
  2  7  1  0  0  0  0
  2  6  1  0  0  0  0
  3  2  2  0  0  0  0
  4  6  2  0  0  0  0
  5  3  1  0  0  0  0
  5  1  2  0  0  0  0
  7  8  1  0  0  0  0
  8  9  1  0  0  0  0
 10  9  1  0  0  0  0
 11 10  1  0  0  0  0
 12 25  1  0  0  0  0
 12 21  1  1  0  0  0
 14 13  1  6  0  0  0
 14 18  1  0  0  0  0
 14 19  1  0  0  0  0
 15 11  1  1  0  0  0
 17 22  1  0  0  0  0
 17 24  1  0  0  0  0
 18 24  1  1  0  0  0
 18 27  1  0  0  0  0
 19 25  1  1  0  0  0
 19 15  1  0  0  0  0
 22 16  1  0  0  0  0
 24 21  1  0  0  0  0
 24 16  1  0  0  0  0
 26 14  1  0  0  0  0
 27 15  1  0  0  0  0
 27 23  1  6  0  0  0
 28 20  1  6  0  0  0
 28 26  1  0  0  0  0
 28 12  1  0  0  0  0
 29  5  1  0  0  0  0
 30 29  1  0  0  0  0
 31 30  1  1  0  0  0
 33 36  1  0  0  0  0
 33 38  1  1  0  0  0
 34 37  1  0  0  0  0
 35 33  1  0  0  0  0
 35 34  1  0  0  0  0
 36 32  1  0  0  0  0
 37 32  1  0  0  0  0
 37 31  1  1  0  0  0
 38 39  1  0  0  0  0
 40 38  1  0  0  0  0
 40 39  1  0  0  0  0
 41 31  1  0  0  0  0
 42 41  1  0  0  0  0
 43 48  1  0  0  0  0
 44 47  1  0  0  0  0
 44 43  2  0  0  0  0
 45 42  1  0  0  0  0
 46 45  1  0  0  0  0
 47 46  2  0  0  0  0
 48 45  2  0  0  0  0
 48 49  1  0  0  0  0
 49 50  1  0  0  0  0
 50 52  1  0  0  0  0
 51 50  2  0  0  0  0
 52 53  1  0  0  0  0
 53 55  1  0  0  0  0
 55 54  1  0  0  0  0
M  END
>  <MODEL>
6

>  <REMARK>
 VINA RESULT:      -6.1      4.034      8.691
  Name = 
  18 active torsions:
  status: ('A' for Active; 'I' for Inactive)
    1  A    between atoms: O_2  and  C_28
    2  A    between atoms: O_2  and  C_44
    3  A    between atoms: C_4  and  O_37
    4  A    between atoms: C_4  and  N_40
    5  A    between atoms: C_5  and  C_45
    6  A    between atoms: C_7  and  N_22
    7  A    between atoms: C_8  and  N_22
    8  A    between atoms: C_8  and  C_43
    9  A    between atoms: C_10  and  N_32
   10  A    between atoms: C_16  and  C_36
   11  A    between atoms: C_26  and  C_45
   12  A    between atoms: C_27  and  C_54
   13  A    between atoms: C_28  and  C_49
   14  A    between atoms: N_33  and  C_36
   15  A    between atoms: N_33  and  C_49
   16  A    between atoms: C_43  and  C_51
   17  A    between atoms: C_49  and  C_52
   18  A    between atoms: C_51  and  C_54
                            x       y       z     vdW  Elec       q    Type
                         _______ _______ _______ _____ _____    ______ ____

>  <TORSDO>
F 18

$$$$
=
 OpenBabel10272401233D

 55 62  0  0  1  0  0  0  0  0999 V2000
  191.7480  176.9410  142.0490 C   0  0  0  0  0  3  0  0  0  0  0  0
  189.2040  178.1070  142.1350 C   0  0  0  0  0  0  0  0  0  0  0  0
  189.6380  177.4590  140.9740 C   0  0  0  0  0  3  0  0  0  0  0  0
  191.3150  177.5880  143.2080 C   0  0  0  0  0  3  0  0  0  0  0  0
  190.9150  176.8700  140.9270 C   0  0  0  0  0  0  0  0  0  0  0  0
  190.0450  178.1700  143.2540 C   0  0  0  0  0  3  0  0  0  0  0  0
  187.8440  178.7110  142.1850 C   0  0  0  0  0  2  0  0  0  0  0  0
  186.8270  177.6800  142.6360 C   0  0  0  0  0  2  0  0  0  0  0  0
  185.4300  178.1830  142.3450 C   0  0  0  0  0  2  0  0  0  0  0  0
  185.4570  179.1640  141.1860 C   0  0  0  0  0  2  0  0  0  0  0  0
  184.5700  178.7120  140.1260 N   0  0  0  0  0  2  0  0  0  0  0  0
  182.3460  178.2550  137.3560 C   0  0  2  0  0  3  0  0  0  0  0  0
  180.3420  180.2430  140.4350 C   0  0  0  0  0  1  0  0  0  0  0  0
  181.0150  179.2740  139.4730 C   0  0  2  0  0  0  0  0  0  0  0  0
  183.2290  179.1640  140.4680 C   0  0  1  0  0  3  0  0  0  0  0  0
  181.4830  175.3870  139.8850 C   0  0  0  0  0  2  0  0  0  0  0  0
  179.9840  176.2300  138.6070 C   0  0  0  0  0  2  0  0  0  0  0  0
  181.1470  177.8980  140.1540 C   0  0  1  0  0  3  0  0  0  0  0  0
  182.4710  179.7070  139.2520 C   0  0  1  0  0  3  0  0  0  0  0  0
  181.0050  179.7400  135.8650 C   0  0  0  0  0  1  0  0  0  0  0  0
  182.3880  176.8970  138.0830 C   0  0  0  0  0  2  0  0  0  0  0  0
  180.1600  174.9030  139.3190 C   0  0  0  0  0  2  0  0  0  0  0  0
  182.0440  178.2900  142.3240 F   0  0  0  0  0  0  0  0  0  0  0  0
  181.3110  176.7160  139.1690 C   0  0  0  0  0  0  0  0  0  0  0  0
  183.0750  179.2710  138.0300 O   0  0  0  0  0  0  0  0  0  0  0  0
  180.1960  179.2940  138.1730 C   0  0  0  0  0  2  0  0  0  0  0  0
  182.4050  178.0090  141.0210 C   0  0  2  0  0  3  0  0  0  0  0  0
  180.9380  178.7090  136.9720 C   0  0  2  0  0  3  0  0  0  0  0  0
  191.3830  176.2210  139.7830 O   0  0  0  0  0  0  0  0  0  0  0  0
  191.2130  176.7490  138.4710 C   0  0  0  0  0  2  0  0  0  0  0  0
  190.9640  175.6260  137.4650 C   0  0  2  0  0  3  0  0  0  0  0  0
  193.3750  176.1630  137.0660 C   0  0  0  0  0  2  0  0  0  0  0  0
  195.0490  174.3600  136.6360 N   0  0  1  0  0  0  0  0  0  0  0  0
  192.6650  173.7730  137.0810 C   0  0  0  0  0  2  0  0  0  0  0  0
  193.9570  173.4220  136.3380 C   0  0  0  0  0  2  0  0  0  0  0  0
  194.6480  175.7420  136.3270 C   0  0  0  0  0  2  0  0  0  0  0  0
  192.2420  175.2000  136.7380 C   0  0  1  0  0  3  0  0  0  0  0  0
  195.4470  174.2430  138.0390 C   0  0  0  0  0  3  0  0  0  0  0  0
  196.9570  174.3290  138.1540 C   0  0  0  0  0  2  0  0  0  0  0  0
  196.2710  172.9840  138.2310 C   0  0  0  0  0  2  0  0  0  0  0  0
  189.9060  175.9970  136.5290 N   0  0  0  0  0  2  0  0  0  0  0  0
  189.5730  174.8260  135.7290 C   0  0  0  0  0  2  0  0  0  0  0  0
  185.8360  174.3340  136.3340 C   0  0  0  0  0  3  0  0  0  0  0  0
  185.8420  173.1000  136.9900 C   0  0  0  0  0  3  0  0  0  0  0  0
  188.2550  174.2500  136.1520 C   0  0  0  0  0  0  0  0  0  0  0  0
  188.2510  173.0150  136.8090 C   0  0  0  0  0  3  0  0  0  0  0  0
  187.0500  172.4420  137.2280 C   0  0  0  0  0  3  0  0  0  0  0  0
  187.0360  174.9210  135.9160 C   0  0  0  0  0  0  0  0  0  0  0  0
  186.9910  176.2500  135.2280 C   0  0  0  0  0  2  0  0  0  0  0  0
  185.9360  177.1300  135.8250 C   0  0  0  0  0  0  0  0  0  0  0  0
  184.8620  177.3180  135.1960 O   0  0  0  0  0  0  0  0  0  0  0  0
  186.1290  177.7740  137.0880 N   0  0  0  0  0  2  0  0  0  0  0  0
  187.2930  177.5400  137.9300 C   0  0  0  0  0  2  0  0  0  0  0  0
  188.6970  179.1580  137.4000 C   0  0  0  0  0  1  0  0  0  0  0  0
  187.7960  178.7580  138.3890 O   0  0  0  0  0  0  0  0  0  0  0  0
  1  4  1  0  0  0  0
  2  7  1  0  0  0  0
  2  6  1  0  0  0  0
  3  2  2  0  0  0  0
  4  6  2  0  0  0  0
  5  3  1  0  0  0  0
  5  1  2  0  0  0  0
  7  8  1  0  0  0  0
  9  8  1  0  0  0  0
 10  9  1  0  0  0  0
 11 10  1  0  0  0  0
 12 25  1  0  0  0  0
 12 21  1  1  0  0  0
 14 18  1  0  0  0  0
 14 13  1  1  0  0  0
 15 11  1  6  0  0  0
 15 27  1  0  0  0  0
 17 24  1  0  0  0  0
 17 22  1  0  0  0  0
 18 24  1  6  0  0  0
 18 27  1  0  0  0  0
 19 25  1  6  0  0  0
 19 14  1  0  0  0  0
 19 15  1  0  0  0  0
 21 24  1  0  0  0  0
 22 16  1  0  0  0  0
 24 16  1  0  0  0  0
 26 14  1  0  0  0  0
 27 23  1  1  0  0  0
 28 20  1  6  0  0  0
 28 12  1  0  0  0  0
 28 26  1  0  0  0  0
 29  5  1  0  0  0  0
 30 29  1  0  0  0  0
 31 30  1  1  0  0  0
 33 38  1  1  0  0  0
 35 33  1  0  0  0  0
 35 34  1  0  0  0  0
 36 33  1  0  0  0  0
 36 32  1  0  0  0  0
 37 32  1  0  0  0  0
 37 34  1  0  0  0  0
 37 31  1  1  0  0  0
 38 39  1  0  0  0  0
 38 40  1  0  0  0  0
 39 40  1  0  0  0  0
 41 31  1  0  0  0  0
 42 45  1  0  0  0  0
 42 41  1  0  0  0  0
 43 44  1  0  0  0  0
 44 47  2  0  0  0  0
 45 46  2  0  0  0  0
 46 47  1  0  0  0  0
 48 45  1  0  0  0  0
 48 43  2  0  0  0  0
 49 50  1  0  0  0  0
 49 48  1  0  0  0  0
 50 52  1  0  0  0  0
 51 50  2  0  0  0  0
 52 53  1  0  0  0  0
 53 55  1  0  0  0  0
 54 55  1  0  0  0  0
M  END
>  <MODEL>
7

>  <REMARK>
 VINA RESULT:      -6.0      2.946      8.881
  Name = 
  18 active torsions:
  status: ('A' for Active; 'I' for Inactive)
    1  A    between atoms: O_2  and  C_28
    2  A    between atoms: O_2  and  C_44
    3  A    between atoms: C_4  and  O_37
    4  A    between atoms: C_4  and  N_40
    5  A    between atoms: C_5  and  C_45
    6  A    between atoms: C_7  and  N_22
    7  A    between atoms: C_8  and  N_22
    8  A    between atoms: C_8  and  C_43
    9  A    between atoms: C_10  and  N_32
   10  A    between atoms: C_16  and  C_36
   11  A    between atoms: C_26  and  C_45
   12  A    between atoms: C_27  and  C_54
   13  A    between atoms: C_28  and  C_49
   14  A    between atoms: N_33  and  C_36
   15  A    between atoms: N_33  and  C_49
   16  A    between atoms: C_43  and  C_51
   17  A    between atoms: C_49  and  C_52
   18  A    between atoms: C_51  and  C_54
                            x       y       z     vdW  Elec       q    Type
                         _______ _______ _______ _____ _____    ______ ____

>  <TORSDO>
F 18

$$$$
=
 OpenBabel10272401233D

 55 62  0  0  1  0  0  0  0  0999 V2000
  189.9540  177.4070  140.4480 C   0  0  0  0  0  3  0  0  0  0  0  0
  190.0330  177.1140  137.6650 C   0  0  0  0  0  0  0  0  0  0  0  0
  189.0680  177.9350  138.2550 C   0  0  0  0  0  3  0  0  0  0  0  0
  190.9180  176.5860  139.8600 C   0  0  0  0  0  3  0  0  0  0  0  0
  189.0250  178.0870  139.6540 C   0  0  0  0  0  0  0  0  0  0  0  0
  190.9600  176.4400  138.4700 C   0  0  0  0  0  3  0  0  0  0  0  0
  190.0850  176.9740  136.1830 C   0  0  0  0  0  2  0  0  0  0  0  0
  190.5390  175.5780  135.8020 C   0  0  0  0  0  2  0  0  0  0  0  0
  191.7800  175.6650  134.9400 C   0  0  0  0  0  2  0  0  0  0  0  0
  192.1020  174.3050  134.3460 C   0  0  0  0  0  2  0  0  0  0  0  0
  193.5390  174.0860  134.3460 N   0  0  0  0  0  2  0  0  0  0  0  0
  196.1490  171.6990  134.9100 C   0  0  2  0  0  3  0  0  0  0  0  0
  195.0860  173.4800  138.5370 C   0  0  0  0  0  1  0  0  0  0  0  0
  195.6320  173.0790  137.1730 C   0  0  2  0  0  0  0  0  0  0  0  0
  193.9780  174.1270  135.7350 C   0  0  1  0  0  3  0  0  0  0  0  0
  197.9270  175.1890  134.7680 C   0  0  0  0  0  2  0  0  0  0  0  0
  198.6960  173.5990  135.9810 C   0  0  0  0  0  2  0  0  0  0  0  0
  196.2990  174.3040  136.5180 C   0  0  1  0  0  3  0  0  0  0  0  0
  194.4620  172.7600  136.2310 C   0  0  1  0  0  3  0  0  0  0  0  0
  196.4330  169.6410  136.2940 C   0  0  0  0  0  1  0  0  0  0  0  0
  196.8480  172.9520  134.3490 C   0  0  0  0  0  2  0  0  0  0  0  0
  199.2910  174.8320  135.3290 C   0  0  0  0  0  2  0  0  0  0  0  0
  194.7740  176.1170  136.7420 F   0  0  0  0  0  0  0  0  0  0  0  0
  197.3280  173.9520  135.4170 C   0  0  0  0  0  0  0  0  0  0  0  0
  194.7590  171.8880  135.1360 O   0  0  0  0  0  0  0  0  0  0  0  0
  196.5490  171.8660  137.3970 C   0  0  0  0  0  2  0  0  0  0  0  0
  195.1440  175.0920  135.8940 C   0  0  2  0  0  3  0  0  0  0  0  0
  196.8550  171.0850  136.1190 C   0  0  2  0  0  3  0  0  0  0  0  0
  188.0710  178.8940  140.2760 O   0  0  0  0  0  0  0  0  0  0  0  0
  186.7530  178.4430  140.5750 C   0  0  0  0  0  2  0  0  0  0  0  0
  186.2750  179.0140  141.9080 C   0  0  2  0  0  3  0  0  0  0  0  0
  187.8100  177.4760  143.1480 C   0  0  0  0  0  2  0  0  0  0  0  0
  187.4810  176.9990  145.5780 N   0  0  1  0  0  0  0  0  0  0  0  0
  185.9560  178.5810  144.3960 C   0  0  0  0  0  2  0  0  0  0  0  0
  186.1090  177.5220  145.4910 C   0  0  0  0  0  2  0  0  0  0  0  0
  187.9130  176.4520  144.2820 C   0  0  0  0  0  2  0  0  0  0  0  0
  186.3840  177.9990  143.0490 C   0  0  1  0  0  3  0  0  0  0  0  0
  188.3960  178.0510  146.0200 C   0  0  0  0  0  3  0  0  0  0  0  0
  189.5720  177.4340  146.7520 C   0  0  0  0  0  2  0  0  0  0  0  0
  188.4500  178.0740  147.5370 C   0  0  0  0  0  2  0  0  0  0  0  0
  184.9210  179.5480  141.7860 N   0  0  0  0  0  2  0  0  0  0  0  0
  184.2500  178.8470  140.7000 C   0  0  0  0  0  2  0  0  0  0  0  0
  180.4810  178.7740  140.1000 C   0  0  0  0  0  3  0  0  0  0  0  0
  180.0100  178.8070  141.4140 C   0  0  0  0  0  3  0  0  0  0  0  0
  182.7670  178.8280  140.9150 C   0  0  0  0  0  0  0  0  0  0  0  0
  182.2860  178.8600  142.2290 C   0  0  0  0  0  3  0  0  0  0  0  0
  180.9130  178.8500  142.4790 C   0  0  0  0  0  3  0  0  0  0  0  0
  181.8560  178.7910  139.8380 C   0  0  0  0  0  0  0  0  0  0  0  0
  182.3220  178.7680  138.4150 C   0  0  0  0  0  2  0  0  0  0  0  0
  181.5370  177.7800  137.6070 C   0  0  0  0  0  0  0  0  0  0  0  0
  180.5820  178.1880  136.8950 O   0  0  0  0  0  0  0  0  0  0  0  0
  181.8380  176.3830  137.6400 N   0  0  0  0  0  2  0  0  0  0  0  0
  182.9800  175.8320  138.3560 C   0  0  0  0  0  2  0  0  0  0  0  0
  183.8240  175.2390  136.4050 C   0  0  0  0  0  1  0  0  0  0  0  0
  184.1280  175.9440  137.5710 O   0  0  0  0  0  0  0  0  0  0  0  0
  2  3  2  0  0  0  0
  2  6  1  0  0  0  0
  3  5  1  0  0  0  0
  4  1  1  0  0  0  0
  5 29  1  0  0  0  0
  5  1  2  0  0  0  0
  6  4  2  0  0  0  0
  7  2  1  0  0  0  0
  8  7  1  0  0  0  0
  9  8  1  0  0  0  0
 10  9  1  0  0  0  0
 11 10  1  0  0  0  0
 12 21  1  1  0  0  0
 12 25  1  0  0  0  0
 12 28  1  0  0  0  0
 14 26  1  0  0  0  0
 14 13  1  1  0  0  0
 15 11  1  6  0  0  0
 15 27  1  0  0  0  0
 15 19  1  0  0  0  0
 16 22  1  0  0  0  0
 16 24  1  0  0  0  0
 18 24  1  6  0  0  0
 18 14  1  0  0  0  0
 19 25  1  6  0  0  0
 19 14  1  0  0  0  0
 21 24  1  0  0  0  0
 22 17  1  0  0  0  0
 24 17  1  0  0  0  0
 27 18  1  0  0  0  0
 27 23  1  1  0  0  0
 28 20  1  1  0  0  0
 28 26  1  0  0  0  0
 29 30  1  0  0  0  0
 31 30  1  6  0  0  0
 32 36  1  0  0  0  0
 33 38  1  6  0  0  0
 34 35  1  0  0  0  0
 35 33  1  0  0  0  0
 36 33  1  0  0  0  0
 37 31  1  6  0  0  0
 37 32  1  0  0  0  0
 37 34  1  0  0  0  0
 38 39  1  0  0  0  0
 38 40  1  0  0  0  0
 39 40  1  0  0  0  0
 41 31  1  0  0  0  0
 42 45  1  0  0  0  0
 42 41  1  0  0  0  0
 43 44  1  0  0  0  0
 44 47  2  0  0  0  0
 45 46  2  0  0  0  0
 46 47  1  0  0  0  0
 48 43  2  0  0  0  0
 48 45  1  0  0  0  0
 49 48  1  0  0  0  0
 50 52  1  0  0  0  0
 50 49  1  0  0  0  0
 51 50  2  0  0  0  0
 52 53  1  0  0  0  0
 54 55  1  0  0  0  0
 55 53  1  0  0  0  0
M  END
>  <MODEL>
8

>  <REMARK>
 VINA RESULT:      -6.0      4.388      8.672
  Name = 
  18 active torsions:
  status: ('A' for Active; 'I' for Inactive)
    1  A    between atoms: O_2  and  C_28
    2  A    between atoms: O_2  and  C_44
    3  A    between atoms: C_4  and  O_37
    4  A    between atoms: C_4  and  N_40
    5  A    between atoms: C_5  and  C_45
    6  A    between atoms: C_7  and  N_22
    7  A    between atoms: C_8  and  N_22
    8  A    between atoms: C_8  and  C_43
    9  A    between atoms: C_10  and  N_32
   10  A    between atoms: C_16  and  C_36
   11  A    between atoms: C_26  and  C_45
   12  A    between atoms: C_27  and  C_54
   13  A    between atoms: C_28  and  C_49
   14  A    between atoms: N_33  and  C_36
   15  A    between atoms: N_33  and  C_49
   16  A    between atoms: C_43  and  C_51
   17  A    between atoms: C_49  and  C_52
   18  A    between atoms: C_51  and  C_54
                            x       y       z     vdW  Elec       q    Type
                         _______ _______ _______ _____ _____    ______ ____

>  <TORSDO>
F 18

$$$$
=
 OpenBabel10272401233D

 55 62  0  0  1  0  0  0  0  0999 V2000
  189.8190  177.5740  141.0170 C   0  0  0  0  0  3  0  0  0  0  0  0
  189.7430  177.6640  138.2200 C   0  0  0  0  0  0  0  0  0  0  0  0
  188.5920  177.9500  138.9600 C   0  0  0  0  0  3  0  0  0  0  0  0
  190.9680  177.2880  140.2780 C   0  0  0  0  0  3  0  0  0  0  0  0
  188.6260  177.9080  140.3670 C   0  0  0  0  0  0  0  0  0  0  0  0
  190.9330  177.3330  138.8810 C   0  0  0  0  0  3  0  0  0  0  0  0
  189.7060  177.7300  136.7320 C   0  0  0  0  0  2  0  0  0  0  0  0
  189.6720  176.3330  136.1440 C   0  0  0  0  0  2  0  0  0  0  0  0
  190.6300  176.2500  134.9750 C   0  0  0  0  0  2  0  0  0  0  0  0
  191.0840  174.8160  134.7700 C   0  0  0  0  0  2  0  0  0  0  0  0
  192.5280  174.7640  134.6150 N   0  0  0  0  0  2  0  0  0  0  0  0
  194.8720  172.2740  135.6790 C   0  0  2  0  0  3  0  0  0  0  0  0
  194.4150  175.1310  138.6920 C   0  0  0  0  0  1  0  0  0  0  0  0
  194.7640  174.2910  137.4720 C   0  0  2  0  0  0  0  0  0  0  0  0
  193.1100  175.1260  135.9000 C   0  0  1  0  0  3  0  0  0  0  0  0
  197.0380  175.2870  134.4160 C   0  0  0  0  0  2  0  0  0  0  0  0
  197.7290  174.0030  135.9850 C   0  0  0  0  0  2  0  0  0  0  0  0
  195.5040  175.1730  136.4470 C   0  0  1  0  0  3  0  0  0  0  0  0
  193.4730  173.8970  136.7400 C   0  0  1  0  0  3  0  0  0  0  0  0
  195.0450  170.6650  137.5790 C   0  0  0  0  0  1  0  0  0  0  0  0
  195.6560  173.2040  134.7340 C   0  0  0  0  0  2  0  0  0  0  0  0
  198.3980  174.9050  134.9680 C   0  0  0  0  0  2  0  0  0  0  0  0
  194.2430  177.1790  136.2320 F   0  0  0  0  0  0  0  0  0  0  0  0
  196.3630  174.3810  135.4320 C   0  0  0  0  0  0  0  0  0  0  0  0
  193.5470  172.7200  135.9290 O   0  0  0  0  0  0  0  0  0  0  0  0
  195.5440  173.0670  137.9780 C   0  0  0  0  0  2  0  0  0  0  0  0
  194.3950  175.9160  135.6970 C   0  0  2  0  0  3  0  0  0  0  0  0
  195.6190  171.9250  136.9660 C   0  0  2  0  0  3  0  0  0  0  0  0
  187.4950  178.1820  141.1370 O   0  0  0  0  0  0  0  0  0  0  0  0
  186.4320  177.2490  141.3110 C   0  0  0  0  0  2  0  0  0  0  0  0
  185.3080  177.8580  142.1460 C   0  0  2  0  0  3  0  0  0  0  0  0
  184.8530  178.8010  139.8740 C   0  0  0  0  0  2  0  0  0  0  0  0
  182.5570  179.5280  139.2090 N   0  0  1  0  0  0  0  0  0  0  0  0
  182.9530  178.5450  141.4680 C   0  0  0  0  0  2  0  0  0  0  0  0
  182.1570  179.5430  140.6240 C   0  0  0  0  0  2  0  0  0  0  0  0
  184.0000  179.7880  139.0730 C   0  0  0  0  0  2  0  0  0  0  0  0
  184.4480  178.8360  141.3410 C   0  0  1  0  0  3  0  0  0  0  0  0
  182.2090  178.2450  138.5990 C   0  0  0  0  0  3  0  0  0  0  0  0
  181.8790  178.4460  137.1330 C   0  0  0  0  0  2  0  0  0  0  0  0
  180.7630  178.2760  138.1390 C   0  0  0  0  0  2  0  0  0  0  0  0
  185.8410  178.4770  143.3570 N   0  0  0  0  0  2  0  0  0  0  0  0
  186.5490  177.4570  144.1180 C   0  0  0  0  0  2  0  0  0  0  0  0
  188.2260  178.1100  147.4840 C   0  0  0  0  0  3  0  0  0  0  0  0
  187.2240  178.8330  148.1350 C   0  0  0  0  0  3  0  0  0  0  0  0
  186.8170  177.9260  145.5160 C   0  0  0  0  0  0  0  0  0  0  0  0
  185.8190  178.6510  146.1760 C   0  0  0  0  0  3  0  0  0  0  0  0
  186.0200  179.1030  147.4800 C   0  0  0  0  0  3  0  0  0  0  0  0
  188.0320  177.6460  146.1780 C   0  0  0  0  0  0  0  0  0  0  0  0
  189.1240  176.8630  145.5180 C   0  0  0  0  0  2  0  0  0  0  0  0
  190.2450  177.7590  145.0890 C   0  0  0  0  0  0  0  0  0  0  0  0
  189.9850  178.7960  144.4250 O   0  0  0  0  0  0  0  0  0  0  0  0
  191.6070  177.4530  145.4030 N   0  0  0  0  0  2  0  0  0  0  0  0
  191.9960  176.3320  146.2460 C   0  0  0  0  0  2  0  0  0  0  0  0
  192.7800  175.7890  148.2350 C   0  0  0  0  0  1  0  0  0  0  0  0
  191.9630  176.7160  147.5870 O   0  0  0  0  0  0  0  0  0  0  0  0
  2  6  2  0  0  0  0
  2  3  1  0  0  0  0
  3  5  2  0  0  0  0
  4  1  2  0  0  0  0
  5  1  1  0  0  0  0
  5 29  1  0  0  0  0
  6  4  1  0  0  0  0
  7  2  1  0  0  0  0
  8  7  1  0  0  0  0
  9  8  1  0  0  0  0
 10  9  1  0  0  0  0
 11 10  1  0  0  0  0
 12 21  1  1  0  0  0
 12 25  1  0  0  0  0
 12 28  1  0  0  0  0
 14 26  1  0  0  0  0
 14 13  1  1  0  0  0
 15 11  1  6  0  0  0
 15 19  1  0  0  0  0
 16 22  1  0  0  0  0
 16 24  1  0  0  0  0
 18 24  1  6  0  0  0
 18 14  1  0  0  0  0
 19 25  1  6  0  0  0
 19 14  1  0  0  0  0
 21 24  1  0  0  0  0
 22 17  1  0  0  0  0
 24 17  1  0  0  0  0
 27 15  1  0  0  0  0
 27 23  1  1  0  0  0
 27 18  1  0  0  0  0
 28 20  1  1  0  0  0
 28 26  1  0  0  0  0
 29 30  1  0  0  0  0
 31 30  1  6  0  0  0
 31 41  1  0  0  0  0
 32 37  1  0  0  0  0
 33 38  1  1  0  0  0
 33 35  1  0  0  0  0
 35 34  1  0  0  0  0
 36 33  1  0  0  0  0
 36 32  1  0  0  0  0
 37 34  1  0  0  0  0
 37 31  1  1  0  0  0
 39 40  1  0  0  0  0
 39 38  1  0  0  0  0
 40 38  1  0  0  0  0
 41 42  1  0  0  0  0
 42 45  1  0  0  0  0
 43 44  1  0  0  0  0
 45 46  2  0  0  0  0
 45 48  1  0  0  0  0
 46 47  1  0  0  0  0
 47 44  2  0  0  0  0
 48 43  2  0  0  0  0
 49 48  1  0  0  0  0
 50 52  1  0  0  0  0
 50 49  1  0  0  0  0
 51 50  2  0  0  0  0
 52 53  1  0  0  0  0
 53 55  1  0  0  0  0
 55 54  1  0  0  0  0
M  END
>  <MODEL>
9

>  <REMARK>
 VINA RESULT:      -5.9      3.786      6.393
  Name = 
  18 active torsions:
  status: ('A' for Active; 'I' for Inactive)
    1  A    between atoms: O_2  and  C_28
    2  A    between atoms: O_2  and  C_44
    3  A    between atoms: C_4  and  O_37
    4  A    between atoms: C_4  and  N_40
    5  A    between atoms: C_5  and  C_45
    6  A    between atoms: C_7  and  N_22
    7  A    between atoms: C_8  and  N_22
    8  A    between atoms: C_8  and  C_43
    9  A    between atoms: C_10  and  N_32
   10  A    between atoms: C_16  and  C_36
   11  A    between atoms: C_26  and  C_45
   12  A    between atoms: C_27  and  C_54
   13  A    between atoms: C_28  and  C_49
   14  A    between atoms: N_33  and  C_36
   15  A    between atoms: N_33  and  C_49
   16  A    between atoms: C_43  and  C_51
   17  A    between atoms: C_49  and  C_52
   18  A    between atoms: C_51  and  C_54
                            x       y       z     vdW  Elec       q    Type
                         _______ _______ _______ _____ _____    ______ ____

>  <TORSDO>
F 18

$$$$
