=
 OpenBabel10272414333D

 43 48  0  0  1  0  0  0  0  0999 V2000
  185.5670  178.2680  145.7360 C   0  0  0  0  0  0  0  0  0  0  0  0
  182.8550  178.9010  141.4500 C   0  0  0  0  0  0  0  0  0  0  0  0
  184.5810  178.4340  139.2780 C   0  0  0  0  0  0  0  0  0  0  0  0
  183.8670  178.9160  144.1330 C   0  0  0  0  0  0  0  0  0  0  0  0
  186.4050  177.7920  144.6120 C   0  0  0  0  0  3  0  0  0  0  0  0
  186.0290  178.1420  147.0390 O   0  0  0  0  0  1  0  0  0  0  0  0
  184.8960  178.9340  143.0220 C   0  0  1  0  0  3  0  0  0  0  0  0
  184.3480  178.7730  145.5130 C   0  0  0  0  0  3  0  0  0  0  0  0
  186.0730  178.0500  143.3420 C   0  0  0  0  0  3  0  0  0  0  0  0
  185.0780  178.5070  140.6280 N   0  0  0  0  0  0  0  0  0  0  0  0
  184.3060  178.7040  141.6580 C   0  0  0  0  0  0  0  0  0  0  0  0
  182.0420  179.0780  142.5040 C   0  0  0  0  0  3  0  0  0  0  0  0
  182.3560  178.8570  140.1020 N   0  0  0  0  0  0  0  0  0  0  0  0
  183.2760  178.6070  139.0270 C   0  0  0  0  0  3  0  0  0  0  0  0
  182.5600  179.0460  143.8840 C   0  0  0  0  0  3  0  0  0  0  0  0
  185.5160  178.1450  138.1440 C   0  0  2  0  0  3  0  0  0  0  0  0
  185.2030  176.7810  137.5590 C   0  0  0  0  0  1  0  0  0  0  0  0
  186.9010  178.1570  138.6070 N   0  0  0  0  0  2  0  0  0  0  0  0
  187.9420  178.9020  137.9670 C   0  0  0  0  0  0  0  0  0  0  0  0
  187.7410  179.4510  136.8500 O   0  0  0  0  0  0  0  0  0  0  0  0
  189.1920  179.0200  138.5750 O   0  0  0  0  0  0  0  0  0  0  0  0
  190.2180  178.0640  138.3460 C   0  0  2  0  0  3  0  0  0  0  0  0
  190.4950  175.6680  138.7080 C   0  0  0  0  0  2  0  0  0  0  0  0
  189.9880  177.3500  137.0340 C   0  0  0  0  0  2  0  0  0  0  0  0
  190.1850  176.9820  139.4100 C   0  0  1  0  0  3  0  0  0  0  0  0
  190.5850  175.9720  137.2210 C   0  0  0  0  0  2  0  0  0  0  0  0
  190.8710  177.0010  141.8610 N   0  0  0  0  0  0  0  0  0  0  0  0
  191.1950  177.2510  140.4880 C   0  0  0  0  0  0  0  0  0  0  0  0
  190.9590  176.8110  144.0170 C   0  0  0  0  0  0  0  0  0  0  0  0
  189.7220  176.4040  143.6800 N   0  0  0  0  0  0  0  0  0  0  0  0
  191.4430  176.8300  145.3530 N   0  0  0  0  0  1  0  0  0  0  0  0
  189.6960  176.5360  142.3380 C   0  0  0  0  0  3  0  0  0  0  0  0
  191.6880  177.1830  142.9110 C   0  0  0  0  0  3  0  0  0  0  0  0
  192.3480  177.6620  140.1810 O   0  0  0  0  0  0  0  0  0  0  0  0
  180.9340  178.9880  139.7960 C   0  0  0  0  0  2  0  0  0  0  0  0
  180.8580  182.1780  137.7390 C   0  0  0  0  0  3  0  0  0  0  0  0
  180.3270  181.7210  136.5280 C   0  0  0  0  0  0  0  0  0  0  0  0
  180.1880  179.4750  137.4560 C   0  0  0  0  0  3  0  0  0  0  0  0
  181.0560  181.2910  138.8030 C   0  0  0  0  0  3  0  0  0  0  0  0
  180.7270  179.9380  138.6600 C   0  0  0  0  0  0  0  0  0  0  0  0
  179.9900  180.3630  136.3920 C   0  0  0  0  0  3  0  0  0  0  0  0
  180.6940  183.9460  135.5100 C   0  0  0  0  0  1  0  0  0  0  0  0
  180.1490  182.6340  135.4830 O   0  0  0  0  0  0  0  0  0  0  0  0
  1  6  1  0  0  0  0
  2 11  1  0  0  0  0
  2 12  2  0  0  0  0
  3 10  1  0  0  0  0
  4  8  1  0  0  0  0
  5  1  1  0  0  0  0
  7  9  1  1  0  0  0
  7  4  1  0  0  0  0
  8  1  2  0  0  0  0
  9  5  2  0  0  0  0
 10 11  2  0  0  0  0
 11  7  1  0  0  0  0
 12 15  1  0  0  0  0
 13  2  1  0  0  0  0
 14  3  2  0  0  0  0
 14 13  1  0  0  0  0
 15  4  2  0  0  0  0
 16 17  1  1  0  0  0
 16 18  1  0  0  0  0
 16  3  1  0  0  0  0
 19 21  1  0  0  0  0
 19 18  1  0  0  0  0
 20 19  2  0  0  0  0
 22 21  1  1  0  0  0
 22 25  1  0  0  0  0
 23 25  1  0  0  0  0
 24 26  1  0  0  0  0
 24 22  1  0  0  0  0
 25 28  1  1  0  0  0
 26 23  1  0  0  0  0
 27 32  1  0  0  0  0
 27 33  1  0  0  0  0
 28 27  1  0  0  0  0
 29 31  1  0  0  0  0
 30 29  1  0  0  0  0
 32 30  2  0  0  0  0
 33 29  2  0  0  0  0
 34 28  2  0  0  0  0
 35 13  1  0  0  0  0
 36 39  1  0  0  0  0
 37 36  2  0  0  0  0
 38 40  1  0  0  0  0
 40 39  2  0  0  0  0
 40 35  1  0  0  0  0
 41 37  1  0  0  0  0
 41 38  2  0  0  0  0
 43 42  1  0  0  0  0
 43 37  1  0  0  0  0
M  END
>  <MODEL>
1

>  <REMARK>
 VINA RESULT:      -9.5      0.000      0.000
  Name = 
  8 active torsions:
  status: ('A' for Active; 'I' for Inactive)
    1  A    between atoms: C_1  and  N_34
    2  A    between atoms: C_1  and  C_35
    3  A    between atoms: C_2  and  N_6
    4  A    between atoms: C_2  and  C_13
    5  A    between atoms: O_3  and  C_4
    6  A    between atoms: O_3  and  C_12
    7  A    between atoms: C_14  and  C_22
    8  A    between atoms: C_19  and  O_37
                            x       y       z     vdW  Elec       q    Type
                         _______ _______ _______ _____ _____    ______ ____

>  <TORSDO>
F 8

$$$$
=
 OpenBabel10272414333D

 43 48  0  0  1  0  0  0  0  0999 V2000
  191.0370  176.9010  146.5940 C   0  0  0  0  0  0  0  0  0  0  0  0
  189.5870  177.5830  141.7400 C   0  0  0  0  0  0  0  0  0  0  0  0
  186.9220  178.4840  141.7690 C   0  0  0  0  0  0  0  0  0  0  0  0
  190.8850  176.8050  144.1760 C   0  0  0  0  0  0  0  0  0  0  0  0
  189.7300  177.5980  146.6190 C   0  0  0  0  0  3  0  0  0  0  0  0
  191.7070  176.6550  147.7840 O   0  0  0  0  0  1  0  0  0  0  0  0
  189.3860  177.0090  144.2440 C   0  0  1  0  0  3  0  0  0  0  0  0
  191.6020  176.5530  145.4330 C   0  0  0  0  0  3  0  0  0  0  0  0
  188.9780  177.7000  145.5180 C   0  0  0  0  0  3  0  0  0  0  0  0
  187.5730  178.0300  142.9720 N   0  0  0  0  0  0  0  0  0  0  0  0
  188.8100  177.6240  142.9980 C   0  0  0  0  0  0  0  0  0  0  0  0
  190.8710  177.1910  141.7550 C   0  0  0  0  0  3  0  0  0  0  0  0
  188.9340  178.0080  140.5310 N   0  0  0  0  0  0  0  0  0  0  0  0
  187.5750  178.4680  140.6000 C   0  0  0  0  0  3  0  0  0  0  0  0
  191.5470  176.8300  143.0140 C   0  0  0  0  0  3  0  0  0  0  0  0
  185.5160  178.9960  141.8210 C   0  0  2  0  0  3  0  0  0  0  0  0
  184.9470  178.7870  143.2120 C   0  0  0  0  0  1  0  0  0  0  0  0
  184.6790  178.2910  140.8540 N   0  0  0  0  0  2  0  0  0  0  0  0
  184.2740  178.8510  139.6010 C   0  0  0  0  0  0  0  0  0  0  0  0
  184.4790  180.0690  139.3500 O   0  0  0  0  0  0  0  0  0  0  0  0
  183.6400  178.0510  138.6500 O   0  0  0  0  0  0  0  0  0  0  0  0
  182.2420  177.7990  138.7100 C   0  0  2  0  0  3  0  0  0  0  0  0
  180.7740  176.3590  140.0210 C   0  0  0  0  0  2  0  0  0  0  0  0
  181.6040  178.6290  139.8010 C   0  0  0  0  0  2  0  0  0  0  0  0
  181.9770  176.3540  139.0890 C   0  0  1  0  0  3  0  0  0  0  0  0
  180.4210  177.8150  140.2770 C   0  0  0  0  0  2  0  0  0  0  0  0
  182.7080  174.6590  137.3370 N   0  0  0  0  0  0  0  0  0  0  0  0
  181.6950  175.5170  137.8750 C   0  0  0  0  0  0  0  0  0  0  0  0
  183.7910  173.2210  136.1320 C   0  0  0  0  0  0  0  0  0  0  0  0
  184.6630  173.6120  137.0770 N   0  0  0  0  0  0  0  0  0  0  0  0
  184.0960  172.2590  135.1300 N   0  0  0  0  0  1  0  0  0  0  0  0
  183.9650  174.5060  137.8070 C   0  0  0  0  0  3  0  0  0  0  0  0
  182.5760  173.8510  136.2720 C   0  0  0  0  0  3  0  0  0  0  0  0
  180.5480  175.5410  137.3470 O   0  0  0  0  0  0  0  0  0  0  0  0
  189.6310  178.0540  139.2490 C   0  0  0  0  0  2  0  0  0  0  0  0
  187.3250  176.1220  136.9320 C   0  0  0  0  0  3  0  0  0  0  0  0
  186.9410  177.1140  136.0240 C   0  0  0  0  0  0  0  0  0  0  0  0
  188.3200  178.7220  137.2230 C   0  0  0  0  0  3  0  0  0  0  0  0
  188.2000  176.4260  137.9820 C   0  0  0  0  0  3  0  0  0  0  0  0
  188.6930  177.7270  138.1310 C   0  0  0  0  0  0  0  0  0  0  0  0
  187.4450  178.4180  136.1730 C   0  0  0  0  0  3  0  0  0  0  0  0
  184.6530  176.9600  135.0930 C   0  0  0  0  0  1  0  0  0  0  0  0
  186.0590  176.7770  134.9910 O   0  0  0  0  0  0  0  0  0  0  0  0
  1  5  1  0  0  0  0
  1  6  1  0  0  0  0
  2 12  2  0  0  0  0
  2 11  1  0  0  0  0
  3 16  1  0  0  0  0
  3 10  1  0  0  0  0
  4  7  1  0  0  0  0
  4  8  1  0  0  0  0
  7  9  1  1  0  0  0
  8  1  2  0  0  0  0
  9  5  2  0  0  0  0
 10 11  2  0  0  0  0
 11  7  1  0  0  0  0
 12 15  1  0  0  0  0
 13 14  1  0  0  0  0
 13  2  1  0  0  0  0
 14  3  2  0  0  0  0
 15  4  2  0  0  0  0
 16 17  1  1  0  0  0
 18 16  1  0  0  0  0
 19 18  1  0  0  0  0
 20 19  2  0  0  0  0
 21 19  1  0  0  0  0
 22 21  1  1  0  0  0
 22 25  1  0  0  0  0
 22 24  1  0  0  0  0
 23 26  1  0  0  0  0
 24 26  1  0  0  0  0
 25 28  1  6  0  0  0
 25 23  1  0  0  0  0
 27 32  1  0  0  0  0
 27 28  1  0  0  0  0
 29 33  2  0  0  0  0
 29 30  1  0  0  0  0
 30 32  2  0  0  0  0
 31 29  1  0  0  0  0
 33 27  1  0  0  0  0
 34 28  2  0  0  0  0
 35 13  1  0  0  0  0
 36 39  1  0  0  0  0
 37 41  1  0  0  0  0
 37 36  2  0  0  0  0
 38 40  1  0  0  0  0
 39 40  2  0  0  0  0
 40 35  1  0  0  0  0
 41 38  2  0  0  0  0
 43 42  1  0  0  0  0
 43 37  1  0  0  0  0
M  END
>  <MODEL>
2

>  <REMARK>
 VINA RESULT:      -9.5      3.136      7.863
  Name = 
  8 active torsions:
  status: ('A' for Active; 'I' for Inactive)
    1  A    between atoms: C_1  and  N_34
    2  A    between atoms: C_1  and  C_35
    3  A    between atoms: C_2  and  N_6
    4  A    between atoms: C_2  and  C_13
    5  A    between atoms: O_3  and  C_4
    6  A    between atoms: O_3  and  C_12
    7  A    between atoms: C_14  and  C_22
    8  A    between atoms: C_19  and  O_37
                            x       y       z     vdW  Elec       q    Type
                         _______ _______ _______ _____ _____    ______ ____

>  <TORSDO>
F 8

$$$$
=
 OpenBabel10272414333D

 43 48  0  0  1  0  0  0  0  0999 V2000
  191.1580  176.7490  146.8070 C   0  0  0  0  0  0  0  0  0  0  0  0
  187.3360  177.9680  143.6400 C   0  0  0  0  0  0  0  0  0  0  0  0
  188.3620  177.9350  141.0200 C   0  0  0  0  0  0  0  0  0  0  0  0
  189.0750  177.5820  145.8860 C   0  0  0  0  0  0  0  0  0  0  0  0
  191.6340  176.4990  145.4270 C   0  0  0  0  0  3  0  0  0  0  0  0
  191.9730  176.4280  147.8830 O   0  0  0  0  0  1  0  0  0  0  0  0
  189.7420  177.8240  144.5490 C   0  0  1  0  0  3  0  0  0  0  0  0
  189.9310  177.2330  147.0280 C   0  0  0  0  0  3  0  0  0  0  0  0
  190.9540  176.9490  144.3660 C   0  0  0  0  0  3  0  0  0  0  0  0
  189.2260  177.8050  142.1650 N   0  0  0  0  0  0  0  0  0  0  0  0
  188.7840  177.7980  143.3900 C   0  0  0  0  0  0  0  0  0  0  0  0
  186.8610  177.9360  144.8950 C   0  0  0  0  0  3  0  0  0  0  0  0
  186.4700  178.1260  142.5020 N   0  0  0  0  0  0  0  0  0  0  0  0
  187.0420  178.0930  141.1840 C   0  0  0  0  0  3  0  0  0  0  0  0
  187.7530  177.6990  146.0450 C   0  0  0  0  0  3  0  0  0  0  0  0
  188.9300  177.8750  139.6360 C   0  0  2  0  0  3  0  0  0  0  0  0
  187.8940  178.3550  138.6370 C   0  0  0  0  0  1  0  0  0  0  0  0
  189.3150  176.5070  139.2990 N   0  0  0  0  0  2  0  0  0  0  0  0
  190.3780  176.1840  138.3970 C   0  0  0  0  0  0  0  0  0  0  0  0
  190.9230  177.0850  137.7030 O   0  0  0  0  0  0  0  0  0  0  0  0
  190.8150  174.8650  138.2740 O   0  0  0  0  0  0  0  0  0  0  0  0
  190.5210  174.0950  137.1160 C   0  0  2  0  0  3  0  0  0  0  0  0
  189.4700  174.5090  134.9540 C   0  0  0  0  0  2  0  0  0  0  0  0
  191.6080  174.2700  136.0790 C   0  0  0  0  0  2  0  0  0  0  0  0
  189.2460  174.5880  136.4580 C   0  0  1  0  0  3  0  0  0  0  0  0
  190.9160  174.0880  134.7450 C   0  0  0  0  0  2  0  0  0  0  0  0
  186.7710  174.3360  136.9950 N   0  0  0  0  0  0  0  0  0  0  0  0
  188.0690  173.7460  136.8560 C   0  0  0  0  0  0  0  0  0  0  0  0
  184.6550  174.6500  137.3330 C   0  0  0  0  0  0  0  0  0  0  0  0
  185.1410  175.8620  137.0130 N   0  0  0  0  0  0  0  0  0  0  0  0
  183.2840  174.4040  137.6210 N   0  0  0  0  0  1  0  0  0  0  0  0
  186.4560  175.6360  136.8120 C   0  0  0  0  0  3  0  0  0  0  0  0
  185.6410  173.6910  137.3280 C   0  0  0  0  0  3  0  0  0  0  0  0
  188.2150  172.5040  137.0320 O   0  0  0  0  0  0  0  0  0  0  0  0
  185.0220  178.2480  142.6390 C   0  0  0  0  0  2  0  0  0  0  0  0
  182.8490  177.3990  139.6440 C   0  0  0  0  0  3  0  0  0  0  0  0
  183.1580  178.4430  138.7660 C   0  0  0  0  0  0  0  0  0  0  0  0
  184.6900  179.3590  140.4200 C   0  0  0  0  0  3  0  0  0  0  0  0
  183.4540  177.3340  140.9040 C   0  0  0  0  0  3  0  0  0  0  0  0
  184.3710  178.3170  141.2950 C   0  0  0  0  0  0  0  0  0  0  0  0
  184.0850  179.4240  139.1600 C   0  0  0  0  0  3  0  0  0  0  0  0
  181.4620  179.3740  137.2230 C   0  0  0  0  0  1  0  0  0  0  0  0
  182.5290  178.4820  137.5170 O   0  0  0  0  0  0  0  0  0  0  0  0
  1  8  2  0  0  0  0
  1  6  1  0  0  0  0
  2 12  2  0  0  0  0
  3 14  2  0  0  0  0
  3 10  1  0  0  0  0
  4 15  2  0  0  0  0
  4  8  1  0  0  0  0
  5  1  1  0  0  0  0
  7  9  1  6  0  0  0
  7  4  1  0  0  0  0
  9  5  2  0  0  0  0
 10 11  2  0  0  0  0
 11  2  1  0  0  0  0
 11  7  1  0  0  0  0
 12 15  1  0  0  0  0
 13 35  1  0  0  0  0
 13  2  1  0  0  0  0
 14 13  1  0  0  0  0
 16 17  1  6  0  0  0
 16  3  1  0  0  0  0
 18 16  1  0  0  0  0
 19 18  1  0  0  0  0
 20 19  2  0  0  0  0
 21 19  1  0  0  0  0
 22 21  1  1  0  0  0
 23 25  1  0  0  0  0
 24 22  1  0  0  0  0
 25 28  1  6  0  0  0
 25 22  1  0  0  0  0
 26 23  1  0  0  0  0
 26 24  1  0  0  0  0
 27 33  1  0  0  0  0
 28 27  1  0  0  0  0
 28 34  2  0  0  0  0
 29 31  1  0  0  0  0
 30 29  1  0  0  0  0
 32 27  1  0  0  0  0
 32 30  2  0  0  0  0
 33 29  2  0  0  0  0
 36 39  1  0  0  0  0
 37 41  1  0  0  0  0
 37 36  2  0  0  0  0
 38 40  1  0  0  0  0
 39 40  2  0  0  0  0
 40 35  1  0  0  0  0
 41 38  2  0  0  0  0
 42 43  1  0  0  0  0
 43 37  1  0  0  0  0
M  END
>  <MODEL>
3

>  <REMARK>
 VINA RESULT:      -9.1      2.785      5.609
  Name = 
  8 active torsions:
  status: ('A' for Active; 'I' for Inactive)
    1  A    between atoms: C_1  and  N_34
    2  A    between atoms: C_1  and  C_35
    3  A    between atoms: C_2  and  N_6
    4  A    between atoms: C_2  and  C_13
    5  A    between atoms: O_3  and  C_4
    6  A    between atoms: O_3  and  C_12
    7  A    between atoms: C_14  and  C_22
    8  A    between atoms: C_19  and  O_37
                            x       y       z     vdW  Elec       q    Type
                         _______ _______ _______ _____ _____    ______ ____

>  <TORSDO>
F 8

$$$$
=
 OpenBabel10272414333D

 43 48  0  0  1  0  0  0  0  0999 V2000
  191.0220  176.7740  146.5480 C   0  0  0  0  0  0  0  0  0  0  0  0
  188.9860  177.8650  141.9890 C   0  0  0  0  0  0  0  0  0  0  0  0
  186.2690  178.4730  142.3970 C   0  0  0  0  0  0  0  0  0  0  0  0
  190.6120  176.9470  144.1650 C   0  0  0  0  0  0  0  0  0  0  0  0
  189.6680  177.3220  146.7920 C   0  0  0  0  0  3  0  0  0  0  0  0
  191.8400  176.4610  147.6250 O   0  0  0  0  0  1  0  0  0  0  0  0
  189.1180  176.9840  144.4070 C   0  0  1  0  0  3  0  0  0  0  0  0
  191.4850  176.6250  145.3020 C   0  0  0  0  0  3  0  0  0  0  0  0
  188.7920  177.4750  145.7920 C   0  0  0  0  0  3  0  0  0  0  0  0
  187.0890  177.9520  143.4610 N   0  0  0  0  0  0  0  0  0  0  0  0
  188.3530  177.6770  143.3130 C   0  0  0  0  0  0  0  0  0  0  0  0
  190.2940  177.6110  141.8260 C   0  0  0  0  0  3  0  0  0  0  0  0
  188.1660  178.3580  140.9150 N   0  0  0  0  0  0  0  0  0  0  0  0
  186.7870  178.6630  141.1760 C   0  0  0  0  0  3  0  0  0  0  0  0
  191.1360  177.1760  142.9560 C   0  0  0  0  0  3  0  0  0  0  0  0
  184.8360  178.8260  142.6520 C   0  0  2  0  0  3  0  0  0  0  0  0
  184.5280  178.6720  144.1300 C   0  0  0  0  0  1  0  0  0  0  0  0
  183.9500  177.9520  141.8880 N   0  0  0  0  0  2  0  0  0  0  0  0
  182.6010  178.2920  141.5530 C   0  0  0  0  0  0  0  0  0  0  0  0
  182.0510  179.3050  142.0640 O   0  0  0  0  0  0  0  0  0  0  0  0
  181.8810  177.4970  140.6600 O   0  0  0  0  0  0  0  0  0  0  0  0
  181.5820  177.9480  139.3460 C   0  0  2  0  0  3  0  0  0  0  0  0
  182.7010  177.9030  137.1790 C   0  0  0  0  0  2  0  0  0  0  0  0
  180.9940  176.8240  138.5240 C   0  0  0  0  0  2  0  0  0  0  0  0
  182.8510  178.3610  138.6230 C   0  0  1  0  0  3  0  0  0  0  0  0
  181.4010  177.1200  137.0970 C   0  0  0  0  0  2  0  0  0  0  0  0
  182.0000  180.7360  138.2870 N   0  0  0  0  0  0  0  0  0  0  0  0
  183.0510  179.8470  138.6830 C   0  0  0  0  0  0  0  0  0  0  0  0
  180.8210  182.5010  137.8550 C   0  0  0  0  0  0  0  0  0  0  0  0
  180.0210  181.4640  137.5530 N   0  0  0  0  0  0  0  0  0  0  0  0
  180.4260  183.8610  137.7290 N   0  0  0  0  0  1  0  0  0  0  0  0
  180.7790  180.3830  137.8280 C   0  0  0  0  0  3  0  0  0  0  0  0
  182.0480  182.0780  138.3120 C   0  0  0  0  0  3  0  0  0  0  0  0
  184.1380  180.3180  139.1220 O   0  0  0  0  0  0  0  0  0  0  0  0
  188.7080  178.6270  139.5860 C   0  0  0  0  0  2  0  0  0  0  0  0
  188.2900  175.6330  137.2900 C   0  0  0  0  0  3  0  0  0  0  0  0
  187.0560  175.9060  136.6920 C   0  0  0  0  0  0  0  0  0  0  0  0
  186.9030  177.9630  137.9840 C   0  0  0  0  0  3  0  0  0  0  0  0
  188.8290  176.5170  138.2320 C   0  0  0  0  0  3  0  0  0  0  0  0
  188.1330  177.6790  138.5830 C   0  0  0  0  0  0  0  0  0  0  0  0
  186.3640  177.0790  137.0420 C   0  0  0  0  0  3  0  0  0  0  0  0
  185.9020  175.4080  134.5600 C   0  0  0  0  0  1  0  0  0  0  0  0
  186.5420  174.9970  135.7600 O   0  0  0  0  0  0  0  0  0  0  0  0
  1  5  1  0  0  0  0
  1  6  1  0  0  0  0
  2 11  1  0  0  0  0
  3 16  1  0  0  0  0
  3 10  1  0  0  0  0
  4  7  1  0  0  0  0
  4  8  1  0  0  0  0
  7  9  1  1  0  0  0
  8  1  2  0  0  0  0
  9  5  2  0  0  0  0
 11 10  2  0  0  0  0
 11  7  1  0  0  0  0
 12  2  2  0  0  0  0
 12 15  1  0  0  0  0
 13 14  1  0  0  0  0
 13  2  1  0  0  0  0
 14  3  2  0  0  0  0
 15  4  2  0  0  0  0
 16 17  1  1  0  0  0
 18 16  1  0  0  0  0
 19 18  1  0  0  0  0
 19 20  2  0  0  0  0
 21 19  1  0  0  0  0
 22 21  1  1  0  0  0
 23 25  1  0  0  0  0
 24 22  1  0  0  0  0
 25 28  1  6  0  0  0
 25 22  1  0  0  0  0
 26 23  1  0  0  0  0
 26 24  1  0  0  0  0
 27 33  1  0  0  0  0
 27 28  1  0  0  0  0
 28 34  2  0  0  0  0
 29 33  2  0  0  0  0
 30 32  2  0  0  0  0
 30 29  1  0  0  0  0
 31 29  1  0  0  0  0
 32 27  1  0  0  0  0
 35 13  1  0  0  0  0
 36 39  1  0  0  0  0
 37 41  1  0  0  0  0
 37 36  2  0  0  0  0
 38 40  1  0  0  0  0
 39 40  2  0  0  0  0
 40 35  1  0  0  0  0
 41 38  2  0  0  0  0
 42 43  1  0  0  0  0
 43 37  1  0  0  0  0
M  END
>  <MODEL>
4

>  <REMARK>
 VINA RESULT:      -9.0      2.877      8.185
  Name = 
  8 active torsions:
  status: ('A' for Active; 'I' for Inactive)
    1  A    between atoms: C_1  and  N_34
    2  A    between atoms: C_1  and  C_35
    3  A    between atoms: C_2  and  N_6
    4  A    between atoms: C_2  and  C_13
    5  A    between atoms: O_3  and  C_4
    6  A    between atoms: O_3  and  C_12
    7  A    between atoms: C_14  and  C_22
    8  A    between atoms: C_19  and  O_37
                            x       y       z     vdW  Elec       q    Type
                         _______ _______ _______ _____ _____    ______ ____

>  <TORSDO>
F 8

$$$$
=
 OpenBabel10272414333D

 43 48  0  0  1  0  0  0  0  0999 V2000
  181.1220  179.5370  140.3330 C   0  0  0  0  0  0  0  0  0  0  0  0
  184.6550  178.4690  143.8680 C   0  0  0  0  0  0  0  0  0  0  0  0
  187.0780  177.9770  142.5240 C   0  0  0  0  0  0  0  0  0  0  0  0
  182.2370  178.9040  142.3910 C   0  0  0  0  0  0  0  0  0  0  0  0
  182.4350  179.5160  139.6490 C   0  0  0  0  0  3  0  0  0  0  0  0
  179.9820  179.8810  139.6200 O   0  0  0  0  0  1  0  0  0  0  0  0
  183.4210  178.3780  141.6080 C   0  0  1  0  0  3  0  0  0  0  0  0
  181.0300  179.2780  141.6420 C   0  0  0  0  0  3  0  0  0  0  0  0
  183.5240  179.0280  140.2540 C   0  0  0  0  0  3  0  0  0  0  0  0
  185.8410  178.1370  141.8050 N   0  0  0  0  0  0  0  0  0  0  0  0
  184.7050  178.3830  142.3920 C   0  0  0  0  0  0  0  0  0  0  0  0
  183.4980  178.7490  144.4870 C   0  0  0  0  0  3  0  0  0  0  0  0
  185.8830  178.2830  144.5950 N   0  0  0  0  0  0  0  0  0  0  0  0
  187.0950  178.0430  143.8620 C   0  0  0  0  0  3  0  0  0  0  0  0
  182.2640  179.0100  143.7230 C   0  0  0  0  0  3  0  0  0  0  0  0
  188.3590  177.7550  141.7820 C   0  0  2  0  0  3  0  0  0  0  0  0
  189.5040  178.4090  142.5330 C   0  0  0  0  0  1  0  0  0  0  0  0
  188.2810  178.3300  140.4420 N   0  0  0  0  0  2  0  0  0  0  0  0
  188.7980  177.6850  139.2730 C   0  0  0  0  0  0  0  0  0  0  0  0
  189.5160  176.6540  139.3770 O   0  0  0  0  0  0  0  0  0  0  0  0
  188.5160  178.2000  138.0080 O   0  0  0  0  0  0  0  0  0  0  0  0
  188.3510  177.3470  136.8830 C   0  0  2  0  0  3  0  0  0  0  0  0
  186.9040  177.2920  134.9200 C   0  0  0  0  0  2  0  0  0  0  0  0
  189.1260  177.8800  135.7000 C   0  0  0  0  0  2  0  0  0  0  0  0
  186.8990  177.3220  136.4420 C   0  0  1  0  0  3  0  0  0  0  0  0
  188.3540  177.4230  134.4810 C   0  0  0  0  0  2  0  0  0  0  0  0
  184.7680  176.1460  137.1860 N   0  0  0  0  0  0  0  0  0  0  0  0
  186.1870  176.1190  136.9870 C   0  0  0  0  0  0  0  0  0  0  0  0
  182.7250  175.6100  137.6650 C   0  0  0  0  0  0  0  0  0  0  0  0
  182.6600  176.8800  137.2270 N   0  0  0  0  0  0  0  0  0  0  0  0
  181.5880  174.8610  138.0750 N   0  0  0  0  0  1  0  0  0  0  0  0
  183.9420  177.1850  136.9400 C   0  0  0  0  0  3  0  0  0  0  0  0
  184.0150  175.1340  137.6480 C   0  0  0  0  0  3  0  0  0  0  0  0
  186.8340  175.0640  137.2350 O   0  0  0  0  0  0  0  0  0  0  0  0
  185.9490  178.4000  146.0490 C   0  0  0  0  0  2  0  0  0  0  0  0
  188.9960  178.0370  148.2850 C   0  0  0  0  0  3  0  0  0  0  0  0
  189.8560  177.2930  147.4710 C   0  0  0  0  0  0  0  0  0  0  0  0
  188.1620  177.2760  145.7240 C   0  0  0  0  0  3  0  0  0  0  0  0
  187.7240  178.3980  147.8240 C   0  0  0  0  0  3  0  0  0  0  0  0
  187.3050  178.0130  146.5450 C   0  0  0  0  0  0  0  0  0  0  0  0
  189.4340  176.9150  146.1840 C   0  0  0  0  0  3  0  0  0  0  0  0
  191.9760  176.0280  147.2990 C   0  0  0  0  0  1  0  0  0  0  0  0
  191.1170  176.9430  147.9660 O   0  0  0  0  0  0  0  0  0  0  0  0
  1  8  2  0  0  0  0
  2 12  2  0  0  0  0
  2 13  1  0  0  0  0
  3 14  2  0  0  0  0
  4 15  2  0  0  0  0
  5  9  2  0  0  0  0
  5  1  1  0  0  0  0
  6  1  1  0  0  0  0
  7  9  1  6  0  0  0
  7  4  1  0  0  0  0
  7 11  1  0  0  0  0
  8  4  1  0  0  0  0
 10 11  2  0  0  0  0
 10  3  1  0  0  0  0
 11  2  1  0  0  0  0
 13 35  1  0  0  0  0
 14 13  1  0  0  0  0
 15 12  1  0  0  0  0
 16  3  1  0  0  0  0
 16 17  1  1  0  0  0
 18 16  1  0  0  0  0
 19 20  2  0  0  0  0
 19 18  1  0  0  0  0
 21 19  1  0  0  0  0
 22 21  1  1  0  0  0
 23 25  1  0  0  0  0
 24 22  1  0  0  0  0
 25 22  1  0  0  0  0
 25 28  1  1  0  0  0
 26 23  1  0  0  0  0
 26 24  1  0  0  0  0
 27 33  1  0  0  0  0
 28 27  1  0  0  0  0
 28 34  2  0  0  0  0
 29 31  1  0  0  0  0
 30 29  1  0  0  0  0
 32 27  1  0  0  0  0
 32 30  2  0  0  0  0
 33 29  2  0  0  0  0
 35 40  1  0  0  0  0
 37 43  1  0  0  0  0
 37 36  2  0  0  0  0
 38 41  2  0  0  0  0
 38 40  1  0  0  0  0
 39 36  1  0  0  0  0
 40 39  2  0  0  0  0
 41 37  1  0  0  0  0
 42 43  1  0  0  0  0
M  END
>  <MODEL>
5

>  <REMARK>
 VINA RESULT:      -8.9      2.743      8.176
  Name = 
  8 active torsions:
  status: ('A' for Active; 'I' for Inactive)
    1  A    between atoms: C_1  and  N_34
    2  A    between atoms: C_1  and  C_35
    3  A    between atoms: C_2  and  N_6
    4  A    between atoms: C_2  and  C_13
    5  A    between atoms: O_3  and  C_4
    6  A    between atoms: O_3  and  C_12
    7  A    between atoms: C_14  and  C_22
    8  A    between atoms: C_19  and  O_37
                            x       y       z     vdW  Elec       q    Type
                         _______ _______ _______ _____ _____    ______ ____

>  <TORSDO>
F 8

$$$$
=
 OpenBabel10272414333D

 43 48  0  0  1  0  0  0  0  0999 V2000
  191.1790  176.6190  146.8860 C   0  0  0  0  0  0  0  0  0  0  0  0
  187.3240  177.9000  143.7840 C   0  0  0  0  0  0  0  0  0  0  0  0
  188.3360  177.9720  141.1590 C   0  0  0  0  0  0  0  0  0  0  0  0
  189.0810  177.4570  146.0060 C   0  0  0  0  0  0  0  0  0  0  0  0
  191.6500  176.4230  145.4950 C   0  0  0  0  0  3  0  0  0  0  0  0
  192.0040  176.2710  147.9460 O   0  0  0  0  0  1  0  0  0  0  0  0
  189.7370  177.7550  144.6750 C   0  0  1  0  0  3  0  0  0  0  0  0
  189.9470  177.0800  147.1310 C   0  0  0  0  0  3  0  0  0  0  0  0
  190.9590  176.9020  144.4550 C   0  0  0  0  0  3  0  0  0  0  0  0
  189.2080  177.8130  142.2940 N   0  0  0  0  0  0  0  0  0  0  0  0
  188.7730  177.7570  143.5200 C   0  0  0  0  0  0  0  0  0  0  0  0
  186.8570  177.8180  145.0390 C   0  0  0  0  0  3  0  0  0  0  0  0
  186.4500  178.0870  142.6570 N   0  0  0  0  0  0  0  0  0  0  0  0
  187.0150  178.1080  141.3350 C   0  0  0  0  0  3  0  0  0  0  0  0
  187.7580  177.5520  146.1760 C   0  0  0  0  0  3  0  0  0  0  0  0
  188.8970  177.9680  139.7710 C   0  0  2  0  0  3  0  0  0  0  0  0
  187.7870  178.2370  138.7710 C   0  0  0  0  0  1  0  0  0  0  0  0
  189.5050  176.6760  139.4680 N   0  0  0  0  0  2  0  0  0  0  0  0
  190.2850  176.4240  138.2950 C   0  0  0  0  0  0  0  0  0  0  0  0
  190.3330  177.2740  137.3650 O   0  0  0  0  0  0  0  0  0  0  0  0
  190.9930  175.2290  138.1690 O   0  0  0  0  0  0  0  0  0  0  0  0
  191.3470  174.7110  136.8930 C   0  0  2  0  0  3  0  0  0  0  0  0
  192.3580  172.6560  136.0540 C   0  0  0  0  0  2  0  0  0  0  0  0
  190.2490  173.8170  136.3650 C   0  0  0  0  0  2  0  0  0  0  0  0
  192.5770  173.8280  137.0000 C   0  0  1  0  0  3  0  0  0  0  0  0
  190.9520  172.7980  135.4940 C   0  0  0  0  0  2  0  0  0  0  0  0
  195.0400  174.3690  137.3430 N   0  0  0  0  0  0  0  0  0  0  0  0
  193.8200  174.5800  136.6230 C   0  0  0  0  0  0  0  0  0  0  0  0
  197.0940  174.4540  138.0230 C   0  0  0  0  0  0  0  0  0  0  0  0
  196.4950  173.5640  138.8340 N   0  0  0  0  0  0  0  0  0  0  0  0
  198.4700  174.8000  138.1180 N   0  0  0  0  0  1  0  0  0  0  0  0
  195.2210  173.5350  138.3900 C   0  0  0  0  0  3  0  0  0  0  0  0
  196.2180  174.9640  137.0940 C   0  0  0  0  0  3  0  0  0  0  0  0
  193.8000  175.3750  135.6420 O   0  0  0  0  0  0  0  0  0  0  0  0
  185.0010  178.1860  142.8060 C   0  0  0  0  0  2  0  0  0  0  0  0
  184.0890  179.5290  139.3740 C   0  0  0  0  0  3  0  0  0  0  0  0
  183.1040  178.6230  138.9690 C   0  0  0  0  0  0  0  0  0  0  0  0
  183.3560  177.4320  141.0760 C   0  0  0  0  0  3  0  0  0  0  0  0
  184.7070  179.3890  140.6220 C   0  0  0  0  0  3  0  0  0  0  0  0
  184.3450  178.3370  141.4710 C   0  0  0  0  0  0  0  0  0  0  0  0
  182.7370  177.5720  139.8280 C   0  0  0  0  0  3  0  0  0  0  0  0
  182.3190  177.7100  136.8070 C   0  0  0  0  0  1  0  0  0  0  0  0
  182.5110  178.7890  137.7120 O   0  0  0  0  0  0  0  0  0  0  0  0
  1  8  2  0  0  0  0
  1  6  1  0  0  0  0
  2 12  2  0  0  0  0
  3 14  2  0  0  0  0
  3 10  1  0  0  0  0
  4 15  2  0  0  0  0
  4  8  1  0  0  0  0
  5  1  1  0  0  0  0
  7  9  1  6  0  0  0
  7  4  1  0  0  0  0
  9  5  2  0  0  0  0
 10 11  2  0  0  0  0
 11  2  1  0  0  0  0
 11  7  1  0  0  0  0
 12 15  1  0  0  0  0
 13 35  1  0  0  0  0
 13  2  1  0  0  0  0
 14 13  1  0  0  0  0
 16 17  1  6  0  0  0
 16  3  1  0  0  0  0
 18 16  1  0  0  0  0
 19 18  1  0  0  0  0
 20 19  2  0  0  0  0
 21 19  1  0  0  0  0
 22 25  1  0  0  0  0
 22 21  1  1  0  0  0
 23 25  1  0  0  0  0
 24 22  1  0  0  0  0
 25 28  1  6  0  0  0
 26 23  1  0  0  0  0
 26 24  1  0  0  0  0
 27 32  1  0  0  0  0
 28 27  1  0  0  0  0
 29 31  1  0  0  0  0
 29 30  1  0  0  0  0
 32 30  2  0  0  0  0
 33 27  1  0  0  0  0
 33 29  2  0  0  0  0
 34 28  2  0  0  0  0
 36 39  1  0  0  0  0
 37 36  2  0  0  0  0
 37 41  1  0  0  0  0
 38 40  1  0  0  0  0
 39 40  2  0  0  0  0
 40 35  1  0  0  0  0
 41 38  2  0  0  0  0
 42 43  1  0  0  0  0
 43 37  1  0  0  0  0
M  END
>  <MODEL>
6

>  <REMARK>
 VINA RESULT:      -8.8      3.538      5.498
  Name = 
  8 active torsions:
  status: ('A' for Active; 'I' for Inactive)
    1  A    between atoms: C_1  and  N_34
    2  A    between atoms: C_1  and  C_35
    3  A    between atoms: C_2  and  N_6
    4  A    between atoms: C_2  and  C_13
    5  A    between atoms: O_3  and  C_4
    6  A    between atoms: O_3  and  C_12
    7  A    between atoms: C_14  and  C_22
    8  A    between atoms: C_19  and  O_37
                            x       y       z     vdW  Elec       q    Type
                         _______ _______ _______ _____ _____    ______ ____

>  <TORSDO>
F 8

$$$$
=
 OpenBabel10272414333D

 43 48  0  0  1  0  0  0  0  0999 V2000
  183.9890  177.9950  137.7550 C   0  0  0  0  0  0  0  0  0  0  0  0
  188.7240  176.1080  137.3750 C   0  0  0  0  0  0  0  0  0  0  0  0
  190.2350  177.1770  139.4930 C   0  0  0  0  0  0  0  0  0  0  0  0
  186.0300  176.9820  136.9260 C   0  0  0  0  0  0  0  0  0  0  0  0
  184.7100  178.3640  138.9950 C   0  0  0  0  0  3  0  0  0  0  0  0
  182.6450  178.3160  137.6200 O   0  0  0  0  0  1  0  0  0  0  0  0
  186.8520  177.7990  137.9000 C   0  0  0  0  0  0  0  0  0  0  0  0
  184.6050  177.3100  136.7850 C   0  0  0  0  0  2  0  0  0  0  0  0
  186.0370  178.2270  139.0920 C   0  0  0  0  0  3  0  0  0  0  0  0
  188.9030  177.6460  139.2120 N   0  0  0  0  0  0  0  0  0  0  0  0
  188.1690  177.1620  138.2520 C   0  0  0  0  0  0  0  0  0  0  0  0
  187.9700  175.5800  136.3980 C   0  0  0  0  0  3  0  0  0  0  0  0
  190.0640  175.6550  137.6330 N   0  0  0  0  0  0  0  0  0  0  0  0
  190.7920  176.2260  138.7320 C   0  0  0  0  0  3  0  0  0  0  0  0
  186.5730  176.0030  136.1950 C   0  0  0  0  0  3  0  0  0  0  0  0
  191.0030  177.7370  140.6510 C   0  0  2  0  0  3  0  0  0  0  0  0
  192.4850  177.4790  140.4530 C   0  0  0  0  0  1  0  0  0  0  0  0
  190.5750  177.1120  141.8990 N   0  0  0  0  0  2  0  0  0  0  0  0
  190.2940  177.8460  143.0950 C   0  0  0  0  0  0  0  0  0  0  0  0
  190.5810  179.0700  143.1760 O   0  0  0  0  0  0  0  0  0  0  0  0
  189.7050  177.2050  144.1860 O   0  0  0  0  0  0  0  0  0  0  0  0
  190.0760  177.5280  145.5200 C   0  0  2  0  0  3  0  0  0  0  0  0
  190.0070  176.4010  147.6820 C   0  0  0  0  0  2  0  0  0  0  0  0
  191.4560  176.9930  145.8270 C   0  0  0  0  0  2  0  0  0  0  0  0
  189.1460  176.8520  146.5100 C   0  0  1  0  0  3  0  0  0  0  0  0
  191.4490  176.7080  147.3130 C   0  0  0  0  0  2  0  0  0  0  0  0
  186.8950  177.9950  146.1910 N   0  0  0  0  0  0  0  0  0  0  0  0
  188.0740  177.7920  146.9780 C   0  0  0  0  0  0  0  0  0  0  0  0
  184.9660  178.6660  145.4700 C   0  0  0  0  0  0  0  0  0  0  0  0
  185.4140  177.8170  144.5290 N   0  0  0  0  0  0  0  0  0  0  0  0
  183.7110  179.3300  145.3960 N   0  0  0  0  0  1  0  0  0  0  0  0
  186.6130  177.4190  145.0020 C   0  0  0  0  0  3  0  0  0  0  0  0
  185.8610  178.7920  146.5070 C   0  0  0  0  0  3  0  0  0  0  0  0
  188.1940  178.3790  148.0900 O   0  0  0  0  0  0  0  0  0  0  0  0
  190.6830  174.5830  136.8580 C   0  0  0  0  0  2  0  0  0  0  0  0
  194.4470  174.3400  137.2970 C   0  0  0  0  0  3  0  0  0  0  0  0
  194.9000  175.3090  136.3970 C   0  0  0  0  0  0  0  0  0  0  0  0
  192.5940  175.8080  135.7990 C   0  0  0  0  0  3  0  0  0  0  0  0
  193.0760  174.1020  137.4490 C   0  0  0  0  0  3  0  0  0  0  0  0
  192.1490  174.8320  136.6960 C   0  0  0  0  0  0  0  0  0  0  0  0
  193.9650  176.0460  135.6480 C   0  0  0  0  0  3  0  0  0  0  0  0
  197.2420  174.6250  136.8100 C   0  0  0  0  0  1  0  0  0  0  0  0
  196.2770  175.5160  136.2650 O   0  0  0  0  0  0  0  0  0  0  0  0
  1  5  2  0  0  0  0
  2 13  1  0  0  0  0
  2 11  1  0  0  0  0
  3 16  1  0  0  0  0
  4  7  1  0  0  0  0
  5  9  1  0  0  0  0
  6  1  1  0  0  0  0
  7 11  1  0  0  0  0
  7  9  2  0  0  0  0
  8  4  1  0  0  0  0
  8  1  1  0  0  0  0
 10  3  1  0  0  0  0
 11 10  2  0  0  0  0
 12  2  2  0  0  0  0
 13 14  1  0  0  0  0
 14  3  2  0  0  0  0
 15 12  1  0  0  0  0
 15  4  2  0  0  0  0
 16 17  1  6  0  0  0
 16 18  1  0  0  0  0
 18 19  1  0  0  0  0
 19 20  2  0  0  0  0
 19 21  1  0  0  0  0
 22 21  1  6  0  0  0
 22 24  1  0  0  0  0
 22 25  1  0  0  0  0
 24 26  1  0  0  0  0
 25 28  1  1  0  0  0
 25 23  1  0  0  0  0
 26 23  1  0  0  0  0
 27 33  1  0  0  0  0
 27 28  1  0  0  0  0
 28 34  2  0  0  0  0
 29 33  2  0  0  0  0
 30 32  2  0  0  0  0
 30 29  1  0  0  0  0
 31 29  1  0  0  0  0
 32 27  1  0  0  0  0
 35 13  1  0  0  0  0
 36 39  1  0  0  0  0
 37 36  2  0  0  0  0
 38 40  1  0  0  0  0
 40 35  1  0  0  0  0
 40 39  2  0  0  0  0
 41 38  2  0  0  0  0
 41 37  1  0  0  0  0
 43 37  1  0  0  0  0
 43 42  1  0  0  0  0
M  END
>  <MODEL>
7

>  <REMARK>
 VINA RESULT:      -8.8      3.219      9.457
  Name = 
  8 active torsions:
  status: ('A' for Active; 'I' for Inactive)
    1  A    between atoms: C_1  and  N_34
    2  A    between atoms: C_1  and  C_35
    3  A    between atoms: C_2  and  N_6
    4  A    between atoms: C_2  and  C_13
    5  A    between atoms: O_3  and  C_4
    6  A    between atoms: O_3  and  C_12
    7  A    between atoms: C_14  and  C_22
    8  A    between atoms: C_19  and  O_37
                            x       y       z     vdW  Elec       q    Type
                         _______ _______ _______ _____ _____    ______ ____

>  <TORSDO>
F 8

$$$$
=
 OpenBabel10272414333D

 43 48  0  0  1  0  0  0  0  0999 V2000
  181.9080  178.8230  141.4520 C   0  0  0  0  0  0  0  0  0  0  0  0
  185.6850  177.9820  138.1130 C   0  0  0  0  0  0  0  0  0  0  0  0
  188.1090  178.0380  139.5420 C   0  0  0  0  0  0  0  0  0  0  0  0
  183.2140  178.6190  139.4190 C   0  0  0  0  0  0  0  0  0  0  0  0
  183.1480  178.6160  142.2340 C   0  0  0  0  0  3  0  0  0  0  0  0
  180.7000  178.9980  142.1120 O   0  0  0  0  0  1  0  0  0  0  0  0
  184.4830  178.9400  140.1800 C   0  0  0  0  0  0  0  0  0  0  0  0
  181.9320  178.7930  140.1150 C   0  0  0  0  0  2  0  0  0  0  0  0
  184.3490  178.6150  141.6440 C   0  0  0  0  0  3  0  0  0  0  0  0
  186.8640  178.4140  140.1620 N   0  0  0  0  0  0  0  0  0  0  0  0
  185.7230  178.3820  139.5360 C   0  0  0  0  0  0  0  0  0  0  0  0
  184.5140  177.9190  137.4620 C   0  0  0  0  0  3  0  0  0  0  0  0
  186.9290  177.6320  137.4800 N   0  0  0  0  0  0  0  0  0  0  0  0
  188.1380  177.6680  138.2550 C   0  0  0  0  0  3  0  0  0  0  0  0
  183.2410  178.2090  138.1460 C   0  0  0  0  0  3  0  0  0  0  0  0
  189.3780  178.0400  140.3360 C   0  0  2  0  0  3  0  0  0  0  0  0
  190.4820  177.3740  139.5360 C   0  0  0  0  0  1  0  0  0  0  0  0
  189.1980  177.3150  141.5910 N   0  0  0  0  0  2  0  0  0  0  0  0
  189.9230  177.6130  142.7880 C   0  0  0  0  0  0  0  0  0  0  0  0
  190.8970  178.4130  142.7620 O   0  0  0  0  0  0  0  0  0  0  0  0
  189.5610  177.0100  143.9930 O   0  0  0  0  0  0  0  0  0  0  0  0
  190.0830  177.4680  145.2330 C   0  0  2  0  0  3  0  0  0  0  0  0
  190.3530  176.5400  147.4730 C   0  0  0  0  0  2  0  0  0  0  0  0
  191.5180  177.0190  145.3990 C   0  0  0  0  0  2  0  0  0  0  0  0
  189.3260  176.8470  146.3920 C   0  0  1  0  0  3  0  0  0  0  0  0
  191.7180  176.8700  146.8910 C   0  0  0  0  0  2  0  0  0  0  0  0
  187.0280  177.9280  146.2300 N   0  0  0  0  0  0  0  0  0  0  0  0
  188.2760  177.7810  146.9180 C   0  0  0  0  0  0  0  0  0  0  0  0
  185.0280  178.5290  145.6570 C   0  0  0  0  0  0  0  0  0  0  0  0
  185.4130  177.6540  144.7120 N   0  0  0  0  0  0  0  0  0  0  0  0
  183.7540  179.1620  145.6690 N   0  0  0  0  0  1  0  0  0  0  0  0
  186.6580  177.3010  145.0930 C   0  0  0  0  0  3  0  0  0  0  0  0
  186.0060  178.7140  146.6060 C   0  0  0  0  0  3  0  0  0  0  0  0
  188.4770  178.4130  147.9920 O   0  0  0  0  0  0  0  0  0  0  0  0
  186.9920  177.1730  136.0950 C   0  0  0  0  0  2  0  0  0  0  0  0
  188.7120  173.9110  135.1940 C   0  0  0  0  0  3  0  0  0  0  0  0
  187.9650  172.9850  135.9290 C   0  0  0  0  0  0  0  0  0  0  0  0
  186.5770  174.7980  136.7700 C   0  0  0  0  0  3  0  0  0  0  0  0
  188.3970  175.2740  135.2470 C   0  0  0  0  0  3  0  0  0  0  0  0
  187.3330  175.7190  136.0390 C   0  0  0  0  0  0  0  0  0  0  0  0
  186.8920  173.4350  136.7180 C   0  0  0  0  0  3  0  0  0  0  0  0
  187.4240  170.6360  135.3660 C   0  0  0  0  0  1  0  0  0  0  0  0
  188.3120  171.6310  135.8590 O   0  0  0  0  0  0  0  0  0  0  0  0
  1  6  1  0  0  0  0
  1  5  2  0  0  0  0
  2 11  1  0  0  0  0
  3 10  1  0  0  0  0
  3 16  1  0  0  0  0
  4  8  1  0  0  0  0
  4  7  1  0  0  0  0
  7  9  2  0  0  0  0
  8  1  1  0  0  0  0
  9  5  1  0  0  0  0
 11 10  2  0  0  0  0
 11  7  1  0  0  0  0
 12  2  2  0  0  0  0
 12 15  1  0  0  0  0
 13  2  1  0  0  0  0
 13 14  1  0  0  0  0
 14  3  2  0  0  0  0
 15  4  2  0  0  0  0
 16 17  1  6  0  0  0
 16 18  1  0  0  0  0
 18 19  1  0  0  0  0
 19 21  1  0  0  0  0
 20 19  2  0  0  0  0
 22 21  1  6  0  0  0
 22 24  1  0  0  0  0
 22 25  1  0  0  0  0
 24 26  1  0  0  0  0
 25 28  1  1  0  0  0
 25 23  1  0  0  0  0
 26 23  1  0  0  0  0
 27 33  1  0  0  0  0
 27 28  1  0  0  0  0
 28 34  2  0  0  0  0
 29 31  1  0  0  0  0
 29 33  2  0  0  0  0
 30 32  2  0  0  0  0
 30 29  1  0  0  0  0
 32 27  1  0  0  0  0
 35 13  1  0  0  0  0
 36 39  2  0  0  0  0
 36 37  1  0  0  0  0
 37 41  2  0  0  0  0
 39 40  1  0  0  0  0
 40 35  1  0  0  0  0
 40 38  2  0  0  0  0
 41 38  1  0  0  0  0
 42 43  1  0  0  0  0
 43 37  1  0  0  0  0
M  END
>  <MODEL>
8

>  <REMARK>
 VINA RESULT:      -8.8      3.053      7.275
  Name = 
  8 active torsions:
  status: ('A' for Active; 'I' for Inactive)
    1  A    between atoms: C_1  and  N_34
    2  A    between atoms: C_1  and  C_35
    3  A    between atoms: C_2  and  N_6
    4  A    between atoms: C_2  and  C_13
    5  A    between atoms: O_3  and  C_4
    6  A    between atoms: O_3  and  C_12
    7  A    between atoms: C_14  and  C_22
    8  A    between atoms: C_19  and  O_37
                            x       y       z     vdW  Elec       q    Type
                         _______ _______ _______ _____ _____    ______ ____

>  <TORSDO>
F 8

$$$$
=
 OpenBabel10272414333D

 43 48  0  0  1  0  0  0  0  0999 V2000
  184.6880  178.8390  145.2720 C   0  0  0  0  0  0  0  0  0  0  0  0
  182.3140  178.4300  140.7640 C   0  0  0  0  0  0  0  0  0  0  0  0
  184.2880  178.0370  138.7990 C   0  0  0  0  0  0  0  0  0  0  0  0
  183.0550  178.9570  143.4840 C   0  0  0  0  0  0  0  0  0  0  0  0
  185.6970  178.3960  144.2830 C   0  0  0  0  0  3  0  0  0  0  0  0
  185.0430  178.9590  146.6090 O   0  0  0  0  0  1  0  0  0  0  0  0
  184.1630  179.0350  142.4540 C   0  0  1  0  0  3  0  0  0  0  0  0
  183.4250  179.0740  144.9000 C   0  0  0  0  0  3  0  0  0  0  0  0
  185.4430  178.4330  142.9700 C   0  0  0  0  0  3  0  0  0  0  0  0
  184.6380  178.3650  140.1570 N   0  0  0  0  0  0  0  0  0  0  0  0
  183.7520  178.5350  141.0960 C   0  0  0  0  0  0  0  0  0  0  0  0
  181.3890  178.5760  141.7260 C   0  0  0  0  0  3  0  0  0  0  0  0
  181.9570  178.1310  139.4030 N   0  0  0  0  0  0  0  0  0  0  0  0
  183.0030  177.9300  138.4380 C   0  0  0  0  0  3  0  0  0  0  0  0
  181.7750  178.8090  143.1300 C   0  0  0  0  0  3  0  0  0  0  0  0
  185.3600  177.7950  137.7810 C   0  0  2  0  0  3  0  0  0  0  0  0
  185.1830  176.4170  137.1710 C   0  0  0  0  0  1  0  0  0  0  0  0
  186.6810  177.8740  138.4000 N   0  0  0  0  0  2  0  0  0  0  0  0
  187.7180  178.7470  137.9410 C   0  0  0  0  0  0  0  0  0  0  0  0
  187.5940  179.3680  136.8510 O   0  0  0  0  0  0  0  0  0  0  0  0
  188.8800  178.9090  138.6960 O   0  0  0  0  0  0  0  0  0  0  0  0
  190.0420  178.1310  138.4400 C   0  0  2  0  0  3  0  0  0  0  0  0
  190.6440  175.7730  138.6030 C   0  0  0  0  0  2  0  0  0  0  0  0
  189.9730  177.5210  137.0580 C   0  0  0  0  0  2  0  0  0  0  0  0
  190.1200  176.9590  139.4000 C   0  0  1  0  0  3  0  0  0  0  0  0
  190.7530  176.2280  137.1560 C   0  0  0  0  0  2  0  0  0  0  0  0
  190.5740  177.1020  141.9000 N   0  0  0  0  0  0  0  0  0  0  0  0
  191.0330  177.2610  140.5520 C   0  0  0  0  0  0  0  0  0  0  0  0
  190.4550  177.0370  144.0610 C   0  0  0  0  0  0  0  0  0  0  0  0
  189.2420  176.6480  143.6330 N   0  0  0  0  0  0  0  0  0  0  0  0
  190.8130  177.1210  145.4350 N   0  0  0  0  0  1  0  0  0  0  0  0
  189.3450  176.7010  142.2890 C   0  0  0  0  0  3  0  0  0  0  0  0
  191.2960  177.3220  143.0110 C   0  0  0  0  0  3  0  0  0  0  0  0
  192.2240  177.6190  140.3330 O   0  0  0  0  0  0  0  0  0  0  0  0
  180.5690  177.9540  138.9860 C   0  0  0  0  0  2  0  0  0  0  0  0
  180.2450  174.2720  138.1220 C   0  0  0  0  0  3  0  0  0  0  0  0
  180.1310  174.3170  136.7290 C   0  0  0  0  0  0  0  0  0  0  0  0
  180.3070  176.7430  136.8100 C   0  0  0  0  0  3  0  0  0  0  0  0
  180.3880  175.4540  138.8580 C   0  0  0  0  0  3  0  0  0  0  0  0
  180.4130  176.6900  138.2030 C   0  0  0  0  0  0  0  0  0  0  0  0
  180.1650  175.5610  136.0740 C   0  0  0  0  0  3  0  0  0  0  0  0
  180.2490  171.8480  136.6080 C   0  0  0  0  0  1  0  0  0  0  0  0
  179.9820  173.1170  136.0250 O   0  0  0  0  0  0  0  0  0  0  0  0
  1  6  1  0  0  0  0
  2 11  1  0  0  0  0
  2 12  2  0  0  0  0
  3 10  1  0  0  0  0
  4  8  1  0  0  0  0
  5  1  1  0  0  0  0
  7  9  1  1  0  0  0
  7  4  1  0  0  0  0
  8  1  2  0  0  0  0
  9  5  2  0  0  0  0
 10 11  2  0  0  0  0
 11  7  1  0  0  0  0
 12 15  1  0  0  0  0
 13  2  1  0  0  0  0
 14  3  2  0  0  0  0
 14 13  1  0  0  0  0
 15  4  2  0  0  0  0
 16 17  1  1  0  0  0
 16 18  1  0  0  0  0
 16  3  1  0  0  0  0
 19 18  1  0  0  0  0
 19 21  1  0  0  0  0
 20 19  2  0  0  0  0
 22 21  1  1  0  0  0
 22 25  1  0  0  0  0
 23 25  1  0  0  0  0
 24 26  1  0  0  0  0
 24 22  1  0  0  0  0
 25 28  1  1  0  0  0
 26 23  1  0  0  0  0
 27 32  1  0  0  0  0
 27 33  1  0  0  0  0
 28 27  1  0  0  0  0
 29 31  1  0  0  0  0
 30 29  1  0  0  0  0
 32 30  2  0  0  0  0
 33 29  2  0  0  0  0
 34 28  2  0  0  0  0
 35 13  1  0  0  0  0
 36 39  1  0  0  0  0
 37 36  2  0  0  0  0
 38 40  1  0  0  0  0
 40 39  2  0  0  0  0
 40 35  1  0  0  0  0
 41 37  1  0  0  0  0
 41 38  2  0  0  0  0
 43 42  1  0  0  0  0
 43 37  1  0  0  0  0
M  END
>  <MODEL>
9

>  <REMARK>
 VINA RESULT:      -8.7      2.444      3.245
  Name = 
  8 active torsions:
  status: ('A' for Active; 'I' for Inactive)
    1  A    between atoms: C_1  and  N_34
    2  A    between atoms: C_1  and  C_35
    3  A    between atoms: C_2  and  N_6
    4  A    between atoms: C_2  and  C_13
    5  A    between atoms: O_3  and  C_4
    6  A    between atoms: O_3  and  C_12
    7  A    between atoms: C_14  and  C_22
    8  A    between atoms: C_19  and  O_37
                            x       y       z     vdW  Elec       q    Type
                         _______ _______ _______ _____ _____    ______ ____

>  <TORSDO>
F 8

$$$$
