=
 OpenBabel10272400083D

 34 38  0  0  1  0  0  0  0  0999 V2000
  189.5120  177.0600  146.4090 C   0  0  0  0  0  0  0  0  0  0  0  0
  191.2340  176.2330  144.7680 C   0  0  2  0  0  3  0  0  0  0  0  0
  189.0040  177.3560  144.0260 C   0  0  0  0  0  0  0  0  0  0  0  0
  188.3830  177.7840  141.6960 C   0  0  0  0  0  0  0  0  0  0  0  0
  190.4310  176.8510  147.4360 O   0  0  0  0  0  0  0  0  0  0  0  0
  192.0820  175.8890  146.0020 C   0  0  0  0  0  2  0  0  0  0  0  0
  190.6890  177.3150  142.1940 C   0  0  0  0  0  3  0  0  0  0  0  0
  189.9030  176.9240  145.0590 C   0  0  0  0  0  0  0  0  0  0  0  0
  190.9970  177.4280  140.8390 C   0  0  0  0  0  3  0  0  0  0  0  0
  188.7050  177.8810  140.3770 N   0  0  0  0  0  0  0  0  0  0  0  0
  191.8230  176.8330  147.1600 C   0  0  0  0  0  2  0  0  0  0  0  0
  187.6660  177.7010  144.3880 C   0  0  0  0  0  0  0  0  0  0  0  0
  188.2100  177.4120  146.7370 C   0  0  0  0  0  3  0  0  0  0  0  0
  190.9860  174.9230  144.0370 C   0  0  0  0  0  1  0  0  0  0  0  0
  187.1110  178.0310  142.0820 N   0  0  0  0  0  0  0  0  0  0  0  0
  186.7180  178.0230  143.3820 C   0  0  0  0  0  0  0  0  0  0  0  0
  189.9770  177.7080  139.9330 C   0  0  0  0  0  0  0  0  0  0  0  0
  189.3710  177.4640  142.6530 C   0  0  0  0  0  0  0  0  0  0  0  0
  187.2950  177.7000  145.7380 C   0  0  0  0  0  3  0  0  0  0  0  0
  183.0340  178.6990  142.8480 C   0  0  0  0  0  0  0  0  0  0  0  0
  182.6400  179.0640  144.1360 C   0  0  0  0  0  3  0  0  0  0  0  0
  185.2950  178.3580  143.6620 C   0  0  0  0  0  0  0  0  0  0  0  0
  183.5510  179.0820  145.1450 N   0  0  0  0  0  0  0  0  0  0  0  0
  184.3640  178.3520  142.6140 C   0  0  0  0  0  3  0  0  0  0  0  0
  184.8520  178.7470  144.9360 C   0  0  0  0  0  3  0  0  0  0  0  0
  182.0480  178.6850  141.7380 C   0  0  0  0  0  1  0  0  0  0  0  0
  190.2780  177.8020  138.4800 C   0  0  0  0  0  2  0  0  0  0  0  0
  189.0640  177.3770  137.6720 C   0  0  0  0  0  2  0  0  0  0  0  0
  188.9430  179.7510  137.4030 O   0  0  0  0  0  1  0  0  0  0  0  0
  188.5450  178.5380  136.8400 C   0  0  2  0  0  3  0  0  0  0  0  0
  187.0230  178.4980  136.6330 C   0  0  0  0  0  2  0  0  0  0  0  0
  185.8260  178.7940  138.7140 O   0  0  0  0  0  1  0  0  0  0  0  0
  186.2160  177.8510  137.7640 C   0  0  0  0  0  3  0  0  0  0  0  0
  185.0970  177.1800  137.2680 O   0  0  0  0  0  1  0  0  0  0  0  0
  1 13  1  0  0  0  0
  1  5  1  0  0  0  0
  2 14  1  1  0  0  0
  2  8  1  0  0  0  0
  2  6  1  0  0  0  0
  3 12  2  0  0  0  0
  3  8  1  0  0  0  0
  4 15  1  0  0  0  0
  4 18  1  0  0  0  0
  6 11  1  0  0  0  0
  7 18  2  0  0  0  0
  8  1  2  0  0  0  0
  9  7  1  0  0  0  0
 10  4  2  0  0  0  0
 11  5  1  0  0  0  0
 12 19  1  0  0  0  0
 15 16  2  0  0  0  0
 16 22  1  0  0  0  0
 16 12  1  0  0  0  0
 17 10  1  0  0  0  0
 17  9  2  0  0  0  0
 18  3  1  0  0  0  0
 19 13  2  0  0  0  0
 20 21  1  0  0  0  0
 21 23  2  0  0  0  0
 22 25  2  0  0  0  0
 24 20  2  0  0  0  0
 24 22  1  0  0  0  0
 25 23  1  0  0  0  0
 26 20  1  0  0  0  0
 27 17  1  0  0  0  0
 28 27  1  0  0  0  0
 30 29  1  1  0  0  0
 30 28  1  0  0  0  0
 31 30  1  0  0  0  0
 31 33  1  0  0  0  0
 33 32  1  0  0  0  0
 34 33  1  0  0  0  0
M  END
>  <MODEL>
1

>  <REMARK>
 VINA RESULT:     -10.0      0.000      0.000
  Name = 
  6 active torsions:
  status: ('A' for Active; 'I' for Inactive)
    1  A    between atoms: C_3  and  C_13
    2  A    between atoms: C_3  and  C_29
    3  A    between atoms: C_12  and  C_28
    4  A    between atoms: C_13  and  C_33
    5  A    between atoms: C_20  and  C_22
    6  A    between atoms: C_22  and  C_33
                            x       y       z     vdW  Elec       q    Type
                         _______ _______ _______ _____ _____    ______ ____

>  <TORSDO>
F 6

$$$$
=
 OpenBabel10272400083D

 34 38  0  0  1  0  0  0  0  0999 V2000
  189.1150  177.1570  145.7700 C   0  0  0  0  0  0  0  0  0  0  0  0
  190.7140  176.5000  143.9400 C   0  0  2  0  0  3  0  0  0  0  0  0
  188.4100  177.6160  143.4640 C   0  0  0  0  0  0  0  0  0  0  0  0
  187.5930  178.1990  141.2300 C   0  0  0  0  0  0  0  0  0  0  0  0
  190.1190  176.8960  146.7030 O   0  0  0  0  0  0  0  0  0  0  0  0
  191.6670  176.0880  145.0730 C   0  0  0  0  0  2  0  0  0  0  0  0
  189.9410  177.7550  141.5060 C   0  0  0  0  0  3  0  0  0  0  0  0
  189.3980  177.1320  144.3870 C   0  0  0  0  0  0  0  0  0  0  0  0
  190.1350  177.9760  140.1450 C   0  0  0  0  0  3  0  0  0  0  0  0
  187.8050  178.4020  139.9020 N   0  0  0  0  0  0  0  0  0  0  0  0
  191.4840  176.9360  146.3160 C   0  0  0  0  0  2  0  0  0  0  0  0
  187.0980  177.8980  143.9570 C   0  0  0  0  0  0  0  0  0  0  0  0
  187.8370  177.4490  146.2270 C   0  0  0  0  0  3  0  0  0  0  0  0
  190.4340  175.2410  143.1340 C   0  0  0  0  0  1  0  0  0  0  0  0
  186.3520  178.3830  141.7340 N   0  0  0  0  0  0  0  0  0  0  0  0
  186.0660  178.2680  143.0570 C   0  0  0  0  0  0  0  0  0  0  0  0
  189.0390  178.2960  139.3460 C   0  0  0  0  0  0  0  0  0  0  0  0
  188.6610  177.8350  142.0790 C   0  0  0  0  0  0  0  0  0  0  0  0
  186.8380  177.7870  145.3280 C   0  0  0  0  0  3  0  0  0  0  0  0
  182.3270  178.8250  142.8770 C   0  0  0  0  0  0  0  0  0  0  0  0
  182.0410  179.1410  144.2060 C   0  0  0  0  0  3  0  0  0  0  0  0
  184.6630  178.5440  143.4730 C   0  0  0  0  0  0  0  0  0  0  0  0
  183.0380  179.1660  145.1280 N   0  0  0  0  0  0  0  0  0  0  0  0
  183.6420  178.5330  142.5140 C   0  0  0  0  0  3  0  0  0  0  0  0
  184.3260  178.8830  144.7930 C   0  0  0  0  0  3  0  0  0  0  0  0
  181.2450  178.8040  141.8600 C   0  0  0  0  0  1  0  0  0  0  0  0
  189.2190  178.5050  137.8850 C   0  0  0  0  0  2  0  0  0  0  0  0
  188.7040  177.2970  137.1220 C   0  0  0  0  0  2  0  0  0  0  0  0
  188.9100  176.9610  134.7630 O   0  0  0  0  0  1  0  0  0  0  0  0
  189.6260  176.9680  135.9600 C   0  0  2  0  0  3  0  0  0  0  0  0
  190.3900  175.6480  136.1530 C   0  0  0  0  0  2  0  0  0  0  0  0
  189.9940  173.5790  137.3420 O   0  0  0  0  0  1  0  0  0  0  0  0
  190.1840  174.9520  137.5020 C   0  0  0  0  0  3  0  0  0  0  0  0
  191.2550  175.1900  138.3640 O   0  0  0  0  0  1  0  0  0  0  0  0
  1 13  1  0  0  0  0
  1  5  1  0  0  0  0
  2 14  1  1  0  0  0
  2  8  1  0  0  0  0
  2  6  1  0  0  0  0
  3 12  2  0  0  0  0
  3  8  1  0  0  0  0
  4 15  1  0  0  0  0
  4 18  1  0  0  0  0
  6 11  1  0  0  0  0
  7 18  2  0  0  0  0
  8  1  2  0  0  0  0
  9  7  1  0  0  0  0
 10  4  2  0  0  0  0
 11  5  1  0  0  0  0
 12 19  1  0  0  0  0
 15 16  2  0  0  0  0
 16 22  1  0  0  0  0
 16 12  1  0  0  0  0
 17 10  1  0  0  0  0
 17  9  2  0  0  0  0
 18  3  1  0  0  0  0
 19 13  2  0  0  0  0
 20 21  1  0  0  0  0
 21 23  2  0  0  0  0
 22 25  2  0  0  0  0
 24 20  2  0  0  0  0
 24 22  1  0  0  0  0
 25 23  1  0  0  0  0
 26 20  1  0  0  0  0
 27 17  1  0  0  0  0
 28 27  1  0  0  0  0
 30 29  1  6  0  0  0
 30 31  1  0  0  0  0
 30 28  1  0  0  0  0
 31 33  1  0  0  0  0
 32 33  1  0  0  0  0
 33 34  1  0  0  0  0
M  END
>  <MODEL>
2

>  <REMARK>
 VINA RESULT:      -9.9      1.840      2.271
  Name = 
  6 active torsions:
  status: ('A' for Active; 'I' for Inactive)
    1  A    between atoms: C_3  and  C_13
    2  A    between atoms: C_3  and  C_29
    3  A    between atoms: C_12  and  C_28
    4  A    between atoms: C_13  and  C_33
    5  A    between atoms: C_20  and  C_22
    6  A    between atoms: C_22  and  C_33
                            x       y       z     vdW  Elec       q    Type
                         _______ _______ _______ _____ _____    ______ ____

>  <TORSDO>
F 6

$$$$
=
 OpenBabel10272400083D

 34 38  0  0  1  0  0  0  0  0999 V2000
  188.7710  177.3170  146.3060 C   0  0  0  0  0  0  0  0  0  0  0  0
  186.6550  178.3670  147.1780 C   0  0  2  0  0  3  0  0  0  0  0  0
  187.0620  177.9100  144.6470 C   0  0  0  0  0  0  0  0  0  0  0  0
  185.4340  178.3800  142.8790 C   0  0  0  0  0  0  0  0  0  0  0  0
  189.1370  177.0300  147.6210 O   0  0  0  0  0  0  0  0  0  0  0  0
  187.2540  178.1480  148.5760 C   0  0  0  0  0  2  0  0  0  0  0  0
  184.6560  178.2980  145.1540 C   0  0  0  0  0  3  0  0  0  0  0  0
  187.4880  177.8310  146.0160 C   0  0  0  0  0  0  0  0  0  0  0  0
  183.3670  178.5950  144.7170 C   0  0  0  0  0  3  0  0  0  0  0  0
  184.1690  178.6770  142.4760 N   0  0  0  0  0  0  0  0  0  0  0  0
  188.1480  176.9250  148.6340 C   0  0  0  0  0  2  0  0  0  0  0  0
  188.0260  177.6740  143.6190 C   0  0  0  0  0  0  0  0  0  0  0  0
  189.6860  177.0800  145.2900 C   0  0  0  0  0  3  0  0  0  0  0  0
  186.4590  179.8670  147.0240 C   0  0  0  0  0  1  0  0  0  0  0  0
  186.4000  178.2170  141.9480 N   0  0  0  0  0  0  0  0  0  0  0  0
  187.6720  177.8530  142.2570 C   0  0  0  0  0  0  0  0  0  0  0  0
  183.1410  178.7900  143.3570 C   0  0  0  0  0  0  0  0  0  0  0  0
  185.7260  178.2090  144.2500 C   0  0  0  0  0  0  0  0  0  0  0  0
  189.3250  177.2840  143.9680 C   0  0  0  0  0  3  0  0  0  0  0  0
  189.2910  178.2160  138.8560 C   0  0  0  0  0  0  0  0  0  0  0  0
  190.3200  177.2780  138.9500 C   0  0  0  0  0  3  0  0  0  0  0  0
  188.6170  177.6670  141.1230 C   0  0  0  0  0  0  0  0  0  0  0  0
  190.4800  176.5570  140.0910 N   0  0  0  0  0  0  0  0  0  0  0  0
  188.4370  178.4030  139.9440 C   0  0  0  0  0  3  0  0  0  0  0  0
  189.6580  176.7260  141.1610 C   0  0  0  0  0  3  0  0  0  0  0  0
  189.1020  179.0020  137.6110 C   0  0  0  0  0  1  0  0  0  0  0  0
  181.7790  179.1390  142.8710 C   0  0  0  0  0  2  0  0  0  0  0  0
  181.5100  178.4490  141.5450 C   0  0  0  0  0  2  0  0  0  0  0  0
  180.0040  179.6850  140.1570 O   0  0  0  0  0  1  0  0  0  0  0  0
  181.3550  179.4750  140.4340 C   0  0  2  0  0  3  0  0  0  0  0  0
  182.1280  179.1010  139.1590 C   0  0  0  0  0  2  0  0  0  0  0  0
  182.7610  181.4130  138.8340 O   0  0  0  0  0  1  0  0  0  0  0  0
  183.2080  180.0960  138.7210 C   0  0  0  0  0  3  0  0  0  0  0  0
  184.3820  179.9240  139.4550 O   0  0  0  0  0  1  0  0  0  0  0  0
  1  5  1  0  0  0  0
  2 14  1  6  0  0  0
  2  6  1  0  0  0  0
  3  8  2  0  0  0  0
  4 18  1  0  0  0  0
  5 11  1  0  0  0  0
  6 11  1  0  0  0  0
  8  1  1  0  0  0  0
  8  2  1  0  0  0  0
  9  7  1  0  0  0  0
 10  4  2  0  0  0  0
 10 17  1  0  0  0  0
 12 19  2  0  0  0  0
 12  3  1  0  0  0  0
 13  1  2  0  0  0  0
 15 16  2  0  0  0  0
 15  4  1  0  0  0  0
 16 12  1  0  0  0  0
 17  9  2  0  0  0  0
 18  3  1  0  0  0  0
 18  7  2  0  0  0  0
 19 13  1  0  0  0  0
 20 21  2  0  0  0  0
 20 24  1  0  0  0  0
 21 23  1  0  0  0  0
 22 25  1  0  0  0  0
 22 16  1  0  0  0  0
 23 25  2  0  0  0  0
 24 22  2  0  0  0  0
 26 20  1  0  0  0  0
 27 17  1  0  0  0  0
 28 27  1  0  0  0  0
 30 29  1  6  0  0  0
 30 28  1  0  0  0  0
 31 30  1  0  0  0  0
 33 32  1  0  0  0  0
 33 31  1  0  0  0  0
 33 34  1  0  0  0  0
M  END
>  <MODEL>
3

>  <REMARK>
 VINA RESULT:      -9.6      1.947      5.859
  Name = 
  6 active torsions:
  status: ('A' for Active; 'I' for Inactive)
    1  A    between atoms: C_3  and  C_13
    2  A    between atoms: C_3  and  C_29
    3  A    between atoms: C_12  and  C_28
    4  A    between atoms: C_13  and  C_33
    5  A    between atoms: C_20  and  C_22
    6  A    between atoms: C_22  and  C_33
                            x       y       z     vdW  Elec       q    Type
                         _______ _______ _______ _____ _____    ______ ____

>  <TORSDO>
F 6

$$$$
=
 OpenBabel10272400083D

 34 38  0  0  1  0  0  0  0  0999 V2000
  184.5020  178.7760  144.7710 C   0  0  0  0  0  0  0  0  0  0  0  0
  186.8610  177.8980  144.6970 C   0  0  2  0  0  3  0  0  0  0  0  0
  185.5260  178.5340  142.5530 C   0  0  0  0  0  0  0  0  0  0  0  0
  186.4270  178.4140  140.2790 C   0  0  0  0  0  0  0  0  0  0  0  0
  184.6220  178.9000  146.1550 O   0  0  0  0  0  0  0  0  0  0  0  0
  186.7990  177.9200  146.2320 C   0  0  0  0  0  2  0  0  0  0  0  0
  187.9730  178.3760  142.1220 C   0  0  0  0  0  3  0  0  0  0  0  0
  185.6240  178.4390  143.9820 C   0  0  0  0  0  0  0  0  0  0  0  0
  189.0310  178.2680  141.2220 C   0  0  0  0  0  3  0  0  0  0  0  0
  187.4760  178.2990  139.4190 N   0  0  0  0  0  0  0  0  0  0  0  0
  185.9010  179.0240  146.7560 C   0  0  0  0  0  2  0  0  0  0  0  0
  184.2390  178.7520  141.9720 C   0  0  0  0  0  0  0  0  0  0  0  0
  183.2650  178.9990  144.1830 C   0  0  0  0  0  3  0  0  0  0  0  0
  187.0960  176.4500  144.2960 C   0  0  0  0  0  1  0  0  0  0  0  0
  185.1780  178.5500  139.7790 N   0  0  0  0  0  0  0  0  0  0  0  0
  184.0840  178.7380  140.5610 C   0  0  0  0  0  0  0  0  0  0  0  0
  188.7590  178.2230  139.8570 C   0  0  0  0  0  0  0  0  0  0  0  0
  186.6430  178.4250  141.6740 C   0  0  0  0  0  0  0  0  0  0  0  0
  183.1320  178.9590  142.8040 C   0  0  0  0  0  3  0  0  0  0  0  0
  181.3070  180.2970  138.5200 C   0  0  0  0  0  0  0  0  0  0  0  0
  180.3140  179.3240  138.6330 C   0  0  0  0  0  3  0  0  0  0  0  0
  182.7790  178.9180  139.8690 C   0  0  0  0  0  0  0  0  0  0  0  0
  180.5490  178.1930  139.3500 N   0  0  0  0  0  0  0  0  0  0  0  0
  182.5370  180.0930  139.1450 C   0  0  0  0  0  3  0  0  0  0  0  0
  181.7430  177.9770  139.9650 C   0  0  0  0  0  3  0  0  0  0  0  0
  181.0550  181.5400  137.7460 C   0  0  0  0  0  1  0  0  0  0  0  0
  189.8720  178.0760  138.8810 C   0  0  0  0  0  2  0  0  0  0  0  0
  190.6700  176.8230  139.1920 C   0  0  0  0  0  2  0  0  0  0  0  0
  189.8400  174.9780  137.9160 O   0  0  0  0  0  1  0  0  0  0  0  0
  190.8240  175.9660  137.9460 C   0  0  2  0  0  3  0  0  0  0  0  0
  192.2270  175.3530  137.8070 C   0  0  0  0  0  2  0  0  0  0  0  0
  194.4440  175.6260  138.7340 O   0  0  0  0  0  1  0  0  0  0  0  0
  193.3970  176.2970  138.1020 C   0  0  0  0  0  3  0  0  0  0  0  0
  193.8570  176.9140  136.9380 O   0  0  0  0  0  1  0  0  0  0  0  0
  1  5  1  0  0  0  0
  2 14  1  6  0  0  0
  2  6  1  0  0  0  0
  3  8  1  0  0  0  0
  4 18  1  0  0  0  0
  5 11  1  0  0  0  0
  6 11  1  0  0  0  0
  8  2  1  0  0  0  0
  8  1  2  0  0  0  0
  9  7  1  0  0  0  0
 10 17  1  0  0  0  0
 10  4  2  0  0  0  0
 12  3  2  0  0  0  0
 12 19  1  0  0  0  0
 13  1  1  0  0  0  0
 15  4  1  0  0  0  0
 15 16  2  0  0  0  0
 16 12  1  0  0  0  0
 17  9  2  0  0  0  0
 18  7  2  0  0  0  0
 18  3  1  0  0  0  0
 19 13  2  0  0  0  0
 20 21  2  0  0  0  0
 20 24  1  0  0  0  0
 21 23  1  0  0  0  0
 22 25  1  0  0  0  0
 22 16  1  0  0  0  0
 23 25  2  0  0  0  0
 24 22  2  0  0  0  0
 26 20  1  0  0  0  0
 27 28  1  0  0  0  0
 27 17  1  0  0  0  0
 30 29  1  1  0  0  0
 30 28  1  0  0  0  0
 31 30  1  0  0  0  0
 31 33  1  0  0  0  0
 33 32  1  0  0  0  0
 34 33  1  0  0  0  0
M  END
>  <MODEL>
4

>  <REMARK>
 VINA RESULT:      -9.4      3.101      5.017
  Name = 
  6 active torsions:
  status: ('A' for Active; 'I' for Inactive)
    1  A    between atoms: C_3  and  C_13
    2  A    between atoms: C_3  and  C_29
    3  A    between atoms: C_12  and  C_28
    4  A    between atoms: C_13  and  C_33
    5  A    between atoms: C_20  and  C_22
    6  A    between atoms: C_22  and  C_33
                            x       y       z     vdW  Elec       q    Type
                         _______ _______ _______ _____ _____    ______ ____

>  <TORSDO>
F 6

$$$$
=
 OpenBabel10272400083D

 34 38  0  0  1  0  0  0  0  0999 V2000
  191.1680  176.4060  144.9250 C   0  0  0  0  0  0  0  0  0  0  0  0
  189.6310  177.2900  146.7140 C   0  0  2  0  0  3  0  0  0  0  0  0
  188.9930  177.2740  144.1890 C   0  0  0  0  0  0  0  0  0  0  0  0
  186.8420  178.0400  143.3030 C   0  0  0  0  0  0  0  0  0  0  0  0
  191.9940  175.8980  145.9260 O   0  0  0  0  0  0  0  0  0  0  0  0
  190.7090  176.8340  147.7090 C   0  0  0  0  0  2  0  0  0  0  0  0
  187.0040  177.5680  145.6560 C   0  0  0  0  0  3  0  0  0  0  0  0
  189.9100  176.9620  145.2480 C   0  0  0  0  0  0  0  0  0  0  0  0
  185.6690  177.9350  145.8150 C   0  0  0  0  0  3  0  0  0  0  0  0
  185.5420  178.4010  143.4830 N   0  0  0  0  0  0  0  0  0  0  0  0
  191.4710  175.6200  147.2160 C   0  0  0  0  0  2  0  0  0  0  0  0
  189.4640  177.2180  142.8410 C   0  0  0  0  0  0  0  0  0  0  0  0
  191.5990  176.3470  143.6070 C   0  0  0  0  0  3  0  0  0  0  0  0
  189.4920  178.7940  146.8880 C   0  0  0  0  0  1  0  0  0  0  0  0
  187.3580  178.0390  142.0540 N   0  0  0  0  0  0  0  0  0  0  0  0
  188.6220  177.6280  141.7760 C   0  0  0  0  0  0  0  0  0  0  0  0
  184.9470  178.3610  144.7030 C   0  0  0  0  0  0  0  0  0  0  0  0
  187.6310  177.6360  144.4020 C   0  0  0  0  0  0  0  0  0  0  0  0
  190.7670  176.7740  142.5840 C   0  0  0  0  0  3  0  0  0  0  0  0
  190.4350  176.7460  138.5740 C   0  0  0  0  0  0  0  0  0  0  0  0
  189.9030  177.6920  137.6970 C   0  0  0  0  0  3  0  0  0  0  0  0
  189.0390  177.6400  140.3460 C   0  0  0  0  0  0  0  0  0  0  0  0
  188.9800  178.5850  138.1400 N   0  0  0  0  0  0  0  0  0  0  0  0
  190.0040  176.7270  139.9000 C   0  0  0  0  0  3  0  0  0  0  0  0
  188.5470  178.5810  139.4290 C   0  0  0  0  0  3  0  0  0  0  0  0
  191.4520  175.7720  138.1010 C   0  0  0  0  0  1  0  0  0  0  0  0
  183.5300  178.7880  144.8550 C   0  0  0  0  0  2  0  0  0  0  0  0
  183.0820  179.5430  143.6150 C   0  0  0  0  0  2  0  0  0  0  0  0
  181.0970  178.3670  144.2470 O   0  0  0  0  0  1  0  0  0  0  0  0
  181.6560  179.1640  143.2480 C   0  0  2  0  0  3  0  0  0  0  0  0
  181.5490  178.4830  141.8750 C   0  0  0  0  0  2  0  0  0  0  0  0
  183.3530  177.3700  140.7100 O   0  0  0  0  0  1  0  0  0  0  0  0
  182.7790  178.6140  140.9710 C   0  0  0  0  0  3  0  0  0  0  0  0
  182.4620  179.2550  139.7730 O   0  0  0  0  0  1  0  0  0  0  0  0
  1  8  1  0  0  0  0
  1  5  1  0  0  0  0
  2 14  1  6  0  0  0
  2  6  1  0  0  0  0
  3 18  1  0  0  0  0
  3  8  2  0  0  0  0
  4 10  2  0  0  0  0
  4 18  1  0  0  0  0
  5 11  1  0  0  0  0
  7  9  1  0  0  0  0
  8  2  1  0  0  0  0
 10 17  1  0  0  0  0
 11  6  1  0  0  0  0
 12  3  1  0  0  0  0
 13  1  2  0  0  0  0
 15  4  1  0  0  0  0
 16 15  2  0  0  0  0
 16 12  1  0  0  0  0
 17 27  1  0  0  0  0
 17  9  2  0  0  0  0
 18  7  2  0  0  0  0
 19 12  2  0  0  0  0
 19 13  1  0  0  0  0
 20 24  1  0  0  0  0
 21 23  1  0  0  0  0
 21 20  2  0  0  0  0
 22 16  1  0  0  0  0
 23 25  2  0  0  0  0
 24 22  2  0  0  0  0
 25 22  1  0  0  0  0
 26 20  1  0  0  0  0
 28 27  1  0  0  0  0
 30 28  1  0  0  0  0
 30 29  1  1  0  0  0
 31 30  1  0  0  0  0
 32 33  1  0  0  0  0
 33 31  1  0  0  0  0
 34 33  1  0  0  0  0
M  END
>  <MODEL>
5

>  <REMARK>
 VINA RESULT:      -9.2      2.003      5.972
  Name = 
  6 active torsions:
  status: ('A' for Active; 'I' for Inactive)
    1  A    between atoms: C_3  and  C_13
    2  A    between atoms: C_3  and  C_29
    3  A    between atoms: C_12  and  C_28
    4  A    between atoms: C_13  and  C_33
    5  A    between atoms: C_20  and  C_22
    6  A    between atoms: C_22  and  C_33
                            x       y       z     vdW  Elec       q    Type
                         _______ _______ _______ _____ _____    ______ ____

>  <TORSDO>
F 6

$$$$
=
 OpenBabel10272400083D

 34 38  0  0  1  0  0  0  0  0999 V2000
  181.6150  178.7150  141.5030 C   0  0  0  0  0  0  0  0  0  0  0  0
  182.4080  179.1920  139.1610 C   0  0  2  0  0  3  0  0  0  0  0  0
  184.0390  178.6680  141.1230 C   0  0  0  0  0  0  0  0  0  0  0  0
  186.4730  178.5180  140.8920 C   0  0  0  0  0  0  0  0  0  0  0  0
  180.3090  178.6480  141.0170 O   0  0  0  0  0  0  0  0  0  0  0  0
  180.9190  179.2620  138.7900 C   0  0  0  0  0  2  0  0  0  0  0  0
  185.1290  178.4010  138.9010 C   0  0  0  0  0  3  0  0  0  0  0  0
  182.7060  178.8220  140.6130 C   0  0  0  0  0  0  0  0  0  0  0  0
  186.2870  178.2880  138.1340 C   0  0  0  0  0  3  0  0  0  0  0  0
  187.5900  178.4140  140.1230 N   0  0  0  0  0  0  0  0  0  0  0  0
  180.0670  178.3500  139.6510 C   0  0  0  0  0  2  0  0  0  0  0  0
  184.2270  178.6320  142.5390 C   0  0  0  0  0  0  0  0  0  0  0  0
  181.8210  178.6650  142.8750 C   0  0  0  0  0  3  0  0  0  0  0  0
  182.9950  180.5590  138.8460 C   0  0  0  0  0  1  0  0  0  0  0  0
  186.6010  178.5600  142.2370 N   0  0  0  0  0  0  0  0  0  0  0  0
  185.5370  178.5950  143.0810 C   0  0  0  0  0  0  0  0  0  0  0  0
  187.5260  178.3030  138.7720 C   0  0  0  0  0  0  0  0  0  0  0  0
  185.1940  178.5460  140.2960 C   0  0  0  0  0  0  0  0  0  0  0  0
  183.1100  178.6520  143.3840 C   0  0  0  0  0  3  0  0  0  0  0  0
  187.2550  177.9050  146.3810 C   0  0  0  0  0  0  0  0  0  0  0  0
  186.3630  178.4970  147.2750 C   0  0  0  0  0  3  0  0  0  0  0  0
  185.8300  178.5930  144.5410 C   0  0  0  0  0  0  0  0  0  0  0  0
  185.2390  179.1050  146.8110 N   0  0  0  0  0  0  0  0  0  0  0  0
  186.9820  177.9500  145.0140 C   0  0  0  0  0  3  0  0  0  0  0  0
  184.9570  179.1600  145.4820 C   0  0  0  0  0  3  0  0  0  0  0  0
  188.4810  177.2300  146.8800 C   0  0  0  0  0  1  0  0  0  0  0  0
  188.7760  178.2140  137.9700 C   0  0  0  0  0  2  0  0  0  0  0  0
  189.5380  176.9530  138.3390 C   0  0  0  0  0  2  0  0  0  0  0  0
  191.8750  176.7910  138.8200 O   0  0  0  0  0  1  0  0  0  0  0  0
  190.6630  177.2760  139.3090 C   0  0  2  0  0  3  0  0  0  0  0  0
  190.3960  176.7610  140.7330 C   0  0  0  0  0  2  0  0  0  0  0  0
  189.9610  178.0320  142.7440 O   0  0  0  0  0  1  0  0  0  0  0  0
  190.9650  177.6200  141.8670 C   0  0  0  0  0  3  0  0  0  0  0  0
  191.9620  176.9400  142.5670 O   0  0  0  0  0  1  0  0  0  0  0  0
  1 13  1  0  0  0  0
  2 14  1  1  0  0  0
  2  8  1  0  0  0  0
  3 12  2  0  0  0  0
  4 15  1  0  0  0  0
  5  1  1  0  0  0  0
  6  2  1  0  0  0  0
  6 11  1  0  0  0  0
  7 18  2  0  0  0  0
  8  3  1  0  0  0  0
  8  1  2  0  0  0  0
  9 17  2  0  0  0  0
  9  7  1  0  0  0  0
 10  4  2  0  0  0  0
 11  5  1  0  0  0  0
 12 16  1  0  0  0  0
 12 19  1  0  0  0  0
 13 19  2  0  0  0  0
 15 16  2  0  0  0  0
 16 22  1  0  0  0  0
 17 10  1  0  0  0  0
 18  4  1  0  0  0  0
 18  3  1  0  0  0  0
 20 26  1  0  0  0  0
 20 21  1  0  0  0  0
 22 24  1  0  0  0  0
 22 25  2  0  0  0  0
 23 21  2  0  0  0  0
 24 20  2  0  0  0  0
 25 23  1  0  0  0  0
 27 28  1  0  0  0  0
 27 17  1  0  0  0  0
 28 30  1  0  0  0  0
 30 29  1  6  0  0  0
 30 31  1  0  0  0  0
 31 33  1  0  0  0  0
 33 34  1  0  0  0  0
 33 32  1  0  0  0  0
M  END
>  <MODEL>
6

>  <REMARK>
 VINA RESULT:      -9.0      2.473      6.736
  Name = 
  6 active torsions:
  status: ('A' for Active; 'I' for Inactive)
    1  A    between atoms: C_3  and  C_13
    2  A    between atoms: C_3  and  C_29
    3  A    between atoms: C_12  and  C_28
    4  A    between atoms: C_13  and  C_33
    5  A    between atoms: C_20  and  C_22
    6  A    between atoms: C_22  and  C_33
                            x       y       z     vdW  Elec       q    Type
                         _______ _______ _______ _____ _____    ______ ____

>  <TORSDO>
F 6

$$$$
=
 OpenBabel10272400083D

 34 38  0  0  1  0  0  0  0  0999 V2000
  187.1680  177.8790  145.0450 C   0  0  0  0  0  0  0  0  0  0  0  0
  189.2020  177.1410  143.7570 C   0  0  2  0  0  3  0  0  0  0  0  0
  187.0640  178.0750  142.6000 C   0  0  0  0  0  0  0  0  0  0  0  0
  186.8290  178.3960  140.1840 C   0  0  0  0  0  0  0  0  0  0  0  0
  187.9080  177.7650  146.2220 O   0  0  0  0  0  0  0  0  0  0  0  0
  189.8450  176.8930  145.1300 C   0  0  0  0  0  2  0  0  0  0  0  0
  189.0400  178.1130  141.0870 C   0  0  0  0  0  3  0  0  0  0  0  0
  187.7970  177.7380  143.7880 C   0  0  0  0  0  0  0  0  0  0  0  0
  189.5700  178.2130  139.8030 C   0  0  0  0  0  3  0  0  0  0  0  0
  187.3680  178.4830  138.9380 N   0  0  0  0  0  0  0  0  0  0  0  0
  189.3240  177.8440  146.1900 C   0  0  0  0  0  2  0  0  0  0  0  0
  185.6620  178.3290  142.7140 C   0  0  0  0  0  0  0  0  0  0  0  0
  185.8080  178.1410  145.1320 C   0  0  0  0  0  3  0  0  0  0  0  0
  189.1760  175.7980  143.0440 C   0  0  0  0  0  1  0  0  0  0  0  0
  185.4960  178.5570  140.3370 N   0  0  0  0  0  0  0  0  0  0  0  0
  184.8840  178.5530  141.5500 C   0  0  0  0  0  0  0  0  0  0  0  0
  188.7060  178.3940  138.7250 C   0  0  0  0  0  0  0  0  0  0  0  0
  187.6550  178.1750  141.3070 C   0  0  0  0  0  0  0  0  0  0  0  0
  185.0630  178.3350  143.9800 C   0  0  0  0  0  3  0  0  0  0  0  0
  181.3310  178.8780  142.8100 C   0  0  0  0  0  0  0  0  0  0  0  0
  180.6490  179.1380  141.6210 C   0  0  0  0  0  3  0  0  0  0  0  0
  183.4140  178.7880  141.5680 C   0  0  0  0  0  0  0  0  0  0  0  0
  181.3320  179.2100  140.4480 N   0  0  0  0  0  0  0  0  0  0  0  0
  182.7140  178.6970  142.7780 C   0  0  0  0  0  3  0  0  0  0  0  0
  182.6800  179.0380  140.3980 C   0  0  0  0  0  3  0  0  0  0  0  0
  180.5920  178.7890  144.0950 C   0  0  0  0  0  1  0  0  0  0  0  0
  189.2480  178.4730  137.3420 C   0  0  0  0  0  2  0  0  0  0  0  0
  189.4100  177.0750  136.7700 C   0  0  0  0  0  2  0  0  0  0  0  0
  187.7530  178.0380  135.3390 O   0  0  0  0  0  1  0  0  0  0  0  0
  188.5090  176.8870  135.5610 C   0  0  2  0  0  3  0  0  0  0  0  0
  187.6080  175.6470  135.6680 C   0  0  0  0  0  2  0  0  0  0  0  0
  185.6980  176.1160  137.0760 O   0  0  0  0  0  1  0  0  0  0  0  0
  186.9180  175.4430  137.0210 C   0  0  0  0  0  3  0  0  0  0  0  0
  186.7300  174.0870  137.2950 O   0  0  0  0  0  1  0  0  0  0  0  0
  1 13  1  0  0  0  0
  1  5  1  0  0  0  0
  2 14  1  1  0  0  0
  2  8  1  0  0  0  0
  2  6  1  0  0  0  0
  3 12  2  0  0  0  0
  3  8  1  0  0  0  0
  4 15  1  0  0  0  0
  4 18  1  0  0  0  0
  6 11  1  0  0  0  0
  7 18  2  0  0  0  0
  8  1  2  0  0  0  0
  9  7  1  0  0  0  0
 10  4  2  0  0  0  0
 11  5  1  0  0  0  0
 12 19  1  0  0  0  0
 15 16  2  0  0  0  0
 16 22  1  0  0  0  0
 16 12  1  0  0  0  0
 17 10  1  0  0  0  0
 17  9  2  0  0  0  0
 18  3  1  0  0  0  0
 19 13  2  0  0  0  0
 20 26  1  0  0  0  0
 21 20  2  0  0  0  0
 22 24  2  0  0  0  0
 23 21  1  0  0  0  0
 24 20  1  0  0  0  0
 25 23  2  0  0  0  0
 25 22  1  0  0  0  0
 27 17  1  0  0  0  0
 28 27  1  0  0  0  0
 30 29  1  1  0  0  0
 30 31  1  0  0  0  0
 30 28  1  0  0  0  0
 31 33  1  0  0  0  0
 33 32  1  0  0  0  0
 33 34  1  0  0  0  0
M  END
>  <MODEL>
7

>  <REMARK>
 VINA RESULT:      -8.9      1.924      2.760
  Name = 
  6 active torsions:
  status: ('A' for Active; 'I' for Inactive)
    1  A    between atoms: C_3  and  C_13
    2  A    between atoms: C_3  and  C_29
    3  A    between atoms: C_12  and  C_28
    4  A    between atoms: C_13  and  C_33
    5  A    between atoms: C_20  and  C_22
    6  A    between atoms: C_22  and  C_33
                            x       y       z     vdW  Elec       q    Type
                         _______ _______ _______ _____ _____    ______ ____

>  <TORSDO>
F 6

$$$$
=
 OpenBabel10272400083D

 34 38  0  0  1  0  0  0  0  0999 V2000
  184.4640  178.7310  145.0730 C   0  0  0  0  0  0  0  0  0  0  0  0
  186.8640  177.9910  144.8900 C   0  0  2  0  0  3  0  0  0  0  0  0
  185.3970  178.5430  142.8100 C   0  0  0  0  0  0  0  0  0  0  0  0
  186.1980  178.4700  140.4970 C   0  0  0  0  0  0  0  0  0  0  0  0
  184.6400  178.8650  146.4500 O   0  0  0  0  0  0  0  0  0  0  0  0
  186.8720  178.0140  146.4260 C   0  0  0  0  0  2  0  0  0  0  0  0
  187.8260  178.5280  142.2660 C   0  0  0  0  0  3  0  0  0  0  0  0
  185.5660  178.4580  144.2330 C   0  0  0  0  0  0  0  0  0  0  0  0
  188.8470  178.4790  141.3190 C   0  0  0  0  0  3  0  0  0  0  0  0
  187.2100  178.4150  139.5900 N   0  0  0  0  0  0  0  0  0  0  0  0
  185.9360  179.0650  146.9910 C   0  0  0  0  0  2  0  0  0  0  0  0
  184.0740  178.6850  142.2890 C   0  0  0  0  0  0  0  0  0  0  0  0
  183.1900  178.8810  144.5430 C   0  0  0  0  0  3  0  0  0  0  0  0
  187.1640  176.5590  144.4790 C   0  0  0  0  0  1  0  0  0  0  0  0
  184.9210  178.5330  140.0550 N   0  0  0  0  0  0  0  0  0  0  0  0
  183.8560  178.6590  140.8880 C   0  0  0  0  0  0  0  0  0  0  0  0
  188.5150  178.4150  139.9680 C   0  0  0  0  0  0  0  0  0  0  0  0
  186.4760  178.4980  141.8800 C   0  0  0  0  0  0  0  0  0  0  0  0
  182.9970  178.8300  143.1720 C   0  0  0  0  0  3  0  0  0  0  0  0
  181.0250  179.8550  138.6800 C   0  0  0  0  0  0  0  0  0  0  0  0
  179.9830  179.0350  139.1150 C   0  0  0  0  0  3  0  0  0  0  0  0
  182.5110  178.7610  140.2560 C   0  0  0  0  0  0  0  0  0  0  0  0
  180.2030  178.1200  140.0950 N   0  0  0  0  0  0  0  0  0  0  0  0
  182.2870  179.7180  139.2570 C   0  0  0  0  0  3  0  0  0  0  0  0
  181.4270  177.9720  140.6690 C   0  0  0  0  0  3  0  0  0  0  0  0
  180.7920  180.8650  137.6160 C   0  0  0  0  0  1  0  0  0  0  0  0
  189.5880  178.3300  138.9410 C   0  0  0  0  0  2  0  0  0  0  0  0
  190.2110  176.9450  138.9570 C   0  0  0  0  0  2  0  0  0  0  0  0
  191.8370  176.4270  137.2820 O   0  0  0  0  0  1  0  0  0  0  0  0
  190.4670  176.4610  137.5400 C   0  0  2  0  0  3  0  0  0  0  0  0
  189.7260  177.2880  136.4770 C   0  0  0  0  0  2  0  0  0  0  0  0
  187.3600  177.1000  136.0160 O   0  0  0  0  0  1  0  0  0  0  0  0
  188.6110  176.5570  135.7240 C   0  0  0  0  0  3  0  0  0  0  0  0
  188.8310  176.5770  134.3460 O   0  0  0  0  0  1  0  0  0  0  0  0
  1  5  1  0  0  0  0
  2 14  1  1  0  0  0
  2  6  1  0  0  0  0
  3  8  1  0  0  0  0
  4 18  1  0  0  0  0
  5 11  1  0  0  0  0
  6 11  1  0  0  0  0
  8  2  1  0  0  0  0
  8  1  2  0  0  0  0
  9  7  1  0  0  0  0
 10 17  1  0  0  0  0
 10  4  2  0  0  0  0
 12  3  2  0  0  0  0
 12 19  1  0  0  0  0
 13  1  1  0  0  0  0
 15  4  1  0  0  0  0
 15 16  2  0  0  0  0
 16 12  1  0  0  0  0
 17  9  2  0  0  0  0
 18  7  2  0  0  0  0
 18  3  1  0  0  0  0
 19 13  2  0  0  0  0
 20 21  2  0  0  0  0
 20 24  1  0  0  0  0
 21 23  1  0  0  0  0
 22 25  1  0  0  0  0
 22 16  1  0  0  0  0
 23 25  2  0  0  0  0
 24 22  2  0  0  0  0
 26 20  1  0  0  0  0
 27 28  1  0  0  0  0
 27 17  1  0  0  0  0
 30 29  1  6  0  0  0
 30 28  1  0  0  0  0
 31 30  1  0  0  0  0
 33 32  1  0  0  0  0
 33 31  1  0  0  0  0
 34 33  1  0  0  0  0
M  END
>  <MODEL>
8

>  <REMARK>
 VINA RESULT:      -8.8      2.768      4.297
  Name = 
  6 active torsions:
  status: ('A' for Active; 'I' for Inactive)
    1  A    between atoms: C_3  and  C_13
    2  A    between atoms: C_3  and  C_29
    3  A    between atoms: C_12  and  C_28
    4  A    between atoms: C_13  and  C_33
    5  A    between atoms: C_20  and  C_22
    6  A    between atoms: C_22  and  C_33
                            x       y       z     vdW  Elec       q    Type
                         _______ _______ _______ _____ _____    ______ ____

>  <TORSDO>
F 6

$$$$
=
 OpenBabel10272400083D

 34 38  0  0  1  0  0  0  0  0999 V2000
  181.6390  178.8220  141.5190 C   0  0  0  0  0  0  0  0  0  0  0  0
  182.4060  179.2850  139.1660 C   0  0  2  0  0  3  0  0  0  0  0  0
  184.0550  178.7060  141.0980 C   0  0  0  0  0  0  0  0  0  0  0  0
  186.4780  178.4850  140.8250 C   0  0  0  0  0  0  0  0  0  0  0  0
  180.3240  178.7960  141.0550 O   0  0  0  0  0  0  0  0  0  0  0  0
  180.9140  179.4010  138.8210 C   0  0  0  0  0  2  0  0  0  0  0  0
  185.0980  178.4160  138.8560 C   0  0  0  0  0  3  0  0  0  0  0  0
  182.7180  178.9000  140.6110 C   0  0  0  0  0  0  0  0  0  0  0  0
  186.2390  178.2710  138.0700 C   0  0  0  0  0  3  0  0  0  0  0  0
  187.5790  178.3510  140.0370 N   0  0  0  0  0  0  0  0  0  0  0  0
  180.0510  178.5100  139.6930 C   0  0  0  0  0  2  0  0  0  0  0  0
  184.2650  178.6580  142.5100 C   0  0  0  0  0  0  0  0  0  0  0  0
  181.8680  178.7610  142.8870 C   0  0  0  0  0  3  0  0  0  0  0  0
  183.0290  180.6350  138.8460 C   0  0  0  0  0  1  0  0  0  0  0  0
  186.6300  178.5180  142.1680 N   0  0  0  0  0  0  0  0  0  0  0  0
  185.5830  178.5810  143.0300 C   0  0  0  0  0  0  0  0  0  0  0  0
  187.4880  178.2470  138.6860 C   0  0  0  0  0  0  0  0  0  0  0  0
  185.1910  178.5530  140.2510 C   0  0  0  0  0  0  0  0  0  0  0  0
  183.1640  178.7080  143.3740 C   0  0  0  0  0  3  0  0  0  0  0  0
  187.3410  177.8370  146.2970 C   0  0  0  0  0  0  0  0  0  0  0  0
  186.4760  178.4420  147.2090 C   0  0  0  0  0  3  0  0  0  0  0  0
  185.9000  178.5640  144.4850 C   0  0  0  0  0  0  0  0  0  0  0  0
  185.3580  179.0760  146.7670 N   0  0  0  0  0  0  0  0  0  0  0  0
  187.0460  177.8950  144.9350 C   0  0  0  0  0  3  0  0  0  0  0  0
  185.0550  179.1440  145.4430 C   0  0  0  0  0  3  0  0  0  0  0  0
  188.5600  177.1340  146.7710 C   0  0  0  0  0  1  0  0  0  0  0  0
  188.7210  178.1250  137.8640 C   0  0  0  0  0  2  0  0  0  0  0  0
  189.5400  176.9350  138.3330 C   0  0  0  0  0  2  0  0  0  0  0  0
  190.5470  176.5890  136.1910 O   0  0  0  0  0  1  0  0  0  0  0  0
  190.8300  176.8280  137.5360 C   0  0  2  0  0  3  0  0  0  0  0  0
  191.7960  175.7710  138.0930 C   0  0  0  0  0  2  0  0  0  0  0  0
  193.6680  176.9130  137.0730 O   0  0  0  0  0  1  0  0  0  0  0  0
  193.2620  176.2030  138.2030 C   0  0  0  0  0  3  0  0  0  0  0  0
  193.4810  176.9660  139.3510 O   0  0  0  0  0  1  0  0  0  0  0  0
  1 13  1  0  0  0  0
  2 14  1  1  0  0  0
  2  8  1  0  0  0  0
  3 12  2  0  0  0  0
  4 15  1  0  0  0  0
  5  1  1  0  0  0  0
  6  2  1  0  0  0  0
  6 11  1  0  0  0  0
  7 18  2  0  0  0  0
  8  3  1  0  0  0  0
  8  1  2  0  0  0  0
  9 17  2  0  0  0  0
  9  7  1  0  0  0  0
 10  4  2  0  0  0  0
 11  5  1  0  0  0  0
 12 16  1  0  0  0  0
 12 19  1  0  0  0  0
 13 19  2  0  0  0  0
 15 16  2  0  0  0  0
 16 22  1  0  0  0  0
 17 10  1  0  0  0  0
 18  4  1  0  0  0  0
 18  3  1  0  0  0  0
 20 26  1  0  0  0  0
 20 21  1  0  0  0  0
 22 24  1  0  0  0  0
 22 25  2  0  0  0  0
 23 21  2  0  0  0  0
 24 20  2  0  0  0  0
 25 23  1  0  0  0  0
 27 28  1  0  0  0  0
 27 17  1  0  0  0  0
 30 29  1  6  0  0  0
 30 31  1  0  0  0  0
 30 28  1  0  0  0  0
 31 33  1  0  0  0  0
 32 33  1  0  0  0  0
 33 34  1  0  0  0  0
M  END
>  <MODEL>
9

>  <REMARK>
 VINA RESULT:      -8.8      2.889      6.829
  Name = 
  6 active torsions:
  status: ('A' for Active; 'I' for Inactive)
    1  A    between atoms: C_3  and  C_13
    2  A    between atoms: C_3  and  C_29
    3  A    between atoms: C_12  and  C_28
    4  A    between atoms: C_13  and  C_33
    5  A    between atoms: C_20  and  C_22
    6  A    between atoms: C_22  and  C_33
                            x       y       z     vdW  Elec       q    Type
                         _______ _______ _______ _____ _____    ______ ____

>  <TORSDO>
F 6

$$$$
