=
 OpenBabel10272413383D

 32 37  0  0  1  0  0  0  0  0999 V2000
  187.3730  177.4780  137.3330 C   0  0  2  0  0  3  0  0  0  0  0  0
  190.6950  176.2960  135.5940 C   0  0  0  0  0  2  0  0  0  0  0  0
  189.9520  173.3900  136.5000 C   0  0  0  0  0  1  0  0  0  0  0  0
  186.2120  176.4070  135.2490 C   0  0  1  0  0  3  0  0  0  0  0  0
  185.2200  175.3350  134.8970 C   0  0  0  0  0  0  0  0  0  0  0  0
  188.4580  177.3880  139.3550 C   0  0  2  0  0  3  0  0  0  0  0  0
  190.9060  176.7940  138.4690 C   0  0  0  0  0  1  0  0  0  0  0  0
  183.3720  173.2880  134.3860 C   0  0  0  0  0  3  0  0  0  0  0  0
  189.5050  178.5770  137.4720 O   0  0  0  0  0  0  0  0  0  0  0  0
  189.4130  175.5320  135.3280 C   0  0  2  0  0  3  0  0  0  0  0  0
  188.8510  177.4050  137.0250 C   0  0  2  0  0  0  0  0  0  0  0  0
  189.3720  177.0390  135.6160 C   0  0  1  0  0  3  0  0  0  0  0  0
  186.7530  175.0610  137.3230 O   0  0  0  0  0  0  0  0  0  0  0  0
  182.9630  174.6240  134.3470 C   0  0  0  0  0  3  0  0  0  0  0  0
  189.5470  177.4500  138.3040 C   0  0  2  0  0  0  0  0  0  0  0  0
  183.8820  175.6440  134.6070 C   0  0  0  0  0  3  0  0  0  0  0  0
  189.0850  174.6370  136.5250 C   0  0  1  0  0  3  0  0  0  0  0  0
  187.6100  174.2370  136.5450 C   0  0  2  0  0  3  0  0  0  0  0  0
  187.0450  173.6240  135.2460 C   0  0  0  0  0  2  0  0  0  0  0  0
  187.1940  177.5380  138.7350 O   0  0  0  0  0  0  0  0  0  0  0  0
  185.7350  177.6760  134.9050 O   0  0  0  0  0  1  0  0  0  0  0  0
  184.7000  172.9720  134.6880 C   0  0  0  0  0  3  0  0  0  0  0  0
  186.5210  176.3420  136.7510 C   0  0  1  0  0  3  0  0  0  0  0  0
  185.6220  173.9890  134.9560 C   0  0  0  0  0  0  0  0  0  0  0  0
  188.6330  178.4730  140.4110 C   0  0  0  0  0  2  0  0  0  0  0  0
  189.8910  177.7620  142.3090 C   0  0  0  0  0  3  0  0  0  0  0  0
  188.7360  177.8890  141.7370 N   0  0  0  0  0  0  0  0  0  0  0  0
  190.4080  177.8630  144.6430 C   0  0  0  0  0  3  0  0  0  0  0  0
  190.0190  177.1830  143.6110 N   0  0  0  0  0  0  0  0  0  0  0  0
  190.5240  177.2340  145.9580 C   0  0  0  0  0  0  0  0  0  0  0  0
  191.7930  176.8270  146.4600 N   0  0  0  0  0  2  0  0  0  0  0  0
  189.4640  177.0460  146.6700 N   0  0  0  0  0  1  0  0  0  0  0  0
  1 20  1  1  0  0  0
  4 21  1  1  0  0  0
  4 23  1  0  0  0  0
  5 24  1  0  0  0  0
  5  4  1  0  0  0  0
  6 25  1  1  0  0  0
  8 22  1  0  0  0  0
  9 15  1  0  0  0  0
 10  2  1  1  0  0  0
 10 12  1  0  0  0  0
 10 17  1  0  0  0  0
 11  1  1  0  0  0  0
 11  9  1  6  0  0  0
 11 15  1  0  0  0  0
 12  2  1  1  0  0  0
 12 11  1  0  0  0  0
 14  8  2  0  0  0  0
 14 16  1  0  0  0  0
 15  7  1  1  0  0  0
 15  6  1  0  0  0  0
 16  5  2  0  0  0  0
 17  3  1  6  0  0  0
 17 18  1  0  0  0  0
 18 19  1  6  0  0  0
 18 13  1  0  0  0  0
 20  6  1  0  0  0  0
 22 24  2  0  0  0  0
 23 13  1  6  0  0  0
 23  1  1  0  0  0  0
 24 19  1  0  0  0  0
 25 27  1  0  0  0  0
 26 29  1  0  0  0  0
 27 26  2  0  0  0  0
 28 30  1  0  0  0  0
 29 28  2  0  0  0  0
 30 31  2  0  0  0  0
 30 32  1  0  0  0  0
M  END
>  <MODEL>
1

>  <REMARK>
 VINA RESULT:      -6.2      0.000      0.000
  Name = 
  4 active torsions:
  status: ('A' for Active; 'I' for Inactive)
    1  A    between atoms: C_1  and  C_10
    2  A    between atoms: C_2  and  N_24
    3  A    between atoms: C_8  and  C_23
    4  A    between atoms: N_19  and  C_23
                            x       y       z     vdW  Elec       q    Type
                         _______ _______ _______ _____ _____    ______ ____

>  <TORSDO>
F 4

$$$$
=
 OpenBabel10272413383D

 32 37  0  0  1  0  0  0  0  0999 V2000
  191.0260  176.1630  138.6770 C   0  0  2  0  0  3  0  0  0  0  0  0
  188.8680  178.9730  136.9730 C   0  0  0  0  0  2  0  0  0  0  0  0
  186.4990  178.0490  138.8040 C   0  0  0  0  0  1  0  0  0  0  0  0
  191.0780  177.8040  140.7120 C   0  0  1  0  0  3  0  0  0  0  0  0
  190.6780  177.8720  142.1590 C   0  0  0  0  0  0  0  0  0  0  0  0
  190.0180  174.6250  137.3010 C   0  0  2  0  0  3  0  0  0  0  0  0
  188.5830  176.3070  135.8040 C   0  0  0  0  0  1  0  0  0  0  0  0
  189.8590  177.8630  144.8410 C   0  0  0  0  0  3  0  0  0  0  0  0
  190.9760  176.6740  136.3300 O   0  0  0  0  0  0  0  0  0  0  0  0
  188.8480  178.8450  138.4820 C   0  0  2  0  0  3  0  0  0  0  0  0
  190.3560  176.9480  137.5720 C   0  0  2  0  0  0  0  0  0  0  0  0
  190.1070  178.4690  137.6890 C   0  0  1  0  0  3  0  0  0  0  0  0
  189.2200  176.1120  140.3990 O   0  0  0  0  0  0  0  0  0  0  0  0
  191.2070  177.6840  144.5220 C   0  0  0  0  0  3  0  0  0  0  0  0
  189.8040  175.9720  136.6430 C   0  0  2  0  0  0  0  0  0  0  0  0
  191.6150  177.6820  143.1860 C   0  0  0  0  0  3  0  0  0  0  0  0
  187.9660  177.6620  138.8910 C   0  0  1  0  0  3  0  0  0  0  0  0
  188.2870  177.1780  140.3050 C   0  0  2  0  0  3  0  0  0  0  0  0
  188.2940  178.2520  141.4150 C   0  0  0  0  0  2  0  0  0  0  0  0
  190.8570  174.7810  138.4320 O   0  0  0  0  0  0  0  0  0  0  0  0
  192.4650  177.8940  140.5620 O   0  0  0  0  0  1  0  0  0  0  0  0
  188.9170  178.0380  143.8240 C   0  0  0  0  0  3  0  0  0  0  0  0
  190.5560  176.4970  140.1000 C   0  0  1  0  0  3  0  0  0  0  0  0
  189.3190  178.0300  142.4840 C   0  0  0  0  0  0  0  0  0  0  0  0
  190.6490  173.6230  136.3410 C   0  0  0  0  0  2  0  0  0  0  0  0
  192.9400  173.9660  135.7650 C   0  0  0  0  0  3  0  0  0  0  0  0
  192.0730  173.4880  136.6000 N   0  0  0  0  0  0  0  0  0  0  0  0
  195.1060  174.8530  136.2590 C   0  0  0  0  0  3  0  0  0  0  0  0
  194.3460  173.8380  135.9950 N   0  0  0  0  0  0  0  0  0  0  0  0
  196.5400  174.6790  136.4890 C   0  0  0  0  0  0  0  0  0  0  0  0
  197.4290  175.7880  136.4060 N   0  0  0  0  0  2  0  0  0  0  0  0
  197.0030  173.5080  136.7710 N   0  0  0  0  0  1  0  0  0  0  0  0
  1 20  1  6  0  0  0
  1 23  1  0  0  0  0
  4 21  1  1  0  0  0
  4  5  1  0  0  0  0
  5 24  2  0  0  0  0
  5 16  1  0  0  0  0
  6 25  1  6  0  0  0
  6 20  1  0  0  0  0
  9 15  1  0  0  0  0
 10  2  1  6  0  0  0
 10 17  1  0  0  0  0
 11  9  1  6  0  0  0
 11 12  1  0  0  0  0
 11  1  1  0  0  0  0
 12  2  1  6  0  0  0
 12 10  1  0  0  0  0
 14  8  1  0  0  0  0
 15  7  1  6  0  0  0
 15  6  1  0  0  0  0
 15 11  1  0  0  0  0
 16 14  2  0  0  0  0
 17  3  1  1  0  0  0
 17 18  1  0  0  0  0
 18 13  1  0  0  0  0
 18 19  1  1  0  0  0
 19 24  1  0  0  0  0
 22  8  2  0  0  0  0
 23 13  1  6  0  0  0
 23  4  1  0  0  0  0
 24 22  1  0  0  0  0
 25 27  1  0  0  0  0
 26 29  1  0  0  0  0
 26 27  2  0  0  0  0
 28 30  1  0  0  0  0
 29 28  2  0  0  0  0
 30 32  1  0  0  0  0
 31 30  2  0  0  0  0
M  END
>  <MODEL>
2

>  <REMARK>
 VINA RESULT:      -6.2      4.387      7.946
  Name = 
  4 active torsions:
  status: ('A' for Active; 'I' for Inactive)
    1  A    between atoms: C_1  and  C_10
    2  A    between atoms: C_2  and  N_24
    3  A    between atoms: C_8  and  C_23
    4  A    between atoms: N_19  and  C_23
                            x       y       z     vdW  Elec       q    Type
                         _______ _______ _______ _____ _____    ______ ____

>  <TORSDO>
F 4

$$$$
=
 OpenBabel10272413383D

 32 37  0  0  1  0  0  0  0  0999 V2000
  187.3440  177.2180  137.1400 C   0  0  2  0  0  3  0  0  0  0  0  0
  190.7120  176.2240  135.3690 C   0  0  0  0  0  2  0  0  0  0  0  0
  190.2480  173.3230  136.4590 C   0  0  0  0  0  1  0  0  0  0  0  0
  186.2280  175.9310  135.1560 C   0  0  1  0  0  3  0  0  0  0  0  0
  185.3250  174.7590  134.8950 C   0  0  0  0  0  0  0  0  0  0  0  0
  188.4850  177.3390  139.1290 C   0  0  2  0  0  3  0  0  0  0  0  0
  190.9520  176.9060  138.2030 C   0  0  0  0  0  1  0  0  0  0  0  0
  183.6510  172.5350  134.5560 C   0  0  0  0  0  3  0  0  0  0  0  0
  189.3760  178.5010  137.1510 O   0  0  0  0  0  0  0  0  0  0  0  0
  189.4950  175.3390  135.1860 C   0  0  2  0  0  3  0  0  0  0  0  0
  188.8160  177.2530  136.7910 C   0  0  2  0  0  0  0  0  0  0  0  0
  189.3300  176.8510  135.3900 C   0  0  1  0  0  3  0  0  0  0  0  0
  186.9380  174.7600  137.2850 O   0  0  0  0  0  0  0  0  0  0  0  0
  183.1260  173.8260  134.4550 C   0  0  0  0  0  3  0  0  0  0  0  0
  189.5370  177.4320  138.0430 C   0  0  2  0  0  0  0  0  0  0  0  0
  183.9580  174.9340  134.6290 C   0  0  0  0  0  3  0  0  0  0  0  0
  189.2760  174.4910  136.4410 C   0  0  1  0  0  3  0  0  0  0  0  0
  187.8430  173.9680  136.5280 C   0  0  2  0  0  3  0  0  0  0  0  0
  187.3010  173.2340  135.2830 C   0  0  0  0  0  2  0  0  0  0  0  0
  187.1980  177.3440  138.5400 O   0  0  0  0  0  0  0  0  0  0  0  0
  185.6340  177.1320  134.7550 O   0  0  0  0  0  1  0  0  0  0  0  0
  185.0080  172.3520  134.8350 C   0  0  0  0  0  3  0  0  0  0  0  0
  186.5810  175.9800  136.6480 C   0  0  1  0  0  3  0  0  0  0  0  0
  185.8440  173.4580  135.0170 C   0  0  0  0  0  0  0  0  0  0  0  0
  188.5910  178.4950  140.1170 C   0  0  0  0  0  2  0  0  0  0  0  0
  187.0530  178.4070  141.9390 C   0  0  0  0  0  3  0  0  0  0  0  0
  187.3010  178.7760  140.7230 N   0  0  0  0  0  0  0  0  0  0  0  0
  185.5730  178.4750  143.8170 C   0  0  0  0  0  3  0  0  0  0  0  0
  185.7880  178.6650  142.5540 N   0  0  0  0  0  0  0  0  0  0  0  0
  184.2640  178.7530  144.4070 C   0  0  0  0  0  0  0  0  0  0  0  0
  184.0970  178.7890  145.8210 N   0  0  0  0  0  1  0  0  0  0  0  0
  183.2500  178.9670  143.6380 N   0  0  0  0  0  2  0  0  0  0  0  0
  1 20  1  1  0  0  0
  4 21  1  1  0  0  0
  4 23  1  0  0  0  0
  5 24  1  0  0  0  0
  5  4  1  0  0  0  0
  6 25  1  1  0  0  0
  8 22  1  0  0  0  0
  9 15  1  0  0  0  0
 10  2  1  1  0  0  0
 10 12  1  0  0  0  0
 10 17  1  0  0  0  0
 11  1  1  0  0  0  0
 11  9  1  6  0  0  0
 11 15  1  0  0  0  0
 12  2  1  1  0  0  0
 12 11  1  0  0  0  0
 14  8  2  0  0  0  0
 14 16  1  0  0  0  0
 15  7  1  1  0  0  0
 15  6  1  0  0  0  0
 16  5  2  0  0  0  0
 17  3  1  6  0  0  0
 17 18  1  0  0  0  0
 18 19  1  6  0  0  0
 18 13  1  0  0  0  0
 20  6  1  0  0  0  0
 22 24  2  0  0  0  0
 23  1  1  0  0  0  0
 23 13  1  6  0  0  0
 24 19  1  0  0  0  0
 25 27  1  0  0  0  0
 26 29  1  0  0  0  0
 27 26  2  0  0  0  0
 28 30  1  0  0  0  0
 29 28  2  0  0  0  0
 30 31  1  0  0  0  0
 32 30  2  0  0  0  0
M  END
>  <MODEL>
3

>  <REMARK>
 VINA RESULT:      -6.2      2.304      2.636
  Name = 
  4 active torsions:
  status: ('A' for Active; 'I' for Inactive)
    1  A    between atoms: C_1  and  C_10
    2  A    between atoms: C_2  and  N_24
    3  A    between atoms: C_8  and  C_23
    4  A    between atoms: N_19  and  C_23
                            x       y       z     vdW  Elec       q    Type
                         _______ _______ _______ _____ _____    ______ ____

>  <TORSDO>
F 4

$$$$
=
 OpenBabel10272413383D

 32 37  0  0  1  0  0  0  0  0999 V2000
  187.2780  177.2660  137.1390 C   0  0  2  0  0  3  0  0  0  0  0  0
  190.3180  176.0750  134.9470 C   0  0  0  0  0  2  0  0  0  0  0  0
  189.8310  173.2060  136.1080 C   0  0  0  0  0  1  0  0  0  0  0  0
  185.8360  176.0510  135.3270 C   0  0  1  0  0  3  0  0  0  0  0  0
  184.8390  174.9350  135.1950 C   0  0  0  0  0  0  0  0  0  0  0  0
  188.6760  177.3160  138.9600 C   0  0  2  0  0  3  0  0  0  0  0  0
  190.9700  176.7380  137.7210 C   0  0  0  0  0  1  0  0  0  0  0  0
  183.0050  172.8150  135.0950 C   0  0  0  0  0  3  0  0  0  0  0  0
  189.3660  178.4260  136.8740 O   0  0  0  0  0  0  0  0  0  0  0  0
  189.0380  175.2650  134.9310 C   0  0  2  0  0  3  0  0  0  0  0  0
  188.6900  177.2140  136.5990 C   0  0  2  0  0  0  0  0  0  0  0  0
  188.9910  176.7840  135.1460 C   0  0  1  0  0  3  0  0  0  0  0  0
  186.7500  174.8360  137.3520 O   0  0  0  0  0  0  0  0  0  0  0  0
  182.5490  174.1350  135.0550 C   0  0  0  0  0  3  0  0  0  0  0  0
  189.5800  177.3480  137.7450 C   0  0  2  0  0  0  0  0  0  0  0  0
  183.4620  175.1920  135.1100 C   0  0  0  0  0  3  0  0  0  0  0  0
  188.9360  174.4300  136.2100 C   0  0  1  0  0  3  0  0  0  0  0  0
  187.4980  173.9930  136.4890 C   0  0  2  0  0  3  0  0  0  0  0  0
  186.7550  173.2940  135.3310 C   0  0  0  0  0  2  0  0  0  0  0  0
  187.3250  177.3990  138.5460 O   0  0  0  0  0  0  0  0  0  0  0  0
  185.2670  177.2850  135.0010 O   0  0  0  0  0  1  0  0  0  0  0  0
  184.3740  172.5510  135.1940 C   0  0  0  0  0  3  0  0  0  0  0  0
  186.3850  176.0770  136.7600 C   0  0  1  0  0  3  0  0  0  0  0  0
  185.2910  173.6050  135.2570 C   0  0  0  0  0  0  0  0  0  0  0  0
  188.9800  178.4630  139.9170 C   0  0  0  0  0  2  0  0  0  0  0  0
  188.7600  177.7460  142.1830 C   0  0  0  0  0  3  0  0  0  0  0  0
  188.2260  178.3180  141.1510 N   0  0  0  0  0  0  0  0  0  0  0  0
  188.5980  177.6650  144.5680 C   0  0  0  0  0  3  0  0  0  0  0  0
  188.0340  177.5850  143.4050 N   0  0  0  0  0  0  0  0  0  0  0  0
  187.8190  177.4960  145.7950 C   0  0  0  0  0  0  0  0  0  0  0  0
  186.3960  177.4950  145.7590 N   0  0  0  0  0  2  0  0  0  0  0  0
  188.4310  177.3450  146.9210 N   0  0  0  0  0  1  0  0  0  0  0  0
  1 20  1  1  0  0  0
  4 21  1  1  0  0  0
  4 23  1  0  0  0  0
  5 24  1  0  0  0  0
  5  4  1  0  0  0  0
  6 25  1  1  0  0  0
  8 22  1  0  0  0  0
  9 15  1  0  0  0  0
 10  2  1  1  0  0  0
 10 12  1  0  0  0  0
 10 17  1  0  0  0  0
 11  9  1  6  0  0  0
 11  1  1  0  0  0  0
 11 15  1  0  0  0  0
 12  2  1  1  0  0  0
 12 11  1  0  0  0  0
 14  8  2  0  0  0  0
 14 16  1  0  0  0  0
 15  7  1  1  0  0  0
 15  6  1  0  0  0  0
 16  5  2  0  0  0  0
 17  3  1  6  0  0  0
 17 18  1  0  0  0  0
 18 19  1  6  0  0  0
 18 13  1  0  0  0  0
 20  6  1  0  0  0  0
 22 24  2  0  0  0  0
 23  1  1  0  0  0  0
 23 13  1  6  0  0  0
 24 19  1  0  0  0  0
 25 27  1  0  0  0  0
 26 29  1  0  0  0  0
 27 26  2  0  0  0  0
 28 30  1  0  0  0  0
 29 28  2  0  0  0  0
 30 32  1  0  0  0  0
 31 30  2  0  0  0  0
M  END
>  <MODEL>
4

>  <REMARK>
 VINA RESULT:      -6.1      1.078      1.335
  Name = 
  4 active torsions:
  status: ('A' for Active; 'I' for Inactive)
    1  A    between atoms: C_1  and  C_10
    2  A    between atoms: C_2  and  N_24
    3  A    between atoms: C_8  and  C_23
    4  A    between atoms: N_19  and  C_23
                            x       y       z     vdW  Elec       q    Type
                         _______ _______ _______ _____ _____    ______ ____

>  <TORSDO>
F 4

$$$$
=
 OpenBabel10272413383D

 32 37  0  0  1  0  0  0  0  0999 V2000
  185.9240  176.4380  136.4290 C   0  0  2  0  0  3  0  0  0  0  0  0
  188.3910  174.1940  134.3460 C   0  0  0  0  0  2  0  0  0  0  0  0
  188.1200  172.0560  136.6210 C   0  0  0  0  0  1  0  0  0  0  0  0
  184.1010  174.7750  135.5660 C   0  0  1  0  0  3  0  0  0  0  0  0
  183.0800  173.8020  136.0840 C   0  0  0  0  0  0  0  0  0  0  0  0
  187.6870  177.0420  137.7720 C   0  0  2  0  0  3  0  0  0  0  0  0
  189.6440  175.8010  136.4440 C   0  0  0  0  0  1  0  0  0  0  0  0
  181.2330  172.0050  137.1920 C   0  0  0  0  0  3  0  0  0  0  0  0
  187.9230  177.1880  135.3260 O   0  0  0  0  0  0  0  0  0  0  0  0
  187.1240  173.5750  134.9020 C   0  0  2  0  0  3  0  0  0  0  0  0
  187.1830  176.0390  135.6920 C   0  0  2  0  0  0  0  0  0  0  0  0
  187.1510  175.0560  134.5000 C   0  0  1  0  0  3  0  0  0  0  0  0
  185.4140  174.3450  137.6880 O   0  0  0  0  0  0  0  0  0  0  0  0
  180.8010  173.2470  136.7200 C   0  0  0  0  0  3  0  0  0  0  0  0
  188.3030  176.5120  136.4930 C   0  0  2  0  0  0  0  0  0  0  0  0
  181.7220  174.1450  136.1740 C   0  0  0  0  0  3  0  0  0  0  0  0
  187.2910  173.3100  136.4000 C   0  0  1  0  0  3  0  0  0  0  0  0
  185.9410  173.1630  137.1030 C   0  0  2  0  0  3  0  0  0  0  0  0
  184.9510  172.1520  136.4860 C   0  0  0  0  0  2  0  0  0  0  0  0
  186.2800  177.0960  137.6290 O   0  0  0  0  0  0  0  0  0  0  0  0
  183.4950  175.8400  134.8940 O   0  0  0  0  0  1  0  0  0  0  0  0
  182.5860  171.6610  137.1200 C   0  0  0  0  0  3  0  0  0  0  0  0
  184.9490  175.2930  136.7350 C   0  0  1  0  0  3  0  0  0  0  0  0
  183.5120  172.5590  136.5800 C   0  0  0  0  0  0  0  0  0  0  0  0
  188.2120  178.4300  138.1160 C   0  0  0  0  0  2  0  0  0  0  0  0
  189.2130  177.4150  140.0300 C   0  0  0  0  0  3  0  0  0  0  0  0
  188.7010  178.4720  139.4840 N   0  0  0  0  0  0  0  0  0  0  0  0
  190.9510  177.3340  141.6710 C   0  0  0  0  0  3  0  0  0  0  0  0
  189.6940  177.4300  141.3770 N   0  0  0  0  0  0  0  0  0  0  0  0
  191.4030  177.3550  143.0620 C   0  0  0  0  0  0  0  0  0  0  0  0
  191.6200  176.1410  143.7740 N   0  0  0  0  0  1  0  0  0  0  0  0
  191.6060  178.4860  143.6490 N   0  0  0  0  0  2  0  0  0  0  0  0
  1 23  1  0  0  0  0
  1 20  1  1  0  0  0
  4 21  1  1  0  0  0
  4  5  1  0  0  0  0
  4 23  1  0  0  0  0
  5 16  2  0  0  0  0
  5 24  1  0  0  0  0
  6 25  1  6  0  0  0
  9 15  1  0  0  0  0
 10  2  1  6  0  0  0
 10 17  1  0  0  0  0
 11  9  1  6  0  0  0
 11  1  1  0  0  0  0
 11 15  1  0  0  0  0
 12  2  1  6  0  0  0
 12 10  1  0  0  0  0
 12 11  1  0  0  0  0
 14  8  2  0  0  0  0
 15  7  1  1  0  0  0
 15  6  1  0  0  0  0
 16 14  1  0  0  0  0
 17  3  1  6  0  0  0
 17 18  1  0  0  0  0
 18 19  1  6  0  0  0
 18 13  1  0  0  0  0
 19 24  1  0  0  0  0
 20  6  1  0  0  0  0
 22  8  1  0  0  0  0
 23 13  1  6  0  0  0
 24 22  2  0  0  0  0
 25 27  1  0  0  0  0
 26 29  1  0  0  0  0
 27 26  2  0  0  0  0
 28 30  1  0  0  0  0
 29 28  2  0  0  0  0
 30 32  2  0  0  0  0
 30 31  1  0  0  0  0
M  END
>  <MODEL>
5

>  <REMARK>
 VINA RESULT:      -6.0      1.947      2.745
  Name = 
  4 active torsions:
  status: ('A' for Active; 'I' for Inactive)
    1  A    between atoms: C_1  and  C_10
    2  A    between atoms: C_2  and  N_24
    3  A    between atoms: C_8  and  C_23
    4  A    between atoms: N_19  and  C_23
                            x       y       z     vdW  Elec       q    Type
                         _______ _______ _______ _____ _____    ______ ____

>  <TORSDO>
F 4

$$$$
=
 OpenBabel10272413383D

 32 37  0  0  1  0  0  0  0  0999 V2000
  187.1870  177.3700  136.8860 C   0  0  2  0  0  3  0  0  0  0  0  0
  189.8130  174.8650  135.3720 C   0  0  0  0  0  2  0  0  0  0  0  0
  188.2390  172.5790  136.8270 C   0  0  0  0  0  1  0  0  0  0  0  0
  185.5930  176.3910  135.0580 C   0  0  1  0  0  3  0  0  0  0  0  0
  184.2860  175.6620  134.9280 C   0  0  0  0  0  0  0  0  0  0  0  0
  188.3290  177.2860  138.8760 C   0  0  2  0  0  3  0  0  0  0  0  0
  190.3830  175.7680  138.0960 C   0  0  0  0  0  1  0  0  0  0  0  0
  181.8440  174.2860  134.8380 C   0  0  0  0  0  3  0  0  0  0  0  0
  189.5640  177.7070  136.7890 O   0  0  0  0  0  0  0  0  0  0  0  0
  188.3380  174.5350  135.2710 C   0  0  2  0  0  3  0  0  0  0  0  0
  188.5360  176.7570  136.5820 C   0  0  2  0  0  0  0  0  0  0  0  0
  188.8070  175.9950  135.2650 C   0  0  1  0  0  3  0  0  0  0  0  0
  185.8210  175.3320  137.3460 O   0  0  0  0  0  0  0  0  0  0  0  0
  181.8860  175.6520  134.5470 C   0  0  0  0  0  3  0  0  0  0  0  0
  189.3000  176.7970  137.8220 C   0  0  2  0  0  0  0  0  0  0  0  0
  183.1020  176.3400  134.5980 C   0  0  0  0  0  3  0  0  0  0  0  0
  187.8260  174.0260  136.6210 C   0  0  1  0  0  3  0  0  0  0  0  0
  186.3060  174.1470  136.7320 C   0  0  2  0  0  3  0  0  0  0  0  0
  185.4810  173.5350  135.5800 C   0  0  0  0  0  2  0  0  0  0  0  0
  187.1400  177.7330  138.2510 O   0  0  0  0  0  0  0  0  0  0  0  0
  185.5280  177.6630  134.4810 O   0  0  0  0  0  1  0  0  0  0  0  0
  183.0170  173.6070  135.1820 C   0  0  0  0  0  3  0  0  0  0  0  0
  185.9740  176.4950  136.5410 C   0  0  1  0  0  3  0  0  0  0  0  0
  184.2350  174.2920  135.2400 C   0  0  0  0  0  0  0  0  0  0  0  0
  188.9210  178.4220  139.7020 C   0  0  0  0  0  2  0  0  0  0  0  0
  188.6100  177.4070  141.8400 C   0  0  0  0  0  3  0  0  0  0  0  0
  188.3850  178.4110  141.0530 N   0  0  0  0  0  0  0  0  0  0  0  0
  188.8110  177.6200  144.2140 C   0  0  0  0  0  3  0  0  0  0  0  0
  188.0860  177.3710  143.1700 N   0  0  0  0  0  0  0  0  0  0  0  0
  188.2360  177.5730  145.5580 C   0  0  0  0  0  0  0  0  0  0  0  0
  189.0590  177.3160  146.6920 N   0  0  0  0  0  1  0  0  0  0  0  0
  186.9710  177.7680  145.7170 N   0  0  0  0  0  2  0  0  0  0  0  0
  1 20  1  1  0  0  0
  4 21  1  1  0  0  0
  4 23  1  0  0  0  0
  5  4  1  0  0  0  0
  5 24  1  0  0  0  0
  6 25  1  6  0  0  0
  8 22  1  0  0  0  0
  9 15  1  0  0  0  0
 10  2  1  1  0  0  0
 10 17  1  0  0  0  0
 11  9  1  6  0  0  0
 11  1  1  0  0  0  0
 11 15  1  0  0  0  0
 12 10  1  0  0  0  0
 12  2  1  1  0  0  0
 12 11  1  0  0  0  0
 14 16  1  0  0  0  0
 14  8  2  0  0  0  0
 15  7  1  1  0  0  0
 15  6  1  0  0  0  0
 16  5  2  0  0  0  0
 17 18  1  0  0  0  0
 17  3  1  6  0  0  0
 18 19  1  6  0  0  0
 18 13  1  0  0  0  0
 20  6  1  0  0  0  0
 22 24  2  0  0  0  0
 23  1  1  0  0  0  0
 23 13  1  6  0  0  0
 24 19  1  0  0  0  0
 25 27  1  0  0  0  0
 26 29  1  0  0  0  0
 27 26  2  0  0  0  0
 28 30  1  0  0  0  0
 29 28  2  0  0  0  0
 30 32  2  0  0  0  0
 30 31  1  0  0  0  0
M  END
>  <MODEL>
6

>  <REMARK>
 VINA RESULT:      -6.0      1.245      1.457
  Name = 
  4 active torsions:
  status: ('A' for Active; 'I' for Inactive)
    1  A    between atoms: C_1  and  C_10
    2  A    between atoms: C_2  and  N_24
    3  A    between atoms: C_8  and  C_23
    4  A    between atoms: N_19  and  C_23
                            x       y       z     vdW  Elec       q    Type
                         _______ _______ _______ _____ _____    ______ ____

>  <TORSDO>
F 4

$$$$
=
 OpenBabel10272413383D

 32 37  0  0  1  0  0  0  0  0999 V2000
  188.4470  177.2050  141.6870 C   0  0  2  0  0  3  0  0  0  0  0  0
  191.9150  175.8720  142.9760 C   0  0  0  0  0  2  0  0  0  0  0  0
  192.2280  178.6020  144.4830 C   0  0  0  0  0  1  0  0  0  0  0  0
  187.6490  176.7140  144.1290 C   0  0  1  0  0  3  0  0  0  0  0  0
  187.0670  177.4160  145.3230 C   0  0  0  0  0  0  0  0  0  0  0  0
  189.5640  178.4270  140.0960 C   0  0  2  0  0  3  0  0  0  0  0  0
  192.0390  177.5470  140.5800 C   0  0  0  0  0  1  0  0  0  0  0  0
  186.0060  178.8610  147.4790 C   0  0  0  0  0  3  0  0  0  0  0  0
  190.0850  176.0380  140.3740 O   0  0  0  0  0  0  0  0  0  0  0  0
  190.9590  176.5110  143.9630 C   0  0  2  0  0  3  0  0  0  0  0  0
  189.8530  176.6500  141.6270 C   0  0  2  0  0  0  0  0  0  0  0  0
  190.4200  175.7470  142.7460 C   0  0  1  0  0  3  0  0  0  0  0  0
  188.6820  178.9310  143.4750 O   0  0  0  0  0  0  0  0  0  0  0  0
  185.1680  178.0700  146.6880 C   0  0  0  0  0  3  0  0  0  0  0  0
  190.5330  177.3540  140.5490 C   0  0  2  0  0  0  0  0  0  0  0  0
  185.6950  177.3550  145.6100 C   0  0  0  0  0  3  0  0  0  0  0  0
  190.9920  178.0330  143.8080 C   0  0  1  0  0  3  0  0  0  0  0  0
  189.7400  178.6900  144.3910 C   0  0  2  0  0  3  0  0  0  0  0  0
  189.3740  178.3060  145.8400 C   0  0  0  0  0  2  0  0  0  0  0  0
  188.3050  178.2130  140.7060 O   0  0  0  0  0  0  0  0  0  0  0  0
  186.7600  175.7660  143.6120 O   0  0  0  0  0  1  0  0  0  0  0  0
  187.3710  178.9390  147.1900 C   0  0  0  0  0  3  0  0  0  0  0  0
  188.0120  177.7490  143.0550 C   0  0  1  0  0  3  0  0  0  0  0  0
  187.9030  178.2300  146.1080 C   0  0  0  0  0  0  0  0  0  0  0  0
  189.3960  178.4300  138.5810 C   0  0  0  0  0  2  0  0  0  0  0  0
  187.5150  177.4890  137.4550 C   0  0  0  0  0  3  0  0  0  0  0  0
  187.9890  178.4200  138.2190 N   0  0  0  0  0  0  0  0  0  0  0  0
  185.1810  177.7610  137.9020 C   0  0  0  0  0  3  0  0  0  0  0  0
  186.1350  177.4630  137.0790 N   0  0  0  0  0  0  0  0  0  0  0  0
  183.7820  177.7230  137.4780 C   0  0  0  0  0  0  0  0  0  0  0  0
  182.7470  178.1770  138.3440 N   0  0  0  0  0  1  0  0  0  0  0  0
  183.4830  177.2740  136.3050 N   0  0  0  0  0  2  0  0  0  0  0  0
  1 20  1  6  0  0  0
  1 23  1  0  0  0  0
  4 21  1  6  0  0  0
  4  5  1  0  0  0  0
  5 16  2  0  0  0  0
  5 24  1  0  0  0  0
  6 25  1  6  0  0  0
  6 15  1  0  0  0  0
  6 20  1  0  0  0  0
  9 15  1  0  0  0  0
 10  2  1  6  0  0  0
 11  9  1  6  0  0  0
 11  1  1  0  0  0  0
 11 12  1  0  0  0  0
 12  2  1  6  0  0  0
 12 10  1  0  0  0  0
 13 18  1  0  0  0  0
 14  8  2  0  0  0  0
 15  7  1  1  0  0  0
 15 11  1  0  0  0  0
 16 14  1  0  0  0  0
 17 10  1  0  0  0  0
 17 18  1  0  0  0  0
 17  3  1  1  0  0  0
 18 19  1  1  0  0  0
 19 24  1  0  0  0  0
 22  8  1  0  0  0  0
 23 13  1  1  0  0  0
 23  4  1  0  0  0  0
 24 22  2  0  0  0  0
 26 27  2  0  0  0  0
 27 25  1  0  0  0  0
 29 26  1  0  0  0  0
 29 28  2  0  0  0  0
 30 28  1  0  0  0  0
 30 31  1  0  0  0  0
 32 30  2  0  0  0  0
M  END
>  <MODEL>
7

>  <REMARK>
 VINA RESULT:      -5.9      4.128      8.794
  Name = 
  4 active torsions:
  status: ('A' for Active; 'I' for Inactive)
    1  A    between atoms: C_1  and  C_10
    2  A    between atoms: C_2  and  N_24
    3  A    between atoms: C_8  and  C_23
    4  A    between atoms: N_19  and  C_23
                            x       y       z     vdW  Elec       q    Type
                         _______ _______ _______ _____ _____    ______ ____

>  <TORSDO>
F 4

$$$$
=
 OpenBabel10272413383D

 32 37  0  0  1  0  0  0  0  0999 V2000
  188.5580  176.9280  137.1120 C   0  0  2  0  0  3  0  0  0  0  0  0
  190.4080  174.4600  134.6730 C   0  0  0  0  0  2  0  0  0  0  0  0
  188.6050  172.1870  135.8550 C   0  0  0  0  0  1  0  0  0  0  0  0
  186.5790  176.7000  135.4180 C   0  0  1  0  0  3  0  0  0  0  0  0
  185.1450  176.2530  135.3620 C   0  0  0  0  0  0  0  0  0  0  0  0
  189.9050  176.1770  138.8140 C   0  0  2  0  0  3  0  0  0  0  0  0
  191.4920  174.5710  137.3880 C   0  0  0  0  0  1  0  0  0  0  0  0
  182.4850  175.3660  135.4000 C   0  0  0  0  0  3  0  0  0  0  0  0
  190.9210  176.8770  136.6840 O   0  0  0  0  0  0  0  0  0  0  0  0
  188.8960  174.4150  134.7580 C   0  0  2  0  0  3  0  0  0  0  0  0
  189.7050  176.1910  136.4590 C   0  0  2  0  0  0  0  0  0  0  0  0
  189.6450  175.7350  134.9830 C   0  0  1  0  0  3  0  0  0  0  0  0
  186.8790  175.0980  137.3550 O   0  0  0  0  0  0  0  0  0  0  0  0
  182.7650  176.7360  135.4050 C   0  0  0  0  0  3  0  0  0  0  0  0
  190.6140  175.8020  137.5290 C   0  0  2  0  0  0  0  0  0  0  0  0
  184.0900  177.1780  135.3910 C   0  0  0  0  0  3  0  0  0  0  0  0
  188.4690  173.6890  136.0360 C   0  0  1  0  0  3  0  0  0  0  0  0
  187.0320  174.0320  136.4290 C   0  0  2  0  0  3  0  0  0  0  0  0
  185.9600  173.8620  135.3320 C   0  0  0  0  0  2  0  0  0  0  0  0
  188.7610  176.9540  138.5110 O   0  0  0  0  0  0  0  0  0  0  0  0
  186.6980  178.0660  135.1460 O   0  0  0  0  0  1  0  0  0  0  0  0
  183.5300  174.4390  135.3860 C   0  0  0  0  0  3  0  0  0  0  0  0
  187.1590  176.3770  136.8020 C   0  0  1  0  0  3  0  0  0  0  0  0
  184.8590  174.8770  135.3800 C   0  0  0  0  0  0  0  0  0  0  0  0
  190.8150  176.9650  139.7490 C   0  0  0  0  0  2  0  0  0  0  0  0
  191.0920  177.3090  142.0940 C   0  0  0  0  0  3  0  0  0  0  0  0
  190.3670  176.8450  141.1260 N   0  0  0  0  0  0  0  0  0  0  0  0
  191.5140  177.1310  144.4410 C   0  0  0  0  0  3  0  0  0  0  0  0
  190.6750  177.1950  143.4570 N   0  0  0  0  0  0  0  0  0  0  0  0
  191.0480  177.0160  145.8230 C   0  0  0  0  0  0  0  0  0  0  0  0
  191.9420  176.6350  146.8630 N   0  0  0  0  0  1  0  0  0  0  0  0
  189.8120  177.2650  146.1000 N   0  0  0  0  0  2  0  0  0  0  0  0
  1 20  1  1  0  0  0
  4 21  1  1  0  0  0
  4 23  1  0  0  0  0
  5 24  2  0  0  0  0
  5 16  1  0  0  0  0
  5  4  1  0  0  0  0
  6 25  1  1  0  0  0
  8 14  1  0  0  0  0
  9 15  1  0  0  0  0
 10  2  1  1  0  0  0
 10 12  1  0  0  0  0
 10 17  1  0  0  0  0
 11  9  1  6  0  0  0
 11  1  1  0  0  0  0
 11 15  1  0  0  0  0
 12  2  1  1  0  0  0
 12 11  1  0  0  0  0
 15  7  1  6  0  0  0
 15  6  1  0  0  0  0
 16 14  2  0  0  0  0
 17  3  1  6  0  0  0
 17 18  1  0  0  0  0
 18 19  1  6  0  0  0
 18 13  1  0  0  0  0
 19 24  1  0  0  0  0
 20  6  1  0  0  0  0
 22  8  2  0  0  0  0
 23  1  1  0  0  0  0
 23 13  1  6  0  0  0
 24 22  1  0  0  0  0
 25 27  1  0  0  0  0
 26 29  1  0  0  0  0
 27 26  2  0  0  0  0
 28 30  1  0  0  0  0
 29 28  2  0  0  0  0
 30 32  2  0  0  0  0
 30 31  1  0  0  0  0
M  END
>  <MODEL>
8

>  <REMARK>
 VINA RESULT:      -5.9      1.293      1.604
  Name = 
  4 active torsions:
  status: ('A' for Active; 'I' for Inactive)
    1  A    between atoms: C_1  and  C_10
    2  A    between atoms: C_2  and  N_24
    3  A    between atoms: C_8  and  C_23
    4  A    between atoms: N_19  and  C_23
                            x       y       z     vdW  Elec       q    Type
                         _______ _______ _______ _____ _____    ______ ____

>  <TORSDO>
F 4

$$$$
=
 OpenBabel10272413383D

 32 37  0  0  1  0  0  0  0  0999 V2000
  188.4700  177.1600  141.6880 C   0  0  2  0  0  3  0  0  0  0  0  0
  191.9490  175.8890  143.0070 C   0  0  0  0  0  2  0  0  0  0  0  0
  192.2240  178.6430  144.4760 C   0  0  0  0  0  1  0  0  0  0  0  0
  187.6690  176.6940  144.1330 C   0  0  1  0  0  3  0  0  0  0  0  0
  187.0750  177.4060  145.3150 C   0  0  0  0  0  0  0  0  0  0  0  0
  189.5780  178.3730  140.0830 C   0  0  2  0  0  3  0  0  0  0  0  0
  192.0610  177.5300  140.5880 C   0  0  0  0  0  1  0  0  0  0  0  0
  185.9880  178.8680  147.4470 C   0  0  0  0  0  3  0  0  0  0  0  0
  190.1270  175.9940  140.3970 O   0  0  0  0  0  0  0  0  0  0  0  0
  190.9820  176.5290  143.9820 C   0  0  2  0  0  3  0  0  0  0  0  0
  189.8820  176.6220  141.6400 C   0  0  2  0  0  0  0  0  0  0  0  0
  190.4570  175.7420  142.7740 C   0  0  1  0  0  3  0  0  0  0  0  0
  188.6770  178.9140  143.4510 O   0  0  0  0  0  0  0  0  0  0  0  0
  185.1630  178.0560  146.6650 C   0  0  0  0  0  3  0  0  0  0  0  0
  190.5580  177.3190  140.5550 C   0  0  2  0  0  0  0  0  0  0  0  0
  185.7030  177.3320  145.5990 C   0  0  0  0  0  3  0  0  0  0  0  0
  190.9970  178.0490  143.8050 C   0  0  1  0  0  3  0  0  0  0  0  0
  189.7350  178.6990  144.3740 C   0  0  2  0  0  3  0  0  0  0  0  0
  189.3690  178.3320  145.8280 C   0  0  0  0  0  2  0  0  0  0  0  0
  188.3190  178.1520  140.6920 O   0  0  0  0  0  0  0  0  0  0  0  0
  186.7940  175.7290  143.6270 O   0  0  0  0  0  1  0  0  0  0  0  0
  187.3530  178.9590  147.1620 C   0  0  0  0  0  3  0  0  0  0  0  0
  188.0230  177.7180  143.0460 C   0  0  1  0  0  3  0  0  0  0  0  0
  187.8970  178.2410  146.0920 C   0  0  0  0  0  0  0  0  0  0  0  0
  189.4150  178.3520  138.5680 C   0  0  0  0  0  2  0  0  0  0  0  0
  188.2130  176.5640  137.5410 C   0  0  0  0  0  3  0  0  0  0  0  0
  188.1810  177.6840  138.1920 N   0  0  0  0  0  0  0  0  0  0  0  0
  186.9080  174.6020  137.1320 C   0  0  0  0  0  3  0  0  0  0  0  0
  187.0110  175.8920  137.1540 N   0  0  0  0  0  0  0  0  0  0  0  0
  185.6600  173.9530  136.7310 C   0  0  0  0  0  0  0  0  0  0  0  0
  184.7800  173.4030  137.7060 N   0  0  0  0  0  1  0  0  0  0  0  0
  185.3550  173.8790  135.4790 N   0  0  0  0  0  2  0  0  0  0  0  0
  1 20  1  6  0  0  0
  1 23  1  0  0  0  0
  4 21  1  6  0  0  0
  4  5  1  0  0  0  0
  5 16  2  0  0  0  0
  5 24  1  0  0  0  0
  6 25  1  6  0  0  0
  6 15  1  0  0  0  0
  6 20  1  0  0  0  0
  9 15  1  0  0  0  0
 10  2  1  6  0  0  0
 11  9  1  6  0  0  0
 11  1  1  0  0  0  0
 11 12  1  0  0  0  0
 12  2  1  6  0  0  0
 12 10  1  0  0  0  0
 13 18  1  0  0  0  0
 14  8  2  0  0  0  0
 15  7  1  1  0  0  0
 15 11  1  0  0  0  0
 16 14  1  0  0  0  0
 17 10  1  0  0  0  0
 17 18  1  0  0  0  0
 17  3  1  1  0  0  0
 18 19  1  1  0  0  0
 19 24  1  0  0  0  0
 22  8  1  0  0  0  0
 23 13  1  1  0  0  0
 23  4  1  0  0  0  0
 24 22  2  0  0  0  0
 26 27  2  0  0  0  0
 27 25  1  0  0  0  0
 28 29  2  0  0  0  0
 29 26  1  0  0  0  0
 30 28  1  0  0  0  0
 30 31  1  0  0  0  0
 32 30  2  0  0  0  0
M  END
>  <MODEL>
9

>  <REMARK>
 VINA RESULT:      -5.8      3.557      8.788
  Name = 
  4 active torsions:
  status: ('A' for Active; 'I' for Inactive)
    1  A    between atoms: C_1  and  C_10
    2  A    between atoms: C_2  and  N_24
    3  A    between atoms: C_8  and  C_23
    4  A    between atoms: N_19  and  C_23
                            x       y       z     vdW  Elec       q    Type
                         _______ _______ _______ _____ _____    ______ ____

>  <TORSDO>
F 4

$$$$
