=
 OpenBabel10272413483D

 30 32  0  0  1  0  0  0  0  0999 V2000
  190.8720  177.3570  144.2820 C   0  0  0  0  0  0  0  0  0  0  0  0
  191.4170  176.8560  145.4650 C   0  0  0  0  0  3  0  0  0  0  0  0
  191.9390  177.5300  142.8960 Cl  0  0  0  0  0  0  0  0  0  0  0  0
  188.6950  177.5520  145.3730 C   0  0  0  0  0  0  0  0  0  0  0  0
  190.6220  176.7100  146.6000 C   0  0  0  0  0  3  0  0  0  0  0  0
  189.5120  177.7290  144.2280 C   0  0  0  0  0  0  0  0  0  0  0  0
  189.2730  177.0510  146.5520 C   0  0  0  0  0  3  0  0  0  0  0  0
  184.6590  179.3180  145.8310 N   0  0  0  0  0  0  0  0  0  0  0  0
  184.7170  179.3220  144.5340 C   0  0  0  0  0  3  0  0  0  0  0  0
  185.1490  178.2300  146.6620 C   0  0  0  0  0  2  0  0  0  0  0  0
  186.4880  177.6450  144.1000 C   0  0  0  0  0  3  0  0  0  0  0  0
  186.6280  178.0880  146.5270 C   0  0  0  0  0  3  0  0  0  0  0  0
  185.3590  178.2610  143.7230 C   0  0  0  0  0  0  0  0  0  0  0  0
  187.2380  177.8250  145.3670 C   0  0  0  0  0  0  0  0  0  0  0  0
  185.7630  179.7990  141.2370 O   0  0  0  0  0  0  0  0  0  0  0  0
  185.1140  178.7190  141.2130 C   0  0  0  0  0  0  0  0  0  0  0  0
  184.8720  177.9660  142.4070 N   0  0  0  0  0  2  0  0  0  0  0  0
  184.5740  178.2240  139.9200 C   0  0  0  0  0  1  0  0  0  0  0  0
  188.8630  178.4940  142.7260 S   0  0  0  0  0  0  0  0  0  0  0  0
  189.1100  177.0710  141.7980 O   0  0  0  0  0  0  0  0  0  0  0  0
  188.4120  177.2750  140.6060 C   0  0  0  0  0  2  0  0  0  0  0  0
  188.9410  177.5040  138.0170 C   0  0  1  0  0  3  0  0  0  0  0  0
  189.1960  178.8180  138.7490 C   0  0  0  0  0  2  0  0  0  0  0  0
  189.4020  177.5080  139.4700 C   0  0  1  0  0  0  0  0  0  0  0  0
  190.8620  177.1530  139.6750 C   0  0  0  0  0  1  0  0  0  0  0  0
  187.4440  177.2760  137.8490 C   0  0  2  0  0  3  0  0  0  0  0  0
  187.2140  175.9250  137.5810 O   0  0  0  0  0  1  0  0  0  0  0  0
  185.8430  177.4740  136.0810 O   0  0  0  0  0  1  0  0  0  0  0  0
  186.9200  178.1190  136.6920 C   0  0  2  0  0  3  0  0  0  0  0  0
  187.9170  178.3210  135.7560 F   0  0  0  0  0  0  0  0  0  0  0  0
  1  2  1  0  0  0  0
  2  5  2  0  0  0  0
  3  1  1  0  0  0  0
  4  7  2  0  0  0  0
  6  1  2  0  0  0  0
  6  4  1  0  0  0  0
  7  5  1  0  0  0  0
  8 10  1  0  0  0  0
  9  8  2  0  0  0  0
 11 14  1  0  0  0  0
 12 10  1  0  0  0  0
 13 11  2  0  0  0  0
 13  9  1  0  0  0  0
 14  4  1  0  0  0  0
 14 12  2  0  0  0  0
 16 15  2  0  0  0  0
 16 17  1  0  0  0  0
 17 13  1  0  0  0  0
 18 16  1  0  0  0  0
 19  6  1  0  0  0  0
 20 19  1  0  0  0  0
 21 20  1  0  0  0  0
 22 26  1  1  0  0  0
 22 23  1  0  0  0  0
 22 24  1  0  0  0  0
 23 24  1  0  0  0  0
 24 25  1  1  0  0  0
 24 21  1  0  0  0  0
 26 27  1  6  0  0  0
 28 29  1  0  0  0  0
 29 30  1  6  0  0  0
 29 26  1  0  0  0  0
M  END
>  <MODEL>
1

>  <REMARK>
 VINA RESULT:      -8.1      0.000      0.000
  Name = 
  8 active torsions:
  status: ('A' for Active; 'I' for Inactive)
    1  A    between atoms: O_1  and  C_4
    2  A    between atoms: O_1  and  S_5
    3  A    between atoms: C_4  and  C_27
    4  A    between atoms: S_5  and  C_22
    5  A    between atoms: C_8  and  C_12
    6  A    between atoms: C_9  and  C_12
    7  A    between atoms: N_16  and  C_25
    8  A    between atoms: C_19  and  C_29
                            x       y       z     vdW  Elec       q    Type
                         _______ _______ _______ _____ _____    ______ ____

>  <TORSDO>
F 8

$$$$
=
 OpenBabel10272413483D

 30 32  0  0  1  0  0  0  0  0999 V2000
  190.0220  177.3930  145.1160 C   0  0  0  0  0  0  0  0  0  0  0  0
  191.2790  177.9840  145.2570 C   0  0  0  0  0  3  0  0  0  0  0  0
  189.2020  176.8520  146.5720 Cl  0  0  0  0  0  0  0  0  0  0  0  0
  190.1590  177.6960  142.6960 C   0  0  0  0  0  0  0  0  0  0  0  0
  191.9820  178.4210  144.1370 C   0  0  0  0  0  3  0  0  0  0  0  0
  189.4570  177.2240  143.8340 C   0  0  0  0  0  0  0  0  0  0  0  0
  191.4250  178.2810  142.8680 C   0  0  0  0  0  3  0  0  0  0  0  0
  188.6780  178.6310  138.6270 N   0  0  0  0  0  0  0  0  0  0  0  0
  189.6860  177.8860  138.2910 C   0  0  0  0  0  3  0  0  0  0  0  0
  187.7960  178.3440  139.7480 C   0  0  0  0  0  2  0  0  0  0  0  0
  190.1080  176.6260  140.3820 C   0  0  0  0  0  3  0  0  0  0  0  0
  188.5410  178.4210  141.0370 C   0  0  0  0  0  3  0  0  0  0  0  0
  190.1290  176.6880  139.0430 C   0  0  0  0  0  0  0  0  0  0  0  0
  189.5910  177.6450  141.3270 C   0  0  0  0  0  0  0  0  0  0  0  0
  192.8960  176.5150  138.0330 O   0  0  0  0  0  0  0  0  0  0  0  0
  192.1160  175.5350  137.9070 C   0  0  0  0  0  0  0  0  0  0  0  0
  190.7570  175.5980  138.3570 N   0  0  0  0  0  2  0  0  0  0  0  0
  192.6110  174.2900  137.2630 C   0  0  0  0  0  1  0  0  0  0  0  0
  187.8900  176.3430  143.6660 S   0  0  0  0  0  0  0  0  0  0  0  0
  186.9690  177.7510  144.0100 O   0  0  0  0  0  0  0  0  0  0  0  0
  186.0980  177.3860  145.0380 C   0  0  0  0  0  2  0  0  0  0  0  0
  184.3460  179.3480  144.6900 C   0  0  1  0  0  3  0  0  0  0  0  0
  183.8980  178.4010  145.7990 C   0  0  0  0  0  2  0  0  0  0  0  0
  185.3720  178.6240  145.5540 C   0  0  1  0  0  0  0  0  0  0  0  0
  186.0370  179.4870  146.6090 C   0  0  0  0  0  1  0  0  0  0  0  0
  184.1280  178.7030  143.3260 C   0  0  2  0  0  3  0  0  0  0  0  0
  184.8650  179.4000  142.3670 O   0  0  0  0  0  1  0  0  0  0  0  0
  182.4980  178.7930  141.5760 O   0  0  0  0  0  1  0  0  0  0  0  0
  182.6490  178.7500  142.9630 C   0  0  2  0  0  3  0  0  0  0  0  0
  182.0550  179.8690  143.5170 F   0  0  0  0  0  0  0  0  0  0  0  0
  1  2  1  0  0  0  0
  1  3  1  0  0  0  0
  4  7  2  0  0  0  0
  4  6  1  0  0  0  0
  5  2  2  0  0  0  0
  6  1  2  0  0  0  0
  7  5  1  0  0  0  0
  8 10  1  0  0  0  0
  9  8  2  0  0  0  0
  9 13  1  0  0  0  0
 10 12  1  0  0  0  0
 11 14  1  0  0  0  0
 12 14  2  0  0  0  0
 13 11  2  0  0  0  0
 14  4  1  0  0  0  0
 16 15  2  0  0  0  0
 16 17  1  0  0  0  0
 17 13  1  0  0  0  0
 18 16  1  0  0  0  0
 19  6  1  0  0  0  0
 19 20  1  0  0  0  0
 20 21  1  0  0  0  0
 21 24  1  0  0  0  0
 22 26  1  6  0  0  0
 22 24  1  0  0  0  0
 22 23  1  0  0  0  0
 24 23  1  0  0  0  0
 24 25  1  1  0  0  0
 26 27  1  6  0  0  0
 29 28  1  6  0  0  0
 29 26  1  0  0  0  0
 29 30  1  0  0  0  0
M  END
>  <MODEL>
2

>  <REMARK>
 VINA RESULT:      -7.8      3.498      6.511
  Name = 
  8 active torsions:
  status: ('A' for Active; 'I' for Inactive)
    1  A    between atoms: O_1  and  C_4
    2  A    between atoms: O_1  and  S_5
    3  A    between atoms: C_4  and  C_27
    4  A    between atoms: S_5  and  C_22
    5  A    between atoms: C_8  and  C_12
    6  A    between atoms: C_9  and  C_12
    7  A    between atoms: N_16  and  C_25
    8  A    between atoms: C_19  and  C_29
                            x       y       z     vdW  Elec       q    Type
                         _______ _______ _______ _____ _____    ______ ____

>  <TORSDO>
F 8

$$$$
=
 OpenBabel10272413483D

 30 32  0  0  1  0  0  0  0  0999 V2000
  186.0980  178.3430  146.6960 C   0  0  0  0  0  0  0  0  0  0  0  0
  186.5750  178.6660  147.9670 C   0  0  0  0  0  3  0  0  0  0  0  0
  184.3730  178.5110  146.4000 Cl  0  0  0  0  0  0  0  0  0  0  0  0
  188.3680  177.7780  145.9940 C   0  0  0  0  0  0  0  0  0  0  0  0
  187.9300  178.5400  148.2640 C   0  0  0  0  0  3  0  0  0  0  0  0
  186.9840  177.8770  145.7020 C   0  0  0  0  0  0  0  0  0  0  0  0
  188.8180  178.1040  147.2830 C   0  0  0  0  0  3  0  0  0  0  0  0
  191.3240  175.6480  143.4740 N   0  0  0  0  0  0  0  0  0  0  0  0
  190.4060  175.8250  142.5730 C   0  0  0  0  0  3  0  0  0  0  0  0
  191.6950  176.6490  144.4610 C   0  0  0  0  0  2  0  0  0  0  0  0
  189.0880  177.6820  143.5490 C   0  0  0  0  0  3  0  0  0  0  0  0
  190.5590  176.9250  145.3860 C   0  0  0  0  0  3  0  0  0  0  0  0
  189.5560  177.0350  142.4730 C   0  0  0  0  0  0  0  0  0  0  0  0
  189.3740  177.3920  144.9760 C   0  0  0  0  0  0  0  0  0  0  0  0
  191.0880  177.5760  140.0100 O   0  0  0  0  0  0  0  0  0  0  0  0
  189.8340  177.6890  140.0100 C   0  0  0  0  0  0  0  0  0  0  0  0
  189.0640  177.4650  141.1970 N   0  0  0  0  0  2  0  0  0  0  0  0
  189.1380  178.0780  138.7560 C   0  0  0  0  0  1  0  0  0  0  0  0
  186.3240  177.3450  144.1070 S   0  0  0  0  0  0  0  0  0  0  0  0
  185.7610  178.9210  143.7230 O   0  0  0  0  0  0  0  0  0  0  0  0
  185.5270  178.9100  142.3470 C   0  0  0  0  0  2  0  0  0  0  0  0
  183.4710  178.8690  140.6710 C   0  0  1  0  0  3  0  0  0  0  0  0
  183.6620  177.5120  141.3410 C   0  0  0  0  0  2  0  0  0  0  0  0
  184.0310  178.7730  142.0850 C   0  0  1  0  0  0  0  0  0  0  0  0
  183.0510  179.1370  143.1840 C   0  0  0  0  0  1  0  0  0  0  0  0
  184.5370  179.0830  139.6020 C   0  0  2  0  0  3  0  0  0  0  0  0
  184.4560  180.3950  139.1320 O   0  0  0  0  0  1  0  0  0  0  0  0
  185.4460  178.0690  137.6350 O   0  0  0  0  0  1  0  0  0  0  0  0
  184.3120  178.1150  138.4480 C   0  0  2  0  0  3  0  0  0  0  0  0
  183.2290  178.5160  137.6890 F   0  0  0  0  0  0  0  0  0  0  0  0
  1  2  1  0  0  0  0
  2  5  2  0  0  0  0
  3  1  1  0  0  0  0
  4  7  2  0  0  0  0
  6  4  1  0  0  0  0
  6  1  2  0  0  0  0
  7  5  1  0  0  0  0
  8 10  1  0  0  0  0
  9  8  2  0  0  0  0
 10 12  1  0  0  0  0
 11 14  1  0  0  0  0
 13  9  1  0  0  0  0
 13 11  2  0  0  0  0
 14 12  2  0  0  0  0
 14  4  1  0  0  0  0
 16 15  2  0  0  0  0
 16 17  1  0  0  0  0
 17 13  1  0  0  0  0
 18 16  1  0  0  0  0
 19  6  1  0  0  0  0
 20 19  1  0  0  0  0
 21 20  1  0  0  0  0
 22 26  1  6  0  0  0
 22 23  1  0  0  0  0
 22 24  1  0  0  0  0
 23 24  1  0  0  0  0
 24 21  1  0  0  0  0
 24 25  1  1  0  0  0
 26 27  1  6  0  0  0
 29 28  1  6  0  0  0
 29 26  1  0  0  0  0
 30 29  1  0  0  0  0
M  END
>  <MODEL>
3

>  <REMARK>
 VINA RESULT:      -7.7      2.813      5.129
  Name = 
  8 active torsions:
  status: ('A' for Active; 'I' for Inactive)
    1  A    between atoms: O_1  and  C_4
    2  A    between atoms: O_1  and  S_5
    3  A    between atoms: C_4  and  C_27
    4  A    between atoms: S_5  and  C_22
    5  A    between atoms: C_8  and  C_12
    6  A    between atoms: C_9  and  C_12
    7  A    between atoms: N_16  and  C_25
    8  A    between atoms: C_19  and  C_29
                            x       y       z     vdW  Elec       q    Type
                         _______ _______ _______ _____ _____    ______ ____

>  <TORSDO>
F 8

$$$$
=
 OpenBabel10272413483D

 30 32  0  0  1  0  0  0  0  0999 V2000
  185.5480  178.2100  144.3570 C   0  0  0  0  0  0  0  0  0  0  0  0
  184.9960  178.6510  145.5610 C   0  0  0  0  0  3  0  0  0  0  0  0
  184.5020  178.1570  142.9460 Cl  0  0  0  0  0  0  0  0  0  0  0  0
  187.6980  177.8830  145.4710 C   0  0  0  0  0  0  0  0  0  0  0  0
  185.7730  178.7020  146.7160 C   0  0  0  0  0  3  0  0  0  0  0  0
  186.8980  177.8030  144.3020 C   0  0  0  0  0  0  0  0  0  0  0  0
  187.1130  178.3240  146.6690 C   0  0  0  0  0  3  0  0  0  0  0  0
  191.6710  175.9620  145.8490 N   0  0  0  0  0  0  0  0  0  0  0  0
  191.6460  176.0830  144.5560 C   0  0  0  0  0  3  0  0  0  0  0  0
  191.1900  176.9810  146.7680 C   0  0  0  0  0  2  0  0  0  0  0  0
  189.9330  177.8450  144.2440 C   0  0  0  0  0  3  0  0  0  0  0  0
  189.7200  177.1780  146.6140 C   0  0  0  0  0  3  0  0  0  0  0  0
  191.0540  177.2340  143.8360 C   0  0  0  0  0  0  0  0  0  0  0  0
  189.1460  177.5680  145.4710 C   0  0  0  0  0  0  0  0  0  0  0  0
  190.5140  176.0700  141.1790 O   0  0  0  0  0  0  0  0  0  0  0  0
  191.2730  177.0690  141.2870 C   0  0  0  0  0  0  0  0  0  0  0  0
  191.5820  177.6370  142.5660 N   0  0  0  0  0  2  0  0  0  0  0  0
  191.8750  177.6610  140.0650 C   0  0  0  0  0  1  0  0  0  0  0  0
  187.5530  177.1160  142.7660 S   0  0  0  0  0  0  0  0  0  0  0  0
  187.2110  178.5500  141.8850 O   0  0  0  0  0  0  0  0  0  0  0  0
  187.9390  178.4440  140.6990 C   0  0  0  0  0  2  0  0  0  0  0  0
  187.4760  178.3120  138.0910 C   0  0  1  0  0  3  0  0  0  0  0  0
  187.2400  176.9620  138.7600 C   0  0  0  0  0  2  0  0  0  0  0  0
  186.9820  178.2350  139.5300 C   0  0  1  0  0  0  0  0  0  0  0  0
  185.5090  178.5440  139.7150 C   0  0  0  0  0  1  0  0  0  0  0  0
  188.9710  178.5850  137.9680 C   0  0  2  0  0  3  0  0  0  0  0  0
  189.1790  179.9630  137.8810 O   0  0  0  0  0  1  0  0  0  0  0  0
  188.5160  177.8110  135.7500 O   0  0  0  0  0  1  0  0  0  0  0  0
  189.5180  177.9090  136.7170 C   0  0  2  0  0  3  0  0  0  0  0  0
  189.9800  176.6410  137.0200 F   0  0  0  0  0  0  0  0  0  0  0  0
  1  2  1  0  0  0  0
  2  5  2  0  0  0  0
  3  1  1  0  0  0  0
  4  7  2  0  0  0  0
  6  1  2  0  0  0  0
  6  4  1  0  0  0  0
  7  5  1  0  0  0  0
  8 10  1  0  0  0  0
  9  8  2  0  0  0  0
 11 14  1  0  0  0  0
 12 10  1  0  0  0  0
 13 11  2  0  0  0  0
 13  9  1  0  0  0  0
 14  4  1  0  0  0  0
 14 12  2  0  0  0  0
 15 16  2  0  0  0  0
 16 17  1  0  0  0  0
 17 13  1  0  0  0  0
 18 16  1  0  0  0  0
 19  6  1  0  0  0  0
 20 19  1  0  0  0  0
 21 20  1  0  0  0  0
 22 26  1  1  0  0  0
 22 23  1  0  0  0  0
 22 24  1  0  0  0  0
 23 24  1  0  0  0  0
 24 25  1  1  0  0  0
 24 21  1  0  0  0  0
 26 27  1  6  0  0  0
 29 28  1  6  0  0  0
 29 30  1  0  0  0  0
 29 26  1  0  0  0  0
M  END
>  <MODEL>
4

>  <REMARK>
 VINA RESULT:      -7.5      2.772      4.721
  Name = 
  8 active torsions:
  status: ('A' for Active; 'I' for Inactive)
    1  A    between atoms: O_1  and  C_4
    2  A    between atoms: O_1  and  S_5
    3  A    between atoms: C_4  and  C_27
    4  A    between atoms: S_5  and  C_22
    5  A    between atoms: C_8  and  C_12
    6  A    between atoms: C_9  and  C_12
    7  A    between atoms: N_16  and  C_25
    8  A    between atoms: C_19  and  C_29
                            x       y       z     vdW  Elec       q    Type
                         _______ _______ _______ _____ _____    ______ ____

>  <TORSDO>
F 8

$$$$
=
 OpenBabel10272413483D

 30 32  0  0  1  0  0  0  0  0999 V2000
  185.9720  177.9070  145.7330 C   0  0  0  0  0  0  0  0  0  0  0  0
  184.9420  178.5870  146.3850 C   0  0  0  0  0  3  0  0  0  0  0  0
  187.2550  177.2210  146.7190 Cl  0  0  0  0  0  0  0  0  0  0  0  0
  184.9060  178.3650  143.5830 C   0  0  0  0  0  0  0  0  0  0  0  0
  183.9060  179.1630  145.6540 C   0  0  0  0  0  3  0  0  0  0  0  0
  185.9770  177.8050  144.3260 C   0  0  0  0  0  0  0  0  0  0  0  0
  183.8870  179.0490  144.2660 C   0  0  0  0  0  3  0  0  0  0  0  0
  183.7510  178.6700  139.3180 N   0  0  0  0  0  0  0  0  0  0  0  0
  184.9460  179.1670  139.2220 C   0  0  0  0  0  3  0  0  0  0  0  0
  183.4100  177.5300  140.1540 C   0  0  0  0  0  2  0  0  0  0  0  0
  186.0160  178.3170  141.2880 C   0  0  0  0  0  3  0  0  0  0  0  0
  183.6080  177.8560  141.5960 C   0  0  0  0  0  3  0  0  0  0  0  0
  186.1120  178.6960  140.0060 C   0  0  0  0  0  0  0  0  0  0  0  0
  184.7870  178.2150  142.1130 C   0  0  0  0  0  0  0  0  0  0  0  0
  187.3270  177.0430  137.8850 O   0  0  0  0  0  0  0  0  0  0  0  0
  187.9820  177.9860  138.4030 C   0  0  0  0  0  0  0  0  0  0  0  0
  187.4330  178.7860  139.4570 N   0  0  0  0  0  2  0  0  0  0  0  0
  189.3600  178.2650  137.9220 C   0  0  0  0  0  1  0  0  0  0  0  0
  187.3840  177.0330  143.4990 S   0  0  0  0  0  0  0  0  0  0  0  0
  188.4100  178.3720  143.8190 O   0  0  0  0  0  0  0  0  0  0  0  0
  189.1340  178.0240  144.9610 C   0  0  0  0  0  2  0  0  0  0  0  0
  191.6080  177.2470  145.5180 C   0  0  1  0  0  3  0  0  0  0  0  0
  191.1250  176.6400  144.2050 C   0  0  0  0  0  2  0  0  0  0  0  0
  190.6230  178.0000  144.6320 C   0  0  1  0  0  0  0  0  0  0  0  0
  191.2250  179.1440  143.8400 C   0  0  0  0  0  1  0  0  0  0  0  0
  190.9540  176.5380  146.6990 C   0  0  2  0  0  3  0  0  0  0  0  0
  190.5860  177.4860  147.6550 O   0  0  0  0  0  1  0  0  0  0  0  0
  192.7500  176.2010  148.2440 O   0  0  0  0  0  1  0  0  0  0  0  0
  191.9360  175.5490  147.3160 C   0  0  2  0  0  3  0  0  0  0  0  0
  192.7310  174.9860  146.3340 F   0  0  0  0  0  0  0  0  0  0  0  0
  1  2  1  0  0  0  0
  1  3  1  0  0  0  0
  4  7  2  0  0  0  0
  4  6  1  0  0  0  0
  5  2  2  0  0  0  0
  6  1  2  0  0  0  0
  7  5  1  0  0  0  0
  8 10  1  0  0  0  0
  9  8  2  0  0  0  0
  9 13  1  0  0  0  0
 10 12  1  0  0  0  0
 11 14  1  0  0  0  0
 12 14  2  0  0  0  0
 13 11  2  0  0  0  0
 14  4  1  0  0  0  0
 15 16  2  0  0  0  0
 16 17  1  0  0  0  0
 17 13  1  0  0  0  0
 18 16  1  0  0  0  0
 19 20  1  0  0  0  0
 19  6  1  0  0  0  0
 20 21  1  0  0  0  0
 22 26  1  1  0  0  0
 23 24  1  0  0  0  0
 23 22  1  0  0  0  0
 24 25  1  6  0  0  0
 24 21  1  0  0  0  0
 24 22  1  0  0  0  0
 26 29  1  0  0  0  0
 26 27  1  1  0  0  0
 29 30  1  6  0  0  0
 29 28  1  0  0  0  0
M  END
>  <MODEL>
5

>  <REMARK>
 VINA RESULT:      -7.4      3.375      6.780
  Name = 
  8 active torsions:
  status: ('A' for Active; 'I' for Inactive)
    1  A    between atoms: O_1  and  C_4
    2  A    between atoms: O_1  and  S_5
    3  A    between atoms: C_4  and  C_27
    4  A    between atoms: S_5  and  C_22
    5  A    between atoms: C_8  and  C_12
    6  A    between atoms: C_9  and  C_12
    7  A    between atoms: N_16  and  C_25
    8  A    between atoms: C_19  and  C_29
                            x       y       z     vdW  Elec       q    Type
                         _______ _______ _______ _____ _____    ______ ____

>  <TORSDO>
F 8

$$$$
=
 OpenBabel10272413483D

 30 32  0  0  1  0  0  0  0  0999 V2000
  189.8090  177.6050  139.8190 C   0  0  0  0  0  0  0  0  0  0  0  0
  190.0440  177.9780  138.4940 C   0  0  0  0  0  3  0  0  0  0  0  0
  191.1550  176.9470  140.7370 Cl  0  0  0  0  0  0  0  0  0  0  0  0
  187.4750  178.2910  139.5910 C   0  0  0  0  0  0  0  0  0  0  0  0
  189.0120  178.4920  137.7140 C   0  0  0  0  0  3  0  0  0  0  0  0
  188.5200  177.7380  140.3760 C   0  0  0  0  0  0  0  0  0  0  0  0
  187.7400  178.6510  138.2600 C   0  0  0  0  0  3  0  0  0  0  0  0
  183.2140  178.0800  140.7800 N   0  0  0  0  0  0  0  0  0  0  0  0
  183.7390  178.0520  141.9670 C   0  0  0  0  0  3  0  0  0  0  0  0
  183.6960  178.9250  139.7000 C   0  0  0  0  0  2  0  0  0  0  0  0
  185.9940  178.9860  141.5470 C   0  0  0  0  0  3  0  0  0  0  0  0
  185.0770  178.5300  139.2980 C   0  0  0  0  0  3  0  0  0  0  0  0
  184.9470  178.8120  142.3650 C   0  0  0  0  0  0  0  0  0  0  0  0
  186.1210  178.5540  140.1330 C   0  0  0  0  0  0  0  0  0  0  0  0
  185.9890  177.3010  144.6750 O   0  0  0  0  0  0  0  0  0  0  0  0
  185.6460  178.5050  144.8120 C   0  0  0  0  0  0  0  0  0  0  0  0
  185.1050  179.2560  143.7180 N   0  0  0  0  0  2  0  0  0  0  0  0
  185.7880  179.1560  146.1400 C   0  0  0  0  0  1  0  0  0  0  0  0
  188.2110  177.1310  142.0480 S   0  0  0  0  0  0  0  0  0  0  0  0
  189.0640  178.4370  142.7660 O   0  0  0  0  0  0  0  0  0  0  0  0
  189.3890  178.0080  144.0540 C   0  0  0  0  0  2  0  0  0  0  0  0
  191.5640  177.6050  145.5180 C   0  0  1  0  0  3  0  0  0  0  0  0
  191.6900  176.9380  144.1520 C   0  0  0  0  0  2  0  0  0  0  0  0
  190.8830  178.2060  144.2950 C   0  0  1  0  0  0  0  0  0  0  0  0
  191.5690  179.4300  143.7210 C   0  0  0  0  0  1  0  0  0  0  0  0
  190.6260  176.8020  146.4120 C   0  0  2  0  0  3  0  0  0  0  0  0
  189.7480  177.6760  147.0560 O   0  0  0  0  0  1  0  0  0  0  0  0
  192.1990  176.9240  148.2110 O   0  0  0  0  0  1  0  0  0  0  0  0
  191.4340  176.0370  147.4530 C   0  0  2  0  0  3  0  0  0  0  0  0
  192.2750  175.1290  146.8350 F   0  0  0  0  0  0  0  0  0  0  0  0
  1  6  1  0  0  0  0
  1  3  1  0  0  0  0
  2  1  2  0  0  0  0
  4 14  1  0  0  0  0
  4  6  2  0  0  0  0
  5  7  2  0  0  0  0
  5  2  1  0  0  0  0
  6 19  1  0  0  0  0
  7  4  1  0  0  0  0
  8  9  2  0  0  0  0
  9 13  1  0  0  0  0
 10  8  1  0  0  0  0
 11 13  2  0  0  0  0
 12 10  1  0  0  0  0
 12 14  2  0  0  0  0
 13 17  1  0  0  0  0
 14 11  1  0  0  0  0
 15 16  2  0  0  0  0
 16 18  1  0  0  0  0
 17 16  1  0  0  0  0
 19 20  1  0  0  0  0
 20 21  1  0  0  0  0
 21 24  1  0  0  0  0
 22 26  1  1  0  0  0
 23 24  1  0  0  0  0
 23 22  1  0  0  0  0
 24 25  1  6  0  0  0
 24 22  1  0  0  0  0
 26 27  1  1  0  0  0
 26 29  1  0  0  0  0
 29 30  1  6  0  0  0
 29 28  1  0  0  0  0
M  END
>  <MODEL>
6

>  <REMARK>
 VINA RESULT:      -7.3      3.204      6.784
  Name = 
  8 active torsions:
  status: ('A' for Active; 'I' for Inactive)
    1  A    between atoms: O_1  and  C_4
    2  A    between atoms: O_1  and  S_5
    3  A    between atoms: C_4  and  C_27
    4  A    between atoms: S_5  and  C_22
    5  A    between atoms: C_8  and  C_12
    6  A    between atoms: C_9  and  C_12
    7  A    between atoms: N_16  and  C_25
    8  A    between atoms: C_19  and  C_29
                            x       y       z     vdW  Elec       q    Type
                         _______ _______ _______ _____ _____    ______ ____

>  <TORSDO>
F 8

$$$$
=
 OpenBabel10272413483D

 30 32  0  0  1  0  0  0  0  0999 V2000
  184.6960  178.9940  144.8720 C   0  0  0  0  0  0  0  0  0  0  0  0
  184.6540  178.7180  146.2390 C   0  0  0  0  0  3  0  0  0  0  0  0
  183.3440  179.8710  144.1690 Cl  0  0  0  0  0  0  0  0  0  0  0  0
  186.8550  177.8630  144.7170 C   0  0  0  0  0  0  0  0  0  0  0  0
  185.6900  178.0150  146.8480 C   0  0  0  0  0  3  0  0  0  0  0  0
  185.7850  178.5530  144.0910 C   0  0  0  0  0  0  0  0  0  0  0  0
  186.7820  177.5950  146.0930 C   0  0  0  0  0  3  0  0  0  0  0  0
  190.4200  177.6570  142.0960 N   0  0  0  0  0  0  0  0  0  0  0  0
  191.0300  177.6190  143.2410 C   0  0  0  0  0  3  0  0  0  0  0  0
  189.1830  176.9480  141.8110 C   0  0  0  0  0  2  0  0  0  0  0  0
  189.2130  176.8920  144.7600 C   0  0  0  0  0  3  0  0  0  0  0  0
  188.0680  177.4770  142.6490 C   0  0  0  0  0  3  0  0  0  0  0  0
  190.5140  176.9160  144.4390 C   0  0  0  0  0  0  0  0  0  0  0  0
  188.0790  177.4550  143.9860 C   0  0  0  0  0  0  0  0  0  0  0  0
  190.4460  177.1730  147.3790 O   0  0  0  0  0  0  0  0  0  0  0  0
  191.3440  176.4840  146.8260 C   0  0  0  0  0  0  0  0  0  0  0  0
  191.4250  176.3670  145.4000 N   0  0  0  0  0  2  0  0  0  0  0  0
  192.3530  175.7920  147.6700 C   0  0  0  0  0  1  0  0  0  0  0  0
  185.7560  178.8090  142.3040 S   0  0  0  0  0  0  0  0  0  0  0  0
  184.2800  177.9490  142.1250 O   0  0  0  0  0  0  0  0  0  0  0  0
  183.4080  178.8330  141.4870 C   0  0  0  0  0  2  0  0  0  0  0  0
  183.4570  177.9530  138.9850 C   0  0  1  0  0  3  0  0  0  0  0  0
  183.3580  176.7950  139.9730 C   0  0  0  0  0  2  0  0  0  0  0  0
  182.7340  178.1270  140.3150 C   0  0  1  0  0  0  0  0  0  0  0  0
  181.2200  178.1290  140.2210 C   0  0  0  0  0  1  0  0  0  0  0  0
  184.8730  178.5200  138.9770 C   0  0  2  0  0  3  0  0  0  0  0  0
  184.8090  179.9080  138.8440 O   0  0  0  0  0  1  0  0  0  0  0  0
  186.6070  178.8530  137.3630 O   0  0  0  0  0  1  0  0  0  0  0  0
  185.6580  177.9330  137.8100 C   0  0  2  0  0  3  0  0  0  0  0  0
  184.8050  177.6200  136.7680 F   0  0  0  0  0  0  0  0  0  0  0  0
  1  2  1  0  0  0  0
  2  5  2  0  0  0  0
  3  1  1  0  0  0  0
  4  7  2  0  0  0  0
  6  4  1  0  0  0  0
  6  1  2  0  0  0  0
  7  5  1  0  0  0  0
  8  9  2  0  0  0  0
  9 13  1  0  0  0  0
 10  8  1  0  0  0  0
 10 12  1  0  0  0  0
 12 14  2  0  0  0  0
 13 11  2  0  0  0  0
 13 17  1  0  0  0  0
 14  4  1  0  0  0  0
 14 11  1  0  0  0  0
 16 15  2  0  0  0  0
 16 18  1  0  0  0  0
 17 16  1  0  0  0  0
 19  6  1  0  0  0  0
 20 19  1  0  0  0  0
 21 20  1  0  0  0  0
 22 26  1  1  0  0  0
 22 23  1  0  0  0  0
 22 24  1  0  0  0  0
 23 24  1  0  0  0  0
 24 25  1  6  0  0  0
 24 21  1  0  0  0  0
 26 27  1  6  0  0  0
 28 29  1  0  0  0  0
 29 30  1  6  0  0  0
 29 26  1  0  0  0  0
M  END
>  <MODEL>
7

>  <REMARK>
 VINA RESULT:      -7.1      3.095      5.953
  Name = 
  8 active torsions:
  status: ('A' for Active; 'I' for Inactive)
    1  A    between atoms: O_1  and  C_4
    2  A    between atoms: O_1  and  S_5
    3  A    between atoms: C_4  and  C_27
    4  A    between atoms: S_5  and  C_22
    5  A    between atoms: C_8  and  C_12
    6  A    between atoms: C_9  and  C_12
    7  A    between atoms: N_16  and  C_25
    8  A    between atoms: C_19  and  C_29
                            x       y       z     vdW  Elec       q    Type
                         _______ _______ _______ _____ _____    ______ ____

>  <TORSDO>
F 8

$$$$
=
 OpenBabel10272413483D

 30 32  0  0  1  0  0  0  0  0999 V2000
  182.9060  177.2200  139.3870 C   0  0  0  0  0  0  0  0  0  0  0  0
  182.4190  176.1750  138.6000 C   0  0  0  0  0  3  0  0  0  0  0  0
  181.8630  177.8490  140.6530 Cl  0  0  0  0  0  0  0  0  0  0  0  0
  184.9920  177.1960  138.1150 C   0  0  0  0  0  0  0  0  0  0  0  0
  183.1960  175.6450  137.5730 C   0  0  0  0  0  3  0  0  0  0  0  0
  184.1880  177.7560  139.1410 C   0  0  0  0  0  0  0  0  0  0  0  0
  184.4720  176.1500  137.3360 C   0  0  0  0  0  3  0  0  0  0  0  0
  188.6860  179.5160  137.3460 N   0  0  0  0  0  0  0  0  0  0  0  0
  188.9880  179.0740  138.5280 C   0  0  0  0  0  3  0  0  0  0  0  0
  188.0210  178.7200  136.3270 C   0  0  0  0  0  2  0  0  0  0  0  0
  187.4600  177.1360  138.7510 C   0  0  0  0  0  3  0  0  0  0  0  0
  186.6420  178.3530  136.7610 C   0  0  0  0  0  3  0  0  0  0  0  0
  188.6290  177.7280  139.0330 C   0  0  0  0  0  0  0  0  0  0  0  0
  186.3840  177.6360  137.8610 C   0  0  0  0  0  0  0  0  0  0  0  0
  188.9790  178.3560  141.8950 O   0  0  0  0  0  0  0  0  0  0  0  0
  189.5920  177.3820  141.3840 C   0  0  0  0  0  0  0  0  0  0  0  0
  189.4700  177.0710  139.9910 N   0  0  0  0  0  2  0  0  0  0  0  0
  190.4740  176.5480  142.2400 C   0  0  0  0  0  1  0  0  0  0  0  0
  184.7440  179.1900  140.0870 S   0  0  0  0  0  0  0  0  0  0  0  0
  184.9950  178.2580  141.5070 O   0  0  0  0  0  0  0  0  0  0  0  0
  185.3670  179.1720  142.4940 C   0  0  0  0  0  2  0  0  0  0  0  0
  185.4940  178.0330  144.8860 C   0  0  1  0  0  3  0  0  0  0  0  0
  185.2690  179.5370  145.0050 C   0  0  0  0  0  2  0  0  0  0  0  0
  184.7130  178.7880  143.8170 C   0  0  1  0  0  0  0  0  0  0  0  0
  183.2100  178.5960  143.8720 C   0  0  0  0  0  1  0  0  0  0  0  0
  186.9410  177.7450  144.5020 C   0  0  2  0  0  3  0  0  0  0  0  0
  186.9980  176.5310  143.8140 O   0  0  0  0  0  1  0  0  0  0  0  0
  188.9780  176.9620  145.4810 O   0  0  0  0  0  1  0  0  0  0  0  0
  187.8010  177.6590  145.7570 C   0  0  2  0  0  3  0  0  0  0  0  0
  187.1150  177.0080  146.7650 F   0  0  0  0  0  0  0  0  0  0  0  0
  1  3  1  0  0  0  0
  2  1  2  0  0  0  0
  4  6  2  0  0  0  0
  5  2  1  0  0  0  0
  6  1  1  0  0  0  0
  6 19  1  0  0  0  0
  7  5  2  0  0  0  0
  7  4  1  0  0  0  0
  8  9  2  0  0  0  0
  9 13  1  0  0  0  0
 10 12  1  0  0  0  0
 10  8  1  0  0  0  0
 11 13  2  0  0  0  0
 12 14  2  0  0  0  0
 13 17  1  0  0  0  0
 14  4  1  0  0  0  0
 14 11  1  0  0  0  0
 16 15  2  0  0  0  0
 16 18  1  0  0  0  0
 17 16  1  0  0  0  0
 19 20  1  0  0  0  0
 20 21  1  0  0  0  0
 21 24  1  0  0  0  0
 22 26  1  6  0  0  0
 22 23  1  0  0  0  0
 24 25  1  6  0  0  0
 24 22  1  0  0  0  0
 24 23  1  0  0  0  0
 26 27  1  1  0  0  0
 26 29  1  0  0  0  0
 29 28  1  6  0  0  0
 29 30  1  0  0  0  0
M  END
>  <MODEL>
8

>  <REMARK>
 VINA RESULT:      -7.1      3.922      8.067
  Name = 
  8 active torsions:
  status: ('A' for Active; 'I' for Inactive)
    1  A    between atoms: O_1  and  C_4
    2  A    between atoms: O_1  and  S_5
    3  A    between atoms: C_4  and  C_27
    4  A    between atoms: S_5  and  C_22
    5  A    between atoms: C_8  and  C_12
    6  A    between atoms: C_9  and  C_12
    7  A    between atoms: N_16  and  C_25
    8  A    between atoms: C_19  and  C_29
                            x       y       z     vdW  Elec       q    Type
                         _______ _______ _______ _____ _____    ______ ____

>  <TORSDO>
F 8

$$$$
=
 OpenBabel10272413483D

 30 32  0  0  1  0  0  0  0  0999 V2000
  190.7420  177.4780  142.5310 C   0  0  0  0  0  0  0  0  0  0  0  0
  191.5990  177.0650  143.5530 C   0  0  0  0  0  3  0  0  0  0  0  0
  191.4100  177.6330  140.9130 Cl  0  0  0  0  0  0  0  0  0  0  0  0
  188.9070  177.6210  144.1370 C   0  0  0  0  0  0  0  0  0  0  0  0
  191.1290  176.9380  144.8580 C   0  0  0  0  0  3  0  0  0  0  0  0
  189.3930  177.7800  142.8140 C   0  0  0  0  0  0  0  0  0  0  0  0
  189.7930  177.2100  145.1450 C   0  0  0  0  0  3  0  0  0  0  0  0
  185.0310  179.1770  145.6140 N   0  0  0  0  0  0  0  0  0  0  0  0
  184.7690  179.2020  144.3430 C   0  0  0  0  0  3  0  0  0  0  0  0
  185.7590  178.1030  146.2710 C   0  0  0  0  0  2  0  0  0  0  0  0
  186.4520  177.6220  143.4450 C   0  0  0  0  0  3  0  0  0  0  0  0
  187.1640  178.0370  145.7750 C   0  0  0  0  0  3  0  0  0  0  0  0
  185.2390  178.1860  143.3720 C   0  0  0  0  0  0  0  0  0  0  0  0
  187.4820  177.8220  144.4940 C   0  0  0  0  0  0  0  0  0  0  0  0
  185.2510  179.5560  140.7580 O   0  0  0  0  0  0  0  0  0  0  0  0
  184.5110  178.5530  140.9420 C   0  0  0  0  0  0  0  0  0  0  0  0
  184.4570  177.8860  142.2090 N   0  0  0  0  0  2  0  0  0  0  0  0
  183.6630  178.0610  139.8250 C   0  0  0  0  0  1  0  0  0  0  0  0
  188.3390  178.4350  141.5030 S   0  0  0  0  0  0  0  0  0  0  0  0
  189.1260  177.5020  140.2940 O   0  0  0  0  0  0  0  0  0  0  0  0
  188.1630  177.2790  139.3090 C   0  0  0  0  0  2  0  0  0  0  0  0
  189.5330  176.7500  137.0990 C   0  0  1  0  0  3  0  0  0  0  0  0
  188.0620  177.0040  136.7860 C   0  0  0  0  0  2  0  0  0  0  0  0
  188.7120  177.7100  137.9520 C   0  0  1  0  0  0  0  0  0  0  0  0
  188.9830  179.1800  137.6970 C   0  0  0  0  0  1  0  0  0  0  0  0
  189.7080  175.3700  137.7230 C   0  0  2  0  0  3  0  0  0  0  0  0
  190.8800  175.3570  138.4840 O   0  0  0  0  0  1  0  0  0  0  0  0
  188.6450  173.5380  136.6110 O   0  0  0  0  0  1  0  0  0  0  0  0
  189.8030  174.3160  136.6270 C   0  0  2  0  0  3  0  0  0  0  0  0
  190.8950  173.4960  136.8440 F   0  0  0  0  0  0  0  0  0  0  0  0
  1  6  2  0  0  0  0
  1  2  1  0  0  0  0
  2  5  2  0  0  0  0
  3  1  1  0  0  0  0
  4 14  1  0  0  0  0
  4  7  2  0  0  0  0
  5  7  1  0  0  0  0
  6  4  1  0  0  0  0
  8 10  1  0  0  0  0
  9  8  2  0  0  0  0
 11 14  1  0  0  0  0
 12 10  1  0  0  0  0
 13 11  2  0  0  0  0
 13  9  1  0  0  0  0
 14 12  2  0  0  0  0
 15 16  2  0  0  0  0
 16 17  1  0  0  0  0
 17 13  1  0  0  0  0
 18 16  1  0  0  0  0
 19  6  1  0  0  0  0
 20 19  1  0  0  0  0
 21 20  1  0  0  0  0
 22 26  1  1  0  0  0
 22 24  1  0  0  0  0
 23 22  1  0  0  0  0
 23 24  1  0  0  0  0
 24 25  1  6  0  0  0
 24 21  1  0  0  0  0
 26 27  1  6  0  0  0
 29 28  1  1  0  0  0
 29 30  1  0  0  0  0
 29 26  1  0  0  0  0
M  END
>  <MODEL>
9

>  <REMARK>
 VINA RESULT:      -7.1      1.853      2.302
  Name = 
  8 active torsions:
  status: ('A' for Active; 'I' for Inactive)
    1  A    between atoms: O_1  and  C_4
    2  A    between atoms: O_1  and  S_5
    3  A    between atoms: C_4  and  C_27
    4  A    between atoms: S_5  and  C_22
    5  A    between atoms: C_8  and  C_12
    6  A    between atoms: C_9  and  C_12
    7  A    between atoms: N_16  and  C_25
    8  A    between atoms: C_19  and  C_29
                            x       y       z     vdW  Elec       q    Type
                         _______ _______ _______ _____ _____    ______ ____

>  <TORSDO>
F 8

$$$$
