=
 OpenBabel10272413593D

 30 30  0  0  1  0  0  0  0  0999 V2000
  188.2250  178.4210  139.8150 C   0  0  0  0  0  0  0  0  0  0  0  0
  184.9560  177.8220  138.6310 C   0  0  0  0  0  2  0  0  0  0  0  0
  184.6420  178.7350  139.8150 C   0  0  1  0  0  3  0  0  0  0  0  0
  187.6020  177.3410  139.1920 O   0  0  0  0  0  0  0  0  0  0  0  0
  188.9060  179.2430  139.1450 O   0  0  0  0  0  0  0  0  0  0  0  0
  185.9910  178.3370  137.8230 O   0  0  0  0  0  0  0  0  0  0  0  0
  187.0970  177.4580  137.8680 C   0  0  2  0  0  3  0  0  0  0  0  0
  187.9720  178.6840  141.2640 C   0  0  1  0  0  3  0  0  0  0  0  0
  185.4420  178.3560  141.0690 C   0  0  1  0  0  3  0  0  0  0  0  0
  184.7680  180.0860  139.4770 O   0  0  0  0  0  1  0  0  0  0  0  0
  186.7940  176.0890  137.2700 C   0  0  0  0  0  1  0  0  0  0  0  0
  186.5840  179.3180  141.4240 C   0  0  0  0  0  2  0  0  0  0  0  0
  188.1680  177.4300  142.1320 C   0  0  1  0  0  3  0  0  0  0  0  0
  189.3130  176.5760  141.5960 C   0  0  0  0  0  1  0  0  0  0  0  0
  188.3810  177.7910  143.6100 C   0  0  1  0  0  3  0  0  0  0  0  0
  187.3250  177.1750  144.5280 C   0  0  0  0  0  2  0  0  0  0  0  0
  186.3780  178.2130  145.1050 C   0  0  0  0  0  2  0  0  0  0  0  0
  185.2810  178.6960  146.8820 O   0  0  0  0  0  1  0  0  0  0  0  0
  186.4170  178.1570  146.4970 O   0  0  0  0  0  0  0  0  0  0  0  0
  189.6820  177.5020  144.0480 O   0  0  0  0  0  0  0  0  0  0  0  0
  189.5380  177.0820  145.3290 N   0  0  0  0  0  2  0  0  0  0  0  0
  191.8190  177.2340  145.7990 O   0  0  0  0  0  0  0  0  0  0  0  0
  190.4560  176.6280  147.5390 O   0  0  0  0  0  1  0  0  0  0  0  0
  190.6540  176.9920  146.2140 C   0  0  0  0  0  0  0  0  0  0  0  0
  184.5310  178.0870  142.2690 C   0  0  0  0  0  2  0  0  0  0  0  0
  182.3630  178.9070  143.1280 C   0  0  0  0  0  3  0  0  0  0  0  0
  183.1350  178.6060  142.0810 C   0  0  0  0  0  3  0  0  0  0  0  0
  180.9620  179.4180  142.9670 C   0  0  0  0  0  3  0  0  0  0  0  0
  179.9830  178.6000  143.7900 C   0  0  0  0  0  1  0  0  0  0  0  0
  180.5420  179.4210  141.5080 C   0  0  0  0  0  1  0  0  0  0  0  0
  1  8  1  0  0  0  0
  2  3  1  0  0  0  0
  3 10  1  6  0  0  0
  3  9  1  0  0  0  0
  4  1  1  0  0  0  0
  5  1  2  0  0  0  0
  6  7  1  0  0  0  0
  6  2  1  0  0  0  0
  7 11  1  1  0  0  0
  7  4  1  0  0  0  0
  8 12  1  0  0  0  0
  8 13  1  1  0  0  0
  9 12  1  0  0  0  0
  9 25  1  1  0  0  0
 13 14  1  6  0  0  0
 13 15  1  0  0  0  0
 15 20  1  0  0  0  0
 15 16  1  1  0  0  0
 16 17  1  0  0  0  0
 17 19  1  0  0  0  0
 19 18  1  0  0  0  0
 20 21  1  0  0  0  0
 21 24  1  0  0  0  0
 22 24  2  0  0  0  0
 24 23  1  0  0  0  0
 27 25  1  0  0  0  0
 27 26  2  0  0  0  0
 28 26  1  0  0  0  0
 28 29  1  0  0  0  0
 30 28  1  0  0  0  0
M  END
>  <MODEL>
1

>  <REMARK>
 VINA RESULT:      -7.1      0.000      0.000
  Name = 
  10 active torsions:
  status: ('A' for Active; 'I' for Inactive)
    1  A    between atoms: C_1  and  C_4
    2  A    between atoms: C_1  and  C_22
    3  A    between atoms: C_4  and  C_9
    4  A    between atoms: C_4  and  O_12
    5  A    between atoms: C_7  and  C_23
    6  A    between atoms: C_7  and  C_25
    7  A    between atoms: N_8  and  O_12
    8  A    between atoms: C_9  and  C_21
    9  A    between atoms: C_10  and  C_15
   10  A    between atoms: O_17  and  C_21
                            x       y       z     vdW  Elec       q    Type
                         _______ _______ _______ _____ _____    ______ ____

>  <TORSDO>
F 10

$$$$
=
 OpenBabel10272413593D

 30 30  0  0  1  0  0  0  0  0999 V2000
  191.3810  177.6040  141.9340 C   0  0  0  0  0  0  0  0  0  0  0  0
  188.5920  177.3360  139.7890 C   0  0  0  0  0  2  0  0  0  0  0  0
  187.9720  178.1510  140.9230 C   0  0  1  0  0  3  0  0  0  0  0  0
  190.9340  176.6310  141.0400 O   0  0  0  0  0  0  0  0  0  0  0  0
  192.2580  178.4390  141.5860 O   0  0  0  0  0  0  0  0  0  0  0  0
  189.8370  177.8560  139.3790 O   0  0  0  0  0  0  0  0  0  0  0  0
  190.8490  176.9070  139.6480 C   0  0  2  0  0  3  0  0  0  0  0  0
  190.7180  177.7430  143.2660 C   0  0  1  0  0  3  0  0  0  0  0  0
  188.3510  177.6020  142.3060 C   0  0  1  0  0  3  0  0  0  0  0  0
  188.2400  179.5170  140.7880 O   0  0  0  0  0  1  0  0  0  0  0  0
  190.6900  175.6240  138.8410 C   0  0  0  0  0  1  0  0  0  0  0  0
  189.3680  178.4490  143.0820 C   0  0  0  0  0  2  0  0  0  0  0  0
  190.6050  176.4020  144.0090 C   0  0  1  0  0  3  0  0  0  0  0  0
  191.7900  175.5000  143.6790 C   0  0  0  0  0  1  0  0  0  0  0  0
  190.4570  176.6050  145.5250 C   0  0  1  0  0  3  0  0  0  0  0  0
  191.7990  176.5930  146.2560 C   0  0  0  0  0  2  0  0  0  0  0  0
  191.8120  175.6300  147.4320 C   0  0  0  0  0  2  0  0  0  0  0  0
  193.1760  176.4250  148.8820 O   0  0  0  0  0  1  0  0  0  0  0  0
  193.1090  175.5200  147.9300 O   0  0  0  0  0  0  0  0  0  0  0  0
  189.7050  177.7470  145.8390 O   0  0  0  0  0  0  0  0  0  0  0  0
  188.7350  177.3100  146.6790 N   0  0  0  0  0  2  0  0  0  0  0  0
  189.6240  178.4160  148.5310 O   0  0  0  0  0  0  0  0  0  0  0  0
  187.6530  177.2950  148.8610 O   0  0  0  0  0  1  0  0  0  0  0  0
  188.7020  177.7040  148.0500 C   0  0  0  0  0  0  0  0  0  0  0  0
  187.1150  177.2800  143.1510 C   0  0  0  0  0  2  0  0  0  0  0  0
  184.9000  178.2820  143.5940 C   0  0  0  0  0  3  0  0  0  0  0  0
  185.8970  178.0510  142.7360 C   0  0  0  0  0  3  0  0  0  0  0  0
  183.6670  179.0410  143.2010 C   0  0  0  0  0  3  0  0  0  0  0  0
  182.5590  178.8530  144.2210 C   0  0  0  0  0  1  0  0  0  0  0  0
  183.1840  178.6290  141.8220 C   0  0  0  0  0  1  0  0  0  0  0  0
  1  8  1  0  0  0  0
  2  3  1  0  0  0  0
  3 10  1  1  0  0  0
  3  9  1  0  0  0  0
  4  1  1  0  0  0  0
  5  1  2  0  0  0  0
  6  7  1  0  0  0  0
  6  2  1  0  0  0  0
  7 11  1  6  0  0  0
  7  4  1  0  0  0  0
  8 13  1  6  0  0  0
  9 12  1  0  0  0  0
  9 25  1  1  0  0  0
 12  8  1  0  0  0  0
 13 14  1  1  0  0  0
 13 15  1  0  0  0  0
 15 20  1  0  0  0  0
 15 16  1  1  0  0  0
 16 17  1  0  0  0  0
 17 19  1  0  0  0  0
 19 18  1  0  0  0  0
 20 21  1  0  0  0  0
 21 24  1  0  0  0  0
 24 22  2  0  0  0  0
 24 23  1  0  0  0  0
 27 25  1  0  0  0  0
 27 26  2  0  0  0  0
 28 26  1  0  0  0  0
 28 29  1  0  0  0  0
 30 28  1  0  0  0  0
M  END
>  <MODEL>
2

>  <REMARK>
 VINA RESULT:      -6.7      2.245      4.005
  Name = 
  10 active torsions:
  status: ('A' for Active; 'I' for Inactive)
    1  A    between atoms: C_1  and  C_4
    2  A    between atoms: C_1  and  C_22
    3  A    between atoms: C_4  and  C_9
    4  A    between atoms: C_4  and  O_12
    5  A    between atoms: C_7  and  C_23
    6  A    between atoms: C_7  and  C_25
    7  A    between atoms: N_8  and  O_12
    8  A    between atoms: C_9  and  C_21
    9  A    between atoms: C_10  and  C_15
   10  A    between atoms: O_17  and  C_21
                            x       y       z     vdW  Elec       q    Type
                         _______ _______ _______ _____ _____    ______ ____

>  <TORSDO>
F 10

$$$$
=
 OpenBabel10272413593D

 30 30  0  0  1  0  0  0  0  0999 V2000
  188.3700  178.3790  139.6900 C   0  0  0  0  0  0  0  0  0  0  0  0
  185.0250  177.7870  138.7370 C   0  0  0  0  0  2  0  0  0  0  0  0
  184.7950  178.6640  139.9660 C   0  0  1  0  0  3  0  0  0  0  0  0
  187.7080  177.3120  139.0840 O   0  0  0  0  0  0  0  0  0  0  0  0
  188.9940  179.2240  138.9940 O   0  0  0  0  0  0  0  0  0  0  0  0
  185.9930  178.3320  137.8680 O   0  0  0  0  0  0  0  0  0  0  0  0
  187.1040  177.4610  137.8060 C   0  0  2  0  0  3  0  0  0  0  0  0
  188.2240  178.5990  141.1610 C   0  0  1  0  0  3  0  0  0  0  0  0
  185.6890  178.2560  141.1460 C   0  0  1  0  0  3  0  0  0  0  0  0
  184.8880  180.0250  139.6580 O   0  0  0  0  0  1  0  0  0  0  0  0
  186.7660  176.1070  137.1940 C   0  0  0  0  0  1  0  0  0  0  0  0
  186.8490  179.2170  141.4410 C   0  0  0  0  0  2  0  0  0  0  0  0
  188.4920  177.3230  141.9750 C   0  0  1  0  0  3  0  0  0  0  0  0
  189.5090  176.4330  141.2660 C   0  0  0  0  0  1  0  0  0  0  0  0
  188.9360  177.6490  143.4100 C   0  0  1  0  0  3  0  0  0  0  0  0
  189.9370  178.8020  143.4710 C   0  0  0  0  0  2  0  0  0  0  0  0
  191.3700  178.3210  143.6300 C   0  0  0  0  0  2  0  0  0  0  0  0
  191.7940  177.4420  145.5370 O   0  0  0  0  0  1  0  0  0  0  0  0
  191.3820  177.1170  144.3310 O   0  0  0  0  0  0  0  0  0  0  0  0
  187.8470  177.8610  144.2690 O   0  0  0  0  0  0  0  0  0  0  0  0
  188.3030  177.5350  145.5040 N   0  0  0  0  0  2  0  0  0  0  0  0
  186.2910  178.0640  146.5580 O   0  0  0  0  0  0  0  0  0  0  0  0
  187.9450  177.2050  147.8900 O   0  0  0  0  0  1  0  0  0  0  0  0
  187.4640  177.6160  146.6540 C   0  0  0  0  0  0  0  0  0  0  0  0
  184.8720  177.9470  142.4020 C   0  0  0  0  0  2  0  0  0  0  0  0
  182.7760  178.9160  143.2860 C   0  0  0  0  0  3  0  0  0  0  0  0
  183.4260  178.3290  142.2780 C   0  0  0  0  0  3  0  0  0  0  0  0
  181.3300  179.2980  143.1900 C   0  0  0  0  0  3  0  0  0  0  0  0
  180.4680  178.4070  144.0670 C   0  0  0  0  0  1  0  0  0  0  0  0
  180.8420  179.2480  141.7540 C   0  0  0  0  0  1  0  0  0  0  0  0
  1  8  1  0  0  0  0
  2  3  1  0  0  0  0
  3 10  1  6  0  0  0
  3  9  1  0  0  0  0
  4  1  1  0  0  0  0
  5  1  2  0  0  0  0
  6  2  1  0  0  0  0
  7 11  1  1  0  0  0
  7  6  1  0  0  0  0
  7  4  1  0  0  0  0
  8 12  1  0  0  0  0
  8 13  1  1  0  0  0
  9 12  1  0  0  0  0
  9 25  1  1  0  0  0
 13 14  1  6  0  0  0
 13 15  1  0  0  0  0
 15 16  1  6  0  0  0
 15 20  1  0  0  0  0
 16 17  1  0  0  0  0
 17 19  1  0  0  0  0
 19 18  1  0  0  0  0
 20 21  1  0  0  0  0
 21 24  1  0  0  0  0
 22 24  2  0  0  0  0
 24 23  1  0  0  0  0
 27 25  1  0  0  0  0
 27 26  2  0  0  0  0
 28 26  1  0  0  0  0
 28 29  1  0  0  0  0
 30 28  1  0  0  0  0
M  END
>  <MODEL>
3

>  <REMARK>
 VINA RESULT:      -6.6      1.039      2.387
  Name = 
  10 active torsions:
  status: ('A' for Active; 'I' for Inactive)
    1  A    between atoms: C_1  and  C_4
    2  A    between atoms: C_1  and  C_22
    3  A    between atoms: C_4  and  C_9
    4  A    between atoms: C_4  and  O_12
    5  A    between atoms: C_7  and  C_23
    6  A    between atoms: C_7  and  C_25
    7  A    between atoms: N_8  and  O_12
    8  A    between atoms: C_9  and  C_21
    9  A    between atoms: C_10  and  C_15
   10  A    between atoms: O_17  and  C_21
                            x       y       z     vdW  Elec       q    Type
                         _______ _______ _______ _____ _____    ______ ____

>  <TORSDO>
F 10

$$$$
=
 OpenBabel10272413593D

 30 30  0  0  1  0  0  0  0  0999 V2000
  190.8390  177.1530  140.9310 C   0  0  0  0  0  0  0  0  0  0  0  0
  188.9060  177.2540  137.9820 C   0  0  0  0  0  2  0  0  0  0  0  0
  188.2690  178.4100  138.7500 C   0  0  1  0  0  3  0  0  0  0  0  0
  190.3950  176.1880  140.0290 O   0  0  0  0  0  0  0  0  0  0  0  0
  192.0000  177.6320  140.8390 O   0  0  0  0  0  0  0  0  0  0  0  0
  190.3140  177.3230  137.9870 O   0  0  0  0  0  0  0  0  0  0  0  0
  190.8310  176.2020  138.6750 C   0  0  2  0  0  3  0  0  0  0  0  0
  189.8840  177.7240  141.9300 C   0  0  1  0  0  3  0  0  0  0  0  0
  188.0090  178.0560  140.2220 C   0  0  1  0  0  3  0  0  0  0  0  0
  188.9920  179.5970  138.5960 O   0  0  0  0  0  1  0  0  0  0  0  0
  190.5200  174.8820  137.9810 C   0  0  0  0  0  1  0  0  0  0  0  0
  188.9590  178.7240  141.2250 C   0  0  0  0  0  2  0  0  0  0  0  0
  189.1230  176.6340  142.7030 C   0  0  1  0  0  3  0  0  0  0  0  0
  190.0140  175.4200  142.9450 C   0  0  0  0  0  1  0  0  0  0  0  0
  188.5410  177.1750  144.0190 C   0  0  1  0  0  3  0  0  0  0  0  0
  189.4990  178.1190  144.7450 C   0  0  0  0  0  2  0  0  0  0  0  0
  190.1790  177.4580  145.9320 C   0  0  0  0  0  2  0  0  0  0  0  0
  192.0350  176.7490  146.7350 O   0  0  0  0  0  1  0  0  0  0  0  0
  191.4980  177.1520  145.6040 O   0  0  0  0  0  0  0  0  0  0  0  0
  187.2750  177.7540  143.8430 O   0  0  0  0  0  0  0  0  0  0  0  0
  186.8000  177.9520  145.0980 N   0  0  0  0  0  2  0  0  0  0  0  0
  185.0390  179.3060  144.3870 O   0  0  0  0  0  0  0  0  0  0  0  0
  185.1300  178.8440  146.6290 O   0  0  0  0  0  1  0  0  0  0  0  0
  185.6260  178.7250  145.3380 C   0  0  0  0  0  0  0  0  0  0  0  0
  186.5420  178.2550  140.6070 C   0  0  0  0  0  2  0  0  0  0  0  0
  184.3410  178.7330  139.5880 C   0  0  0  0  0  3  0  0  0  0  0  0
  185.6540  178.5430  139.4320 C   0  0  0  0  0  3  0  0  0  0  0  0
  183.4310  179.0120  138.4290 C   0  0  0  0  0  3  0  0  0  0  0  0
  182.4520  180.1250  138.7570 C   0  0  0  0  0  1  0  0  0  0  0  0
  182.6800  177.7630  138.0060 C   0  0  0  0  0  1  0  0  0  0  0  0
  1  8  1  0  0  0  0
  2  6  1  0  0  0  0
  2  3  1  0  0  0  0
  3 10  1  1  0  0  0
  3  9  1  0  0  0  0
  4  1  1  0  0  0  0
  5  1  2  0  0  0  0
  6  7  1  0  0  0  0
  7 11  1  6  0  0  0
  7  4  1  0  0  0  0
  8 13  1  6  0  0  0
  9 25  1  1  0  0  0
  9 12  1  0  0  0  0
 12  8  1  0  0  0  0
 13 14  1  1  0  0  0
 13 15  1  0  0  0  0
 15 16  1  6  0  0  0
 16 17  1  0  0  0  0
 19 17  1  0  0  0  0
 19 18  1  0  0  0  0
 20 15  1  0  0  0  0
 20 21  1  0  0  0  0
 21 24  1  0  0  0  0
 22 24  2  0  0  0  0
 24 23  1  0  0  0  0
 27 26  2  0  0  0  0
 27 25  1  0  0  0  0
 28 29  1  0  0  0  0
 28 26  1  0  0  0  0
 30 28  1  0  0  0  0
M  END
>  <MODEL>
4

>  <REMARK>
 VINA RESULT:      -6.5      2.423      4.104
  Name = 
  10 active torsions:
  status: ('A' for Active; 'I' for Inactive)
    1  A    between atoms: C_1  and  C_4
    2  A    between atoms: C_1  and  C_22
    3  A    between atoms: C_4  and  C_9
    4  A    between atoms: C_4  and  O_12
    5  A    between atoms: C_7  and  C_23
    6  A    between atoms: C_7  and  C_25
    7  A    between atoms: N_8  and  O_12
    8  A    between atoms: C_9  and  C_21
    9  A    between atoms: C_10  and  C_15
   10  A    between atoms: O_17  and  C_21
                            x       y       z     vdW  Elec       q    Type
                         _______ _______ _______ _____ _____    ______ ____

>  <TORSDO>
F 10

$$$$
=
 OpenBabel10272413593D

 30 30  0  0  1  0  0  0  0  0999 V2000
  190.9130  177.2010  140.7550 C   0  0  0  0  0  0  0  0  0  0  0  0
  188.8720  177.2210  137.8770 C   0  0  0  0  0  2  0  0  0  0  0  0
  188.2660  178.4020  138.6350 C   0  0  1  0  0  3  0  0  0  0  0  0
  190.4340  176.2110  139.8980 O   0  0  0  0  0  0  0  0  0  0  0  0
  192.0710  177.6730  140.6060 O   0  0  0  0  0  0  0  0  0  0  0  0
  190.2800  177.2870  137.8290 O   0  0  0  0  0  0  0  0  0  0  0  0
  190.8200  176.1850  138.5300 C   0  0  2  0  0  3  0  0  0  0  0  0
  189.9970  177.8030  141.7720 C   0  0  1  0  0  3  0  0  0  0  0  0
  188.0610  178.0910  140.1240 C   0  0  1  0  0  3  0  0  0  0  0  0
  188.9860  179.5820  138.4200 O   0  0  0  0  0  1  0  0  0  0  0  0
  190.4810  174.8460  137.8860 C   0  0  0  0  0  1  0  0  0  0  0  0
  189.0480  178.7850  141.0730 C   0  0  0  0  0  2  0  0  0  0  0  0
  189.2620  176.7390  142.6040 C   0  0  1  0  0  3  0  0  0  0  0  0
  190.1820  175.5600  142.9070 C   0  0  0  0  0  1  0  0  0  0  0  0
  188.6710  177.3350  143.8910 C   0  0  1  0  0  3  0  0  0  0  0  0
  187.2300  176.8900  144.1400 C   0  0  0  0  0  2  0  0  0  0  0  0
  186.2370  178.0330  144.0040 C   0  0  0  0  0  2  0  0  0  0  0  0
  185.7560  179.2350  145.7110 O   0  0  0  0  0  1  0  0  0  0  0  0
  185.4370  178.0930  145.1430 O   0  0  0  0  0  0  0  0  0  0  0  0
  189.4870  177.1040  145.0080 O   0  0  0  0  0  0  0  0  0  0  0  0
  188.7840  177.5870  146.0630 N   0  0  0  0  0  2  0  0  0  0  0  0
  190.4600  177.0880  147.6080 O   0  0  0  0  0  0  0  0  0  0  0  0
  188.6100  178.1650  148.4230 O   0  0  0  0  0  1  0  0  0  0  0  0
  189.3310  177.5970  147.3810 C   0  0  0  0  0  0  0  0  0  0  0  0
  186.6090  178.3060  140.5580 C   0  0  0  0  0  2  0  0  0  0  0  0
  184.3830  178.8070  139.6070 C   0  0  0  0  0  3  0  0  0  0  0  0
  185.6730  178.5270  139.4060 C   0  0  0  0  0  3  0  0  0  0  0  0
  183.4250  179.0230  138.4740 C   0  0  0  0  0  3  0  0  0  0  0  0
  182.4600  180.1540  138.7790 C   0  0  0  0  0  1  0  0  0  0  0  0
  182.6580  177.7530  138.1530 C   0  0  0  0  0  1  0  0  0  0  0  0
  1  8  1  0  0  0  0
  2  3  1  0  0  0  0
  3 10  1  1  0  0  0
  3  9  1  0  0  0  0
  4  1  1  0  0  0  0
  5  1  2  0  0  0  0
  6  2  1  0  0  0  0
  6  7  1  0  0  0  0
  7 11  1  6  0  0  0
  7  4  1  0  0  0  0
  8 13  1  6  0  0  0
  9 25  1  1  0  0  0
  9 12  1  0  0  0  0
 12  8  1  0  0  0  0
 13 14  1  1  0  0  0
 13 15  1  0  0  0  0
 15 16  1  1  0  0  0
 15 20  1  0  0  0  0
 17 16  1  0  0  0  0
 17 19  1  0  0  0  0
 19 18  1  0  0  0  0
 20 21  1  0  0  0  0
 21 24  1  0  0  0  0
 24 22  2  0  0  0  0
 24 23  1  0  0  0  0
 27 26  2  0  0  0  0
 27 25  1  0  0  0  0
 28 29  1  0  0  0  0
 28 26  1  0  0  0  0
 30 28  1  0  0  0  0
M  END
>  <MODEL>
5

>  <REMARK>
 VINA RESULT:      -6.5      2.378      3.162
  Name = 
  10 active torsions:
  status: ('A' for Active; 'I' for Inactive)
    1  A    between atoms: C_1  and  C_4
    2  A    between atoms: C_1  and  C_22
    3  A    between atoms: C_4  and  C_9
    4  A    between atoms: C_4  and  O_12
    5  A    between atoms: C_7  and  C_23
    6  A    between atoms: C_7  and  C_25
    7  A    between atoms: N_8  and  O_12
    8  A    between atoms: C_9  and  C_21
    9  A    between atoms: C_10  and  C_15
   10  A    between atoms: O_17  and  C_21
                            x       y       z     vdW  Elec       q    Type
                         _______ _______ _______ _____ _____    ______ ____

>  <TORSDO>
F 10

$$$$
=
 OpenBabel10272413593D

 30 30  0  0  1  0  0  0  0  0999 V2000
  188.4410  178.4670  138.5990 C   0  0  0  0  0  0  0  0  0  0  0  0
  185.2710  178.1370  140.1110 C   0  0  0  0  0  2  0  0  0  0  0  0
  186.0980  178.5520  141.3270 C   0  0  1  0  0  3  0  0  0  0  0  0
  187.3400  177.6430  138.3730 O   0  0  0  0  0  0  0  0  0  0  0  0
  188.6140  179.5110  137.9150 O   0  0  0  0  0  0  0  0  0  0  0  0
  185.5140  178.9640  138.9950 O   0  0  0  0  0  0  0  0  0  0  0  0
  186.0930  178.1920  137.9630 C   0  0  2  0  0  3  0  0  0  0  0  0
  189.3500  178.1840  139.7520 C   0  0  1  0  0  3  0  0  0  0  0  0
  187.4340  177.8000  141.4030 C   0  0  1  0  0  3  0  0  0  0  0  0
  186.2500  179.9410  141.4030 O   0  0  0  0  0  1  0  0  0  0  0  0
  185.1600  177.1090  137.4350 C   0  0  0  0  0  1  0  0  0  0  0  0
  188.6700  178.6390  141.0490 C   0  0  0  0  0  2  0  0  0  0  0  0
  189.8100  176.7180  139.7910 C   0  0  1  0  0  3  0  0  0  0  0  0
  189.9970  176.1720  138.3780 C   0  0  0  0  0  1  0  0  0  0  0  0
  191.0840  176.5460  140.6330 C   0  0  1  0  0  3  0  0  0  0  0  0
  192.0930  177.6740  140.4150 C   0  0  0  0  0  2  0  0  0  0  0  0
  193.4550  177.1590  139.9780 C   0  0  0  0  0  2  0  0  0  0  0  0
  193.9300  175.7190  138.4640 O   0  0  0  0  0  1  0  0  0  0  0  0
  193.4500  176.9360  138.6030 O   0  0  0  0  0  0  0  0  0  0  0  0
  190.8020  176.3580  141.9940 O   0  0  0  0  0  0  0  0  0  0  0  0
  191.4030  177.3960  142.6260 N   0  0  0  0  0  2  0  0  0  0  0  0
  190.5680  176.8070  144.7230 O   0  0  0  0  0  1  0  0  0  0  0  0
  191.9810  178.6090  144.6570 O   0  0  0  0  0  0  0  0  0  0  0  0
  191.2920  177.5760  144.0370 C   0  0  0  0  0  0  0  0  0  0  0  0
  187.6040  177.0720  142.7390 C   0  0  0  0  0  2  0  0  0  0  0  0
  187.3430  178.0460  144.9960 C   0  0  0  0  0  3  0  0  0  0  0  0
  186.7820  177.6630  143.8450 C   0  0  0  0  0  3  0  0  0  0  0  0
  186.5410  178.6300  146.1200 C   0  0  0  0  0  3  0  0  0  0  0  0
  186.9700  178.0520  147.4570 C   0  0  0  0  0  1  0  0  0  0  0  0
  185.0550  178.4110  145.9080 C   0  0  0  0  0  1  0  0  0  0  0  0
  1  8  1  0  0  0  0
  2  3  1  0  0  0  0
  3 10  1  6  0  0  0
  3  9  1  0  0  0  0
  4  1  1  0  0  0  0
  5  1  2  0  0  0  0
  6  2  1  0  0  0  0
  7 11  1  1  0  0  0
  7  4  1  0  0  0  0
  7  6  1  0  0  0  0
  8 13  1  1  0  0  0
  8 12  1  0  0  0  0
  9 25  1  1  0  0  0
 12  9  1  0  0  0  0
 13 14  1  6  0  0  0
 13 15  1  0  0  0  0
 15 16  1  1  0  0  0
 15 20  1  0  0  0  0
 17 16  1  0  0  0  0
 18 19  1  0  0  0  0
 19 17  1  0  0  0  0
 20 21  1  0  0  0  0
 21 24  1  0  0  0  0
 24 23  2  0  0  0  0
 24 22  1  0  0  0  0
 25 27  1  0  0  0  0
 26 28  1  0  0  0  0
 27 26  2  0  0  0  0
 28 29  1  0  0  0  0
 30 28  1  0  0  0  0
M  END
>  <MODEL>
6

>  <REMARK>
 VINA RESULT:      -6.4      2.706      4.841
  Name = 
  10 active torsions:
  status: ('A' for Active; 'I' for Inactive)
    1  A    between atoms: C_1  and  C_4
    2  A    between atoms: C_1  and  C_22
    3  A    between atoms: C_4  and  C_9
    4  A    between atoms: C_4  and  O_12
    5  A    between atoms: C_7  and  C_23
    6  A    between atoms: C_7  and  C_25
    7  A    between atoms: N_8  and  O_12
    8  A    between atoms: C_9  and  C_21
    9  A    between atoms: C_10  and  C_15
   10  A    between atoms: O_17  and  C_21
                            x       y       z     vdW  Elec       q    Type
                         _______ _______ _______ _____ _____    ______ ____

>  <TORSDO>
F 10

$$$$
=
 OpenBabel10272413593D

 30 30  0  0  1  0  0  0  0  0999 V2000
  191.2010  176.5710  142.7840 C   0  0  0  0  0  0  0  0  0  0  0  0
  189.3830  178.6950  144.9350 C   0  0  0  0  0  2  0  0  0  0  0  0
  188.2450  177.8200  144.4100 C   0  0  1  0  0  3  0  0  0  0  0  0
  191.3390  177.9010  143.1780 O   0  0  0  0  0  0  0  0  0  0  0  0
  191.8660  175.6620  143.3480 O   0  0  0  0  0  0  0  0  0  0  0  0
  190.4910  177.9310  145.3560 O   0  0  0  0  0  0  0  0  0  0  0  0
  191.6010  178.2330  144.5360 C   0  0  2  0  0  3  0  0  0  0  0  0
  190.1570  176.2040  141.7790 C   0  0  1  0  0  3  0  0  0  0  0  0
  188.3310  177.6070  142.8920 C   0  0  1  0  0  3  0  0  0  0  0  0
  188.1410  176.6210  145.1230 O   0  0  0  0  0  1  0  0  0  0  0  0
  192.0650  179.6790  144.6700 C   0  0  0  0  0  1  0  0  0  0  0  0
  188.7830  176.2060  142.4600 C   0  0  0  0  0  2  0  0  0  0  0  0
  190.2130  177.0900  140.5240 C   0  0  1  0  0  3  0  0  0  0  0  0
  191.6550  177.3020  140.0750 C   0  0  0  0  0  1  0  0  0  0  0  0
  189.3490  176.5190  139.3880 C   0  0  1  0  0  3  0  0  0  0  0  0
  188.3720  177.5460  138.8150 C   0  0  0  0  0  2  0  0  0  0  0  0
  188.9820  178.9330  138.7080 C   0  0  0  0  0  2  0  0  0  0  0  0
  187.7180  179.1620  136.9930 O   0  0  0  0  0  1  0  0  0  0  0  0
  188.9610  179.3500  137.3780 O   0  0  0  0  0  0  0  0  0  0  0  0
  190.1210  175.9190  138.3820 O   0  0  0  0  0  0  0  0  0  0  0  0
  189.2490  175.6620  137.3750 N   0  0  0  0  0  2  0  0  0  0  0  0
  189.7160  173.3760  137.3460 O   0  0  0  0  0  1  0  0  0  0  0  0
  188.0860  174.1030  135.9100 O   0  0  0  0  0  0  0  0  0  0  0  0
  189.0390  174.3360  136.8920 C   0  0  0  0  0  0  0  0  0  0  0  0
  187.0440  178.0340  142.1820 C   0  0  0  0  0  2  0  0  0  0  0  0
  185.2280  179.2900  143.2930 C   0  0  0  0  0  3  0  0  0  0  0  0
  185.8630  178.1310  143.1030 C   0  0  0  0  0  3  0  0  0  0  0  0
  184.0520  179.4140  144.2160 C   0  0  0  0  0  3  0  0  0  0  0  0
  184.3460  178.7880  145.5670 C   0  0  0  0  0  1  0  0  0  0  0  0
  182.8090  178.7880  143.6090 C   0  0  0  0  0  1  0  0  0  0  0  0
  1  4  1  0  0  0  0
  1  5  2  0  0  0  0
  2  6  1  0  0  0  0
  3  2  1  0  0  0  0
  3 10  1  1  0  0  0
  4  7  1  0  0  0  0
  7 11  1  6  0  0  0
  7  6  1  0  0  0  0
  8 13  1  6  0  0  0
  8 12  1  0  0  0  0
  8  1  1  0  0  0  0
  9 25  1  6  0  0  0
  9  3  1  0  0  0  0
 12  9  1  0  0  0  0
 13 14  1  6  0  0  0
 15 16  1  6  0  0  0
 15 13  1  0  0  0  0
 17 16  1  0  0  0  0
 18 19  1  0  0  0  0
 19 17  1  0  0  0  0
 20 15  1  0  0  0  0
 21 20  1  0  0  0  0
 23 24  2  0  0  0  0
 24 22  1  0  0  0  0
 24 21  1  0  0  0  0
 25 27  1  0  0  0  0
 26 28  1  0  0  0  0
 27 26  2  0  0  0  0
 28 29  1  0  0  0  0
 30 28  1  0  0  0  0
M  END
>  <MODEL>
7

>  <REMARK>
 VINA RESULT:      -6.2      2.699      6.663
  Name = 
  10 active torsions:
  status: ('A' for Active; 'I' for Inactive)
    1  A    between atoms: C_1  and  C_4
    2  A    between atoms: C_1  and  C_22
    3  A    between atoms: C_4  and  C_9
    4  A    between atoms: C_4  and  O_12
    5  A    between atoms: C_7  and  C_23
    6  A    between atoms: C_7  and  C_25
    7  A    between atoms: N_8  and  O_12
    8  A    between atoms: C_9  and  C_21
    9  A    between atoms: C_10  and  C_15
   10  A    between atoms: O_17  and  C_21
                            x       y       z     vdW  Elec       q    Type
                         _______ _______ _______ _____ _____    ______ ____

>  <TORSDO>
F 10

$$$$
=
 OpenBabel10272413593D

 30 30  0  0  1  0  0  0  0  0999 V2000
  190.8700  177.3290  141.1080 C   0  0  0  0  0  0  0  0  0  0  0  0
  189.0890  177.1710  138.0670 C   0  0  0  0  0  2  0  0  0  0  0  0
  188.3350  178.3100  138.7520 C   0  0  1  0  0  3  0  0  0  0  0  0
  190.5410  176.2980  140.2290 O   0  0  0  0  0  0  0  0  0  0  0  0
  191.9990  177.8850  141.0510 O   0  0  0  0  0  0  0  0  0  0  0  0
  190.4870  177.3400  138.1370 O   0  0  0  0  0  0  0  0  0  0  0  0
  191.0440  176.2880  138.8990 C   0  0  2  0  0  3  0  0  0  0  0  0
  189.8290  177.8710  142.0330 C   0  0  1  0  0  3  0  0  0  0  0  0
  188.0260  177.9990  140.2230 C   0  0  1  0  0  3  0  0  0  0  0  0
  188.9820  179.5380  138.5800 O   0  0  0  0  0  1  0  0  0  0  0  0
  190.8600  174.9210  138.2500 C   0  0  0  0  0  1  0  0  0  0  0  0
  188.8750  178.7730  141.2410 C   0  0  0  0  0  2  0  0  0  0  0  0
  189.1050  176.7630  142.8160 C   0  0  1  0  0  3  0  0  0  0  0  0
  189.7460  175.4050  142.5480 C   0  0  0  0  0  1  0  0  0  0  0  0
  189.0560  177.0730  144.3210 C   0  0  1  0  0  3  0  0  0  0  0  0
  190.1650  178.0260  144.7650 C   0  0  0  0  0  2  0  0  0  0  0  0
  191.3940  177.2910  145.2740 C   0  0  0  0  0  2  0  0  0  0  0  0
  192.0080  175.7950  146.6810 O   0  0  0  0  0  1  0  0  0  0  0  0
  191.1330  176.7670  146.5390 O   0  0  0  0  0  0  0  0  0  0  0  0
  187.7910  177.5210  144.7310 O   0  0  0  0  0  0  0  0  0  0  0  0
  187.9860  178.0410  145.9680 N   0  0  0  0  0  2  0  0  0  0  0  0
  185.7860  177.6580  146.6450 O   0  0  0  0  0  0  0  0  0  0  0  0
  187.2000  178.5360  148.2200 O   0  0  0  0  0  1  0  0  0  0  0  0
  186.9420  178.0620  146.9410 C   0  0  0  0  0  0  0  0  0  0  0  0
  186.5300  178.1100  140.5280 C   0  0  0  0  0  2  0  0  0  0  0  0
  184.9870  178.5120  142.4170 C   0  0  0  0  0  3  0  0  0  0  0  0
  186.2410  178.4440  141.9620 C   0  0  0  0  0  3  0  0  0  0  0  0
  184.6720  178.8530  143.8430 C   0  0  0  0  0  3  0  0  0  0  0  0
  183.1770  178.7890  144.1040 C   0  0  0  0  0  1  0  0  0  0  0  0
  185.2090  180.2240  144.2120 C   0  0  0  0  0  1  0  0  0  0  0  0
  1  8  1  0  0  0  0
  2  6  1  0  0  0  0
  2  3  1  0  0  0  0
  3 10  1  1  0  0  0
  3  9  1  0  0  0  0
  4  1  1  0  0  0  0
  5  1  2  0  0  0  0
  6  7  1  0  0  0  0
  7 11  1  6  0  0  0
  7  4  1  0  0  0  0
  8 13  1  6  0  0  0
  9 25  1  1  0  0  0
  9 12  1  0  0  0  0
 12  8  1  0  0  0  0
 13 14  1  1  0  0  0
 13 15  1  0  0  0  0
 15 20  1  0  0  0  0
 15 16  1  6  0  0  0
 16 17  1  0  0  0  0
 17 19  1  0  0  0  0
 19 18  1  0  0  0  0
 20 21  1  0  0  0  0
 21 24  1  0  0  0  0
 22 24  2  0  0  0  0
 24 23  1  0  0  0  0
 25 27  1  0  0  0  0
 26 28  1  0  0  0  0
 27 26  2  0  0  0  0
 28 29  1  0  0  0  0
 28 30  1  0  0  0  0
M  END
>  <MODEL>
8

>  <REMARK>
 VINA RESULT:      -6.1      2.035      3.813
  Name = 
  10 active torsions:
  status: ('A' for Active; 'I' for Inactive)
    1  A    between atoms: C_1  and  C_4
    2  A    between atoms: C_1  and  C_22
    3  A    between atoms: C_4  and  C_9
    4  A    between atoms: C_4  and  O_12
    5  A    between atoms: C_7  and  C_23
    6  A    between atoms: C_7  and  C_25
    7  A    between atoms: N_8  and  O_12
    8  A    between atoms: C_9  and  C_21
    9  A    between atoms: C_10  and  C_15
   10  A    between atoms: O_17  and  C_21
                            x       y       z     vdW  Elec       q    Type
                         _______ _______ _______ _____ _____    ______ ____

>  <TORSDO>
F 10

$$$$
=
 OpenBabel10272413593D

 30 30  0  0  1  0  0  0  0  0999 V2000
  190.0210  176.7230  142.8180 C   0  0  0  0  0  0  0  0  0  0  0  0
  189.6240  178.5290  145.8220 C   0  0  0  0  0  2  0  0  0  0  0  0
  188.2830  177.7990  145.7780 C   0  0  1  0  0  3  0  0  0  0  0  0
  190.4710  177.9620  143.2710 O   0  0  0  0  0  0  0  0  0  0  0  0
  190.7640  175.7070  142.8860 O   0  0  0  0  0  0  0  0  0  0  0  0
  190.7100  177.6630  145.5770 O   0  0  0  0  0  0  0  0  0  0  0  0
  191.3540  178.0540  144.3810 C   0  0  2  0  0  3  0  0  0  0  0  0
  188.6020  176.5690  142.3750 C   0  0  1  0  0  3  0  0  0  0  0  0
  187.6470  177.8380  144.3800 C   0  0  1  0  0  3  0  0  0  0  0  0
  188.3790  176.5030  146.2950 O   0  0  0  0  0  1  0  0  0  0  0  0
  191.9860  179.4380  144.4710 C   0  0  0  0  0  1  0  0  0  0  0  0
  187.6950  176.5110  143.6100 C   0  0  0  0  0  2  0  0  0  0  0  0
  188.1820  177.6490  141.3640 C   0  0  1  0  0  3  0  0  0  0  0  0
  188.7260  179.0140  141.7750 C   0  0  0  0  0  1  0  0  0  0  0  0
  188.6070  177.2830  139.9340 C   0  0  1  0  0  3  0  0  0  0  0  0
  187.8160  178.0420  138.8690 C   0  0  0  0  0  2  0  0  0  0  0  0
  188.0600  177.5040  137.4690 C   0  0  0  0  0  2  0  0  0  0  0  0
  188.7220  179.5380  137.3460 O   0  0  0  0  0  1  0  0  0  0  0  0
  188.9110  178.3660  136.7800 O   0  0  0  0  0  0  0  0  0  0  0  0
  189.9910  177.4090  139.7410 O   0  0  0  0  0  0  0  0  0  0  0  0
  190.4170  176.1630  139.4150 N   0  0  0  0  0  2  0  0  0  0  0  0
  191.7350  176.9080  137.6400 O   0  0  0  0  0  0  0  0  0  0  0  0
  191.8110  174.6630  138.0960 O   0  0  0  0  0  1  0  0  0  0  0  0
  191.3430  175.9450  138.3520 C   0  0  0  0  0  0  0  0  0  0  0  0
  186.2350  178.4280  144.4120 C   0  0  0  0  0  2  0  0  0  0  0  0
  184.9290  178.8420  142.3540 C   0  0  0  0  0  3  0  0  0  0  0  0
  185.3790  177.9760  143.2650 C   0  0  0  0  0  3  0  0  0  0  0  0
  184.0650  178.4180  141.2050 C   0  0  0  0  0  3  0  0  0  0  0  0
  184.4350  179.1630  139.9350 C   0  0  0  0  0  1  0  0  0  0  0  0
  182.5940  178.6200  141.5200 C   0  0  0  0  0  1  0  0  0  0  0  0
  1  5  2  0  0  0  0
  1  4  1  0  0  0  0
  3  2  1  0  0  0  0
  3 10  1  6  0  0  0
  4  7  1  0  0  0  0
  6  2  1  0  0  0  0
  7 11  1  1  0  0  0
  7  6  1  0  0  0  0
  8 13  1  6  0  0  0
  8  1  1  0  0  0  0
  8 12  1  0  0  0  0
  9 25  1  1  0  0  0
  9  3  1  0  0  0  0
 12  9  1  0  0  0  0
 13 14  1  1  0  0  0
 15 16  1  6  0  0  0
 15 13  1  0  0  0  0
 17 16  1  0  0  0  0
 19 18  1  0  0  0  0
 19 17  1  0  0  0  0
 20 15  1  0  0  0  0
 21 20  1  0  0  0  0
 22 24  2  0  0  0  0
 23 24  1  0  0  0  0
 24 21  1  0  0  0  0
 26 27  2  0  0  0  0
 27 25  1  0  0  0  0
 28 30  1  0  0  0  0
 28 26  1  0  0  0  0
 29 28  1  0  0  0  0
M  END
>  <MODEL>
9

>  <REMARK>
 VINA RESULT:      -6.0      2.312      6.354
  Name = 
  10 active torsions:
  status: ('A' for Active; 'I' for Inactive)
    1  A    between atoms: C_1  and  C_4
    2  A    between atoms: C_1  and  C_22
    3  A    between atoms: C_4  and  C_9
    4  A    between atoms: C_4  and  O_12
    5  A    between atoms: C_7  and  C_23
    6  A    between atoms: C_7  and  C_25
    7  A    between atoms: N_8  and  O_12
    8  A    between atoms: C_9  and  C_21
    9  A    between atoms: C_10  and  C_15
   10  A    between atoms: O_17  and  C_21
                            x       y       z     vdW  Elec       q    Type
                         _______ _______ _______ _____ _____    ______ ____

>  <TORSDO>
F 10

$$$$
