=
 OpenBabel10272400473D

 25 29  0  0  1  0  0  0  0  0999 V2000
  187.2270  177.9630  145.7160 C   0  0  0  0  0  0  0  0  0  0  0  0
  188.5450  177.6620  145.3840 C   0  0  0  0  0  0  0  0  0  0  0  0
  187.6720  177.7180  148.0340 N   0  0  0  0  0  0  0  0  0  0  0  0
  186.1110  178.2930  144.9830 C   0  0  0  0  0  0  0  0  0  0  0  0
  190.3130  176.9570  143.7170 C   0  0  2  0  0  0  0  0  0  0  0  0
  183.5680  178.9820  144.1370 C   0  0  0  0  0  3  0  0  0  0  0  0
  188.9470  177.4270  147.7470 N   0  0  0  0  0  0  0  0  0  0  0  0
  185.1010  178.4840  145.9080 C   0  0  0  0  0  0  0  0  0  0  0  0
  183.8110  178.8310  145.5150 C   0  0  0  0  0  3  0  0  0  0  0  0
  190.8230  177.0410  146.1980 C   0  0  0  0  0  0  0  0  0  0  0  0
  191.6550  177.0620  147.1440 O   0  0  0  0  0  0  0  0  0  0  0  0
  189.0340  177.7590  143.9700 C   0  0  0  0  0  2  0  0  0  0  0  0
  184.6030  178.7870  143.1950 C   0  0  0  0  0  3  0  0  0  0  0  0
  186.8130  177.9830  147.0230 C   0  0  0  0  0  0  0  0  0  0  0  0
  185.5380  178.2940  147.1370 O   0  0  0  0  0  0  0  0  0  0  0  0
  191.2850  176.5980  144.8400 C   0  0  2  0  0  3  0  0  0  0  0  0
  185.8980  178.4360  143.6140 C   0  0  0  0  0  3  0  0  0  0  0  0
  191.5480  177.8020  143.9480 C   0  0  0  0  0  2  0  0  0  0  0  0
  189.4170  177.3880  146.4580 C   0  0  0  0  0  0  0  0  0  0  0  0
  190.4200  176.1450  142.4410 C   0  0  0  0  0  2  0  0  0  0  0  0
  190.9160  177.0200  141.3030 C   0  0  0  0  0  2  0  0  0  0  0  0
  188.9730  177.5730  139.7810 C   0  0  0  0  0  0  0  0  0  0  0  0
  188.6180  178.5310  140.5180 O   0  0  0  0  0  0  0  0  0  0  0  0
  188.1930  177.2600  138.5550 C   0  0  0  0  0  1  0  0  0  0  0  0
  190.1190  176.7850  140.1090 N   0  0  0  0  0  2  0  0  0  0  0  0
  1 14  1  0  0  0  0
  2  1  2  0  0  0  0
  2 19  1  0  0  0  0
  4  1  1  0  0  0  0
  4  8  1  0  0  0  0
  5 20  1  6  0  0  0
  5 18  1  0  0  0  0
  5 12  1  0  0  0  0
  5 16  1  0  0  0  0
  6  9  1  0  0  0  0
  7  3  1  0  0  0  0
  8 15  1  0  0  0  0
  9  8  2  0  0  0  0
 10 19  1  0  0  0  0
 10 11  2  0  0  0  0
 12  2  1  0  0  0  0
 13 17  1  0  0  0  0
 13  6  2  0  0  0  0
 14 15  1  0  0  0  0
 14  3  2  0  0  0  0
 16 18  1  6  0  0  0
 16 10  1  0  0  0  0
 17  4  2  0  0  0  0
 19  7  2  0  0  0  0
 21 20  1  0  0  0  0
 22 25  1  0  0  0  0
 22 23  2  0  0  0  0
 24 22  1  0  0  0  0
 25 21  1  0  0  0  0
M  END
>  <MODEL>
1

>  <REMARK>
 VINA RESULT:     -10.5      0.000      0.000
  Name = 
  3 active torsions:
  status: ('A' for Active; 'I' for Inactive)
    1  A    between atoms: C_6  and  C_15
    2  A    between atoms: C_15  and  C_25
    3  A    between atoms: N_21  and  C_25
                            x       y       z     vdW  Elec       q    Type
                         _______ _______ _______ _____ _____    ______ ____

>  <TORSDO>
F 3

$$$$
=
 OpenBabel10272400473D

 25 29  0  0  1  0  0  0  0  0999 V2000
  187.9020  177.7960  145.9180 C   0  0  0  0  0  0  0  0  0  0  0  0
  186.8420  178.0960  145.0670 C   0  0  0  0  0  0  0  0  0  0  0  0
  186.6630  178.4690  147.8270 N   0  0  0  0  0  0  0  0  0  0  0  0
  189.1660  177.2890  145.7240 C   0  0  0  0  0  0  0  0  0  0  0  0
  185.9040  178.5800  142.7670 C   0  0  2  0  0  0  0  0  0  0  0  0
  191.7480  176.3400  146.0250 C   0  0  0  0  0  3  0  0  0  0  0  0
  185.6250  178.7650  147.0350 N   0  0  0  0  0  0  0  0  0  0  0  0
  189.7340  177.2160  146.9820 C   0  0  0  0  0  0  0  0  0  0  0  0
  191.0320  176.7440  147.1670 C   0  0  0  0  0  3  0  0  0  0  0  0
  184.5090  178.9600  144.8480 C   0  0  0  0  0  0  0  0  0  0  0  0
  183.3900  179.1460  145.3960 O   0  0  0  0  0  0  0  0  0  0  0  0
  186.9010  177.7750  143.6040 C   0  0  0  0  0  2  0  0  0  0  0  0
  191.1620  176.4150  144.7410 C   0  0  0  0  0  3  0  0  0  0  0  0
  187.7990  177.9880  147.2720 C   0  0  0  0  0  0  0  0  0  0  0  0
  188.8980  177.6420  147.9090 O   0  0  0  0  0  0  0  0  0  0  0  0
  184.6330  179.1780  143.3680 C   0  0  2  0  0  3  0  0  0  0  0  0
  189.8510  176.8960  144.5770 C   0  0  0  0  0  3  0  0  0  0  0  0
  184.5850  177.8490  142.6280 C   0  0  0  0  0  2  0  0  0  0  0  0
  185.6710  178.5970  145.6740 C   0  0  0  0  0  0  0  0  0  0  0  0
  186.3670  179.1570  141.4440 C   0  0  0  0  0  2  0  0  0  0  0  0
  187.6240  178.4460  140.9730 C   0  0  0  0  0  2  0  0  0  0  0  0
  189.0140  178.3530  138.8620 C   0  0  0  0  0  0  0  0  0  0  0  0
  190.0240  177.9490  139.4980 O   0  0  0  0  0  0  0  0  0  0  0  0
  189.1060  178.5630  137.3940 C   0  0  0  0  0  1  0  0  0  0  0  0
  187.7800  178.6090  139.5360 N   0  0  0  0  0  2  0  0  0  0  0  0
  1 14  1  0  0  0  0
  2 19  1  0  0  0  0
  2  1  2  0  0  0  0
  4  1  1  0  0  0  0
  4  8  1  0  0  0  0
  5 20  1  6  0  0  0
  5 16  1  0  0  0  0
  5 12  1  0  0  0  0
  6  9  1  0  0  0  0
  7  3  1  0  0  0  0
  8  9  2  0  0  0  0
  8 15  1  0  0  0  0
 10 11  2  0  0  0  0
 10 19  1  0  0  0  0
 12  2  1  0  0  0  0
 13  6  2  0  0  0  0
 14  3  2  0  0  0  0
 14 15  1  0  0  0  0
 16 18  1  6  0  0  0
 16 10  1  0  0  0  0
 17 13  1  0  0  0  0
 17  4  2  0  0  0  0
 18  5  1  0  0  0  0
 19  7  2  0  0  0  0
 21 20  1  0  0  0  0
 22 23  2  0  0  0  0
 22 25  1  0  0  0  0
 24 22  1  0  0  0  0
 25 21  1  0  0  0  0
M  END
>  <MODEL>
2

>  <REMARK>
 VINA RESULT:     -10.5      1.684      4.896
  Name = 
  3 active torsions:
  status: ('A' for Active; 'I' for Inactive)
    1  A    between atoms: C_6  and  C_15
    2  A    between atoms: C_15  and  C_25
    3  A    between atoms: N_21  and  C_25
                            x       y       z     vdW  Elec       q    Type
                         _______ _______ _______ _____ _____    ______ ____

>  <TORSDO>
F 3

$$$$
=
 OpenBabel10272400473D

 25 29  0  0  1  0  0  0  0  0999 V2000
  185.5770  178.3390  144.9220 C   0  0  0  0  0  0  0  0  0  0  0  0
  186.9220  178.0040  145.0520 C   0  0  0  0  0  0  0  0  0  0  0  0
  185.3550  178.6860  147.2590 N   0  0  0  0  0  0  0  0  0  0  0  0
  184.7220  178.4450  143.8510 C   0  0  0  0  0  0  0  0  0  0  0  0
  189.0520  176.9610  144.1680 C   0  0  2  0  0  0  0  0  0  0  0  0
  182.5410  178.8300  142.1900 C   0  0  0  0  0  3  0  0  0  0  0  0
  186.6470  178.3710  147.4170 N   0  0  0  0  0  0  0  0  0  0  0  0
  183.5050  178.8290  144.3830 C   0  0  0  0  0  0  0  0  0  0  0  0
  182.3880  179.0310  143.5750 C   0  0  0  0  0  3  0  0  0  0  0  0
  188.8600  177.6690  146.5930 C   0  0  0  0  0  0  0  0  0  0  0  0
  189.3990  177.9480  147.6970 O   0  0  0  0  0  0  0  0  0  0  0  0
  187.7860  177.7640  143.8520 C   0  0  0  0  0  2  0  0  0  0  0  0
  183.7880  178.4380  141.6500 C   0  0  0  0  0  3  0  0  0  0  0  0
  184.8210  178.6690  146.0170 C   0  0  0  0  0  0  0  0  0  0  0  0
  183.5780  178.9610  145.6930 O   0  0  0  0  0  0  0  0  0  0  0  0
  189.6600  176.9190  145.5680 C   0  0  2  0  0  3  0  0  0  0  0  0
  184.9010  178.2400  142.4840 C   0  0  0  0  0  3  0  0  0  0  0  0
  190.2080  177.8730  144.5170 C   0  0  0  0  0  2  0  0  0  0  0  0
  187.4530  178.0290  146.3600 C   0  0  0  0  0  0  0  0  0  0  0  0
  189.4720  175.8630  143.2110 C   0  0  0  0  0  2  0  0  0  0  0  0
  190.4530  176.4070  142.1860 C   0  0  0  0  0  2  0  0  0  0  0  0
  190.4030  177.3590  139.8430 C   0  0  0  0  0  0  0  0  0  0  0  0
  191.6610  177.3480  139.7700 O   0  0  0  0  0  0  0  0  0  0  0  0
  189.6040  177.8600  138.6950 C   0  0  0  0  0  1  0  0  0  0  0  0
  189.7350  176.8920  141.0160 N   0  0  0  0  0  2  0  0  0  0  0  0
  1  2  2  0  0  0  0
  1 14  1  0  0  0  0
  2 19  1  0  0  0  0
  3  7  1  0  0  0  0
  4  8  1  0  0  0  0
  4  1  1  0  0  0  0
  5 20  1  6  0  0  0
  5 18  1  0  0  0  0
  5 16  1  0  0  0  0
  6  9  1  0  0  0  0
  8 15  1  0  0  0  0
  9  8  2  0  0  0  0
 10 11  2  0  0  0  0
 12  5  1  0  0  0  0
 12  2  1  0  0  0  0
 13  6  2  0  0  0  0
 13 17  1  0  0  0  0
 14  3  2  0  0  0  0
 15 14  1  0  0  0  0
 16 18  1  6  0  0  0
 16 10  1  0  0  0  0
 17  4  2  0  0  0  0
 19 10  1  0  0  0  0
 19  7  2  0  0  0  0
 21 20  1  0  0  0  0
 22 25  1  0  0  0  0
 23 22  2  0  0  0  0
 24 22  1  0  0  0  0
 25 21  1  0  0  0  0
M  END
>  <MODEL>
3

>  <REMARK>
 VINA RESULT:     -10.3      1.509      1.990
  Name = 
  3 active torsions:
  status: ('A' for Active; 'I' for Inactive)
    1  A    between atoms: C_6  and  C_15
    2  A    between atoms: C_15  and  C_25
    3  A    between atoms: N_21  and  C_25
                            x       y       z     vdW  Elec       q    Type
                         _______ _______ _______ _____ _____    ______ ____

>  <TORSDO>
F 3

$$$$
=
 OpenBabel10272400473D

 25 29  0  0  1  0  0  0  0  0999 V2000
  186.4340  178.3810  142.4010 C   0  0  0  0  0  0  0  0  0  0  0  0
  187.7560  177.9540  142.3170 C   0  0  0  0  0  0  0  0  0  0  0  0
  186.3290  178.7740  140.0620 N   0  0  0  0  0  0  0  0  0  0  0  0
  185.5360  178.5060  143.4350 C   0  0  0  0  0  0  0  0  0  0  0  0
  189.9970  177.4330  143.3710 C   0  0  2  0  0  0  0  0  0  0  0  0
  183.3110  178.9840  145.0100 C   0  0  0  0  0  3  0  0  0  0  0  0
  187.6000  178.3650  139.9480 N   0  0  0  0  0  0  0  0  0  0  0  0
  184.3710  178.9810  142.8610 C   0  0  0  0  0  0  0  0  0  0  0  0
  183.2340  179.2330  143.6260 C   0  0  0  0  0  3  0  0  0  0  0  0
  189.7360  177.5380  140.8530 C   0  0  0  0  0  0  0  0  0  0  0  0
  190.1670  177.2830  139.6970 O   0  0  0  0  0  0  0  0  0  0  0  0
  188.4720  177.3960  143.5090 C   0  0  0  0  0  2  0  0  0  0  0  0
  184.5040  178.4980  145.5910 C   0  0  0  0  0  3  0  0  0  0  0  0
  185.7480  178.7840  141.2830 C   0  0  0  0  0  0  0  0  0  0  0  0
  184.5120  179.1450  141.5610 O   0  0  0  0  0  0  0  0  0  0  0  0
  190.6890  177.4680  142.0100 C   0  0  2  0  0  3  0  0  0  0  0  0
  185.6400  178.2520  144.8000 C   0  0  0  0  0  3  0  0  0  0  0  0
  190.5240  176.1530  142.7580 C   0  0  0  0  0  2  0  0  0  0  0  0
  188.3370  177.9550  141.0310 C   0  0  0  0  0  0  0  0  0  0  0  0
  190.8230  177.8650  144.5660 C   0  0  0  0  0  2  0  0  0  0  0  0
  190.7150  176.8350  145.6780 C   0  0  0  0  0  2  0  0  0  0  0  0
  188.9930  177.4760  147.4160 C   0  0  0  0  0  0  0  0  0  0  0  0
  188.0790  176.8780  146.7880 O   0  0  0  0  0  0  0  0  0  0  0  0
  188.6740  178.1800  148.6860 C   0  0  0  0  0  1  0  0  0  0  0  0
  190.3340  177.4840  146.9240 N   0  0  0  0  0  2  0  0  0  0  0  0
  1  4  1  0  0  0  0
  2  1  2  0  0  0  0
  2 12  1  0  0  0  0
  3 14  2  0  0  0  0
  4 17  1  0  0  0  0
  5 12  1  0  0  0  0
  5 20  1  1  0  0  0
  6 13  1  0  0  0  0
  7  3  1  0  0  0  0
  7 19  2  0  0  0  0
  8  4  2  0  0  0  0
  8  9  1  0  0  0  0
  9  6  2  0  0  0  0
 10 19  1  0  0  0  0
 10 16  1  0  0  0  0
 11 10  2  0  0  0  0
 14 15  1  0  0  0  0
 14  1  1  0  0  0  0
 15  8  1  0  0  0  0
 16 18  1  6  0  0  0
 16  5  1  0  0  0  0
 17 13  2  0  0  0  0
 18  5  1  0  0  0  0
 19  2  1  0  0  0  0
 20 21  1  0  0  0  0
 21 25  1  0  0  0  0
 22 24  1  0  0  0  0
 23 22  2  0  0  0  0
 25 22  1  0  0  0  0
M  END
>  <MODEL>
4

>  <REMARK>
 VINA RESULT:      -9.9      1.885      5.126
  Name = 
  3 active torsions:
  status: ('A' for Active; 'I' for Inactive)
    1  A    between atoms: C_6  and  C_15
    2  A    between atoms: C_15  and  C_25
    3  A    between atoms: N_21  and  C_25
                            x       y       z     vdW  Elec       q    Type
                         _______ _______ _______ _____ _____    ______ ____

>  <TORSDO>
F 3

$$$$
=
 OpenBabel10272400473D

 25 29  0  0  1  0  0  0  0  0999 V2000
  186.4320  178.4480  142.1930 C   0  0  0  0  0  0  0  0  0  0  0  0
  187.7440  178.0830  141.9060 C   0  0  0  0  0  0  0  0  0  0  0  0
  185.9470  178.8100  139.8980 N   0  0  0  0  0  0  0  0  0  0  0  0
  185.7010  178.5400  143.3540 C   0  0  0  0  0  0  0  0  0  0  0  0
  190.1440  177.6790  142.6010 C   0  0  2  0  0  0  0  0  0  0  0  0
  183.7270  178.9290  145.2550 C   0  0  0  0  0  3  0  0  0  0  0  0
  187.2030  178.4620  139.5900 N   0  0  0  0  0  0  0  0  0  0  0  0
  184.4390  178.9540  142.9680 C   0  0  0  0  0  0  0  0  0  0  0  0
  183.4240  179.1590  143.8990 C   0  0  0  0  0  3  0  0  0  0  0  0
  189.4910  177.7460  140.1530 C   0  0  0  0  0  0  0  0  0  0  0  0
  189.7500  177.4990  138.9450 O   0  0  0  0  0  0  0  0  0  0  0  0
  188.6630  177.5720  142.9740 C   0  0  0  0  0  2  0  0  0  0  0  0
  185.0170  178.5060  145.6450 C   0  0  0  0  0  3  0  0  0  0  0  0
  185.5620  178.8050  141.1950 C   0  0  0  0  0  0  0  0  0  0  0  0
  184.3690  179.1110  141.6600 O   0  0  0  0  0  0  0  0  0  0  0  0
  190.6150  177.7330  141.1480 C   0  0  2  0  0  3  0  0  0  0  0  0
  186.0280  178.3060  144.6880 C   0  0  0  0  0  3  0  0  0  0  0  0
  190.6310  176.4200  141.9160 C   0  0  0  0  0  2  0  0  0  0  0  0
  188.1180  178.0980  140.5460 C   0  0  0  0  0  0  0  0  0  0  0  0
  191.1240  178.1620  143.6510 C   0  0  0  0  0  2  0  0  0  0  0  0
  190.5980  177.8510  145.0420 C   0  0  0  0  0  2  0  0  0  0  0  0
  191.3160  176.4760  147.0400 C   0  0  0  0  0  0  0  0  0  0  0  0
  190.1420  176.4520  147.4950 O   0  0  0  0  0  0  0  0  0  0  0  0
  192.4080  175.7960  147.7850 C   0  0  0  0  0  1  0  0  0  0  0  0
  191.6110  177.1460  145.8130 N   0  0  0  0  0  2  0  0  0  0  0  0
  1  4  1  0  0  0  0
  2  1  2  0  0  0  0
  2 12  1  0  0  0  0
  3 14  2  0  0  0  0
  4 17  1  0  0  0  0
  5 12  1  0  0  0  0
  5 20  1  1  0  0  0
  6 13  1  0  0  0  0
  7  3  1  0  0  0  0
  7 19  2  0  0  0  0
  8  4  2  0  0  0  0
  8  9  1  0  0  0  0
  9  6  2  0  0  0  0
 10 19  1  0  0  0  0
 10 16  1  0  0  0  0
 11 10  2  0  0  0  0
 14 15  1  0  0  0  0
 14  1  1  0  0  0  0
 15  8  1  0  0  0  0
 16 18  1  6  0  0  0
 16  5  1  0  0  0  0
 17 13  2  0  0  0  0
 18  5  1  0  0  0  0
 19  2  1  0  0  0  0
 20 21  1  0  0  0  0
 21 25  1  0  0  0  0
 22 23  2  0  0  0  0
 22 24  1  0  0  0  0
 25 22  1  0  0  0  0
M  END
>  <MODEL>
5

>  <REMARK>
 VINA RESULT:      -9.9      2.047      5.318
  Name = 
  3 active torsions:
  status: ('A' for Active; 'I' for Inactive)
    1  A    between atoms: C_6  and  C_15
    2  A    between atoms: C_15  and  C_25
    3  A    between atoms: N_21  and  C_25
                            x       y       z     vdW  Elec       q    Type
                         _______ _______ _______ _____ _____    ______ ____

>  <TORSDO>
F 3

$$$$
=
 OpenBabel10272400473D

 25 29  0  0  1  0  0  0  0  0999 V2000
  187.8570  177.7440  145.7050 C   0  0  0  0  0  0  0  0  0  0  0  0
  186.7440  178.1080  144.9530 C   0  0  0  0  0  0  0  0  0  0  0  0
  186.7650  178.3020  147.7380 N   0  0  0  0  0  0  0  0  0  0  0  0
  189.0970  177.2390  145.3900 C   0  0  0  0  0  0  0  0  0  0  0  0
  185.6510  178.7480  142.7620 C   0  0  2  0  0  0  0  0  0  0  0  0
  191.6810  176.2500  145.4440 C   0  0  0  0  0  3  0  0  0  0  0  0
  185.6770  178.6570  147.0430 N   0  0  0  0  0  0  0  0  0  0  0  0
  189.7520  177.0800  146.5970 C   0  0  0  0  0  0  0  0  0  0  0  0
  191.0530  176.5850  146.6580 C   0  0  0  0  0  3  0  0  0  0  0  0
  184.4120  179.0040  144.9580 C   0  0  0  0  0  0  0  0  0  0  0  0
  183.3370  179.1640  145.5950 O   0  0  0  0  0  0  0  0  0  0  0  0
  186.6950  177.8810  143.4730 C   0  0  0  0  0  2  0  0  0  0  0  0
  191.0070  176.4140  144.2120 C   0  0  0  0  0  3  0  0  0  0  0  0
  187.8520  177.8480  147.0730 C   0  0  0  0  0  0  0  0  0  0  0  0
  188.9900  177.4520  147.6060 O   0  0  0  0  0  0  0  0  0  0  0  0
  184.4340  179.3160  143.4900 C   0  0  2  0  0  3  0  0  0  0  0  0
  189.6940  176.9160  144.1740 C   0  0  0  0  0  3  0  0  0  0  0  0
  184.3170  178.0390  142.6720 C   0  0  0  0  0  2  0  0  0  0  0  0
  185.6250  178.5790  145.6730 C   0  0  0  0  0  0  0  0  0  0  0  0
  186.0280  179.4060  141.4500 C   0  0  0  0  0  2  0  0  0  0  0  0
  185.2430  178.7840  140.3070 C   0  0  0  0  0  2  0  0  0  0  0  0
  183.1200  179.5640  139.1760 C   0  0  0  0  0  0  0  0  0  0  0  0
  182.5630  178.4500  139.3670 O   0  0  0  0  0  0  0  0  0  0  0  0
  182.3810  180.6450  138.4730 C   0  0  0  0  0  1  0  0  0  0  0  0
  184.4530  179.8010  139.6310 N   0  0  0  0  0  2  0  0  0  0  0  0
  1 14  1  0  0  0  0
  2 19  1  0  0  0  0
  2  1  2  0  0  0  0
  4  1  1  0  0  0  0
  4  8  1  0  0  0  0
  5 20  1  6  0  0  0
  5 12  1  0  0  0  0
  5 16  1  0  0  0  0
  6  9  1  0  0  0  0
  7  3  1  0  0  0  0
  8  9  2  0  0  0  0
  8 15  1  0  0  0  0
 10 11  2  0  0  0  0
 10 19  1  0  0  0  0
 12  2  1  0  0  0  0
 13  6  2  0  0  0  0
 14 15  1  0  0  0  0
 14  3  2  0  0  0  0
 16 18  1  6  0  0  0
 16 10  1  0  0  0  0
 17 13  1  0  0  0  0
 17  4  2  0  0  0  0
 18  5  1  0  0  0  0
 19  7  2  0  0  0  0
 21 20  1  0  0  0  0
 22 23  2  0  0  0  0
 22 25  1  0  0  0  0
 24 22  1  0  0  0  0
 25 21  1  0  0  0  0
M  END
>  <MODEL>
6

>  <REMARK>
 VINA RESULT:      -9.8      2.645      5.570
  Name = 
  3 active torsions:
  status: ('A' for Active; 'I' for Inactive)
    1  A    between atoms: C_6  and  C_15
    2  A    between atoms: C_15  and  C_25
    3  A    between atoms: N_21  and  C_25
                            x       y       z     vdW  Elec       q    Type
                         _______ _______ _______ _____ _____    ______ ____

>  <TORSDO>
F 3

$$$$
=
 OpenBabel10272400473D

 25 29  0  0  1  0  0  0  0  0999 V2000
  186.4370  178.0840  145.3960 C   0  0  0  0  0  0  0  0  0  0  0  0
  185.5030  178.2660  144.3810 C   0  0  0  0  0  0  0  0  0  0  0  0
  184.8390  178.6150  147.0690 N   0  0  0  0  0  0  0  0  0  0  0  0
  187.7630  177.7190  145.4180 C   0  0  0  0  0  0  0  0  0  0  0  0
  184.9020  178.6430  141.9510 C   0  0  2  0  0  0  0  0  0  0  0  0
  190.3500  177.0620  146.1470 C   0  0  0  0  0  3  0  0  0  0  0  0
  183.9170  178.7950  146.1150 N   0  0  0  0  0  0  0  0  0  0  0  0
  188.1250  177.7100  146.7520 C   0  0  0  0  0  0  0  0  0  0  0  0
  189.4190  177.3840  147.1520 C   0  0  0  0  0  3  0  0  0  0  0  0
  183.1550  178.8660  143.7740 C   0  0  0  0  0  0  0  0  0  0  0  0
  181.9490  178.9280  144.1310 O   0  0  0  0  0  0  0  0  0  0  0  0
  185.8330  177.9520  142.9520 C   0  0  0  0  0  2  0  0  0  0  0  0
  189.9750  177.0720  144.7840 C   0  0  0  0  0  3  0  0  0  0  0  0
  186.0950  178.2630  146.7130 C   0  0  0  0  0  0  0  0  0  0  0  0
  187.1090  178.0400  147.5240 O   0  0  0  0  0  0  0  0  0  0  0  0
  183.4930  179.0960  142.3290 C   0  0  2  0  0  3  0  0  0  0  0  0
  188.6640  177.4050  144.4030 C   0  0  0  0  0  3  0  0  0  0  0  0
  183.7110  177.7700  141.6150 C   0  0  0  0  0  2  0  0  0  0  0  0
  184.2010  178.6340  144.7820 C   0  0  0  0  0  0  0  0  0  0  0  0
  185.5080  179.2680  140.7110 C   0  0  0  0  0  2  0  0  0  0  0  0
  185.7170  178.2110  139.6390 C   0  0  0  0  0  2  0  0  0  0  0  0
  188.2350  178.0620  139.4690 C   0  0  0  0  0  0  0  0  0  0  0  0
  188.3140  177.4630  140.5750 O   0  0  0  0  0  0  0  0  0  0  0  0
  189.4750  178.3610  138.7060 C   0  0  0  0  0  1  0  0  0  0  0  0
  186.9680  178.4520  138.9380 N   0  0  0  0  0  2  0  0  0  0  0  0
  1  4  1  0  0  0  0
  1 14  1  0  0  0  0
  2 19  1  0  0  0  0
  2  1  2  0  0  0  0
  4  8  1  0  0  0  0
  5 20  1  6  0  0  0
  5 16  1  0  0  0  0
  5 12  1  0  0  0  0
  6  9  1  0  0  0  0
  7  3  1  0  0  0  0
  8  9  2  0  0  0  0
  8 15  1  0  0  0  0
 10 11  2  0  0  0  0
 10 19  1  0  0  0  0
 12  2  1  0  0  0  0
 13  6  2  0  0  0  0
 14  3  2  0  0  0  0
 14 15  1  0  0  0  0
 16 18  1  6  0  0  0
 16 10  1  0  0  0  0
 17 13  1  0  0  0  0
 17  4  2  0  0  0  0
 18  5  1  0  0  0  0
 19  7  2  0  0  0  0
 21 20  1  0  0  0  0
 22 23  2  0  0  0  0
 24 22  1  0  0  0  0
 25 22  1  0  0  0  0
 25 21  1  0  0  0  0
M  END
>  <MODEL>
7

>  <REMARK>
 VINA RESULT:      -9.7      2.036      5.222
  Name = 
  3 active torsions:
  status: ('A' for Active; 'I' for Inactive)
    1  A    between atoms: C_6  and  C_15
    2  A    between atoms: C_15  and  C_25
    3  A    between atoms: N_21  and  C_25
                            x       y       z     vdW  Elec       q    Type
                         _______ _______ _______ _____ _____    ______ ____

>  <TORSDO>
F 3

$$$$
=
 OpenBabel10272400473D

 25 29  0  0  1  0  0  0  0  0999 V2000
  186.5990  178.0240  145.5220 C   0  0  0  0  0  0  0  0  0  0  0  0
  185.6350  178.1970  144.5320 C   0  0  0  0  0  0  0  0  0  0  0  0
  185.0780  178.6720  147.2250 N   0  0  0  0  0  0  0  0  0  0  0  0
  187.9120  177.6180  145.5130 C   0  0  0  0  0  0  0  0  0  0  0  0
  184.9620  178.5000  142.1110 C   0  0  2  0  0  0  0  0  0  0  0  0
  190.5010  176.9040  146.1800 C   0  0  0  0  0  3  0  0  0  0  0  0
  184.1290  178.8440  146.2970 N   0  0  0  0  0  0  0  0  0  0  0  0
  188.3200  177.6480  146.8340 C   0  0  0  0  0  0  0  0  0  0  0  0
  189.6160  177.2950  147.2030 C   0  0  0  0  0  3  0  0  0  0  0  0
  183.2880  178.8500  143.9810 C   0  0  0  0  0  0  0  0  0  0  0  0
  182.0980  178.9650  144.3760 O   0  0  0  0  0  0  0  0  0  0  0  0
  185.9050  177.8180  143.1070 C   0  0  0  0  0  2  0  0  0  0  0  0
  190.0800  176.8740  144.8320 C   0  0  0  0  0  3  0  0  0  0  0  0
  186.3090  178.2650  146.8410 C   0  0  0  0  0  0  0  0  0  0  0  0
  187.3420  178.0410  147.6260 O   0  0  0  0  0  0  0  0  0  0  0  0
  183.5820  179.0130  142.5180 C   0  0  2  0  0  3  0  0  0  0  0  0
  188.7670  177.2350  144.4820 C   0  0  0  0  0  3  0  0  0  0  0  0
  183.7340  177.6540  141.8510 C   0  0  0  0  0  2  0  0  0  0  0  0
  184.3610  178.6230  144.9620 C   0  0  0  0  0  0  0  0  0  0  0  0
  185.5430  179.0570  140.8270 C   0  0  0  0  0  2  0  0  0  0  0  0
  184.6720  178.6680  139.6450 C   0  0  0  0  0  2  0  0  0  0  0  0
  182.6890  180.1160  139.0390 C   0  0  0  0  0  0  0  0  0  0  0  0
  181.8870  179.3180  139.5940 O   0  0  0  0  0  0  0  0  0  0  0  0
  182.1680  181.3420  138.3800 C   0  0  0  0  0  1  0  0  0  0  0  0
  184.0940  179.8570  139.0380 N   0  0  0  0  0  2  0  0  0  0  0  0
  1 14  1  0  0  0  0
  2 19  1  0  0  0  0
  2  1  2  0  0  0  0
  4  1  1  0  0  0  0
  4  8  1  0  0  0  0
  5 20  1  6  0  0  0
  5 16  1  0  0  0  0
  5 12  1  0  0  0  0
  6  9  1  0  0  0  0
  7  3  1  0  0  0  0
  8  9  2  0  0  0  0
  8 15  1  0  0  0  0
 10 11  2  0  0  0  0
 10 19  1  0  0  0  0
 12  2  1  0  0  0  0
 13  6  2  0  0  0  0
 14  3  2  0  0  0  0
 14 15  1  0  0  0  0
 16 18  1  6  0  0  0
 16 10  1  0  0  0  0
 17 13  1  0  0  0  0
 17  4  2  0  0  0  0
 18  5  1  0  0  0  0
 19  7  2  0  0  0  0
 21 20  1  0  0  0  0
 22 23  2  0  0  0  0
 24 22  1  0  0  0  0
 25 22  1  0  0  0  0
 25 21  1  0  0  0  0
M  END
>  <MODEL>
8

>  <REMARK>
 VINA RESULT:      -9.3      3.057      5.855
  Name = 
  3 active torsions:
  status: ('A' for Active; 'I' for Inactive)
    1  A    between atoms: C_6  and  C_15
    2  A    between atoms: C_15  and  C_25
    3  A    between atoms: N_21  and  C_25
                            x       y       z     vdW  Elec       q    Type
                         _______ _______ _______ _____ _____    ______ ____

>  <TORSDO>
F 3

$$$$
=
 OpenBabel10272400473D

 25 29  0  0  1  0  0  0  0  0999 V2000
  189.6170  177.4920  143.8090 C   0  0  0  0  0  0  0  0  0  0  0  0
  188.6270  177.6270  144.7780 C   0  0  0  0  0  0  0  0  0  0  0  0
  191.2940  177.1630  145.4560 N   0  0  0  0  0  0  0  0  0  0  0  0
  189.6160  177.5190  142.4340 C   0  0  0  0  0  0  0  0  0  0  0  0
  186.3170  178.3570  145.5120 C   0  0  2  0  0  0  0  0  0  0  0  0
  190.2940  177.4680  139.7520 C   0  0  0  0  0  3  0  0  0  0  0  0
  190.3640  177.2860  146.4110 N   0  0  0  0  0  0  0  0  0  0  0  0
  190.9290  177.3120  142.0560 C   0  0  0  0  0  0  0  0  0  0  0  0
  191.3040  177.2810  140.7150 C   0  0  0  0  0  3  0  0  0  0  0  0
  188.0660  177.6650  147.2110 C   0  0  0  0  0  0  0  0  0  0  0  0
  188.3730  177.3030  148.3780 O   0  0  0  0  0  0  0  0  0  0  0  0
  187.1810  177.7490  144.4030 C   0  0  0  0  0  2  0  0  0  0  0  0
  188.9520  177.6790  140.1430 C   0  0  0  0  0  3  0  0  0  0  0  0
  190.9240  177.2670  144.1600 C   0  0  0  0  0  0  0  0  0  0  0  0
  191.7100  177.1610  143.1080 O   0  0  0  0  0  0  0  0  0  0  0  0
  186.7240  178.2990  146.9840 C   0  0  2  0  0  3  0  0  0  0  0  0
  188.5970  177.7070  141.5030 C   0  0  0  0  0  3  0  0  0  0  0  0
  185.7440  177.2840  146.4130 C   0  0  0  0  0  2  0  0  0  0  0  0
  189.0420  177.5150  146.1220 C   0  0  0  0  0  0  0  0  0  0  0  0
  185.2740  179.3900  145.1350 C   0  0  0  0  0  2  0  0  0  0  0  0
  184.3880  178.8580  144.0210 C   0  0  0  0  0  2  0  0  0  0  0  0
  181.9030  178.7910  143.5600 C   0  0  0  0  0  0  0  0  0  0  0  0
  182.0930  178.8150  142.3150 O   0  0  0  0  0  0  0  0  0  0  0  0
  180.5150  178.7500  144.0910 C   0  0  0  0  0  1  0  0  0  0  0  0
  183.0050  178.7970  144.4680 N   0  0  0  0  0  2  0  0  0  0  0  0
  1 14  1  0  0  0  0
  1  2  2  0  0  0  0
  2 19  1  0  0  0  0
  3  7  1  0  0  0  0
  4  1  1  0  0  0  0
  5 20  1  6  0  0  0
  5 18  1  0  0  0  0
  5 16  1  0  0  0  0
  6 13  2  0  0  0  0
  6  9  1  0  0  0  0
  8  4  1  0  0  0  0
  8 15  1  0  0  0  0
  9  8  2  0  0  0  0
 10 11  2  0  0  0  0
 12  2  1  0  0  0  0
 12  5  1  0  0  0  0
 13 17  1  0  0  0  0
 14  3  2  0  0  0  0
 15 14  1  0  0  0  0
 16 18  1  1  0  0  0
 16 10  1  0  0  0  0
 17  4  2  0  0  0  0
 19  7  2  0  0  0  0
 19 10  1  0  0  0  0
 21 25  1  0  0  0  0
 21 20  1  0  0  0  0
 22 24  1  0  0  0  0
 22 25  1  0  0  0  0
 23 22  2  0  0  0  0
M  END
>  <MODEL>
9

>  <REMARK>
 VINA RESULT:      -9.2      2.396      5.879
  Name = 
  3 active torsions:
  status: ('A' for Active; 'I' for Inactive)
    1  A    between atoms: C_6  and  C_15
    2  A    between atoms: C_15  and  C_25
    3  A    between atoms: N_21  and  C_25
                            x       y       z     vdW  Elec       q    Type
                         _______ _______ _______ _____ _____    ______ ____

>  <TORSDO>
F 3

$$$$
