=
 OpenBabel10272413153D

 32 35  0  0  1  0  0  0  0  0999 V2000
  187.2510  177.6860  145.3800 C   0  0  0  0  0  3  0  0  0  0  0  0
  189.7530  177.6560  143.6270 C   0  0  0  0  0  0  0  0  0  0  0  0
  187.5830  178.3520  146.4840 C   0  0  0  0  0  3  0  0  0  0  0  0
  189.8620  178.2280  144.8950 O   0  0  0  0  0  0  0  0  0  0  0  0
  190.5140  176.5990  143.3260 C   0  0  0  0  0  0  0  0  0  0  0  0
  188.7390  178.1980  142.6360 C   0  0  2  0  0  3  0  0  0  0  0  0
  190.3930  177.2670  141.0580 O   0  0  0  0  0  0  0  0  0  0  0  0
  190.3250  177.4630  145.9680 C   0  0  0  0  0  0  0  0  0  0  0  0
  190.5290  176.1430  141.8960 C   0  0  0  0  0  2  0  0  0  0  0  0
  191.0530  176.4110  145.7340 N   0  0  0  0  0  0  0  0  0  0  0  0
  189.8670  177.8000  147.3590 C   0  0  0  0  0  2  0  0  0  0  0  0
  187.3860  177.7200  142.9640 N   0  0  0  0  0  2  0  0  0  0  0  0
  186.8330  178.4040  144.1360 C   0  0  1  0  0  3  0  0  0  0  0  0
  189.0610  177.7190  141.2020 C   0  0  2  0  0  3  0  0  0  0  0  0
  191.4800  176.0680  144.3670 C   0  0  1  0  0  3  0  0  0  0  0  0
  188.3450  177.6230  147.5500 C   0  0  0  0  0  2  0  0  0  0  0  0
  181.1910  178.8530  144.0100 F   0  0  0  0  0  0  0  0  0  0  0  0
  183.2200  178.5830  145.2260 C   0  0  0  0  0  3  0  0  0  0  0  0
  185.3390  178.5260  144.0390 C   0  0  0  0  0  0  0  0  0  0  0  0
  183.2530  178.8000  142.8180 C   0  0  0  0  0  3  0  0  0  0  0  0
  184.6120  178.4740  145.2340 C   0  0  0  0  0  3  0  0  0  0  0  0
  184.6490  178.6900  142.8140 C   0  0  0  0  0  0  0  0  0  0  0  0
  182.5410  178.7470  144.0180 C   0  0  0  0  0  0  0  0  0  0  0  0
  185.3620  178.7400  141.4960 C   0  0  0  0  0  2  0  0  0  0  0  0
  184.3770  178.7830  140.3370 C   0  0  0  0  0  2  0  0  0  0  0  0
  184.6140  179.9070  139.5470 O   0  0  0  0  0  1  0  0  0  0  0  0
  191.6900  174.5620  144.2510 C   0  0  0  0  0  2  0  0  0  0  0  0
  192.6830  174.1340  145.1340 O   0  0  0  0  0  1  0  0  0  0  0  0
  188.7730  178.8330  140.2090 C   0  0  0  0  0  2  0  0  0  0  0  0
  189.1470  178.4220  138.7910 C   0  0  0  0  0  2  0  0  0  0  0  0
  186.9430  178.0040  137.6870 C   0  0  0  0  0  1  0  0  0  0  0  0
  188.1960  177.3630  138.2540 C   0  0  0  0  0  2  0  0  0  0  0  0
  1  3  2  0  0  0  0
  2  4  1  0  0  0  0
  3 16  1  0  0  0  0
  4  8  1  0  0  0  0
  5  2  2  0  0  0  0
  5 15  1  0  0  0  0
  6 12  1  1  0  0  0
  6  2  1  0  0  0  0
  7 14  1  0  0  0  0
  7  9  1  0  0  0  0
  8 11  1  0  0  0  0
  9  5  1  0  0  0  0
 10  8  2  0  0  0  0
 11 16  1  0  0  0  0
 12 13  1  0  0  0  0
 13 19  1  6  0  0  0
 13  1  1  0  0  0  0
 14 29  1  6  0  0  0
 14  6  1  0  0  0  0
 15 27  1  1  0  0  0
 15 10  1  0  0  0  0
 17 23  1  0  0  0  0
 18 21  1  0  0  0  0
 19 21  2  0  0  0  0
 20 23  1  0  0  0  0
 22 20  2  0  0  0  0
 22 19  1  0  0  0  0
 23 18  2  0  0  0  0
 24 22  1  0  0  0  0
 25 24  1  0  0  0  0
 26 25  1  0  0  0  0
 27 28  1  0  0  0  0
 30 29  1  0  0  0  0
 31 32  1  0  0  0  0
 32 30  1  0  0  0  0
M  END
>  <MODEL>
1

>  <REMARK>
 VINA RESULT:      -8.4      0.000      0.000
  Name = 
  7 active torsions:
  status: ('A' for Active; 'I' for Inactive)
    1  A    between atoms: C_3  and  C_23
    2  A    between atoms: C_9  and  C_31
    3  A    between atoms: C_9  and  C_32
    4  A    between atoms: C_13  and  CA_29
    5  A    between atoms: C_16  and  C_27
    6  A    between atoms: C_22  and  C_23
    7  A    between atoms: C_28  and  C_32
                            x       y       z     vdW  Elec       q    Type
                         _______ _______ _______ _____ _____    ______ ____

>  <TORSDO>
F 7

$$$$
=
 OpenBabel10272413153D

 32 35  0  0  1  0  0  0  0  0999 V2000
  187.8090  177.5520  141.3090 C   0  0  0  0  0  3  0  0  0  0  0  0
  185.1010  178.4610  140.2210 C   0  0  0  0  0  0  0  0  0  0  0  0
  188.7270  178.2270  140.6210 C   0  0  0  0  0  3  0  0  0  0  0  0
  186.2460  178.9640  139.6030 O   0  0  0  0  0  0  0  0  0  0  0  0
  184.2390  177.7390  139.4990 C   0  0  0  0  0  0  0  0  0  0  0  0
  184.8830  178.6860  141.7070 C   0  0  2  0  0  3  0  0  0  0  0  0
  182.5350  178.4530  140.9800 O   0  0  0  0  0  0  0  0  0  0  0  0
  186.7530  178.3410  138.4610 C   0  0  0  0  0  0  0  0  0  0  0  0
  182.9240  177.3950  140.1340 C   0  0  0  0  0  2  0  0  0  0  0  0
  185.9650  177.6090  137.7300 N   0  0  0  0  0  0  0  0  0  0  0  0
  188.2260  178.4270  138.1720 C   0  0  0  0  0  2  0  0  0  0  0  0
  185.7120  177.7640  142.4990 N   0  0  0  0  0  2  0  0  0  0  0  0
  187.1240  178.1560  142.4930 C   0  0  1  0  0  3  0  0  0  0  0  0
  183.4080  178.4230  142.0920 C   0  0  2  0  0  3  0  0  0  0  0  0
  184.5260  177.5060  138.0280 C   0  0  1  0  0  3  0  0  0  0  0  0
  189.0890  177.7390  139.2510 C   0  0  0  0  0  2  0  0  0  0  0  0
  189.8620  176.6540  147.2160 F   0  0  0  0  0  0  0  0  0  0  0  0
  189.7760  176.8460  144.8440 C   0  0  0  0  0  3  0  0  0  0  0  0
  187.7990  177.7750  143.7800 C   0  0  0  0  0  0  0  0  0  0  0  0
  187.9100  177.5690  146.2020 C   0  0  0  0  0  3  0  0  0  0  0  0
  189.0820  177.2230  143.6920 C   0  0  0  0  0  3  0  0  0  0  0  0
  187.2040  177.9490  145.0530 C   0  0  0  0  0  0  0  0  0  0  0  0
  189.1900  177.0190  146.0990 C   0  0  0  0  0  0  0  0  0  0  0  0
  185.8290  178.5200  145.2200 C   0  0  0  0  0  2  0  0  0  0  0  0
  185.3600  178.4170  146.6640 C   0  0  0  0  0  2  0  0  0  0  0  0
  185.5340  179.6380  147.3140 O   0  0  0  0  0  1  0  0  0  0  0  0
  183.9890  176.1670  137.5370 C   0  0  0  0  0  2  0  0  0  0  0  0
  185.0380  175.3050  137.2090 O   0  0  0  0  0  1  0  0  0  0  0  0
  182.9610  179.4300  143.1390 C   0  0  0  0  0  2  0  0  0  0  0  0
  182.1980  178.7510  144.2690 C   0  0  0  0  0  2  0  0  0  0  0  0
  180.2070  179.8020  143.1810 C   0  0  0  0  0  1  0  0  0  0  0  0
  180.7270  178.5820  143.9180 C   0  0  0  0  0  2  0  0  0  0  0  0
  1 13  1  0  0  0  0
  3  1  2  0  0  0  0
  4  2  1  0  0  0  0
  5  9  1  0  0  0  0
  5  2  2  0  0  0  0
  6  2  1  6  0  0  0
  6 14  1  0  0  0  0
  6 12  1  0  0  0  0
  7 14  1  0  0  0  0
  8  4  1  0  0  0  0
  9  7  1  0  0  0  0
 10 15  1  0  0  0  0
 10  8  2  0  0  0  0
 11  8  1  0  0  0  0
 11 16  1  0  0  0  0
 13 12  1  0  0  0  0
 13 19  1  1  0  0  0
 14 29  1  1  0  0  0
 15 27  1  1  0  0  0
 15  5  1  0  0  0  0
 16  3  1  0  0  0  0
 18 23  1  0  0  0  0
 19 22  2  0  0  0  0
 21 19  1  0  0  0  0
 21 18  2  0  0  0  0
 22 24  1  0  0  0  0
 22 20  1  0  0  0  0
 23 20  2  0  0  0  0
 23 17  1  0  0  0  0
 24 25  1  0  0  0  0
 25 26  1  0  0  0  0
 28 27  1  0  0  0  0
 29 30  1  0  0  0  0
 31 32  1  0  0  0  0
 32 30  1  0  0  0  0
M  END
>  <MODEL>
2

>  <REMARK>
 VINA RESULT:      -8.1      3.151      7.232
  Name = 
  7 active torsions:
  status: ('A' for Active; 'I' for Inactive)
    1  A    between atoms: C_3  and  C_23
    2  A    between atoms: C_9  and  C_31
    3  A    between atoms: C_9  and  C_32
    4  A    between atoms: C_13  and  CA_29
    5  A    between atoms: C_16  and  C_27
    6  A    between atoms: C_22  and  C_23
    7  A    between atoms: C_28  and  C_32
                            x       y       z     vdW  Elec       q    Type
                         _______ _______ _______ _____ _____    ______ ____

>  <TORSDO>
F 7

$$$$
=
 OpenBabel10272413153D

 32 35  0  0  1  0  0  0  0  0999 V2000
  183.0170  178.9130  143.5230 C   0  0  0  0  0  3  0  0  0  0  0  0
  183.2150  178.7030  140.4810 C   0  0  0  0  0  0  0  0  0  0  0  0
  181.9730  178.1660  143.8770 C   0  0  0  0  0  3  0  0  0  0  0  0
  182.1380  178.0700  141.1020 O   0  0  0  0  0  0  0  0  0  0  0  0
  182.9730  179.6680  139.5880 C   0  0  0  0  0  0  0  0  0  0  0  0
  184.6360  178.3330  140.8690 C   0  0  2  0  0  3  0  0  0  0  0  0
  185.0330  179.1150  138.5600 O   0  0  0  0  0  0  0  0  0  0  0  0
  180.9090  178.7260  141.2060 C   0  0  0  0  0  0  0  0  0  0  0  0
  184.1360  180.1770  138.7890 C   0  0  0  0  0  2  0  0  0  0  0  0
  180.6270  179.6870  140.3770 N   0  0  0  0  0  0  0  0  0  0  0  0
  179.9950  178.3920  142.3510 C   0  0  0  0  0  2  0  0  0  0  0  0
  185.0060  178.9620  142.1460 N   0  0  0  0  0  2  0  0  0  0  0  0
  184.3630  178.3050  143.2870 C   0  0  1  0  0  3  0  0  0  0  0  0
  185.6420  178.8270  139.8040 C   0  0  2  0  0  3  0  0  0  0  0  0
  181.5350  180.0300  139.2700 C   0  0  1  0  0  3  0  0  0  0  0  0
  180.6000  178.7500  143.7260 C   0  0  0  0  0  2  0  0  0  0  0  0
  187.4490  178.6920  148.0180 F   0  0  0  0  0  0  0  0  0  0  0  0
  185.4740  179.1950  146.7870 C   0  0  0  0  0  3  0  0  0  0  0  0
  185.2280  178.3750  144.5130 C   0  0  0  0  0  0  0  0  0  0  0  0
  187.2370  177.8740  145.7900 C   0  0  0  0  0  3  0  0  0  0  0  0
  184.7300  179.0880  145.6100 C   0  0  0  0  0  3  0  0  0  0  0  0
  186.5000  177.7610  144.6050 C   0  0  0  0  0  0  0  0  0  0  0  0
  186.7270  178.5880  146.8770 C   0  0  0  0  0  0  0  0  0  0  0  0
  187.1010  176.9950  143.4650 C   0  0  0  0  0  2  0  0  0  0  0  0
  188.6190  177.1020  143.4670 C   0  0  0  0  0  2  0  0  0  0  0  0
  189.1820  175.9640  142.8920 O   0  0  0  0  0  1  0  0  0  0  0  0
  181.3750  181.5010  138.9040 C   0  0  0  0  0  2  0  0  0  0  0  0
  180.0500  181.9100  139.0760 O   0  0  0  0  0  1  0  0  0  0  0  0
  186.7480  177.8000  139.6230 C   0  0  0  0  0  2  0  0  0  0  0  0
  188.0980  178.3580  140.0500 C   0  0  0  0  0  2  0  0  0  0  0  0
  188.9440  178.9030  137.7620 C   0  0  0  0  0  1  0  0  0  0  0  0
  189.1700  178.0700  139.0100 C   0  0  0  0  0  2  0  0  0  0  0  0
  1  3  2  0  0  0  0
  2  4  1  0  0  0  0
  4  8  1  0  0  0  0
  5  2  2  0  0  0  0
  6  2  1  6  0  0  0
  6 12  1  0  0  0  0
  7  9  1  0  0  0  0
  7 14  1  0  0  0  0
  8 11  1  0  0  0  0
  9  5  1  0  0  0  0
 10  8  2  0  0  0  0
 11 16  1  0  0  0  0
 12 13  1  0  0  0  0
 13  1  1  0  0  0  0
 13 19  1  1  0  0  0
 14 29  1  6  0  0  0
 14  6  1  0  0  0  0
 15 27  1  1  0  0  0
 15  5  1  0  0  0  0
 15 10  1  0  0  0  0
 16  3  1  0  0  0  0
 18 23  1  0  0  0  0
 19 22  2  0  0  0  0
 19 21  1  0  0  0  0
 20 23  2  0  0  0  0
 21 18  2  0  0  0  0
 22 20  1  0  0  0  0
 23 17  1  0  0  0  0
 24 25  1  0  0  0  0
 24 22  1  0  0  0  0
 26 25  1  0  0  0  0
 27 28  1  0  0  0  0
 29 30  1  0  0  0  0
 31 32  1  0  0  0  0
 32 30  1  0  0  0  0
M  END
>  <MODEL>
3

>  <REMARK>
 VINA RESULT:      -7.9      2.766      7.268
  Name = 
  7 active torsions:
  status: ('A' for Active; 'I' for Inactive)
    1  A    between atoms: C_3  and  C_23
    2  A    between atoms: C_9  and  C_31
    3  A    between atoms: C_9  and  C_32
    4  A    between atoms: C_13  and  CA_29
    5  A    between atoms: C_16  and  C_27
    6  A    between atoms: C_22  and  C_23
    7  A    between atoms: C_28  and  C_32
                            x       y       z     vdW  Elec       q    Type
                         _______ _______ _______ _____ _____    ______ ____

>  <TORSDO>
F 7

$$$$
=
 OpenBabel10272413153D

 32 35  0  0  1  0  0  0  0  0999 V2000
  186.6160  177.9630  141.4570 C   0  0  0  0  0  3  0  0  0  0  0  0
  185.0290  178.2760  138.8630 C   0  0  0  0  0  0  0  0  0  0  0  0
  187.7410  178.6540  141.2850 C   0  0  0  0  0  3  0  0  0  0  0  0
  186.3030  178.8430  138.9120 O   0  0  0  0  0  0  0  0  0  0  0  0
  184.7750  177.3290  137.9540 C   0  0  0  0  0  0  0  0  0  0  0  0
  183.9760  178.6930  139.8740 C   0  0  2  0  0  3  0  0  0  0  0  0
  182.5060  178.0010  138.0150 O   0  0  0  0  0  0  0  0  0  0  0  0
  187.4020  178.1330  138.4230 C   0  0  0  0  0  0  0  0  0  0  0  0
  183.3490  176.8950  137.7890 C   0  0  0  0  0  2  0  0  0  0  0  0
  187.2130  177.1860  137.5520 N   0  0  0  0  0  0  0  0  0  0  0  0
  188.7610  178.3920  139.0090 C   0  0  0  0  0  2  0  0  0  0  0  0
  184.2140  178.0410  141.1720 N   0  0  0  0  0  2  0  0  0  0  0  0
  185.3490  178.6350  141.8830 C   0  0  1  0  0  3  0  0  0  0  0  0
  182.5640  178.2760  139.4010 C   0  0  2  0  0  3  0  0  0  0  0  0
  185.8760  176.9160  136.9960 C   0  0  1  0  0  3  0  0  0  0  0  0
  188.8520  178.0180  140.5040 C   0  0  0  0  0  2  0  0  0  0  0  0
  184.8440  178.2850  147.5110 F   0  0  0  0  0  0  0  0  0  0  0  0
  186.1130  177.9660  145.5220 C   0  0  0  0  0  3  0  0  0  0  0  0
  185.1560  178.5640  143.3700 C   0  0  0  0  0  0  0  0  0  0  0  0
  183.8770  178.8810  145.4160 C   0  0  0  0  0  3  0  0  0  0  0  0
  186.2160  178.0600  144.1320 C   0  0  0  0  0  3  0  0  0  0  0  0
  183.9690  178.9790  144.0220 C   0  0  0  0  0  0  0  0  0  0  0  0
  184.9440  178.3770  146.1640 C   0  0  0  0  0  0  0  0  0  0  0  0
  182.7890  179.5150  143.2680 C   0  0  0  0  0  2  0  0  0  0  0  0
  181.4990  178.8400  143.7110 C   0  0  0  0  0  2  0  0  0  0  0  0
  180.3980  179.5660  143.2580 O   0  0  0  0  0  1  0  0  0  0  0  0
  185.7700  175.4510  136.5870 C   0  0  0  0  0  2  0  0  0  0  0  0
  186.6560  174.6670  137.3300 O   0  0  0  0  0  1  0  0  0  0  0  0
  181.5580  179.3540  139.7670 C   0  0  0  0  0  2  0  0  0  0  0  0
  181.1160  180.1390  138.5380 C   0  0  0  0  0  2  0  0  0  0  0  0
  180.9090  182.4980  137.7370 C   0  0  0  0  0  1  0  0  0  0  0  0
  181.7780  181.5070  138.4890 C   0  0  0  0  0  2  0  0  0  0  0  0
  1 13  1  0  0  0  0
  2  4  1  0  0  0  0
  3  1  2  0  0  0  0
  5  2  2  0  0  0  0
  6  2  1  6  0  0  0
  6 12  1  0  0  0  0
  7 14  1  0  0  0  0
  8  4  1  0  0  0  0
  8 11  1  0  0  0  0
  9  5  1  0  0  0  0
  9  7  1  0  0  0  0
 10  8  2  0  0  0  0
 11 16  1  0  0  0  0
 12 13  1  0  0  0  0
 13 19  1  1  0  0  0
 14 29  1  6  0  0  0
 14  6  1  0  0  0  0
 15 27  1  1  0  0  0
 15 10  1  0  0  0  0
 15  5  1  0  0  0  0
 16  3  1  0  0  0  0
 18 23  1  0  0  0  0
 19 22  2  0  0  0  0
 19 21  1  0  0  0  0
 20 23  2  0  0  0  0
 21 18  2  0  0  0  0
 22 20  1  0  0  0  0
 23 17  1  0  0  0  0
 24 25  1  0  0  0  0
 24 22  1  0  0  0  0
 26 25  1  0  0  0  0
 27 28  1  0  0  0  0
 30 29  1  0  0  0  0
 31 32  1  0  0  0  0
 32 30  1  0  0  0  0
M  END
>  <MODEL>
4

>  <REMARK>
 VINA RESULT:      -7.8      3.695      6.474
  Name = 
  7 active torsions:
  status: ('A' for Active; 'I' for Inactive)
    1  A    between atoms: C_3  and  C_23
    2  A    between atoms: C_9  and  C_31
    3  A    between atoms: C_9  and  C_32
    4  A    between atoms: C_13  and  CA_29
    5  A    between atoms: C_16  and  C_27
    6  A    between atoms: C_22  and  C_23
    7  A    between atoms: C_28  and  C_32
                            x       y       z     vdW  Elec       q    Type
                         _______ _______ _______ _____ _____    ______ ____

>  <TORSDO>
F 7

$$$$
=
 OpenBabel10272413153D

 32 35  0  0  1  0  0  0  0  0999 V2000
  186.8620  177.9160  141.3770 C   0  0  0  0  0  3  0  0  0  0  0  0
  185.0310  178.1890  138.9450 C   0  0  0  0  0  0  0  0  0  0  0  0
  187.9460  178.6390  141.1050 C   0  0  0  0  0  3  0  0  0  0  0  0
  186.2870  178.7930  138.8770 O   0  0  0  0  0  0  0  0  0  0  0  0
  184.7210  177.2380  138.0580 C   0  0  0  0  0  0  0  0  0  0  0  0
  184.0660  178.5730  140.0520 C   0  0  2  0  0  3  0  0  0  0  0  0
  182.4490  177.8430  138.3340 O   0  0  0  0  0  0  0  0  0  0  0  0
  187.3550  178.1160  138.2840 C   0  0  0  0  0  0  0  0  0  0  0  0
  183.2980  176.7620  138.0240 C   0  0  0  0  0  2  0  0  0  0  0  0
  187.1140  177.1670  137.4290 N   0  0  0  0  0  0  0  0  0  0  0  0
  188.7560  178.4140  138.7420 C   0  0  0  0  0  2  0  0  0  0  0  0
  184.4420  177.9250  141.3180 N   0  0  0  0  0  2  0  0  0  0  0  0
  185.6220  178.5490  141.9230 C   0  0  1  0  0  3  0  0  0  0  0  0
  182.6290  178.1150  139.7100 C   0  0  2  0  0  3  0  0  0  0  0  0
  185.7390  176.8600  137.0000 C   0  0  1  0  0  3  0  0  0  0  0  0
  188.9960  178.0380  140.2200 C   0  0  0  0  0  2  0  0  0  0  0  0
  185.2320  178.3880  147.5690 F   0  0  0  0  0  0  0  0  0  0  0  0
  184.4560  179.1790  145.4610 C   0  0  0  0  0  3  0  0  0  0  0  0
  185.5700  178.4690  143.4220 C   0  0  0  0  0  0  0  0  0  0  0  0
  186.3450  177.6740  145.5870 C   0  0  0  0  0  3  0  0  0  0  0  0
  184.5710  179.2050  144.0690 C   0  0  0  0  0  3  0  0  0  0  0  0
  186.4700  177.6940  144.1920 C   0  0  0  0  0  0  0  0  0  0  0  0
  185.3430  178.4140  146.2200 C   0  0  0  0  0  0  0  0  0  0  0  0
  187.5720  176.8930  143.5660 C   0  0  0  0  0  2  0  0  0  0  0  0
  188.8260  176.9130  144.4270 C   0  0  0  0  0  2  0  0  0  0  0  0
  189.5830  178.0510  144.1470 O   0  0  0  0  0  1  0  0  0  0  0  0
  185.6370  175.3930  136.5940 C   0  0  0  0  0  2  0  0  0  0  0  0
  186.5180  174.6120  137.3450 O   0  0  0  0  0  1  0  0  0  0  0  0
  181.6300  179.1630  140.1740 C   0  0  0  0  0  2  0  0  0  0  0  0
  180.7510  178.6320  141.2980 C   0  0  0  0  0  2  0  0  0  0  0  0
  180.3910  178.5340  143.7700 C   0  0  0  0  0  1  0  0  0  0  0  0
  181.2130  179.1470  142.6520 C   0  0  0  0  0  2  0  0  0  0  0  0
  1 13  1  0  0  0  0
  3  1  2  0  0  0  0
  4  2  1  0  0  0  0
  5  2  2  0  0  0  0
  6  2  1  6  0  0  0
  6 12  1  0  0  0  0
  7 14  1  0  0  0  0
  8 11  1  0  0  0  0
  8  4  1  0  0  0  0
  9  5  1  0  0  0  0
  9  7  1  0  0  0  0
 10  8  2  0  0  0  0
 11 16  1  0  0  0  0
 12 13  1  0  0  0  0
 13 19  1  1  0  0  0
 14  6  1  0  0  0  0
 14 29  1  6  0  0  0
 15 27  1  1  0  0  0
 15 10  1  0  0  0  0
 15  5  1  0  0  0  0
 16  3  1  0  0  0  0
 18 23  1  0  0  0  0
 19 21  1  0  0  0  0
 19 22  2  0  0  0  0
 20 23  2  0  0  0  0
 21 18  2  0  0  0  0
 22 20  1  0  0  0  0
 23 17  1  0  0  0  0
 24 22  1  0  0  0  0
 24 25  1  0  0  0  0
 26 25  1  0  0  0  0
 27 28  1  0  0  0  0
 29 30  1  0  0  0  0
 30 32  1  0  0  0  0
 32 31  1  0  0  0  0
M  END
>  <MODEL>
5

>  <REMARK>
 VINA RESULT:      -7.6      2.686      6.727
  Name = 
  7 active torsions:
  status: ('A' for Active; 'I' for Inactive)
    1  A    between atoms: C_3  and  C_23
    2  A    between atoms: C_9  and  C_31
    3  A    between atoms: C_9  and  C_32
    4  A    between atoms: C_13  and  CA_29
    5  A    between atoms: C_16  and  C_27
    6  A    between atoms: C_22  and  C_23
    7  A    between atoms: C_28  and  C_32
                            x       y       z     vdW  Elec       q    Type
                         _______ _______ _______ _____ _____    ______ ____

>  <TORSDO>
F 7

$$$$
=
 OpenBabel10272413153D

 32 35  0  0  1  0  0  0  0  0999 V2000
  188.4750  177.3770  140.7750 C   0  0  0  0  0  3  0  0  0  0  0  0
  185.7020  178.5380  140.2240 C   0  0  0  0  0  0  0  0  0  0  0  0
  189.2930  177.9450  139.8920 C   0  0  0  0  0  3  0  0  0  0  0  0
  186.7390  178.9130  139.3690 O   0  0  0  0  0  0  0  0  0  0  0  0
  184.6450  177.8960  139.7170 C   0  0  0  0  0  0  0  0  0  0  0  0
  185.8140  178.8080  141.7140 C   0  0  2  0  0  3  0  0  0  0  0  0
  183.3560  178.8020  141.4840 O   0  0  0  0  0  0  0  0  0  0  0  0
  186.9390  178.2230  138.1710 C   0  0  0  0  0  0  0  0  0  0  0  0
  183.4610  177.6970  140.6170 C   0  0  0  0  0  2  0  0  0  0  0  0
  185.9520  177.5630  137.6420 N   0  0  0  0  0  0  0  0  0  0  0  0
  188.3230  178.1550  137.5890 C   0  0  0  0  0  2  0  0  0  0  0  0
  186.6960  177.8200  142.3550 N   0  0  0  0  0  2  0  0  0  0  0  0
  188.1080  178.0670  142.0500 C   0  0  1  0  0  3  0  0  0  0  0  0
  184.4310  178.7020  142.3970 C   0  0  2  0  0  3  0  0  0  0  0  0
  184.6020  177.6110  138.2280 C   0  0  1  0  0  3  0  0  0  0  0  0
  189.3200  177.4000  138.4950 C   0  0  0  0  0  2  0  0  0  0  0  0
  191.6210  176.4340  146.1790 F   0  0  0  0  0  0  0  0  0  0  0  0
  191.1920  176.8760  143.8790 C   0  0  0  0  0  3  0  0  0  0  0  0
  188.9920  177.6400  143.1870 C   0  0  0  0  0  0  0  0  0  0  0  0
  189.4540  177.1830  145.5320 C   0  0  0  0  0  3  0  0  0  0  0  0
  190.3090  177.2800  142.8760 C   0  0  0  0  0  3  0  0  0  0  0  0
  188.5590  177.5890  144.5340 C   0  0  0  0  0  0  0  0  0  0  0  0
  190.7650  176.8270  145.2060 C   0  0  0  0  0  0  0  0  0  0  0  0
  187.1600  177.9460  144.9370 C   0  0  0  0  0  2  0  0  0  0  0  0
  186.9380  177.7150  146.4240 C   0  0  0  0  0  2  0  0  0  0  0  0
  185.7290  178.2840  146.8240 O   0  0  0  0  0  1  0  0  0  0  0  0
  183.8490  176.3260  137.9040 C   0  0  0  0  0  2  0  0  0  0  0  0
  184.7030  175.3910  137.3140 O   0  0  0  0  0  1  0  0  0  0  0  0
  184.3060  179.7660  143.4760 C   0  0  0  0  0  2  0  0  0  0  0  0
  183.4650  179.2720  144.6450 C   0  0  0  0  0  2  0  0  0  0  0  0
  181.1000  179.2730  143.8360 C   0  0  0  0  0  1  0  0  0  0  0  0
  182.3050  178.4130  144.1670 C   0  0  0  0  0  2  0  0  0  0  0  0
  1 13  1  0  0  0  0
  3  1  2  0  0  0  0
  4  2  1  0  0  0  0
  5  2  2  0  0  0  0
  5  9  1  0  0  0  0
  6  2  1  6  0  0  0
  6 12  1  0  0  0  0
  6 14  1  0  0  0  0
  7 14  1  0  0  0  0
  8  4  1  0  0  0  0
  9  7  1  0  0  0  0
 10  8  2  0  0  0  0
 10 15  1  0  0  0  0
 11  8  1  0  0  0  0
 11 16  1  0  0  0  0
 13 12  1  0  0  0  0
 13 19  1  1  0  0  0
 14 29  1  1  0  0  0
 15 27  1  1  0  0  0
 15  5  1  0  0  0  0
 16  3  1  0  0  0  0
 18 23  1  0  0  0  0
 19 22  2  0  0  0  0
 21 19  1  0  0  0  0
 21 18  2  0  0  0  0
 22 24  1  0  0  0  0
 22 20  1  0  0  0  0
 23 20  2  0  0  0  0
 23 17  1  0  0  0  0
 24 25  1  0  0  0  0
 25 26  1  0  0  0  0
 28 27  1  0  0  0  0
 29 30  1  0  0  0  0
 31 32  1  0  0  0  0
 32 30  1  0  0  0  0
M  END
>  <MODEL>
6

>  <REMARK>
 VINA RESULT:      -7.2      3.070      7.380
  Name = 
  7 active torsions:
  status: ('A' for Active; 'I' for Inactive)
    1  A    between atoms: C_3  and  C_23
    2  A    between atoms: C_9  and  C_31
    3  A    between atoms: C_9  and  C_32
    4  A    between atoms: C_13  and  CA_29
    5  A    between atoms: C_16  and  C_27
    6  A    between atoms: C_22  and  C_23
    7  A    between atoms: C_28  and  C_32
                            x       y       z     vdW  Elec       q    Type
                         _______ _______ _______ _____ _____    ______ ____

>  <TORSDO>
F 7

$$$$
=
 OpenBabel10272413153D

 32 35  0  0  1  0  0  0  0  0999 V2000
  188.3110  177.4110  140.2650 C   0  0  0  0  0  3  0  0  0  0  0  0
  185.4880  178.5810  140.2210 C   0  0  0  0  0  0  0  0  0  0  0  0
  188.9750  178.0150  139.2820 C   0  0  0  0  0  3  0  0  0  0  0  0
  186.3720  178.9920  139.2230 O   0  0  0  0  0  0  0  0  0  0  0  0
  184.3610  177.9550  139.8710 C   0  0  0  0  0  0  0  0  0  0  0  0
  185.8450  178.7940  141.6820 C   0  0  2  0  0  3  0  0  0  0  0  0
  183.3820  178.7890  141.8580 O   0  0  0  0  0  0  0  0  0  0  0  0
  186.3720  178.3490  137.9830 C   0  0  0  0  0  0  0  0  0  0  0  0
  183.3400  177.7180  140.9440 C   0  0  0  0  0  2  0  0  0  0  0  0
  185.3090  177.7070  137.5980 N   0  0  0  0  0  0  0  0  0  0  0  0
  187.6410  178.3080  137.1790 C   0  0  0  0  0  2  0  0  0  0  0  0
  186.8170  177.7860  142.1320 N   0  0  0  0  0  2  0  0  0  0  0  0
  188.1600  178.0490  141.6090 C   0  0  1  0  0  3  0  0  0  0  0  0
  184.5920  178.6580  142.5780 C   0  0  2  0  0  3  0  0  0  0  0  0
  184.0740  177.7270  138.3990 C   0  0  1  0  0  3  0  0  0  0  0  0
  188.7710  177.5240  137.8800 C   0  0  0  0  0  2  0  0  0  0  0  0
  191.9780  176.2780  145.3960 F   0  0  0  0  0  0  0  0  0  0  0  0
  189.7510  176.9150  144.8420 C   0  0  0  0  0  3  0  0  0  0  0  0
  189.2180  177.5830  142.5680 C   0  0  0  0  0  0  0  0  0  0  0  0
  191.4860  176.9290  143.1570 C   0  0  0  0  0  3  0  0  0  0  0  0
  188.8260  177.3530  143.8920 C   0  0  0  0  0  3  0  0  0  0  0  0
  190.5670  177.3690  142.1960 C   0  0  0  0  0  0  0  0  0  0  0  0
  191.0810  176.7030  144.4750 C   0  0  0  0  0  0  0  0  0  0  0  0
  191.0590  177.6090  140.8010 C   0  0  0  0  0  2  0  0  0  0  0  0
  192.5400  177.2860  140.6750 C   0  0  0  0  0  2  0  0  0  0  0  0
  192.9190  177.2830  139.3330 O   0  0  0  0  0  1  0  0  0  0  0  0
  183.2750  176.4520  138.1540 C   0  0  0  0  0  2  0  0  0  0  0  0
  184.1290  175.3570  138.0040 O   0  0  0  0  0  1  0  0  0  0  0  0
  184.6490  179.6790  143.7030 C   0  0  0  0  0  2  0  0  0  0  0  0
  184.3730  179.0310  145.0530 C   0  0  0  0  0  2  0  0  0  0  0  0
  186.0240  178.7710  146.9120 C   0  0  0  0  0  1  0  0  0  0  0  0
  185.5840  178.2590  145.5530 C   0  0  0  0  0  2  0  0  0  0  0  0
  1 13  1  0  0  0  0
  3  1  2  0  0  0  0
  4  2  1  0  0  0  0
  5  2  2  0  0  0  0
  5  9  1  0  0  0  0
  6  2  1  6  0  0  0
  6 12  1  0  0  0  0
  6 14  1  0  0  0  0
  7 14  1  0  0  0  0
  8  4  1  0  0  0  0
  9  7  1  0  0  0  0
 10  8  2  0  0  0  0
 10 15  1  0  0  0  0
 11 16  1  0  0  0  0
 11  8  1  0  0  0  0
 13 12  1  0  0  0  0
 13 19  1  1  0  0  0
 14 29  1  1  0  0  0
 15 27  1  1  0  0  0
 15  5  1  0  0  0  0
 16  3  1  0  0  0  0
 19 21  1  0  0  0  0
 20 23  2  0  0  0  0
 21 18  2  0  0  0  0
 22 19  2  0  0  0  0
 22 20  1  0  0  0  0
 23 18  1  0  0  0  0
 23 17  1  0  0  0  0
 24 22  1  0  0  0  0
 25 24  1  0  0  0  0
 26 25  1  0  0  0  0
 28 27  1  0  0  0  0
 29 30  1  0  0  0  0
 30 32  1  0  0  0  0
 32 31  1  0  0  0  0
M  END
>  <MODEL>
7

>  <REMARK>
 VINA RESULT:      -7.2      3.103      7.676
  Name = 
  7 active torsions:
  status: ('A' for Active; 'I' for Inactive)
    1  A    between atoms: C_3  and  C_23
    2  A    between atoms: C_9  and  C_31
    3  A    between atoms: C_9  and  C_32
    4  A    between atoms: C_13  and  CA_29
    5  A    between atoms: C_16  and  C_27
    6  A    between atoms: C_22  and  C_23
    7  A    between atoms: C_28  and  C_32
                            x       y       z     vdW  Elec       q    Type
                         _______ _______ _______ _____ _____    ______ ____

>  <TORSDO>
F 7

$$$$
=
 OpenBabel10272413153D

 32 35  0  0  1  0  0  0  0  0999 V2000
  186.5660  177.6500  143.6490 C   0  0  0  0  0  3  0  0  0  0  0  0
  189.3760  177.8910  142.4740 C   0  0  0  0  0  0  0  0  0  0  0  0
  186.5870  178.3240  144.7960 C   0  0  0  0  0  3  0  0  0  0  0  0
  189.1540  178.4480  143.7330 O   0  0  0  0  0  0  0  0  0  0  0  0
  190.2840  176.9170  142.3470 C   0  0  0  0  0  0  0  0  0  0  0  0
  188.5490  178.3500  141.2870 C   0  0  2  0  0  3  0  0  0  0  0  0
  190.5850  177.6100  140.1030 O   0  0  0  0  0  0  0  0  0  0  0  0
  189.4500  177.7130  144.8830 C   0  0  0  0  0  0  0  0  0  0  0  0
  190.6480  176.4900  140.9560 C   0  0  0  0  0  2  0  0  0  0  0  0
  190.3100  176.7410  144.8150 N   0  0  0  0  0  0  0  0  0  0  0  0
  188.6750  177.9800  146.1430 C   0  0  0  0  0  2  0  0  0  0  0  0
  187.2110  177.7390  141.3180 N   0  0  0  0  0  2  0  0  0  0  0  0
  186.3560  178.3450  142.3420 C   0  0  1  0  0  3  0  0  0  0  0  0
  189.2160  177.9290  139.9560 C   0  0  2  0  0  3  0  0  0  0  0  0
  191.0520  176.4640  143.5730 C   0  0  1  0  0  3  0  0  0  0  0  0
  187.1720  177.6540  146.0030 C   0  0  0  0  0  2  0  0  0  0  0  0
  180.9790  178.1440  140.5790 F   0  0  0  0  0  0  0  0  0  0  0  0
  183.2860  177.6540  140.2500 C   0  0  0  0  0  3  0  0  0  0  0  0
  184.9130  178.3250  141.9260 C   0  0  0  0  0  0  0  0  0  0  0  0
  182.5500  178.8150  142.2400 C   0  0  0  0  0  3  0  0  0  0  0  0
  184.6060  177.7150  140.7040 C   0  0  0  0  0  3  0  0  0  0  0  0
  183.8690  178.8840  142.7040 C   0  0  0  0  0  0  0  0  0  0  0  0
  182.2590  178.2030  141.0180 C   0  0  0  0  0  0  0  0  0  0  0  0
  184.1280  179.5630  144.0150 C   0  0  0  0  0  2  0  0  0  0  0  0
  183.1840  179.0540  145.0950 C   0  0  0  0  0  2  0  0  0  0  0  0
  183.8740  178.8880  146.2950 O   0  0  0  0  0  1  0  0  0  0  0  0
  191.4270  174.9880  143.5100 C   0  0  0  0  0  2  0  0  0  0  0  0
  192.3130  174.6610  144.5390 O   0  0  0  0  0  1  0  0  0  0  0  0
  189.0390  179.0280  138.9210 C   0  0  0  0  0  2  0  0  0  0  0  0
  188.3710  178.4980  137.6590 C   0  0  0  0  0  2  0  0  0  0  0  0
  189.1860  177.6240  135.4630 C   0  0  0  0  0  1  0  0  0  0  0  0
  189.2400  177.4570  136.9700 C   0  0  0  0  0  2  0  0  0  0  0  0
  1  3  2  0  0  0  0
  2  4  1  0  0  0  0
  3 16  1  0  0  0  0
  4  8  1  0  0  0  0
  5  2  2  0  0  0  0
  5 15  1  0  0  0  0
  6 12  1  1  0  0  0
  6  2  1  0  0  0  0
  7  9  1  0  0  0  0
  8 11  1  0  0  0  0
  9  5  1  0  0  0  0
 10  8  2  0  0  0  0
 12 13  1  0  0  0  0
 13 19  1  6  0  0  0
 13  1  1  0  0  0  0
 14 29  1  6  0  0  0
 14  7  1  0  0  0  0
 14  6  1  0  0  0  0
 15 27  1  6  0  0  0
 15 10  1  0  0  0  0
 16 11  1  0  0  0  0
 17 23  1  0  0  0  0
 18 21  2  0  0  0  0
 18 23  1  0  0  0  0
 19 22  2  0  0  0  0
 20 22  1  0  0  0  0
 21 19  1  0  0  0  0
 22 24  1  0  0  0  0
 23 20  2  0  0  0  0
 24 25  1  0  0  0  0
 25 26  1  0  0  0  0
 27 28  1  0  0  0  0
 30 29  1  0  0  0  0
 31 32  1  0  0  0  0
 32 30  1  0  0  0  0
M  END
>  <MODEL>
8

>  <REMARK>
 VINA RESULT:      -7.0      1.743      2.545
  Name = 
  7 active torsions:
  status: ('A' for Active; 'I' for Inactive)
    1  A    between atoms: C_3  and  C_23
    2  A    between atoms: C_9  and  C_31
    3  A    between atoms: C_9  and  C_32
    4  A    between atoms: C_13  and  CA_29
    5  A    between atoms: C_16  and  C_27
    6  A    between atoms: C_22  and  C_23
    7  A    between atoms: C_28  and  C_32
                            x       y       z     vdW  Elec       q    Type
                         _______ _______ _______ _____ _____    ______ ____

>  <TORSDO>
F 7

$$$$
=
 OpenBabel10272413153D

 32 35  0  0  1  0  0  0  0  0999 V2000
  188.2800  177.4740  142.1000 C   0  0  0  0  0  3  0  0  0  0  0  0
  187.5030  178.0480  139.2010 C   0  0  0  0  0  0  0  0  0  0  0  0
  189.4960  177.9880  142.2640 C   0  0  0  0  0  3  0  0  0  0  0  0
  188.7850  178.4170  139.6100 O   0  0  0  0  0  0  0  0  0  0  0  0
  187.3680  177.1600  138.2110 C   0  0  0  0  0  0  0  0  0  0  0  0
  186.2890  178.6090  139.9200 C   0  0  2  0  0  3  0  0  0  0  0  0
  185.2840  178.1660  137.7090 O   0  0  0  0  0  0  0  0  0  0  0  0
  189.8610  177.5540  139.3910 C   0  0  0  0  0  0  0  0  0  0  0  0
  185.9910  176.9480  137.6560 C   0  0  0  0  0  2  0  0  0  0  0  0
  189.7790  176.6560  138.4540 N   0  0  0  0  0  0  0  0  0  0  0  0
  191.0380  177.6000  140.3250 C   0  0  0  0  0  2  0  0  0  0  0  0
  186.0770  177.9160  141.2000 N   0  0  0  0  0  2  0  0  0  0  0  0
  187.0540  178.3240  142.2130 C   0  0  1  0  0  3  0  0  0  0  0  0
  185.0100  178.4140  139.0740 C   0  0  2  0  0  3  0  0  0  0  0  0
  188.6140  176.5960  137.5550 C   0  0  1  0  0  3  0  0  0  0  0  0
  190.6730  177.2010  141.7710 C   0  0  0  0  0  2  0  0  0  0  0  0
  185.0380  178.0340  147.4950 F   0  0  0  0  0  0  0  0  0  0  0  0
  186.8070  177.7170  145.9340 C   0  0  0  0  0  3  0  0  0  0  0  0
  186.4630  178.2680  143.5920 C   0  0  0  0  0  0  0  0  0  0  0  0
  184.6700  178.5830  145.2060 C   0  0  0  0  0  3  0  0  0  0  0  0
  187.2840  177.7960  144.6230 C   0  0  0  0  0  3  0  0  0  0  0  0
  185.1370  178.6650  143.8880 C   0  0  0  0  0  0  0  0  0  0  0  0
  185.5010  178.1110  146.2250 C   0  0  0  0  0  0  0  0  0  0  0  0
  184.1990  179.1660  142.8320 C   0  0  0  0  0  2  0  0  0  0  0  0
  182.7930  179.3510  143.3850 C   0  0  0  0  0  2  0  0  0  0  0  0
  181.8580  178.7860  142.5180 O   0  0  0  0  0  1  0  0  0  0  0  0
  188.4130  175.1690  137.0600 C   0  0  0  0  0  2  0  0  0  0  0  0
  189.5790  174.6870  136.4590 O   0  0  0  0  0  1  0  0  0  0  0  0
  184.1070  179.6280  139.2160 C   0  0  0  0  0  2  0  0  0  0  0  0
  182.7190  179.3560  138.6490 C   0  0  0  0  0  2  0  0  0  0  0  0
  180.6500  178.1110  139.2950 C   0  0  0  0  0  1  0  0  0  0  0  0
  182.1600  178.0400  139.1660 C   0  0  0  0  0  2  0  0  0  0  0  0
  1 13  1  0  0  0  0
  1  3  2  0  0  0  0
  2  4  1  0  0  0  0
  5  2  2  0  0  0  0
  6  2  1  6  0  0  0
  6 12  1  0  0  0  0
  7 14  1  0  0  0  0
  8  4  1  0  0  0  0
  8 11  1  0  0  0  0
  9  7  1  0  0  0  0
  9  5  1  0  0  0  0
 10  8  2  0  0  0  0
 11 16  1  0  0  0  0
 12 13  1  0  0  0  0
 13 19  1  1  0  0  0
 14 29  1  6  0  0  0
 14  6  1  0  0  0  0
 15 27  1  1  0  0  0
 15  5  1  0  0  0  0
 15 10  1  0  0  0  0
 16  3  1  0  0  0  0
 18 23  1  0  0  0  0
 19 22  2  0  0  0  0
 19 21  1  0  0  0  0
 20 23  2  0  0  0  0
 21 18  2  0  0  0  0
 22 20  1  0  0  0  0
 23 17  1  0  0  0  0
 24 25  1  0  0  0  0
 24 22  1  0  0  0  0
 26 25  1  0  0  0  0
 28 27  1  0  0  0  0
 30 32  1  0  0  0  0
 30 29  1  0  0  0  0
 32 31  1  0  0  0  0
M  END
>  <MODEL>
9

>  <REMARK>
 VINA RESULT:      -7.0      2.869      5.270
  Name = 
  7 active torsions:
  status: ('A' for Active; 'I' for Inactive)
    1  A    between atoms: C_3  and  C_23
    2  A    between atoms: C_9  and  C_31
    3  A    between atoms: C_9  and  C_32
    4  A    between atoms: C_13  and  CA_29
    5  A    between atoms: C_16  and  C_27
    6  A    between atoms: C_22  and  C_23
    7  A    between atoms: C_28  and  C_32
                            x       y       z     vdW  Elec       q    Type
                         _______ _______ _______ _____ _____    ______ ____

>  <TORSDO>
F 7

$$$$
