=
 OpenBabel10272414563D

 37 40  0  0  1  0  0  0  0  0999 V2000
  190.3590  176.3030  137.8230 C   0  0  1  0  0  3  0  0  0  0  0  0
  187.2810  174.6290  136.7320 O   0  0  0  0  0  0  0  0  0  0  0  0
  191.3600  175.5140  136.9650 C   0  0  1  0  0  3  0  0  0  0  0  0
  188.3180  171.7460  135.6940 C   0  0  0  0  0  2  0  0  0  0  0  0
  187.1090  176.9110  137.5460 C   0  0  1  0  0  3  0  0  0  0  0  0
  188.9220  179.7810  137.4560 O   0  0  0  0  0  1  0  0  0  0  0  0
  188.9040  173.1620  135.7100 C   0  0  1  0  0  3  0  0  0  0  0  0
  187.5170  171.5470  134.5570 O   0  0  0  0  0  0  0  0  0  0  0  0
  190.0320  177.6780  137.2120 C   0  0  0  0  0  2  0  0  0  0  0  0
  190.0150  173.3240  134.6880 C   0  0  0  0  0  2  0  0  0  0  0  0
  191.2250  174.0090  135.3170 C   0  0  2  0  0  3  0  0  0  0  0  0
  186.7130  173.7970  134.5370 C   0  0  0  0  0  2  0  0  0  0  0  0
  186.3680  172.3270  134.7530 C   0  0  0  0  0  2  0  0  0  0  0  0
  190.9240  175.3410  135.6380 O   0  0  0  0  0  0  0  0  0  0  0  0
  189.1200  178.5520  138.0810 C   0  0  2  0  0  3  0  0  0  0  0  0
  187.8190  174.2320  135.5030 C   0  0  1  0  0  3  0  0  0  0  0  0
  188.0160  175.7690  137.0640 C   0  0  1  0  0  3  0  0  0  0  0  0
  187.7590  177.9520  138.4910 C   0  0  2  0  0  3  0  0  0  0  0  0
  189.1180  175.4380  138.0670 C   0  0  0  0  0  2  0  0  0  0  0  0
  187.1420  177.7090  135.1400 C   0  0  0  0  0  1  0  0  0  0  0  0
  186.3180  177.5540  136.4080 C   0  0  0  0  0  2  0  0  0  0  0  0
  193.5360  175.3110  137.9840 C   0  0  0  0  0  1  0  0  0  0  0  0
  192.7180  176.0640  137.0400 N   0  0  0  0  0  2  0  0  0  0  0  0
  192.3960  173.9770  134.3460 C   0  0  0  0  0  2  0  0  0  0  0  0
  193.5550  173.1730  134.9120 C   0  0  0  0  0  2  0  0  0  0  0  0
  193.1210  172.3830  135.9770 O   0  0  0  0  0  1  0  0  0  0  0  0
  187.8400  177.4420  139.7900 O   0  0  0  0  0  0  0  0  0  0  0  0
  188.4330  178.4610  140.5440 C   0  0  0  0  0  2  0  0  0  0  0  0
  188.2430  176.9670  142.5440 C   0  0  0  0  0  2  0  0  0  0  0  0
  191.5680  177.3030  142.3030 C   0  0  0  0  0  2  0  0  0  0  0  0
  191.2140  176.6930  143.5740 N   0  0  0  0  0  2  0  0  0  0  0  0
  190.8740  178.5420  144.9500 O   0  0  0  0  0  0  0  0  0  0  0  0
  189.1100  176.9390  144.9220 C   0  0  0  0  0  2  0  0  0  0  0  0
  190.4630  177.4260  144.5370 C   0  0  0  0  0  0  0  0  0  0  0  0
  190.4250  177.1450  141.3030 C   0  0  0  0  0  2  0  0  0  0  0  0
  188.0540  177.4890  143.9650 C   0  0  0  0  0  2  0  0  0  0  0  0
  189.1670  177.8860  141.7470 C   0  0  1  0  0  3  0  0  0  0  0  0
  1  9  1  6  0  0  0
  1 19  1  0  0  0  0
  2 17  1  0  0  0  0
  3 23  1  6  0  0  0
  3  1  1  0  0  0  0
  4  7  1  0  0  0  0
  5 21  1  6  0  0  0
  5 18  1  0  0  0  0
  7 10  1  6  0  0  0
  8 13  1  0  0  0  0
  8  4  1  0  0  0  0
  9 15  1  0  0  0  0
 10 11  1  0  0  0  0
 11 24  1  6  0  0  0
 11 14  1  0  0  0  0
 12 13  1  0  0  0  0
 14  3  1  0  0  0  0
 15  6  1  6  0  0  0
 15 18  1  0  0  0  0
 16 12  1  6  0  0  0
 16  7  1  0  0  0  0
 16  2  1  0  0  0  0
 17  5  1  0  0  0  0
 17 19  1  1  0  0  0
 18 27  1  1  0  0  0
 20 21  1  0  0  0  0
 23 22  1  0  0  0  0
 24 25  1  0  0  0  0
 25 26  1  0  0  0  0
 27 28  1  0  0  0  0
 29 36  1  0  0  0  0
 30 31  1  0  0  0  0
 31 34  1  0  0  0  0
 34 33  1  0  0  0  0
 34 32  2  0  0  0  0
 35 37  1  0  0  0  0
 35 30  1  0  0  0  0
 36 33  1  0  0  0  0
 37 28  1  6  0  0  0
 37 29  1  0  0  0  0
M  END
>  <MODEL>
1

>  <REMARK>
 VINA RESULT:      -6.5      0.000      0.000
  Name = 
  7 active torsions:
  status: ('A' for Active; 'I' for Inactive)
    1  A    between atoms: C_3  and  C_32
    2  A    between atoms: C_5  and  N_23
    3  A    between atoms: C_10  and  C_14
    4  A    between atoms: C_21  and  C_32
    5  A    between atoms: C_27  and  O_33
    6  A    between atoms: C_27  and  C_37
    7  A    between atoms: O_33  and  C_34
                            x       y       z     vdW  Elec       q    Type
                         _______ _______ _______ _____ _____    ______ ____

>  <TORSDO>
F 7

$$$$
=
 OpenBabel10272414563D

 37 40  0  0  1  0  0  0  0  0999 V2000
  190.2890  176.3270  137.9300 C   0  0  1  0  0  3  0  0  0  0  0  0
  187.0430  174.7610  137.2410 O   0  0  0  0  0  0  0  0  0  0  0  0
  191.1560  175.4640  137.0010 C   0  0  1  0  0  3  0  0  0  0  0  0
  187.8380  171.8000  136.2100 C   0  0  0  0  0  2  0  0  0  0  0  0
  187.0570  177.0740  137.9810 C   0  0  1  0  0  3  0  0  0  0  0  0
  188.9690  179.8530  137.5860 O   0  0  0  0  0  1  0  0  0  0  0  0
  188.4820  173.1870  136.1080 C   0  0  1  0  0  3  0  0  0  0  0  0
  186.9100  171.6000  135.1740 O   0  0  0  0  0  0  0  0  0  0  0  0
  189.9550  177.6940  137.3050 C   0  0  0  0  0  2  0  0  0  0  0  0
  189.4800  173.2640  134.9670 C   0  0  0  0  0  2  0  0  0  0  0  0
  190.7790  173.9130  135.4360 C   0  0  2  0  0  3  0  0  0  0  0  0
  186.2050  173.8830  135.1530 C   0  0  0  0  0  2  0  0  0  0  0  0
  185.8230  172.4380  135.4620 C   0  0  0  0  0  2  0  0  0  0  0  0
  190.5720  175.2670  135.7360 O   0  0  0  0  0  0  0  0  0  0  0  0
  189.1820  178.6380  138.2330 C   0  0  2  0  0  3  0  0  0  0  0  0
  187.4270  174.2980  135.9780 C   0  0  1  0  0  3  0  0  0  0  0  0
  187.8570  175.8770  137.4480 C   0  0  1  0  0  3  0  0  0  0  0  0
  187.8490  178.1160  138.8100 C   0  0  2  0  0  3  0  0  0  0  0  0
  189.0470  175.5290  138.3390 C   0  0  0  0  0  2  0  0  0  0  0  0
  186.8690  177.8090  135.5620 C   0  0  0  0  0  1  0  0  0  0  0  0
  186.1740  177.7140  136.9110 C   0  0  0  0  0  2  0  0  0  0  0  0
  193.4230  175.1860  137.7750 C   0  0  0  0  0  1  0  0  0  0  0  0
  192.5360  175.9530  136.9090 N   0  0  0  0  0  2  0  0  0  0  0  0
  191.8350  173.7940  134.3470 C   0  0  0  0  0  2  0  0  0  0  0  0
  192.6310  172.5070  134.4930 C   0  0  0  0  0  2  0  0  0  0  0  0
  192.9330  172.2760  135.8360 O   0  0  0  0  0  1  0  0  0  0  0  0
  188.0500  177.6470  140.1110 O   0  0  0  0  0  0  0  0  0  0  0  0
  187.8660  178.7640  140.9320 C   0  0  0  0  0  2  0  0  0  0  0  0
  185.6410  178.1240  141.8860 C   0  0  0  0  0  2  0  0  0  0  0  0
  187.6920  177.2430  144.3850 C   0  0  0  0  0  2  0  0  0  0  0  0
  186.3100  177.2150  144.8340 N   0  0  0  0  0  2  0  0  0  0  0  0
  185.9640  179.4050  145.5530 O   0  0  0  0  0  0  0  0  0  0  0  0
  184.3490  178.5550  144.0180 C   0  0  0  0  0  2  0  0  0  0  0  0
  185.5500  178.4190  144.8880 C   0  0  0  0  0  0  0  0  0  0  0  0
  187.7550  177.1690  142.8610 C   0  0  0  0  0  2  0  0  0  0  0  0
  184.7440  179.0960  142.6460 C   0  0  0  0  0  2  0  0  0  0  0  0
  187.1130  178.3860  142.2000 C   0  0  1  0  0  3  0  0  0  0  0  0
  1  9  1  6  0  0  0
  1 19  1  0  0  0  0
  2 17  1  0  0  0  0
  3 23  1  6  0  0  0
  3  1  1  0  0  0  0
  5 21  1  6  0  0  0
  5 18  1  0  0  0  0
  7 10  1  6  0  0  0
  7  4  1  0  0  0  0
  8 13  1  0  0  0  0
  8  4  1  0  0  0  0
  9 15  1  0  0  0  0
 10 11  1  0  0  0  0
 11 24  1  6  0  0  0
 11 14  1  0  0  0  0
 12 13  1  0  0  0  0
 14  3  1  0  0  0  0
 15  6  1  6  0  0  0
 15 18  1  0  0  0  0
 16 12  1  1  0  0  0
 16  7  1  0  0  0  0
 16  2  1  0  0  0  0
 17  5  1  0  0  0  0
 17 19  1  1  0  0  0
 18 27  1  1  0  0  0
 20 21  1  0  0  0  0
 23 22  1  0  0  0  0
 24 25  1  0  0  0  0
 25 26  1  0  0  0  0
 27 28  1  0  0  0  0
 29 37  1  0  0  0  0
 29 36  1  0  0  0  0
 30 31  1  0  0  0  0
 31 34  1  0  0  0  0
 33 34  1  0  0  0  0
 34 32  2  0  0  0  0
 35 30  1  0  0  0  0
 36 33  1  0  0  0  0
 37 28  1  6  0  0  0
 37 35  1  0  0  0  0
M  END
>  <MODEL>
2

>  <REMARK>
 VINA RESULT:      -6.0      1.729      2.134
  Name = 
  7 active torsions:
  status: ('A' for Active; 'I' for Inactive)
    1  A    between atoms: C_3  and  C_32
    2  A    between atoms: C_5  and  N_23
    3  A    between atoms: C_10  and  C_14
    4  A    between atoms: C_21  and  C_32
    5  A    between atoms: C_27  and  O_33
    6  A    between atoms: C_27  and  C_37
    7  A    between atoms: O_33  and  C_34
                            x       y       z     vdW  Elec       q    Type
                         _______ _______ _______ _____ _____    ______ ____

>  <TORSDO>
F 7

$$$$
=
 OpenBabel10272414563D

 37 40  0  0  1  0  0  0  0  0999 V2000
  188.0480  174.5590  136.3120 C   0  0  1  0  0  3  0  0  0  0  0  0
  185.4580  176.9190  137.4020 O   0  0  0  0  0  0  0  0  0  0  0  0
  187.1310  173.4250  135.8310 C   0  0  1  0  0  3  0  0  0  0  0  0
  182.9110  175.0170  138.0030 C   0  0  0  0  0  2  0  0  0  0  0  0
  187.6080  177.8220  136.7250 C   0  0  1  0  0  3  0  0  0  0  0  0
  190.0230  177.1740  134.4260 O   0  0  0  0  0  1  0  0  0  0  0  0
  184.0750  174.9790  137.0070 C   0  0  1  0  0  3  0  0  0  0  0  0
  181.8510  175.7940  137.5060 O   0  0  0  0  0  0  0  0  0  0  0  0
  188.5770  175.4120  135.1440 C   0  0  0  0  0  2  0  0  0  0  0  0
  183.7640  174.0980  135.8090 C   0  0  0  0  0  2  0  0  0  0  0  0
  184.9330  173.1620  135.5160 C   0  0  2  0  0  3  0  0  0  0  0  0
  183.2980  177.3490  136.4110 C   0  0  0  0  0  2  0  0  0  0  0  0
  182.2980  177.1240  137.5410 C   0  0  0  0  0  2  0  0  0  0  0  0
  186.0440  173.8900  135.0660 O   0  0  0  0  0  0  0  0  0  0  0  0
  189.5820  176.4920  135.5580 C   0  0  2  0  0  3  0  0  0  0  0  0
  184.4830  176.3890  136.5500 C   0  0  1  0  0  3  0  0  0  0  0  0
  186.6600  176.6140  136.7600 C   0  0  1  0  0  3  0  0  0  0  0  0
  189.1210  177.5050  136.6280 C   0  0  2  0  0  3  0  0  0  0  0  0
  187.3120  175.3800  137.3770 C   0  0  0  0  0  2  0  0  0  0  0  0
  186.6470  178.2990  134.4280 C   0  0  0  0  0  1  0  0  0  0  0  0
  187.1610  178.8920  135.7300 C   0  0  0  0  0  2  0  0  0  0  0  0
  187.9620  171.1680  135.9990 C   0  0  0  0  0  1  0  0  0  0  0  0
  187.8720  172.3540  135.1550 N   0  0  0  0  0  2  0  0  0  0  0  0
  184.5280  172.1520  134.4530 C   0  0  0  0  0  2  0  0  0  0  0  0
  184.4280  170.7520  135.0380 C   0  0  0  0  0  2  0  0  0  0  0  0
  184.0140  170.8130  136.3690 O   0  0  0  0  0  1  0  0  0  0  0  0
  189.6180  177.1270  137.8790 O   0  0  0  0  0  0  0  0  0  0  0  0
  189.3720  178.2230  138.7130 C   0  0  0  0  0  2  0  0  0  0  0  0
  188.5680  177.2360  140.8690 C   0  0  0  0  0  2  0  0  0  0  0  0
  191.8750  177.3340  141.3980 C   0  0  0  0  0  2  0  0  0  0  0  0
  191.1750  177.0490  142.6390 N   0  0  0  0  0  2  0  0  0  0  0  0
  190.7240  179.1780  143.4710 O   0  0  0  0  0  0  0  0  0  0  0  0
  188.8540  177.7050  143.3400 C   0  0  0  0  0  2  0  0  0  0  0  0
  190.3040  178.0200  143.2100 C   0  0  0  0  0  0  0  0  0  0  0  0
  190.9840  177.0120  140.2010 C   0  0  0  0  0  2  0  0  0  0  0  0
  188.1120  178.0760  142.0580 C   0  0  0  0  0  2  0  0  0  0  0  0
  189.7430  177.9000  140.1540 C   0  0  1  0  0  3  0  0  0  0  0  0
  1  9  1  6  0  0  0
  1 19  1  0  0  0  0
  3 23  1  6  0  0  0
  3  1  1  0  0  0  0
  5 21  1  6  0  0  0
  5 17  1  0  0  0  0
  7 10  1  6  0  0  0
  7  4  1  0  0  0  0
  8 13  1  0  0  0  0
  8  4  1  0  0  0  0
  9 15  1  0  0  0  0
 11 24  1  6  0  0  0
 11 10  1  0  0  0  0
 12 13  1  0  0  0  0
 14 11  1  0  0  0  0
 14  3  1  0  0  0  0
 15  6  1  6  0  0  0
 15 18  1  0  0  0  0
 16 12  1  1  0  0  0
 16  7  1  0  0  0  0
 16  2  1  0  0  0  0
 17 19  1  1  0  0  0
 17  2  1  0  0  0  0
 18  5  1  0  0  0  0
 18 27  1  1  0  0  0
 20 21  1  0  0  0  0
 23 22  1  0  0  0  0
 24 25  1  0  0  0  0
 25 26  1  0  0  0  0
 27 28  1  0  0  0  0
 29 36  1  0  0  0  0
 30 31  1  0  0  0  0
 31 34  1  0  0  0  0
 34 33  1  0  0  0  0
 34 32  2  0  0  0  0
 35 30  1  0  0  0  0
 36 33  1  0  0  0  0
 37 28  1  6  0  0  0
 37 35  1  0  0  0  0
 37 29  1  0  0  0  0
M  END
>  <MODEL>
3

>  <REMARK>
 VINA RESULT:      -5.2      2.514      4.644
  Name = 
  7 active torsions:
  status: ('A' for Active; 'I' for Inactive)
    1  A    between atoms: C_3  and  C_32
    2  A    between atoms: C_5  and  N_23
    3  A    between atoms: C_10  and  C_14
    4  A    between atoms: C_21  and  C_32
    5  A    between atoms: C_27  and  O_33
    6  A    between atoms: C_27  and  C_37
    7  A    between atoms: O_33  and  C_34
                            x       y       z     vdW  Elec       q    Type
                         _______ _______ _______ _____ _____    ______ ____

>  <TORSDO>
F 7

$$$$
=
 OpenBabel10272414563D

 37 40  0  0  1  0  0  0  0  0999 V2000
  195.5360  174.5840  137.6700 C   0  0  1  0  0  3  0  0  0  0  0  0
  194.0520  171.3490  136.7800 O   0  0  0  0  0  0  0  0  0  0  0  0
  197.0020  174.1370  137.7790 C   0  0  1  0  0  3  0  0  0  0  0  0
  196.1790  169.2010  137.9320 C   0  0  0  0  0  2  0  0  0  0  0  0
  192.8980  173.3650  136.0700 C   0  0  1  0  0  3  0  0  0  0  0  0
  193.6770  176.4860  134.9830 O   0  0  0  0  0  1  0  0  0  0  0  0
  196.2820  170.6120  137.3420 C   0  0  1  0  0  3  0  0  0  0  0  0
  196.1830  168.2300  136.9160 O   0  0  0  0  0  0  0  0  0  0  0  0
  195.2420  175.2830  136.3290 C   0  0  0  0  0  2  0  0  0  0  0  0
  197.6800  170.9080  136.8280 C   0  0  0  0  0  2  0  0  0  0  0  0
  198.1500  172.2750  137.3170 C   0  0  2  0  0  3  0  0  0  0  0  0
  194.9670  169.6030  135.3840 C   0  0  0  0  0  2  0  0  0  0  0  0
  194.9500  168.3530  136.2590 C   0  0  0  0  0  2  0  0  0  0  0  0
  197.3960  173.2960  136.7210 O   0  0  0  0  0  0  0  0  0  0  0  0
  193.8220  175.8450  136.2120 C   0  0  2  0  0  3  0  0  0  0  0  0
  195.2390  170.8460  136.2360 C   0  0  1  0  0  3  0  0  0  0  0  0
  194.1790  172.7320  136.6330 C   0  0  1  0  0  3  0  0  0  0  0  0
  192.6570  174.8540  136.4200 C   0  0  2  0  0  3  0  0  0  0  0  0
  194.6250  173.3820  137.9400 C   0  0  0  0  0  2  0  0  0  0  0  0
  191.6140  172.0200  134.3470 C   0  0  0  0  0  1  0  0  0  0  0  0
  192.6950  173.0630  134.5870 C   0  0  0  0  0  2  0  0  0  0  0  0
  198.5840  175.1900  139.2620 C   0  0  0  0  0  1  0  0  0  0  0  0
  197.9200  175.2660  137.9660 N   0  0  0  0  0  2  0  0  0  0  0  0
  199.6200  172.4660  136.9700 C   0  0  0  0  0  2  0  0  0  0  0  0
  199.7870  172.9430  135.5370 C   0  0  0  0  0  2  0  0  0  0  0  0
  200.1170  174.2980  135.5130 O   0  0  0  0  0  1  0  0  0  0  0  0
  192.1660  174.9720  137.7240 O   0  0  0  0  0  0  0  0  0  0  0  0
  190.7740  174.9910  137.5880 C   0  0  0  0  0  2  0  0  0  0  0  0
  191.0000  176.7560  139.3500 C   0  0  0  0  0  2  0  0  0  0  0  0
  188.9340  178.2650  137.1880 C   0  0  0  0  0  2  0  0  0  0  0  0
  188.9850  179.0070  138.4370 N   0  0  0  0  0  2  0  0  0  0  0  0
  187.3180  177.9850  139.7040 O   0  0  0  0  0  0  0  0  0  0  0  0
  189.4480  178.1730  140.7600 C   0  0  0  0  0  2  0  0  0  0  0  0
  188.4980  178.4190  139.6390 C   0  0  0  0  0  0  0  0  0  0  0  0
  190.1570  177.3610  137.0580 C   0  0  0  0  0  2  0  0  0  0  0  0
  190.1230  176.8130  140.5970 C   0  0  0  0  0  2  0  0  0  0  0  0
  190.1940  176.2860  138.1410 C   0  0  1  0  0  3  0  0  0  0  0  0
  1  9  1  6  0  0  0
  1  3  1  0  0  0  0
  1 19  1  0  0  0  0
  3 23  1  6  0  0  0
  5 21  1  6  0  0  0
  5 18  1  0  0  0  0
  5 17  1  0  0  0  0
  7 10  1  6  0  0  0
  7  4  1  0  0  0  0
  8  4  1  0  0  0  0
 10 11  1  0  0  0  0
 11 24  1  6  0  0  0
 12 13  1  0  0  0  0
 13  8  1  0  0  0  0
 14 11  1  0  0  0  0
 14  3  1  0  0  0  0
 15  6  1  6  0  0  0
 15  9  1  0  0  0  0
 15 18  1  0  0  0  0
 16 12  1  1  0  0  0
 16  2  1  0  0  0  0
 16  7  1  0  0  0  0
 17  2  1  0  0  0  0
 17 19  1  1  0  0  0
 18 27  1  1  0  0  0
 20 21  1  0  0  0  0
 23 22  1  0  0  0  0
 25 24  1  0  0  0  0
 26 25  1  0  0  0  0
 28 27  1  0  0  0  0
 29 36  1  0  0  0  0
 30 31  1  0  0  0  0
 31 34  1  0  0  0  0
 34 32  2  0  0  0  0
 34 33  1  0  0  0  0
 35 30  1  0  0  0  0
 35 37  1  0  0  0  0
 36 33  1  0  0  0  0
 37 28  1  6  0  0  0
 37 29  1  0  0  0  0
M  END
>  <MODEL>
4

>  <REMARK>
 VINA RESULT:      -5.2      3.638      6.677
  Name = 
  7 active torsions:
  status: ('A' for Active; 'I' for Inactive)
    1  A    between atoms: C_3  and  C_32
    2  A    between atoms: C_5  and  N_23
    3  A    between atoms: C_10  and  C_14
    4  A    between atoms: C_21  and  C_32
    5  A    between atoms: C_27  and  O_33
    6  A    between atoms: C_27  and  C_37
    7  A    between atoms: O_33  and  C_34
                            x       y       z     vdW  Elec       q    Type
                         _______ _______ _______ _____ _____    ______ ____

>  <TORSDO>
F 7

$$$$
=
 OpenBabel10272414563D

 37 40  0  0  1  0  0  0  0  0999 V2000
  185.4660  178.0320  138.4640 C   0  0  1  0  0  3  0  0  0  0  0  0
  183.0550  175.4380  137.5060 O   0  0  0  0  0  0  0  0  0  0  0  0
  186.4860  177.8180  137.3360 C   0  0  1  0  0  3  0  0  0  0  0  0
  184.8320  173.3550  135.7840 C   0  0  0  0  0  2  0  0  0  0  0  0
  182.2350  177.3420  138.7710 C   0  0  1  0  0  3  0  0  0  0  0  0
  182.8210  180.6800  138.9980 O   0  0  0  0  0  1  0  0  0  0  0  0
  184.8530  174.8720  135.9970 C   0  0  1  0  0  3  0  0  0  0  0  0
  183.9430  173.0050  134.7540 O   0  0  0  0  0  0  0  0  0  0  0  0
  184.5430  179.2330  138.1900 C   0  0  0  0  0  2  0  0  0  0  0  0
  185.5930  175.5890  134.8820 C   0  0  0  0  0  2  0  0  0  0  0  0
  186.5730  176.6070  135.4580 C   0  0  2  0  0  3  0  0  0  0  0  0
  182.3900  174.7400  135.2920 C   0  0  0  0  0  2  0  0  0  0  0  0
  182.6550  173.2380  135.2590 C   0  0  0  0  0  2  0  0  0  0  0  0
  185.8810  177.6600  136.0750 O   0  0  0  0  0  0  0  0  0  0  0  0
  183.5760  179.5580  139.3340 C   0  0  2  0  0  3  0  0  0  0  0  0
  183.4350  175.4460  136.1600 C   0  0  1  0  0  3  0  0  0  0  0  0
  183.3760  176.7220  137.9510 C   0  0  1  0  0  3  0  0  0  0  0  0
  182.6410  178.4240  139.8030 C   0  0  2  0  0  3  0  0  0  0  0  0
  184.7030  176.7240  138.7040 C   0  0  0  0  0  2  0  0  0  0  0  0
  181.4810  178.4120  136.6000 C   0  0  0  0  0  1  0  0  0  0  0  0
  181.0490  177.7630  137.9060 C   0  0  0  0  0  2  0  0  0  0  0  0
  188.6860  178.4210  138.1180 C   0  0  0  0  0  1  0  0  0  0  0  0
  187.5360  178.8430  137.3280 N   0  0  0  0  0  2  0  0  0  0  0  0
  187.4490  177.1630  134.3460 C   0  0  0  0  0  2  0  0  0  0  0  0
  188.8900  176.7050  134.5020 C   0  0  0  0  0  2  0  0  0  0  0  0
  189.0280  175.9330  135.6560 O   0  0  0  0  0  1  0  0  0  0  0  0
  183.1670  177.8240  140.9510 O   0  0  0  0  0  0  0  0  0  0  0  0
  183.0510  178.7940  141.9530 C   0  0  0  0  0  2  0  0  0  0  0  0
  185.5050  179.2070  142.2320 C   0  0  0  0  0  2  0  0  0  0  0  0
  184.5380  178.8850  145.4240 C   0  0  0  0  0  2  0  0  0  0  0  0
  185.9880  178.8560  145.3320 N   0  0  0  0  0  2  0  0  0  0  0  0
  186.4310  176.5960  144.9750 O   0  0  0  0  0  0  0  0  0  0  0  0
  187.4430  178.1030  143.4290 C   0  0  0  0  0  2  0  0  0  0  0  0
  186.6410  177.7930  144.6450 C   0  0  0  0  0  0  0  0  0  0  0  0
  183.9410  179.5320  144.1760 C   0  0  0  0  0  2  0  0  0  0  0  0
  186.5520  178.0980  142.1880 C   0  0  0  0  0  2  0  0  0  0  0  0
  184.2290  178.7210  142.9150 C   0  0  1  0  0  3  0  0  0  0  0  0
  1  9  1  6  0  0  0
  1 19  1  0  0  0  0
  2 17  1  0  0  0  0
  3 23  1  6  0  0  0
  3  1  1  0  0  0  0
  4  7  1  0  0  0  0
  5 21  1  6  0  0  0
  5 18  1  0  0  0  0
  7 10  1  6  0  0  0
  7 16  1  0  0  0  0
  8 13  1  0  0  0  0
  8  4  1  0  0  0  0
  9 15  1  0  0  0  0
 10 11  1  0  0  0  0
 11 24  1  6  0  0  0
 11 14  1  0  0  0  0
 13 12  1  0  0  0  0
 14  3  1  0  0  0  0
 15  6  1  6  0  0  0
 15 18  1  0  0  0  0
 16 12  1  6  0  0  0
 16  2  1  0  0  0  0
 17 19  1  1  0  0  0
 17  5  1  0  0  0  0
 18 27  1  1  0  0  0
 20 21  1  0  0  0  0
 23 22  1  0  0  0  0
 24 25  1  0  0  0  0
 25 26  1  0  0  0  0
 27 28  1  0  0  0  0
 29 37  1  0  0  0  0
 31 30  1  0  0  0  0
 33 34  1  0  0  0  0
 34 32  2  0  0  0  0
 34 31  1  0  0  0  0
 35 30  1  0  0  0  0
 36 29  1  0  0  0  0
 36 33  1  0  0  0  0
 37 28  1  6  0  0  0
 37 35  1  0  0  0  0
M  END
>  <MODEL>
5

>  <REMARK>
 VINA RESULT:      -5.1      3.802      5.194
  Name = 
  7 active torsions:
  status: ('A' for Active; 'I' for Inactive)
    1  A    between atoms: C_3  and  C_32
    2  A    between atoms: C_5  and  N_23
    3  A    between atoms: C_10  and  C_14
    4  A    between atoms: C_21  and  C_32
    5  A    between atoms: C_27  and  O_33
    6  A    between atoms: C_27  and  C_37
    7  A    between atoms: O_33  and  C_34
                            x       y       z     vdW  Elec       q    Type
                         _______ _______ _______ _____ _____    ______ ____

>  <TORSDO>
F 7

$$$$
=
 OpenBabel10272414563D

 37 40  0  0  1  0  0  0  0  0999 V2000
  185.6550  178.3470  138.0250 C   0  0  1  0  0  3  0  0  0  0  0  0
  183.5110  178.9380  140.9430 O   0  0  0  0  0  0  0  0  0  0  0  0
  187.0080  178.2770  138.7510 C   0  0  1  0  0  3  0  0  0  0  0  0
  185.5260  180.2490  143.1080 C   0  0  0  0  0  2  0  0  0  0  0  0
  182.5210  177.8650  139.0020 C   0  0  1  0  0  3  0  0  0  0  0  0
  183.4260  175.6530  136.5880 O   0  0  0  0  0  1  0  0  0  0  0  0
  185.6710  179.2140  141.9870 C   0  0  1  0  0  3  0  0  0  0  0  0
  185.0980  179.6410  144.3000 O   0  0  0  0  0  0  0  0  0  0  0  0
  185.1060  176.9490  137.6890 C   0  0  0  0  0  2  0  0  0  0  0  0
  186.8960  178.3390  142.1820 C   0  0  0  0  0  2  0  0  0  0  0  0
  187.6860  178.2270  140.8810 C   0  0  2  0  0  3  0  0  0  0  0  0
  183.7230  178.0430  143.1770 C   0  0  0  0  0  2  0  0  0  0  0  0
  183.7630  179.2670  144.0860 C   0  0  0  0  0  2  0  0  0  0  0  0
  186.9570  177.5030  139.9260 O   0  0  0  0  0  0  0  0  0  0  0  0
  183.8110  176.9630  136.8690 C   0  0  2  0  0  3  0  0  0  0  0  0
  184.4070  178.3490  141.8410 C   0  0  1  0  0  3  0  0  0  0  0  0
  183.7990  178.3120  139.7280 C   0  0  1  0  0  3  0  0  0  0  0  0
  182.6160  177.7400  137.4610 C   0  0  2  0  0  3  0  0  0  0  0  0
  184.6860  179.1960  138.8550 C   0  0  0  0  0  2  0  0  0  0  0  0
  180.7140  176.0950  138.8360 C   0  0  0  0  0  1  0  0  0  0  0  0
  181.8670  176.6500  139.6570 C   0  0  0  0  0  2  0  0  0  0  0  0
  188.9390  179.0120  137.5080 C   0  0  0  0  0  1  0  0  0  0  0  0
  188.1010  177.8720  137.8610 N   0  0  0  0  0  2  0  0  0  0  0  0
  189.0100  177.5250  141.1430 C   0  0  0  0  0  2  0  0  0  0  0  0
  189.1170  177.0800  142.5920 C   0  0  0  0  0  2  0  0  0  0  0  0
  190.0840  176.0820  142.7210 O   0  0  0  0  0  1  0  0  0  0  0  0
  182.5350  179.0020  136.8670 O   0  0  0  0  0  0  0  0  0  0  0  0
  181.1650  179.2420  136.7090 C   0  0  0  0  0  2  0  0  0  0  0  0
  180.1780  181.2630  135.6070 C   0  0  0  0  0  2  0  0  0  0  0  0
  180.3220  182.2740  138.7980 C   0  0  0  0  0  2  0  0  0  0  0  0
  180.0340  183.4000  137.9250 N   0  0  0  0  0  2  0  0  0  0  0  0
  182.1610  184.1410  137.3310 O   0  0  0  0  0  0  0  0  0  0  0  0
  180.6640  183.7450  135.5190 C   0  0  0  0  0  2  0  0  0  0  0  0
  180.9970  183.8290  136.9680 C   0  0  0  0  0  0  0  0  0  0  0  0
  179.9830  180.9600  138.0970 C   0  0  0  0  0  2  0  0  0  0  0  0
  181.0190  182.3650  134.9700 C   0  0  0  0  0  2  0  0  0  0  0  0
  180.8540  180.7240  136.8670 C   0  0  1  0  0  3  0  0  0  0  0  0
  1  9  1  1  0  0  0
  1  3  1  0  0  0  0
  1 19  1  0  0  0  0
  2 16  1  0  0  0  0
  3 23  1  6  0  0  0
  3 14  1  0  0  0  0
  4  8  1  0  0  0  0
  5 21  1  1  0  0  0
  5 17  1  0  0  0  0
  7 10  1  1  0  0  0
  7  4  1  0  0  0  0
 11 24  1  1  0  0  0
 11 10  1  0  0  0  0
 12 13  1  0  0  0  0
 13  8  1  0  0  0  0
 14 11  1  0  0  0  0
 15  6  1  1  0  0  0
 15 18  1  0  0  0  0
 15  9  1  0  0  0  0
 16  7  1  0  0  0  0
 16 12  1  1  0  0  0
 17 19  1  6  0  0  0
 17  2  1  0  0  0  0
 18 27  1  6  0  0  0
 18  5  1  0  0  0  0
 20 21  1  0  0  0  0
 22 23  1  0  0  0  0
 24 25  1  0  0  0  0
 25 26  1  0  0  0  0
 28 27  1  0  0  0  0
 29 37  1  0  0  0  0
 31 30  1  0  0  0  0
 33 34  1  0  0  0  0
 34 32  2  0  0  0  0
 34 31  1  0  0  0  0
 35 30  1  0  0  0  0
 36 33  1  0  0  0  0
 36 29  1  0  0  0  0
 37 28  1  6  0  0  0
 37 35  1  0  0  0  0
M  END
>  <MODEL>
6

>  <REMARK>
 VINA RESULT:      -5.0      5.420      9.234
  Name = 
  7 active torsions:
  status: ('A' for Active; 'I' for Inactive)
    1  A    between atoms: C_3  and  C_32
    2  A    between atoms: C_5  and  N_23
    3  A    between atoms: C_10  and  C_14
    4  A    between atoms: C_21  and  C_32
    5  A    between atoms: C_27  and  O_33
    6  A    between atoms: C_27  and  C_37
    7  A    between atoms: O_33  and  C_34
                            x       y       z     vdW  Elec       q    Type
                         _______ _______ _______ _____ _____    ______ ____

>  <TORSDO>
F 7

$$$$
=
 OpenBabel10272414563D

 37 40  0  0  1  0  0  0  0  0999 V2000
  183.9020  177.4960  137.1710 C   0  0  1  0  0  3  0  0  0  0  0  0
  186.9680  178.5830  138.8690 O   0  0  0  0  0  0  0  0  0  0  0  0
  184.5100  176.3900  136.2960 C   0  0  1  0  0  3  0  0  0  0  0  0
  189.3160  177.6840  136.8350 C   0  0  0  0  0  2  0  0  0  0  0  0
  184.8500  178.9340  140.0060 C   0  0  1  0  0  3  0  0  0  0  0  0
  181.8620  177.3570  140.3510 O   0  0  0  0  0  1  0  0  0  0  0  0
  187.9400  177.1230  137.2100 C   0  0  1  0  0  3  0  0  0  0  0  0
  190.3040  177.2260  137.7240 O   0  0  0  0  0  0  0  0  0  0  0  0
  183.2050  176.9290  138.4210 C   0  0  0  0  0  2  0  0  0  0  0  0
  187.8160  175.6510  136.8590 C   0  0  0  0  0  2  0  0  0  0  0  0
  186.5000  175.3830  136.1330 C   0  0  2  0  0  3  0  0  0  0  0  0
  188.8370  177.2450  139.6100 C   0  0  0  0  0  2  0  0  0  0  0  0
  190.0560  177.8740  138.9430 C   0  0  0  0  0  2  0  0  0  0  0  0
  185.4140  175.5720  137.0000 O   0  0  0  0  0  0  0  0  0  0  0  0
  182.4880  177.9810  139.2740 C   0  0  2  0  0  3  0  0  0  0  0  0
  187.6140  177.3540  138.6950 C   0  0  1  0  0  3  0  0  0  0  0  0
  185.6110  178.2490  138.8620 C   0  0  1  0  0  3  0  0  0  0  0  0
  183.3360  179.1670  139.7810 C   0  0  2  0  0  3  0  0  0  0  0  0
  184.9870  178.5280  137.4970 C   0  0  0  0  0  2  0  0  0  0  0  0
  184.3440  178.9450  142.4900 C   0  0  0  0  0  1  0  0  0  0  0  0
  185.1600  178.3200  141.3700 C   0  0  0  0  0  2  0  0  0  0  0  0
  182.8940  176.3910  134.5070 C   0  0  0  0  0  1  0  0  0  0  0  0
  183.4890  175.6110  135.5860 N   0  0  0  0  0  2  0  0  0  0  0  0
  186.4850  173.9550  135.6090 C   0  0  0  0  0  2  0  0  0  0  0  0
  186.0450  172.9800  136.6880 C   0  0  0  0  0  2  0  0  0  0  0  0
  185.2780  171.9560  136.1310 O   0  0  0  0  0  1  0  0  0  0  0  0
  183.1340  180.2770  138.9560 O   0  0  0  0  0  0  0  0  0  0  0  0
  181.7960  180.6370  139.1530 C   0  0  0  0  0  2  0  0  0  0  0  0
  180.1540  180.1620  137.3230 C   0  0  0  0  0  2  0  0  0  0  0  0
  180.7010  183.4350  136.8640 C   0  0  0  0  0  2  0  0  0  0  0  0
  179.9820  182.8810  135.7300 N   0  0  0  0  0  2  0  0  0  0  0  0
  181.7050  182.1430  134.3460 O   0  0  0  0  0  0  0  0  0  0  0  0
  180.0070  180.5390  134.8250 C   0  0  0  0  0  2  0  0  0  0  0  0
  180.5990  181.9030  134.8980 C   0  0  0  0  0  0  0  0  0  0  0  0
  180.5480  182.5280  138.0830 C   0  0  0  0  0  2  0  0  0  0  0  0
  180.5610  179.6570  135.9420 C   0  0  0  0  0  2  0  0  0  0  0  0
  181.1810  181.1570  137.8610 C   0  0  1  0  0  3  0  0  0  0  0  0
  1 19  1  1  0  0  0
  1  9  1  0  0  0  0
  3 23  1  1  0  0  0
  3 14  1  0  0  0  0
  3  1  1  0  0  0  0
  4  8  1  0  0  0  0
  5 21  1  1  0  0  0
  7  4  1  1  0  0  0
  7 16  1  0  0  0  0
  8 13  1  0  0  0  0
  9 15  1  0  0  0  0
 10  7  1  0  0  0  0
 11 24  1  1  0  0  0
 11 10  1  0  0  0  0
 11 14  1  0  0  0  0
 13 12  1  0  0  0  0
 15 18  1  0  0  0  0
 15  6  1  1  0  0  0
 16  2  1  0  0  0  0
 16 12  1  1  0  0  0
 17 19  1  6  0  0  0
 17  2  1  0  0  0  0
 17  5  1  0  0  0  0
 18 27  1  6  0  0  0
 18  5  1  0  0  0  0
 21 20  1  0  0  0  0
 22 23  1  0  0  0  0
 24 25  1  0  0  0  0
 26 25  1  0  0  0  0
 27 28  1  0  0  0  0
 29 37  1  0  0  0  0
 30 35  1  0  0  0  0
 31 30  1  0  0  0  0
 32 34  2  0  0  0  0
 33 34  1  0  0  0  0
 33 36  1  0  0  0  0
 34 31  1  0  0  0  0
 36 29  1  0  0  0  0
 37 35  1  0  0  0  0
 37 28  1  1  0  0  0
M  END
>  <MODEL>
7

>  <REMARK>
 VINA RESULT:      -5.0      5.207      8.510
  Name = 
  7 active torsions:
  status: ('A' for Active; 'I' for Inactive)
    1  A    between atoms: C_3  and  C_32
    2  A    between atoms: C_5  and  N_23
    3  A    between atoms: C_10  and  C_14
    4  A    between atoms: C_21  and  C_32
    5  A    between atoms: C_27  and  O_33
    6  A    between atoms: C_27  and  C_37
    7  A    between atoms: O_33  and  C_34
                            x       y       z     vdW  Elec       q    Type
                         _______ _______ _______ _____ _____    ______ ____

>  <TORSDO>
F 7

$$$$
=
 OpenBabel10272414563D

 37 40  0  0  1  0  0  0  0  0999 V2000
  189.0350  175.5490  136.5580 C   0  0  1  0  0  3  0  0  0  0  0  0
  190.9020  176.0390  139.6780 O   0  0  0  0  0  0  0  0  0  0  0  0
  187.8280  176.4440  136.8750 C   0  0  1  0  0  3  0  0  0  0  0  0
  188.6150  176.8980  141.7980 C   0  0  0  0  0  2  0  0  0  0  0  0
  192.1550  175.4530  137.6820 C   0  0  1  0  0  3  0  0  0  0  0  0
  192.0550  176.0830  134.3460 O   0  0  0  0  0  1  0  0  0  0  0  0
  188.8270  177.1090  140.2950 C   0  0  1  0  0  3  0  0  0  0  0  0
  189.2740  177.8920  142.5420 O   0  0  0  0  0  0  0  0  0  0  0  0
  190.0510  176.2510  135.6380 C   0  0  0  0  0  2  0  0  0  0  0  0
  188.0170  178.2810  139.7690 C   0  0  0  0  0  2  0  0  0  0  0  0
  187.2840  177.8930  138.4890 C   0  0  2  0  0  3  0  0  0  0  0  0
  191.1060  178.0400  141.0150 C   0  0  0  0  0  2  0  0  0  0  0  0
  190.6460  177.6270  142.4090 C   0  0  0  0  0  2  0  0  0  0  0  0
  188.1980  177.6760  137.4460 O   0  0  0  0  0  0  0  0  0  0  0  0
  191.2230  175.3640  135.2020 C   0  0  2  0  0  3  0  0  0  0  0  0
  190.3150  177.2800  139.9460 C   0  0  1  0  0  3  0  0  0  0  0  0
  190.8270  175.9290  138.2880 C   0  0  1  0  0  3  0  0  0  0  0  0
  192.0650  174.7160  136.3220 C   0  0  2  0  0  3  0  0  0  0  0  0
  189.6490  175.0530  137.8710 C   0  0  0  0  0  2  0  0  0  0  0  0
  193.9700  176.6020  139.0280 C   0  0  0  0  0  1  0  0  0  0  0  0
  193.2320  176.5360  137.7000 C   0  0  0  0  0  2  0  0  0  0  0  0
  185.6590  175.9380  135.9510 C   0  0  0  0  0  1  0  0  0  0  0  0
  186.9340  176.6080  135.7230 N   0  0  0  0  0  2  0  0  0  0  0  0
  186.3210  179.0030  138.0920 C   0  0  0  0  0  2  0  0  0  0  0  0
  184.9550  178.7930  138.7240 C   0  0  0  0  0  2  0  0  0  0  0  0
  184.4710  179.9970  139.2380 O   0  0  0  0  0  1  0  0  0  0  0  0
  191.6550  173.3940  136.5140 O   0  0  0  0  0  0  0  0  0  0  0  0
  192.4590  172.6370  135.6540 C   0  0  0  0  0  2  0  0  0  0  0  0
  194.5260  172.1700  136.9890 C   0  0  0  0  0  2  0  0  0  0  0  0
  195.8130  173.7830  134.3500 C   0  0  0  0  0  2  0  0  0  0  0  0
  196.8100  173.6580  135.3990 N   0  0  0  0  0  2  0  0  0  0  0  0
  196.4300  175.5580  136.6920 O   0  0  0  0  0  0  0  0  0  0  0  0
  196.4880  173.4940  137.8840 C   0  0  0  0  0  2  0  0  0  0  0  0
  196.6220  174.3140  136.6490 C   0  0  0  0  0  0  0  0  0  0  0  0
  194.7030  172.7520  134.5470 C   0  0  0  0  0  2  0  0  0  0  0  0
  195.0320  173.0870  138.0980 C   0  0  0  0  0  2  0  0  0  0  0  0
  193.9290  172.9840  135.8420 C   0  0  1  0  0  3  0  0  0  0  0  0
  1  9  1  1  0  0  0
  1  3  1  0  0  0  0
  1 19  1  0  0  0  0
  2 16  1  0  0  0  0
  3 23  1  6  0  0  0
  3 14  1  0  0  0  0
  4  8  1  0  0  0  0
  5 21  1  6  0  0  0
  5 17  1  0  0  0  0
  7 10  1  1  0  0  0
  7  4  1  0  0  0  0
 11 24  1  6  0  0  0
 11 10  1  0  0  0  0
 12 13  1  0  0  0  0
 13  8  1  0  0  0  0
 14 11  1  0  0  0  0
 15  6  1  1  0  0  0
 15  9  1  0  0  0  0
 15 18  1  0  0  0  0
 16  7  1  0  0  0  0
 16 12  1  1  0  0  0
 17 19  1  1  0  0  0
 17  2  1  0  0  0  0
 18 27  1  1  0  0  0
 18  5  1  0  0  0  0
 21 20  1  0  0  0  0
 23 22  1  0  0  0  0
 24 25  1  0  0  0  0
 25 26  1  0  0  0  0
 28 27  1  0  0  0  0
 29 36  1  0  0  0  0
 30 35  1  0  0  0  0
 30 31  1  0  0  0  0
 31 34  1  0  0  0  0
 33 36  1  0  0  0  0
 34 32  2  0  0  0  0
 34 33  1  0  0  0  0
 35 37  1  0  0  0  0
 37 28  1  6  0  0  0
 37 29  1  0  0  0  0
M  END
>  <MODEL>
8

>  <REMARK>
 VINA RESULT:      -5.0      2.725      7.845
  Name = 
  7 active torsions:
  status: ('A' for Active; 'I' for Inactive)
    1  A    between atoms: C_3  and  C_32
    2  A    between atoms: C_5  and  N_23
    3  A    between atoms: C_10  and  C_14
    4  A    between atoms: C_21  and  C_32
    5  A    between atoms: C_27  and  O_33
    6  A    between atoms: C_27  and  C_37
    7  A    between atoms: O_33  and  C_34
                            x       y       z     vdW  Elec       q    Type
                         _______ _______ _______ _____ _____    ______ ____

>  <TORSDO>
F 7

$$$$
=
 OpenBabel10272414563D

 37 40  0  0  1  0  0  0  0  0999 V2000
  189.1930  178.1870  141.5580 C   0  0  1  0  0  3  0  0  0  0  0  0
  185.6660  178.9430  140.8830 O   0  0  0  0  0  0  0  0  0  0  0  0
  189.0860  177.9470  143.0710 C   0  0  1  0  0  3  0  0  0  0  0  0
  184.5540  179.9650  143.7440 C   0  0  0  0  0  2  0  0  0  0  0  0
  187.0030  178.0380  139.0690 C   0  0  1  0  0  3  0  0  0  0  0  0
  189.5220  175.7980  138.6450 O   0  0  0  0  0  1  0  0  0  0  0  0
  185.6100  178.9470  143.2970 C   0  0  1  0  0  3  0  0  0  0  0  0
  183.2760  179.3800  143.7790 O   0  0  0  0  0  0  0  0  0  0  0  0
  189.2400  176.8690  140.7640 C   0  0  0  0  0  2  0  0  0  0  0  0
  185.9150  177.9350  144.3870 C   0  0  0  0  0  2  0  0  0  0  0  0
  187.4220  177.7670  144.5540 C   0  0  2  0  0  3  0  0  0  0  0  0
  183.6970  177.9750  141.8920 C   0  0  0  0  0  2  0  0  0  0  0  0
  182.9140  179.1640  142.4400 C   0  0  0  0  0  2  0  0  0  0  0  0
  187.9760  177.1540  143.4210 O   0  0  0  0  0  0  0  0  0  0  0  0
  189.4560  177.0490  139.2570 C   0  0  2  0  0  3  0  0  0  0  0  0
  185.2020  178.2350  141.9970 C   0  0  1  0  0  3  0  0  0  0  0  0
  186.8770  178.3200  140.5740 C   0  0  1  0  0  3  0  0  0  0  0  0
  188.4440  177.9410  138.5070 C   0  0  2  0  0  3  0  0  0  0  0  0
  188.0590  179.1190  141.1180 C   0  0  0  0  0  2  0  0  0  0  0  0
  184.7610  177.3700  138.0950 C   0  0  0  0  0  1  0  0  0  0  0  0
  186.1080  176.8890  138.6090 C   0  0  0  0  0  2  0  0  0  0  0  0
  191.2290  178.5400  144.0030 C   0  0  0  0  0  1  0  0  0  0  0  0
  190.3370  177.4420  143.6480 N   0  0  0  0  0  2  0  0  0  0  0  0
  187.7110  176.9140  145.7800 C   0  0  0  0  0  2  0  0  0  0  0  0
  188.5820  177.6630  146.7760 C   0  0  0  0  0  2  0  0  0  0  0  0
  189.7320  176.9260  147.0620 O   0  0  0  0  0  1  0  0  0  0  0  0
  188.9820  179.2190  138.3320 O   0  0  0  0  0  0  0  0  0  0  0  0
  188.8210  179.4970  136.9710 C   0  0  0  0  0  2  0  0  0  0  0  0
  187.6240  178.4130  135.0570 C   0  0  0  0  0  2  0  0  0  0  0  0
  190.1040  176.2260  135.5870 C   0  0  0  0  0  2  0  0  0  0  0  0
  189.1130  175.6550  134.6920 N   0  0  0  0  0  2  0  0  0  0  0  0
  187.5970  174.6770  136.1670 O   0  0  0  0  0  0  0  0  0  0  0  0
  186.6530  176.1360  134.5340 C   0  0  0  0  0  2  0  0  0  0  0  0
  187.7900  175.4020  135.1550 C   0  0  0  0  0  0  0  0  0  0  0  0
  189.9870  177.7480  135.6080 C   0  0  0  0  0  2  0  0  0  0  0  0
  186.4350  177.4740  135.2370 C   0  0  0  0  0  2  0  0  0  0  0  0
  188.6470  178.2120  136.1730 C   0  0  1  0  0  3  0  0  0  0  0  0
  1  9  1  6  0  0  0
  1  3  1  0  0  0  0
  2 16  1  0  0  0  0
  3 14  1  0  0  0  0
  3 23  1  6  0  0  0
  4  8  1  0  0  0  0
  5 21  1  1  0  0  0
  5 17  1  0  0  0  0
  7  4  1  1  0  0  0
  7 10  1  0  0  0  0
 10 11  1  0  0  0  0
 11 24  1  1  0  0  0
 12 13  1  0  0  0  0
 13  8  1  0  0  0  0
 14 11  1  0  0  0  0
 15  6  1  6  0  0  0
 15  9  1  0  0  0  0
 16 12  1  6  0  0  0
 16  7  1  0  0  0  0
 17  2  1  0  0  0  0
 17 19  1  6  0  0  0
 18 27  1  1  0  0  0
 18  5  1  0  0  0  0
 18 15  1  0  0  0  0
 19  1  1  0  0  0  0
 20 21  1  0  0  0  0
 23 22  1  0  0  0  0
 24 25  1  0  0  0  0
 25 26  1  0  0  0  0
 28 27  1  0  0  0  0
 29 36  1  0  0  0  0
 29 37  1  0  0  0  0
 30 35  1  0  0  0  0
 31 34  1  0  0  0  0
 31 30  1  0  0  0  0
 33 34  1  0  0  0  0
 33 36  1  0  0  0  0
 34 32  2  0  0  0  0
 35 37  1  0  0  0  0
 37 28  1  6  0  0  0
M  END
>  <MODEL>
9

>  <REMARK>
 VINA RESULT:      -4.9      2.557      8.188
  Name = 
  7 active torsions:
  status: ('A' for Active; 'I' for Inactive)
    1  A    between atoms: C_3  and  C_32
    2  A    between atoms: C_5  and  N_23
    3  A    between atoms: C_10  and  C_14
    4  A    between atoms: C_21  and  C_32
    5  A    between atoms: C_27  and  O_33
    6  A    between atoms: C_27  and  C_37
    7  A    between atoms: O_33  and  C_34
                            x       y       z     vdW  Elec       q    Type
                         _______ _______ _______ _____ _____    ______ ____

>  <TORSDO>
F 7

$$$$
