=
 OpenBabel10272413223D

 32 38  0  0  1  0  0  0  0  0999 V2000
  188.4760  176.7740  144.3590 C   0  0  0  0  0  3  0  0  0  0  0  0
  190.1730  177.3390  139.6080 C   0  0  0  0  0  0  0  0  0  0  0  0
  186.1970  178.9680  137.3380 O   0  0  0  0  0  0  0  0  0  0  0  0
  186.1330  177.5730  137.1690 C   0  0  2  0  0  3  0  0  0  0  0  0
  191.7750  176.1980  137.9700 C   0  0  0  0  0  0  0  0  0  0  0  0
  193.0600  176.1780  138.5490 C   0  0  0  0  0  0  0  0  0  0  0  0
  190.3720  177.3140  141.9990 C   0  0  0  0  0  0  0  0  0  0  0  0
  188.2540  178.1250  140.9160 C   0  0  0  0  0  3  0  0  0  0  0  0
  192.4250  174.5230  136.3530 C   0  0  0  0  0  0  0  0  0  0  0  0
  188.1620  177.0410  143.0930 C   0  0  0  0  0  3  0  0  0  0  0  0
  186.5770  178.1890  138.4470 C   0  0  1  0  0  3  0  0  0  0  0  0
  188.7960  177.8520  139.7270 C   0  0  0  0  0  0  0  0  0  0  0  0
  188.0830  178.0340  138.4290 C   0  0  1  0  0  3  0  0  0  0  0  0
  189.7550  177.0120  137.1220 C   0  0  2  0  0  3  0  0  0  0  0  0
  193.6810  174.4280  136.9650 C   0  0  0  0  0  3  0  0  0  0  0  0
  190.8970  177.3180  144.4510 C   0  0  0  0  0  3  0  0  0  0  0  0
  188.9950  177.9030  142.2060 C   0  0  0  0  0  0  0  0  0  0  0  0
  194.0020  175.2660  138.0460 C   0  0  0  0  0  3  0  0  0  0  0  0
  191.2080  177.1260  143.0210 C   0  0  0  0  0  3  0  0  0  0  0  0
  189.7010  177.2120  145.0570 C   0  0  0  0  0  0  0  0  0  0  0  0
  187.4070  177.0610  136.5040 C   0  0  0  0  0  2  0  0  0  0  0  0
  188.3680  176.8930  137.5810 N   0  0  2  0  0  0  0  0  0  0  0  0
  190.1690  175.7770  136.2970 C   0  0  0  0  0  2  0  0  0  0  0  0
  190.8650  177.0700  140.6740 N   0  0  0  0  0  2  0  0  0  0  0  0
  193.6070  177.3510  139.7340 Cl  0  0  0  0  0  0  0  0  0  0  0  0
  192.1180  173.7320  135.2530 O   0  0  0  0  0  1  0  0  0  0  0  0
  190.6790  177.0540  138.2800 N   0  0  0  0  0  0  0  0  0  0  0  0
  191.4990  175.4340  136.8620 C   0  0  0  0  0  0  0  0  0  0  0  0
  188.4600  177.8420  147.2210 C   0  0  0  0  0  0  0  0  0  0  0  0
  189.5980  177.3800  146.4790 N   0  0  0  0  0  2  0  0  0  0  0  0
  187.3700  178.1090  146.6490 O   0  0  0  0  0  0  0  0  0  0  0  0
  188.5680  177.9970  148.6940 C   0  0  0  0  0  1  0  0  0  0  0  0
  1 20  1  0  0  0  0
  2 12  2  0  0  0  0
  2 24  1  0  0  0  0
  4 21  1  6  0  0  0
  4  3  1  0  0  0  0
  4 11  1  0  0  0  0
  5 27  1  0  0  0  0
  5  6  1  0  0  0  0
  6 25  1  0  0  0  0
  7 17  1  0  0  0  0
  7 19  2  0  0  0  0
  8 17  2  0  0  0  0
  9 28  1  0  0  0  0
  9 15  2  0  0  0  0
 10  1  2  0  0  0  0
 11  3  1  6  0  0  0
 12  8  1  0  0  0  0
 13 11  1  0  0  0  0
 13 12  1  1  0  0  0
 14 23  1  6  0  0  0
 14 22  1  0  0  0  0
 14 27  1  0  0  0  0
 15 18  1  0  0  0  0
 16 20  2  0  0  0  0
 17 10  1  0  0  0  0
 18  6  2  0  0  0  0
 19 16  1  0  0  0  0
 20 30  1  0  0  0  0
 22 21  1  6  0  0  0
 22 13  1  0  0  0  0
 23 28  1  0  0  0  0
 24  7  1  0  0  0  0
 26  9  1  0  0  0  0
 27  2  1  0  0  0  0
 28  5  2  0  0  0  0
 29 32  1  0  0  0  0
 30 29  1  0  0  0  0
 31 29  2  0  0  0  0
M  END
>  <MODEL>
1

>  <REMARK>
 VINA RESULT:     -10.2      0.000      0.000
  Name = 
  1 active torsions:
  status: ('A' for Active; 'I' for Inactive)
    1  A    between atoms: N_10  and  C_24
                            x       y       z     vdW  Elec       q    Type
                         _______ _______ _______ _____ _____    ______ ____

>  <TORSDO>
F 1

$$$$
=
 OpenBabel10272413223D

 32 38  0  0  1  0  0  0  0  0999 V2000
  187.7420  176.9200  144.7240 C   0  0  0  0  0  3  0  0  0  0  0  0
  186.2200  178.4360  140.1230 C   0  0  0  0  0  0  0  0  0  0  0  0
  181.5170  179.3720  140.9110 O   0  0  0  0  0  0  0  0  0  0  0  0
  181.5270  178.0300  140.4870 C   0  0  2  0  0  3  0  0  0  0  0  0
  186.6600  177.9010  137.6600 C   0  0  0  0  0  0  0  0  0  0  0  0
  188.0310  178.1060  137.4000 C   0  0  0  0  0  0  0  0  0  0  0  0
  187.7970  178.1650  141.9120 C   0  0  0  0  0  0  0  0  0  0  0  0
  185.3730  178.5930  142.4190 C   0  0  0  0  0  3  0  0  0  0  0  0
  186.4140  176.6300  135.6180 C   0  0  0  0  0  0  0  0  0  0  0  0
  186.7120  177.2600  143.9520 C   0  0  0  0  0  3  0  0  0  0  0  0
  182.5660  178.5720  141.4010 C   0  0  1  0  0  3  0  0  0  0  0  0
  185.1330  178.5990  141.1060 C   0  0  0  0  0  0  0  0  0  0  0  0
  183.7750  178.7700  140.5110 C   0  0  1  0  0  3  0  0  0  0  0  0
  184.4540  178.3270  138.3000 C   0  0  2  0  0  3  0  0  0  0  0  0
  187.7900  176.7520  135.3830 C   0  0  0  0  0  3  0  0  0  0  0  0
  189.6660  177.9900  143.5750 C   0  0  0  0  0  3  0  0  0  0  0  0
  186.7530  178.3930  142.9820 C   0  0  0  0  0  0  0  0  0  0  0  0
  188.5900  177.5040  136.2620 C   0  0  0  0  0  3  0  0  0  0  0  0
  189.0900  178.0510  142.2160 C   0  0  0  0  0  3  0  0  0  0  0  0
  189.0830  177.5390  144.6990 C   0  0  0  0  0  0  0  0  0  0  0  0
  182.2090  177.9100  139.1270 C   0  0  0  0  0  2  0  0  0  0  0  0
  183.6310  177.8370  139.4110 N   0  0  2  0  0  0  0  0  0  0  0  0
  184.4370  177.3300  137.1240 C   0  0  0  0  0  2  0  0  0  0  0  0
  187.4340  178.2040  140.5250 N   0  0  0  0  0  2  0  0  0  0  0  0
  189.0330  179.2200  138.3130 Cl  0  0  0  0  0  0  0  0  0  0  0  0
  185.6100  175.9300  134.7280 O   0  0  0  0  0  1  0  0  0  0  0  0
  185.8700  178.4380  138.7170 N   0  0  0  0  0  0  0  0  0  0  0  0
  185.8720  177.2360  136.7520 C   0  0  0  0  0  0  0  0  0  0  0  0
  191.0480  176.8050  146.1880 C   0  0  0  0  0  0  0  0  0  0  0  0
  189.8220  177.5040  145.9290 N   0  0  0  0  0  2  0  0  0  0  0  0
  191.6400  176.1620  145.2820 O   0  0  0  0  0  0  0  0  0  0  0  0
  191.6360  176.8510  147.5510 C   0  0  0  0  0  1  0  0  0  0  0  0
  2 24  1  0  0  0  0
  2 12  2  0  0  0  0
  4 21  1  6  0  0  0
  4  3  1  0  0  0  0
  4 11  1  0  0  0  0
  5 27  1  0  0  0  0
  6  5  1  0  0  0  0
  6 25  1  0  0  0  0
  7 19  2  0  0  0  0
  7 17  1  0  0  0  0
  8 17  2  0  0  0  0
  9 28  1  0  0  0  0
 10  1  2  0  0  0  0
 11  3  1  6  0  0  0
 12  8  1  0  0  0  0
 13 12  1  1  0  0  0
 13 11  1  0  0  0  0
 14 23  1  6  0  0  0
 14 27  1  0  0  0  0
 14 22  1  0  0  0  0
 15  9  2  0  0  0  0
 15 18  1  0  0  0  0
 16 20  2  0  0  0  0
 17 10  1  0  0  0  0
 18  6  2  0  0  0  0
 19 16  1  0  0  0  0
 20  1  1  0  0  0  0
 20 30  1  0  0  0  0
 22 21  1  6  0  0  0
 22 13  1  0  0  0  0
 24  7  1  0  0  0  0
 26  9  1  0  0  0  0
 27  2  1  0  0  0  0
 28 23  1  0  0  0  0
 28  5  2  0  0  0  0
 29 32  1  0  0  0  0
 30 29  1  0  0  0  0
 31 29  2  0  0  0  0
M  END
>  <MODEL>
2

>  <REMARK>
 VINA RESULT:      -9.5      3.375      4.633
  Name = 
  1 active torsions:
  status: ('A' for Active; 'I' for Inactive)
    1  A    between atoms: N_10  and  C_24
                            x       y       z     vdW  Elec       q    Type
                         _______ _______ _______ _____ _____    ______ ____

>  <TORSDO>
F 1

$$$$
=
 OpenBabel10272413223D

 32 38  0  0  1  0  0  0  0  0999 V2000
  189.2300  176.7600  144.5930 C   0  0  0  0  0  3  0  0  0  0  0  0
  188.7800  177.4370  139.5810 C   0  0  0  0  0  0  0  0  0  0  0  0
  184.6270  179.9440  139.3030 O   0  0  0  0  0  0  0  0  0  0  0  0
  184.2190  178.6030  139.1780 C   0  0  2  0  0  3  0  0  0  0  0  0
  189.2530  176.1800  137.4030 C   0  0  0  0  0  0  0  0  0  0  0  0
  190.6290  175.8790  137.3540 C   0  0  0  0  0  0  0  0  0  0  0  0
  189.9850  177.1630  141.6380 C   0  0  0  0  0  0  0  0  0  0  0  0
  187.8150  178.4310  141.6040 C   0  0  0  0  0  3  0  0  0  0  0  0
  188.7910  174.5670  135.6620 C   0  0  0  0  0  0  0  0  0  0  0  0
  188.4600  177.1900  143.5950 C   0  0  0  0  0  3  0  0  0  0  0  0
  185.2850  179.0140  140.1290 C   0  0  1  0  0  3  0  0  0  0  0  0
  187.7230  178.1740  140.2980 C   0  0  0  0  0  0  0  0  0  0  0  0
  186.5710  178.5960  139.4480 C   0  0  1  0  0  3  0  0  0  0  0  0
  187.2730  177.4130  137.5350 C   0  0  2  0  0  3  0  0  0  0  0  0
  190.1410  174.1950  135.6560 C   0  0  0  0  0  3  0  0  0  0  0  0
  191.5070  176.8530  143.6070 C   0  0  0  0  0  3  0  0  0  0  0  0
  188.9810  177.9670  142.4330 C   0  0  0  0  0  0  0  0  0  0  0  0
  191.0580  174.8630  136.4850 C   0  0  0  0  0  3  0  0  0  0  0  0
  191.1240  176.7380  142.1850 C   0  0  0  0  0  3  0  0  0  0  0  0
  190.6970  176.9080  144.6780 C   0  0  0  0  0  0  0  0  0  0  0  0
  184.9500  177.9340  138.0180 C   0  0  0  0  0  2  0  0  0  0  0  0
  186.2270  177.5020  138.5590 N   0  0  2  0  0  0  0  0  0  0  0  0
  187.0330  176.2030  136.6100 C   0  0  0  0  0  2  0  0  0  0  0  0
  189.7960  176.9550  140.2320 N   0  0  0  0  0  2  0  0  0  0  0  0
  191.8570  176.8260  138.1780 Cl  0  0  0  0  0  0  0  0  0  0  0  0
  187.8880  173.9450  134.8090 O   0  0  0  0  0  1  0  0  0  0  0  0
  188.5930  177.1860  138.1660 N   0  0  0  0  0  0  0  0  0  0  0  0
  188.3790  175.5800  136.5290 C   0  0  0  0  0  0  0  0  0  0  0  0
  192.0050  175.9430  146.6720 C   0  0  0  0  0  0  0  0  0  0  0  0
  191.2540  176.9640  146.0000 N   0  0  0  0  0  2  0  0  0  0  0  0
  192.2970  174.8600  146.0990 O   0  0  0  0  0  0  0  0  0  0  0  0
  192.4560  176.1730  148.0680 C   0  0  0  0  0  1  0  0  0  0  0  0
  1 20  1  0  0  0  0
  2 24  1  0  0  0  0
  2 12  2  0  0  0  0
  4 21  1  6  0  0  0
  4  3  1  0  0  0  0
  4 11  1  0  0  0  0
  5 27  1  0  0  0  0
  6  5  1  0  0  0  0
  6 25  1  0  0  0  0
  7 19  2  0  0  0  0
  7 17  1  0  0  0  0
  8 17  2  0  0  0  0
  9 28  1  0  0  0  0
 10  1  2  0  0  0  0
 11  3  1  6  0  0  0
 12  8  1  0  0  0  0
 13 11  1  0  0  0  0
 13 12  1  1  0  0  0
 14 23  1  6  0  0  0
 14 27  1  0  0  0  0
 14 22  1  0  0  0  0
 15  9  2  0  0  0  0
 15 18  1  0  0  0  0
 16 20  2  0  0  0  0
 17 10  1  0  0  0  0
 18  6  2  0  0  0  0
 19 16  1  0  0  0  0
 20 30  1  0  0  0  0
 22 21  1  6  0  0  0
 22 13  1  0  0  0  0
 24  7  1  0  0  0  0
 26  9  1  0  0  0  0
 27  2  1  0  0  0  0
 28 23  1  0  0  0  0
 28  5  2  0  0  0  0
 29 32  1  0  0  0  0
 30 29  1  0  0  0  0
 31 29  2  0  0  0  0
M  END
>  <MODEL>
3

>  <REMARK>
 VINA RESULT:      -9.5      2.142      2.692
  Name = 
  1 active torsions:
  status: ('A' for Active; 'I' for Inactive)
    1  A    between atoms: N_10  and  C_24
                            x       y       z     vdW  Elec       q    Type
                         _______ _______ _______ _____ _____    ______ ____

>  <TORSDO>
F 1

$$$$
=
 OpenBabel10272413223D

 32 38  0  0  1  0  0  0  0  0999 V2000
  186.7570  177.2470  144.7790 C   0  0  0  0  0  3  0  0  0  0  0  0
  186.8160  178.2130  139.7950 C   0  0  0  0  0  0  0  0  0  0  0  0
  182.3700  180.0490  139.1030 O   0  0  0  0  0  0  0  0  0  0  0  0
  182.2090  178.6740  138.8540 C   0  0  2  0  0  3  0  0  0  0  0  0
  187.7530  177.2090  137.6350 C   0  0  0  0  0  0  0  0  0  0  0  0
  189.1560  177.1340  137.7530 C   0  0  0  0  0  0  0  0  0  0  0  0
  187.7890  177.9800  141.9760 C   0  0  0  0  0  0  0  0  0  0  0  0
  185.4600  178.8910  141.7220 C   0  0  0  0  0  3  0  0  0  0  0  0
  187.7800  175.6780  135.7650 C   0  0  0  0  0  0  0  0  0  0  0  0
  186.0530  177.6230  143.7130 C   0  0  0  0  0  3  0  0  0  0  0  0
  183.0680  179.1760  139.9580 C   0  0  1  0  0  3  0  0  0  0  0  0
  185.5720  178.7190  140.4030 C   0  0  0  0  0  0  0  0  0  0  0  0
  184.4780  179.0160  139.4320 C   0  0  1  0  0  3  0  0  0  0  0  0
  185.5950  178.1030  137.5690 C   0  0  2  0  0  3  0  0  0  0  0  0
  189.1630  175.5240  135.9180 C   0  0  0  0  0  3  0  0  0  0  0  0
  189.0900  177.7700  144.1100 C   0  0  0  0  0  3  0  0  0  0  0  0
  186.5760  178.5550  142.6730 C   0  0  0  0  0  0  0  0  0  0  0  0
  189.8500  176.2650  136.8960 C   0  0  0  0  0  3  0  0  0  0  0  0
  188.9070  177.7000  142.6460 C   0  0  0  0  0  3  0  0  0  0  0  0
  188.1570  177.6170  145.0660 C   0  0  0  0  0  0  0  0  0  0  0  0
  183.1770  178.2150  137.7670 C   0  0  0  0  0  2  0  0  0  0  0  0
  184.4310  177.9510  138.4490 N   0  0  2  0  0  0  0  0  0  0  0  0
  185.6730  176.9420  136.5580 C   0  0  0  0  0  2  0  0  0  0  0  0
  187.8100  177.8490  140.5480 N   0  0  0  0  0  2  0  0  0  0  0  0
  190.0990  178.1980  138.7810 Cl  0  0  0  0  0  0  0  0  0  0  0  0
  187.1030  174.9860  134.7690 O   0  0  0  0  0  1  0  0  0  0  0  0
  186.8480  178.0410  138.3560 N   0  0  0  0  0  0  0  0  0  0  0  0
  187.1030  176.5460  136.6230 C   0  0  0  0  0  0  0  0  0  0  0  0
  187.7390  178.1250  147.5530 C   0  0  0  0  0  0  0  0  0  0  0  0
  188.5320  177.6620  146.4510 N   0  0  0  0  0  2  0  0  0  0  0  0
  186.5510  178.5090  147.3900 O   0  0  0  0  0  0  0  0  0  0  0  0
  188.3290  178.1390  148.9160 C   0  0  0  0  0  1  0  0  0  0  0  0
  1 20  1  0  0  0  0
  2 12  2  0  0  0  0
  2 24  1  0  0  0  0
  4 21  1  6  0  0  0
  4  3  1  0  0  0  0
  4 11  1  0  0  0  0
  5  6  1  0  0  0  0
  5 27  1  0  0  0  0
  6 25  1  0  0  0  0
  7 19  2  0  0  0  0
  7 17  1  0  0  0  0
  8 17  2  0  0  0  0
  9 15  2  0  0  0  0
  9 28  1  0  0  0  0
 10  1  2  0  0  0  0
 11  3  1  6  0  0  0
 12  8  1  0  0  0  0
 13 11  1  0  0  0  0
 13 12  1  1  0  0  0
 14 23  1  6  0  0  0
 14 27  1  0  0  0  0
 14 22  1  0  0  0  0
 15 18  1  0  0  0  0
 16 20  2  0  0  0  0
 17 10  1  0  0  0  0
 18  6  2  0  0  0  0
 19 16  1  0  0  0  0
 20 30  1  0  0  0  0
 22 21  1  6  0  0  0
 22 13  1  0  0  0  0
 23 28  1  0  0  0  0
 24  7  1  0  0  0  0
 26  9  1  0  0  0  0
 27  2  1  0  0  0  0
 28  5  2  0  0  0  0
 29 32  1  0  0  0  0
 30 29  1  0  0  0  0
 31 29  2  0  0  0  0
M  END
>  <MODEL>
4

>  <REMARK>
 VINA RESULT:      -9.2      2.451      3.555
  Name = 
  1 active torsions:
  status: ('A' for Active; 'I' for Inactive)
    1  A    between atoms: N_10  and  C_24
                            x       y       z     vdW  Elec       q    Type
                         _______ _______ _______ _____ _____    ______ ____

>  <TORSDO>
F 1

$$$$
=
 OpenBabel10272413223D

 32 38  0  0  1  0  0  0  0  0999 V2000
  187.0000  177.1520  145.3340 C   0  0  0  0  0  3  0  0  0  0  0  0
  184.3860  178.4630  141.1830 C   0  0  0  0  0  0  0  0  0  0  0  0
  180.2390  180.1000  143.1180 O   0  0  0  0  0  0  0  0  0  0  0  0
  179.9820  178.7380  142.8730 C   0  0  2  0  0  3  0  0  0  0  0  0
  184.0360  177.6640  138.7770 C   0  0  0  0  0  0  0  0  0  0  0  0
  185.2860  177.6560  138.1260 C   0  0  0  0  0  0  0  0  0  0  0  0
  186.3730  178.1330  142.4870 C   0  0  0  0  0  0  0  0  0  0  0  0
  184.2590  178.9310  143.5870 C   0  0  0  0  0  3  0  0  0  0  0  0
  183.0750  176.2690  137.0520 C   0  0  0  0  0  0  0  0  0  0  0  0
  185.8330  177.5630  144.8400 C   0  0  0  0  0  3  0  0  0  0  0  0
  181.2930  179.2080  143.3930 C   0  0  1  0  0  3  0  0  0  0  0  0
  183.6530  178.8580  142.4000 C   0  0  0  0  0  0  0  0  0  0  0  0
  182.2070  179.1620  142.1870 C   0  0  1  0  0  3  0  0  0  0  0  0
  182.1670  178.4420  139.9450 C   0  0  2  0  0  3  0  0  0  0  0  0
  184.3290  176.1810  136.4340 C   0  0  0  0  0  3  0  0  0  0  0  0
  188.6130  177.8450  143.5780 C   0  0  0  0  0  3  0  0  0  0  0  0
  185.7130  178.5920  143.7680 C   0  0  0  0  0  0  0  0  0  0  0  0
  185.4250  176.8880  136.9600 C   0  0  0  0  0  3  0  0  0  0  0  0
  187.6790  177.8680  142.4340 C   0  0  0  0  0  3  0  0  0  0  0  0
  188.3340  177.5770  144.8650 C   0  0  0  0  0  0  0  0  0  0  0  0
  180.2250  178.4090  141.4040 C   0  0  0  0  0  2  0  0  0  0  0  0
  181.6530  178.1660  141.2900 N   0  0  2  0  0  0  0  0  0  0  0  0
  181.7050  177.3600  138.9480 C   0  0  0  0  0  2  0  0  0  0  0  0
  185.6310  178.1020  141.2590 N   0  0  0  0  0  2  0  0  0  0  0  0
  186.6230  178.6960  138.5860 Cl  0  0  0  0  0  0  0  0  0  0  0  0
  181.9780  175.6130  136.5100 O   0  0  0  0  0  1  0  0  0  0  0  0
  183.6470  178.3930  139.9380 N   0  0  0  0  0  0  0  0  0  0  0  0
  182.9520  177.0380  138.2100 C   0  0  0  0  0  0  0  0  0  0  0  0
  190.6490  176.8670  145.7350 C   0  0  0  0  0  0  0  0  0  0  0  0
  189.3890  177.5460  145.8380 N   0  0  0  0  0  2  0  0  0  0  0  0
  190.9730  176.2420  144.6910 O   0  0  0  0  0  0  0  0  0  0  0  0
  191.5950  176.9130  146.8800 C   0  0  0  0  0  1  0  0  0  0  0  0
  2 24  1  0  0  0  0
  2 12  2  0  0  0  0
  4 21  1  6  0  0  0
  4  3  1  0  0  0  0
  4 11  1  0  0  0  0
  5 27  1  0  0  0  0
  6 25  1  0  0  0  0
  6  5  2  0  0  0  0
  7 17  1  0  0  0  0
  8 17  2  0  0  0  0
  9 28  2  0  0  0  0
 10  1  2  0  0  0  0
 11  3  1  6  0  0  0
 12  8  1  0  0  0  0
 13 12  1  1  0  0  0
 13 11  1  0  0  0  0
 14 23  1  6  0  0  0
 14 22  1  0  0  0  0
 15 18  2  0  0  0  0
 15  9  1  0  0  0  0
 16 20  2  0  0  0  0
 17 10  1  0  0  0  0
 18  6  1  0  0  0  0
 19  7  2  0  0  0  0
 19 16  1  0  0  0  0
 20  1  1  0  0  0  0
 20 30  1  0  0  0  0
 22 21  1  6  0  0  0
 22 13  1  0  0  0  0
 24  7  1  0  0  0  0
 26  9  1  0  0  0  0
 27 14  1  0  0  0  0
 27  2  1  0  0  0  0
 28  5  1  0  0  0  0
 28 23  1  0  0  0  0
 29 30  1  0  0  0  0
 29 32  1  0  0  0  0
 31 29  2  0  0  0  0
M  END
>  <MODEL>
5

>  <REMARK>
 VINA RESULT:      -8.4      4.777      6.705
  Name = 
  1 active torsions:
  status: ('A' for Active; 'I' for Inactive)
    1  A    between atoms: N_10  and  C_24
                            x       y       z     vdW  Elec       q    Type
                         _______ _______ _______ _____ _____    ______ ____

>  <TORSDO>
F 1

$$$$
=
 OpenBabel10272413223D

 32 38  0  0  1  0  0  0  0  0999 V2000
  189.0030  178.8270  138.8380 C   0  0  0  0  0  3  0  0  0  0  0  0
  188.4530  177.0170  143.5490 C   0  0  0  0  0  0  0  0  0  0  0  0
  183.8510  178.2310  144.5310 O   0  0  0  0  0  0  0  0  0  0  0  0
  184.5970  179.3210  145.0160 C   0  0  2  0  0  3  0  0  0  0  0  0
  189.8190  176.7470  145.6960 C   0  0  0  0  0  0  0  0  0  0  0  0
  190.9530  175.9610  145.4040 C   0  0  0  0  0  0  0  0  0  0  0  0
  189.3470  177.0480  141.3230 C   0  0  2  0  0  3  0  0  0  0  0  0
  186.9680  177.7450  141.7390 C   0  0  0  0  0  3  0  0  0  0  0  0
  190.8150  177.5000  147.7660 C   0  0  0  0  0  0  0  0  0  0  0  0
  188.2230  178.7540  139.9150 C   0  0  0  0  0  3  0  0  0  0  0  0
  184.9410  178.6400  143.7400 C   0  0  1  0  0  3  0  0  0  0  0  0
  187.1670  177.5300  143.0410 C   0  0  0  0  0  0  0  0  0  0  0  0
  186.1350  177.7790  144.0910 C   0  0  1  0  0  3  0  0  0  0  0  0
  187.5830  177.3910  145.9080 C   0  0  2  0  0  3  0  0  0  0  0  0
  191.9830  176.7920  147.4550 C   0  0  0  0  0  3  0  0  0  0  0  0
  190.4800  176.8480  139.0950 C   0  0  0  0  0  3  0  0  0  0  0  0
  188.0410  177.5070  140.7130 C   0  0  0  0  0  0  0  0  0  0  0  0
  192.0430  176.0110  146.2880 C   0  0  0  0  0  3  0  0  0  0  0  0
  190.3870  176.7080  140.5620 C   0  0  0  0  0  3  0  0  0  0  0  0
  189.8520  177.7400  138.3100 C   0  0  0  0  0  0  0  0  0  0  0  0
  185.6390  178.8430  146.0220 C   0  0  0  0  0  2  0  0  0  0  0  0
  186.7760  178.4100  145.2280 N   0  0  2  0  0  0  0  0  0  0  0  0
  188.3820  178.0100  147.0720 C   0  0  0  0  0  2  0  0  0  0  0  0
  189.4500  176.8350  142.7380 N   0  0  0  0  0  0  0  0  0  0  0  0
  191.0070  174.7860  144.1020 Cl  0  0  0  0  0  0  0  0  0  0  0  0
  190.7330  178.2340  148.9430 O   0  0  0  0  0  1  0  0  0  0  0  0
  188.5900  176.8280  144.9800 N   0  0  0  0  0  0  0  0  0  0  0  0
  189.7390  177.4400  146.8800 C   0  0  0  0  0  0  0  0  0  0  0  0
  189.2500  177.2970  135.8480 C   0  0  0  0  0  0  0  0  0  0  0  0
  190.1100  177.7640  136.8980 N   0  0  0  0  0  2  0  0  0  0  0  0
  188.1020  176.8440  136.0940 O   0  0  0  0  0  0  0  0  0  0  0  0
  189.7220  177.3620  134.4410 C   0  0  0  0  0  1  0  0  0  0  0  0
  1 10  1  0  0  0  0
  2 27  1  0  0  0  0
  3  4  1  0  0  0  0
  4 21  1  1  0  0  0
  5 28  1  0  0  0  0
  6  5  2  0  0  0  0
  6 18  1  0  0  0  0
  7 19  1  6  0  0  0
  7 24  1  0  0  0  0
  8 12  2  0  0  0  0
  9 26  1  0  0  0  0
 10 17  2  0  0  0  0
 11 13  1  0  0  0  0
 11  3  1  1  0  0  0
 11  4  1  0  0  0  0
 12  2  1  0  0  0  0
 13 12  1  6  0  0  0
 13 22  1  0  0  0  0
 14 23  1  1  0  0  0
 15  9  1  0  0  0  0
 16 19  2  0  0  0  0
 17  7  1  0  0  0  0
 17  8  1  0  0  0  0
 18 15  2  0  0  0  0
 20  1  2  0  0  0  0
 20 16  1  0  0  0  0
 22 14  1  0  0  0  0
 22 21  1  1  0  0  0
 24  2  2  0  0  0  0
 25  6  1  0  0  0  0
 27  5  1  0  0  0  0
 27 14  1  0  0  0  0
 28 23  1  0  0  0  0
 28  9  2  0  0  0  0
 29 31  2  0  0  0  0
 29 30  1  0  0  0  0
 30 20  1  0  0  0  0
 32 29  1  0  0  0  0
M  END
>  <MODEL>
6

>  <REMARK>
 VINA RESULT:      -7.9      2.626      8.142
  Name = 
  1 active torsions:
  status: ('A' for Active; 'I' for Inactive)
    1  A    between atoms: N_10  and  C_24
                            x       y       z     vdW  Elec       q    Type
                         _______ _______ _______ _____ _____    ______ ____

>  <TORSDO>
F 1

$$$$
=
 OpenBabel10272413223D

 32 38  0  0  1  0  0  0  0  0999 V2000
  183.2000  177.0610  137.7180 C   0  0  0  0  0  3  0  0  0  0  0  0
  186.3680  178.5210  141.4070 C   0  0  0  0  0  0  0  0  0  0  0  0
  190.6930  177.9170  139.2750 O   0  0  0  0  0  0  0  0  0  0  0  0
  190.4660  176.6920  139.9280 C   0  0  2  0  0  3  0  0  0  0  0  0
  186.5650  178.4030  143.9560 C   0  0  0  0  0  0  0  0  0  0  0  0
  185.4370  179.0350  144.5170 C   0  0  0  0  0  0  0  0  0  0  0  0
  184.3130  178.5510  140.1670 C   0  0  0  0  0  0  0  0  0  0  0  0
  186.4980  178.1770  138.9830 C   0  0  0  0  0  2  0  0  0  0  0  0
  187.0770  177.3370  146.0640 C   0  0  0  0  0  0  0  0  0  0  0  0
  184.4650  177.1550  138.1220 C   0  0  0  0  0  3  0  0  0  0  0  0
  189.3760  177.4220  139.2290 C   0  0  1  0  0  3  0  0  0  0  0  0
  187.1140  178.2480  140.1650 C   0  0  0  0  0  0  0  0  0  0  0  0
  188.5840  178.0650  140.3470 C   0  0  1  0  0  3  0  0  0  0  0  0
  188.5100  178.0790  142.7010 C   0  0  2  0  0  3  0  0  0  0  0  0
  185.9150  177.8890  146.6190 C   0  0  0  0  0  3  0  0  0  0  0  0
  182.0530  178.7710  139.1050 C   0  0  0  0  0  3  0  0  0  0  0  0
  185.0100  178.3420  138.8410 C   0  0  0  0  0  0  0  0  0  0  0  0
  185.1100  178.7500  145.8520 C   0  0  0  0  0  3  0  0  0  0  0  0
  183.0050  178.7980  140.2330 C   0  0  0  0  0  3  0  0  0  0  0  0
  182.1350  178.0520  137.9720 C   0  0  0  0  0  0  0  0  0  0  0  0
  190.2160  176.9240  141.4150 C   0  0  0  0  0  2  0  0  0  0  0  0
  188.8060  177.2520  141.5270 N   0  0  2  0  0  0  0  0  0  0  0  0
  188.6210  177.2510  143.9970 C   0  0  0  0  0  2  0  0  0  0  0  0
  185.0730  178.6240  141.3820 N   0  0  0  0  0  0  0  0  0  0  0  0
  184.5290  180.2970  143.7020 Cl  0  0  0  0  0  0  0  0  0  0  0  0
  187.9020  176.5250  146.8310 O   0  0  0  0  0  1  0  0  0  0  0  0
  187.1120  178.5650  142.6500 N   0  0  0  0  0  0  0  0  0  0  0  0
  187.3900  177.6300  144.7370 C   0  0  0  0  0  0  0  0  0  0  0  0
  181.2070  178.2400  135.5800 C   0  0  0  0  0  0  0  0  0  0  0  0
  181.0780  178.1120  137.0030 N   0  0  0  0  0  2  0  0  0  0  0  0
  182.3370  178.2620  135.0240 O   0  0  0  0  0  0  0  0  0  0  0  0
  179.9820  178.3370  134.7460 C   0  0  0  0  0  1  0  0  0  0  0  0
  1 20  2  0  0  0  0
  1 10  1  0  0  0  0
  2 27  1  0  0  0  0
  3  4  1  0  0  0  0
  4 21  1  1  0  0  0
  5  6  2  0  0  0  0
  5 28  1  0  0  0  0
  6 18  1  0  0  0  0
  7 19  1  0  0  0  0
  7 24  2  0  0  0  0
  8 12  1  0  0  0  0
  9 15  1  0  0  0  0
  9 26  1  0  0  0  0
 10 17  2  0  0  0  0
 11  3  1  6  0  0  0
 11  4  1  0  0  0  0
 11 13  1  0  0  0  0
 12  2  2  0  0  0  0
 13 12  1  6  0  0  0
 13 22  1  0  0  0  0
 14 23  1  1  0  0  0
 16 19  2  0  0  0  0
 17  8  1  0  0  0  0
 17  7  1  0  0  0  0
 18 15  2  0  0  0  0
 20 16  1  0  0  0  0
 22 21  1  1  0  0  0
 22 14  1  0  0  0  0
 23 28  1  0  0  0  0
 24  2  1  0  0  0  0
 25  6  1  0  0  0  0
 27 14  1  0  0  0  0
 27  5  1  0  0  0  0
 28  9  2  0  0  0  0
 29 30  1  0  0  0  0
 30 20  1  0  0  0  0
 31 29  2  0  0  0  0
 32 29  1  0  0  0  0
M  END
>  <MODEL>
7

>  <REMARK>
 VINA RESULT:      -7.8      3.825      8.897
  Name = 
  1 active torsions:
  status: ('A' for Active; 'I' for Inactive)
    1  A    between atoms: N_10  and  C_24
                            x       y       z     vdW  Elec       q    Type
                         _______ _______ _______ _____ _____    ______ ____

>  <TORSDO>
F 1

$$$$
=
 OpenBabel10272413223D

 32 38  0  0  1  0  0  0  0  0999 V2000
  190.1920  176.5230  140.9490 C   0  0  0  0  0  3  0  0  0  0  0  0
  185.7900  178.8880  141.8470 C   0  0  0  0  0  0  0  0  0  0  0  0
  185.9790  179.5060  146.6640 O   0  0  0  0  0  0  0  0  0  0  0  0
  185.3090  178.2780  146.5080 C   0  0  2  0  0  3  0  0  0  0  0  0
  183.3720  178.8730  141.0070 C   0  0  0  0  0  0  0  0  0  0  0  0
  183.3800  179.1670  139.6290 C   0  0  0  0  0  0  0  0  0  0  0  0
  187.7210  178.3100  140.5460 C   0  0  2  0  0  3  0  0  0  0  0  0
  187.9060  178.5550  143.0400 C   0  0  0  0  0  3  0  0  0  0  0  0
  181.1100  178.0330  140.8640 C   0  0  0  0  0  0  0  0  0  0  0  0
  189.3450  176.9810  141.8690 C   0  0  0  0  0  3  0  0  0  0  0  0
  186.4660  178.6550  145.6540 C   0  0  1  0  0  3  0  0  0  0  0  0
  186.5980  178.8180  143.0780 C   0  0  0  0  0  0  0  0  0  0  0  0
  185.8370  179.0650  144.3390 C   0  0  1  0  0  3  0  0  0  0  0  0
  183.7200  179.0960  143.3080 C   0  0  2  0  0  3  0  0  0  0  0  0
  181.1270  178.2400  139.4790 C   0  0  0  0  0  3  0  0  0  0  0  0
  189.5960  177.8590  138.9420 C   0  0  0  0  0  3  0  0  0  0  0  0
  188.6330  178.2860  141.7520 C   0  0  0  0  0  0  0  0  0  0  0  0
  182.2510  178.8230  138.8680 C   0  0  0  0  0  3  0  0  0  0  0  0
  188.2010  178.1750  139.3090 C   0  0  0  0  0  3  0  0  0  0  0  0
  190.5030  177.1740  139.6600 C   0  0  0  0  0  0  0  0  0  0  0  0
  184.0800  178.4540  145.6220 C   0  0  0  0  0  2  0  0  0  0  0  0
  184.5680  178.3680  144.2570 N   0  0  2  0  0  0  0  0  0  0  0  0
  182.3860  178.3560  143.0850 C   0  0  0  0  0  2  0  0  0  0  0  0
  186.3280  178.6170  140.6970 N   0  0  0  0  0  0  0  0  0  0  0  0
  184.6410  180.1040  138.8460 Cl  0  0  0  0  0  0  0  0  0  0  0  0
  179.9840  177.5030  141.4800 O   0  0  0  0  0  1  0  0  0  0  0  0
  184.3730  179.1630  141.9800 N   0  0  0  0  0  0  0  0  0  0  0  0
  182.2380  178.3810  141.6070 C   0  0  0  0  0  0  0  0  0  0  0  0
  192.2160  175.7740  138.3470 C   0  0  0  0  0  0  0  0  0  0  0  0
  191.8050  176.9140  139.1150 N   0  0  0  0  0  2  0  0  0  0  0  0
  191.3980  174.8710  138.0270 O   0  0  0  0  0  0  0  0  0  0  0  0
  193.6310  175.6630  137.9130 C   0  0  0  0  0  1  0  0  0  0  0  0
  1 10  1  0  0  0  0
  2 27  1  0  0  0  0
  2 12  1  0  0  0  0
  4 21  1  6  0  0  0
  4  3  1  0  0  0  0
  5 28  1  0  0  0  0
  5 27  1  0  0  0  0
  6  5  2  0  0  0  0
  7 19  1  6  0  0  0
  7 24  1  0  0  0  0
  7 17  1  0  0  0  0
  8 12  2  0  0  0  0
  9 26  1  0  0  0  0
  9 28  2  0  0  0  0
 11  4  1  0  0  0  0
 11  3  1  1  0  0  0
 13 12  1  6  0  0  0
 13 11  1  0  0  0  0
 14 23  1  6  0  0  0
 14 22  1  0  0  0  0
 15  9  1  0  0  0  0
 16 19  2  0  0  0  0
 16 20  1  0  0  0  0
 17 10  2  0  0  0  0
 17  8  1  0  0  0  0
 18 15  2  0  0  0  0
 18  6  1  0  0  0  0
 20  1  2  0  0  0  0
 22 13  1  0  0  0  0
 22 21  1  1  0  0  0
 24  2  2  0  0  0  0
 25  6  1  0  0  0  0
 27 14  1  0  0  0  0
 28 23  1  0  0  0  0
 29 30  1  0  0  0  0
 30 20  1  0  0  0  0
 31 29  2  0  0  0  0
 32 29  1  0  0  0  0
M  END
>  <MODEL>
8

>  <REMARK>
 VINA RESULT:      -7.7      4.058      8.577
  Name = 
  1 active torsions:
  status: ('A' for Active; 'I' for Inactive)
    1  A    between atoms: N_10  and  C_24
                            x       y       z     vdW  Elec       q    Type
                         _______ _______ _______ _____ _____    ______ ____

>  <TORSDO>
F 1

$$$$
=
 OpenBabel10272413223D

 32 38  0  0  1  0  0  0  0  0999 V2000
  183.2000  173.9500  136.4790 C   0  0  0  0  0  3  0  0  0  0  0  0
  184.2910  177.9270  139.4400 C   0  0  0  0  0  0  0  0  0  0  0  0
  188.7470  179.1020  137.8950 O   0  0  0  0  0  0  0  0  0  0  0  0
  188.9830  178.2180  138.9630 C   0  0  2  0  0  3  0  0  0  0  0  0
  183.9010  178.7250  141.8410 C   0  0  0  0  0  0  0  0  0  0  0  0
  182.5110  178.7950  142.0640 C   0  0  0  0  0  0  0  0  0  0  0  0
  182.8400  176.4730  138.2010 C   0  0  0  0  0  0  0  0  0  0  0  0
  185.1490  176.9790  137.3480 C   0  0  0  0  0  2  0  0  0  0  0  0
  184.3360  178.8080  144.2170 C   0  0  0  0  0  0  0  0  0  0  0  0
  184.1270  174.8240  136.8680 C   0  0  0  0  0  3  0  0  0  0  0  0
  187.8820  177.9950  137.9890 C   0  0  1  0  0  3  0  0  0  0  0  0
  185.3510  177.7280  138.4340 C   0  0  0  0  0  0  0  0  0  0  0  0
  186.6370  178.4240  138.7350 C   0  0  1  0  0  3  0  0  0  0  0  0
  186.0010  179.1210  140.8940 C   0  0  2  0  0  3  0  0  0  0  0  0
  182.9570  178.7940  144.4640 C   0  0  0  0  0  3  0  0  0  0  0  0
  181.0800  175.1130  137.0420 C   0  0  0  0  0  3  0  0  0  0  0  0
  183.8470  176.2710  137.0910 C   0  0  0  0  0  0  0  0  0  0  0  0
  182.0500  178.8070  143.3900 C   0  0  0  0  0  3  0  0  0  0  0  0
  181.6000  175.9900  138.1110 C   0  0  0  0  0  3  0  0  0  0  0  0
  181.7660  174.2420  136.2830 C   0  0  0  0  0  0  0  0  0  0  0  0
  188.3040  178.7250  140.2310 C   0  0  0  0  0  2  0  0  0  0  0  0
  186.9290  178.2650  140.1470 N   0  0  2  0  0  0  0  0  0  0  0  0
  186.1790  178.9280  142.4130 C   0  0  0  0  0  2  0  0  0  0  0  0
  183.1550  177.3100  139.3230 N   0  0  0  0  0  0  0  0  0  0  0  0
  181.3370  179.0530  140.7850 Cl  0  0  0  0  0  0  0  0  0  0  0  0
  185.2370  178.8450  145.2730 O   0  0  0  0  0  1  0  0  0  0  0  0
  184.6000  178.7420  140.5980 N   0  0  0  0  0  0  0  0  0  0  0  0
  184.7800  178.7970  142.8940 C   0  0  0  0  0  0  0  0  0  0  0  0
  180.6490  172.0660  135.4830 C   0  0  0  0  0  0  0  0  0  0  0  0
  181.0770  173.4260  135.3230 N   0  0  0  0  0  2  0  0  0  0  0  0
  180.8100  171.4530  136.5710 O   0  0  0  0  0  0  0  0  0  0  0  0
  179.9920  171.3730  134.3460 C   0  0  0  0  0  1  0  0  0  0  0  0
  1 10  1  0  0  0  0
  2 27  1  0  0  0  0
  3  4  1  0  0  0  0
  4 21  1  1  0  0  0
  5  6  2  0  0  0  0
  5 28  1  0  0  0  0
  6 18  1  0  0  0  0
  7 24  2  0  0  0  0
  8 12  1  0  0  0  0
  9 15  1  0  0  0  0
  9 26  1  0  0  0  0
 10 17  2  0  0  0  0
 11  3  1  6  0  0  0
 11 13  1  0  0  0  0
 11  4  1  0  0  0  0
 12  2  2  0  0  0  0
 13 12  1  6  0  0  0
 13 22  1  0  0  0  0
 14 23  1  1  0  0  0
 16 19  2  0  0  0  0
 17  8  1  0  0  0  0
 17  7  1  0  0  0  0
 18 15  2  0  0  0  0
 19  7  1  0  0  0  0
 20  1  2  0  0  0  0
 20 16  1  0  0  0  0
 22 21  1  6  0  0  0
 22 14  1  0  0  0  0
 23 28  1  0  0  0  0
 24  2  1  0  0  0  0
 25  6  1  0  0  0  0
 27 14  1  0  0  0  0
 27  5  1  0  0  0  0
 28  9  2  0  0  0  0
 29 31  2  0  0  0  0
 30 29  1  0  0  0  0
 30 20  1  0  0  0  0
 32 29  1  0  0  0  0
M  END
>  <MODEL>
9

>  <REMARK>
 VINA RESULT:      -7.7      5.184      9.914
  Name = 
  1 active torsions:
  status: ('A' for Active; 'I' for Inactive)
    1  A    between atoms: N_10  and  C_24
                            x       y       z     vdW  Elec       q    Type
                         _______ _______ _______ _____ _____    ______ ____

>  <TORSDO>
F 1

$$$$
