=
 OpenBabel10272402063D

 32 37  0  0  1  0  0  0  0  0999 V2000
  186.6600  175.4640  137.3990 C   0  0  1  0  0  3  0  0  0  0  0  0
  186.0190  176.8360  137.1010 C   0  0  1  0  0  3  0  0  0  0  0  0
  184.4800  174.3470  136.4990 C   0  0  2  0  0  3  0  0  0  0  0  0
  184.5460  179.1110  140.1490 C   0  0  0  0  0  2  0  0  0  0  0  0
  184.4850  176.9070  137.0230 C   0  0  1  0  0  3  0  0  0  0  0  0
  183.0170  177.1290  140.4860 C   0  0  0  0  0  2  0  0  0  0  0  0
  183.3180  176.7750  139.0510 C   0  0  0  0  0  0  0  0  0  0  0  0
  183.7550  175.5630  137.0830 C   0  0  2  0  0  3  0  0  0  0  0  0
  183.2610  175.3880  138.5160 C   0  0  0  0  0  2  0  0  0  0  0  0
  185.9810  174.2760  136.6920 C   0  0  1  0  0  3  0  0  0  0  0  0
  185.7860  179.3150  137.9290 C   0  0  0  0  0  2  0  0  0  0  0  0
  184.6000  174.4850  135.1050 O   0  0  0  0  0  0  0  0  0  0  0  0
  186.7530  178.1500  137.5620 C   0  0  1  0  0  0  0  0  0  0  0  0
  183.9920  177.5850  138.2370 C   0  0  0  0  0  0  0  0  0  0  0  0
  186.0020  174.4200  135.1900 C   0  0  0  0  0  2  0  0  0  0  0  0
  183.2370  178.6210  140.7740 C   0  0  0  0  0  2  0  0  0  0  0  0
  184.4690  178.9500  138.6310 C   0  0  1  0  0  3  0  0  0  0  0  0
  189.9460  177.5470  139.7260 C   0  0  0  0  0  3  0  0  0  0  0  0
  188.0240  177.7200  141.1650 C   0  0  0  0  0  3  0  0  0  0  0  0
  187.7450  177.9820  138.7380 C   0  0  0  0  0  0  0  0  0  0  0  0
  189.3940  177.5350  141.0100 C   0  0  0  0  0  0  0  0  0  0  0  0
  187.2170  177.9310  140.0470 C   0  0  0  0  0  3  0  0  0  0  0  0
  189.1460  177.7540  138.5970 C   0  0  0  0  0  0  0  0  0  0  0  0
  189.8570  177.7390  137.2940 C   0  0  0  0  0  1  0  0  0  0  0  0
  190.1390  175.8830  142.7120 C   0  0  0  0  0  1  0  0  0  0  0  0
  189.8720  178.2790  143.3330 C   0  0  0  0  0  1  0  0  0  0  0  0
  190.2450  177.3150  142.2220 C   0  0  0  0  0  3  0  0  0  0  0  0
  188.0220  175.4830  137.0730 O   0  0  0  0  0  0  0  0  0  0  0  0
  188.4760  174.1800  137.2920 C   0  0  0  0  0  1  0  0  0  0  0  0
  187.5310  178.6180  136.3110 C   0  0  0  0  0  2  0  0  0  0  0  0
  186.9740  178.0820  134.9960 C   0  0  0  0  0  2  0  0  0  0  0  0
  187.9550  177.3360  134.3460 O   0  0  0  0  0  1  0  0  0  0  0  0
  1 28  1  6  0  0  0
  2  1  1  0  0  0  0
  2 13  1  0  0  0  0
  3 10  1  0  0  0  0
  3  8  1  0  0  0  0
  4 16  1  0  0  0  0
  5  8  1  0  0  0  0
  5  2  1  0  0  0  0
  5 14  1  0  0  0  0
  6 16  1  0  0  0  0
  7  6  1  0  0  0  0
  8  9  1  0  0  0  0
  9  7  1  0  0  0  0
 10  1  1  0  0  0  0
 11 17  1  0  0  0  0
 12 15  1  0  0  0  0
 12  3  1  0  0  0  0
 13 11  1  0  0  0  0
 13 20  1  0  0  0  0
 14 17  1  0  0  0  0
 14  7  2  0  0  0  0
 15 10  1  0  0  0  0
 17  4  1  0  0  0  0
 18 21  1  0  0  0  0
 20 22  2  0  0  0  0
 21 19  2  0  0  0  0
 21 27  1  0  0  0  0
 22 19  1  0  0  0  0
 23 20  1  0  0  0  0
 23 18  2  0  0  0  0
 24 23  1  0  0  0  0
 27 25  1  0  0  0  0
 27 26  1  0  0  0  0
 28 29  1  0  0  0  0
 30 13  1  0  0  0  0
 31 30  1  0  0  0  0
 32 31  1  0  0  0  0
M  END
>  <MODEL>
1

>  <REMARK>
 VINA RESULT:      -5.1      0.000      0.000
  Name = 
  5 active torsions:
  status: ('A' for Active; 'I' for Inactive)
    1  A    between atoms: C_1  and  C_4
    2  A    between atoms: C_1  and  C_27
    3  A    between atoms: C_2  and  O_14
    4  A    between atoms: C_16  and  C_27
    5  A    between atoms: C_19  and  C_26
                            x       y       z     vdW  Elec       q    Type
                         _______ _______ _______ _____ _____    ______ ____

>  <TORSDO>
F 5

$$$$
=
 OpenBabel10272402063D

 32 37  0  0  1  0  0  0  0  0999 V2000
  182.8100  174.8970  137.2510 C   0  0  1  0  0  3  0  0  0  0  0  0
  181.9460  176.1350  136.9360 C   0  0  1  0  0  3  0  0  0  0  0  0
  180.6430  173.7050  138.0860 C   0  0  2  0  0  3  0  0  0  0  0  0
  182.0600  179.3880  139.3940 C   0  0  0  0  0  2  0  0  0  0  0  0
  180.6120  176.2870  137.6870 C   0  0  1  0  0  3  0  0  0  0  0  0
  181.2060  177.7440  141.1100 C   0  0  0  0  0  2  0  0  0  0  0  0
  180.7350  176.9160  139.9410 C   0  0  0  0  0  0  0  0  0  0  0  0
  180.1990  175.0940  138.5520 C   0  0  2  0  0  3  0  0  0  0  0  0
  180.5730  175.4370  139.9910 C   0  0  0  0  0  2  0  0  0  0  0  0
  182.0110  173.5940  137.4430 C   0  0  1  0  0  3  0  0  0  0  0  0
  181.8870  178.7580  136.9280 C   0  0  0  0  0  2  0  0  0  0  0  0
  179.9820  173.3650  136.8930 O   0  0  0  0  0  0  0  0  0  0  0  0
  182.6430  177.4710  136.4830 C   0  0  1  0  0  0  0  0  0  0  0  0
  180.7640  177.3610  138.6870 C   0  0  0  0  0  0  0  0  0  0  0  0
  181.2090  173.2310  136.2180 C   0  0  0  0  0  2  0  0  0  0  0  0
  181.3600  179.2280  140.7450 C   0  0  0  0  0  2  0  0  0  0  0  0
  181.2050  178.7410  138.3040 C   0  0  1  0  0  3  0  0  0  0  0  0
  186.5440  177.5920  136.5430 C   0  0  0  0  0  3  0  0  0  0  0  0
  185.7000  177.8910  138.7770 C   0  0  0  0  0  3  0  0  0  0  0  0
  184.1220  177.6300  136.9120 C   0  0  0  0  0  0  0  0  0  0  0  0
  186.7800  177.7940  137.9060 C   0  0  0  0  0  0  0  0  0  0  0  0
  184.3970  177.8020  138.2860 C   0  0  0  0  0  3  0  0  0  0  0  0
  185.2430  177.4970  136.0400 C   0  0  0  0  0  0  0  0  0  0  0  0
  185.1340  177.2780  134.5760 C   0  0  0  0  0  1  0  0  0  0  0  0
  188.1640  178.4360  139.8690 C   0  0  0  0  0  1  0  0  0  0  0  0
  189.0410  178.7700  137.5630 C   0  0  0  0  0  1  0  0  0  0  0  0
  188.1700  177.8980  138.4500 C   0  0  0  0  0  3  0  0  0  0  0  0
  183.7730  174.7080  136.2510 O   0  0  0  0  0  0  0  0  0  0  0  0
  184.7640  173.9140  136.8320 C   0  0  0  0  0  1  0  0  0  0  0  0
  182.5680  177.4430  134.9390 C   0  0  0  0  0  2  0  0  0  0  0  0
  181.4100  178.2470  134.3570 C   0  0  0  0  0  2  0  0  0  0  0  0
  180.2590  177.4620  134.3460 O   0  0  0  0  0  1  0  0  0  0  0  0
  1 28  1  6  0  0  0
  1 10  1  0  0  0  0
  2  1  1  0  0  0  0
  2  5  1  0  0  0  0
  3  8  1  0  0  0  0
  4 16  1  0  0  0  0
  5  8  1  0  0  0  0
  5 14  1  0  0  0  0
  7  9  1  0  0  0  0
  7  6  1  0  0  0  0
  8  9  1  0  0  0  0
 10  3  1  0  0  0  0
 11 17  1  0  0  0  0
 12  3  1  0  0  0  0
 13 20  1  0  0  0  0
 13 11  1  0  0  0  0
 13  2  1  0  0  0  0
 14  7  2  0  0  0  0
 15 12  1  0  0  0  0
 15 10  1  0  0  0  0
 16  6  1  0  0  0  0
 17 14  1  0  0  0  0
 17  4  1  0  0  0  0
 18 21  1  0  0  0  0
 20 22  2  0  0  0  0
 21 27  1  0  0  0  0
 21 19  2  0  0  0  0
 22 19  1  0  0  0  0
 23 18  2  0  0  0  0
 23 20  1  0  0  0  0
 24 23  1  0  0  0  0
 26 27  1  0  0  0  0
 27 25  1  0  0  0  0
 28 29  1  0  0  0  0
 30 13  1  0  0  0  0
 31 30  1  0  0  0  0
 32 31  1  0  0  0  0
M  END
>  <MODEL>
2

>  <REMARK>
 VINA RESULT:      -4.9      2.513      4.291
  Name = 
  5 active torsions:
  status: ('A' for Active; 'I' for Inactive)
    1  A    between atoms: C_1  and  C_4
    2  A    between atoms: C_1  and  C_27
    3  A    between atoms: C_2  and  O_14
    4  A    between atoms: C_16  and  C_27
    5  A    between atoms: C_19  and  C_26
                            x       y       z     vdW  Elec       q    Type
                         _______ _______ _______ _____ _____    ______ ____

>  <TORSDO>
F 5

$$$$
=
 OpenBabel10272402063D

 32 37  0  0  1  0  0  0  0  0999 V2000
  183.5460  177.0000  138.5400 C   0  0  1  0  0  3  0  0  0  0  0  0
  183.8940  177.6150  137.1680 C   0  0  1  0  0  3  0  0  0  0  0  0
  185.2030  178.6980  139.6260 C   0  0  2  0  0  3  0  0  0  0  0  0
  186.3630  175.6260  134.6030 C   0  0  0  0  0  2  0  0  0  0  0  0
  185.2370  178.3530  137.0360 C   0  0  1  0  0  3  0  0  0  0  0  0
  188.0290  175.8840  136.4840 C   0  0  0  0  0  2  0  0  0  0  0  0
  187.1680  177.0280  136.9600 C   0  0  0  0  0  0  0  0  0  0  0  0
  186.0170  178.5480  138.3380 C   0  0  2  0  0  3  0  0  0  0  0  0
  187.0900  177.4640  138.3810 C   0  0  0  0  0  2  0  0  0  0  0  0
  183.9390  177.8710  139.7480 C   0  0  1  0  0  3  0  0  0  0  0  0
  184.2790  177.0960  134.6250 C   0  0  0  0  0  2  0  0  0  0  0  0
  184.4870  179.9080  139.6020 O   0  0  0  0  0  0  0  0  0  0  0  0
  183.3360  176.9490  135.8560 C   0  0  1  0  0  0  0  0  0  0  0  0
  186.1530  177.5090  136.2460 C   0  0  0  0  0  0  0  0  0  0  0  0
  183.2660  179.2200  139.7220 C   0  0  0  0  0  2  0  0  0  0  0  0
  187.8450  175.6050  134.9850 C   0  0  0  0  0  2  0  0  0  0  0  0
  185.7920  177.0170  134.8770 C   0  0  1  0  0  3  0  0  0  0  0  0
  181.4080  173.5560  135.9440 C   0  0  0  0  0  3  0  0  0  0  0  0
  183.6750  173.2070  136.6730 C   0  0  0  0  0  3  0  0  0  0  0  0
  182.9590  175.4530  135.9770 C   0  0  0  0  0  0  0  0  0  0  0  0
  182.4100  172.6970  136.4030 C   0  0  0  0  0  0  0  0  0  0  0  0
  183.9380  174.5620  136.4700 C   0  0  0  0  0  3  0  0  0  0  0  0
  181.6590  174.9160  135.7400 C   0  0  0  0  0  0  0  0  0  0  0  0
  180.5070  175.7170  135.2550 C   0  0  0  0  0  1  0  0  0  0  0  0
  183.3530  170.4020  136.2380 C   0  0  0  0  0  1  0  0  0  0  0  0
  180.9240  170.7820  135.8470 C   0  0  0  0  0  1  0  0  0  0  0  0
  182.1470  171.2390  136.6220 C   0  0  0  0  0  3  0  0  0  0  0  0
  182.1780  176.7050  138.6060 O   0  0  0  0  0  0  0  0  0  0  0  0
  182.0550  175.7270  139.5960 C   0  0  0  0  0  1  0  0  0  0  0  0
  182.0640  177.7620  135.5210 C   0  0  0  0  0  2  0  0  0  0  0  0
  182.2300  178.7200  134.3460 C   0  0  0  0  0  2  0  0  0  0  0  0
  181.2100  179.6680  134.3730 O   0  0  0  0  0  1  0  0  0  0  0  0
  1 28  1  6  0  0  0
  1 10  1  0  0  0  0
  2  1  1  0  0  0  0
  3 10  1  0  0  0  0
  4 17  1  0  0  0  0
  4 16  1  0  0  0  0
  5  2  1  0  0  0  0
  5  8  1  0  0  0  0
  6  7  1  0  0  0  0
  7  9  1  0  0  0  0
  8  9  1  0  0  0  0
  8  3  1  0  0  0  0
 11 17  1  0  0  0  0
 11 13  1  0  0  0  0
 12  3  1  0  0  0  0
 12 15  1  0  0  0  0
 13 20  1  0  0  0  0
 13  2  1  0  0  0  0
 14  7  2  0  0  0  0
 14  5  1  0  0  0  0
 15 10  1  0  0  0  0
 16  6  1  0  0  0  0
 17 14  1  0  0  0  0
 18 21  1  0  0  0  0
 20 22  2  0  0  0  0
 21 27  1  0  0  0  0
 21 19  2  0  0  0  0
 22 19  1  0  0  0  0
 23 18  2  0  0  0  0
 23 20  1  0  0  0  0
 24 23  1  0  0  0  0
 25 27  1  0  0  0  0
 26 27  1  0  0  0  0
 28 29  1  0  0  0  0
 30 13  1  0  0  0  0
 31 32  1  0  0  0  0
 31 30  1  0  0  0  0
M  END
>  <MODEL>
3

>  <REMARK>
 VINA RESULT:      -4.9      2.937      7.024
  Name = 
  5 active torsions:
  status: ('A' for Active; 'I' for Inactive)
    1  A    between atoms: C_1  and  C_4
    2  A    between atoms: C_1  and  C_27
    3  A    between atoms: C_2  and  O_14
    4  A    between atoms: C_16  and  C_27
    5  A    between atoms: C_19  and  C_26
                            x       y       z     vdW  Elec       q    Type
                         _______ _______ _______ _____ _____    ______ ____

>  <TORSDO>
F 5

$$$$
=
 OpenBabel10272402063D

 32 37  0  0  1  0  0  0  0  0999 V2000
  184.4960  176.8570  137.0690 C   0  0  1  0  0  3  0  0  0  0  0  0
  183.2730  176.7510  136.1350 C   0  0  1  0  0  3  0  0  0  0  0  0
  185.7010  175.1110  135.5490 C   0  0  2  0  0  3  0  0  0  0  0  0
  179.9820  174.6460  137.3070 C   0  0  0  0  0  2  0  0  0  0  0  0
  183.1260  175.4730  135.2920 C   0  0  1  0  0  3  0  0  0  0  0  0
  181.6090  172.7160  137.3640 C   0  0  0  0  0  2  0  0  0  0  0  0
  182.4610  173.5320  136.4240 C   0  0  0  0  0  0  0  0  0  0  0  0
  184.3100  174.5050  135.3430 C   0  0  2  0  0  3  0  0  0  0  0  0
  183.9400  173.4010  136.3290 C   0  0  0  0  0  2  0  0  0  0  0  0
  185.8060  176.3100  136.4700 C   0  0  1  0  0  3  0  0  0  0  0  0
  180.6510  176.7530  136.0330 C   0  0  0  0  0  2  0  0  0  0  0  0
  186.0670  175.8660  134.4200 O   0  0  0  0  0  0  0  0  0  0  0  0
  181.9360  177.4840  136.5240 C   0  0  1  0  0  0  0  0  0  0  0  0
  182.0350  174.6630  135.8670 C   0  0  0  0  0  0  0  0  0  0  0  0
  186.1960  177.0270  135.2020 C   0  0  0  0  0  2  0  0  0  0  0  0
  180.1300  173.1230  137.3070 C   0  0  0  0  0  2  0  0  0  0  0  0
  180.6550  175.2170  136.0590 C   0  0  1  0  0  3  0  0  0  0  0  0
  181.3780  179.2430  139.9630 C   0  0  0  0  0  3  0  0  0  0  0  0
  181.9380  176.9310  140.3280 C   0  0  0  0  0  3  0  0  0  0  0  0
  181.7530  177.7830  138.0310 C   0  0  0  0  0  0  0  0  0  0  0  0
  181.6120  178.1810  140.8420 C   0  0  0  0  0  0  0  0  0  0  0  0
  182.0150  176.7420  138.9480 C   0  0  0  0  0  3  0  0  0  0  0  0
  181.4550  179.0660  138.5790 C   0  0  0  0  0  0  0  0  0  0  0  0
  181.1880  180.2760  137.7600 C   0  0  0  0  0  1  0  0  0  0  0  0
  180.4350  179.3480  142.6950 C   0  0  0  0  0  1  0  0  0  0  0  0
  182.8600  178.8220  142.8950 C   0  0  0  0  0  1  0  0  0  0  0  0
  181.5290  178.3640  142.3250 C   0  0  0  0  0  3  0  0  0  0  0  0
  184.6880  178.1860  137.4690 O   0  0  0  0  0  0  0  0  0  0  0  0
  185.5280  178.1230  138.5840 C   0  0  0  0  0  1  0  0  0  0  0  0
  181.9890  178.8210  135.7490 C   0  0  0  0  0  2  0  0  0  0  0  0
  181.3620  178.7620  134.3600 C   0  0  0  0  0  2  0  0  0  0  0  0
  180.1860  179.5090  134.3490 O   0  0  0  0  0  1  0  0  0  0  0  0
  1 28  1  6  0  0  0
  2 13  1  0  0  0  0
  2  1  1  0  0  0  0
  3 10  1  0  0  0  0
  4 16  1  0  0  0  0
  5  8  1  0  0  0  0
  5 14  1  0  0  0  0
  5  2  1  0  0  0  0
  7  6  1  0  0  0  0
  8  3  1  0  0  0  0
  8  9  1  0  0  0  0
  9  7  1  0  0  0  0
 10  1  1  0  0  0  0
 11 17  1  0  0  0  0
 11 13  1  0  0  0  0
 12 15  1  0  0  0  0
 12  3  1  0  0  0  0
 13 20  1  0  0  0  0
 14 17  1  0  0  0  0
 14  7  2  0  0  0  0
 15 10  1  0  0  0  0
 16  6  1  0  0  0  0
 17  4  1  0  0  0  0
 18 21  1  0  0  0  0
 19 21  2  0  0  0  0
 20 23  1  0  0  0  0
 20 22  2  0  0  0  0
 21 27  1  0  0  0  0
 22 19  1  0  0  0  0
 23 18  2  0  0  0  0
 24 23  1  0  0  0  0
 27 25  1  0  0  0  0
 27 26  1  0  0  0  0
 28 29  1  0  0  0  0
 30 13  1  0  0  0  0
 31 30  1  0  0  0  0
 32 31  1  0  0  0  0
M  END
>  <MODEL>
4

>  <REMARK>
 VINA RESULT:      -4.4      3.007      5.887
  Name = 
  5 active torsions:
  status: ('A' for Active; 'I' for Inactive)
    1  A    between atoms: C_1  and  C_4
    2  A    between atoms: C_1  and  C_27
    3  A    between atoms: C_2  and  O_14
    4  A    between atoms: C_16  and  C_27
    5  A    between atoms: C_19  and  C_26
                            x       y       z     vdW  Elec       q    Type
                         _______ _______ _______ _____ _____    ______ ____

>  <TORSDO>
F 5

$$$$
=
 OpenBabel10272402063D

 32 37  0  0  1  0  0  0  0  0999 V2000
  183.6990  176.6780  138.1940 C   0  0  1  0  0  3  0  0  0  0  0  0
  184.0970  177.1820  136.7920 C   0  0  1  0  0  3  0  0  0  0  0  0
  185.1360  178.6090  139.2020 C   0  0  2  0  0  3  0  0  0  0  0  0
  186.8930  175.1660  134.6120 C   0  0  0  0  0  2  0  0  0  0  0  0
  185.3840  178.0150  136.6690 C   0  0  1  0  0  3  0  0  0  0  0  0
  188.3930  175.7500  136.5580 C   0  0  0  0  0  2  0  0  0  0  0  0
  187.4130  176.8570  136.8560 C   0  0  0  0  0  0  0  0  0  0  0  0
  186.0510  178.4030  137.9920 C   0  0  2  0  0  3  0  0  0  0  0  0
  187.1990  177.4230  138.2160 C   0  0  0  0  0  2  0  0  0  0  0  0
  183.9350  177.6930  139.3280 C   0  0  1  0  0  3  0  0  0  0  0  0
  184.7040  176.4490  134.3470 C   0  0  0  0  0  2  0  0  0  0  0  0
  184.3310  179.7450  139.0060 O   0  0  0  0  0  0  0  0  0  0  0  0
  183.6890  176.3440  135.5230 C   0  0  1  0  0  0  0  0  0  0  0  0
  186.4180  177.1780  136.0320 C   0  0  0  0  0  0  0  0  0  0  0  0
  183.1620  178.9710  139.1180 C   0  0  0  0  0  2  0  0  0  0  0  0
  188.3410  175.3100  135.0880 C   0  0  0  0  0  2  0  0  0  0  0  0
  186.1970  176.5240  134.7010 C   0  0  1  0  0  3  0  0  0  0  0  0
  183.9500  172.6260  136.6830 C   0  0  0  0  0  3  0  0  0  0  0  0
  182.0820  172.8690  135.1840 C   0  0  0  0  0  3  0  0  0  0  0  0
  183.4230  174.8410  135.7750 C   0  0  0  0  0  0  0  0  0  0  0  0
  182.8710  172.0610  135.9960 C   0  0  0  0  0  0  0  0  0  0  0  0
  182.3610  174.2300  135.0710 C   0  0  0  0  0  3  0  0  0  0  0  0
  184.2410  173.9890  136.5750 C   0  0  0  0  0  0  0  0  0  0  0  0
  185.4160  174.4590  137.3520 C   0  0  0  0  0  1  0  0  0  0  0  0
  183.7820  169.7530  135.8460 C   0  0  0  0  0  1  0  0  0  0  0  0
  181.4330  170.2120  135.1610 C   0  0  0  0  0  1  0  0  0  0  0  0
  182.5530  170.6030  136.1090 C   0  0  0  0  0  3  0  0  0  0  0  0
  182.3570  176.2750  138.2030 O   0  0  0  0  0  0  0  0  0  0  0  0
  182.2030  175.5170  139.3670 C   0  0  0  0  0  1  0  0  0  0  0  0
  182.3850  177.0090  135.0240 C   0  0  0  0  0  2  0  0  0  0  0  0
  182.1800  178.4330  135.5300 C   0  0  0  0  0  2  0  0  0  0  0  0
  181.0650  178.9900  134.9080 O   0  0  0  0  0  1  0  0  0  0  0  0
  1 28  1  6  0  0  0
  1 10  1  0  0  0  0
  2  1  1  0  0  0  0
  3 10  1  0  0  0  0
  4 17  1  0  0  0  0
  4 16  1  0  0  0  0
  5  2  1  0  0  0  0
  5  8  1  0  0  0  0
  6  7  1  0  0  0  0
  7  9  1  0  0  0  0
  8  9  1  0  0  0  0
  8  3  1  0  0  0  0
 11 17  1  0  0  0  0
 11 13  1  0  0  0  0
 12 15  1  0  0  0  0
 12  3  1  0  0  0  0
 13 20  1  0  0  0  0
 13  2  1  0  0  0  0
 14  5  1  0  0  0  0
 14  7  2  0  0  0  0
 15 10  1  0  0  0  0
 16  6  1  0  0  0  0
 17 14  1  0  0  0  0
 19 21  1  0  0  0  0
 20 23  2  0  0  0  0
 21 27  1  0  0  0  0
 21 18  2  0  0  0  0
 22 19  2  0  0  0  0
 22 20  1  0  0  0  0
 23 18  1  0  0  0  0
 23 24  1  0  0  0  0
 25 27  1  0  0  0  0
 26 27  1  0  0  0  0
 28 29  1  0  0  0  0
 30 13  1  0  0  0  0
 30 31  1  0  0  0  0
 32 31  1  0  0  0  0
M  END
>  <MODEL>
5

>  <REMARK>
 VINA RESULT:      -4.3      2.857      6.932
  Name = 
  5 active torsions:
  status: ('A' for Active; 'I' for Inactive)
    1  A    between atoms: C_1  and  C_4
    2  A    between atoms: C_1  and  C_27
    3  A    between atoms: C_2  and  O_14
    4  A    between atoms: C_16  and  C_27
    5  A    between atoms: C_19  and  C_26
                            x       y       z     vdW  Elec       q    Type
                         _______ _______ _______ _____ _____    ______ ____

>  <TORSDO>
F 5

$$$$
=
 OpenBabel10272402063D

 32 37  0  0  1  0  0  0  0  0999 V2000
  186.2820  176.2700  137.3690 C   0  0  1  0  0  3  0  0  0  0  0  0
  185.6390  175.7890  136.0520 C   0  0  1  0  0  3  0  0  0  0  0  0
  188.1800  174.5200  136.9830 C   0  0  2  0  0  3  0  0  0  0  0  0
  182.3470  173.3830  136.1430 C   0  0  0  0  0  2  0  0  0  0  0  0
  185.9940  174.3760  135.5580 C   0  0  1  0  0  3  0  0  0  0  0  0
  183.9040  171.8070  137.3550 C   0  0  0  0  0  2  0  0  0  0  0  0
  185.0300  172.5800  136.7130 C   0  0  0  0  0  0  0  0  0  0  0  0
  187.0900  173.6540  136.3450 C   0  0  2  0  0  3  0  0  0  0  0  0
  186.3910  172.6940  137.3030 C   0  0  0  0  0  2  0  0  0  0  0  0
  187.7570  175.8620  137.5460 C   0  0  1  0  0  3  0  0  0  0  0  0
  183.3680  175.3150  134.8270 C   0  0  0  0  0  2  0  0  0  0  0  0
  188.9670  175.1150  135.9810 O   0  0  0  0  0  0  0  0  0  0  0  0
  184.2230  176.3340  135.6370 C   0  0  1  0  0  0  0  0  0  0  0  0
  184.8250  173.5030  135.7770 C   0  0  0  0  0  0  0  0  0  0  0  0
  188.6330  176.4010  136.4430 C   0  0  0  0  0  2  0  0  0  0  0  0
  182.5920  171.9330  136.5680 C   0  0  0  0  0  2  0  0  0  0  0  0
  183.4750  173.8320  135.2150 C   0  0  1  0  0  3  0  0  0  0  0  0
  181.6600  178.3280  137.8030 C   0  0  0  0  0  3  0  0  0  0  0  0
  182.9200  176.8430  139.2170 C   0  0  0  0  0  3  0  0  0  0  0  0
  183.3440  176.8590  136.7970 C   0  0  0  0  0  0  0  0  0  0  0  0
  181.9330  177.8120  139.0730 C   0  0  0  0  0  0  0  0  0  0  0  0
  183.6160  176.3840  138.0990 C   0  0  0  0  0  3  0  0  0  0  0  0
  182.3530  177.8770  136.6750 C   0  0  0  0  0  0  0  0  0  0  0  0
  181.9690  178.5100  135.3890 C   0  0  0  0  0  1  0  0  0  0  0  0
  182.1390  178.5210  141.4480 C   0  0  0  0  0  1  0  0  0  0  0  0
  180.1040  177.3100  140.6800 C   0  0  0  0  0  1  0  0  0  0  0  0
  181.1930  178.2900  140.2840 C   0  0  0  0  0  3  0  0  0  0  0  0
  186.1680  177.6620  137.4860 O   0  0  0  0  0  0  0  0  0  0  0  0
  186.6940  177.9760  138.7410 C   0  0  0  0  0  1  0  0  0  0  0  0
  184.5270  177.5020  134.6700 C   0  0  0  0  0  2  0  0  0  0  0  0
  186.0080  177.6720  134.3460 C   0  0  0  0  0  2  0  0  0  0  0  0
  186.3400  179.0240  134.3870 O   0  0  0  0  0  1  0  0  0  0  0  0
  1 28  1  6  0  0  0
  1 10  1  0  0  0  0
  2  1  1  0  0  0  0
  3 10  1  0  0  0  0
  4 16  1  0  0  0  0
  5 14  1  0  0  0  0
  5  2  1  0  0  0  0
  5  8  1  0  0  0  0
  7  9  1  0  0  0  0
  7  6  1  0  0  0  0
  8  3  1  0  0  0  0
  8  9  1  0  0  0  0
 11 17  1  0  0  0  0
 11 13  1  0  0  0  0
 12 15  1  0  0  0  0
 12  3  1  0  0  0  0
 13  2  1  0  0  0  0
 13 20  1  0  0  0  0
 14  7  2  0  0  0  0
 15 10  1  0  0  0  0
 16  6  1  0  0  0  0
 17 14  1  0  0  0  0
 17  4  1  0  0  0  0
 18 21  1  0  0  0  0
 20 22  2  0  0  0  0
 21 19  2  0  0  0  0
 21 27  1  0  0  0  0
 22 19  1  0  0  0  0
 23 20  1  0  0  0  0
 23 18  2  0  0  0  0
 24 23  1  0  0  0  0
 27 26  1  0  0  0  0
 27 25  1  0  0  0  0
 28 29  1  0  0  0  0
 30 13  1  0  0  0  0
 31 32  1  0  0  0  0
 31 30  1  0  0  0  0
M  END
>  <MODEL>
6

>  <REMARK>
 VINA RESULT:      -4.3      2.497      5.654
  Name = 
  5 active torsions:
  status: ('A' for Active; 'I' for Inactive)
    1  A    between atoms: C_1  and  C_4
    2  A    between atoms: C_1  and  C_27
    3  A    between atoms: C_2  and  O_14
    4  A    between atoms: C_16  and  C_27
    5  A    between atoms: C_19  and  C_26
                            x       y       z     vdW  Elec       q    Type
                         _______ _______ _______ _____ _____    ______ ____

>  <TORSDO>
F 5

$$$$
=
 OpenBabel10272402063D

 32 37  0  0  1  0  0  0  0  0999 V2000
  182.5360  176.6050  138.7010 C   0  0  1  0  0  3  0  0  0  0  0  0
  183.0030  177.4140  137.4730 C   0  0  1  0  0  3  0  0  0  0  0  0
  183.2950  178.6020  140.1990 C   0  0  2  0  0  3  0  0  0  0  0  0
  186.4960  176.4560  135.5990 C   0  0  0  0  0  2  0  0  0  0  0  0
  184.0520  178.5150  137.6990 C   0  0  1  0  0  3  0  0  0  0  0  0
  187.5040  177.0120  137.8470 C   0  0  0  0  0  2  0  0  0  0  0  0
  186.2510  177.8120  138.1020 C   0  0  0  0  0  0  0  0  0  0  0  0
  184.4010  178.8080  139.1610 C   0  0  2  0  0  3  0  0  0  0  0  0
  185.7070  178.0790  139.4620 C   0  0  0  0  0  2  0  0  0  0  0  0
  182.3480  177.4400  139.9820 C   0  0  1  0  0  3  0  0  0  0  0  0
  184.1250  177.2570  135.1070 C   0  0  0  0  0  2  0  0  0  0  0  0
  182.2760  179.5520  140.0090 O   0  0  0  0  0  0  0  0  0  0  0  0
  183.0030  176.7360  136.0530 C   0  0  1  0  0  0  0  0  0  0  0  0
  185.3410  178.0440  137.1590 C   0  0  0  0  0  0  0  0  0  0  0  0
  181.3270  178.5350  139.8020 C   0  0  0  0  0  2  0  0  0  0  0  0
  187.7780  176.8270  136.3470 C   0  0  0  0  0  2  0  0  0  0  0  0
  185.4860  177.5940  135.7360 C   0  0  1  0  0  3  0  0  0  0  0  0
  182.3060  172.9430  135.4500 C   0  0  0  0  0  3  0  0  0  0  0  0
  184.0990  173.1850  137.0380 C   0  0  0  0  0  3  0  0  0  0  0  0
  183.0760  175.1900  136.0530 C   0  0  0  0  0  0  0  0  0  0  0  0
  183.2560  172.3640  136.2960 C   0  0  0  0  0  0  0  0  0  0  0  0
  184.0020  174.5710  136.9220 C   0  0  0  0  0  3  0  0  0  0  0  0
  182.1980  174.3320  135.3280 C   0  0  0  0  0  0  0  0  0  0  0  0
  181.1450  174.8150  134.3990 C   0  0  0  0  0  1  0  0  0  0  0  0
  184.6530  170.3730  135.7790 C   0  0  0  0  0  1  0  0  0  0  0  0
  182.1710  170.1750  135.8360 C   0  0  0  0  0  1  0  0  0  0  0  0
  183.3780  170.8780  136.4300 C   0  0  0  0  0  3  0  0  0  0  0  0
  181.3470  175.9240  138.4110 O   0  0  0  0  0  0  0  0  0  0  0  0
  181.1510  175.0430  139.4770 C   0  0  0  0  0  1  0  0  0  0  0  0
  181.6660  177.1760  135.4150 C   0  0  0  0  0  2  0  0  0  0  0  0
  181.7610  178.4560  134.5900 C   0  0  0  0  0  2  0  0  0  0  0  0
  181.1680  179.5040  135.2890 O   0  0  0  0  0  1  0  0  0  0  0  0
  1 28  1  6  0  0  0
  1 10  1  0  0  0  0
  2  5  1  0  0  0  0
  2  1  1  0  0  0  0
  4 17  1  0  0  0  0
  4 16  1  0  0  0  0
  5  8  1  0  0  0  0
  6  7  1  0  0  0  0
  7  9  1  0  0  0  0
  8  9  1  0  0  0  0
  8  3  1  0  0  0  0
 10  3  1  0  0  0  0
 11 17  1  0  0  0  0
 11 13  1  0  0  0  0
 12  3  1  0  0  0  0
 13 20  1  0  0  0  0
 13  2  1  0  0  0  0
 14  5  1  0  0  0  0
 14  7  2  0  0  0  0
 15 10  1  0  0  0  0
 15 12  1  0  0  0  0
 16  6  1  0  0  0  0
 17 14  1  0  0  0  0
 18 21  1  0  0  0  0
 20 22  2  0  0  0  0
 21 27  1  0  0  0  0
 21 19  2  0  0  0  0
 22 19  1  0  0  0  0
 23 18  2  0  0  0  0
 23 20  1  0  0  0  0
 24 23  1  0  0  0  0
 25 27  1  0  0  0  0
 26 27  1  0  0  0  0
 28 29  1  0  0  0  0
 30 13  1  0  0  0  0
 31 32  1  0  0  0  0
 31 30  1  0  0  0  0
M  END
>  <MODEL>
7

>  <REMARK>
 VINA RESULT:      -4.3      3.066      6.865
  Name = 
  5 active torsions:
  status: ('A' for Active; 'I' for Inactive)
    1  A    between atoms: C_1  and  C_4
    2  A    between atoms: C_1  and  C_27
    3  A    between atoms: C_2  and  O_14
    4  A    between atoms: C_16  and  C_27
    5  A    between atoms: C_19  and  C_26
                            x       y       z     vdW  Elec       q    Type
                         _______ _______ _______ _____ _____    ______ ____

>  <TORSDO>
F 5

$$$$
=
 OpenBabel10272402063D

 32 37  0  0  1  0  0  0  0  0999 V2000
  185.6970  177.7590  138.4500 C   0  0  1  0  0  3  0  0  0  0  0  0
  184.2700  178.2050  138.0690 C   0  0  1  0  0  3  0  0  0  0  0  0
  185.8470  176.5620  136.1350 C   0  0  2  0  0  3  0  0  0  0  0  0
  181.0370  176.3440  139.7180 C   0  0  0  0  0  2  0  0  0  0  0  0
  183.5240  177.3840  137.0050 C   0  0  1  0  0  3  0  0  0  0  0  0
  181.9990  174.3130  138.5650 C   0  0  0  0  0  2  0  0  0  0  0  0
  182.7180  175.2850  137.6630 C   0  0  0  0  0  0  0  0  0  0  0  0
  184.3480  176.3000  136.3050 C   0  0  2  0  0  3  0  0  0  0  0  0
  184.0010  174.9740  136.9750 C   0  0  0  0  0  2  0  0  0  0  0  0
  186.5560  177.2880  137.2610 C   0  0  1  0  0  3  0  0  0  0  0  0
  181.8510  178.6470  138.9830 C   0  0  0  0  0  2  0  0  0  0  0  0
  186.0500  177.6240  135.2360 O   0  0  0  0  0  0  0  0  0  0  0  0
  183.3740  178.9300  139.1410 C   0  0  1  0  0  0  0  0  0  0  0  0
  182.4780  176.5930  137.6800 C   0  0  0  0  0  0  0  0  0  0  0  0
  186.7290  178.3650  136.2200 C   0  0  0  0  0  2  0  0  0  0  0  0
  180.7470  174.9320  139.2030 C   0  0  0  0  0  2  0  0  0  0  0  0
  181.4330  177.2360  138.5420 C   0  0  1  0  0  3  0  0  0  0  0  0
  183.3190  178.5990  143.0300 C   0  0  0  0  0  3  0  0  0  0  0  0
  185.5390  178.1450  142.2190 C   0  0  0  0  0  3  0  0  0  0  0  0
  183.7470  178.6570  140.6170 C   0  0  0  0  0  0  0  0  0  0  0  0
  184.6520  178.2630  143.2830 C   0  0  0  0  0  0  0  0  0  0  0  0
  185.0940  178.3470  140.9130 C   0  0  0  0  0  3  0  0  0  0  0  0
  182.8620  178.8080  141.7250 C   0  0  0  0  0  0  0  0  0  0  0  0
  181.4260  179.1630  141.5960 C   0  0  0  0  0  1  0  0  0  0  0  0
  184.7180  179.1640  145.6000 C   0  0  0  0  0  1  0  0  0  0  0  0
  186.6570  177.8860  144.7040 C   0  0  0  0  0  1  0  0  0  0  0  0
  185.1470  178.0380  144.6780 C   0  0  0  0  0  3  0  0  0  0  0  0
  186.3650  178.7890  139.1260 O   0  0  0  0  0  0  0  0  0  0  0  0
  187.6890  178.3590  139.2460 C   0  0  0  0  0  1  0  0  0  0  0  0
  183.5620  180.4370  138.8460 C   0  0  0  0  0  2  0  0  0  0  0  0
  182.2740  181.1630  138.4730 C   0  0  0  0  0  2  0  0  0  0  0  0
  182.5000  182.5380  138.4710 O   0  0  0  0  0  1  0  0  0  0  0  0
  1 28  1  6  0  0  0
  2  1  1  0  0  0  0
  2 13  1  0  0  0  0
  3  8  1  0  0  0  0
  3 10  1  0  0  0  0
  5 14  1  0  0  0  0
  5  2  1  0  0  0  0
  6 16  1  0  0  0  0
  7 14  2  0  0  0  0
  7  6  1  0  0  0  0
  8  9  1  0  0  0  0
  8  5  1  0  0  0  0
  9  7  1  0  0  0  0
 10  1  1  0  0  0  0
 11 13  1  0  0  0  0
 12  3  1  0  0  0  0
 12 15  1  0  0  0  0
 13 20  1  0  0  0  0
 14 17  1  0  0  0  0
 15 10  1  0  0  0  0
 16  4  1  0  0  0  0
 17 11  1  0  0  0  0
 17  4  1  0  0  0  0
 18 21  1  0  0  0  0
 19 21  2  0  0  0  0
 20 22  2  0  0  0  0
 20 23  1  0  0  0  0
 21 27  1  0  0  0  0
 22 19  1  0  0  0  0
 23 18  2  0  0  0  0
 24 23  1  0  0  0  0
 27 26  1  0  0  0  0
 27 25  1  0  0  0  0
 28 29  1  0  0  0  0
 30 13  1  0  0  0  0
 31 30  1  0  0  0  0
 32 31  1  0  0  0  0
M  END
>  <MODEL>
8

>  <REMARK>
 VINA RESULT:      -4.2      2.681      4.700
  Name = 
  5 active torsions:
  status: ('A' for Active; 'I' for Inactive)
    1  A    between atoms: C_1  and  C_4
    2  A    between atoms: C_1  and  C_27
    3  A    between atoms: C_2  and  O_14
    4  A    between atoms: C_16  and  C_27
    5  A    between atoms: C_19  and  C_26
                            x       y       z     vdW  Elec       q    Type
                         _______ _______ _______ _____ _____    ______ ____

>  <TORSDO>
F 5

$$$$
=
 OpenBabel10272402063D

 32 37  0  0  1  0  0  0  0  0999 V2000
  189.6450  176.2070  138.7220 C   0  0  1  0  0  3  0  0  0  0  0  0
  190.0100  176.5790  137.2700 C   0  0  1  0  0  3  0  0  0  0  0  0
  192.1890  176.3000  139.2950 C   0  0  2  0  0  3  0  0  0  0  0  0
  189.9580  173.7290  134.3530 C   0  0  0  0  0  2  0  0  0  0  0  0
  191.4400  176.2750  136.7920 C   0  0  1  0  0  3  0  0  0  0  0  0
  191.7340  172.6550  135.7910 C   0  0  0  0  0  2  0  0  0  0  0  0
  191.9580  174.0290  136.3720 C   0  0  0  0  0  0  0  0  0  0  0  0
  192.4090  175.7850  137.8700 C   0  0  2  0  0  3  0  0  0  0  0  0
  192.4880  174.2670  137.7420 C   0  0  0  0  0  2  0  0  0  0  0  0
  190.7560  176.4870  139.7510 C   0  0  1  0  0  3  0  0  0  0  0  0
  189.4110  176.1900  134.7460 C   0  0  0  0  0  2  0  0  0  0  0  0
  192.4550  177.6800  139.3530 O   0  0  0  0  0  0  0  0  0  0  0  0
  188.8910  176.5700  136.1630 C   0  0  1  0  0  0  0  0  0  0  0  0
  191.3850  175.1220  135.8740 C   0  0  0  0  0  0  0  0  0  0  0  0
  191.1440  177.9440  139.7880 C   0  0  0  0  0  2  0  0  0  0  0  0
  191.1010  172.7130  134.3930 C   0  0  0  0  0  2  0  0  0  0  0  0
  190.5110  175.1210  134.6560 C   0  0  1  0  0  3  0  0  0  0  0  0
  185.3040  175.2650  136.9800 C   0  0  0  0  0  3  0  0  0  0  0  0
  186.8560  173.4260  137.0310 C   0  0  0  0  0  3  0  0  0  0  0  0
  187.6640  175.6760  136.4630 C   0  0  0  0  0  0  0  0  0  0  0  0
  185.5570  173.9030  137.1690 C   0  0  0  0  0  0  0  0  0  0  0  0
  187.8890  174.3000  136.6930 C   0  0  0  0  0  3  0  0  0  0  0  0
  186.3320  176.1510  136.6440 C   0  0  0  0  0  0  0  0  0  0  0  0
  185.9280  177.5700  136.4760 C   0  0  0  0  0  1  0  0  0  0  0  0
  184.4920  171.7200  136.6370 C   0  0  0  0  0  1  0  0  0  0  0  0
  183.1020  173.6210  137.4450 C   0  0  0  0  0  1  0  0  0  0  0  0
  184.4600  172.9490  137.5270 C   0  0  0  0  0  3  0  0  0  0  0  0
  188.4720  176.8670  139.1130 O   0  0  0  0  0  0  0  0  0  0  0  0
  188.6980  177.2810  140.4280 C   0  0  0  0  0  1  0  0  0  0  0  0
  188.4290  178.0420  136.0690 C   0  0  0  0  0  2  0  0  0  0  0  0
  189.3590  179.0320  136.7630 C   0  0  0  0  0  2  0  0  0  0  0  0
  188.6350  179.7760  137.6920 O   0  0  0  0  0  1  0  0  0  0  0  0
  1 28  1  1  0  0  0
  1 10  1  0  0  0  0
  2  1  1  0  0  0  0
  3 12  1  0  0  0  0
  3 10  1  0  0  0  0
  4 16  1  0  0  0  0
  4 17  1  0  0  0  0
  5  2  1  0  0  0  0
  5  8  1  0  0  0  0
  6  7  1  0  0  0  0
  7  9  1  0  0  0  0
  8  3  1  0  0  0  0
  9  8  1  0  0  0  0
 10 15  1  0  0  0  0
 11 13  1  0  0  0  0
 12 15  1  0  0  0  0
 13 20  1  0  0  0  0
 13  2  1  0  0  0  0
 14  7  2  0  0  0  0
 14  5  1  0  0  0  0
 16  6  1  0  0  0  0
 17 11  1  0  0  0  0
 17 14  1  0  0  0  0
 18 21  1  0  0  0  0
 19 21  2  0  0  0  0
 20 23  1  0  0  0  0
 20 22  2  0  0  0  0
 21 27  1  0  0  0  0
 22 19  1  0  0  0  0
 23 18  2  0  0  0  0
 24 23  1  0  0  0  0
 25 27  1  0  0  0  0
 26 27  1  0  0  0  0
 28 29  1  0  0  0  0
 30 13  1  0  0  0  0
 30 31  1  0  0  0  0
 31 32  1  0  0  0  0
M  END
>  <MODEL>
9

>  <REMARK>
 VINA RESULT:      -3.8      2.642      7.083
  Name = 
  5 active torsions:
  status: ('A' for Active; 'I' for Inactive)
    1  A    between atoms: C_1  and  C_4
    2  A    between atoms: C_1  and  C_27
    3  A    between atoms: C_2  and  O_14
    4  A    between atoms: C_16  and  C_27
    5  A    between atoms: C_19  and  C_26
                            x       y       z     vdW  Elec       q    Type
                         _______ _______ _______ _____ _____    ______ ____

>  <TORSDO>
F 5

$$$$
