=
 OpenBabel10272414473D

 37 43  0  0  1  0  0  0  0  0999 V2000
  187.8620  177.6390  145.3660 C   0  0  1  0  0  0  0  0  0  0  0  0
  190.9260  176.8270  143.7110 C   0  0  0  0  0  0  0  0  0  0  0  0
  188.5140  177.7090  141.0290 C   0  0  1  0  0  3  0  0  0  0  0  0
  187.2110  178.0450  146.7030 C   0  0  1  0  0  3  0  0  0  0  0  0
  185.7070  179.6170  142.3200 C   0  0  0  0  0  2  0  0  0  0  0  0
  191.4220  176.9630  141.2870 C   0  0  0  0  0  3  0  0  0  0  0  0
  187.0190  177.9480  141.3190 C   0  0  2  0  0  3  0  0  0  0  0  0
  185.1460  178.7370  145.4770 C   0  0  0  0  0  0  0  0  0  0  0  0
  189.0470  176.6190  141.9310 C   0  0  0  0  0  2  0  0  0  0  0  0
  186.4920  178.8840  140.2670 C   0  0  2  0  0  3  0  0  0  0  0  0
  191.2320  177.0190  139.8220 C   0  0  0  0  0  3  0  0  0  0  0  0
  185.6810  178.0480  146.6850 C   0  0  0  0  0  2  0  0  0  0  0  0
  189.3900  177.5020  145.4320 C   0  0  1  0  0  3  0  0  0  0  0  0
  191.6280  178.1570  144.0420 C   0  0  0  0  0  1  0  0  0  0  0  0
  187.8520  177.8980  138.5150 C   0  0  0  0  0  2  0  0  0  0  0  0
  190.1010  177.1100  139.1130 C   0  0  0  0  0  3  0  0  0  0  0  0
  189.8010  176.4990  144.5250 O   0  0  0  0  0  0  0  0  0  0  0  0
  184.8230  177.9160  144.2710 C   0  0  0  0  0  2  0  0  0  0  0  0
  186.6980  178.5600  142.6230 N   0  0  2  0  0  0  0  0  0  0  0  0
  188.6770  177.1560  139.5900 C   0  0  1  0  0  3  0  0  0  0  0  0
  187.1150  176.7600  144.3350 C   0  0  0  0  0  2  0  0  0  0  0  0
  190.4960  176.8300  142.2520 C   0  0  0  0  0  0  0  0  0  0  0  0
  185.2540  179.4810  140.8740 C   0  0  1  0  0  3  0  0  0  0  0  0
  191.9570  175.7270  143.9160 C   0  0  0  0  0  1  0  0  0  0  0  0
  186.0840  177.5080  143.4700 C   0  0  1  0  0  3  0  0  0  0  0  0
  185.0270  179.9510  145.4550 O   0  0  0  0  0  0  0  0  0  0  0  0
  188.7390  178.7060  144.7520 C   0  0  0  0  0  2  0  0  0  0  0  0
  186.4100  178.1680  138.9410 C   0  0  0  0  0  2  0  0  0  0  0  0
  182.8890  178.8500  141.6050 C   0  0  0  0  0  3  0  0  0  0  0  0
  184.0080  178.6310  140.7820 C   0  0  0  0  0  0  0  0  0  0  0  0
  183.9300  177.6650  139.7720 C   0  0  0  0  0  3  0  0  0  0  0  0
  182.6890  175.9830  138.6210 F   0  0  0  0  0  0  0  0  0  0  0  0
  181.6550  177.1400  140.4240 C   0  0  0  0  0  3  0  0  0  0  0  0
  182.7570  176.9210  139.5950 C   0  0  0  0  0  0  0  0  0  0  0  0
  181.7210  178.1050  141.4320 C   0  0  0  0  0  3  0  0  0  0  0  0
  188.2520  177.9910  148.8750 O   0  0  0  0  0  1  0  0  0  0  0  0
  187.7010  177.1900  147.8700 C   0  0  0  0  0  2  0  0  0  0  0  0
  1 21  1  6  0  0  0
  1 13  1  0  0  0  0
  1  4  1  0  0  0  0
  2 24  1  0  0  0  0
  2 14  1  0  0  0  0
  2 17  1  0  0  0  0
  3  7  1  0  0  0  0
  3  9  1  1  0  0  0
  4 37  1  1  0  0  0
  5 19  1  0  0  0  0
  6 22  2  0  0  0  0
  7 19  1  0  0  0  0
  8 12  1  0  0  0  0
  9 22  1  0  0  0  0
 10 23  1  0  0  0  0
 10  7  1  0  0  0  0
 11  6  1  0  0  0  0
 12  4  1  0  0  0  0
 15 28  1  0  0  0  0
 15 20  1  0  0  0  0
 16 20  1  0  0  0  0
 16 11  2  0  0  0  0
 17 13  1  0  0  0  0
 18  8  1  0  0  0  0
 19 25  1  0  0  0  0
 20  3  1  0  0  0  0
 22  2  1  0  0  0  0
 23  5  1  0  0  0  0
 25 18  1  0  0  0  0
 25 21  1  0  0  0  0
 26  8  2  0  0  0  0
 27  1  1  0  0  0  0
 27 13  1  0  0  0  0
 28 10  1  0  0  0  0
 30 23  1  0  0  0  0
 30 29  2  0  0  0  0
 31 30  1  0  0  0  0
 32 34  1  0  0  0  0
 33 35  2  0  0  0  0
 34 31  2  0  0  0  0
 34 33  1  0  0  0  0
 35 29  1  0  0  0  0
 37 36  1  0  0  0  0
M  END
>  <MODEL>
1

>  <REMARK>
 VINA RESULT:      -8.5      0.000      0.000
  Name = 
  2 active torsions:
  status: ('A' for Active; 'I' for Inactive)
    1  A    between atoms: C_5  and  C_23
    2  A    between atoms: C_6  and  C_31
                            x       y       z     vdW  Elec       q    Type
                         _______ _______ _______ _____ _____    ______ ____

>  <TORSDO>
F 2

$$$$
=
 OpenBabel10272414473D

 37 43  0  0  1  0  0  0  0  0999 V2000
  188.4600  177.6340  140.9230 C   0  0  1  0  0  0  0  0  0  0  0  0
  185.0800  178.3540  141.8440 C   0  0  0  0  0  0  0  0  0  0  0  0
  186.9940  178.1790  145.0210 C   0  0  1  0  0  3  0  0  0  0  0  0
  189.4940  177.6470  139.7800 C   0  0  1  0  0  3  0  0  0  0  0  0
  190.5610  178.5690  144.4660 C   0  0  0  0  0  2  0  0  0  0  0  0
  184.1900  178.8040  144.1120 C   0  0  0  0  0  3  0  0  0  0  0  0
  188.4620  177.7090  145.0680 C   0  0  2  0  0  3  0  0  0  0  0  0
  191.3330  177.3930  141.4530 C   0  0  0  0  0  0  0  0  0  0  0  0
  186.2380  177.4050  143.9650 C   0  0  0  0  0  2  0  0  0  0  0  0
  189.1110  178.3560  146.2600 C   0  0  2  0  0  3  0  0  0  0  0  0
  184.0650  178.8320  145.5840 C   0  0  0  0  0  3  0  0  0  0  0  0
  190.8200  176.9650  140.1200 C   0  0  0  0  0  2  0  0  0  0  0  0
  187.0860  178.1930  140.5280 C   0  0  1  0  0  3  0  0  0  0  0  0
  185.1350  179.8420  141.4500 C   0  0  0  0  0  1  0  0  0  0  0  0
  187.1140  178.1610  147.6250 C   0  0  0  0  0  2  0  0  0  0  0  0
  184.9360  178.4380  146.5200 C   0  0  0  0  0  3  0  0  0  0  0  0
  186.0860  177.5210  141.2680 O   0  0  0  0  0  0  0  0  0  0  0  0
  190.9890  176.5690  142.6500 C   0  0  0  0  0  2  0  0  0  0  0  0
  189.2940  178.0550  143.8990 N   0  0  2  0  0  0  0  0  0  0  0  0
  186.2970  177.8200  146.3590 C   0  0  1  0  0  3  0  0  0  0  0  0
  188.4950  176.5600  142.0360 C   0  0  0  0  0  2  0  0  0  0  0  0
  185.1420  178.2280  143.3590 C   0  0  0  0  0  0  0  0  0  0  0  0
  190.5840  178.3080  145.9640 C   0  0  1  0  0  3  0  0  0  0  0  0
  183.7380  177.8250  141.3620 C   0  0  0  0  0  1  0  0  0  0  0  0
  189.5400  176.8040  143.1410 C   0  0  1  0  0  3  0  0  0  0  0  0
  191.9740  178.4250  141.5690 O   0  0  0  0  0  0  0  0  0  0  0  0
  188.0430  179.0070  141.3990 C   0  0  0  0  0  2  0  0  0  0  0  0
  188.5780  177.7370  147.5290 C   0  0  0  0  0  2  0  0  0  0  0  0
  191.5970  176.0710  145.2600 C   0  0  0  0  0  3  0  0  0  0  0  0
  191.2670  176.9940  146.2680 C   0  0  0  0  0  0  0  0  0  0  0  0
  191.6770  176.7410  147.5820 C   0  0  0  0  0  3  0  0  0  0  0  0
  192.7830  175.3350  149.1600 F   0  0  0  0  0  0  0  0  0  0  0  0
  192.7090  174.6630  146.8790 C   0  0  0  0  0  3  0  0  0  0  0  0
  192.3950  175.5780  147.8860 C   0  0  0  0  0  0  0  0  0  0  0  0
  192.3090  174.9090  145.5640 C   0  0  0  0  0  3  0  0  0  0  0  0
  189.1790  177.9030  137.4050 O   0  0  0  0  0  1  0  0  0  0  0  0
  188.9370  177.0510  138.4880 C   0  0  0  0  0  2  0  0  0  0  0  0
  1 27  1  1  0  0  0
  1 21  1  0  0  0  0
  2 22  1  0  0  0  0
  3  9  1  6  0  0  0
  3  7  1  0  0  0  0
  3 20  1  0  0  0  0
  4 37  1  6  0  0  0
  4 12  1  0  0  0  0
  4  1  1  0  0  0  0
  5 23  1  0  0  0  0
  6 11  1  0  0  0  0
  7 10  1  0  0  0  0
  8 26  2  0  0  0  0
  8 18  1  0  0  0  0
 10 28  1  0  0  0  0
 11 16  2  0  0  0  0
 12  8  1  0  0  0  0
 13  1  1  0  0  0  0
 13 17  1  0  0  0  0
 13 27  1  0  0  0  0
 14  2  1  0  0  0  0
 17  2  1  0  0  0  0
 18 25  1  0  0  0  0
 19  5  1  0  0  0  0
 19  7  1  0  0  0  0
 20 16  1  0  0  0  0
 20 15  1  0  0  0  0
 21 25  1  0  0  0  0
 22  9  1  0  0  0  0
 22  6  2  0  0  0  0
 23 10  1  0  0  0  0
 23 30  1  0  0  0  0
 24  2  1  0  0  0  0
 25 19  1  0  0  0  0
 28 15  1  0  0  0  0
 29 35  2  0  0  0  0
 29 30  1  0  0  0  0
 30 31  2  0  0  0  0
 31 34  1  0  0  0  0
 33 34  2  0  0  0  0
 34 32  1  0  0  0  0
 35 33  1  0  0  0  0
 36 37  1  0  0  0  0
M  END
>  <MODEL>
2

>  <REMARK>
 VINA RESULT:      -7.9      3.244      8.125
  Name = 
  2 active torsions:
  status: ('A' for Active; 'I' for Inactive)
    1  A    between atoms: C_5  and  C_23
    2  A    between atoms: C_6  and  C_31
                            x       y       z     vdW  Elec       q    Type
                         _______ _______ _______ _____ _____    ______ ____

>  <TORSDO>
F 2

$$$$
=
 OpenBabel10272414473D

 37 43  0  0  1  0  0  0  0  0999 V2000
  186.1260  172.4690  135.6660 C   0  0  1  0  0  0  0  0  0  0  0  0
  182.6140  172.6860  136.3090 C   0  0  0  0  0  0  0  0  0  0  0  0
  184.0500  175.9500  137.3440 C   0  0  1  0  0  3  0  0  0  0  0  0
  187.2310  171.7200  134.8960 C   0  0  1  0  0  3  0  0  0  0  0  0
  187.3120  176.5180  135.8530 C   0  0  0  0  0  2  0  0  0  0  0  0
  181.3420  174.6470  137.1300 C   0  0  0  0  0  3  0  0  0  0  0  0
  185.5720  176.1960  137.3940 C   0  0  2  0  0  3  0  0  0  0  0  0
  188.8170  173.5930  135.3670 C   0  0  0  0  0  0  0  0  0  0  0  0
  183.7440  174.5250  137.7510 C   0  0  0  0  0  2  0  0  0  0  0  0
  185.8040  177.6660  137.1850 C   0  0  2  0  0  3  0  0  0  0  0  0
  181.0270  175.9390  137.7740 C   0  0  0  0  0  3  0  0  0  0  0  0
  188.6550  172.1130  135.2920 C   0  0  0  0  0  2  0  0  0  0  0  0
  184.7050  171.9690  135.3650 C   0  0  1  0  0  3  0  0  0  0  0  0
  182.2100  172.8990  134.8390 C   0  0  0  0  0  1  0  0  0  0  0  0
  183.8350  178.2980  138.4560 C   0  0  0  0  0  2  0  0  0  0  0  0
  181.8530  176.8530  138.2960 C   0  0  0  0  0  3  0  0  0  0  0  0
  183.9080  172.1230  136.5220 O   0  0  0  0  0  0  0  0  0  0  0  0
  188.6240  174.2670  136.6860 C   0  0  0  0  0  2  0  0  0  0  0  0
  186.3780  175.4960  136.3760 N   0  0  2  0  0  0  0  0  0  0  0  0
  183.3510  176.8310  138.4120 C   0  0  1  0  0  3  0  0  0  0  0  0
  186.3810  173.0730  137.0670 C   0  0  0  0  0  2  0  0  0  0  0  0
  182.5210  174.0070  137.0570 C   0  0  0  0  0  0  0  0  0  0  0  0
  187.2300  177.7650  136.7200 C   0  0  1  0  0  3  0  0  0  0  0  0
  181.6060  171.7140  136.9020 C   0  0  0  0  0  1  0  0  0  0  0  0
  187.1300  174.4190  137.0670 C   0  0  1  0  0  3  0  0  0  0  0  0
  189.0470  174.2450  134.3620 O   0  0  0  0  0  0  0  0  0  0  0  0
  185.2090  173.2940  134.7920 C   0  0  0  0  0  2  0  0  0  0  0  0
  185.3560  178.4330  138.4050 C   0  0  0  0  0  2  0  0  0  0  0  0
  187.9580  177.9740  139.1600 C   0  0  0  0  0  3  0  0  0  0  0  0
  188.2740  177.7260  137.8120 C   0  0  0  0  0  0  0  0  0  0  0  0
  189.5740  177.3250  137.4820 C   0  0  0  0  0  3  0  0  0  0  0  0
  191.8040  176.8060  138.1540 F   0  0  0  0  0  0  0  0  0  0  0  0
  190.2240  177.4460  139.8140 C   0  0  0  0  0  3  0  0  0  0  0  0
  190.5460  177.1870  138.4800 C   0  0  0  0  0  0  0  0  0  0  0  0
  188.9290  177.8410  140.1560 C   0  0  0  0  0  3  0  0  0  0  0  0
  188.1190  169.6500  135.7500 O   0  0  0  0  0  1  0  0  0  0  0  0
  187.0800  170.2030  134.9940 C   0  0  0  0  0  2  0  0  0  0  0  0
  1 27  1  6  0  0  0
  1 21  1  0  0  0  0
  2 17  1  0  0  0  0
  2 24  1  0  0  0  0
  2 22  1  0  0  0  0
  3  7  1  0  0  0  0
  3  9  1  1  0  0  0
  3 20  1  0  0  0  0
  4 37  1  1  0  0  0
  4 12  1  0  0  0  0
  4  1  1  0  0  0  0
  5 19  1  0  0  0  0
  5 23  1  0  0  0  0
  6 11  1  0  0  0  0
  8 18  1  0  0  0  0
 10  7  1  0  0  0  0
 10 28  1  0  0  0  0
 11 16  2  0  0  0  0
 12  8  1  0  0  0  0
 13  1  1  0  0  0  0
 13 17  1  0  0  0  0
 14  2  1  0  0  0  0
 16 20  1  0  0  0  0
 18 25  1  0  0  0  0
 19 25  1  0  0  0  0
 19  7  1  0  0  0  0
 20 15  1  0  0  0  0
 22  6  2  0  0  0  0
 22  9  1  0  0  0  0
 23 10  1  0  0  0  0
 23 30  1  0  0  0  0
 25 21  1  0  0  0  0
 26  8  2  0  0  0  0
 27 13  1  0  0  0  0
 28 15  1  0  0  0  0
 29 35  1  0  0  0  0
 30 29  2  0  0  0  0
 31 30  1  0  0  0  0
 31 34  2  0  0  0  0
 32 34  1  0  0  0  0
 33 35  2  0  0  0  0
 34 33  1  0  0  0  0
 37 36  1  0  0  0  0
M  END
>  <MODEL>
3

>  <REMARK>
 VINA RESULT:      -6.9      5.444      9.648
  Name = 
  2 active torsions:
  status: ('A' for Active; 'I' for Inactive)
    1  A    between atoms: C_5  and  C_23
    2  A    between atoms: C_6  and  C_31
                            x       y       z     vdW  Elec       q    Type
                         _______ _______ _______ _____ _____    ______ ____

>  <TORSDO>
F 2

$$$$
=
 OpenBabel10272414473D

 37 43  0  0  1  0  0  0  0  0999 V2000
  183.9970  178.8440  142.6880 C   0  0  1  0  0  0  0  0  0  0  0  0
  185.5180  178.3810  145.8910 C   0  0  0  0  0  0  0  0  0  0  0  0
  188.1930  177.7740  143.3880 C   0  0  1  0  0  3  0  0  0  0  0  0
  182.8040  179.4530  141.9260 C   0  0  1  0  0  3  0  0  0  0  0  0
  187.3590  179.2010  140.1560 C   0  0  0  0  0  2  0  0  0  0  0  0
  187.8990  177.9050  146.3850 C   0  0  0  0  0  3  0  0  0  0  0  0
  187.8980  177.7000  141.8770 C   0  0  2  0  0  3  0  0  0  0  0  0
  184.0550  179.1960  139.7780 C   0  0  0  0  0  0  0  0  0  0  0  0
  187.0430  177.1780  144.1690 C   0  0  0  0  0  2  0  0  0  0  0  0
  189.1470  178.1110  141.1470 C   0  0  2  0  0  3  0  0  0  0  0  0
  189.3010  177.4690  146.2170 C   0  0  0  0  0  3  0  0  0  0  0  0
  182.7310  179.0610  140.4490 C   0  0  0  0  0  2  0  0  0  0  0  0
  183.9850  179.1260  144.1970 C   0  0  1  0  0  3  0  0  0  0  0  0
  185.6360  179.8810  146.2160 C   0  0  0  0  0  1  0  0  0  0  0  0
  190.6080  177.0250  142.7520 C   0  0  0  0  0  2  0  0  0  0  0  0
  189.9380  177.0520  145.1160 C   0  0  0  0  0  3  0  0  0  0  0  0
  184.5780  178.0370  144.8740 O   0  0  0  0  0  0  0  0  0  0  0  0
  184.9440  177.9980  139.7040 C   0  0  0  0  0  2  0  0  0  0  0  0
  186.8170  178.5720  141.3810 N   0  0  2  0  0  0  0  0  0  0  0  0
  189.4120  176.8750  143.7200 C   0  0  1  0  0  3  0  0  0  0  0  0
  184.6780  177.5370  142.2170 C   0  0  0  0  0  2  0  0  0  0  0  0
  186.8850  177.8370  145.5050 C   0  0  0  0  0  0  0  0  0  0  0  0
  188.6710  178.5280  139.7840 C   0  0  1  0  0  3  0  0  0  0  0  0
  185.0590  177.6930  147.1680 C   0  0  0  0  0  1  0  0  0  0  0  0
  185.6620  177.7030  141.0450 C   0  0  1  0  0  3  0  0  0  0  0  0
  184.4270  180.2760  139.3480 O   0  0  0  0  0  0  0  0  0  0  0  0
  184.9490  179.8650  143.2690 C   0  0  0  0  0  2  0  0  0  0  0  0
  190.1950  177.0340  141.2810 C   0  0  0  0  0  2  0  0  0  0  0  0
  187.2950  177.3500  137.9820 C   0  0  0  0  0  3  0  0  0  0  0  0
  188.4350  177.4010  138.8040 C   0  0  0  0  0  0  0  0  0  0  0  0
  189.4360  176.4380  138.6380 C   0  0  0  0  0  3  0  0  0  0  0  0
  190.2640  174.4980  137.5230 F   0  0  0  0  0  0  0  0  0  0  0  0
  188.1550  175.3850  136.8700 C   0  0  0  0  0  3  0  0  0  0  0  0
  189.2950  175.4310  137.6740 C   0  0  0  0  0  0  0  0  0  0  0  0
  187.1520  176.3440  137.0240 C   0  0  0  0  0  3  0  0  0  0  0  0
  180.6380  180.2670  142.5960 O   0  0  0  0  0  1  0  0  0  0  0  0
  181.4680  179.1410  142.5970 C   0  0  0  0  0  2  0  0  0  0  0  0
  1 21  1  6  0  0  0
  1 27  1  0  0  0  0
  1 13  1  0  0  0  0
  2 14  1  0  0  0  0
  2 24  1  0  0  0  0
  3 20  1  0  0  0  0
  3  9  1  1  0  0  0
  4 37  1  1  0  0  0
  4  1  1  0  0  0  0
  5 19  1  0  0  0  0
  7  3  1  0  0  0  0
  8 12  1  0  0  0  0
  9 22  1  0  0  0  0
 10 28  1  0  0  0  0
 10  7  1  0  0  0  0
 11  6  1  0  0  0  0
 12  4  1  0  0  0  0
 13 17  1  0  0  0  0
 15 20  1  0  0  0  0
 16 11  2  0  0  0  0
 17  2  1  0  0  0  0
 18  8  1  0  0  0  0
 18 25  1  0  0  0  0
 19  7  1  0  0  0  0
 20 16  1  0  0  0  0
 22  2  1  0  0  0  0
 22  6  2  0  0  0  0
 23  5  1  0  0  0  0
 23 10  1  0  0  0  0
 25 19  1  0  0  0  0
 25 21  1  0  0  0  0
 26  8  2  0  0  0  0
 27 13  1  0  0  0  0
 28 15  1  0  0  0  0
 29 30  1  0  0  0  0
 30 23  1  0  0  0  0
 31 30  2  0  0  0  0
 32 34  1  0  0  0  0
 33 35  1  0  0  0  0
 33 34  2  0  0  0  0
 34 31  1  0  0  0  0
 35 29  2  0  0  0  0
 36 37  1  0  0  0  0
M  END
>  <MODEL>
4

>  <REMARK>
 VINA RESULT:      -6.8      2.268      5.676
  Name = 
  2 active torsions:
  status: ('A' for Active; 'I' for Inactive)
    1  A    between atoms: C_5  and  C_23
    2  A    between atoms: C_6  and  C_31
                            x       y       z     vdW  Elec       q    Type
                         _______ _______ _______ _____ _____    ______ ____

>  <TORSDO>
F 2

$$$$
=
 OpenBabel10272414473D

 37 43  0  0  1  0  0  0  0  0999 V2000
  184.5850  178.6240  142.9320 C   0  0  1  0  0  0  0  0  0  0  0  0
  184.1100  178.9300  139.4010 C   0  0  0  0  0  0  0  0  0  0  0  0
  187.5860  177.7120  139.8670 C   0  0  1  0  0  3  0  0  0  0  0  0
  183.8860  178.5120  144.3020 C   0  0  1  0  0  3  0  0  0  0  0  0
  188.0690  176.2480  143.1540 C   0  0  0  0  0  2  0  0  0  0  0  0
  185.6960  178.3180  137.5990 C   0  0  0  0  0  3  0  0  0  0  0  0
  188.2420  177.6210  141.2590 C   0  0  2  0  0  3  0  0  0  0  0  0
  186.0300  177.7300  145.3210 C   0  0  0  0  0  0  0  0  0  0  0  0
  186.6740  178.9160  139.8030 C   0  0  0  0  0  2  0  0  0  0  0  0
  189.2850  176.5390  141.2040 C   0  0  2  0  0  3  0  0  0  0  0  0
  186.9560  178.0030  136.8930 C   0  0  0  0  0  3  0  0  0  0  0  0
  184.8310  178.5980  145.5010 C   0  0  0  0  0  2  0  0  0  0  0  0
  183.6180  178.6790  141.7400 C   0  0  1  0  0  3  0  0  0  0  0  0
  183.2740  177.6450  139.2540 C   0  0  0  0  0  1  0  0  0  0  0  0
  189.9430  177.1000  138.9360 C   0  0  0  0  0  2  0  0  0  0  0  0
  188.1910  177.8490  137.3840 C   0  0  0  0  0  3  0  0  0  0  0  0
  184.1920  179.4700  140.7190 O   0  0  0  0  0  0  0  0  0  0  0  0
  187.2650  178.3310  144.7340 C   0  0  0  0  0  2  0  0  0  0  0  0
  187.3450  177.2820  142.3800 N   0  0  2  0  0  0  0  0  0  0  0  0
  188.6790  177.9780  138.7990 C   0  0  1  0  0  3  0  0  0  0  0  0
  185.9470  179.3390  142.7730 C   0  0  0  0  0  2  0  0  0  0  0  0
  185.5170  178.6820  138.8800 C   0  0  0  0  0  0  0  0  0  0  0  0
  189.4950  176.1400  142.6370 C   0  0  1  0  0  3  0  0  0  0  0  0
  183.4440  179.9850  138.5310 C   0  0  0  0  0  1  0  0  0  0  0  0
  187.1710  178.5070  143.1980 C   0  0  1  0  0  3  0  0  0  0  0  0
  185.9830  176.5420  145.5970 O   0  0  0  0  0  0  0  0  0  0  0  0
  184.4140  177.4110  142.0470 C   0  0  0  0  0  2  0  0  0  0  0  0
  190.4560  177.0010  140.3710 C   0  0  0  0  0  2  0  0  0  0  0  0
  190.8030  178.3080  142.9800 C   0  0  0  0  0  3  0  0  0  0  0  0
  190.4220  177.0310  143.4320 C   0  0  0  0  0  0  0  0  0  0  0  0
  190.8240  176.6130  144.7050 C   0  0  0  0  0  3  0  0  0  0  0  0
  191.9980  177.0380  146.7380 F   0  0  0  0  0  0  0  0  0  0  0  0
  191.9870  178.7120  145.0480 C   0  0  0  0  0  3  0  0  0  0  0  0
  191.6060  177.4510  145.5100 C   0  0  0  0  0  0  0  0  0  0  0  0
  191.5870  179.1420  143.7800 C   0  0  0  0  0  3  0  0  0  0  0  0
  181.5200  178.9570  144.2100 O   0  0  0  0  0  1  0  0  0  0  0  0
  182.7670  179.5380  144.4660 C   0  0  0  0  0  2  0  0  0  0  0  0
  1 27  1  6  0  0  0
  1  4  1  0  0  0  0
  2 17  1  0  0  0  0
  3  9  1  1  0  0  0
  3  7  1  0  0  0  0
  4 37  1  1  0  0  0
  4 12  1  0  0  0  0
  6 22  2  0  0  0  0
  7 19  1  0  0  0  0
  8 12  1  0  0  0  0
  8 26  2  0  0  0  0
 10  7  1  0  0  0  0
 10 23  1  0  0  0  0
 11 16  2  0  0  0  0
 11  6  1  0  0  0  0
 13 27  1  0  0  0  0
 13  1  1  0  0  0  0
 14  2  1  0  0  0  0
 15 28  1  0  0  0  0
 16 20  1  0  0  0  0
 17 13  1  0  0  0  0
 18  8  1  0  0  0  0
 19  5  1  0  0  0  0
 19 25  1  0  0  0  0
 20 15  1  0  0  0  0
 20  3  1  0  0  0  0
 21  1  1  0  0  0  0
 21 25  1  0  0  0  0
 22  2  1  0  0  0  0
 22  9  1  0  0  0  0
 23  5  1  0  0  0  0
 23 30  1  0  0  0  0
 24  2  1  0  0  0  0
 25 18  1  0  0  0  0
 28 10  1  0  0  0  0
 29 30  2  0  0  0  0
 29 35  1  0  0  0  0
 30 31  1  0  0  0  0
 31 34  2  0  0  0  0
 33 34  1  0  0  0  0
 34 32  1  0  0  0  0
 35 33  2  0  0  0  0
 36 37  1  0  0  0  0
M  END
>  <MODEL>
5

>  <REMARK>
 VINA RESULT:      -6.5      2.654      6.404
  Name = 
  2 active torsions:
  status: ('A' for Active; 'I' for Inactive)
    1  A    between atoms: C_5  and  C_23
    2  A    between atoms: C_6  and  C_31
                            x       y       z     vdW  Elec       q    Type
                         _______ _______ _______ _____ _____    ______ ____

>  <TORSDO>
F 2

$$$$
=
 OpenBabel10272414473D

 37 43  0  0  1  0  0  0  0  0999 V2000
  188.0910  175.6330  136.3520 C   0  0  1  0  0  0  0  0  0  0  0  0
  187.5140  172.1360  135.8760 C   0  0  0  0  0  0  0  0  0  0  0  0
  184.1760  173.6580  136.4490 C   0  0  1  0  0  3  0  0  0  0  0  0
  189.0820  176.7960  136.1430 C   0  0  1  0  0  3  0  0  0  0  0  0
  184.2160  177.2430  135.8740 C   0  0  0  0  0  2  0  0  0  0  0  0
  185.3360  170.9570  135.7860 C   0  0  0  0  0  3  0  0  0  0  0  0
  184.0100  175.1310  136.8750 C   0  0  2  0  0  3  0  0  0  0  0  0
  187.2410  178.4300  136.5790 C   0  0  0  0  0  0  0  0  0  0  0  0
  185.4170  173.0730  137.0850 C   0  0  0  0  0  2  0  0  0  0  0  0
  182.6670  175.5990  136.3870 C   0  0  2  0  0  3  0  0  0  0  0  0
  183.9020  170.6540  135.9730 C   0  0  0  0  0  3  0  0  0  0  0  0
  188.6740  178.1020  136.8260 C   0  0  0  0  0  2  0  0  0  0  0  0
  188.5750  174.2910  135.7850 C   0  0  1  0  0  3  0  0  0  0  0  0
  187.6870  172.1660  134.3470 C   0  0  0  0  0  1  0  0  0  0  0  0
  181.6060  173.4630  136.8380 C   0  0  0  0  0  2  0  0  0  0  0  0
  182.9270  171.4240  136.4710 C   0  0  0  0  0  3  0  0  0  0  0  0
  188.0680  173.2430  136.5860 O   0  0  0  0  0  0  0  0  0  0  0  0
  186.2240  177.9840  137.5780 C   0  0  0  0  0  2  0  0  0  0  0  0
  185.0040  176.0790  136.3390 N   0  0  2  0  0  0  0  0  0  0  0  0
  183.0000  172.8220  137.0170 C   0  0  1  0  0  3  0  0  0  0  0  0
  187.1430  175.5850  137.5740 C   0  0  0  0  0  2  0  0  0  0  0  0
  186.0360  172.0210  136.2170 C   0  0  0  0  0  0  0  0  0  0  0  0
  182.7780  177.0970  136.3460 C   0  0  1  0  0  3  0  0  0  0  0  0
  188.2300  170.8890  136.3720 C   0  0  0  0  0  1  0  0  0  0  0  0
  185.8920  176.4760  137.4600 C   0  0  1  0  0  3  0  0  0  0  0  0
  186.9020  179.0000  135.5550 O   0  0  0  0  0  0  0  0  0  0  0  0
  187.4860  175.0960  135.0760 C   0  0  0  0  0  2  0  0  0  0  0  0
  181.5730  174.9470  137.1980 C   0  0  0  0  0  2  0  0  0  0  0  0
  182.8110  177.1640  138.9000 C   0  0  0  0  0  3  0  0  0  0  0  0
  182.5760  177.8010  137.6690 C   0  0  0  0  0  0  0  0  0  0  0  0
  182.2470  179.1620  137.6600 C   0  0  0  0  0  3  0  0  0  0  0  0
  181.8170  181.1850  138.8480 F   0  0  0  0  0  0  0  0  0  0  0  0
  182.3680  179.2260  140.0800 C   0  0  0  0  0  3  0  0  0  0  0  0
  182.1420  179.8710  138.8630 C   0  0  0  0  0  0  0  0  0  0  0  0
  182.7010  177.8700  140.1000 C   0  0  0  0  0  3  0  0  0  0  0  0
  190.7870  176.9240  137.8400 O   0  0  0  0  0  1  0  0  0  0  0  0
  190.5030  176.4280  136.5630 C   0  0  0  0  0  2  0  0  0  0  0  0
  1 27  1  6  0  0  0
  1 21  1  0  0  0  0
  2 22  1  0  0  0  0
  2 24  1  0  0  0  0
  2 17  1  0  0  0  0
  3  7  1  0  0  0  0
  3 20  1  0  0  0  0
  3  9  1  1  0  0  0
  4  1  1  0  0  0  0
  4 37  1  1  0  0  0
  4 12  1  0  0  0  0
  5 19  1  0  0  0  0
  5 23  1  0  0  0  0
  6 11  1  0  0  0  0
  6 22  2  0  0  0  0
  8 12  1  0  0  0  0
  8 18  1  0  0  0  0
 10  7  1  0  0  0  0
 10 28  1  0  0  0  0
 11 16  2  0  0  0  0
 13  1  1  0  0  0  0
 13 17  1  0  0  0  0
 14  2  1  0  0  0  0
 15 20  1  0  0  0  0
 15 28  1  0  0  0  0
 16 20  1  0  0  0  0
 19  7  1  0  0  0  0
 19 25  1  0  0  0  0
 22  9  1  0  0  0  0
 23 10  1  0  0  0  0
 23 30  1  0  0  0  0
 25 21  1  0  0  0  0
 25 18  1  0  0  0  0
 26  8  2  0  0  0  0
 27 13  1  0  0  0  0
 29 35  1  0  0  0  0
 30 29  2  0  0  0  0
 31 30  1  0  0  0  0
 31 34  2  0  0  0  0
 32 34  1  0  0  0  0
 33 35  2  0  0  0  0
 34 33  1  0  0  0  0
 37 36  1  0  0  0  0
M  END
>  <MODEL>
6

>  <REMARK>
 VINA RESULT:      -5.7      5.729      8.126
  Name = 
  2 active torsions:
  status: ('A' for Active; 'I' for Inactive)
    1  A    between atoms: C_5  and  C_23
    2  A    between atoms: C_6  and  C_31
                            x       y       z     vdW  Elec       q    Type
                         _______ _______ _______ _____ _____    ______ ____

>  <TORSDO>
F 2

$$$$
=
 OpenBabel10272414473D

 37 43  0  0  1  0  0  0  0  0999 V2000
  182.9950  178.7660  143.2170 C   0  0  1  0  0  0  0  0  0  0  0  0
  185.5020  178.4220  145.7440 C   0  0  0  0  0  0  0  0  0  0  0  0
  187.2570  178.0170  142.4970 C   0  0  1  0  0  3  0  0  0  0  0  0
  181.5780  179.2820  142.8970 C   0  0  1  0  0  3  0  0  0  0  0  0
  185.3190  179.3740  139.7430 C   0  0  0  0  0  2  0  0  0  0  0  0
  187.9420  178.1280  145.4300 C   0  0  0  0  0  3  0  0  0  0  0  0
  186.4940  177.9200  141.1610 C   0  0  2  0  0  3  0  0  0  0  0  0
  182.0810  179.1180  140.4540 C   0  0  0  0  0  0  0  0  0  0  0  0
  186.4680  177.3360  143.5930 C   0  0  0  0  0  2  0  0  0  0  0  0
  187.4050  178.4240  140.0760 C   0  0  2  0  0  3  0  0  0  0  0  0
  189.2410  177.7990  144.8080 C   0  0  0  0  0  3  0  0  0  0  0  0
  181.0590  178.8850  141.5140 C   0  0  0  0  0  2  0  0  0  0  0  0
  183.4530  179.0480  144.6550 C   0  0  1  0  0  3  0  0  0  0  0  0
  185.6100  179.9280  146.0490 C   0  0  0  0  0  1  0  0  0  0  0  0
  189.3820  177.4530  141.0970 C   0  0  0  0  0  2  0  0  0  0  0  0
  189.5140  177.4310  143.5510 C   0  0  0  0  0  3  0  0  0  0  0  0
  184.3100  178.0070  145.0780 O   0  0  0  0  0  0  0  0  0  0  0  0
  182.9820  177.9910  140.0690 C   0  0  0  0  0  2  0  0  0  0  0  0
  185.2500  178.7070  141.0630 N   0  0  2  0  0  0  0  0  0  0  0  0
  188.5790  177.2130  142.3950 C   0  0  1  0  0  3  0  0  0  0  0  0
  183.5790  177.5140  142.5210 C   0  0  0  0  0  2  0  0  0  0  0  0
  186.7050  177.9830  144.9240 C   0  0  0  0  0  0  0  0  0  0  0  0
  186.4840  178.8020  138.9510 C   0  0  1  0  0  3  0  0  0  0  0  0
  185.5320  177.7030  147.0840 C   0  0  0  0  0  1  0  0  0  0  0  0
  184.1150  177.7530  141.0970 C   0  0  1  0  0  3  0  0  0  0  0  0
  182.2140  180.2230  139.9530 O   0  0  0  0  0  0  0  0  0  0  0  0
  184.0080  179.8560  143.4830 C   0  0  0  0  0  2  0  0  0  0  0  0
  188.5150  177.4290  139.8390 C   0  0  0  0  0  2  0  0  0  0  0  0
  184.7250  177.6020  137.5390 C   0  0  0  0  0  3  0  0  0  0  0  0
  186.0250  177.6590  138.0740 C   0  0  0  0  0  0  0  0  0  0  0  0
  186.9580  176.6860  137.6990 C   0  0  0  0  0  3  0  0  0  0  0  0
  187.4990  174.7200  136.4600 F   0  0  0  0  0  0  0  0  0  0  0  0
  185.2990  175.6100  136.2960 C   0  0  0  0  0  3  0  0  0  0  0  0
  186.5950  175.6630  136.8130 C   0  0  0  0  0  0  0  0  0  0  0  0
  184.3620  176.5790  136.6590 C   0  0  0  0  0  3  0  0  0  0  0  0
  179.9870  177.6340  143.6400 O   0  0  0  0  0  1  0  0  0  0  0  0
  180.5590  178.8710  143.9570 C   0  0  0  0  0  2  0  0  0  0  0  0
  1 21  1  6  0  0  0
  1 27  1  0  0  0  0
  1 13  1  0  0  0  0
  2 14  1  0  0  0  0
  2 24  1  0  0  0  0
  3  9  1  1  0  0  0
  4  1  1  0  0  0  0
  4 37  1  1  0  0  0
  5 19  1  0  0  0  0
  7  3  1  0  0  0  0
  8 12  1  0  0  0  0
  9 22  1  0  0  0  0
 10  7  1  0  0  0  0
 11  6  1  0  0  0  0
 12  4  1  0  0  0  0
 13 17  1  0  0  0  0
 15 20  1  0  0  0  0
 16 11  2  0  0  0  0
 17  2  1  0  0  0  0
 18  8  1  0  0  0  0
 18 25  1  0  0  0  0
 19 25  1  0  0  0  0
 19  7  1  0  0  0  0
 20  3  1  0  0  0  0
 20 16  1  0  0  0  0
 22  6  2  0  0  0  0
 22  2  1  0  0  0  0
 23  5  1  0  0  0  0
 23 10  1  0  0  0  0
 25 21  1  0  0  0  0
 26  8  2  0  0  0  0
 27 13  1  0  0  0  0
 28 10  1  0  0  0  0
 28 15  1  0  0  0  0
 29 30  1  0  0  0  0
 30 23  1  0  0  0  0
 31 30  2  0  0  0  0
 32 34  1  0  0  0  0
 33 35  1  0  0  0  0
 33 34  2  0  0  0  0
 34 31  1  0  0  0  0
 35 29  2  0  0  0  0
 36 37  1  0  0  0  0
M  END
>  <MODEL>
7

>  <REMARK>
 VINA RESULT:      -5.6      2.321      5.111
  Name = 
  2 active torsions:
  status: ('A' for Active; 'I' for Inactive)
    1  A    between atoms: C_5  and  C_23
    2  A    between atoms: C_6  and  C_31
                            x       y       z     vdW  Elec       q    Type
                         _______ _______ _______ _____ _____    ______ ____

>  <TORSDO>
F 2

$$$$
=
 OpenBabel10272414473D

 37 43  0  0  1  0  0  0  0  0999 V2000
  187.2890  178.1650  139.9120 C   0  0  1  0  0  0  0  0  0  0  0  0
  188.2620  178.0240  143.3510 C   0  0  0  0  0  0  0  0  0  0  0  0
  184.5620  178.3260  143.3430 C   0  0  1  0  0  3  0  0  0  0  0  0
  187.7160  177.8740  138.4600 C   0  0  1  0  0  3  0  0  0  0  0  0
  183.1420  177.3950  140.1330 C   0  0  0  0  0  2  0  0  0  0  0  0
  186.7890  177.9780  145.3420 C   0  0  0  0  0  3  0  0  0  0  0  0
  183.7650  178.5960  142.0510 C   0  0  2  0  0  3  0  0  0  0  0  0
  185.3350  178.0800  137.7290 C   0  0  0  0  0  0  0  0  0  0  0  0
  185.8830  179.0600  143.2980 C   0  0  0  0  0  2  0  0  0  0  0  0
  182.3890  178.0180  142.2330 C   0  0  2  0  0  3  0  0  0  0  0  0
  185.6030  178.1450  146.2080 C   0  0  0  0  0  3  0  0  0  0  0  0
  186.7510  178.4080  137.4000 C   0  0  0  0  0  2  0  0  0  0  0  0
  188.3300  177.7520  140.9630 C   0  0  1  0  0  3  0  0  0  0  0  0
  188.5190  176.5050  143.3680 C   0  0  0  0  0  1  0  0  0  0  0  0
  182.2870  178.6450  144.5760 C   0  0  0  0  0  2  0  0  0  0  0  0
  184.3620  178.5300  145.8870 C   0  0  0  0  0  3  0  0  0  0  0  0
  188.2500  178.6370  142.0620 O   0  0  0  0  0  0  0  0  0  0  0  0
  184.5260  179.0840  138.4850 C   0  0  0  0  0  2  0  0  0  0  0  0
  184.3080  178.0020  140.8150 N   0  0  2  0  0  0  0  0  0  0  0  0
  183.8040  178.9350  144.5520 C   0  0  1  0  0  3  0  0  0  0  0  0
  186.3610  179.3520  140.2630 C   0  0  0  0  0  2  0  0  0  0  0  0
  186.9470  178.3240  144.0530 C   0  0  0  0  0  0  0  0  0  0  0  0
  181.8670  177.8310  140.8370 C   0  0  1  0  0  3  0  0  0  0  0  0
  189.3960  178.6660  144.1350 C   0  0  0  0  0  1  0  0  0  0  0  0
  184.8640  179.1070  139.9960 C   0  0  1  0  0  3  0  0  0  0  0  0
  184.8640  176.9940  137.4350 O   0  0  0  0  0  0  0  0  0  0  0  0
  187.0590  176.9290  140.7510 C   0  0  0  0  0  2  0  0  0  0  0  0
  181.6110  178.8530  143.2220 C   0  0  0  0  0  2  0  0  0  0  0  0
  180.5230  180.0030  140.9010 C   0  0  0  0  0  3  0  0  0  0  0  0
  181.2920  179.0680  140.1850 C   0  0  0  0  0  0  0  0  0  0  0  0
  181.6280  179.3420  138.8540 C   0  0  0  0  0  3  0  0  0  0  0  0
  181.5150  180.7800  136.9540 F   0  0  0  0  0  0  0  0  0  0  0  0
  180.4210  181.4410  138.9610 C   0  0  0  0  0  3  0  0  0  0  0  0
  181.1920  180.5240  138.2440 C   0  0  0  0  0  0  0  0  0  0  0  0
  180.0840  181.1800  140.2910 C   0  0  0  0  0  3  0  0  0  0  0  0
  189.0820  179.6110  137.5000 O   0  0  0  0  0  1  0  0  0  0  0  0
  189.1260  178.3770  138.1580 C   0  0  0  0  0  2  0  0  0  0  0  0
  1 21  1  1  0  0  0
  1 27  1  0  0  0  0
  1 13  1  0  0  0  0
  2 14  1  0  0  0  0
  2 22  1  0  0  0  0
  2 24  1  0  0  0  0
  3  9  1  6  0  0  0
  3 20  1  0  0  0  0
  4 37  1  6  0  0  0
  4  1  1  0  0  0  0
  5 19  1  0  0  0  0
  5 23  1  0  0  0  0
  6 11  1  0  0  0  0
  7 10  1  0  0  0  0
  7  3  1  0  0  0  0
  8 18  1  0  0  0  0
  9 22  1  0  0  0  0
 10 28  1  0  0  0  0
 12  8  1  0  0  0  0
 12  4  1  0  0  0  0
 13 17  1  0  0  0  0
 16 11  2  0  0  0  0
 17  2  1  0  0  0  0
 18 25  1  0  0  0  0
 19  7  1  0  0  0  0
 20 15  1  0  0  0  0
 20 16  1  0  0  0  0
 22  6  2  0  0  0  0
 23 10  1  0  0  0  0
 25 21  1  0  0  0  0
 25 19  1  0  0  0  0
 26  8  2  0  0  0  0
 27 13  1  0  0  0  0
 28 15  1  0  0  0  0
 30 23  1  0  0  0  0
 30 29  2  0  0  0  0
 31 30  1  0  0  0  0
 32 34  1  0  0  0  0
 33 35  2  0  0  0  0
 34 31  2  0  0  0  0
 34 33  1  0  0  0  0
 35 29  1  0  0  0  0
 36 37  1  0  0  0  0
M  END
>  <MODEL>
8

>  <REMARK>
 VINA RESULT:      -5.5      2.799      5.944
  Name = 
  2 active torsions:
  status: ('A' for Active; 'I' for Inactive)
    1  A    between atoms: C_5  and  C_23
    2  A    between atoms: C_6  and  C_31
                            x       y       z     vdW  Elec       q    Type
                         _______ _______ _______ _____ _____    ______ ____

>  <TORSDO>
F 2

$$$$
