=
 OpenBabel10272400403D

 25 27  0  0  1  0  0  0  0  0999 V2000
  187.5670  177.8990  146.1680 C   0  0  0  0  0  0  0  0  0  0  0  0
  188.8400  177.5820  145.6290 C   0  0  0  0  0  0  0  0  0  0  0  0
  188.4890  177.7430  148.4120 C   0  0  0  0  0  3  0  0  0  0  0  0
  189.7350  177.4130  147.8860 C   0  0  0  0  0  3  0  0  0  0  0  0
  191.3190  177.0310  145.9780 C   0  0  1  0  0  3  0  0  0  0  0  0
  191.9590  175.8490  146.6860 C   0  0  0  0  0  1  0  0  0  0  0  0
  189.0370  177.5150  144.1350 C   0  0  0  0  0  2  0  0  0  0  0  0
  187.4140  177.9800  147.5590 C   0  0  0  0  0  3  0  0  0  0  0  0
  191.3650  176.7780  144.4730 C   0  0  0  0  0  2  0  0  0  0  0  0
  190.4820  177.7750  143.7400 C   0  0  1  0  0  3  0  0  0  0  0  0
  189.9220  177.3030  146.5030 C   0  0  0  0  0  0  0  0  0  0  0  0
  186.3800  178.1440  145.3140 C   0  0  0  0  0  0  0  0  0  0  0  0
  184.1310  178.5390  143.6770 C   0  0  0  0  0  3  0  0  0  0  0  0
  185.1740  178.6230  145.8630 C   0  0  0  0  0  0  0  0  0  0  0  0
  184.0590  178.8220  145.0420 C   0  0  0  0  0  3  0  0  0  0  0  0
  185.3200  178.0550  143.1260 C   0  0  0  0  0  3  0  0  0  0  0  0
  185.0790  178.9230  147.1820 F   0  0  0  0  0  0  0  0  0  0  0  0
  186.4370  177.8570  143.9410 C   0  0  0  0  0  3  0  0  0  0  0  0
  190.6270  177.6010  142.2390 C   0  0  0  0  0  2  0  0  0  0  0  0
  189.3200  177.1130  141.6350 C   0  0  0  0  0  2  0  0  0  0  0  0
  189.3680  177.2100  140.1190 C   0  0  2  0  0  3  0  0  0  0  0  0
  190.8010  177.3660  139.6360 C   0  0  0  0  0  1  0  0  0  0  0  0
  188.5380  178.3590  139.6470 C   0  0  0  0  0  0  0  0  0  0  0  0
  188.9610  179.1080  138.5570 O   0  0  0  0  0  0  0  0  0  0  0  0
  187.4580  178.6550  140.2260 O   0  0  0  0  0  1  0  0  0  0  0  0
  1  8  1  0  0  0  0
  2  1  2  0  0  0  0
  2 11  1  0  0  0  0
  4  3  1  0  0  0  0
  5 11  1  0  0  0  0
  5  6  1  1  0  0  0
  7  2  1  0  0  0  0
  8  3  2  0  0  0  0
  9  5  1  0  0  0  0
 10 19  1  6  0  0  0
 10  7  1  0  0  0  0
 10  9  1  0  0  0  0
 11  4  2  0  0  0  0
 12 14  1  0  0  0  0
 12  1  1  0  0  0  0
 13 15  1  0  0  0  0
 14 17  1  0  0  0  0
 15 14  2  0  0  0  0
 16 13  2  0  0  0  0
 16 18  1  0  0  0  0
 18 12  2  0  0  0  0
 20 19  1  0  0  0  0
 21 22  1  1  0  0  0
 21 20  1  0  0  0  0
 23 21  1  0  0  0  0
 23 25  1  0  0  0  0
 24 23  2  0  0  0  0
M  END
>  <MODEL>
1

>  <REMARK>
 VINA RESULT:     -10.9      0.000      0.000
  Name = 
  5 active torsions:
  status: ('A' for Active; 'I' for Inactive)
    1  A    between atoms: C_1  and  C_5
    2  A    between atoms: C_2  and  C_21
    3  A    between atoms: C_6  and  C_15
    4  A    between atoms: C_6  and  C_23
    5  A    between atoms: C_15  and  C_21
                            x       y       z     vdW  Elec       q    Type
                         _______ _______ _______ _____ _____    ______ ____

>  <TORSDO>
F 5

$$$$
=
 OpenBabel10272400403D

 25 27  0  0  1  0  0  0  0  0999 V2000
  190.5940  176.8560  144.7380 C   0  0  0  0  0  0  0  0  0  0  0  0
  189.4440  177.2320  145.4770 C   0  0  0  0  0  0  0  0  0  0  0  0
  191.6980  176.2080  146.8040 C   0  0  0  0  0  3  0  0  0  0  0  0
  190.5770  176.5930  147.5330 C   0  0  0  0  0  3  0  0  0  0  0  0
  188.2260  177.4480  147.7210 C   0  0  1  0  0  3  0  0  0  0  0  0
  188.5780  178.2860  148.9390 C   0  0  0  0  0  1  0  0  0  0  0  0
  188.2240  177.7620  144.7650 C   0  0  0  0  0  2  0  0  0  0  0  0
  191.7070  176.3430  145.4180 C   0  0  0  0  0  3  0  0  0  0  0  0
  187.1310  178.1700  146.9370 C   0  0  0  0  0  2  0  0  0  0  0  0
  186.9520  177.5330  145.5680 C   0  0  1  0  0  3  0  0  0  0  0  0
  189.4540  177.1300  146.8910 C   0  0  0  0  0  0  0  0  0  0  0  0
  190.6720  176.9920  143.2630 C   0  0  0  0  0  0  0  0  0  0  0  0
  190.8860  177.2230  140.4710 C   0  0  0  0  0  3  0  0  0  0  0  0
  189.7680  176.3160  142.4200 C   0  0  0  0  0  0  0  0  0  0  0  0
  189.8770  176.4380  141.0320 C   0  0  0  0  0  3  0  0  0  0  0  0
  191.7920  177.8900  141.2990 C   0  0  0  0  0  3  0  0  0  0  0  0
  188.7670  175.5590  142.9360 F   0  0  0  0  0  0  0  0  0  0  0  0
  191.6870  177.7730  142.6860 C   0  0  0  0  0  3  0  0  0  0  0  0
  185.7830  178.1700  144.8410 C   0  0  0  0  0  2  0  0  0  0  0  0
  185.8490  177.8550  143.3550 C   0  0  0  0  0  2  0  0  0  0  0  0
  185.1590  178.9450  142.5510 C   0  0  2  0  0  3  0  0  0  0  0  0
  183.6710  178.6580  142.4240 C   0  0  0  0  0  1  0  0  0  0  0  0
  185.7780  179.0620  141.1970 C   0  0  0  0  0  0  0  0  0  0  0  0
  187.0830  178.6350  141.0010 O   0  0  0  0  0  1  0  0  0  0  0  0
  185.1260  179.5430  140.2310 O   0  0  0  0  0  0  0  0  0  0  0  0
  1  8  2  0  0  0  0
  1  2  1  0  0  0  0
  2 11  2  0  0  0  0
  3  4  2  0  0  0  0
  5  6  1  1  0  0  0
  7  2  1  0  0  0  0
  7 10  1  0  0  0  0
  8  3  1  0  0  0  0
  9  5  1  0  0  0  0
 10 19  1  6  0  0  0
 10  9  1  0  0  0  0
 11  4  1  0  0  0  0
 11  5  1  0  0  0  0
 12  1  1  0  0  0  0
 13 15  2  0  0  0  0
 13 16  1  0  0  0  0
 14 17  1  0  0  0  0
 14 12  2  0  0  0  0
 15 14  1  0  0  0  0
 16 18  2  0  0  0  0
 18 12  1  0  0  0  0
 20 19  1  0  0  0  0
 21 22  1  6  0  0  0
 21 20  1  0  0  0  0
 23 21  1  0  0  0  0
 24 23  1  0  0  0  0
 25 23  2  0  0  0  0
M  END
>  <MODEL>
2

>  <REMARK>
 VINA RESULT:     -10.9      1.811      4.842
  Name = 
  5 active torsions:
  status: ('A' for Active; 'I' for Inactive)
    1  A    between atoms: C_1  and  C_5
    2  A    between atoms: C_2  and  C_21
    3  A    between atoms: C_6  and  C_15
    4  A    between atoms: C_6  and  C_23
    5  A    between atoms: C_15  and  C_21
                            x       y       z     vdW  Elec       q    Type
                         _______ _______ _______ _____ _____    ______ ____

>  <TORSDO>
F 5

$$$$
=
 OpenBabel10272400403D

 25 27  0  0  1  0  0  0  0  0999 V2000
  187.3530  178.0890  142.5050 C   0  0  0  0  0  0  0  0  0  0  0  0
  186.5160  178.2960  143.6300 C   0  0  0  0  0  0  0  0  0  0  0  0
  185.6250  179.0040  141.0620 C   0  0  0  0  0  3  0  0  0  0  0  0
  184.7930  179.1900  142.1620 C   0  0  0  0  0  3  0  0  0  0  0  0
  184.3050  179.1280  144.6230 C   0  0  1  0  0  3  0  0  0  0  0  0
  182.8870  178.6410  144.3760 C   0  0  0  0  0  1  0  0  0  0  0  0
  187.0000  177.9380  145.0130 C   0  0  0  0  0  2  0  0  0  0  0  0
  186.8920  178.4540  141.2320 C   0  0  0  0  0  3  0  0  0  0  0  0
  184.7960  178.5370  145.9420 C   0  0  0  0  0  2  0  0  0  0  0  0
  186.2950  178.7470  146.0910 C   0  0  1  0  0  3  0  0  0  0  0  0
  185.2110  178.8190  143.4470 C   0  0  0  0  0  0  0  0  0  0  0  0
  188.7060  177.4920  142.6190 C   0  0  0  0  0  0  0  0  0  0  0  0
  191.2860  176.4100  142.8830 C   0  0  0  0  0  3  0  0  0  0  0  0
  188.8790  176.1500  143.0120 C   0  0  0  0  0  0  0  0  0  0  0  0
  190.1650  175.6150  143.1370 C   0  0  0  0  0  3  0  0  0  0  0  0
  191.1230  177.7430  142.5010 C   0  0  0  0  0  3  0  0  0  0  0  0
  187.8100  175.3500  143.2500 F   0  0  0  0  0  0  0  0  0  0  0  0
  189.8410  178.2810  142.3720 C   0  0  0  0  0  3  0  0  0  0  0  0
  186.7600  178.2710  147.4550 C   0  0  0  0  0  2  0  0  0  0  0  0
  187.6190  177.0250  147.3160 C   0  0  0  0  0  2  0  0  0  0  0  0
  188.9430  177.2100  148.0380 C   0  0  2  0  0  3  0  0  0  0  0  0
  189.0140  178.5830  148.6870 C   0  0  0  0  0  1  0  0  0  0  0  0
  190.0820  177.0320  147.0870 C   0  0  0  0  0  0  0  0  0  0  0  0
  191.0920  176.1310  147.3890 O   0  0  0  0  0  1  0  0  0  0  0  0
  190.1320  177.6920  146.0130 O   0  0  0  0  0  0  0  0  0  0  0  0
  1 12  1  0  0  0  0
  1  2  1  0  0  0  0
  2  7  1  0  0  0  0
  3  8  1  0  0  0  0
  3  4  2  0  0  0  0
  4 11  1  0  0  0  0
  5  6  1  6  0  0  0
  5  9  1  0  0  0  0
  7 10  1  0  0  0  0
  8  1  2  0  0  0  0
  9 10  1  0  0  0  0
 10 19  1  1  0  0  0
 11  2  2  0  0  0  0
 11  5  1  0  0  0  0
 12 14  1  0  0  0  0
 13 15  1  0  0  0  0
 14 15  2  0  0  0  0
 14 17  1  0  0  0  0
 16 13  2  0  0  0  0
 18 16  1  0  0  0  0
 18 12  2  0  0  0  0
 20 19  1  0  0  0  0
 20 21  1  0  0  0  0
 21 22  1  6  0  0  0
 23 24  1  0  0  0  0
 23 21  1  0  0  0  0
 25 23  2  0  0  0  0
M  END
>  <MODEL>
3

>  <REMARK>
 VINA RESULT:     -10.4      2.723      6.641
  Name = 
  5 active torsions:
  status: ('A' for Active; 'I' for Inactive)
    1  A    between atoms: C_1  and  C_5
    2  A    between atoms: C_2  and  C_21
    3  A    between atoms: C_6  and  C_15
    4  A    between atoms: C_6  and  C_23
    5  A    between atoms: C_15  and  C_21
                            x       y       z     vdW  Elec       q    Type
                         _______ _______ _______ _____ _____    ______ ____

>  <TORSDO>
F 5

$$$$
=
 OpenBabel10272400403D

 25 27  0  0  1  0  0  0  0  0999 V2000
  187.6850  177.8400  145.9010 C   0  0  0  0  0  0  0  0  0  0  0  0
  189.0150  177.5370  145.5140 C   0  0  0  0  0  0  0  0  0  0  0  0
  188.3070  177.5540  148.2330 C   0  0  0  0  0  3  0  0  0  0  0  0
  189.6080  177.2360  147.8560 C   0  0  0  0  0  3  0  0  0  0  0  0
  191.4240  176.9360  146.1500 C   0  0  1  0  0  3  0  0  0  0  0  0
  191.9610  175.7100  146.8680 C   0  0  0  0  0  1  0  0  0  0  0  0
  189.4040  177.5470  144.0570 C   0  0  0  0  0  2  0  0  0  0  0  0
  187.3530  177.8490  147.2630 C   0  0  0  0  0  3  0  0  0  0  0  0
  191.6640  176.7630  144.6510 C   0  0  0  0  0  2  0  0  0  0  0  0
  190.8900  177.8090  143.8660 C   0  0  1  0  0  3  0  0  0  0  0  0
  189.9730  177.1970  146.5040 C   0  0  0  0  0  0  0  0  0  0  0  0
  186.6200  178.1460  144.9150 C   0  0  0  0  0  0  0  0  0  0  0  0
  184.5890  178.6540  143.0410 C   0  0  0  0  0  3  0  0  0  0  0  0
  185.5190  178.9550  145.2590 C   0  0  0  0  0  0  0  0  0  0  0  0
  184.5130  179.2090  144.3210 C   0  0  0  0  0  3  0  0  0  0  0  0
  185.6720  177.8440  142.6950 C   0  0  0  0  0  3  0  0  0  0  0  0
  185.4270  179.5200  146.4890 F   0  0  0  0  0  0  0  0  0  0  0  0
  186.6800  177.5900  143.6270 C   0  0  0  0  0  3  0  0  0  0  0  0
  191.2260  177.7140  142.3900 C   0  0  0  0  0  2  0  0  0  0  0  0
  190.1020  177.0240  141.6340 C   0  0  0  0  0  2  0  0  0  0  0  0
  190.0760  177.4850  140.1860 C   0  0  2  0  0  3  0  0  0  0  0  0
  188.6560  177.4710  139.6430 C   0  0  0  0  0  1  0  0  0  0  0  0
  190.9550  176.6150  139.3490 C   0  0  0  0  0  0  0  0  0  0  0  0
  192.2830  176.9650  139.1560 O   0  0  0  0  0  1  0  0  0  0  0  0
  190.5020  175.5650  138.8160 O   0  0  0  0  0  0  0  0  0  0  0  0
  1  8  1  0  0  0  0
  2  1  2  0  0  0  0
  2 11  1  0  0  0  0
  4  3  1  0  0  0  0
  5 11  1  0  0  0  0
  5  6  1  1  0  0  0
  7  2  1  0  0  0  0
  8  3  2  0  0  0  0
  9  5  1  0  0  0  0
 10 19  1  6  0  0  0
 10  7  1  0  0  0  0
 10  9  1  0  0  0  0
 11  4  2  0  0  0  0
 12 14  1  0  0  0  0
 12  1  1  0  0  0  0
 13 15  1  0  0  0  0
 14 17  1  0  0  0  0
 15 14  2  0  0  0  0
 16 13  2  0  0  0  0
 16 18  1  0  0  0  0
 18 12  2  0  0  0  0
 20 19  1  0  0  0  0
 21 22  1  6  0  0  0
 21 20  1  0  0  0  0
 23 21  1  0  0  0  0
 24 23  1  0  0  0  0
 25 23  2  0  0  0  0
M  END
>  <MODEL>
4

>  <REMARK>
 VINA RESULT:     -10.4      1.322      1.507
  Name = 
  5 active torsions:
  status: ('A' for Active; 'I' for Inactive)
    1  A    between atoms: C_1  and  C_5
    2  A    between atoms: C_2  and  C_21
    3  A    between atoms: C_6  and  C_15
    4  A    between atoms: C_6  and  C_23
    5  A    between atoms: C_15  and  C_21
                            x       y       z     vdW  Elec       q    Type
                         _______ _______ _______ _____ _____    ______ ____

>  <TORSDO>
F 5

$$$$
=
 OpenBabel10272400403D

 25 27  0  0  1  0  0  0  0  0999 V2000
  187.4550  177.8430  145.8210 C   0  0  0  0  0  0  0  0  0  0  0  0
  188.6190  177.5360  145.0720 C   0  0  0  0  0  0  0  0  0  0  0  0
  188.7060  177.5320  147.8800 C   0  0  0  0  0  3  0  0  0  0  0  0
  189.8460  177.2100  147.1490 C   0  0  0  0  0  3  0  0  0  0  0  0
  191.1050  176.9160  144.9980 C   0  0  1  0  0  3  0  0  0  0  0  0
  191.8130  175.6800  145.5270 C   0  0  0  0  0  1  0  0  0  0  0  0
  188.5820  177.5580  143.5650 C   0  0  0  0  0  2  0  0  0  0  0  0
  187.5200  177.8410  147.2210 C   0  0  0  0  0  3  0  0  0  0  0  0
  190.9120  176.7550  143.4920 C   0  0  0  0  0  2  0  0  0  0  0  0
  189.9550  177.8130  142.9640 C   0  0  1  0  0  3  0  0  0  0  0  0
  189.8140  177.1820  145.7490 C   0  0  0  0  0  0  0  0  0  0  0  0
  186.1570  178.1640  145.1770 C   0  0  0  0  0  0  0  0  0  0  0  0
  183.6960  178.7050  143.9350 C   0  0  0  0  0  3  0  0  0  0  0  0
  185.0560  178.6020  145.9380 C   0  0  0  0  0  0  0  0  0  0  0  0
  183.8340  178.8740  145.3140 C   0  0  0  0  0  3  0  0  0  0  0  0
  184.7810  178.2630  143.1740 C   0  0  0  0  0  3  0  0  0  0  0  0
  185.1640  178.7910  147.2770 F   0  0  0  0  0  0  0  0  0  0  0  0
  186.0030  177.9920  143.7930 C   0  0  0  0  0  3  0  0  0  0  0  0
  189.8610  177.7300  141.4520 C   0  0  0  0  0  2  0  0  0  0  0  0
  188.5010  178.2170  140.9800 C   0  0  0  0  0  2  0  0  0  0  0  0
  188.2970  177.8760  139.5130 C   0  0  2  0  0  3  0  0  0  0  0  0
  189.2710  178.6510  138.6400 C   0  0  0  0  0  1  0  0  0  0  0  0
  186.8910  178.1710  139.1020 C   0  0  0  0  0  0  0  0  0  0  0  0
  186.0560  178.8650  139.9660 O   0  0  0  0  0  1  0  0  0  0  0  0
  186.4570  177.7970  137.9790 O   0  0  0  0  0  0  0  0  0  0  0  0
  1  8  1  0  0  0  0
  2 11  1  0  0  0  0
  2  1  2  0  0  0  0
  4  3  1  0  0  0  0
  5  6  1  1  0  0  0
  5 11  1  0  0  0  0
  7  2  1  0  0  0  0
  8  3  2  0  0  0  0
  9  5  1  0  0  0  0
 10 19  1  6  0  0  0
 10  9  1  0  0  0  0
 10  7  1  0  0  0  0
 11  4  2  0  0  0  0
 12  1  1  0  0  0  0
 12 14  1  0  0  0  0
 13 15  1  0  0  0  0
 14 17  1  0  0  0  0
 15 14  2  0  0  0  0
 16 18  1  0  0  0  0
 16 13  2  0  0  0  0
 18 12  2  0  0  0  0
 20 19  1  0  0  0  0
 21 22  1  6  0  0  0
 21 20  1  0  0  0  0
 23 21  1  0  0  0  0
 23 24  1  0  0  0  0
 25 23  2  0  0  0  0
M  END
>  <MODEL>
5

>  <REMARK>
 VINA RESULT:     -10.0      1.021      1.251
  Name = 
  5 active torsions:
  status: ('A' for Active; 'I' for Inactive)
    1  A    between atoms: C_1  and  C_5
    2  A    between atoms: C_2  and  C_21
    3  A    between atoms: C_6  and  C_15
    4  A    between atoms: C_6  and  C_23
    5  A    between atoms: C_15  and  C_21
                            x       y       z     vdW  Elec       q    Type
                         _______ _______ _______ _____ _____    ______ ____

>  <TORSDO>
F 5

$$$$
=
 OpenBabel10272400403D

 25 27  0  0  1  0  0  0  0  0999 V2000
  189.3600  177.3900  145.0700 C   0  0  0  0  0  0  0  0  0  0  0  0
  188.0010  177.7860  145.1540 C   0  0  0  0  0  0  0  0  0  0  0  0
  189.4180  177.1110  147.4840 C   0  0  0  0  0  3  0  0  0  0  0  0
  188.0900  177.5180  147.5720 C   0  0  0  0  0  3  0  0  0  0  0  0
  185.9060  178.2310  146.5620 C   0  0  1  0  0  3  0  0  0  0  0  0
  185.6770  179.2510  147.6640 C   0  0  0  0  0  1  0  0  0  0  0  0
  187.2300  178.1290  143.9030 C   0  0  0  0  0  2  0  0  0  0  0  0
  190.0480  177.0520  146.2440 C   0  0  0  0  0  3  0  0  0  0  0  0
  185.2810  178.7610  145.2730 C   0  0  0  0  0  2  0  0  0  0  0  0
  185.7340  177.9300  144.0830 C   0  0  1  0  0  3  0  0  0  0  0  0
  187.3750  177.8830  146.4230 C   0  0  0  0  0  0  0  0  0  0  0  0
  190.0910  177.3240  143.7820 C   0  0  0  0  0  0  0  0  0  0  0  0
  191.5380  177.1910  141.3770 C   0  0  0  0  0  3  0  0  0  0  0  0
  189.7990  176.3290  142.8280 C   0  0  0  0  0  0  0  0  0  0  0  0
  190.5190  176.2700  141.6310 C   0  0  0  0  0  3  0  0  0  0  0  0
  191.8390  178.1760  142.3200 C   0  0  0  0  0  3  0  0  0  0  0  0
  188.8050  175.4300  143.0400 F   0  0  0  0  0  0  0  0  0  0  0  0
  191.1210  178.2400  143.5160 C   0  0  0  0  0  3  0  0  0  0  0  0
  185.0160  178.3800  142.8250 C   0  0  0  0  0  2  0  0  0  0  0  0
  185.9600  179.1670  141.9310 C   0  0  0  0  0  2  0  0  0  0  0  0
  186.2370  178.4020  140.6470 C   0  0  2  0  0  3  0  0  0  0  0  0
  187.7240  178.4050  140.3300 C   0  0  0  0  0  1  0  0  0  0  0  0
  185.4680  178.9950  139.5130 C   0  0  0  0  0  0  0  0  0  0  0  0
  185.7680  178.6210  138.2110 O   0  0  0  0  0  0  0  0  0  0  0  0
  184.5490  179.8320  139.7260 O   0  0  0  0  0  1  0  0  0  0  0  0
  1  2  2  0  0  0  0
  1  8  1  0  0  0  0
  2 11  1  0  0  0  0
  3  4  1  0  0  0  0
  5  6  1  1  0  0  0
  7 10  1  0  0  0  0
  7  2  1  0  0  0  0
  8  3  2  0  0  0  0
  9  5  1  0  0  0  0
 10 19  1  6  0  0  0
 10  9  1  0  0  0  0
 11  5  1  0  0  0  0
 11  4  2  0  0  0  0
 12  1  1  0  0  0  0
 13 15  2  0  0  0  0
 13 16  1  0  0  0  0
 14 17  1  0  0  0  0
 14 12  2  0  0  0  0
 15 14  1  0  0  0  0
 16 18  2  0  0  0  0
 18 12  1  0  0  0  0
 20 19  1  0  0  0  0
 21 22  1  6  0  0  0
 21 20  1  0  0  0  0
 23 25  1  0  0  0  0
 23 21  1  0  0  0  0
 24 23  2  0  0  0  0
M  END
>  <MODEL>
6

>  <REMARK>
 VINA RESULT:      -9.9      1.994      4.742
  Name = 
  5 active torsions:
  status: ('A' for Active; 'I' for Inactive)
    1  A    between atoms: C_1  and  C_5
    2  A    between atoms: C_2  and  C_21
    3  A    between atoms: C_6  and  C_15
    4  A    between atoms: C_6  and  C_23
    5  A    between atoms: C_15  and  C_21
                            x       y       z     vdW  Elec       q    Type
                         _______ _______ _______ _____ _____    ______ ____

>  <TORSDO>
F 5

$$$$
=
 OpenBabel10272400403D

 25 27  0  0  1  0  0  0  0  0999 V2000
  189.4670  177.3510  144.9330 C   0  0  0  0  0  0  0  0  0  0  0  0
  188.1080  177.7400  145.0440 C   0  0  0  0  0  0  0  0  0  0  0  0
  189.5770  177.0750  147.3450 C   0  0  0  0  0  3  0  0  0  0  0  0
  188.2480  177.4750  147.4590 C   0  0  0  0  0  3  0  0  0  0  0  0
  186.0400  178.1760  146.4940 C   0  0  1  0  0  3  0  0  0  0  0  0
  185.8290  179.1970  147.6000 C   0  0  0  0  0  1  0  0  0  0  0  0
  187.3100  178.0770  143.8090 C   0  0  0  0  0  2  0  0  0  0  0  0
  190.1810  177.0170  146.0920 C   0  0  0  0  0  3  0  0  0  0  0  0
  185.3860  178.7020  145.2180 C   0  0  0  0  0  2  0  0  0  0  0  0
  185.8190  177.8710  144.0200 C   0  0  1  0  0  3  0  0  0  0  0  0
  187.5090  177.8360  146.3260 C   0  0  0  0  0  0  0  0  0  0  0  0
  190.1720  177.2870  143.6290 C   0  0  0  0  0  0  0  0  0  0  0  0
  191.4460  177.1810  141.1270 C   0  0  0  0  0  3  0  0  0  0  0  0
  191.2570  178.1390  143.3450 C   0  0  0  0  0  0  0  0  0  0  0  0
  191.8900  178.0790  142.1000 C   0  0  0  0  0  3  0  0  0  0  0  0
  190.3650  176.3390  141.3970 C   0  0  0  0  0  3  0  0  0  0  0  0
  191.7220  179.0100  144.2760 F   0  0  0  0  0  0  0  0  0  0  0  0
  189.7310  176.3930  142.6400 C   0  0  0  0  0  3  0  0  0  0  0  0
  185.0730  178.3150  142.7760 C   0  0  0  0  0  2  0  0  0  0  0  0
  186.0070  179.0640  141.8390 C   0  0  0  0  0  2  0  0  0  0  0  0
  186.1900  178.2910  140.5430 C   0  0  2  0  0  3  0  0  0  0  0  0
  187.6280  178.3870  140.0590 C   0  0  0  0  0  1  0  0  0  0  0  0
  185.2590  178.8080  139.4960 C   0  0  0  0  0  0  0  0  0  0  0  0
  185.0660  178.0790  138.3310 O   0  0  0  0  0  0  0  0  0  0  0  0
  184.6460  179.8970  139.6600 O   0  0  0  0  0  1  0  0  0  0  0  0
  1  2  2  0  0  0  0
  1  8  1  0  0  0  0
  2 11  1  0  0  0  0
  3  4  1  0  0  0  0
  5  6  1  1  0  0  0
  7 10  1  0  0  0  0
  7  2  1  0  0  0  0
  8  3  2  0  0  0  0
  9  5  1  0  0  0  0
 10 19  1  6  0  0  0
 10  9  1  0  0  0  0
 11  5  1  0  0  0  0
 11  4  2  0  0  0  0
 12  1  1  0  0  0  0
 13 16  2  0  0  0  0
 13 15  1  0  0  0  0
 14 12  1  0  0  0  0
 14 17  1  0  0  0  0
 15 14  2  0  0  0  0
 16 18  1  0  0  0  0
 18 12  2  0  0  0  0
 20 19  1  0  0  0  0
 21 22  1  6  0  0  0
 21 20  1  0  0  0  0
 23 25  1  0  0  0  0
 23 21  1  0  0  0  0
 24 23  2  0  0  0  0
M  END
>  <MODEL>
7

>  <REMARK>
 VINA RESULT:      -9.8      2.122      4.781
  Name = 
  5 active torsions:
  status: ('A' for Active; 'I' for Inactive)
    1  A    between atoms: C_1  and  C_5
    2  A    between atoms: C_2  and  C_21
    3  A    between atoms: C_6  and  C_15
    4  A    between atoms: C_6  and  C_23
    5  A    between atoms: C_15  and  C_21
                            x       y       z     vdW  Elec       q    Type
                         _______ _______ _______ _____ _____    ______ ____

>  <TORSDO>
F 5

$$$$
=
 OpenBabel10272400403D

 25 27  0  0  1  0  0  0  0  0999 V2000
  185.7430  178.4840  144.6810 C   0  0  0  0  0  0  0  0  0  0  0  0
  187.0740  178.0440  144.8980 C   0  0  0  0  0  0  0  0  0  0  0  0
  185.4620  178.7910  147.0750 C   0  0  0  0  0  3  0  0  0  0  0  0
  186.7610  178.3410  147.2940 C   0  0  0  0  0  3  0  0  0  0  0  0
  189.0070  177.5460  146.5050 C   0  0  1  0  0  3  0  0  0  0  0  0
  189.0940  176.5300  147.6320 C   0  0  0  0  0  1  0  0  0  0  0  0
  187.9490  177.6630  143.7300 C   0  0  0  0  0  2  0  0  0  0  0  0
  184.9570  178.8570  145.7790 C   0  0  0  0  0  3  0  0  0  0  0  0
  189.7340  176.9810  145.2870 C   0  0  0  0  0  2  0  0  0  0  0  0
  189.4270  177.8140  144.0530 C   0  0  1  0  0  3  0  0  0  0  0  0
  187.5700  177.9400  146.2230 C   0  0  0  0  0  0  0  0  0  0  0  0
  185.1420  178.5610  143.3270 C   0  0  0  0  0  0  0  0  0  0  0  0
  184.0430  178.6500  140.7420 C   0  0  0  0  0  3  0  0  0  0  0  0
  183.7540  178.4140  143.1370 C   0  0  0  0  0  0  0  0  0  0  0  0
  183.2120  178.4630  141.8490 C   0  0  0  0  0  3  0  0  0  0  0  0
  185.4210  178.7880  140.9210 C   0  0  0  0  0  3  0  0  0  0  0  0
  182.9190  178.2470  144.1930 F   0  0  0  0  0  0  0  0  0  0  0  0
  185.9670  178.7420  142.2050 C   0  0  0  0  0  3  0  0  0  0  0  0
  190.2470  177.3280  142.8730 C   0  0  0  0  0  2  0  0  0  0  0  0
  189.3350  176.9460  141.7180 C   0  0  0  0  0  2  0  0  0  0  0  0
  189.7740  177.6470  140.4420 C   0  0  2  0  0  3  0  0  0  0  0  0
  188.6140  177.7590  139.4650 C   0  0  0  0  0  1  0  0  0  0  0  0
  190.9100  176.9120  139.8100 C   0  0  0  0  0  0  0  0  0  0  0  0
  190.6540  175.7880  139.0370 O   0  0  0  0  0  0  0  0  0  0  0  0
  192.0980  177.3020  139.9710 O   0  0  0  0  0  1  0  0  0  0  0  0
  1  2  2  0  0  0  0
  1  8  1  0  0  0  0
  2 11  1  0  0  0  0
  3  4  1  0  0  0  0
  5  6  1  1  0  0  0
  7 10  1  0  0  0  0
  7  2  1  0  0  0  0
  8  3  2  0  0  0  0
  9  5  1  0  0  0  0
 10 19  1  6  0  0  0
 10  9  1  0  0  0  0
 11  5  1  0  0  0  0
 11  4  2  0  0  0  0
 12  1  1  0  0  0  0
 13 16  2  0  0  0  0
 13 15  1  0  0  0  0
 14 12  1  0  0  0  0
 14 17  1  0  0  0  0
 15 14  2  0  0  0  0
 16 18  1  0  0  0  0
 18 12  2  0  0  0  0
 20 19  1  0  0  0  0
 21 22  1  6  0  0  0
 21 20  1  0  0  0  0
 23 25  1  0  0  0  0
 23 21  1  0  0  0  0
 24 23  2  0  0  0  0
M  END
>  <MODEL>
8

>  <REMARK>
 VINA RESULT:      -9.8      1.742      2.675
  Name = 
  5 active torsions:
  status: ('A' for Active; 'I' for Inactive)
    1  A    between atoms: C_1  and  C_5
    2  A    between atoms: C_2  and  C_21
    3  A    between atoms: C_6  and  C_15
    4  A    between atoms: C_6  and  C_23
    5  A    between atoms: C_15  and  C_21
                            x       y       z     vdW  Elec       q    Type
                         _______ _______ _______ _____ _____    ______ ____

>  <TORSDO>
F 5

$$$$
=
 OpenBabel10272400403D

 25 27  0  0  1  0  0  0  0  0999 V2000
  188.3960  177.9830  141.9130 C   0  0  0  0  0  0  0  0  0  0  0  0
  187.0540  178.1590  142.3370 C   0  0  0  0  0  0  0  0  0  0  0  0
  187.7090  178.3540  139.6120 C   0  0  0  0  0  3  0  0  0  0  0  0
  186.3880  178.5070  140.0220 C   0  0  0  0  0  3  0  0  0  0  0  0
  184.6020  178.6540  141.7790 C   0  0  1  0  0  3  0  0  0  0  0  0
  183.6260  177.8700  140.9180 C   0  0  0  0  0  1  0  0  0  0  0  0
  186.7020  178.0760  143.8010 C   0  0  0  0  0  2  0  0  0  0  0  0
  188.7030  178.0900  140.5500 C   0  0  0  0  0  3  0  0  0  0  0  0
  184.3150  178.3390  143.2460 C   0  0  0  0  0  2  0  0  0  0  0  0
  185.4390  178.8570  144.1290 C   0  0  1  0  0  3  0  0  0  0  0  0
  186.0390  178.3870  141.3730 C   0  0  0  0  0  0  0  0  0  0  0  0
  189.4960  177.6830  142.8610 C   0  0  0  0  0  0  0  0  0  0  0  0
  191.5520  177.1580  144.7040 C   0  0  0  0  0  3  0  0  0  0  0  0
  189.7310  176.3690  143.3120 C   0  0  0  0  0  0  0  0  0  0  0  0
  190.7580  176.1130  144.2260 C   0  0  0  0  0  3  0  0  0  0  0  0
  191.3200  178.4650  144.2690 C   0  0  0  0  0  3  0  0  0  0  0  0
  188.9880  175.3310  142.8540 F   0  0  0  0  0  0  0  0  0  0  0  0
  190.2970  178.7260  143.3540 C   0  0  0  0  0  3  0  0  0  0  0  0
  185.0940  178.6540  145.5920 C   0  0  0  0  0  2  0  0  0  0  0  0
  186.0500  177.6580  146.2280 C   0  0  0  0  0  2  0  0  0  0  0  0
  186.6110  178.2160  147.5260 C   0  0  2  0  0  3  0  0  0  0  0  0
  186.3540  179.7120  147.6230 C   0  0  0  0  0  1  0  0  0  0  0  0
  188.0750  177.9390  147.6210 C   0  0  0  0  0  0  0  0  0  0  0  0
  188.7540  178.2270  148.7960 O   0  0  0  0  0  1  0  0  0  0  0  0
  188.7010  177.4440  146.6440 O   0  0  0  0  0  0  0  0  0  0  0  0
  1  2  1  0  0  0  0
  1 12  1  0  0  0  0
  2  7  1  0  0  0  0
  3  4  2  0  0  0  0
  3  8  1  0  0  0  0
  4 11  1  0  0  0  0
  5  6  1  6  0  0  0
  5  9  1  0  0  0  0
  7 10  1  0  0  0  0
  8  1  2  0  0  0  0
  9 10  1  0  0  0  0
 10 19  1  1  0  0  0
 11  5  1  0  0  0  0
 11  2  2  0  0  0  0
 12 14  2  0  0  0  0
 12 18  1  0  0  0  0
 14 15  1  0  0  0  0
 15 13  2  0  0  0  0
 16 13  1  0  0  0  0
 17 14  1  0  0  0  0
 18 16  2  0  0  0  0
 19 20  1  0  0  0  0
 20 21  1  0  0  0  0
 21 23  1  0  0  0  0
 21 22  1  6  0  0  0
 23 24  1  0  0  0  0
 25 23  2  0  0  0  0
M  END
>  <MODEL>
9

>  <REMARK>
 VINA RESULT:      -9.5      2.885      7.039
  Name = 
  5 active torsions:
  status: ('A' for Active; 'I' for Inactive)
    1  A    between atoms: C_1  and  C_5
    2  A    between atoms: C_2  and  C_21
    3  A    between atoms: C_6  and  C_15
    4  A    between atoms: C_6  and  C_23
    5  A    between atoms: C_15  and  C_21
                            x       y       z     vdW  Elec       q    Type
                         _______ _______ _______ _____ _____    ______ ____

>  <TORSDO>
F 5

$$$$
