=
 OpenBabel10272400433D

 25 28  0  0  1  0  0  0  0  0999 V2000
  187.1150  177.8480  145.4810 C   0  0  0  0  0  0  0  0  0  0  0  0
  186.2740  178.2420  144.4190 C   0  0  0  0  0  0  0  0  0  0  0  0
  185.2750  178.1900  147.0140 C   0  0  0  0  0  3  0  0  0  0  0  0
  184.4790  178.5670  145.9810 N   0  0  0  0  0  0  0  0  0  0  0  0
  184.0890  179.0080  143.6550 C   0  0  0  0  0  0  0  0  0  0  0  0
  182.4210  179.4680  143.9590 Cl  0  0  0  0  0  0  0  0  0  0  0  0
  186.7380  178.3040  143.0970 C   0  0  0  0  0  3  0  0  0  0  0  0
  186.6000  177.8230  146.7820 C   0  0  0  0  0  3  0  0  0  0  0  0
  184.5710  179.0550  142.3440 C   0  0  0  0  0  3  0  0  0  0  0  0
  185.8910  178.6980  142.0550 C   0  0  0  0  0  0  0  0  0  0  0  0
  184.9350  178.6040  144.6990 C   0  0  0  0  0  0  0  0  0  0  0  0
  188.5170  177.4270  145.2600 C   0  0  0  0  0  0  0  0  0  0  0  0
  191.1520  176.5880  144.7750 C   0  0  0  0  0  3  0  0  0  0  0  0
  189.4940  177.5250  146.2760 C   0  0  0  0  0  0  0  0  0  0  0  0
  190.8040  177.1080  146.0230 C   0  0  0  0  0  3  0  0  0  0  0  0
  190.1920  176.4890  143.7680 C   0  0  0  0  0  3  0  0  0  0  0  0
  189.1320  178.2090  147.8550 Cl  0  0  0  0  0  0  0  0  0  0  0  0
  188.8810  176.9060  144.0100 C   0  0  0  0  0  3  0  0  0  0  0  0
  186.3470  178.7910  140.6980 N   0  0  0  0  0  2  0  0  0  0  0  0
  185.6160  178.4820  139.5010 C   0  0  0  0  0  0  0  0  0  0  0  0
  186.2460  178.4050  138.4130 O   0  0  0  0  0  0  0  0  0  0  0  0
  184.1270  178.2390  139.5110 C   0  0  2  0  0  3  0  0  0  0  0  0
  184.0720  180.6100  138.9330 O   0  0  0  0  0  1  0  0  0  0  0  0
  183.5220  178.4430  138.1330 C   0  0  0  0  0  2  0  0  0  0  0  0
  183.2880  179.4860  139.2030 C   0  0  1  0  0  3  0  0  0  0  0  0
  1  8  1  0  0  0  0
  2 11  1  0  0  0  0
  2  1  2  0  0  0  0
  4  3  1  0  0  0  0
  5  6  1  0  0  0  0
  5 11  1  0  0  0  0
  7  2  1  0  0  0  0
  8  3  2  0  0  0  0
  9  5  2  0  0  0  0
 10  9  1  0  0  0  0
 10  7  2  0  0  0  0
 11  4  2  0  0  0  0
 12  1  1  0  0  0  0
 12 14  1  0  0  0  0
 13 15  1  0  0  0  0
 14 17  1  0  0  0  0
 15 14  2  0  0  0  0
 16 18  1  0  0  0  0
 16 13  2  0  0  0  0
 18 12  2  0  0  0  0
 19 10  1  0  0  0  0
 20 19  1  0  0  0  0
 21 20  2  0  0  0  0
 22 20  1  6  0  0  0
 24 25  1  0  0  0  0
 24 22  1  0  0  0  0
 25 23  1  6  0  0  0
 25 22  1  0  0  0  0
M  END
>  <MODEL>
1

>  <REMARK>
 VINA RESULT:      -9.7      0.000      0.000
  Name = 
  3 active torsions:
  status: ('A' for Active; 'I' for Inactive)
    1  A    between atoms: C_1  and  C_5
    2  A    between atoms: C_2  and  C_15
    3  A    between atoms: N_6  and  C_23
                            x       y       z     vdW  Elec       q    Type
                         _______ _______ _______ _____ _____    ______ ____

>  <TORSDO>
F 3

$$$$
=
 OpenBabel10272400433D

 25 28  0  0  1  0  0  0  0  0999 V2000
  187.9850  177.9180  144.8790 C   0  0  0  0  0  0  0  0  0  0  0  0
  186.8200  178.2780  144.1710 C   0  0  0  0  0  0  0  0  0  0  0  0
  186.6540  177.7180  146.8900 C   0  0  0  0  0  3  0  0  0  0  0  0
  185.5410  178.0670  146.1930 N   0  0  0  0  0  0  0  0  0  0  0  0
  184.4200  178.7150  144.1730 C   0  0  0  0  0  0  0  0  0  0  0  0
  182.8710  178.8150  144.9940 Cl  0  0  0  0  0  0  0  0  0  0  0  0
  186.8560  178.5910  142.8040 C   0  0  0  0  0  3  0  0  0  0  0  0
  187.8880  177.6360  146.2470 C   0  0  0  0  0  3  0  0  0  0  0  0
  184.4800  179.0140  142.8100 C   0  0  0  0  0  3  0  0  0  0  0  0
  185.6910  178.9480  142.1150 C   0  0  0  0  0  0  0  0  0  0  0  0
  185.5870  178.3480  144.8630 C   0  0  0  0  0  0  0  0  0  0  0  0
  189.3030  177.7960  144.2170 C   0  0  0  0  0  0  0  0  0  0  0  0
  191.8170  177.6460  142.9770 C   0  0  0  0  0  3  0  0  0  0  0  0
  189.6210  176.7020  143.3830 C   0  0  0  0  0  0  0  0  0  0  0  0
  190.8760  176.6340  142.7720 C   0  0  0  0  0  3  0  0  0  0  0  0
  191.5090  178.7290  143.8000 C   0  0  0  0  0  3  0  0  0  0  0  0
  188.4990  175.3740  143.1180 Cl  0  0  0  0  0  0  0  0  0  0  0  0
  190.2580  178.8040  144.4160 C   0  0  0  0  0  3  0  0  0  0  0  0
  185.7060  179.2930  140.7230 N   0  0  0  0  0  2  0  0  0  0  0  0
  184.9610  178.6840  139.6580 C   0  0  0  0  0  0  0  0  0  0  0  0
  185.2680  178.9650  138.4690 O   0  0  0  0  0  0  0  0  0  0  0  0
  183.8350  177.7150  139.9190 C   0  0  2  0  0  3  0  0  0  0  0  0
  182.4770  179.7080  139.5410 O   0  0  0  0  0  1  0  0  0  0  0  0
  182.9550  177.5430  138.6940 C   0  0  0  0  0  2  0  0  0  0  0  0
  182.4390  178.3500  139.8640 C   0  0  1  0  0  3  0  0  0  0  0  0
  1  8  1  0  0  0  0
  2 11  1  0  0  0  0
  2  1  2  0  0  0  0
  4  3  1  0  0  0  0
  5 11  1  0  0  0  0
  5  6  1  0  0  0  0
  7  2  1  0  0  0  0
  8  3  2  0  0  0  0
  9  5  2  0  0  0  0
 10  7  2  0  0  0  0
 10  9  1  0  0  0  0
 11  4  2  0  0  0  0
 12 18  1  0  0  0  0
 12  1  1  0  0  0  0
 13 16  1  0  0  0  0
 14 12  2  0  0  0  0
 15 13  2  0  0  0  0
 15 14  1  0  0  0  0
 16 18  2  0  0  0  0
 17 14  1  0  0  0  0
 19 10  1  0  0  0  0
 20 19  1  0  0  0  0
 21 20  2  0  0  0  0
 22 20  1  6  0  0  0
 24 25  1  0  0  0  0
 24 22  1  0  0  0  0
 25 23  1  6  0  0  0
 25 22  1  0  0  0  0
M  END
>  <MODEL>
2

>  <REMARK>
 VINA RESULT:      -9.7      1.641      1.904
  Name = 
  3 active torsions:
  status: ('A' for Active; 'I' for Inactive)
    1  A    between atoms: C_1  and  C_5
    2  A    between atoms: C_2  and  C_15
    3  A    between atoms: N_6  and  C_23
                            x       y       z     vdW  Elec       q    Type
                         _______ _______ _______ _____ _____    ______ ____

>  <TORSDO>
F 3

$$$$
=
 OpenBabel10272400433D

 25 28  0  0  1  0  0  0  0  0999 V2000
  187.6110  177.5480  145.8260 C   0  0  0  0  0  0  0  0  0  0  0  0
  188.9960  177.4580  145.5710 C   0  0  0  0  0  0  0  0  0  0  0  0
  187.9910  176.5960  148.0180 C   0  0  0  0  0  3  0  0  0  0  0  0
  189.3220  176.5160  147.7570 N   0  0  0  0  0  0  0  0  0  0  0  0
  191.2250  176.8240  146.3290 C   0  0  0  0  0  0  0  0  0  0  0  0
  192.3150  176.1700  147.5410 Cl  0  0  0  0  0  0  0  0  0  0  0  0
  189.5460  177.8600  144.3470 C   0  0  0  0  0  3  0  0  0  0  0  0
  187.1180  177.1130  147.0610 C   0  0  0  0  0  3  0  0  0  0  0  0
  191.7520  177.2370  145.1030 C   0  0  0  0  0  3  0  0  0  0  0  0
  190.9220  177.7640  144.1090 C   0  0  0  0  0  0  0  0  0  0  0  0
  189.8470  176.9280  146.5710 C   0  0  0  0  0  0  0  0  0  0  0  0
  186.6650  178.1170  144.8400 C   0  0  0  0  0  0  0  0  0  0  0  0
  184.9190  179.1700  142.9100 C   0  0  0  0  0  3  0  0  0  0  0  0
  185.6930  179.0740  145.2060 C   0  0  0  0  0  0  0  0  0  0  0  0
  184.8260  179.5900  144.2390 C   0  0  0  0  0  3  0  0  0  0  0  0
  185.8770  178.2250  142.5430 C   0  0  0  0  0  3  0  0  0  0  0  0
  185.4940  179.6140  146.8680 Cl  0  0  0  0  0  0  0  0  0  0  0  0
  186.7450  177.7020  143.5030 C   0  0  0  0  0  3  0  0  0  0  0  0
  191.5070  178.1480  142.8570 N   0  0  0  0  0  2  0  0  0  0  0  0
  191.3030  177.5470  141.5690 C   0  0  0  0  0  0  0  0  0  0  0  0
  192.0700  177.8700  140.6240 O   0  0  0  0  0  0  0  0  0  0  0  0
  190.2100  176.5370  141.3200 C   0  0  2  0  0  3  0  0  0  0  0  0
  188.9710  178.5370  140.6670 O   0  0  0  0  0  1  0  0  0  0  0  0
  189.8320  176.4810  139.8500 C   0  0  0  0  0  2  0  0  0  0  0  0
  188.8930  177.1520  140.8270 C   0  0  1  0  0  3  0  0  0  0  0  0
  1  8  1  0  0  0  0
  2  1  2  0  0  0  0
  2 11  1  0  0  0  0
  4  3  1  0  0  0  0
  5 11  1  0  0  0  0
  5  6  1  0  0  0  0
  7  2  1  0  0  0  0
  8  3  2  0  0  0  0
  9  5  2  0  0  0  0
 10  7  2  0  0  0  0
 10  9  1  0  0  0  0
 11  4  2  0  0  0  0
 12 14  1  0  0  0  0
 12  1  1  0  0  0  0
 13 15  1  0  0  0  0
 14 17  1  0  0  0  0
 15 14  2  0  0  0  0
 16 13  2  0  0  0  0
 16 18  1  0  0  0  0
 18 12  2  0  0  0  0
 19 10  1  0  0  0  0
 20 19  1  0  0  0  0
 21 20  2  0  0  0  0
 22 20  1  6  0  0  0
 24 25  1  0  0  0  0
 24 22  1  0  0  0  0
 25 23  1  6  0  0  0
 25 22  1  0  0  0  0
M  END
>  <MODEL>
3

>  <REMARK>
 VINA RESULT:      -9.6      2.948      5.656
  Name = 
  3 active torsions:
  status: ('A' for Active; 'I' for Inactive)
    1  A    between atoms: C_1  and  C_5
    2  A    between atoms: C_2  and  C_15
    3  A    between atoms: N_6  and  C_23
                            x       y       z     vdW  Elec       q    Type
                         _______ _______ _______ _____ _____    ______ ____

>  <TORSDO>
F 3

$$$$
=
 OpenBabel10272400433D

 25 28  0  0  1  0  0  0  0  0999 V2000
  187.0630  177.7750  144.2510 C   0  0  0  0  0  0  0  0  0  0  0  0
  187.9710  177.8400  143.1740 C   0  0  0  0  0  0  0  0  0  0  0  0
  188.8560  176.9710  145.6640 C   0  0  0  0  0  3  0  0  0  0  0  0
  189.7170  177.0380  144.6160 N   0  0  0  0  0  0  0  0  0  0  0  0
  190.2310  177.5080  142.3200 C   0  0  0  0  0  0  0  0  0  0  0  0
  191.9100  177.0410  142.5380 Cl  0  0  0  0  0  0  0  0  0  0  0  0
  187.5680  178.2510  141.8950 C   0  0  0  0  0  3  0  0  0  0  0  0
  187.5210  177.3390  145.5000 C   0  0  0  0  0  3  0  0  0  0  0  0
  189.8080  177.9280  141.0560 C   0  0  0  0  0  3  0  0  0  0  0  0
  188.4810  178.3080  140.8360 C   0  0  0  0  0  0  0  0  0  0  0  0
  189.3180  177.4580  143.3840 C   0  0  0  0  0  0  0  0  0  0  0  0
  185.6470  178.1850  144.1140 C   0  0  0  0  0  0  0  0  0  0  0  0
  182.9710  178.9590  143.7700 C   0  0  0  0  0  3  0  0  0  0  0  0
  184.9310  178.7650  145.1840 C   0  0  0  0  0  0  0  0  0  0  0  0
  183.5980  179.1440  145.0040 C   0  0  0  0  0  3  0  0  0  0  0  0
  183.6740  178.3880  142.7090 C   0  0  0  0  0  3  0  0  0  0  0  0
  185.6470  178.9850  146.7750 Cl  0  0  0  0  0  0  0  0  0  0  0  0
  185.0050  178.0040  142.8810 C   0  0  0  0  0  3  0  0  0  0  0  0
  188.0890  178.7040  139.5140 N   0  0  0  0  0  2  0  0  0  0  0  0
  188.7600  178.4240  138.2770 C   0  0  0  0  0  0  0  0  0  0  0  0
  188.3970  179.0410  137.2400 O   0  0  0  0  0  0  0  0  0  0  0  0
  189.8870  177.4260  138.1840 C   0  0  2  0  0  3  0  0  0  0  0  0
  188.0560  175.9110  137.6250 O   0  0  0  0  0  1  0  0  0  0  0  0
  190.0420  176.8920  136.7700 C   0  0  0  0  0  2  0  0  0  0  0  0
  189.4340  176.0020  137.8310 C   0  0  1  0  0  3  0  0  0  0  0  0
  1  8  1  0  0  0  0
  2 11  1  0  0  0  0
  2  1  2  0  0  0  0
  4  3  1  0  0  0  0
  5  6  1  0  0  0  0
  5 11  1  0  0  0  0
  7  2  1  0  0  0  0
  8  3  2  0  0  0  0
  9  5  2  0  0  0  0
 10  9  1  0  0  0  0
 10  7  2  0  0  0  0
 11  4  2  0  0  0  0
 12  1  1  0  0  0  0
 12 14  1  0  0  0  0
 13 15  1  0  0  0  0
 14 17  1  0  0  0  0
 15 14  2  0  0  0  0
 16 18  1  0  0  0  0
 16 13  2  0  0  0  0
 18 12  2  0  0  0  0
 19 10  1  0  0  0  0
 20 19  1  0  0  0  0
 21 20  2  0  0  0  0
 22 20  1  6  0  0  0
 24 25  1  0  0  0  0
 24 22  1  0  0  0  0
 25 23  1  6  0  0  0
 25 22  1  0  0  0  0
M  END
>  <MODEL>
4

>  <REMARK>
 VINA RESULT:      -9.5      2.980      5.286
  Name = 
  3 active torsions:
  status: ('A' for Active; 'I' for Inactive)
    1  A    between atoms: C_1  and  C_5
    2  A    between atoms: C_2  and  C_15
    3  A    between atoms: N_6  and  C_23
                            x       y       z     vdW  Elec       q    Type
                         _______ _______ _______ _____ _____    ______ ____

>  <TORSDO>
F 3

$$$$
=
 OpenBabel10272400433D

 25 28  0  0  1  0  0  0  0  0999 V2000
  188.2770  177.2760  143.8150 C   0  0  0  0  0  0  0  0  0  0  0  0
  187.9750  177.6710  142.4950 C   0  0  0  0  0  0  0  0  0  0  0  0
  190.2590  176.1620  142.9860 C   0  0  0  0  0  3  0  0  0  0  0  0
  189.9540  176.5510  141.7210 N   0  0  0  0  0  0  0  0  0  0  0  0
  188.5520  177.6660  140.1250 C   0  0  0  0  0  0  0  0  0  0  0  0
  189.6030  177.2110  138.7940 Cl  0  0  0  0  0  0  0  0  0  0  0  0
  186.8250  178.4140  142.1940 C   0  0  0  0  0  3  0  0  0  0  0  0
  189.4310  176.5190  144.0500 C   0  0  0  0  0  3  0  0  0  0  0  0
  187.4030  178.4120  139.8510 C   0  0  0  0  0  3  0  0  0  0  0  0
  186.5380  178.7970  140.8790 C   0  0  0  0  0  0  0  0  0  0  0  0
  188.8440  177.2890  141.4450 C   0  0  0  0  0  0  0  0  0  0  0  0
  187.4310  177.6630  144.9660 C   0  0  0  0  0  0  0  0  0  0  0  0
  185.7700  178.4270  147.0960 C   0  0  0  0  0  3  0  0  0  0  0  0
  187.9420  177.7220  146.2810 C   0  0  0  0  0  0  0  0  0  0  0  0
  187.1070  178.1010  147.3350 C   0  0  0  0  0  3  0  0  0  0  0  0
  185.2600  178.3710  145.7990 C   0  0  0  0  0  3  0  0  0  0  0  0
  189.6030  177.2820  146.6570 Cl  0  0  0  0  0  0  0  0  0  0  0  0
  186.0870  177.9910  144.7400 C   0  0  0  0  0  3  0  0  0  0  0  0
  185.3560  179.5380  140.5420 N   0  0  0  0  0  2  0  0  0  0  0  0
  184.4240  179.2740  139.4830 C   0  0  0  0  0  0  0  0  0  0  0  0
  183.5730  180.1570  139.1950 O   0  0  0  0  0  0  0  0  0  0  0  0
  184.4420  177.9840  138.7030 C   0  0  2  0  0  3  0  0  0  0  0  0
  182.6990  177.3810  140.3040 O   0  0  0  0  0  1  0  0  0  0  0  0
  183.1190  177.7450  137.9950 C   0  0  0  0  0  2  0  0  0  0  0  0
  183.4570  176.9270  139.2210 C   0  0  1  0  0  3  0  0  0  0  0  0
  1  8  1  0  0  0  0
  1 12  1  0  0  0  0
  2  1  2  0  0  0  0
  3  8  2  0  0  0  0
  4  3  1  0  0  0  0
  5 11  1  0  0  0  0
  6  5  1  0  0  0  0
  7  2  1  0  0  0  0
  9  5  2  0  0  0  0
  9 10  1  0  0  0  0
 10  7  2  0  0  0  0
 11  4  2  0  0  0  0
 11  2  1  0  0  0  0
 12 14  1  0  0  0  0
 13 15  1  0  0  0  0
 14 17  1  0  0  0  0
 14 15  2  0  0  0  0
 16 13  2  0  0  0  0
 18 12  2  0  0  0  0
 18 16  1  0  0  0  0
 19 10  1  0  0  0  0
 20 19  1  0  0  0  0
 21 20  2  0  0  0  0
 22 25  1  0  0  0  0
 22 20  1  1  0  0  0
 24 22  1  0  0  0  0
 24 25  1  0  0  0  0
 25 23  1  1  0  0  0
M  END
>  <MODEL>
5

>  <REMARK>
 VINA RESULT:      -9.4      2.504      4.133
  Name = 
  3 active torsions:
  status: ('A' for Active; 'I' for Inactive)
    1  A    between atoms: C_1  and  C_5
    2  A    between atoms: C_2  and  C_15
    3  A    between atoms: N_6  and  C_23
                            x       y       z     vdW  Elec       q    Type
                         _______ _______ _______ _____ _____    ______ ____

>  <TORSDO>
F 3

$$$$
=
 OpenBabel10272400433D

 25 28  0  0  1  0  0  0  0  0999 V2000
  187.9170  177.9790  144.6740 C   0  0  0  0  0  0  0  0  0  0  0  0
  186.8240  178.1860  143.8060 C   0  0  0  0  0  0  0  0  0  0  0  0
  186.3900  178.0490  146.5500 C   0  0  0  0  0  3  0  0  0  0  0  0
  185.3490  178.2470  145.7010 N   0  0  0  0  0  0  0  0  0  0  0  0
  184.4290  178.5350  143.5040 C   0  0  0  0  0  0  0  0  0  0  0  0
  182.8020  178.7090  144.1420 Cl  0  0  0  0  0  0  0  0  0  0  0  0
  186.9950  178.2830  142.4180 C   0  0  0  0  0  3  0  0  0  0  0  0
  187.6850  177.9100  146.0530 C   0  0  0  0  0  3  0  0  0  0  0  0
  184.6230  178.6220  142.1230 C   0  0  0  0  0  3  0  0  0  0  0  0
  185.9000  178.4900  141.5700 C   0  0  0  0  0  0  0  0  0  0  0  0
  185.5250  178.3200  144.3540 C   0  0  0  0  0  0  0  0  0  0  0  0
  189.2980  177.8010  144.1730 C   0  0  0  0  0  0  0  0  0  0  0  0
  191.9310  177.5450  143.2320 C   0  0  0  0  0  3  0  0  0  0  0  0
  189.6900  176.6450  143.4640 C   0  0  0  0  0  0  0  0  0  0  0  0
  191.0040  176.5260  143.0020 C   0  0  0  0  0  3  0  0  0  0  0  0
  191.5480  178.6900  143.9320 C   0  0  0  0  0  3  0  0  0  0  0  0
  188.5870  175.3060  143.1780 Cl  0  0  0  0  0  0  0  0  0  0  0  0
  190.2380  178.8170  144.3990 C   0  0  0  0  0  3  0  0  0  0  0  0
  186.0510  178.6150  140.1490 N   0  0  0  0  0  2  0  0  0  0  0  0
  187.2530  178.4750  139.3770 C   0  0  0  0  0  0  0  0  0  0  0  0
  187.2410  178.8410  138.1710 O   0  0  0  0  0  0  0  0  0  0  0  0
  188.5250  177.9170  139.9660 C   0  0  2  0  0  3  0  0  0  0  0  0
  188.2870  176.3310  138.1240 O   0  0  0  0  0  1  0  0  0  0  0  0
  189.6860  178.0400  138.9950 C   0  0  0  0  0  2  0  0  0  0  0  0
  189.0640  176.6820  139.2310 C   0  0  1  0  0  3  0  0  0  0  0  0
  1  8  1  0  0  0  0
  2 11  1  0  0  0  0
  2  1  2  0  0  0  0
  4  3  1  0  0  0  0
  5  6  1  0  0  0  0
  5 11  1  0  0  0  0
  7  2  1  0  0  0  0
  8  3  2  0  0  0  0
  9  5  2  0  0  0  0
 10  9  1  0  0  0  0
 10  7  2  0  0  0  0
 11  4  2  0  0  0  0
 12 18  1  0  0  0  0
 12  1  1  0  0  0  0
 13 16  1  0  0  0  0
 14 12  2  0  0  0  0
 15 13  2  0  0  0  0
 15 14  1  0  0  0  0
 16 18  2  0  0  0  0
 17 14  1  0  0  0  0
 19 10  1  0  0  0  0
 20 19  1  0  0  0  0
 21 20  2  0  0  0  0
 22 20  1  6  0  0  0
 24 25  1  0  0  0  0
 24 22  1  0  0  0  0
 25 23  1  6  0  0  0
 25 22  1  0  0  0  0
M  END
>  <MODEL>
6

>  <REMARK>
 VINA RESULT:      -9.3      2.080      2.944
  Name = 
  3 active torsions:
  status: ('A' for Active; 'I' for Inactive)
    1  A    between atoms: C_1  and  C_5
    2  A    between atoms: C_2  and  C_15
    3  A    between atoms: N_6  and  C_23
                            x       y       z     vdW  Elec       q    Type
                         _______ _______ _______ _____ _____    ______ ____

>  <TORSDO>
F 3

$$$$
=
 OpenBabel10272400433D

 25 28  0  0  1  0  0  0  0  0999 V2000
  188.0030  177.3210  143.7790 C   0  0  0  0  0  0  0  0  0  0  0  0
  187.8620  177.6790  142.4210 C   0  0  0  0  0  0  0  0  0  0  0  0
  190.0290  176.1240  143.2120 C   0  0  0  0  0  3  0  0  0  0  0  0
  189.8780  176.4770  141.9090 N   0  0  0  0  0  0  0  0  0  0  0  0
  188.6980  177.5760  140.1330 C   0  0  0  0  0  0  0  0  0  0  0  0
  189.8750  177.0460  138.9420 Cl  0  0  0  0  0  0  0  0  0  0  0  0
  186.7760  178.4420  141.9710 C   0  0  0  0  0  3  0  0  0  0  0  0
  189.0990  176.5400  144.1650 C   0  0  0  0  0  3  0  0  0  0  0  0
  187.6110  178.3440  139.7080 C   0  0  0  0  0  3  0  0  0  0  0  0
  186.6500  178.7880  140.6200 C   0  0  0  0  0  0  0  0  0  0  0  0
  188.8300  177.2360  141.4880 C   0  0  0  0  0  0  0  0  0  0  0  0
  187.0470  177.7710  144.8150 C   0  0  0  0  0  0  0  0  0  0  0  0
  185.1810  178.6470  146.7210 C   0  0  0  0  0  3  0  0  0  0  0  0
  187.4440  177.9820  146.1540 C   0  0  0  0  0  0  0  0  0  0  0  0
  186.5070  178.4160  147.0960 C   0  0  0  0  0  3  0  0  0  0  0  0
  184.7840  178.4400  145.4000 C   0  0  0  0  0  3  0  0  0  0  0  0
  189.0850  177.6680  146.7020 Cl  0  0  0  0  0  0  0  0  0  0  0  0
  185.7130  178.0050  144.4520 C   0  0  0  0  0  3  0  0  0  0  0  0
  185.5370  179.5500  140.1310 N   0  0  0  0  0  2  0  0  0  0  0  0
  184.2150  179.0810  139.8280 C   0  0  0  0  0  0  0  0  0  0  0  0
  183.4350  179.8420  139.1960 O   0  0  0  0  0  0  0  0  0  0  0  0
  183.7390  177.7080  140.2330 C   0  0  2  0  0  3  0  0  0  0  0  0
  182.9720  178.9220  142.2080 O   0  0  0  0  0  1  0  0  0  0  0  0
  182.2250  177.6560  140.3430 C   0  0  0  0  0  2  0  0  0  0  0  0
  183.0560  177.6640  141.6060 C   0  0  1  0  0  3  0  0  0  0  0  0
  1  8  1  0  0  0  0
  1 12  1  0  0  0  0
  2  1  2  0  0  0  0
  3  8  2  0  0  0  0
  4  3  1  0  0  0  0
  5 11  1  0  0  0  0
  6  5  1  0  0  0  0
  7  2  1  0  0  0  0
  9  5  2  0  0  0  0
  9 10  1  0  0  0  0
 10  7  2  0  0  0  0
 11  4  2  0  0  0  0
 11  2  1  0  0  0  0
 12 14  1  0  0  0  0
 13 15  1  0  0  0  0
 14 17  1  0  0  0  0
 14 15  2  0  0  0  0
 16 13  2  0  0  0  0
 18 12  2  0  0  0  0
 18 16  1  0  0  0  0
 19 10  1  0  0  0  0
 20 19  1  0  0  0  0
 21 20  2  0  0  0  0
 22 20  1  1  0  0  0
 22 24  1  0  0  0  0
 22 25  1  0  0  0  0
 24 25  1  0  0  0  0
 25 23  1  1  0  0  0
M  END
>  <MODEL>
7

>  <REMARK>
 VINA RESULT:      -9.3      2.545      4.264
  Name = 
  3 active torsions:
  status: ('A' for Active; 'I' for Inactive)
    1  A    between atoms: C_1  and  C_5
    2  A    between atoms: C_2  and  C_15
    3  A    between atoms: N_6  and  C_23
                            x       y       z     vdW  Elec       q    Type
                         _______ _______ _______ _____ _____    ______ ____

>  <TORSDO>
F 3

$$$$
=
 OpenBabel10272400433D

 25 28  0  0  1  0  0  0  0  0999 V2000
  188.1140  177.5500  145.1120 C   0  0  0  0  0  0  0  0  0  0  0  0
  187.9010  177.8270  143.7450 C   0  0  0  0  0  0  0  0  0  0  0  0
  185.7830  178.0450  145.5350 C   0  0  0  0  0  3  0  0  0  0  0  0
  185.5950  178.3080  144.2160 N   0  0  0  0  0  0  0  0  0  0  0  0
  186.3840  178.5000  141.9590 C   0  0  0  0  0  0  0  0  0  0  0  0
  184.7970  178.9830  141.3820 Cl  0  0  0  0  0  0  0  0  0  0  0  0
  188.9410  177.7520  142.8090 C   0  0  0  0  0  3  0  0  0  0  0  0
  187.0400  177.6610  146.0030 C   0  0  0  0  0  3  0  0  0  0  0  0
  187.4350  178.4110  141.0420 C   0  0  0  0  0  3  0  0  0  0  0  0
  188.7150  178.0310  141.4560 C   0  0  0  0  0  0  0  0  0  0  0  0
  186.6090  178.2120  143.3140 C   0  0  0  0  0  0  0  0  0  0  0  0
  189.4290  177.1140  145.6320 C   0  0  0  0  0  0  0  0  0  0  0  0
  191.9370  176.2440  146.5480 C   0  0  0  0  0  3  0  0  0  0  0  0
  189.7700  177.2380  146.9970 C   0  0  0  0  0  0  0  0  0  0  0  0
  191.0220  176.8040  147.4430 C   0  0  0  0  0  3  0  0  0  0  0  0
  191.6050  176.1200  145.1990 C   0  0  0  0  0  3  0  0  0  0  0  0
  188.6830  177.9730  148.1670 Cl  0  0  0  0  0  0  0  0  0  0  0  0
  190.3580  176.5520  144.7440 C   0  0  0  0  0  3  0  0  0  0  0  0
  189.7670  177.9820  140.4820 N   0  0  0  0  0  2  0  0  0  0  0  0
  189.7170  177.4250  139.1600 C   0  0  0  0  0  0  0  0  0  0  0  0
  190.7960  177.2670  138.5310 O   0  0  0  0  0  0  0  0  0  0  0  0
  188.4180  177.0140  138.5120 C   0  0  2  0  0  3  0  0  0  0  0  0
  188.6100  179.2280  137.4990 O   0  0  0  0  0  1  0  0  0  0  0  0
  188.5610  176.9060  137.0040 C   0  0  0  0  0  2  0  0  0  0  0  0
  187.8150  178.0830  137.5910 C   0  0  1  0  0  3  0  0  0  0  0  0
  1 12  1  0  0  0  0
  1  8  1  0  0  0  0
  2  1  2  0  0  0  0
  3  8  2  0  0  0  0
  4  3  1  0  0  0  0
  5 11  1  0  0  0  0
  6  5  1  0  0  0  0
  7  2  1  0  0  0  0
  9 10  1  0  0  0  0
  9  5  2  0  0  0  0
 10  7  2  0  0  0  0
 11  2  1  0  0  0  0
 11  4  2  0  0  0  0
 12 14  1  0  0  0  0
 13 15  1  0  0  0  0
 14 15  2  0  0  0  0
 14 17  1  0  0  0  0
 16 13  2  0  0  0  0
 18 16  1  0  0  0  0
 18 12  2  0  0  0  0
 19 10  1  0  0  0  0
 20 19  1  0  0  0  0
 21 20  2  0  0  0  0
 22 20  1  1  0  0  0
 24 25  1  0  0  0  0
 24 22  1  0  0  0  0
 25 23  1  1  0  0  0
 25 22  1  0  0  0  0
M  END
>  <MODEL>
8

>  <REMARK>
 VINA RESULT:      -9.3      2.361      3.030
  Name = 
  3 active torsions:
  status: ('A' for Active; 'I' for Inactive)
    1  A    between atoms: C_1  and  C_5
    2  A    between atoms: C_2  and  C_15
    3  A    between atoms: N_6  and  C_23
                            x       y       z     vdW  Elec       q    Type
                         _______ _______ _______ _____ _____    ______ ____

>  <TORSDO>
F 3

$$$$
=
 OpenBabel10272400433D

 25 28  0  0  1  0  0  0  0  0999 V2000
  185.6120  178.2460  144.1640 C   0  0  0  0  0  0  0  0  0  0  0  0
  185.6680  178.4500  142.7700 C   0  0  0  0  0  0  0  0  0  0  0  0
  183.2270  178.6500  144.0870 C   0  0  0  0  0  3  0  0  0  0  0  0
  183.2990  178.8430  142.7450 N   0  0  0  0  0  0  0  0  0  0  0  0
  184.5180  178.9670  140.6820 C   0  0  0  0  0  0  0  0  0  0  0  0
  183.0630  179.3480  139.7760 Cl  0  0  0  0  0  0  0  0  0  0  0  0
  186.8780  178.3800  142.0640 C   0  0  0  0  0  3  0  0  0  0  0  0
  184.3770  178.3480  144.8160 C   0  0  0  0  0  3  0  0  0  0  0  0
  185.7340  178.8860  140.0000 C   0  0  0  0  0  3  0  0  0  0  0  0
  186.9180  178.5860  140.6800 C   0  0  0  0  0  0  0  0  0  0  0  0
  184.4760  178.7530  142.0690 C   0  0  0  0  0  0  0  0  0  0  0  0
  186.8110  177.8970  144.9590 C   0  0  0  0  0  0  0  0  0  0  0  0
  189.1070  177.1800  146.4060 C   0  0  0  0  0  3  0  0  0  0  0  0
  186.9310  178.2470  146.3210 C   0  0  0  0  0  0  0  0  0  0  0  0
  188.0790  177.8890  147.0330 C   0  0  0  0  0  3  0  0  0  0  0  0
  188.9940  176.8320  145.0600 C   0  0  0  0  0  3  0  0  0  0  0  0
  185.6940  179.1760  147.1590 Cl  0  0  0  0  0  0  0  0  0  0  0  0
  187.8510  177.1880  144.3410 C   0  0  0  0  0  3  0  0  0  0  0  0
  188.1450  178.5410  139.9390 N   0  0  0  0  0  2  0  0  0  0  0  0
  188.4160  177.8200  138.7280 C   0  0  0  0  0  0  0  0  0  0  0  0
  189.6110  177.7150  138.3430 O   0  0  0  0  0  0  0  0  0  0  0  0
  187.3200  177.1770  137.9150 C   0  0  2  0  0  3  0  0  0  0  0  0
  187.4020  179.3130  136.7340 O   0  0  0  0  0  1  0  0  0  0  0  0
  187.7450  176.9780  136.4700 C   0  0  0  0  0  2  0  0  0  0  0  0
  186.7590  178.0750  136.8040 C   0  0  1  0  0  3  0  0  0  0  0  0
  1  8  1  0  0  0  0
  1 12  1  0  0  0  0
  2  1  2  0  0  0  0
  3  8  2  0  0  0  0
  4  3  1  0  0  0  0
  5 11  1  0  0  0  0
  6  5  1  0  0  0  0
  7  2  1  0  0  0  0
  9 10  1  0  0  0  0
  9  5  2  0  0  0  0
 10  7  2  0  0  0  0
 11  4  2  0  0  0  0
 11  2  1  0  0  0  0
 12 14  1  0  0  0  0
 13 15  1  0  0  0  0
 14 15  2  0  0  0  0
 14 17  1  0  0  0  0
 16 13  2  0  0  0  0
 18 12  2  0  0  0  0
 18 16  1  0  0  0  0
 19 10  1  0  0  0  0
 20 19  1  0  0  0  0
 21 20  2  0  0  0  0
 22 20  1  1  0  0  0
 24 25  1  0  0  0  0
 24 22  1  0  0  0  0
 25 23  1  1  0  0  0
 25 22  1  0  0  0  0
M  END
>  <MODEL>
9

>  <REMARK>
 VINA RESULT:      -9.2      2.182      3.027
  Name = 
  3 active torsions:
  status: ('A' for Active; 'I' for Inactive)
    1  A    between atoms: C_1  and  C_5
    2  A    between atoms: C_2  and  C_15
    3  A    between atoms: N_6  and  C_23
                            x       y       z     vdW  Elec       q    Type
                         _______ _______ _______ _____ _____    ______ ____

>  <TORSDO>
F 3

$$$$
