=
 OpenBabel10272413543D

 30 34  0  0  1  0  0  0  0  0999 V2000
  183.1130  177.0470  140.2190 C   0  0  0  0  0  2  0  0  0  0  0  0
  181.7830  177.6120  138.1490 C   0  0  0  0  0  0  0  0  0  0  0  0
  183.8150  177.7640  141.2900 N   0  0  2  0  0  0  0  0  0  0  0  0
  180.8590  178.4110  137.4700 C   0  0  0  0  0  3  0  0  0  0  0  0
  182.3980  176.4620  137.4250 C   0  0  0  0  0  1  0  0  0  0  0  0
  181.8860  179.3800  141.5470 C   0  0  1  0  0  3  0  0  0  0  0  0
  180.2700  179.5020  138.1080 C   0  0  0  0  0  3  0  0  0  0  0  0
  182.1220  177.9070  139.4840 C   0  0  0  0  0  0  0  0  0  0  0  0
  182.8640  178.4010  142.2180 C   0  0  2  0  0  3  0  0  0  0  0  0
  183.5660  179.0290  143.4150 C   0  0  0  0  0  1  0  0  0  0  0  0
  180.5950  179.7940  139.4330 C   0  0  0  0  0  3  0  0  0  0  0  0
  181.5010  178.9920  140.1390 C   0  0  0  0  0  0  0  0  0  0  0  0
  184.9020  178.6230  140.7700 C   0  0  1  0  0  0  0  0  0  0  0  0
  185.2440  179.6550  141.6630 O   0  0  0  0  0  0  0  0  0  0  0  0
  186.1860  178.6110  141.5220 C   0  0  1  0  0  3  0  0  0  0  0  0
  184.4630  180.0760  138.9610 O   0  0  0  0  0  0  0  0  0  0  0  0
  184.9790  179.0290  139.3230 C   0  0  0  0  0  0  0  0  0  0  0  0
  185.6310  178.1240  138.3170 C   0  0  1  0  0  3  0  0  0  0  0  0
  184.8950  178.1330  137.1280 O   0  0  0  0  0  0  0  0  0  0  0  0
  185.6070  177.3050  136.2580 C   0  0  0  0  0  1  0  0  0  0  0  0
  187.0620  178.5650  138.0450 C   0  0  0  0  0  2  0  0  0  0  0  0
  188.0410  177.5890  138.6650 C   0  0  0  0  0  1  0  0  0  0  0  0
  186.1250  177.7800  142.6440 O   0  0  0  0  0  0  0  0  0  0  0  0
  187.4050  177.8370  143.1970 C   0  0  2  0  0  3  0  0  0  0  0  0
  188.3670  177.0430  142.3330 C   0  0  2  0  0  3  0  0  0  0  0  0
  187.8400  176.4430  143.6080 C   0  0  1  0  0  3  0  0  0  0  0  0
  189.3020  176.2720  143.2440 C   0  0  0  0  0  2  0  0  0  0  0  0
  180.6620  179.6330  142.4340 C   0  0  0  0  0  2  0  0  0  0  0  0
  180.0880  178.3410  142.9990 C   0  0  0  0  0  2  0  0  0  0  0  0
  180.1470  178.3770  144.3910 O   0  0  0  0  0  1  0  0  0  0  0  0
  2  8  1  0  0  0  0
  3  1  1  6  0  0  0
  3  9  1  0  0  0  0
  4  7  1  0  0  0  0
  4  2  2  0  0  0  0
  5  2  1  0  0  0  0
  6  9  1  0  0  0  0
  6 28  1  1  0  0  0
  7 11  2  0  0  0  0
  8 12  2  0  0  0  0
  8  1  1  0  0  0  0
  9 10  1  1  0  0  0
 11 12  1  0  0  0  0
 12  6  1  0  0  0  0
 13 17  1  6  0  0  0
 13  3  1  0  0  0  0
 13 15  1  0  0  0  0
 13 14  1  0  0  0  0
 15 14  1  0  0  0  0
 15 23  1  1  0  0  0
 16 17  2  0  0  0  0
 18 21  1  6  0  0  0
 18 17  1  0  0  0  0
 19 18  1  0  0  0  0
 20 19  1  0  0  0  0
 21 22  1  0  0  0  0
 24 23  1  6  0  0  0
 24 26  1  0  0  0  0
 25 24  1  0  0  0  0
 25 27  1  1  0  0  0
 25 26  1  0  0  0  0
 26 27  1  1  0  0  0
 28 29  1  0  0  0  0
 29 30  1  0  0  0  0
M  END
>  <MODEL>
1

>  <REMARK>
 VINA RESULT:      -5.5      0.000      0.000
  Name = 
  9 active torsions:
  status: ('A' for Active; 'I' for Inactive)
    1  A    between atoms: C_3  and  C_11
    2  A    between atoms: C_3  and  C_19
    3  A    between atoms: N_4  and  C_13
    4  A    between atoms: O_5  and  C_12
    5  A    between atoms: C_7  and  O_16
    6  A    between atoms: C_8  and  C_12
    7  A    between atoms: C_8  and  C_13
    8  A    between atoms: C_9  and  C_12
    9  A    between atoms: O_16  and  C_30
                            x       y       z     vdW  Elec       q    Type
                         _______ _______ _______ _____ _____    ______ ____

>  <TORSDO>
F 9

$$$$
=
 OpenBabel10272413543D

 30 34  0  0  1  0  0  0  0  0999 V2000
  180.7640  177.6310  140.2760 C   0  0  0  0  0  2  0  0  0  0  0  0
  180.1990  175.4620  139.1130 C   0  0  0  0  0  0  0  0  0  0  0  0
  181.6700  178.7680  140.0770 N   0  0  2  0  0  0  0  0  0  0  0  0
  179.9930  174.7180  137.9480 C   0  0  0  0  0  3  0  0  0  0  0  0
  180.0600  174.7780  140.4310 C   0  0  0  0  0  1  0  0  0  0  0  0
  181.0770  178.8810  137.6200 C   0  0  1  0  0  3  0  0  0  0  0  0
  180.1240  175.3180  136.6970 C   0  0  0  0  0  3  0  0  0  0  0  0
  180.5440  176.8260  139.0250 C   0  0  0  0  0  0  0  0  0  0  0  0
  181.2210  179.6200  138.9610 C   0  0  2  0  0  3  0  0  0  0  0  0
  182.0630  180.8810  138.8280 C   0  0  0  0  0  1  0  0  0  0  0  0
  180.4560  176.6700  136.6030 C   0  0  0  0  0  3  0  0  0  0  0  0
  180.6450  177.4400  137.7580 C   0  0  0  0  0  0  0  0  0  0  0  0
  183.0910  178.3560  140.0560 C   0  0  1  0  0  0  0  0  0  0  0  0
  183.9560  179.3870  140.4660 O   0  0  0  0  0  0  0  0  0  0  0  0
  183.7970  178.3090  141.3660 C   0  0  1  0  0  3  0  0  0  0  0  0
  183.5190  176.2800  139.0140 O   0  0  0  0  0  0  0  0  0  0  0  0
  183.6590  177.4930  138.9610 C   0  0  0  0  0  0  0  0  0  0  0  0
  184.4490  178.1110  137.8440 C   0  0  1  0  0  3  0  0  0  0  0  0
  185.6680  178.5900  138.3360 O   0  0  0  0  0  0  0  0  0  0  0  0
  186.6370  178.0390  137.4950 C   0  0  0  0  0  1  0  0  0  0  0  0
  184.7000  177.0960  136.7380 C   0  0  0  0  0  2  0  0  0  0  0  0
  183.7110  177.2940  135.6070 C   0  0  0  0  0  1  0  0  0  0  0  0
  182.9670  178.7070  142.4190 O   0  0  0  0  0  0  0  0  0  0  0  0
  183.8140  179.3780  143.3010 C   0  0  2  0  0  3  0  0  0  0  0  0
  184.6830  178.3740  144.0350 C   0  0  2  0  0  3  0  0  0  0  0  0
  183.4860  178.9700  144.7250 C   0  0  1  0  0  3  0  0  0  0  0  0
  184.7860  178.8020  145.4860 C   0  0  0  0  0  2  0  0  0  0  0  0
  180.1820  179.6640  136.6520 C   0  0  0  0  0  2  0  0  0  0  0  0
  180.9360  180.1110  135.4090 C   0  0  0  0  0  2  0  0  0  0  0  0
  180.8320  181.4950  135.2770 O   0  0  0  0  0  1  0  0  0  0  0  0
  2  5  1  0  0  0  0
  3  1  1  6  0  0  0
  4  2  2  0  0  0  0
  6 28  1  6  0  0  0
  6 12  1  0  0  0  0
  6  9  1  0  0  0  0
  7  4  1  0  0  0  0
  8  2  1  0  0  0  0
  8  1  1  0  0  0  0
  9 10  1  6  0  0  0
  9  3  1  0  0  0  0
 11  7  2  0  0  0  0
 11 12  1  0  0  0  0
 12  8  2  0  0  0  0
 13 17  1  6  0  0  0
 13  3  1  0  0  0  0
 13 14  1  0  0  0  0
 13 15  1  0  0  0  0
 14 15  1  0  0  0  0
 15 23  1  1  0  0  0
 17 16  2  0  0  0  0
 18 21  1  6  0  0  0
 18 19  1  0  0  0  0
 18 17  1  0  0  0  0
 20 19  1  0  0  0  0
 22 21  1  0  0  0  0
 24 23  1  6  0  0  0
 24 25  1  0  0  0  0
 24 26  1  0  0  0  0
 25 26  1  0  0  0  0
 25 27  1  1  0  0  0
 26 27  1  1  0  0  0
 29 28  1  0  0  0  0
 30 29  1  0  0  0  0
M  END
>  <MODEL>
2

>  <REMARK>
 VINA RESULT:      -5.5      2.306      4.199
  Name = 
  9 active torsions:
  status: ('A' for Active; 'I' for Inactive)
    1  A    between atoms: C_3  and  C_11
    2  A    between atoms: C_3  and  C_19
    3  A    between atoms: N_4  and  C_13
    4  A    between atoms: O_5  and  C_12
    5  A    between atoms: C_7  and  O_16
    6  A    between atoms: C_8  and  C_12
    7  A    between atoms: C_8  and  C_13
    8  A    between atoms: C_9  and  C_12
    9  A    between atoms: O_16  and  C_30
                            x       y       z     vdW  Elec       q    Type
                         _______ _______ _______ _____ _____    ______ ____

>  <TORSDO>
F 9

$$$$
=
 OpenBabel10272413543D

 30 34  0  0  1  0  0  0  0  0999 V2000
  184.0700  179.0540  139.0150 C   0  0  0  0  0  2  0  0  0  0  0  0
  184.2030  178.8200  141.5250 C   0  0  0  0  0  0  0  0  0  0  0  0
  183.2270  178.5600  137.9200 N   0  0  2  0  0  0  0  0  0  0  0  0
  183.5910  178.7130  142.7770 C   0  0  0  0  0  3  0  0  0  0  0  0
  185.6920  178.7970  141.4560 C   0  0  0  0  0  1  0  0  0  0  0  0
  181.1270  179.0300  139.2490 C   0  0  1  0  0  3  0  0  0  0  0  0
  182.2000  178.7190  142.8830 C   0  0  0  0  0  3  0  0  0  0  0  0
  183.4140  178.9350  140.3630 C   0  0  0  0  0  0  0  0  0  0  0  0
  181.9020  179.2050  137.9320 C   0  0  2  0  0  3  0  0  0  0  0  0
  181.0640  178.8140  136.7230 C   0  0  0  0  0  1  0  0  0  0  0  0
  181.4140  178.8430  141.7370 C   0  0  0  0  0  3  0  0  0  0  0  0
  182.0080  178.9750  140.4750 C   0  0  0  0  0  0  0  0  0  0  0  0
  183.2380  177.0830  137.8270 C   0  0  1  0  0  0  0  0  0  0  0  0
  183.2040  176.6280  136.4960 O   0  0  0  0  0  0  0  0  0  0  0  0
  184.4260  176.4580  137.1840 C   0  0  1  0  0  3  0  0  0  0  0  0
  182.9400  175.9370  139.8710 O   0  0  0  0  0  0  0  0  0  0  0  0
  182.4610  176.2150  138.7810 C   0  0  0  0  0  0  0  0  0  0  0  0
  181.1350  175.6410  138.3730 C   0  0  1  0  0  3  0  0  0  0  0  0
  181.3010  174.3140  137.9640 O   0  0  0  0  0  0  0  0  0  0  0  0
  180.8230  174.2790  136.6520 C   0  0  0  0  0  1  0  0  0  0  0  0
  180.1430  175.7080  139.5250 C   0  0  0  0  0  2  0  0  0  0  0  0
  179.9820  174.3420  140.1610 C   0  0  0  0  0  1  0  0  0  0  0  0
  185.3420  177.4160  136.7400 O   0  0  0  0  0  0  0  0  0  0  0  0
  186.5930  176.8710  137.0330 C   0  0  2  0  0  3  0  0  0  0  0  0
  187.2640  177.6940  138.1150 C   0  0  2  0  0  3  0  0  0  0  0  0
  187.6750  177.8740  136.6800 C   0  0  1  0  0  3  0  0  0  0  0  0
  188.7320  177.8380  137.7650 C   0  0  0  0  0  2  0  0  0  0  0  0
  180.0180  180.0800  139.3800 C   0  0  0  0  0  2  0  0  0  0  0  0
  180.5520  181.4980  139.2400 C   0  0  0  0  0  2  0  0  0  0  0  0
  179.9820  182.1000  138.1190 O   0  0  0  0  0  1  0  0  0  0  0  0
  1  8  1  0  0  0  0
  2  4  1  0  0  0  0
  3  9  1  0  0  0  0
  3  1  1  1  0  0  0
  4  7  2  0  0  0  0
  5  2  1  0  0  0  0
  6 28  1  1  0  0  0
  6 12  1  0  0  0  0
  8 12  1  0  0  0  0
  8  2  2  0  0  0  0
  9 10  1  6  0  0  0
  9  6  1  0  0  0  0
 11  7  1  0  0  0  0
 12 11  2  0  0  0  0
 13  3  1  0  0  0  0
 13 17  1  1  0  0  0
 14 15  1  0  0  0  0
 14 13  1  0  0  0  0
 15 23  1  6  0  0  0
 15 13  1  0  0  0  0
 17 16  2  0  0  0  0
 18 17  1  0  0  0  0
 18 21  1  1  0  0  0
 19 18  1  0  0  0  0
 20 19  1  0  0  0  0
 21 22  1  0  0  0  0
 24 23  1  6  0  0  0
 24 25  1  0  0  0  0
 25 27  1  1  0  0  0
 26 24  1  0  0  0  0
 26 27  1  1  0  0  0
 26 25  1  0  0  0  0
 29 28  1  0  0  0  0
 30 29  1  0  0  0  0
M  END
>  <MODEL>
3

>  <REMARK>
 VINA RESULT:      -5.4      2.501      5.239
  Name = 
  9 active torsions:
  status: ('A' for Active; 'I' for Inactive)
    1  A    between atoms: C_3  and  C_11
    2  A    between atoms: C_3  and  C_19
    3  A    between atoms: N_4  and  C_13
    4  A    between atoms: O_5  and  C_12
    5  A    between atoms: C_7  and  O_16
    6  A    between atoms: C_8  and  C_12
    7  A    between atoms: C_8  and  C_13
    8  A    between atoms: C_9  and  C_12
    9  A    between atoms: O_16  and  C_30
                            x       y       z     vdW  Elec       q    Type
                         _______ _______ _______ _____ _____    ______ ____

>  <TORSDO>
F 9

$$$$
=
 OpenBabel10272413543D

 30 34  0  0  1  0  0  0  0  0999 V2000
  182.2730  178.7790  137.5310 C   0  0  0  0  0  2  0  0  0  0  0  0
  180.9910  180.1950  139.1830 C   0  0  0  0  0  0  0  0  0  0  0  0
  183.2690  177.7020  137.5650 N   0  0  2  0  0  0  0  0  0  0  0  0
  180.3060  180.3440  140.3920 C   0  0  0  0  0  3  0  0  0  0  0  0
  181.1340  181.3830  138.2940 C   0  0  0  0  0  1  0  0  0  0  0  0
  181.9880  176.5000  139.3860 C   0  0  1  0  0  3  0  0  0  0  0  0
  180.1600  179.2590  141.2570 C   0  0  0  0  0  3  0  0  0  0  0  0
  181.5380  178.9440  138.8340 C   0  0  0  0  0  0  0  0  0  0  0  0
  182.6670  176.4320  138.0070 C   0  0  2  0  0  3  0  0  0  0  0  0
  183.6470  175.2700  137.9130 C   0  0  0  0  0  1  0  0  0  0  0  0
  180.6910  178.0160  140.9120 C   0  0  0  0  0  3  0  0  0  0  0  0
  181.3610  177.8400  139.6940 C   0  0  0  0  0  0  0  0  0  0  0  0
  184.5150  178.1120  138.2500 C   0  0  1  0  0  0  0  0  0  0  0  0
  185.4120  177.0420  138.4180 O   0  0  0  0  0  0  0  0  0  0  0  0
  185.7750  178.0200  137.4650 C   0  0  1  0  0  3  0  0  0  0  0  0
  184.2030  180.2500  139.2050 O   0  0  0  0  0  0  0  0  0  0  0  0
  184.5140  179.0840  139.3990 C   0  0  0  0  0  0  0  0  0  0  0  0
  184.9540  178.6410  140.7650 C   0  0  1  0  0  3  0  0  0  0  0  0
  186.0280  179.4280  141.1930 O   0  0  0  0  0  0  0  0  0  0  0  0
  187.1460  178.5970  141.0920 C   0  0  0  0  0  1  0  0  0  0  0  0
  183.8070  178.7450  141.7600 C   0  0  0  0  0  2  0  0  0  0  0  0
  184.2960  178.4380  143.1610 C   0  0  0  0  0  1  0  0  0  0  0  0
  185.5530  177.5160  136.1800 O   0  0  0  0  0  0  0  0  0  0  0  0
  186.7170  176.8110  135.8700 C   0  0  2  0  0  3  0  0  0  0  0  0
  187.9110  177.7450  135.9440 C   0  0  2  0  0  3  0  0  0  0  0  0
  187.3300  177.3810  134.6050 C   0  0  1  0  0  3  0  0  0  0  0  0
  188.8350  177.4320  134.7840 C   0  0  0  0  0  2  0  0  0  0  0  0
  181.0030  175.3410  139.5740 C   0  0  0  0  0  2  0  0  0  0  0  0
  179.9820  175.2700  138.4480 C   0  0  0  0  0  2  0  0  0  0  0  0
  180.0560  174.0200  137.8340 O   0  0  0  0  0  1  0  0  0  0  0  0
  1  8  1  0  0  0  0
  2  4  1  0  0  0  0
  3  1  1  1  0  0  0
  3  9  1  0  0  0  0
  3 13  1  0  0  0  0
  4  7  2  0  0  0  0
  5  2  1  0  0  0  0
  6 28  1  6  0  0  0
  6 12  1  0  0  0  0
  8  2  2  0  0  0  0
  8 12  1  0  0  0  0
  9 10  1  1  0  0  0
  9  6  1  0  0  0  0
 11  7  1  0  0  0  0
 12 11  2  0  0  0  0
 13 14  1  0  0  0  0
 13 17  1  1  0  0  0
 15 23  1  6  0  0  0
 15 13  1  0  0  0  0
 15 14  1  0  0  0  0
 16 17  2  0  0  0  0
 17 18  1  0  0  0  0
 18 19  1  0  0  0  0
 18 21  1  1  0  0  0
 20 19  1  0  0  0  0
 21 22  1  0  0  0  0
 24 25  1  0  0  0  0
 24 23  1  1  0  0  0
 25 27  1  6  0  0  0
 26 27  1  6  0  0  0
 26 24  1  0  0  0  0
 26 25  1  0  0  0  0
 29 28  1  0  0  0  0
 30 29  1  0  0  0  0
M  END
>  <MODEL>
4

>  <REMARK>
 VINA RESULT:      -5.4      2.157      4.960
  Name = 
  9 active torsions:
  status: ('A' for Active; 'I' for Inactive)
    1  A    between atoms: C_3  and  C_11
    2  A    between atoms: C_3  and  C_19
    3  A    between atoms: N_4  and  C_13
    4  A    between atoms: O_5  and  C_12
    5  A    between atoms: C_7  and  O_16
    6  A    between atoms: C_8  and  C_12
    7  A    between atoms: C_8  and  C_13
    8  A    between atoms: C_9  and  C_12
    9  A    between atoms: O_16  and  C_30
                            x       y       z     vdW  Elec       q    Type
                         _______ _______ _______ _____ _____    ______ ____

>  <TORSDO>
F 9

$$$$
=
 OpenBabel10272413543D

 30 34  0  0  1  0  0  0  0  0999 V2000
  189.2390  178.7870  144.8110 C   0  0  0  0  0  2  0  0  0  0  0  0
  191.4750  177.6400  145.0540 C   0  0  0  0  0  0  0  0  0  0  0  0
  187.8200  178.4140  144.8060 N   0  0  2  0  0  0  0  0  0  0  0  0
  192.2940  176.6690  145.6390 C   0  0  0  0  0  3  0  0  0  0  0  0
  192.0640  178.5420  144.0230 C   0  0  0  0  0  1  0  0  0  0  0  0
  188.1510  176.9160  146.8180 C   0  0  1  0  0  3  0  0  0  0  0  0
  191.7790  175.7990  146.5990 C   0  0  0  0  0  3  0  0  0  0  0  0
  190.1220  177.7410  145.4350 C   0  0  0  0  0  0  0  0  0  0  0  0
  187.3580  178.0570  146.1590 C   0  0  2  0  0  3  0  0  0  0  0  0
  185.8560  177.8050  146.2030 C   0  0  0  0  0  1  0  0  0  0  0  0
  190.4430  175.9010  146.9870 C   0  0  0  0  0  3  0  0  0  0  0  0
  189.6110  176.8820  146.4300 C   0  0  0  0  0  0  0  0  0  0  0  0
  187.4970  177.4540  143.7270 C   0  0  1  0  0  0  0  0  0  0  0  0
  186.3360  176.7080  144.0010 O   0  0  0  0  0  0  0  0  0  0  0  0
  186.2290  177.6810  142.9830 C   0  0  1  0  0  3  0  0  0  0  0  0
  188.7950  175.5180  143.3460 O   0  0  0  0  0  0  0  0  0  0  0  0
  188.5610  176.6690  143.0080 C   0  0  0  0  0  0  0  0  0  0  0  0
  189.3750  177.3150  141.9240 C   0  0  1  0  0  3  0  0  0  0  0  0
  190.5970  176.6480  141.7910 O   0  0  0  0  0  0  0  0  0  0  0  0
  191.2430  177.2880  140.7310 C   0  0  0  0  0  1  0  0  0  0  0  0
  188.6240  177.2890  140.6000 C   0  0  0  0  0  2  0  0  0  0  0  0
  188.1540  178.6820  140.2340 C   0  0  0  0  0  1  0  0  0  0  0  0
  185.5280  178.7870  143.4740 O   0  0  0  0  0  0  0  0  0  0  0  0
  184.2470  178.3020  143.7430 C   0  0  2  0  0  3  0  0  0  0  0  0
  183.2850  178.7880  142.6750 C   0  0  2  0  0  3  0  0  0  0  0  0
  183.3140  179.4660  144.0170 C   0  0  1  0  0  3  0  0  0  0  0  0
  181.9840  179.1810  143.3470 C   0  0  0  0  0  2  0  0  0  0  0  0
  187.9550  176.9140  148.3380 C   0  0  0  0  0  2  0  0  0  0  0  0
  188.2150  178.2810  148.9510 C   0  0  0  0  0  2  0  0  0  0  0  0
  189.5880  178.5270  148.9710 O   0  0  0  0  0  1  0  0  0  0  0  0
  1  8  1  0  0  0  0
  2  8  2  0  0  0  0
  2  4  1  0  0  0  0
  3  1  1  1  0  0  0
  3  9  1  0  0  0  0
  4  7  2  0  0  0  0
  5  2  1  0  0  0  0
  6 28  1  1  0  0  0
  7 11  1  0  0  0  0
  8 12  1  0  0  0  0
  9 10  1  6  0  0  0
  9  6  1  0  0  0  0
 12  6  1  0  0  0  0
 12 11  2  0  0  0  0
 13 17  1  6  0  0  0
 13 14  1  0  0  0  0
 13  3  1  0  0  0  0
 15 23  1  1  0  0  0
 15 13  1  0  0  0  0
 15 14  1  0  0  0  0
 17 16  2  0  0  0  0
 18 21  1  6  0  0  0
 18 17  1  0  0  0  0
 19 18  1  0  0  0  0
 20 19  1  0  0  0  0
 22 21  1  0  0  0  0
 24 23  1  6  0  0  0
 24 26  1  0  0  0  0
 25 27  1  1  0  0  0
 25 24  1  0  0  0  0
 25 26  1  0  0  0  0
 26 27  1  1  0  0  0
 28 29  1  0  0  0  0
 29 30  1  0  0  0  0
M  END
>  <MODEL>
5

>  <REMARK>
 VINA RESULT:      -5.2      3.551      8.187
  Name = 
  9 active torsions:
  status: ('A' for Active; 'I' for Inactive)
    1  A    between atoms: C_3  and  C_11
    2  A    between atoms: C_3  and  C_19
    3  A    between atoms: N_4  and  C_13
    4  A    between atoms: O_5  and  C_12
    5  A    between atoms: C_7  and  O_16
    6  A    between atoms: C_8  and  C_12
    7  A    between atoms: C_8  and  C_13
    8  A    between atoms: C_9  and  C_12
    9  A    between atoms: O_16  and  C_30
                            x       y       z     vdW  Elec       q    Type
                         _______ _______ _______ _____ _____    ______ ____

>  <TORSDO>
F 9

$$$$
=
 OpenBabel10272413543D

 30 34  0  0  1  0  0  0  0  0999 V2000
  183.3750  176.3280  138.7430 C   0  0  0  0  0  2  0  0  0  0  0  0
  183.9550  174.9010  136.7420 C   0  0  0  0  0  0  0  0  0  0  0  0
  183.3540  177.7530  139.0930 N   0  0  2  0  0  0  0  0  0  0  0  0
  183.9680  174.6780  135.3630 C   0  0  0  0  0  3  0  0  0  0  0  0
  184.5580  173.8710  137.6360 C   0  0  0  0  0  1  0  0  0  0  0  0
  182.2620  178.3350  136.8860 C   0  0  1  0  0  3  0  0  0  0  0  0
  183.4250  175.6220  134.4920 C   0  0  0  0  0  3  0  0  0  0  0  0
  183.3930  176.0860  137.2580 C   0  0  0  0  0  0  0  0  0  0  0  0
  182.2450  178.4510  138.4200 C   0  0  2  0  0  3  0  0  0  0  0  0
  182.1170  179.8980  138.8800 C   0  0  0  0  0  1  0  0  0  0  0  0
  182.8580  176.7920  134.9970 C   0  0  0  0  0  3  0  0  0  0  0  0
  182.8150  177.0250  136.3780 C   0  0  0  0  0  0  0  0  0  0  0  0
  184.6900  178.3780  138.9780 C   0  0  1  0  0  0  0  0  0  0  0  0
  184.6600  179.7610  139.2340 O   0  0  0  0  0  0  0  0  0  0  0  0
  185.2720  178.9550  140.2200 C   0  0  1  0  0  3  0  0  0  0  0  0
  185.4840  178.3610  136.7530 O   0  0  0  0  0  0  0  0  0  0  0  0
  185.6680  177.9860  137.9020 C   0  0  0  0  0  0  0  0  0  0  0  0
  186.8260  177.0870  138.2240 C   0  0  1  0  0  3  0  0  0  0  0  0
  186.9970  176.1520  137.1980 O   0  0  0  0  0  0  0  0  0  0  0  0
  188.2560  176.4310  136.6610 C   0  0  0  0  0  1  0  0  0  0  0  0
  188.1020  177.8970  138.4040 C   0  0  0  0  0  2  0  0  0  0  0  0
  188.5850  177.8070  139.8370 C   0  0  0  0  0  1  0  0  0  0  0  0
  184.4070  178.8240  141.3100 O   0  0  0  0  0  0  0  0  0  0  0  0
  185.1580  179.2420  142.4090 C   0  0  2  0  0  3  0  0  0  0  0  0
  185.9330  178.0650  142.9720 C   0  0  2  0  0  3  0  0  0  0  0  0
  184.6730  178.5240  143.6540 C   0  0  1  0  0  3  0  0  0  0  0  0
  185.8810  178.1390  144.4850 C   0  0  0  0  0  2  0  0  0  0  0  0
  180.8840  178.6520  136.2940 C   0  0  0  0  0  2  0  0  0  0  0  0
  180.9360  179.8130  135.3120 C   0  0  0  0  0  2  0  0  0  0  0  0
  180.5440  180.9850  135.9590 O   0  0  0  0  0  1  0  0  0  0  0  0
  2  8  1  0  0  0  0
  2  5  1  0  0  0  0
  3  1  1  6  0  0  0
  4  2  2  0  0  0  0
  6 28  1  1  0  0  0
  6  9  1  0  0  0  0
  7 11  2  0  0  0  0
  7  4  1  0  0  0  0
  8  1  1  0  0  0  0
  9 10  1  6  0  0  0
  9  3  1  0  0  0  0
 11 12  1  0  0  0  0
 12  6  1  0  0  0  0
 12  8  2  0  0  0  0
 13 17  1  6  0  0  0
 13  3  1  0  0  0  0
 13 14  1  0  0  0  0
 13 15  1  0  0  0  0
 14 15  1  0  0  0  0
 15 23  1  1  0  0  0
 16 17  2  0  0  0  0
 17 18  1  0  0  0  0
 18 21  1  6  0  0  0
 19 18  1  0  0  0  0
 20 19  1  0  0  0  0
 21 22  1  0  0  0  0
 24 23  1  6  0  0  0
 24 25  1  0  0  0  0
 24 26  1  0  0  0  0
 25 26  1  0  0  0  0
 25 27  1  1  0  0  0
 26 27  1  1  0  0  0
 29 30  1  0  0  0  0
 29 28  1  0  0  0  0
M  END
>  <MODEL>
6

>  <REMARK>
 VINA RESULT:      -5.0      2.220      4.089
  Name = 
  9 active torsions:
  status: ('A' for Active; 'I' for Inactive)
    1  A    between atoms: C_3  and  C_11
    2  A    between atoms: C_3  and  C_19
    3  A    between atoms: N_4  and  C_13
    4  A    between atoms: O_5  and  C_12
    5  A    between atoms: C_7  and  O_16
    6  A    between atoms: C_8  and  C_12
    7  A    between atoms: C_8  and  C_13
    8  A    between atoms: C_9  and  C_12
    9  A    between atoms: O_16  and  C_30
                            x       y       z     vdW  Elec       q    Type
                         _______ _______ _______ _____ _____    ______ ____

>  <TORSDO>
F 9

$$$$
=
 OpenBabel10272413543D

 30 34  0  0  1  0  0  0  0  0999 V2000
  188.5410  178.5630  136.9110 C   0  0  0  0  0  2  0  0  0  0  0  0
  190.0600  176.9650  135.6810 C   0  0  0  0  0  0  0  0  0  0  0  0
  187.5640  178.5110  138.0040 N   0  0  2  0  0  0  0  0  0  0  0  0
  190.9220  175.8650  135.6660 C   0  0  0  0  0  3  0  0  0  0  0  0
  189.7800  177.6690  134.3960 C   0  0  0  0  0  1  0  0  0  0  0  0
  189.1100  177.0670  139.3920 C   0  0  1  0  0  3  0  0  0  0  0  0
  191.2000  175.1730  136.8440 C   0  0  0  0  0  3  0  0  0  0  0  0
  189.4670  177.3780  136.8910 C   0  0  0  0  0  0  0  0  0  0  0  0
  188.2280  178.3250  139.3060 C   0  0  2  0  0  3  0  0  0  0  0  0
  187.2460  178.4110  140.4670 C   0  0  0  0  0  1  0  0  0  0  0  0
  190.6240  175.5830  138.0460 C   0  0  0  0  0  3  0  0  0  0  0  0
  189.7750  176.6970  138.0870 C   0  0  0  0  0  0  0  0  0  0  0  0
  186.4370  177.5990  137.7050 C   0  0  1  0  0  0  0  0  0  0  0  0
  185.7110  177.2460  138.8570 O   0  0  0  0  0  0  0  0  0  0  0  0
  185.0660  178.1200  137.9540 C   0  0  1  0  0  3  0  0  0  0  0  0
  186.5300  176.7400  135.5070 O   0  0  0  0  0  0  0  0  0  0  0  0
  186.5550  176.4830  136.7020 C   0  0  0  0  0  0  0  0  0  0  0  0
  186.6380  175.0570  137.1630 C   0  0  1  0  0  3  0  0  0  0  0  0
  185.3500  174.5440  137.3470 O   0  0  0  0  0  0  0  0  0  0  0  0
  184.9400  174.1340  136.0760 C   0  0  0  0  0  1  0  0  0  0  0  0
  187.3940  174.2080  136.1500 C   0  0  0  0  0  2  0  0  0  0  0  0
  188.1920  173.1310  136.8570 C   0  0  0  0  0  1  0  0  0  0  0  0
  185.0880  179.4180  138.4740 O   0  0  0  0  0  0  0  0  0  0  0  0
  183.9970  179.4690  139.3420 C   0  0  2  0  0  3  0  0  0  0  0  0
  182.7410  179.0430  138.6060 C   0  0  2  0  0  3  0  0  0  0  0  0
  183.0050  180.5040  138.8460 C   0  0  1  0  0  3  0  0  0  0  0  0
  181.6050  179.9530  139.0320 C   0  0  0  0  0  2  0  0  0  0  0  0
  190.1140  177.1760  140.5450 C   0  0  0  0  0  2  0  0  0  0  0  0
  189.5600  176.6060  141.8420 C   0  0  0  0  0  2  0  0  0  0  0  0
  190.5150  175.7770  142.4300 O   0  0  0  0  0  1  0  0  0  0  0  0
  2  8  1  0  0  0  0
  3  1  1  6  0  0  0
  3  9  1  0  0  0  0
  4  2  2  0  0  0  0
  4  7  1  0  0  0  0
  5  2  1  0  0  0  0
  6 28  1  1  0  0  0
  7 11  2  0  0  0  0
  8  1  1  0  0  0  0
  8 12  2  0  0  0  0
  9  6  1  0  0  0  0
  9 10  1  1  0  0  0
 11 12  1  0  0  0  0
 12  6  1  0  0  0  0
 13 17  1  6  0  0  0
 13 15  1  0  0  0  0
 13  3  1  0  0  0  0
 13 14  1  0  0  0  0
 15 23  1  1  0  0  0
 15 14  1  0  0  0  0
 16 17  2  0  0  0  0
 17 18  1  0  0  0  0
 18 21  1  6  0  0  0
 18 19  1  0  0  0  0
 20 19  1  0  0  0  0
 21 22  1  0  0  0  0
 24 23  1  6  0  0  0
 25 26  1  0  0  0  0
 25 27  1  1  0  0  0
 25 24  1  0  0  0  0
 26 27  1  1  0  0  0
 26 24  1  0  0  0  0
 28 29  1  0  0  0  0
 29 30  1  0  0  0  0
M  END
>  <MODEL>
7

>  <REMARK>
 VINA RESULT:      -5.0      2.908      7.233
  Name = 
  9 active torsions:
  status: ('A' for Active; 'I' for Inactive)
    1  A    between atoms: C_3  and  C_11
    2  A    between atoms: C_3  and  C_19
    3  A    between atoms: N_4  and  C_13
    4  A    between atoms: O_5  and  C_12
    5  A    between atoms: C_7  and  O_16
    6  A    between atoms: C_8  and  C_12
    7  A    between atoms: C_8  and  C_13
    8  A    between atoms: C_9  and  C_12
    9  A    between atoms: O_16  and  C_30
                            x       y       z     vdW  Elec       q    Type
                         _______ _______ _______ _____ _____    ______ ____

>  <TORSDO>
F 9

$$$$
=
 OpenBabel10272413543D

 30 34  0  0  1  0  0  0  0  0999 V2000
  190.9790  176.6080  136.2870 C   0  0  0  0  0  2  0  0  0  0  0  0
  191.3640  176.8080  138.7740 C   0  0  0  0  0  0  0  0  0  0  0  0
  189.9610  176.0550  135.3850 N   0  0  2  0  0  0  0  0  0  0  0  0
  190.8890  177.0160  140.0720 C   0  0  0  0  0  3  0  0  0  0  0  0
  192.8210  176.5530  138.5810 C   0  0  0  0  0  1  0  0  0  0  0  0
  188.1030  177.0600  136.7780 C   0  0  1  0  0  3  0  0  0  0  0  0
  189.5320  177.2470  140.2960 C   0  0  0  0  0  3  0  0  0  0  0  0
  190.4700  176.8290  137.6850 C   0  0  0  0  0  0  0  0  0  0  0  0
  188.7410  176.8800  135.3890 C   0  0  2  0  0  3  0  0  0  0  0  0
  187.7270  176.4080  134.3550 C   0  0  0  0  0  1  0  0  0  0  0  0
  188.6440  177.2790  139.2210 C   0  0  0  0  0  3  0  0  0  0  0  0
  189.1030  177.0940  137.9100 C   0  0  0  0  0  0  0  0  0  0  0  0
  189.7710  174.6000  135.5780 C   0  0  1  0  0  0  0  0  0  0  0  0
  189.6720  173.9060  134.3590 O   0  0  0  0  0  0  0  0  0  0  0  0
  190.8620  173.7100  135.0950 C   0  0  1  0  0  3  0  0  0  0  0  0
  189.2810  174.0370  137.8190 O   0  0  0  0  0  0  0  0  0  0  0  0
  188.8870  174.0450  136.6620 C   0  0  0  0  0  0  0  0  0  0  0  0
  187.5540  173.4460  136.3180 C   0  0  1  0  0  3  0  0  0  0  0  0
  187.5520  172.0840  136.6350 O   0  0  0  0  0  0  0  0  0  0  0  0
  187.5870  171.4270  135.4030 C   0  0  0  0  0  1  0  0  0  0  0  0
  186.4360  174.1540  137.0700 C   0  0  0  0  0  2  0  0  0  0  0  0
  185.5130  173.1420  137.7180 C   0  0  0  0  0  1  0  0  0  0  0  0
  191.8980  174.4330  134.4970 O   0  0  0  0  0  0  0  0  0  0  0  0
  193.0530  173.7120  134.8010 C   0  0  2  0  0  3  0  0  0  0  0  0
  193.1870  173.5780  136.3060 C   0  0  2  0  0  3  0  0  0  0  0  0
  194.0130  174.5980  135.5720 C   0  0  1  0  0  3  0  0  0  0  0  0
  194.6440  173.7730  136.6760 C   0  0  0  0  0  2  0  0  0  0  0  0
  187.1600  178.2690  136.8000 C   0  0  0  0  0  2  0  0  0  0  0  0
  185.8600  177.9670  137.5300 C   0  0  0  0  0  2  0  0  0  0  0  0
  185.5990  178.9810  138.4510 O   0  0  0  0  0  1  0  0  0  0  0  0
  1  8  1  0  0  0  0
  2  4  1  0  0  0  0
  3  9  1  0  0  0  0
  3 13  1  0  0  0  0
  3  1  1  1  0  0  0
  4  7  2  0  0  0  0
  5  2  1  0  0  0  0
  6 28  1  6  0  0  0
  6 12  1  0  0  0  0
  8 12  1  0  0  0  0
  8  2  2  0  0  0  0
  9 10  1  6  0  0  0
  9  6  1  0  0  0  0
 11  7  1  0  0  0  0
 12 11  2  0  0  0  0
 13 17  1  1  0  0  0
 14 15  1  0  0  0  0
 14 13  1  0  0  0  0
 15 23  1  6  0  0  0
 15 13  1  0  0  0  0
 17 16  2  0  0  0  0
 18 19  1  0  0  0  0
 18 17  1  0  0  0  0
 18 21  1  1  0  0  0
 20 19  1  0  0  0  0
 21 22  1  0  0  0  0
 24 23  1  1  0  0  0
 24 26  1  0  0  0  0
 24 25  1  0  0  0  0
 25 27  1  6  0  0  0
 26 25  1  0  0  0  0
 26 27  1  6  0  0  0
 28 29  1  0  0  0  0
 29 30  1  0  0  0  0
M  END
>  <MODEL>
8

>  <REMARK>
 VINA RESULT:      -4.9      5.039      8.657
  Name = 
  9 active torsions:
  status: ('A' for Active; 'I' for Inactive)
    1  A    between atoms: C_3  and  C_11
    2  A    between atoms: C_3  and  C_19
    3  A    between atoms: N_4  and  C_13
    4  A    between atoms: O_5  and  C_12
    5  A    between atoms: C_7  and  O_16
    6  A    between atoms: C_8  and  C_12
    7  A    between atoms: C_8  and  C_13
    8  A    between atoms: C_9  and  C_12
    9  A    between atoms: O_16  and  C_30
                            x       y       z     vdW  Elec       q    Type
                         _______ _______ _______ _____ _____    ______ ____

>  <TORSDO>
F 9

$$$$
=
 OpenBabel10272413543D

 30 34  0  0  1  0  0  0  0  0999 V2000
  188.8760  179.1320  143.0560 C   0  0  0  0  0  2  0  0  0  0  0  0
  189.3550  178.2500  145.3720 C   0  0  0  0  0  0  0  0  0  0  0  0
  188.1470  178.7020  141.8580 N   0  0  2  0  0  0  0  0  0  0  0  0
  188.9600  177.5690  146.5270 C   0  0  0  0  0  3  0  0  0  0  0  0
  190.7420  178.7950  145.3070 C   0  0  0  0  0  1  0  0  0  0  0  0
  186.1730  177.9640  143.2570 C   0  0  1  0  0  3  0  0  0  0  0  0
  187.6760  177.0340  146.6240 C   0  0  0  0  0  3  0  0  0  0  0  0
  188.4550  178.3970  144.2990 C   0  0  0  0  0  0  0  0  0  0  0  0
  186.6900  178.7820  142.0620 C   0  0  2  0  0  3  0  0  0  0  0  0
  185.9150  178.4780  140.7870 C   0  0  0  0  0  1  0  0  0  0  0  0
  186.7760  177.1860  145.5680 C   0  0  0  0  0  3  0  0  0  0  0  0
  187.1450  177.8840  144.4110 C   0  0  0  0  0  0  0  0  0  0  0  0
  188.6640  177.4260  141.3140 C   0  0  1  0  0  0  0  0  0  0  0  0
  187.8570  176.9160  140.2810 O   0  0  0  0  0  0  0  0  0  0  0  0
  189.1150  177.4320  139.8960 C   0  0  1  0  0  3  0  0  0  0  0  0
  188.5240  175.6920  142.9120 O   0  0  0  0  0  0  0  0  0  0  0  0
  189.2570  176.3610  142.1980 C   0  0  0  0  0  0  0  0  0  0  0  0
  190.7440  176.1630  142.2510 C   0  0  1  0  0  3  0  0  0  0  0  0
  191.3750  177.3900  142.4840 O   0  0  0  0  0  0  0  0  0  0  0  0
  192.2040  177.5840  141.3770 C   0  0  0  0  0  1  0  0  0  0  0  0
  191.1160  175.1730  143.3460 C   0  0  0  0  0  2  0  0  0  0  0  0
  191.9640  175.8520  144.4030 C   0  0  0  0  0  1  0  0  0  0  0  0
  188.9350  178.6830  139.2980 O   0  0  0  0  0  0  0  0  0  0  0  0
  188.2530  178.4130  138.1120 C   0  0  2  0  0  3  0  0  0  0  0  0
  189.1330  177.5830  137.1970 C   0  0  2  0  0  3  0  0  0  0  0  0
  188.9840  179.0590  136.9500 C   0  0  1  0  0  3  0  0  0  0  0  0
  188.9680  178.0960  135.7800 C   0  0  0  0  0  2  0  0  0  0  0  0
  184.7870  178.4480  143.7000 C   0  0  0  0  0  2  0  0  0  0  0  0
  184.8700  179.4720  144.8220 C   0  0  0  0  0  2  0  0  0  0  0  0
  183.9270  179.1630  145.8020 O   0  0  0  0  0  1  0  0  0  0  0  0
  1  8  1  0  0  0  0
  2  4  1  0  0  0  0
  3  9  1  0  0  0  0
  3  1  1  1  0  0  0
  4  7  2  0  0  0  0
  5  2  1  0  0  0  0
  6 28  1  1  0  0  0
  6 12  1  0  0  0  0
  8 12  1  0  0  0  0
  8  2  2  0  0  0  0
  9 10  1  6  0  0  0
  9  6  1  0  0  0  0
 11  7  1  0  0  0  0
 12 11  2  0  0  0  0
 13  3  1  0  0  0  0
 13 17  1  1  0  0  0
 14 13  1  0  0  0  0
 15 23  1  6  0  0  0
 15 14  1  0  0  0  0
 15 13  1  0  0  0  0
 17 18  1  0  0  0  0
 17 16  2  0  0  0  0
 18 19  1  0  0  0  0
 18 21  1  1  0  0  0
 20 19  1  0  0  0  0
 21 22  1  0  0  0  0
 24 23  1  1  0  0  0
 25 27  1  6  0  0  0
 25 24  1  0  0  0  0
 26 27  1  6  0  0  0
 26 25  1  0  0  0  0
 26 24  1  0  0  0  0
 28 29  1  0  0  0  0
 29 30  1  0  0  0  0
M  END
>  <MODEL>
9

>  <REMARK>
 VINA RESULT:      -4.9      3.694      7.110
  Name = 
  9 active torsions:
  status: ('A' for Active; 'I' for Inactive)
    1  A    between atoms: C_3  and  C_11
    2  A    between atoms: C_3  and  C_19
    3  A    between atoms: N_4  and  C_13
    4  A    between atoms: O_5  and  C_12
    5  A    between atoms: C_7  and  O_16
    6  A    between atoms: C_8  and  C_12
    7  A    between atoms: C_8  and  C_13
    8  A    between atoms: C_9  and  C_12
    9  A    between atoms: O_16  and  C_30
                            x       y       z     vdW  Elec       q    Type
                         _______ _______ _______ _____ _____    ______ ____

>  <TORSDO>
F 9

$$$$
