=
 OpenBabel10272415253D

 34 39  0  0  1  0  0  0  0  0999 V2000
  187.7520  177.7860  144.0090 C   0  0  0  0  0  0  0  0  0  0  0  0
  184.2670  178.6290  145.0050 C   0  0  0  0  0  3  0  0  0  0  0  0
  186.2080  178.1170  146.3440 C   0  0  0  0  0  3  0  0  0  0  0  0
  190.5750  177.0820  144.1840 C   0  0  0  0  0  3  0  0  0  0  0  0
  188.5790  177.6100  142.8000 C   0  0  0  0  0  3  0  0  0  0  0  0
  189.7000  177.2720  145.3930 C   0  0  0  0  0  0  0  0  0  0  0  0
  189.4890  177.2690  147.8110 C   0  0  0  0  0  3  0  0  0  0  0  0
  190.2650  177.1030  146.6610 C   0  0  0  0  0  3  0  0  0  0  0  0
  189.8790  177.2850  142.8550 C   0  0  0  0  0  0  0  0  0  0  0  0
  187.5580  177.7790  146.4440 C   0  0  0  0  0  0  0  0  0  0  0  0
  188.3380  177.6120  145.2760 C   0  0  1  0  0  3  0  0  0  0  0  0
  188.1380  177.6060  147.7030 C   0  0  0  0  0  3  0  0  0  0  0  0
  183.6550  178.8090  143.7620 C   0  0  0  0  0  0  0  0  0  0  0  0
  184.4140  178.6480  142.5930 C   0  0  0  0  0  3  0  0  0  0  0  0
  185.6190  178.2920  145.0910 C   0  0  0  0  0  0  0  0  0  0  0  0
  185.7670  178.3110  142.6670 C   0  0  0  0  0  3  0  0  0  0  0  0
  186.3870  178.1270  143.9120 C   0  0  0  0  0  0  0  0  0  0  0  0
  192.7490  177.2920  140.3630 C   0  0  0  0  0  3  0  0  0  0  0  0
  190.0260  176.6330  140.4420 C   0  0  0  0  0  3  0  0  0  0  0  0
  192.2050  176.1600  136.8770 C   0  0  0  0  0  0  0  0  0  0  0  0
  192.8390  176.6480  138.0300 C   0  0  0  0  0  3  0  0  0  0  0  0
  192.1180  176.8070  139.2150 C   0  0  0  0  0  0  0  0  0  0  0  0
  190.1140  175.9890  138.1090 C   0  0  0  0  0  3  0  0  0  0  0  0
  190.7470  176.4750  139.2550 C   0  0  0  0  0  0  0  0  0  0  0  0
  190.8410  175.8330  136.9250 C   0  0  0  0  0  3  0  0  0  0  0  0
  190.6530  177.1210  141.6000 C   0  0  0  0  0  0  0  0  0  0  0  0
  192.0210  177.4480  141.5460 C   0  0  0  0  0  3  0  0  0  0  0  0
  192.9700  175.9960  135.6300 C   0  0  0  0  0  0  0  0  0  0  0  0
  194.2010  176.2610  135.5970 O   0  0  0  0  0  1  0  0  0  0  0  0
  192.3400  175.5460  134.4770 O   0  0  0  0  0  0  0  0  0  0  0  0
  181.4060  179.1260  142.5740 C   0  0  0  0  0  0  0  0  0  0  0  0
  179.9820  179.5220  142.7200 C   0  0  0  0  0  1  0  0  0  0  0  0
  181.8350  178.7720  141.4440 O   0  0  0  0  0  0  0  0  0  0  0  0
  182.2640  179.1550  143.7210 N   0  0  0  0  0  2  0  0  0  0  0  0
  2 15  1  0  0  0  0
  3 10  1  0  0  0  0
  4  6  2  0  0  0  0
  5  9  2  0  0  0  0
  5  1  1  0  0  0  0
  6  8  1  0  0  0  0
  8  7  2  0  0  0  0
  9  4  1  0  0  0  0
 10 12  2  0  0  0  0
 11  1  1  1  0  0  0
 11  6  1  0  0  0  0
 11 10  1  0  0  0  0
 12  7  1  0  0  0  0
 13  2  2  0  0  0  0
 14 16  2  0  0  0  0
 14 13  1  0  0  0  0
 15  3  2  0  0  0  0
 16 17  1  0  0  0  0
 17  1  2  0  0  0  0
 17 15  1  0  0  0  0
 18 27  1  0  0  0  0
 19 26  1  0  0  0  0
 20 25  1  0  0  0  0
 20 21  2  0  0  0  0
 21 22  1  0  0  0  0
 22 24  1  0  0  0  0
 22 18  2  0  0  0  0
 23 24  1  0  0  0  0
 24 19  2  0  0  0  0
 25 23  2  0  0  0  0
 26  9  1  0  0  0  0
 27 26  2  0  0  0  0
 28 20  1  0  0  0  0
 29 28  1  0  0  0  0
 30 28  2  0  0  0  0
 31 32  1  0  0  0  0
 31 34  1  0  0  0  0
 33 31  2  0  0  0  0
 34 13  1  0  0  0  0
M  END
>  <MODEL>
1

>  <REMARK>
 VINA RESULT:     -12.1      0.000      0.000
  Name = 
  3 active torsions:
  status: ('A' for Active; 'I' for Inactive)
    1  A    between atoms: C_7  and  C_11
    2  A    between atoms: C_18  and  C_30
    3  A    between atoms: C_23  and  N_25
                            x       y       z     vdW  Elec       q    Type
                         _______ _______ _______ _____ _____    ______ ____

>  <TORSDO>
F 3

$$$$
=
 OpenBabel10272415253D

 34 39  0  0  1  0  0  0  0  0999 V2000
  185.1860  178.4100  142.1810 C   0  0  0  0  0  0  0  0  0  0  0  0
  184.7160  178.6410  138.4960 C   0  0  0  0  0  3  0  0  0  0  0  0
  183.1300  178.8490  140.3030 C   0  0  0  0  0  3  0  0  0  0  0  0
  184.6090  178.3970  145.0370 C   0  0  0  0  0  3  0  0  0  0  0  0
  186.2470  178.1830  143.1810 C   0  0  0  0  0  3  0  0  0  0  0  0
  183.5550  178.6260  143.9880 C   0  0  0  0  0  0  0  0  0  0  0  0
  181.2250  179.0580  143.4590 C   0  0  0  0  0  3  0  0  0  0  0  0
  182.2360  178.8430  144.4000 C   0  0  0  0  0  3  0  0  0  0  0  0
  186.0060  178.1720  144.5000 C   0  0  0  0  0  0  0  0  0  0  0  0
  182.8380  178.8460  141.6670 C   0  0  0  0  0  0  0  0  0  0  0  0
  183.8650  178.6260  142.6140 C   0  0  1  0  0  3  0  0  0  0  0  0
  181.5260  179.0600  142.0960 C   0  0  0  0  0  3  0  0  0  0  0  0
  186.0190  178.4300  138.0330 C   0  0  0  0  0  0  0  0  0  0  0  0
  187.0490  178.2110  138.9590 C   0  0  0  0  0  3  0  0  0  0  0  0
  184.4380  178.6360  139.8650 C   0  0  0  0  0  0  0  0  0  0  0  0
  186.7820  178.2030  140.3300 C   0  0  0  0  0  3  0  0  0  0  0  0
  185.4770  178.4140  140.8010 C   0  0  0  0  0  0  0  0  0  0  0  0
  188.0060  177.9580  147.7250 C   0  0  0  0  0  3  0  0  0  0  0  0
  188.3560  177.4620  144.9890 C   0  0  0  0  0  3  0  0  0  0  0  0
  191.5210  176.7880  147.6740 C   0  0  0  0  0  0  0  0  0  0  0  0
  190.2870  177.2620  148.1460 C   0  0  0  0  0  3  0  0  0  0  0  0
  189.2340  177.4870  147.2560 C   0  0  0  0  0  0  0  0  0  0  0  0
  190.6380  176.7660  145.4080 C   0  0  0  0  0  3  0  0  0  0  0  0
  189.4100  177.2370  145.8780 C   0  0  0  0  0  0  0  0  0  0  0  0
  191.6880  176.5420  146.3030 C   0  0  0  0  0  3  0  0  0  0  0  0
  187.1190  177.9370  145.4530 C   0  0  0  0  0  0  0  0  0  0  0  0
  186.9560  178.1810  146.8290 C   0  0  0  0  0  3  0  0  0  0  0  0
  192.6270  176.5530  148.6170 C   0  0  0  0  0  0  0  0  0  0  0  0
  193.1960  175.4300  148.6650 O   0  0  0  0  0  0  0  0  0  0  0  0
  193.0550  177.5690  149.4620 O   0  0  0  0  0  1  0  0  0  0  0  0
  186.6330  177.3270  135.8030 C   0  0  0  0  0  0  0  0  0  0  0  0
  186.8410  177.5310  134.3460 C   0  0  0  0  0  1  0  0  0  0  0  0
  186.7890  176.1790  136.2940 O   0  0  0  0  0  0  0  0  0  0  0  0
  186.2580  178.4440  136.6200 N   0  0  0  0  0  2  0  0  0  0  0  0
  1 11  1  0  0  0  0
  1  5  1  0  0  0  0
  2 15  1  0  0  0  0
  3 10  1  0  0  0  0
  5  9  2  0  0  0  0
  6  8  1  0  0  0  0
  6  4  2  0  0  0  0
  7  8  2  0  0  0  0
  9  4  1  0  0  0  0
  9 26  1  0  0  0  0
 10 12  2  0  0  0  0
 11 10  1  1  0  0  0
 11  6  1  0  0  0  0
 12  7  1  0  0  0  0
 13  2  2  0  0  0  0
 13 14  1  0  0  0  0
 14 16  2  0  0  0  0
 15  3  2  0  0  0  0
 15 17  1  0  0  0  0
 16 17  1  0  0  0  0
 17  1  2  0  0  0  0
 19 26  2  0  0  0  0
 19 24  1  0  0  0  0
 20 21  1  0  0  0  0
 20 28  1  0  0  0  0
 22 18  1  0  0  0  0
 22 21  2  0  0  0  0
 23 24  2  0  0  0  0
 23 25  1  0  0  0  0
 24 22  1  0  0  0  0
 25 20  2  0  0  0  0
 26 27  1  0  0  0  0
 27 18  2  0  0  0  0
 28 29  2  0  0  0  0
 28 30  1  0  0  0  0
 31 33  2  0  0  0  0
 31 34  1  0  0  0  0
 32 31  1  0  0  0  0
 34 13  1  0  0  0  0
M  END
>  <MODEL>
2

>  <REMARK>
 VINA RESULT:     -11.4      4.253      8.024
  Name = 
  3 active torsions:
  status: ('A' for Active; 'I' for Inactive)
    1  A    between atoms: C_7  and  C_11
    2  A    between atoms: C_18  and  C_30
    3  A    between atoms: C_23  and  N_25
                            x       y       z     vdW  Elec       q    Type
                         _______ _______ _______ _____ _____    ______ ____

>  <TORSDO>
F 3

$$$$
=
 OpenBabel10272415253D

 34 39  0  0  1  0  0  0  0  0999 V2000
  187.8420  177.6440  143.4820 C   0  0  0  0  0  0  0  0  0  0  0  0
  184.6530  178.5410  145.1780 C   0  0  0  0  0  3  0  0  0  0  0  0
  186.8270  178.0200  146.0850 C   0  0  0  0  0  3  0  0  0  0  0  0
  190.6310  176.9070  143.0690 C   0  0  0  0  0  3  0  0  0  0  0  0
  188.3940  177.4440  142.1290 C   0  0  0  0  0  3  0  0  0  0  0  0
  190.0320  177.1210  144.4320 C   0  0  0  0  0  0  0  0  0  0  0  0
  190.3350  177.1470  146.8410 C   0  0  0  0  0  3  0  0  0  0  0  0
  190.8500  176.9590  145.5560 C   0  0  0  0  0  3  0  0  0  0  0  0
  189.6730  177.1040  141.9130 C   0  0  0  0  0  0  0  0  0  0  0  0
  188.1640  177.6660  145.9040 C   0  0  0  0  0  0  0  0  0  0  0  0
  188.6800  177.4770  144.6000 C   0  0  2  0  0  3  0  0  0  0  0  0
  188.9950  177.5000  147.0150 C   0  0  0  0  0  3  0  0  0  0  0  0
  183.7950  178.7160  144.0880 C   0  0  0  0  0  0  0  0  0  0  0  0
  184.2900  178.5320  142.7880 C   0  0  0  0  0  3  0  0  0  0  0  0
  185.9900  178.1880  144.9820 C   0  0  0  0  0  0  0  0  0  0  0  0
  185.6250  178.1780  142.5810 C   0  0  0  0  0  3  0  0  0  0  0  0
  186.4910  178.0010  143.6700 C   0  0  0  0  0  0  0  0  0  0  0  0
  189.7370  176.7180  138.1320 C   0  0  0  0  0  3  0  0  0  0  0  0
  191.5380  176.7580  140.2800 C   0  0  0  0  0  3  0  0  0  0  0  0
  192.9510  176.2270  136.3550 C   0  0  0  0  0  0  0  0  0  0  0  0
  191.5770  176.3850  136.5930 C   0  0  0  0  0  3  0  0  0  0  0  0
  191.1040  176.5610  137.8950 C   0  0  0  0  0  0  0  0  0  0  0  0
  193.3780  176.4240  138.7410 C   0  0  0  0  0  3  0  0  0  0  0  0
  192.0120  176.5820  138.9770 C   0  0  0  0  0  0  0  0  0  0  0  0
  193.8460  176.2480  137.4350 C   0  0  0  0  0  3  0  0  0  0  0  0
  190.1650  176.9160  140.5260 C   0  0  0  0  0  0  0  0  0  0  0  0
  189.2720  176.8950  139.4390 C   0  0  0  0  0  3  0  0  0  0  0  0
  193.4420  176.0410  134.9800 C   0  0  0  0  0  0  0  0  0  0  0  0
  193.9880  176.9940  134.3630 O   0  0  0  0  0  1  0  0  0  0  0  0
  193.3110  174.8100  134.3490 O   0  0  0  0  0  0  0  0  0  0  0  0
  181.3470  179.0330  143.3990 C   0  0  0  0  0  0  0  0  0  0  0  0
  179.9900  179.4510  143.8360 C   0  0  0  0  0  1  0  0  0  0  0  0
  181.5220  178.6470  142.2130 O   0  0  0  0  0  0  0  0  0  0  0  0
  182.4300  179.0780  144.3360 N   0  0  0  0  0  2  0  0  0  0  0  0
  1 17  2  0  0  0  0
  4  6  2  0  0  0  0
  5  1  1  0  0  0  0
  6 11  1  0  0  0  0
  6  8  1  0  0  0  0
  7 12  1  0  0  0  0
  8  7  2  0  0  0  0
  9  5  2  0  0  0  0
  9  4  1  0  0  0  0
 10  3  1  0  0  0  0
 10 12  2  0  0  0  0
 11  1  1  1  0  0  0
 11 10  1  0  0  0  0
 13 34  1  0  0  0  0
 13  2  2  0  0  0  0
 14 13  1  0  0  0  0
 15  2  1  0  0  0  0
 15  3  2  0  0  0  0
 16 14  2  0  0  0  0
 16 17  1  0  0  0  0
 17 15  1  0  0  0  0
 18 27  1  0  0  0  0
 19 26  1  0  0  0  0
 20 21  2  0  0  0  0
 20 25  1  0  0  0  0
 21 22  1  0  0  0  0
 22 18  2  0  0  0  0
 22 24  1  0  0  0  0
 23 24  1  0  0  0  0
 24 19  2  0  0  0  0
 25 23  2  0  0  0  0
 26  9  1  0  0  0  0
 27 26  2  0  0  0  0
 28 20  1  0  0  0  0
 29 28  1  0  0  0  0
 30 28  2  0  0  0  0
 31 32  1  0  0  0  0
 31 34  1  0  0  0  0
 33 31  2  0  0  0  0
M  END
>  <MODEL>
3

>  <REMARK>
 VINA RESULT:     -11.1      0.853      1.520
  Name = 
  3 active torsions:
  status: ('A' for Active; 'I' for Inactive)
    1  A    between atoms: C_7  and  C_11
    2  A    between atoms: C_18  and  C_30
    3  A    between atoms: C_23  and  N_25
                            x       y       z     vdW  Elec       q    Type
                         _______ _______ _______ _____ _____    ______ ____

>  <TORSDO>
F 3

$$$$
=
 OpenBabel10272415253D

 34 39  0  0  0  0  0  0  0  0999 V2000
  188.6070  177.5480  144.7900 C   0  0  0  0  0  0  0  0  0  0  0  0
  190.4130  177.0420  148.0040 C   0  0  0  0  0  3  0  0  0  0  0  0
  188.1420  177.7280  147.5640 C   0  0  0  0  0  3  0  0  0  0  0  0
  186.4890  178.1670  142.8860 C   0  0  0  0  0  2  0  0  0  0  0  0
  188.8290  177.4590  143.3340 C   0  0  0  0  0  3  0  0  0  0  0  0
  186.3020  178.2440  144.3770 C   0  0  0  0  0  0  0  0  0  0  0  0
  184.8350  178.7180  146.2520 C   0  0  0  0  0  3  0  0  0  0  0  0
  185.0530  178.6320  144.8750 C   0  0  0  0  0  3  0  0  0  0  0  0
  187.8710  177.7390  142.4390 C   0  0  0  0  0  0  0  0  0  0  0  0
  187.1180  178.0280  146.6660 C   0  0  0  0  0  0  0  0  0  0  0  0
  187.3450  177.9390  145.2720 C   0  0  0  0  0  0  0  0  0  0  0  0
  185.8650  178.4170  147.1460 C   0  0  0  0  0  3  0  0  0  0  0  0
  191.6780  176.6500  147.5570 C   0  0  0  0  0  0  0  0  0  0  0  0
  191.9200  176.5560  146.1790 C   0  0  0  0  0  3  0  0  0  0  0  0
  189.3960  177.3380  147.0940 C   0  0  0  0  0  0  0  0  0  0  0  0
  190.9110  176.8510  145.2590 C   0  0  0  0  0  3  0  0  0  0  0  0
  189.6400  177.2460  145.7010 C   0  0  0  0  0  0  0  0  0  0  0  0
  187.5420  178.0450  138.6640 C   0  0  0  0  0  3  0  0  0  0  0  0
  189.3400  177.0090  140.5480 C   0  0  0  0  0  3  0  0  0  0  0  0
  190.1780  176.6950  136.4390 C   0  0  0  0  0  0  0  0  0  0  0  0
  188.9980  177.3180  136.8710 C   0  0  0  0  0  3  0  0  0  0  0  0
  188.7160  177.4240  138.2350 C   0  0  0  0  0  0  0  0  0  0  0  0
  190.7970  176.2810  138.7550 C   0  0  0  0  0  3  0  0  0  0  0  0
  189.6220  176.9020  139.1830 C   0  0  0  0  0  0  0  0  0  0  0  0
  191.0730  176.1780  137.3880 C   0  0  0  0  0  3  0  0  0  0  0  0
  188.1600  177.6310  140.9870 C   0  0  0  0  0  0  0  0  0  0  0  0
  187.2660  178.1480  140.0310 C   0  0  0  0  0  3  0  0  0  0  0  0
  190.4690  176.5860  135.0000 C   0  0  0  0  0  0  0  0  0  0  0  0
  190.8380  177.5970  134.3460 O   0  0  0  0  0  0  0  0  0  0  0  0
  190.3390  175.3650  134.3500 O   0  0  0  0  0  1  0  0  0  0  0  0
  193.1690  177.2260  149.5610 C   0  0  0  0  0  0  0  0  0  0  0  0
  194.2320  176.7470  150.4810 C   0  0  0  0  0  1  0  0  0  0  0  0
  192.7060  178.3880  149.7040 O   0  0  0  0  0  0  0  0  0  0  0  0
  192.6910  176.3540  148.5280 N   0  0  0  0  0  2  0  0  0  0  0  0
  1 11  2  0  0  0  0
  1 17  1  0  0  0  0
  4  6  1  0  0  0  0
  5  1  1  0  0  0  0
  6  8  2  0  0  0  0
  6 11  1  0  0  0  0
  7 12  2  0  0  0  0
  8  7  1  0  0  0  0
  9  4  1  0  0  0  0
  9  5  2  0  0  0  0
 10 12  1  0  0  0  0
 10  3  2  0  0  0  0
 11 10  1  0  0  0  0
 13  2  1  0  0  0  0
 13 34  1  0  0  0  0
 14 13  2  0  0  0  0
 15  3  1  0  0  0  0
 15  2  2  0  0  0  0
 16 17  2  0  0  0  0
 16 14  1  0  0  0  0
 17 15  1  0  0  0  0
 18 27  1  0  0  0  0
 19 26  1  0  0  0  0
 20 21  2  0  0  0  0
 20 25  1  0  0  0  0
 21 22  1  0  0  0  0
 22 18  2  0  0  0  0
 22 24  1  0  0  0  0
 23 24  1  0  0  0  0
 24 19  2  0  0  0  0
 25 23  2  0  0  0  0
 26  9  1  0  0  0  0
 27 26  2  0  0  0  0
 28 20  1  0  0  0  0
 29 28  2  0  0  0  0
 30 28  1  0  0  0  0
 31 33  2  0  0  0  0
 31 32  1  0  0  0  0
 34 31  1  0  0  0  0
M  END
>  <MODEL>
4

>  <REMARK>
 VINA RESULT:     -10.9      3.598      6.184
  Name = 
  3 active torsions:
  status: ('A' for Active; 'I' for Inactive)
    1  A    between atoms: C_7  and  C_11
    2  A    between atoms: C_18  and  C_30
    3  A    between atoms: C_23  and  N_25
                            x       y       z     vdW  Elec       q    Type
                         _______ _______ _______ _____ _____    ______ ____

>  <TORSDO>
F 3

$$$$
=
 OpenBabel10272415253D

 34 39  0  0  1  0  0  0  0  0999 V2000
  190.5460  176.7590  138.2350 C   0  0  0  0  0  0  0  0  0  0  0  0
  192.7980  175.6670  135.4800 C   0  0  0  0  0  3  0  0  0  0  0  0
  190.5600  176.5660  135.4230 C   0  0  0  0  0  3  0  0  0  0  0  0
  188.2130  177.7940  139.6410 C   0  0  0  0  0  3  0  0  0  0  0  0
  190.5190  176.8690  139.7060 C   0  0  0  0  0  3  0  0  0  0  0  0
  188.2800  177.6670  138.1430 C   0  0  0  0  0  0  0  0  0  0  0  0
  187.1890  177.9630  135.9940 C   0  0  0  0  0  3  0  0  0  0  0  0
  187.1710  178.0640  137.3870 C   0  0  0  0  0  3  0  0  0  0  0  0
  189.4570  177.3410  140.3750 C   0  0  0  0  0  0  0  0  0  0  0  0
  189.4350  177.0630  136.0810 C   0  0  0  0  0  0  0  0  0  0  0  0
  189.4220  177.1630  137.4920 C   0  0  2  0  0  3  0  0  0  0  0  0
  188.3190  177.4640  135.3420 C   0  0  0  0  0  3  0  0  0  0  0  0
  193.9310  175.2580  136.1890 C   0  0  0  0  0  0  0  0  0  0  0  0
  193.9360  175.3500  137.5890 C   0  0  0  0  0  3  0  0  0  0  0  0
  191.6790  176.1640  136.1520 C   0  0  0  0  0  0  0  0  0  0  0  0
  192.8220  175.8450  138.2710 C   0  0  0  0  0  3  0  0  0  0  0  0
  191.6810  176.2570  137.5650 C   0  0  0  0  0  0  0  0  0  0  0  0
  190.7500  177.5480  143.9430 C   0  0  0  0  0  3  0  0  0  0  0  0
  188.2970  177.4630  142.5900 C   0  0  0  0  0  3  0  0  0  0  0  0
  188.3810  177.7020  146.7870 C   0  0  0  0  0  0  0  0  0  0  0  0
  189.5810  177.6650  146.0610 C   0  0  0  0  0  3  0  0  0  0  0  0
  189.5560  177.5850  144.6660 C   0  0  0  0  0  0  0  0  0  0  0  0
  187.1270  177.5790  144.7070 C   0  0  0  0  0  3  0  0  0  0  0  0
  188.3210  177.5430  143.9850 C   0  0  0  0  0  0  0  0  0  0  0  0
  187.1570  177.6590  146.1020 C   0  0  0  0  0  3  0  0  0  0  0  0
  189.4940  177.4250  141.8560 C   0  0  0  0  0  0  0  0  0  0  0  0
  190.7180  177.4690  142.5480 C   0  0  0  0  0  3  0  0  0  0  0  0
  188.4130  177.7850  148.2560 C   0  0  0  0  0  0  0  0  0  0  0  0
  187.4820  177.2880  148.9440 O   0  0  0  0  0  1  0  0  0  0  0  0
  189.4720  178.4130  148.9000 O   0  0  0  0  0  0  0  0  0  0  0  0
  196.3350  175.3860  135.3100 C   0  0  0  0  0  0  0  0  0  0  0  0
  197.3900  174.7130  134.5090 C   0  0  0  0  0  1  0  0  0  0  0  0
  196.5820  176.5000  135.8430 O   0  0  0  0  0  0  0  0  0  0  0  0
  195.0580  174.7540  135.4580 N   0  0  0  0  0  2  0  0  0  0  0  0
  1  5  2  0  0  0  0
  2 15  2  0  0  0  0
  2 13  1  0  0  0  0
  3 10  2  0  0  0  0
  3 15  1  0  0  0  0
  4  9  2  0  0  0  0
  5  9  1  0  0  0  0
  6  4  1  0  0  0  0
  7  8  1  0  0  0  0
  8  6  2  0  0  0  0
  9 26  1  0  0  0  0
 11 10  1  1  0  0  0
 11  6  1  0  0  0  0
 11  1  1  0  0  0  0
 12  7  2  0  0  0  0
 12 10  1  0  0  0  0
 13 14  2  0  0  0  0
 14 16  1  0  0  0  0
 15 17  1  0  0  0  0
 17  1  1  0  0  0  0
 17 16  2  0  0  0  0
 18 22  1  0  0  0  0
 19 24  1  0  0  0  0
 20 28  1  0  0  0  0
 21 20  2  0  0  0  0
 22 21  1  0  0  0  0
 23 25  2  0  0  0  0
 24 22  2  0  0  0  0
 24 23  1  0  0  0  0
 25 20  1  0  0  0  0
 26 27  1  0  0  0  0
 26 19  2  0  0  0  0
 27 18  2  0  0  0  0
 28 30  2  0  0  0  0
 28 29  1  0  0  0  0
 31 34  1  0  0  0  0
 31 33  2  0  0  0  0
 32 31  1  0  0  0  0
 34 13  1  0  0  0  0
M  END
>  <MODEL>
5

>  <REMARK>
 VINA RESULT:     -10.7      4.110     10.654
  Name = 
  3 active torsions:
  status: ('A' for Active; 'I' for Inactive)
    1  A    between atoms: C_7  and  C_11
    2  A    between atoms: C_18  and  C_30
    3  A    between atoms: C_23  and  N_25
                            x       y       z     vdW  Elec       q    Type
                         _______ _______ _______ _____ _____    ______ ____

>  <TORSDO>
F 3

$$$$
=
 OpenBabel10272415253D

 34 39  0  0  1  0  0  0  0  0999 V2000
  190.0690  176.8970  138.0630 C   0  0  0  0  0  0  0  0  0  0  0  0
  192.6720  175.7460  135.6660 C   0  0  0  0  0  3  0  0  0  0  0  0
  190.4840  176.6890  135.2830 C   0  0  0  0  0  3  0  0  0  0  0  0
  187.5780  177.9860  139.1150 C   0  0  0  0  0  3  0  0  0  0  0  0
  189.8310  177.0160  139.5150 C   0  0  0  0  0  3  0  0  0  0  0  0
  187.8580  177.8500  137.6420 C   0  0  0  0  0  0  0  0  0  0  0  0
  187.0960  178.1560  135.3580 C   0  0  0  0  0  3  0  0  0  0  0  0
  186.8790  178.2650  136.7340 C   0  0  0  0  0  3  0  0  0  0  0  0
  188.6940  177.5130  140.0220 C   0  0  0  0  0  0  0  0  0  0  0  0
  189.2860  177.2120  135.7710 C   0  0  0  0  0  0  0  0  0  0  0  0
  189.0720  177.3190  137.1650 C   0  0  1  0  0  3  0  0  0  0  0  0
  188.2970  177.6310  134.8770 C   0  0  0  0  0  3  0  0  0  0  0  0
  193.6820  175.3180  136.5320 C   0  0  0  0  0  0  0  0  0  0  0  0
  193.4860  175.4170  137.9180 C   0  0  0  0  0  3  0  0  0  0  0  0
  191.4780  176.2680  136.1670 C   0  0  0  0  0  0  0  0  0  0  0  0
  192.2960  175.9380  138.4300 C   0  0  0  0  0  3  0  0  0  0  0  0
  191.2780  176.3690  137.5660 C   0  0  0  0  0  0  0  0  0  0  0  0
  187.1030  178.0040  143.4390 C   0  0  0  0  0  3  0  0  0  0  0  0
  189.6070  177.3730  142.3490 C   0  0  0  0  0  3  0  0  0  0  0  0
  189.1270  177.6250  146.5190 C   0  0  0  0  0  0  0  0  0  0  0  0
  188.0350  177.8560  145.6700 C   0  0  0  0  0  3  0  0  0  0  0  0
  188.1900  177.7740  144.2840 C   0  0  0  0  0  0  0  0  0  0  0  0
  190.5390  177.2250  144.5790 C   0  0  0  0  0  3  0  0  0  0  0  0
  189.4510  177.4550  143.7350 C   0  0  0  0  0  0  0  0  0  0  0  0
  190.3770  177.3090  145.9650 C   0  0  0  0  0  3  0  0  0  0  0  0
  188.5180  177.6040  141.4930 C   0  0  0  0  0  0  0  0  0  0  0  0
  187.2660  177.9190  142.0530 C   0  0  0  0  0  3  0  0  0  0  0  0
  188.9570  177.7140  147.9780 C   0  0  0  0  0  0  0  0  0  0  0  0
  189.7480  178.4060  148.6720 O   0  0  0  0  0  1  0  0  0  0  0  0
  187.9200  177.0340  148.6050 O   0  0  0  0  0  0  0  0  0  0  0  0
  196.0800  175.5210  135.6520 C   0  0  0  0  0  0  0  0  0  0  0  0
  197.2440  174.8010  135.0740 C   0  0  0  0  0  1  0  0  0  0  0  0
  196.1580  176.7620  135.8480 O   0  0  0  0  0  0  0  0  0  0  0  0
  194.8920  174.7880  135.9730 N   0  0  0  0  0  2  0  0  0  0  0  0
  1  5  2  0  0  0  0
  2 15  2  0  0  0  0
  2 13  1  0  0  0  0
  3 10  2  0  0  0  0
  3 15  1  0  0  0  0
  4  9  2  0  0  0  0
  5  9  1  0  0  0  0
  6  4  1  0  0  0  0
  7  8  1  0  0  0  0
  8  6  2  0  0  0  0
  9 26  1  0  0  0  0
 11 10  1  6  0  0  0
 11  6  1  0  0  0  0
 11  1  1  0  0  0  0
 12  7  2  0  0  0  0
 12 10  1  0  0  0  0
 13 14  2  0  0  0  0
 14 16  1  0  0  0  0
 15 17  1  0  0  0  0
 17  1  1  0  0  0  0
 17 16  2  0  0  0  0
 18 22  1  0  0  0  0
 19 24  1  0  0  0  0
 20 28  1  0  0  0  0
 21 20  2  0  0  0  0
 22 21  1  0  0  0  0
 23 25  2  0  0  0  0
 24 22  2  0  0  0  0
 24 23  1  0  0  0  0
 25 20  1  0  0  0  0
 26 27  1  0  0  0  0
 26 19  2  0  0  0  0
 27 18  2  0  0  0  0
 28 30  2  0  0  0  0
 28 29  1  0  0  0  0
 31 33  2  0  0  0  0
 31 34  1  0  0  0  0
 32 31  1  0  0  0  0
 34 13  1  0  0  0  0
M  END
>  <MODEL>
6

>  <REMARK>
 VINA RESULT:     -10.2      4.144     10.573
  Name = 
  3 active torsions:
  status: ('A' for Active; 'I' for Inactive)
    1  A    between atoms: C_7  and  C_11
    2  A    between atoms: C_18  and  C_30
    3  A    between atoms: C_23  and  N_25
                            x       y       z     vdW  Elec       q    Type
                         _______ _______ _______ _____ _____    ______ ____

>  <TORSDO>
F 3

$$$$
=
 OpenBabel10272415253D

 34 39  0  0  1  0  0  0  0  0999 V2000
  188.9560  176.9020  138.0620 C   0  0  0  0  0  0  0  0  0  0  0  0
  186.5630  176.9430  135.2110 C   0  0  0  0  0  3  0  0  0  0  0  0
  188.9450  176.5580  135.2640 C   0  0  0  0  0  3  0  0  0  0  0  0
  191.4370  176.6810  139.5740 C   0  0  0  0  0  3  0  0  0  0  0  0
  188.9840  177.0770  139.5270 C   0  0  0  0  0  3  0  0  0  0  0  0
  191.3680  176.5080  138.0810 C   0  0  0  0  0  0  0  0  0  0  0  0
  192.5300  176.0600  135.9980 C   0  0  0  0  0  3  0  0  0  0  0  0
  192.5480  176.2280  137.3850 C   0  0  0  0  0  3  0  0  0  0  0  0
  190.1130  176.9810  140.2440 C   0  0  0  0  0  0  0  0  0  0  0  0
  190.1410  176.4490  135.9740 C   0  0  0  0  0  0  0  0  0  0  0  0
  190.1530  176.6210  137.3780 C   0  0  1  0  0  3  0  0  0  0  0  0
  191.3290  176.1710  135.2930 C   0  0  0  0  0  3  0  0  0  0  0  0
  185.3570  177.2210  135.8610 C   0  0  0  0  0  0  0  0  0  0  0  0
  185.3510  177.3930  137.2530 C   0  0  0  0  0  3  0  0  0  0  0  0
  187.7540  176.8360  135.9340 C   0  0  0  0  0  0  0  0  0  0  0  0
  186.5360  177.2890  137.9860 C   0  0  0  0  0  3  0  0  0  0  0  0
  187.7500  177.0110  137.3400 C   0  0  0  0  0  0  0  0  0  0  0  0
  191.2160  177.5120  143.8420 C   0  0  0  0  0  3  0  0  0  0  0  0
  188.8410  177.1880  142.3900 C   0  0  0  0  0  3  0  0  0  0  0  0
  188.7050  177.7230  146.5590 C   0  0  0  0  0  0  0  0  0  0  0  0
  189.9390  177.7060  145.8910 C   0  0  0  0  0  3  0  0  0  0  0  0
  189.9880  177.5290  144.5070 C   0  0  0  0  0  0  0  0  0  0  0  0
  187.5630  177.3820  144.4380 C   0  0  0  0  0  3  0  0  0  0  0  0
  188.7920  177.3660  143.7750 C   0  0  0  0  0  0  0  0  0  0  0  0
  187.5210  177.5610  145.8240 C   0  0  0  0  0  3  0  0  0  0  0  0
  190.0720  177.1700  141.7150 C   0  0  0  0  0  0  0  0  0  0  0  0
  191.2570  177.3340  142.4560 C   0  0  0  0  0  3  0  0  0  0  0  0
  188.6610  177.9100  148.0180 C   0  0  0  0  0  0  0  0  0  0  0  0
  189.6720  178.3320  148.6380 O   0  0  0  0  0  0  0  0  0  0  0  0
  187.5000  177.6240  148.7260 O   0  0  0  0  0  1  0  0  0  0  0  0
  182.9530  176.5710  135.2590 C   0  0  0  0  0  0  0  0  0  0  0  0
  181.8050  176.8090  134.3460 C   0  0  0  0  0  1  0  0  0  0  0  0
  182.8440  175.7140  136.1750 O   0  0  0  0  0  0  0  0  0  0  0  0
  184.1600  177.3210  135.0790 N   0  0  0  0  0  2  0  0  0  0  0  0
  1  5  1  0  0  0  0
  2 13  2  0  0  0  0
  2 15  1  0  0  0  0
  3 15  2  0  0  0  0
  3 10  1  0  0  0  0
  4  9  1  0  0  0  0
  5  9  2  0  0  0  0
  6  4  2  0  0  0  0
  7  8  2  0  0  0  0
  8  6  1  0  0  0  0
  9 26  1  0  0  0  0
 11 10  1  1  0  0  0
 11  1  1  0  0  0  0
 11  6  1  0  0  0  0
 12 10  2  0  0  0  0
 12  7  1  0  0  0  0
 13 14  1  0  0  0  0
 14 16  2  0  0  0  0
 15 17  1  0  0  0  0
 17 16  1  0  0  0  0
 17  1  2  0  0  0  0
 18 22  1  0  0  0  0
 19 24  1  0  0  0  0
 20 28  1  0  0  0  0
 21 20  1  0  0  0  0
 22 21  2  0  0  0  0
 23 25  1  0  0  0  0
 24 23  2  0  0  0  0
 24 22  1  0  0  0  0
 25 20  2  0  0  0  0
 26 19  2  0  0  0  0
 26 27  1  0  0  0  0
 27 18  2  0  0  0  0
 28 29  2  0  0  0  0
 28 30  1  0  0  0  0
 31 33  2  0  0  0  0
 32 31  1  0  0  0  0
 34 31  1  0  0  0  0
 34 13  1  0  0  0  0
M  END
>  <MODEL>
7

>  <REMARK>
 VINA RESULT:      -9.7      4.163      8.557
  Name = 
  3 active torsions:
  status: ('A' for Active; 'I' for Inactive)
    1  A    between atoms: C_7  and  C_11
    2  A    between atoms: C_18  and  C_30
    3  A    between atoms: C_23  and  N_25
                            x       y       z     vdW  Elec       q    Type
                         _______ _______ _______ _____ _____    ______ ____

>  <TORSDO>
F 3

$$$$
