=
 OpenBabel10272400583D

 27 32  0  0  1  0  0  0  0  0999 V2000
  189.4410  177.9600  137.1580 C   0  0  0  0  0  2  0  0  0  0  0  0
  188.3550  177.6530  139.3680 C   0  0  0  0  0  0  0  0  0  0  0  0
  190.6470  176.6490  139.4870 N   0  0  0  0  0  2  0  0  0  0  0  0
  188.7530  178.4180  143.4660 N   0  0  0  0  0  2  0  0  0  0  0  0
  190.9670  179.0880  144.2250 C   0  0  0  0  0  1  0  0  0  0  0  0
  187.2720  178.2560  140.0430 C   0  0  0  0  0  3  0  0  0  0  0  0
  190.6660  177.3610  142.4400 C   0  0  1  0  0  3  0  0  0  0  0  0
  191.5870  174.1220  136.8710 C   0  0  0  0  0  2  0  0  0  0  0  0
  190.8990  175.8700  142.6070 C   0  0  0  0  0  1  0  0  0  0  0  0
  190.9940  174.7460  135.5900 C   0  0  2  0  0  3  0  0  0  0  0  0
  189.5660  177.6070  141.4640 C   0  0  0  0  0  0  0  0  0  0  0  0
  188.2960  177.4920  137.9390 N   0  0  0  0  0  0  0  0  0  0  0  0
  190.1020  177.9340  143.7580 C   0  0  2  0  0  3  0  0  0  0  0  0
  188.5080  178.1970  142.0940 C   0  0  0  0  0  0  0  0  0  0  0  0
  190.5220  176.8870  137.0350 C   0  0  2  0  0  3  0  0  0  0  0  0
  189.5290  177.3120  140.0950 C   0  0  0  0  0  0  0  0  0  0  0  0
  191.7900  175.0620  138.0540 C   0  0  0  0  0  2  0  0  0  0  0  0
  187.3390  178.5280  141.4150 C   0  0  0  0  0  3  0  0  0  0  0  0
  191.7710  175.9550  135.1160 C   0  0  0  0  0  2  0  0  0  0  0  0
  190.3790  176.1530  135.6990 C   0  0  1  0  0  3  0  0  0  0  0  0
  190.5660  175.9270  138.2230 C   0  0  1  0  0  3  0  0  0  0  0  0
  184.9660  175.7320  135.9580 C   0  0  0  0  0  3  0  0  0  0  0  0
  187.1590  176.8930  137.2790 C   0  0  0  0  0  0  0  0  0  0  0  0
  187.0210  175.4960  137.2130 C   0  0  0  0  0  3  0  0  0  0  0  0
  185.9300  174.9190  136.5590 C   0  0  0  0  0  3  0  0  0  0  0  0
  185.0940  177.1220  136.0100 C   0  0  0  0  0  3  0  0  0  0  0  0
  186.1860  177.6980  136.6660 C   0  0  0  0  0  3  0  0  0  0  0  0
  1 12  1  0  0  0  0
  2  6  2  0  0  0  0
  2 16  1  0  0  0  0
  3 16  1  0  0  0  0
  4 13  1  0  0  0  0
  6 18  1  0  0  0  0
  7  9  1  1  0  0  0
  7 13  1  0  0  0  0
  8 17  1  0  0  0  0
 10 19  1  6  0  0  0
 10 20  1  0  0  0  0
 10  8  1  0  0  0  0
 11 14  1  0  0  0  0
 11  7  1  0  0  0  0
 12  2  1  0  0  0  0
 13  5  1  6  0  0  0
 14  4  1  0  0  0  0
 15  1  1  1  0  0  0
 15 21  1  0  0  0  0
 16 11  2  0  0  0  0
 18 14  2  0  0  0  0
 20 19  1  6  0  0  0
 20 15  1  0  0  0  0
 21 17  1  6  0  0  0
 21  3  1  0  0  0  0
 22 26  2  0  0  0  0
 22 25  1  0  0  0  0
 23 12  1  0  0  0  0
 24 23  1  0  0  0  0
 25 24  2  0  0  0  0
 26 27  1  0  0  0  0
 27 23  2  0  0  0  0
M  END
>  <MODEL>
1

>  <REMARK>
 VINA RESULT:      -6.8      0.000      0.000
  Name = 
  1 active torsions:
  status: ('A' for Active; 'I' for Inactive)
    1  A    between atoms: C_9  and  N_15
                            x       y       z     vdW  Elec       q    Type
                         _______ _______ _______ _____ _____    ______ ____

>  <TORSDO>
F 1

$$$$
=
 OpenBabel10272400583D

 27 32  0  0  1  0  0  0  0  0999 V2000
  188.8410  178.4630  138.2230 C   0  0  0  0  0  2  0  0  0  0  0  0
  190.7370  177.1520  139.1410 C   0  0  0  0  0  0  0  0  0  0  0  0
  189.9880  176.0460  137.0220 N   0  0  0  0  0  2  0  0  0  0  0  0
  194.5530  175.6620  138.2720 N   0  0  0  0  0  2  0  0  0  0  0  0
  195.1990  175.6630  135.9250 C   0  0  0  0  0  1  0  0  0  0  0  0
  191.7780  177.4080  140.0580 C   0  0  0  0  0  3  0  0  0  0  0  0
  192.8590  175.1320  136.6350 C   0  0  1  0  0  3  0  0  0  0  0  0
  186.3520  175.1600  136.7020 C   0  0  0  0  0  2  0  0  0  0  0  0
  192.2210  173.7550  136.6110 C   0  0  0  0  0  1  0  0  0  0  0  0
  185.6610  176.4010  137.3080 C   0  0  2  0  0  3  0  0  0  0  0  0
  192.3170  175.9340  137.7690 C   0  0  0  0  0  0  0  0  0  0  0  0
  189.4470  177.7550  139.3510 N   0  0  0  0  0  0  0  0  0  0  0  0
  194.3550  174.9890  136.9890 C   0  0  2  0  0  3  0  0  0  0  0  0
  193.3090  176.2000  138.6680 C   0  0  0  0  0  0  0  0  0  0  0  0
  188.0360  177.5220  137.3270 C   0  0  2  0  0  3  0  0  0  0  0  0
  191.0080  176.3910  137.9710 C   0  0  0  0  0  0  0  0  0  0  0  0
  187.7990  175.3370  136.2590 C   0  0  0  0  0  2  0  0  0  0  0  0
  193.0740  176.9280  139.8300 C   0  0  0  0  0  3  0  0  0  0  0  0
  185.7430  177.6140  136.4060 C   0  0  0  0  0  2  0  0  0  0  0  0
  186.5510  177.5960  137.6960 C   0  0  1  0  0  3  0  0  0  0  0  0
  188.5620  176.0880  137.3210 C   0  0  1  0  0  3  0  0  0  0  0  0
  187.3860  177.5000  143.0650 C   0  0  0  0  0  3  0  0  0  0  0  0
  188.7580  177.6760  140.6170 C   0  0  0  0  0  0  0  0  0  0  0  0
  189.1520  176.7460  141.5940 C   0  0  0  0  0  3  0  0  0  0  0  0
  188.4730  176.6600  142.8100 C   0  0  0  0  0  3  0  0  0  0  0  0
  186.9780  178.4250  142.1010 C   0  0  0  0  0  3  0  0  0  0  0  0
  187.6600  178.5110  140.8830 C   0  0  0  0  0  3  0  0  0  0  0  0
  1 12  1  0  0  0  0
  2 12  1  0  0  0  0
  2  6  1  0  0  0  0
  3 21  1  0  0  0  0
  3 16  1  0  0  0  0
  4 14  1  0  0  0  0
  7  9  1  1  0  0  0
  7 13  1  0  0  0  0
  7 11  1  0  0  0  0
  8 10  1  0  0  0  0
 10 19  1  6  0  0  0
 10 20  1  0  0  0  0
 11 16  1  0  0  0  0
 11 14  2  0  0  0  0
 12 23  1  0  0  0  0
 13  5  1  6  0  0  0
 13  4  1  0  0  0  0
 14 18  1  0  0  0  0
 15 20  1  0  0  0  0
 15  1  1  1  0  0  0
 16  2  2  0  0  0  0
 17  8  1  0  0  0  0
 18  6  2  0  0  0  0
 20 19  1  6  0  0  0
 21 17  1  6  0  0  0
 21 15  1  0  0  0  0
 23 27  2  0  0  0  0
 23 24  1  0  0  0  0
 24 25  2  0  0  0  0
 25 22  1  0  0  0  0
 26 22  2  0  0  0  0
 27 26  1  0  0  0  0
M  END
>  <MODEL>
2

>  <REMARK>
 VINA RESULT:      -6.7      1.831      5.571
  Name = 
  1 active torsions:
  status: ('A' for Active; 'I' for Inactive)
    1  A    between atoms: C_9  and  N_15
                            x       y       z     vdW  Elec       q    Type
                         _______ _______ _______ _____ _____    ______ ____

>  <TORSDO>
F 1

$$$$
=
 OpenBabel10272400583D

 27 32  0  0  1  0  0  0  0  0999 V2000
  188.0520  176.1260  143.4280 C   0  0  0  0  0  2  0  0  0  0  0  0
  186.8100  177.7350  142.0050 C   0  0  0  0  0  0  0  0  0  0  0  0
  189.1790  177.6580  141.1970 N   0  0  0  0  0  2  0  0  0  0  0  0
  185.7590  178.6440  138.0540 N   0  0  0  0  0  2  0  0  0  0  0  0
  187.0230  177.5030  136.3150 C   0  0  0  0  0  1  0  0  0  0  0  0
  185.4490  177.9690  141.7130 C   0  0  0  0  0  3  0  0  0  0  0  0
  188.1190  178.2920  138.4220 C   0  0  1  0  0  3  0  0  0  0  0  0
  191.9060  178.2430  143.7140 C   0  0  0  0  0  2  0  0  0  0  0  0
  189.0620  179.4770  138.5360 C   0  0  0  0  0  1  0  0  0  0  0  0
  191.3940  177.4510  144.9360 C   0  0  2  0  0  3  0  0  0  0  0  0
  187.3250  178.1410  139.6740 C   0  0  0  0  0  0  0  0  0  0  0  0
  187.1850  177.3000  143.3250 N   0  0  0  0  0  0  0  0  0  0  0  0
  187.0440  178.6030  137.3580 C   0  0  2  0  0  3  0  0  0  0  0  0
  186.0010  178.3570  139.4150 C   0  0  0  0  0  0  0  0  0  0  0  0
  189.5310  176.5030  143.3470 C   0  0  2  0  0  3  0  0  0  0  0  0
  187.7740  177.8300  140.9640 C   0  0  0  0  0  0  0  0  0  0  0  0
  191.2910  177.8850  142.3660 C   0  0  0  0  0  2  0  0  0  0  0  0
  185.0350  178.2880  140.4140 C   0  0  0  0  0  3  0  0  0  0  0  0
  191.4950  175.9530  144.7440 C   0  0  0  0  0  2  0  0  0  0  0  0
  190.1200  176.6050  144.7570 C   0  0  1  0  0  3  0  0  0  0  0  0
  189.7960  177.7550  142.5140 C   0  0  1  0  0  3  0  0  0  0  0  0
  185.8300  179.2790  146.8410 C   0  0  0  0  0  3  0  0  0  0  0  0
  186.7350  177.9820  144.5160 C   0  0  0  0  0  0  0  0  0  0  0  0
  187.4060  177.8110  145.7380 C   0  0  0  0  0  3  0  0  0  0  0  0
  186.9590  178.4580  146.8930 C   0  0  0  0  0  3  0  0  0  0  0  0
  185.1490  179.4530  145.6330 C   0  0  0  0  0  3  0  0  0  0  0  0
  185.5980  178.8060  144.4780 C   0  0  0  0  0  3  0  0  0  0  0  0
  2 12  1  0  0  0  0
  3 21  1  0  0  0  0
  4 14  1  0  0  0  0
  6  2  1  0  0  0  0
  7  9  1  1  0  0  0
  7 11  1  0  0  0  0
 10  8  1  6  0  0  0
 11 16  1  0  0  0  0
 12  1  1  0  0  0  0
 12 23  1  0  0  0  0
 13  5  1  6  0  0  0
 13  4  1  0  0  0  0
 13  7  1  0  0  0  0
 14 11  2  0  0  0  0
 14 18  1  0  0  0  0
 15  1  1  1  0  0  0
 15 20  1  0  0  0  0
 16  3  1  0  0  0  0
 16  2  2  0  0  0  0
 17  8  1  0  0  0  0
 18  6  2  0  0  0  0
 19 10  1  0  0  0  0
 20 19  1  6  0  0  0
 20 10  1  0  0  0  0
 21 17  1  6  0  0  0
 21 15  1  0  0  0  0
 22 25  1  0  0  0  0
 23 24  1  0  0  0  0
 24 25  2  0  0  0  0
 26 22  2  0  0  0  0
 27 23  2  0  0  0  0
 27 26  1  0  0  0  0
M  END
>  <MODEL>
3

>  <REMARK>
 VINA RESULT:      -6.6      2.755      7.002
  Name = 
  1 active torsions:
  status: ('A' for Active; 'I' for Inactive)
    1  A    between atoms: C_9  and  N_15
                            x       y       z     vdW  Elec       q    Type
                         _______ _______ _______ _____ _____    ______ ____

>  <TORSDO>
F 1

$$$$
=
 OpenBabel10272400583D

 27 32  0  0  1  0  0  0  0  0999 V2000
  184.6730  179.5950  139.9060 C   0  0  0  0  0  2  0  0  0  0  0  0
  186.8110  178.3550  139.6860 C   0  0  0  0  0  0  0  0  0  0  0  0
  185.1860  177.3890  138.0430 N   0  0  0  0  0  2  0  0  0  0  0  0
  189.8140  177.2440  136.9870 N   0  0  0  0  0  2  0  0  0  0  0  0
  189.2860  177.5030  134.6250 C   0  0  0  0  0  1  0  0  0  0  0  0
  188.1540  178.6070  140.0410 C   0  0  0  0  0  3  0  0  0  0  0  0
  187.5650  176.7350  136.2710 C   0  0  1  0  0  3  0  0  0  0  0  0
  181.8470  176.2610  139.3410 C   0  0  0  0  0  2  0  0  0  0  0  0
  187.0260  175.3200  136.3880 C   0  0  0  0  0  1  0  0  0  0  0  0
  181.4880  177.3860  140.3350 C   0  0  2  0  0  3  0  0  0  0  0  0
  187.5960  177.3890  137.6100 C   0  0  0  0  0  0  0  0  0  0  0  0
  185.7540  178.8370  140.5360 N   0  0  0  0  0  0  0  0  0  0  0  0
  189.0560  176.6740  135.8740 C   0  0  2  0  0  3  0  0  0  0  0  0
  188.8870  177.6480  137.9720 C   0  0  0  0  0  0  0  0  0  0  0  0
  183.5660  178.6790  139.3830 C   0  0  2  0  0  3  0  0  0  0  0  0
  186.5220  177.7240  138.4450 C   0  0  0  0  0  0  0  0  0  0  0  0
  182.9140  176.5860  138.3020 C   0  0  0  0  0  2  0  0  0  0  0  0
  189.2040  178.2490  139.1860 C   0  0  0  0  0  3  0  0  0  0  0  0
  181.1080  178.6770  139.6430 C   0  0  0  0  0  2  0  0  0  0  0  0
  182.4250  178.6060  140.4020 C   0  0  1  0  0  3  0  0  0  0  0  0
  184.0650  177.2950  138.9700 C   0  0  1  0  0  3  0  0  0  0  0  0
  185.7430  178.1450  144.7360 C   0  0  0  0  0  3  0  0  0  0  0  0
  185.7390  178.5930  141.9600 C   0  0  0  0  0  0  0  0  0  0  0  0
  184.8130  179.2440  142.7910 C   0  0  0  0  0  3  0  0  0  0  0  0
  184.8130  179.0200  144.1690 C   0  0  0  0  0  3  0  0  0  0  0  0
  186.6740  177.4950  143.9210 C   0  0  0  0  0  3  0  0  0  0  0  0
  186.6730  177.7200  142.5410 C   0  0  0  0  0  3  0  0  0  0  0  0
  1 12  1  0  0  0  0
  2  6  1  0  0  0  0
  2 12  1  0  0  0  0
  3 16  1  0  0  0  0
  3 21  1  0  0  0  0
  4 14  1  0  0  0  0
  7  9  1  1  0  0  0
  7 11  1  0  0  0  0
 10  8  1  6  0  0  0
 10 20  1  0  0  0  0
 11 14  2  0  0  0  0
 11 16  1  0  0  0  0
 12 23  1  0  0  0  0
 13  5  1  6  0  0  0
 13  7  1  0  0  0  0
 13  4  1  0  0  0  0
 14 18  1  0  0  0  0
 15  1  1  1  0  0  0
 15 20  1  0  0  0  0
 16  2  2  0  0  0  0
 17  8  1  0  0  0  0
 18  6  2  0  0  0  0
 19 10  1  0  0  0  0
 20 19  1  6  0  0  0
 21 17  1  6  0  0  0
 21 15  1  0  0  0  0
 23 27  2  0  0  0  0
 23 24  1  0  0  0  0
 24 25  2  0  0  0  0
 25 22  1  0  0  0  0
 26 22  2  0  0  0  0
 27 26  1  0  0  0  0
M  END
>  <MODEL>
4

>  <REMARK>
 VINA RESULT:      -6.1      3.001      7.271
  Name = 
  1 active torsions:
  status: ('A' for Active; 'I' for Inactive)
    1  A    between atoms: C_9  and  N_15
                            x       y       z     vdW  Elec       q    Type
                         _______ _______ _______ _____ _____    ______ ____

>  <TORSDO>
F 1

$$$$
=
 OpenBabel10272400583D

 27 32  0  0  1  0  0  0  0  0999 V2000
  188.5980  175.9350  143.1300 C   0  0  0  0  0  2  0  0  0  0  0  0
  189.0120  176.9460  140.9030 C   0  0  0  0  0  0  0  0  0  0  0  0
  191.1640  176.9880  142.1830 N   0  0  0  0  0  2  0  0  0  0  0  0
  191.3650  176.6720  137.4490 N   0  0  0  0  0  2  0  0  0  0  0  0
  193.3740  175.3090  137.6220 C   0  0  0  0  0  1  0  0  0  0  0  0
  188.3600  176.9120  139.6520 C   0  0  0  0  0  3  0  0  0  0  0  0
  192.6050  176.7470  139.5190 C   0  0  1  0  0  3  0  0  0  0  0  0
  191.1390  178.5560  145.5960 C   0  0  0  0  0  2  0  0  0  0  0  0
  193.2640  178.0390  139.9710 C   0  0  0  0  0  1  0  0  0  0  0  0
  189.8080  178.0380  146.1810 C   0  0  2  0  0  3  0  0  0  0  0  0
  191.1320  176.8130  139.7410 C   0  0  0  0  0  0  0  0  0  0  0  0
  188.2280  176.9150  142.1090 N   0  0  0  0  0  0  0  0  0  0  0  0
  192.7250  176.6300  137.9840 C   0  0  2  0  0  3  0  0  0  0  0  0
  190.4790  176.7760  138.5430 C   0  0  0  0  0  0  0  0  0  0  0  0
  189.6700  176.4750  144.0760 C   0  0  2  0  0  3  0  0  0  0  0  0
  190.4330  176.9030  140.9520 C   0  0  0  0  0  0  0  0  0  0  0  0
  191.7040  177.7880  144.4070 C   0  0  0  0  0  2  0  0  0  0  0  0
  189.0910  176.8320  138.4590 C   0  0  0  0  0  3  0  0  0  0  0  0
  189.8600  176.5680  146.5390 C   0  0  0  0  0  2  0  0  0  0  0  0
  189.0150  177.0110  145.3530 C   0  0  1  0  0  3  0  0  0  0  0  0
  190.5970  177.4990  143.4240 C   0  0  1  0  0  3  0  0  0  0  0  0
  184.9230  179.5240  142.7280 C   0  0  0  0  0  3  0  0  0  0  0  0
  187.1150  177.8100  142.3260 C   0  0  0  0  0  0  0  0  0  0  0  0
  186.4130  177.8020  143.5440 C   0  0  0  0  0  3  0  0  0  0  0  0
  185.3260  178.6550  143.7440 C   0  0  0  0  0  3  0  0  0  0  0  0
  185.6070  179.5390  141.5100 C   0  0  0  0  0  3  0  0  0  0  0  0
  186.6960  178.6840  141.3100 C   0  0  0  0  0  3  0  0  0  0  0  0
  2 16  1  0  0  0  0
  2 12  1  0  0  0  0
  3 21  1  0  0  0  0
  4 13  1  0  0  0  0
  4 14  1  0  0  0  0
  6  2  2  0  0  0  0
  7 11  1  0  0  0  0
  7  9  1  6  0  0  0
 10  8  1  6  0  0  0
 10 19  1  0  0  0  0
 11 16  2  0  0  0  0
 12 23  1  0  0  0  0
 12  1  1  0  0  0  0
 13  5  1  1  0  0  0
 13  7  1  0  0  0  0
 14 11  1  0  0  0  0
 15  1  1  6  0  0  0
 15 20  1  0  0  0  0
 16  3  1  0  0  0  0
 17  8  1  0  0  0  0
 18 14  2  0  0  0  0
 18  6  1  0  0  0  0
 20 10  1  0  0  0  0
 20 19  1  1  0  0  0
 21 15  1  0  0  0  0
 21 17  1  1  0  0  0
 22 25  1  0  0  0  0
 23 24  1  0  0  0  0
 24 25  2  0  0  0  0
 26 22  2  0  0  0  0
 27 26  1  0  0  0  0
 27 23  2  0  0  0  0
M  END
>  <MODEL>
5

>  <REMARK>
 VINA RESULT:      -5.9      2.472      6.471
  Name = 
  1 active torsions:
  status: ('A' for Active; 'I' for Inactive)
    1  A    between atoms: C_9  and  N_15
                            x       y       z     vdW  Elec       q    Type
                         _______ _______ _______ _____ _____    ______ ____

>  <TORSDO>
F 1

$$$$
=
 OpenBabel10272400583D

 27 32  0  0  1  0  0  0  0  0999 V2000
  189.9010  178.7700  144.3500 C   0  0  0  0  0  2  0  0  0  0  0  0
  190.5390  177.5240  142.3010 C   0  0  0  0  0  0  0  0  0  0  0  0
  188.0770  177.9720  142.1980 N   0  0  0  0  0  2  0  0  0  0  0  0
  190.4810  177.6440  138.1150 N   0  0  0  0  0  2  0  0  0  0  0  0
  189.0000  179.2920  137.1070 C   0  0  0  0  0  1  0  0  0  0  0  0
  191.7460  177.2880  141.6100 C   0  0  0  0  0  3  0  0  0  0  0  0
  188.3460  178.0390  139.1730 C   0  0  1  0  0  3  0  0  0  0  0  0
  185.9810  176.9130  145.1300 C   0  0  0  0  0  2  0  0  0  0  0  0
  187.3090  176.9330  139.2420 C   0  0  0  0  0  1  0  0  0  0  0  0
  186.8720  177.3120  146.3260 C   0  0  2  0  0  3  0  0  0  0  0  0
  189.4310  177.7950  140.1660 C   0  0  0  0  0  0  0  0  0  0  0  0
  190.5530  177.6120  143.7380 N   0  0  0  0  0  0  0  0  0  0  0  0
  189.0840  177.9550  137.8180 C   0  0  2  0  0  3  0  0  0  0  0  0
  190.6120  177.5690  139.5190 C   0  0  0  0  0  0  0  0  0  0  0  0
  188.4090  178.5270  144.5770 C   0  0  2  0  0  3  0  0  0  0  0  0
  189.3490  177.7770  141.5640 C   0  0  0  0  0  0  0  0  0  0  0  0
  186.2960  177.5790  143.7950 C   0  0  0  0  0  2  0  0  0  0  0  0
  191.7910  177.3030  140.2100 C   0  0  0  0  0  3  0  0  0  0  0  0
  186.9290  178.8100  146.5370 C   0  0  0  0  0  2  0  0  0  0  0  0
  188.1670  178.0880  146.0250 C   0  0  1  0  0  3  0  0  0  0  0  0
  187.7870  177.5650  143.5670 C   0  0  1  0  0  3  0  0  0  0  0  0
  192.4390  174.6630  146.1590 C   0  0  0  0  0  3  0  0  0  0  0  0
  191.1810  176.6070  144.5640 C   0  0  0  0  0  0  0  0  0  0  0  0
  191.3680  176.8220  145.9400 C   0  0  0  0  0  3  0  0  0  0  0  0
  191.9910  175.8560  146.7320 C   0  0  0  0  0  3  0  0  0  0  0  0
  192.2650  174.4390  144.7910 C   0  0  0  0  0  3  0  0  0  0  0  0
  191.6400  175.4060  143.9980 C   0  0  0  0  0  3  0  0  0  0  0  0
  2 12  1  0  0  0  0
  3 21  1  0  0  0  0
  4 14  1  0  0  0  0
  6  2  1  0  0  0  0
  7  9  1  6  0  0  0
  7 11  1  0  0  0  0
 10  8  1  6  0  0  0
 10 19  1  0  0  0  0
 11 16  1  0  0  0  0
 12  1  1  0  0  0  0
 12 23  1  0  0  0  0
 13  5  1  1  0  0  0
 13  4  1  0  0  0  0
 13  7  1  0  0  0  0
 14 11  2  0  0  0  0
 14 18  1  0  0  0  0
 15  1  1  6  0  0  0
 15 20  1  0  0  0  0
 16  3  1  0  0  0  0
 16  2  2  0  0  0  0
 17  8  1  0  0  0  0
 18  6  2  0  0  0  0
 20 10  1  0  0  0  0
 20 19  1  1  0  0  0
 21 17  1  6  0  0  0
 21 15  1  0  0  0  0
 22 25  1  0  0  0  0
 23 24  1  0  0  0  0
 24 25  2  0  0  0  0
 26 22  2  0  0  0  0
 27 23  2  0  0  0  0
 27 26  1  0  0  0  0
M  END
>  <MODEL>
6

>  <REMARK>
 VINA RESULT:      -5.7      2.534      8.018
  Name = 
  1 active torsions:
  status: ('A' for Active; 'I' for Inactive)
    1  A    between atoms: C_9  and  N_15
                            x       y       z     vdW  Elec       q    Type
                         _______ _______ _______ _____ _____    ______ ____

>  <TORSDO>
F 1

$$$$
=
 OpenBabel10272400583D

 27 32  0  0  1  0  0  0  0  0999 V2000
  187.7690  177.4290  136.4650 C   0  0  0  0  0  2  0  0  0  0  0  0
  185.3740  177.0540  136.9920 C   0  0  0  0  0  0  0  0  0  0  0  0
  186.3680  178.4130  138.8460 N   0  0  0  0  0  2  0  0  0  0  0  0
  181.7580  178.9830  137.8570 N   0  0  0  0  0  2  0  0  0  0  0  0
  181.9140  181.3330  138.4710 C   0  0  0  0  0  1  0  0  0  0  0  0
  184.2300  176.6940  136.2470 C   0  0  0  0  0  3  0  0  0  0  0  0
  183.6280  179.6710  139.2200 C   0  0  1  0  0  3  0  0  0  0  0  0
  189.4600  177.0910  140.5210 C   0  0  0  0  0  2  0  0  0  0  0  0
  183.7830  179.1400  140.6340 C   0  0  0  0  0  1  0  0  0  0  0  0
  190.2730  176.5560  139.3230 C   0  0  2  0  0  3  0  0  0  0  0  0
  184.0080  178.6250  138.2290 C   0  0  0  0  0  0  0  0  0  0  0  0
  186.6530  176.4980  136.6350 N   0  0  0  0  0  0  0  0  0  0  0  0
  182.1300  179.9040  138.9300 C   0  0  2  0  0  3  0  0  0  0  0  0
  182.9170  178.2640  137.4900 C   0  0  0  0  0  0  0  0  0  0  0  0
  188.4820  177.7090  137.7880 C   0  0  2  0  0  3  0  0  0  0  0  0
  185.2620  178.0370  138.0130 C   0  0  0  0  0  0  0  0  0  0  0  0
  188.3530  178.0890  140.1990 C   0  0  0  0  0  2  0  0  0  0  0  0
  182.9890  177.2950  136.4950 C   0  0  0  0  0  3  0  0  0  0  0  0
  190.8570  177.6630  138.4720 C   0  0  0  0  0  2  0  0  0  0  0  0
  189.7220  176.8190  137.9100 C   0  0  1  0  0  3  0  0  0  0  0  0
  187.5680  177.6020  139.0070 C   0  0  1  0  0  3  0  0  0  0  0  0
  187.2740  172.3230  136.0970 C   0  0  0  0  0  3  0  0  0  0  0  0
  186.8510  175.0800  136.4460 C   0  0  0  0  0  0  0  0  0  0  0  0
  186.3000  174.1520  137.3460 C   0  0  0  0  0  3  0  0  0  0  0  0
  186.5080  172.7820  137.1710 C   0  0  0  0  0  3  0  0  0  0  0  0
  187.8330  173.2350  135.1980 C   0  0  0  0  0  3  0  0  0  0  0  0
  187.6230  174.6060  135.3740 C   0  0  0  0  0  3  0  0  0  0  0  0
  1 12  1  0  0  0  0
  2 16  1  0  0  0  0
  3 21  1  0  0  0  0
  4 13  1  0  0  0  0
  6 18  1  0  0  0  0
  6  2  2  0  0  0  0
  7  9  1  1  0  0  0
 10 19  1  6  0  0  0
 10  8  1  0  0  0  0
 11  7  1  0  0  0  0
 12  2  1  0  0  0  0
 13  5  1  6  0  0  0
 13  7  1  0  0  0  0
 14  4  1  0  0  0  0
 14 11  1  0  0  0  0
 15  1  1  6  0  0  0
 15 20  1  0  0  0  0
 15 21  1  0  0  0  0
 16 11  2  0  0  0  0
 16  3  1  0  0  0  0
 17  8  1  0  0  0  0
 18 14  2  0  0  0  0
 20 19  1  6  0  0  0
 20 10  1  0  0  0  0
 21 17  1  1  0  0  0
 22 25  1  0  0  0  0
 23 12  1  0  0  0  0
 23 24  1  0  0  0  0
 25 24  2  0  0  0  0
 26 27  1  0  0  0  0
 26 22  2  0  0  0  0
 27 23  2  0  0  0  0
M  END
>  <MODEL>
7

>  <REMARK>
 VINA RESULT:      -5.7      2.782      5.545
  Name = 
  1 active torsions:
  status: ('A' for Active; 'I' for Inactive)
    1  A    between atoms: C_9  and  N_15
                            x       y       z     vdW  Elec       q    Type
                         _______ _______ _______ _____ _____    ______ ____

>  <TORSDO>
F 1

$$$$
=
 OpenBabel10272400583D

 27 32  0  0  1  0  0  0  0  0999 V2000
  186.7420  176.3260  144.1450 C   0  0  0  0  0  2  0  0  0  0  0  0
  184.9620  178.0380  143.9100 C   0  0  0  0  0  0  0  0  0  0  0  0
  186.2140  177.9240  141.7440 N   0  0  0  0  0  2  0  0  0  0  0  0
  181.6320  179.1630  141.6320 N   0  0  0  0  0  2  0  0  0  0  0  0
  181.3840  178.0640  139.4750 C   0  0  0  0  0  1  0  0  0  0  0  0
  183.7580  178.3290  144.5860 C   0  0  0  0  0  3  0  0  0  0  0  0
  183.6320  178.7190  140.3560 C   0  0  1  0  0  3  0  0  0  0  0  0
  189.9500  178.3040  141.8610 C   0  0  0  0  0  2  0  0  0  0  0  0
  184.4820  179.8670  139.8390 C   0  0  0  0  0  1  0  0  0  0  0  0
  190.3210  177.4720  143.1080 C   0  0  2  0  0  3  0  0  0  0  0  0
  183.8460  178.5360  141.8200 C   0  0  0  0  0  0  0  0  0  0  0  0
  186.0850  177.5310  144.6530 N   0  0  0  0  0  0  0  0  0  0  0  0
  182.1420  179.1140  140.2630 C   0  0  2  0  0  3  0  0  0  0  0  0
  182.6900  178.8060  142.4960 C   0  0  0  0  0  0  0  0  0  0  0  0
  187.8240  176.6590  143.1190 C   0  0  2  0  0  3  0  0  0  0  0  0
  185.0120  178.1510  142.4930 C   0  0  0  0  0  0  0  0  0  0  0  0
  188.5840  178.0290  141.2430 C   0  0  0  0  0  2  0  0  0  0  0  0
  182.6120  178.7210  143.8820 C   0  0  0  0  0  3  0  0  0  0  0  0
  190.1900  175.9820  142.8750 C   0  0  0  0  0  2  0  0  0  0  0  0
  189.1970  176.6770  143.7970 C   0  0  1  0  0  3  0  0  0  0  0  0
  187.5470  177.9400  142.3340 C   0  0  1  0  0  3  0  0  0  0  0  0
  187.4650  179.3960  148.2210 C   0  0  0  0  0  3  0  0  0  0  0  0
  186.5630  178.1700  145.8560 C   0  0  0  0  0  0  0  0  0  0  0  0
  187.6720  177.6580  146.5510 C   0  0  0  0  0  3  0  0  0  0  0  0
  188.1210  178.2680  147.7240 C   0  0  0  0  0  3  0  0  0  0  0  0
  186.3570  179.9130  147.5440 C   0  0  0  0  0  3  0  0  0  0  0  0
  185.9080  179.3020  146.3690 C   0  0  0  0  0  3  0  0  0  0  0  0
  1 12  1  0  0  0  0
  2  6  1  0  0  0  0
  2 12  1  0  0  0  0
  3 21  1  0  0  0  0
  3 16  1  0  0  0  0
  4 14  1  0  0  0  0
  7  9  1  1  0  0  0
  7 11  1  0  0  0  0
 10  8  1  6  0  0  0
 10 20  1  0  0  0  0
 11 16  1  0  0  0  0
 11 14  2  0  0  0  0
 12 23  1  0  0  0  0
 13  5  1  6  0  0  0
 13  7  1  0  0  0  0
 13  4  1  0  0  0  0
 14 18  1  0  0  0  0
 15 20  1  0  0  0  0
 15  1  1  1  0  0  0
 16  2  2  0  0  0  0
 17  8  1  0  0  0  0
 18  6  2  0  0  0  0
 19 10  1  0  0  0  0
 20 19  1  6  0  0  0
 21 17  1  6  0  0  0
 21 15  1  0  0  0  0
 23 27  2  0  0  0  0
 23 24  1  0  0  0  0
 24 25  2  0  0  0  0
 25 22  1  0  0  0  0
 26 22  2  0  0  0  0
 27 26  1  0  0  0  0
M  END
>  <MODEL>
8

>  <REMARK>
 VINA RESULT:      -5.7      4.241      8.056
  Name = 
  1 active torsions:
  status: ('A' for Active; 'I' for Inactive)
    1  A    between atoms: C_9  and  N_15
                            x       y       z     vdW  Elec       q    Type
                         _______ _______ _______ _____ _____    ______ ____

>  <TORSDO>
F 1

$$$$
=
 OpenBabel10272400583D

 27 32  0  0  1  0  0  0  0  0999 V2000
  185.9500  179.4650  140.3610 C   0  0  0  0  0  2  0  0  0  0  0  0
  184.7110  178.5170  142.2910 C   0  0  0  0  0  0  0  0  0  0  0  0
  187.1590  178.1780  142.7020 N   0  0  0  0  0  2  0  0  0  0  0  0
  184.2940  178.6860  146.4550 N   0  0  0  0  0  2  0  0  0  0  0  0
  186.0790  179.8090  147.6690 C   0  0  0  0  0  1  0  0  0  0  0  0
  183.4160  178.6800  142.8260 C   0  0  0  0  0  3  0  0  0  0  0  0
  186.5570  178.3790  145.6720 C   0  0  1  0  0  3  0  0  0  0  0  0
  189.1620  176.4680  140.0230 C   0  0  0  0  0  2  0  0  0  0  0  0
  187.1990  177.0030  145.7060 C   0  0  0  0  0  1  0  0  0  0  0  0
  188.5920  177.1030  138.7370 C   0  0  2  0  0  3  0  0  0  0  0  0
  185.5800  178.4670  144.5500 C   0  0  0  0  0  0  0  0  0  0  0  0
  184.9000  178.5790  140.8650 N   0  0  0  0  0  0  0  0  0  0  0  0
  185.6710  178.5520  146.9250 C   0  0  2  0  0  3  0  0  0  0  0  0
  184.3170  178.6320  145.0440 C   0  0  0  0  0  0  0  0  0  0  0  0
  187.3080  178.7670  140.3120 C   0  0  2  0  0  3  0  0  0  0  0  0
  185.8220  178.4000  143.1720 C   0  0  0  0  0  0  0  0  0  0  0  0
  188.9100  177.2220  141.3230 C   0  0  0  0  0  2  0  0  0  0  0  0
  183.2080  178.7330  144.2100 C   0  0  0  0  0  3  0  0  0  0  0  0
  189.0300  178.5400  138.5520 C   0  0  0  0  0  2  0  0  0  0  0  0
  187.5760  178.2490  138.8950 C   0  0  1  0  0  3  0  0  0  0  0  0
  187.4720  177.6770  141.3690 C   0  0  1  0  0  3  0  0  0  0  0  0
  182.5650  176.2710  138.1570 C   0  0  0  0  0  3  0  0  0  0  0  0
  184.0970  177.8050  139.9480 C   0  0  0  0  0  0  0  0  0  0  0  0
  183.1520  176.8810  140.4240 C   0  0  0  0  0  3  0  0  0  0  0  0
  182.3900  176.1210  139.5350 C   0  0  0  0  0  3  0  0  0  0  0  0
  183.5050  177.1830  137.6700 C   0  0  0  0  0  3  0  0  0  0  0  0
  184.2680  177.9440  138.5610 C   0  0  0  0  0  3  0  0  0  0  0  0
  1 12  1  0  0  0  0
  2  6  2  0  0  0  0
  2 16  1  0  0  0  0
  3 16  1  0  0  0  0
  4 13  1  0  0  0  0
  6 18  1  0  0  0  0
  7  9  1  1  0  0  0
  7 13  1  0  0  0  0
  8 17  1  0  0  0  0
 10 19  1  6  0  0  0
 10 20  1  0  0  0  0
 10  8  1  0  0  0  0
 11 14  1  0  0  0  0
 11  7  1  0  0  0  0
 12  2  1  0  0  0  0
 13  5  1  6  0  0  0
 14  4  1  0  0  0  0
 15  1  1  6  0  0  0
 15 21  1  0  0  0  0
 16 11  2  0  0  0  0
 18 14  2  0  0  0  0
 20 19  1  6  0  0  0
 20 15  1  0  0  0  0
 21 17  1  1  0  0  0
 21  3  1  0  0  0  0
 22 25  1  0  0  0  0
 23 24  1  0  0  0  0
 23 12  1  0  0  0  0
 25 24  2  0  0  0  0
 26 22  2  0  0  0  0
 26 27  1  0  0  0  0
 27 23  2  0  0  0  0
M  END
>  <MODEL>
9

>  <REMARK>
 VINA RESULT:      -5.6      3.446      4.788
  Name = 
  1 active torsions:
  status: ('A' for Active; 'I' for Inactive)
    1  A    between atoms: C_9  and  N_15
                            x       y       z     vdW  Elec       q    Type
                         _______ _______ _______ _____ _____    ______ ____

>  <TORSDO>
F 1

$$$$
