=
 OpenBabel10272415173D

 34 38  0  0  1  0  0  0  0  0999 V2000
  188.3510  177.7310  144.8550 C   0  0  0  0  0  0  0  0  0  0  0  0
  191.5980  177.1500  143.2310 C   0  0  0  0  0  3  0  0  0  0  0  0
  190.8970  176.8390  145.3490 O   0  0  0  0  0  0  0  0  0  0  0  0
  186.1610  178.4120  145.6880 C   0  0  0  0  0  0  0  0  0  0  0  0
  187.0410  178.1960  144.6310 C   0  0  0  0  0  3  0  0  0  0  0  0
  187.8600  177.6890  147.2550 C   0  0  0  0  0  0  0  0  0  0  0  0
  188.2230  177.4510  148.6140 N   0  0  0  0  0  1  0  0  0  0  0  0
  186.5730  178.1620  146.9940 C   0  0  0  0  0  3  0  0  0  0  0  0
  190.0690  176.9600  146.3760 C   0  0  0  0  0  0  0  0  0  0  0  0
  188.7670  177.4640  146.1850 C   0  0  0  0  0  0  0  0  0  0  0  0
  190.4830  176.6360  147.5210 O   0  0  0  0  0  0  0  0  0  0  0  0
  191.5740  177.7220  141.8550 C   0  0  0  0  0  2  0  0  0  0  0  0
  190.6100  177.0270  140.9620 C   0  0  0  0  0  0  0  0  0  0  0  0
  189.3150  177.0040  141.2610 C   0  0  0  0  0  3  0  0  0  0  0  0
  190.5780  177.1370  144.0950 C   0  0  0  0  0  0  0  0  0  0  0  0
  188.7040  177.4360  142.5310 C   0  0  0  0  0  3  0  0  0  0  0  0
  189.2340  177.4860  143.7750 C   0  0  0  0  0  0  0  0  0  0  0  0
  191.0550  176.5220  139.6950 N   0  0  0  0  0  0  0  0  0  0  0  0
  190.3170  175.7740  139.0200 O   0  0  0  0  0  0  0  0  0  0  0  0
  192.2910  176.8700  139.1980 O   0  0  0  0  0  0  0  0  0  0  0  0
  184.7870  178.9300  145.4250 C   0  0  0  0  0  2  0  0  0  0  0  0
  182.2060  178.8330  142.7640 C   0  0  0  0  0  3  0  0  0  0  0  0
  185.0600  179.1790  142.9330 C   0  0  0  0  0  2  0  0  0  0  0  0
  183.1470  178.6460  139.1090 C   0  0  0  0  0  0  0  0  0  0  0  0
  182.3820  178.6690  140.2860 C   0  0  0  0  0  3  0  0  0  0  0  0
  183.0060  178.8080  141.5290 C   0  0  0  0  0  0  0  0  0  0  0  0
  185.1680  178.9230  140.4350 C   0  0  0  0  0  3  0  0  0  0  0  0
  184.4050  178.9310  141.6040 C   0  0  0  0  0  0  0  0  0  0  0  0
  184.5430  178.7740  139.1930 C   0  0  0  0  0  3  0  0  0  0  0  0
  184.2850  178.4820  144.0610 C   0  0  2  0  0  3  0  0  0  0  0  0
  182.8030  178.7290  143.9560 C   0  0  0  0  0  3  0  0  0  0  0  0
  182.5130  178.4970  137.8320 N   0  0  0  0  0  0  0  0  0  0  0  0
  181.4140  179.2600  137.5090 O   0  0  0  0  0  0  0  0  0  0  0  0
  182.9490  177.6770  136.9980 O   0  0  0  0  0  0  0  0  0  0  0  0
  1 10  1  0  0  0  0
  2 15  2  0  0  0  0
  3  9  1  0  0  0  0
  4  8  2  0  0  0  0
  5  1  2  0  0  0  0
  5  4  1  0  0  0  0
  6  7  1  0  0  0  0
  8  6  1  0  0  0  0
  9 11  2  0  0  0  0
 10  9  1  0  0  0  0
 10  6  2  0  0  0  0
 12  2  1  0  0  0  0
 13 14  2  0  0  0  0
 13 12  1  0  0  0  0
 14 16  1  0  0  0  0
 15  3  1  0  0  0  0
 16 17  2  0  0  0  0
 17 15  1  0  0  0  0
 17  1  1  0  0  0  0
 18 13  1  0  0  0  0
 19 18  2  0  0  0  0
 20 18  2  0  0  0  0
 21  4  1  0  0  0  0
 22 31  2  0  0  0  0
 23 30  1  0  0  0  0
 24 29  2  0  0  0  0
 24 25  1  0  0  0  0
 25 26  2  0  0  0  0
 26 28  1  0  0  0  0
 26 22  1  0  0  0  0
 27 28  2  0  0  0  0
 28 23  1  0  0  0  0
 29 27  1  0  0  0  0
 30 21  1  1  0  0  0
 31 30  1  0  0  0  0
 32 24  1  0  0  0  0
 33 32  2  0  0  0  0
 34 32  2  0  0  0  0
M  END
>  <MODEL>
1

>  <REMARK>
 VINA RESULT:     -11.5      0.000      0.000
  Name = 
  4 active torsions:
  status: ('A' for Active; 'I' for Inactive)
    1  A    between atoms: N_3  and  C_25
    2  A    between atoms: C_7  and  N_11
    3  A    between atoms: C_8  and  C_18
    4  A    between atoms: C_18  and  C_30
                            x       y       z     vdW  Elec       q    Type
                         _______ _______ _______ _____ _____    ______ ____

>  <TORSDO>
F 4

$$$$
=
 OpenBabel10272415173D

 34 38  0  0  1  0  0  0  0  0999 V2000
  184.1660  178.7090  141.4820 C   0  0  0  0  0  0  0  0  0  0  0  0
  185.5900  178.0210  138.1630 C   0  0  0  0  0  3  0  0  0  0  0  0
  183.5710  178.7830  138.8060 O   0  0  0  0  0  0  0  0  0  0  0  0
  183.4380  178.8700  143.8050 C   0  0  0  0  0  0  0  0  0  0  0  0
  184.4420  178.6670  142.8620 C   0  0  0  0  0  3  0  0  0  0  0  0
  181.8250  179.1840  142.0270 C   0  0  0  0  0  0  0  0  0  0  0  0
  180.4720  179.4470  141.6600 N   0  0  0  0  0  1  0  0  0  0  0  0
  182.1350  179.1230  143.3860 C   0  0  0  0  0  3  0  0  0  0  0  0
  182.6010  179.0550  139.6680 C   0  0  0  0  0  0  0  0  0  0  0  0
  182.8400  178.9790  141.0550 C   0  0  0  0  0  0  0  0  0  0  0  0
  181.4650  179.3580  139.2160 O   0  0  0  0  0  0  0  0  0  0  0  0
  186.9020  177.3320  138.3190 C   0  0  0  0  0  2  0  0  0  0  0  0
  187.9280  178.1920  138.9660 C   0  0  0  0  0  0  0  0  0  0  0  0
  187.7300  178.6650  140.1920 C   0  0  0  0  0  3  0  0  0  0  0  0
  184.8100  178.4620  139.1560 C   0  0  0  0  0  0  0  0  0  0  0  0
  186.4750  178.6030  140.9610 C   0  0  0  0  0  3  0  0  0  0  0  0
  185.1950  178.5300  140.5260 C   0  0  0  0  0  0  0  0  0  0  0  0
  189.2000  178.3770  138.3290 N   0  0  0  0  0  0  0  0  0  0  0  0
  189.2980  179.0990  137.3150 O   0  0  0  0  0  0  0  0  0  0  0  0
  190.3320  177.7810  138.8390 O   0  0  0  0  0  0  0  0  0  0  0  0
  183.7520  178.7950  145.2620 C   0  0  0  0  0  2  0  0  0  0  0  0
  186.7170  178.2240  147.4150 C   0  0  0  0  0  3  0  0  0  0  0  0
  185.9270  177.6510  144.7060 C   0  0  0  0  0  2  0  0  0  0  0  0
  189.9910  177.0000  145.9800 C   0  0  0  0  0  0  0  0  0  0  0  0
  189.0330  177.4790  146.8880 C   0  0  0  0  0  3  0  0  0  0  0  0
  187.7230  177.7220  146.4660 C   0  0  0  0  0  0  0  0  0  0  0  0
  188.3040  176.9910  144.2270 C   0  0  0  0  0  3  0  0  0  0  0  0
  187.3590  177.4820  145.1290 C   0  0  0  0  0  0  0  0  0  0  0  0
  189.6170  176.7580  144.6490 C   0  0  0  0  0  3  0  0  0  0  0  0
  185.2550  178.7830  145.4970 C   0  0  2  0  0  3  0  0  0  0  0  0
  185.5400  178.6780  146.9730 C   0  0  0  0  0  3  0  0  0  0  0  0
  191.3380  176.7540  146.4060 N   0  0  0  0  0  0  0  0  0  0  0  0
  191.7690  177.1970  147.6350 O   0  0  0  0  0  0  0  0  0  0  0  0
  192.1330  176.1360  145.6690 O   0  0  0  0  0  0  0  0  0  0  0  0
  1  5  1  0  0  0  0
  2 12  1  0  0  0  0
  2 15  2  0  0  0  0
  3 15  1  0  0  0  0
  3  9  1  0  0  0  0
  4 21  1  0  0  0  0
  5  4  2  0  0  0  0
  6  8  2  0  0  0  0
  7  6  1  0  0  0  0
  8  4  1  0  0  0  0
  9 10  1  0  0  0  0
 10  1  2  0  0  0  0
 10  6  1  0  0  0  0
 11  9  2  0  0  0  0
 12 13  1  0  0  0  0
 13 14  2  0  0  0  0
 14 16  1  0  0  0  0
 15 17  1  0  0  0  0
 17 16  2  0  0  0  0
 17  1  1  0  0  0  0
 18 20  2  0  0  0  0
 18 13  1  0  0  0  0
 19 18  2  0  0  0  0
 23 28  1  0  0  0  0
 23 30  1  0  0  0  0
 24 32  1  0  0  0  0
 24 25  1  0  0  0  0
 26 25  2  0  0  0  0
 26 22  1  0  0  0  0
 27 29  1  0  0  0  0
 27 28  2  0  0  0  0
 28 26  1  0  0  0  0
 29 24  2  0  0  0  0
 30 21  1  1  0  0  0
 30 31  1  0  0  0  0
 31 22  2  0  0  0  0
 32 33  2  0  0  0  0
 34 32  2  0  0  0  0
M  END
>  <MODEL>
2

>  <REMARK>
 VINA RESULT:     -11.3      1.848      7.426
  Name = 
  4 active torsions:
  status: ('A' for Active; 'I' for Inactive)
    1  A    between atoms: N_3  and  C_25
    2  A    between atoms: C_7  and  N_11
    3  A    between atoms: C_8  and  C_18
    4  A    between atoms: C_18  and  C_30
                            x       y       z     vdW  Elec       q    Type
                         _______ _______ _______ _____ _____    ______ ____

>  <TORSDO>
F 4

$$$$
=
 OpenBabel10272415173D

 34 38  0  0  1  0  0  0  0  0999 V2000
  189.1050  177.6170  144.5700 C   0  0  0  0  0  0  0  0  0  0  0  0
  191.8100  177.1340  142.1270 C   0  0  0  0  0  3  0  0  0  0  0  0
  191.7270  176.8420  144.3580 O   0  0  0  0  0  0  0  0  0  0  0  0
  187.1960  178.2270  145.9620 C   0  0  0  0  0  0  0  0  0  0  0  0
  187.7640  178.0230  144.7070 C   0  0  0  0  0  3  0  0  0  0  0  0
  189.2880  177.6080  147.0130 C   0  0  0  0  0  0  0  0  0  0  0  0
  190.0180  177.4160  148.2230 N   0  0  0  0  0  1  0  0  0  0  0  0
  187.9590  178.0230  147.1090 C   0  0  0  0  0  3  0  0  0  0  0  0
  191.2050  176.9510  145.5720 C   0  0  0  0  0  0  0  0  0  0  0  0
  189.8790  177.3980  145.7390 C   0  0  0  0  0  0  0  0  0  0  0  0
  191.9300  176.6710  146.5630 O   0  0  0  0  0  0  0  0  0  0  0  0
  191.3860  177.6740  140.8040 C   0  0  0  0  0  2  0  0  0  0  0  0
  190.2470  176.9210  140.2150 C   0  0  0  0  0  0  0  0  0  0  0  0
  189.0850  176.8520  140.8570 C   0  0  0  0  0  3  0  0  0  0  0  0
  191.0650  177.0980  143.2370 C   0  0  0  0  0  0  0  0  0  0  0  0
  188.8240  177.2860  142.2410 C   0  0  0  0  0  3  0  0  0  0  0  0
  189.6700  177.3850  143.2920 C   0  0  0  0  0  0  0  0  0  0  0  0
  190.3540  176.4060  138.8800 N   0  0  0  0  0  0  0  0  0  0  0  0
  190.9780  175.3460  138.6620 O   0  0  0  0  0  0  0  0  0  0  0  0
  189.7530  177.0590  137.8280 O   0  0  0  0  0  0  0  0  0  0  0  0
  185.7800  178.6820  146.0790 C   0  0  0  0  0  2  0  0  0  0  0  0
  182.7070  178.8260  144.0090 C   0  0  0  0  0  3  0  0  0  0  0  0
  185.5500  179.0130  143.5920 C   0  0  0  0  0  2  0  0  0  0  0  0
  182.8650  178.7320  140.2340 C   0  0  0  0  0  0  0  0  0  0  0  0
  182.3610  178.7500  141.5450 C   0  0  0  0  0  3  0  0  0  0  0  0
  183.2330  178.8070  142.6340 C   0  0  0  0  0  0  0  0  0  0  0  0
  185.1280  178.8500  141.1200 C   0  0  0  0  0  3  0  0  0  0  0  0
  184.6230  178.8520  142.4210 C   0  0  0  0  0  0  0  0  0  0  0  0
  184.2530  178.7820  140.0310 C   0  0  0  0  0  3  0  0  0  0  0  0
  184.9830  178.3150  144.8370 C   0  0  2  0  0  3  0  0  0  0  0  0
  183.5280  178.6440  145.0480 C   0  0  0  0  0  3  0  0  0  0  0  0
  181.9740  178.6670  139.1130 N   0  0  0  0  0  0  0  0  0  0  0  0
  180.7420  178.0690  139.2380 O   0  0  0  0  0  0  0  0  0  0  0  0
  182.3050  179.1530  138.0110 O   0  0  0  0  0  0  0  0  0  0  0  0
  1  5  2  0  0  0  0
  1 10  1  0  0  0  0
  2 15  2  0  0  0  0
  3  9  1  0  0  0  0
  4 21  1  0  0  0  0
  4  8  2  0  0  0  0
  5  4  1  0  0  0  0
  6  8  1  0  0  0  0
  6  7  1  0  0  0  0
  9 10  1  0  0  0  0
  9 11  2  0  0  0  0
 10  6  2  0  0  0  0
 12  2  1  0  0  0  0
 13 12  1  0  0  0  0
 13 14  2  0  0  0  0
 14 16  1  0  0  0  0
 15 17  1  0  0  0  0
 15  3  1  0  0  0  0
 16 17  2  0  0  0  0
 17  1  1  0  0  0  0
 18 13  1  0  0  0  0
 19 18  2  0  0  0  0
 20 18  2  0  0  0  0
 22 31  2  0  0  0  0
 23 30  1  0  0  0  0
 24 25  1  0  0  0  0
 25 26  2  0  0  0  0
 26 22  1  0  0  0  0
 27 28  2  0  0  0  0
 28 26  1  0  0  0  0
 28 23  1  0  0  0  0
 29 24  2  0  0  0  0
 29 27  1  0  0  0  0
 30 31  1  0  0  0  0
 30 21  1  1  0  0  0
 32 33  2  0  0  0  0
 32 24  1  0  0  0  0
 34 32  2  0  0  0  0
M  END
>  <MODEL>
3

>  <REMARK>
 VINA RESULT:     -11.1      1.044      1.289
  Name = 
  4 active torsions:
  status: ('A' for Active; 'I' for Inactive)
    1  A    between atoms: N_3  and  C_25
    2  A    between atoms: C_7  and  N_11
    3  A    between atoms: C_8  and  C_18
    4  A    between atoms: C_18  and  C_30
                            x       y       z     vdW  Elec       q    Type
                         _______ _______ _______ _____ _____    ______ ____

>  <TORSDO>
F 4

$$$$
=
 OpenBabel10272415173D

 34 38  0  0  1  0  0  0  0  0999 V2000
  186.8140  178.2590  141.3580 C   0  0  0  0  0  0  0  0  0  0  0  0
  189.0410  177.3860  138.5660 C   0  0  0  0  0  3  0  0  0  0  0  0
  187.0290  178.3960  138.6270 O   0  0  0  0  0  0  0  0  0  0  0  0
  185.4720  178.5190  143.3800 C   0  0  0  0  0  0  0  0  0  0  0  0
  186.6740  178.1900  142.7580 C   0  0  0  0  0  3  0  0  0  0  0  0
  184.4900  179.0240  141.2240 C   0  0  0  0  0  0  0  0  0  0  0  0
  183.3420  179.4520  140.4940 N   0  0  0  0  0  1  0  0  0  0  0  0
  184.3850  178.9310  142.6130 C   0  0  0  0  0  3  0  0  0  0  0  0
  185.8920  178.7900  139.1840 C   0  0  0  0  0  0  0  0  0  0  0  0
  185.7100  178.6900  140.5780 C   0  0  0  0  0  0  0  0  0  0  0  0
  184.9800  179.2300  138.4350 O   0  0  0  0  0  0  0  0  0  0  0  0
  190.1590  176.5400  139.0700 C   0  0  0  0  0  2  0  0  0  0  0  0
  191.0510  177.2680  140.0100 C   0  0  0  0  0  0  0  0  0  0  0  0
  190.5670  177.7680  141.1430 C   0  0  0  0  0  3  0  0  0  0  0  0
  188.0670  177.9240  139.3080 C   0  0  0  0  0  0  0  0  0  0  0  0
  189.1450  177.8650  141.5170 C   0  0  0  0  0  3  0  0  0  0  0  0
  188.0460  177.9500  140.7320 C   0  0  0  0  0  0  0  0  0  0  0  0
  192.4650  177.2910  139.7710 N   0  0  0  0  0  0  0  0  0  0  0  0
  193.2520  177.6350  140.6770 O   0  0  0  0  0  0  0  0  0  0  0  0
  192.9750  176.9130  138.5490 O   0  0  0  0  0  0  0  0  0  0  0  0
  185.3420  178.4120  144.8620 C   0  0  0  0  0  2  0  0  0  0  0  0
  187.5700  177.6660  147.7300 C   0  0  0  0  0  3  0  0  0  0  0  0
  187.6450  177.3900  144.8650 C   0  0  0  0  0  2  0  0  0  0  0  0
  191.1850  176.6890  147.2180 C   0  0  0  0  0  0  0  0  0  0  0  0
  189.9770  177.0390  147.8430 C   0  0  0  0  0  3  0  0  0  0  0  0
  188.8380  177.2990  147.0780 C   0  0  0  0  0  0  0  0  0  0  0  0
  190.0910  176.8440  145.0500 C   0  0  0  0  0  3  0  0  0  0  0  0
  188.8960  177.2060  145.6750 C   0  0  0  0  0  0  0  0  0  0  0  0
  191.2320  176.5940  145.8180 C   0  0  0  0  0  3  0  0  0  0  0  0
  186.7070  178.4070  145.5320 C   0  0  2  0  0  3  0  0  0  0  0  0
  186.5520  178.1400  147.0070 C   0  0  0  0  0  3  0  0  0  0  0  0
  192.3590  176.4270  147.9990 N   0  0  0  0  0  0  0  0  0  0  0  0
  192.7330  177.2910  149.0020 O   0  0  0  0  0  0  0  0  0  0  0  0
  193.0540  175.4140  147.7780 O   0  0  0  0  0  0  0  0  0  0  0  0
  1  5  1  0  0  0  0
  2 12  1  0  0  0  0
  2 15  2  0  0  0  0
  3  9  1  0  0  0  0
  3 15  1  0  0  0  0
  4 21  1  0  0  0  0
  5  4  2  0  0  0  0
  6  8  2  0  0  0  0
  7  6  1  0  0  0  0
  8  4  1  0  0  0  0
  9 10  1  0  0  0  0
 10  6  1  0  0  0  0
 10  1  2  0  0  0  0
 11  9  2  0  0  0  0
 12 13  1  0  0  0  0
 13 14  2  0  0  0  0
 14 16  1  0  0  0  0
 15 17  1  0  0  0  0
 17  1  1  0  0  0  0
 17 16  2  0  0  0  0
 18 13  1  0  0  0  0
 18 19  2  0  0  0  0
 20 18  2  0  0  0  0
 23 30  1  0  0  0  0
 23 28  1  0  0  0  0
 24 25  1  0  0  0  0
 24 32  1  0  0  0  0
 26 22  1  0  0  0  0
 26 25  2  0  0  0  0
 27 28  2  0  0  0  0
 27 29  1  0  0  0  0
 28 26  1  0  0  0  0
 29 24  2  0  0  0  0
 30 21  1  6  0  0  0
 30 31  1  0  0  0  0
 31 22  2  0  0  0  0
 32 33  2  0  0  0  0
 34 32  2  0  0  0  0
M  END
>  <MODEL>
4

>  <REMARK>
 VINA RESULT:     -10.8      1.948      7.450
  Name = 
  4 active torsions:
  status: ('A' for Active; 'I' for Inactive)
    1  A    between atoms: N_3  and  C_25
    2  A    between atoms: C_7  and  N_11
    3  A    between atoms: C_8  and  C_18
    4  A    between atoms: C_18  and  C_30
                            x       y       z     vdW  Elec       q    Type
                         _______ _______ _______ _____ _____    ______ ____

>  <TORSDO>
F 4

$$$$
=
 OpenBabel10272415173D

 34 38  0  0  1  0  0  0  0  0999 V2000
  186.9230  178.1310  144.4620 C   0  0  0  0  0  0  0  0  0  0  0  0
  188.8790  177.6010  147.5300 C   0  0  0  0  0  3  0  0  0  0  0  0
  186.6670  177.8260  147.1750 O   0  0  0  0  0  0  0  0  0  0  0  0
  185.9310  178.6840  142.3030 C   0  0  0  0  0  0  0  0  0  0  0  0
  187.0300  178.3030  143.0680 C   0  0  0  0  0  3  0  0  0  0  0  0
  184.5530  178.7240  144.2940 C   0  0  0  0  0  0  0  0  0  0  0  0
  183.2660  178.9570  144.8630 N   0  0  0  0  0  1  0  0  0  0  0  0
  184.6990  178.8970  142.9160 C   0  0  0  0  0  3  0  0  0  0  0  0
  185.5790  178.1160  146.4750 C   0  0  0  0  0  0  0  0  0  0  0  0
  185.6660  178.3360  145.0850 C   0  0  0  0  0  0  0  0  0  0  0  0
  184.4820  178.2120  147.0850 O   0  0  0  0  0  0  0  0  0  0  0  0
  190.3320  177.7310  147.2210 C   0  0  0  0  0  2  0  0  0  0  0  0
  190.8210  176.6640  146.3080 C   0  0  0  0  0  0  0  0  0  0  0  0
  190.3030  176.5330  145.0910 C   0  0  0  0  0  3  0  0  0  0  0  0
  187.8770  177.6870  146.6480 C   0  0  0  0  0  0  0  0  0  0  0  0
  189.1090  177.2210  144.5710 C   0  0  0  0  0  3  0  0  0  0  0  0
  188.0370  177.7160  145.2330 C   0  0  0  0  0  0  0  0  0  0  0  0
  191.9640  175.8820  146.6830 N   0  0  0  0  0  0  0  0  0  0  0  0
  192.3570  174.9490  145.9500 O   0  0  0  0  0  0  0  0  0  0  0  0
  192.6560  176.1620  147.8400 O   0  0  0  0  0  0  0  0  0  0  0  0
  186.0760  178.8840  140.8310 C   0  0  0  0  0  2  0  0  0  0  0  0
  188.2180  177.7230  138.0360 C   0  0  0  0  0  3  0  0  0  0  0  0
  188.5550  178.4350  140.8060 C   0  0  0  0  0  2  0  0  0  0  0  0
  191.7810  176.6030  138.6150 C   0  0  0  0  0  0  0  0  0  0  0  0
  190.5580  176.8740  137.9800 C   0  0  0  0  0  3  0  0  0  0  0  0
  189.5010  177.4370  138.6990 C   0  0  0  0  0  0  0  0  0  0  0  0
  190.8800  177.4860  140.6950 C   0  0  0  0  0  3  0  0  0  0  0  0
  189.6610  177.7400  140.0640 C   0  0  0  0  0  0  0  0  0  0  0  0
  191.9330  176.9130  139.9750 C   0  0  0  0  0  3  0  0  0  0  0  0
  187.1820  178.0070  140.2660 C   0  0  2  0  0  3  0  0  0  0  0  0
  187.1400  178.0370  138.7610 C   0  0  0  0  0  3  0  0  0  0  0  0
  192.8670  176.0200  137.8830 N   0  0  0  0  0  0  0  0  0  0  0  0
  193.8560  176.8170  137.3540 O   0  0  0  0  0  0  0  0  0  0  0  0
  192.9290  174.7840  137.7170 O   0  0  0  0  0  0  0  0  0  0  0  0
  1 10  1  0  0  0  0
  1 17  1  0  0  0  0
  4  8  2  0  0  0  0
  4  5  1  0  0  0  0
  5  1  2  0  0  0  0
  6  7  1  0  0  0  0
  6 10  2  0  0  0  0
  8  6  1  0  0  0  0
  9 11  2  0  0  0  0
  9  3  1  0  0  0  0
 10  9  1  0  0  0  0
 12  2  1  0  0  0  0
 13 18  1  0  0  0  0
 13 12  1  0  0  0  0
 14 13  2  0  0  0  0
 15  3  1  0  0  0  0
 15  2  2  0  0  0  0
 16 14  1  0  0  0  0
 16 17  2  0  0  0  0
 17 15  1  0  0  0  0
 18 20  2  0  0  0  0
 19 18  2  0  0  0  0
 21  4  1  0  0  0  0
 22 26  1  0  0  0  0
 22 31  2  0  0  0  0
 24 29  1  0  0  0  0
 25 24  2  0  0  0  0
 25 26  1  0  0  0  0
 26 28  2  0  0  0  0
 28 27  1  0  0  0  0
 28 23  1  0  0  0  0
 29 27  2  0  0  0  0
 30 23  1  0  0  0  0
 30 21  1  1  0  0  0
 31 30  1  0  0  0  0
 32 24  1  0  0  0  0
 33 32  2  0  0  0  0
 34 32  2  0  0  0  0
M  END
>  <MODEL>
5

>  <REMARK>
 VINA RESULT:     -10.7      3.334      6.364
  Name = 
  4 active torsions:
  status: ('A' for Active; 'I' for Inactive)
    1  A    between atoms: N_3  and  C_25
    2  A    between atoms: C_7  and  N_11
    3  A    between atoms: C_8  and  C_18
    4  A    between atoms: C_18  and  C_30
                            x       y       z     vdW  Elec       q    Type
                         _______ _______ _______ _____ _____    ______ ____

>  <TORSDO>
F 4

$$$$
=
 OpenBabel10272415173D

 34 38  0  0  1  0  0  0  0  0999 V2000
  188.0020  177.8810  143.6600 C   0  0  0  0  0  0  0  0  0  0  0  0
  189.0030  177.4980  147.1780 C   0  0  0  0  0  3  0  0  0  0  0  0
  186.9810  177.6080  146.1900 O   0  0  0  0  0  0  0  0  0  0  0  0
  187.6580  178.3490  141.2900 C   0  0  0  0  0  0  0  0  0  0  0  0
  188.5020  178.0350  142.3520 C   0  0  0  0  0  3  0  0  0  0  0  0
  185.7600  178.3540  142.7940 C   0  0  0  0  0  0  0  0  0  0  0  0
  184.3550  178.5320  142.9600 N   0  0  0  0  0  1  0  0  0  0  0  0
  186.2930  178.5110  141.5140 C   0  0  0  0  0  3  0  0  0  0  0  0
  186.1330  177.8320  145.1970 C   0  0  0  0  0  0  0  0  0  0  0  0
  186.6100  178.0340  143.8860 C   0  0  0  0  0  0  0  0  0  0  0  0
  184.9030  177.8840  145.4600 O   0  0  0  0  0  0  0  0  0  0  0  0
  190.4750  177.6940  147.2990 C   0  0  0  0  0  2  0  0  0  0  0  0
  191.2540  176.6390  146.5990 C   0  0  0  0  0  0  0  0  0  0  0  0
  191.1180  176.4620  145.2890 C   0  0  0  0  0  3  0  0  0  0  0  0
  188.2970  177.5200  146.0410 C   0  0  0  0  0  0  0  0  0  0  0  0
  190.0980  177.0820  144.4250 C   0  0  0  0  0  3  0  0  0  0  0  0
  188.8600  177.5340  144.7320 C   0  0  0  0  0  0  0  0  0  0  0  0
  192.2710  175.9200  147.3120 N   0  0  0  0  0  0  0  0  0  0  0  0
  192.7390  174.8610  146.8440 O   0  0  0  0  0  0  0  0  0  0  0  0
  192.7600  176.3980  148.5070 O   0  0  0  0  0  0  0  0  0  0  0  0
  188.2160  178.5330  139.9180 C   0  0  0  0  0  2  0  0  0  0  0  0
  188.9580  175.8190  137.5020 C   0  0  0  0  0  3  0  0  0  0  0  0
  190.4480  177.6810  139.1170 C   0  0  0  0  0  2  0  0  0  0  0  0
  192.4620  174.4770  137.0570 C   0  0  0  0  0  0  0  0  0  0  0  0
  191.0720  174.6340  136.9350 C   0  0  0  0  0  3  0  0  0  0  0  0
  190.4150  175.6530  137.6290 C   0  0  0  0  0  0  0  0  0  0  0  0
  192.5300  176.3860  138.5640 C   0  0  0  0  0  3  0  0  0  0  0  0
  191.1460  176.5290  138.4510 C   0  0  0  0  0  0  0  0  0  0  0  0
  193.1840  175.3600  137.8760 C   0  0  0  0  0  3  0  0  0  0  0  0
  189.0030  177.3070  139.4800 C   0  0  2  0  0  3  0  0  0  0  0  0
  188.2970  176.6290  138.3350 C   0  0  0  0  0  3  0  0  0  0  0  0
  193.1410  173.4300  136.3510 N   0  0  0  0  0  0  0  0  0  0  0  0
  192.4240  172.4470  135.7090 O   0  0  0  0  0  0  0  0  0  0  0  0
  194.3880  173.3980  136.3100 O   0  0  0  0  0  0  0  0  0  0  0  0
  1 10  1  0  0  0  0
  1 17  1  0  0  0  0
  2 12  1  0  0  0  0
  4  8  2  0  0  0  0
  4  5  1  0  0  0  0
  5  1  2  0  0  0  0
  6  7  1  0  0  0  0
  6 10  2  0  0  0  0
  8  6  1  0  0  0  0
  9 11  2  0  0  0  0
  9  3  1  0  0  0  0
 10  9  1  0  0  0  0
 13 12  1  0  0  0  0
 13 18  1  0  0  0  0
 14 13  2  0  0  0  0
 15  3  1  0  0  0  0
 15  2  2  0  0  0  0
 16 17  2  0  0  0  0
 16 14  1  0  0  0  0
 17 15  1  0  0  0  0
 18 20  2  0  0  0  0
 19 18  2  0  0  0  0
 21  4  1  0  0  0  0
 22 26  1  0  0  0  0
 22 31  2  0  0  0  0
 23 30  1  0  0  0  0
 24 29  1  0  0  0  0
 25 24  2  0  0  0  0
 25 26  1  0  0  0  0
 26 28  2  0  0  0  0
 28 27  1  0  0  0  0
 28 23  1  0  0  0  0
 29 27  2  0  0  0  0
 30 21  1  6  0  0  0
 31 30  1  0  0  0  0
 32 24  1  0  0  0  0
 33 32  2  0  0  0  0
 34 32  2  0  0  0  0
M  END
>  <MODEL>
6

>  <REMARK>
 VINA RESULT:      -9.9      3.482      7.273
  Name = 
  4 active torsions:
  status: ('A' for Active; 'I' for Inactive)
    1  A    between atoms: N_3  and  C_25
    2  A    between atoms: C_7  and  N_11
    3  A    between atoms: C_8  and  C_18
    4  A    between atoms: C_18  and  C_30
                            x       y       z     vdW  Elec       q    Type
                         _______ _______ _______ _____ _____    ______ ____

>  <TORSDO>
F 4

$$$$
=
 OpenBabel10272415173D

 34 38  0  0  1  0  0  0  0  0999 V2000
  184.2350  178.6920  142.4780 C   0  0  0  0  0  0  0  0  0  0  0  0
  184.8480  178.7610  146.1030 C   0  0  0  0  0  3  0  0  0  0  0  0
  182.9470  178.6700  144.8990 O   0  0  0  0  0  0  0  0  0  0  0  0
  184.1440  178.8680  140.0460 C   0  0  0  0  0  0  0  0  0  0  0  0
  184.8730  178.7150  141.2230 C   0  0  0  0  0  3  0  0  0  0  0  0
  182.0910  178.9670  141.3270 C   0  0  0  0  0  0  0  0  0  0  0  0
  180.6710  179.1030  141.3180 N   0  0  0  0  0  1  0  0  0  0  0  0
  182.7580  178.9970  140.1020 C   0  0  0  0  0  3  0  0  0  0  0  0
  182.2090  178.7430  143.8000 C   0  0  0  0  0  0  0  0  0  0  0  0
  182.8230  178.8110  142.5330 C   0  0  0  0  0  0  0  0  0  0  0  0
  180.9560  178.7720  143.9220 O   0  0  0  0  0  0  0  0  0  0  0  0
  186.2920  179.0320  146.3570 C   0  0  0  0  0  2  0  0  0  0  0  0
  187.1740  177.9370  145.8760 C   0  0  0  0  0  0  0  0  0  0  0  0
  187.1910  177.6040  144.5890 C   0  0  0  0  0  3  0  0  0  0  0  0
  184.2740  178.6220  144.9030 C   0  0  0  0  0  0  0  0  0  0  0  0
  186.2550  178.0770  143.5530 C   0  0  0  0  0  3  0  0  0  0  0  0
  184.9780  178.5090  143.6700 C   0  0  0  0  0  0  0  0  0  0  0  0
  188.1260  177.3490  146.7740 N   0  0  0  0  0  0  0  0  0  0  0  0
  189.2130  176.9120  146.3420 O   0  0  0  0  0  0  0  0  0  0  0  0
  187.8650  177.2800  148.1240 O   0  0  0  0  0  0  0  0  0  0  0  0
  184.8460  178.9160  138.7300 C   0  0  0  0  0  2  0  0  0  0  0  0
  187.0850  176.6730  136.8050 C   0  0  0  0  0  3  0  0  0  0  0  0
  187.2880  178.4130  139.0900 C   0  0  0  0  0  2  0  0  0  0  0  0
  190.5260  175.7600  138.0710 C   0  0  0  0  0  0  0  0  0  0  0  0
  189.3660  175.7970  137.2820 C   0  0  0  0  0  3  0  0  0  0  0  0
  188.3020  176.6330  137.6310 C   0  0  0  0  0  0  0  0  0  0  0  0
  189.5510  177.4230  139.5550 C   0  0  0  0  0  3  0  0  0  0  0  0
  188.3930  177.4450  138.7750 C   0  0  0  0  0  0  0  0  0  0  0  0
  190.6100  176.5780  139.2090 C   0  0  0  0  0  3  0  0  0  0  0  0
  185.9290  177.8510  138.6500 C   0  0  2  0  0  3  0  0  0  0  0  0
  185.9840  177.2830  137.2550 C   0  0  0  0  0  3  0  0  0  0  0  0
  191.6180  174.8990  137.7210 N   0  0  0  0  0  0  0  0  0  0  0  0
  192.9120  175.3660  137.7640 O   0  0  0  0  0  0  0  0  0  0  0  0
  191.4100  173.7190  137.3740 O   0  0  0  0  0  0  0  0  0  0  0  0
  1 10  1  0  0  0  0
  1 17  1  0  0  0  0
  2 12  1  0  0  0  0
  3 15  1  0  0  0  0
  4  8  2  0  0  0  0
  4  5  1  0  0  0  0
  5  1  2  0  0  0  0
  6 10  2  0  0  0  0
  7  6  1  0  0  0  0
  8  6  1  0  0  0  0
  9 11  2  0  0  0  0
  9  3  1  0  0  0  0
 10  9  1  0  0  0  0
 13 12  1  0  0  0  0
 13 18  1  0  0  0  0
 14 13  2  0  0  0  0
 15  2  2  0  0  0  0
 16 17  2  0  0  0  0
 16 14  1  0  0  0  0
 17 15  1  0  0  0  0
 18 20  2  0  0  0  0
 19 18  2  0  0  0  0
 21  4  1  0  0  0  0
 22 31  2  0  0  0  0
 22 26  1  0  0  0  0
 24 29  1  0  0  0  0
 25 26  1  0  0  0  0
 25 24  2  0  0  0  0
 26 28  2  0  0  0  0
 28 23  1  0  0  0  0
 28 27  1  0  0  0  0
 29 27  2  0  0  0  0
 30 21  1  6  0  0  0
 30 23  1  0  0  0  0
 31 30  1  0  0  0  0
 32 33  2  0  0  0  0
 32 24  1  0  0  0  0
 34 32  2  0  0  0  0
M  END
>  <MODEL>
7

>  <REMARK>
 VINA RESULT:      -9.9      2.700      7.435
  Name = 
  4 active torsions:
  status: ('A' for Active; 'I' for Inactive)
    1  A    between atoms: N_3  and  C_25
    2  A    between atoms: C_7  and  N_11
    3  A    between atoms: C_8  and  C_18
    4  A    between atoms: C_18  and  C_30
                            x       y       z     vdW  Elec       q    Type
                         _______ _______ _______ _____ _____    ______ ____

>  <TORSDO>
F 4

$$$$
=
 OpenBabel10272415173D

 34 38  0  0  1  0  0  0  0  0999 V2000
  186.8010  178.1350  144.3300 C   0  0  0  0  0  0  0  0  0  0  0  0
  183.3210  178.4760  143.1930 C   0  0  0  0  0  3  0  0  0  0  0  0
  184.2630  178.6480  145.2320 O   0  0  0  0  0  0  0  0  0  0  0  0
  189.1450  177.6470  144.8030 C   0  0  0  0  0  0  0  0  0  0  0  0
  188.1120  177.8610  143.8940 C   0  0  0  0  0  3  0  0  0  0  0  0
  187.6040  177.9870  146.6400 C   0  0  0  0  0  0  0  0  0  0  0  0
  187.4030  178.0350  148.0510 N   0  0  0  0  0  1  0  0  0  0  0  0
  188.8870  177.7060  146.1700 C   0  0  0  0  0  3  0  0  0  0  0  0
  185.2300  178.5250  146.1300 C   0  0  0  0  0  0  0  0  0  0  0  0
  186.5420  178.2080  145.7230 C   0  0  0  0  0  0  0  0  0  0  0  0
  184.9410  178.6730  147.3460 O   0  0  0  0  0  0  0  0  0  0  0  0
  183.2220  178.0580  141.7660 C   0  0  0  0  0  2  0  0  0  0  0  0
  183.9760  178.9560  140.8520 C   0  0  0  0  0  0  0  0  0  0  0  0
  185.2890  179.1070  140.9920 C   0  0  0  0  0  3  0  0  0  0  0  0
  184.4410  178.5250  143.9220 C   0  0  0  0  0  0  0  0  0  0  0  0
  186.1090  178.6240  142.1170 C   0  0  0  0  0  3  0  0  0  0  0  0
  185.7600  178.3800  143.4020 C   0  0  0  0  0  0  0  0  0  0  0  0
  183.3110  179.5310  139.7180 N   0  0  0  0  0  0  0  0  0  0  0  0
  182.1990  179.0950  139.3520 O   0  0  0  0  0  0  0  0  0  0  0  0
  183.8760  180.5850  139.0350 O   0  0  0  0  0  0  0  0  0  0  0  0
  190.5200  177.3320  144.3150 C   0  0  0  0  0  2  0  0  0  0  0  0
  192.2310  176.9210  141.0510 C   0  0  0  0  0  3  0  0  0  0  0  0
  189.5250  176.9160  142.0380 C   0  0  0  0  0  2  0  0  0  0  0  0
  190.3040  176.9170  137.8000 C   0  0  0  0  0  0  0  0  0  0  0  0
  191.3690  176.9030  138.7160 C   0  0  0  0  0  3  0  0  0  0  0  0
  191.1170  176.9360  140.0890 C   0  0  0  0  0  0  0  0  0  0  0  0
  188.7300  176.9790  139.6540 C   0  0  0  0  0  3  0  0  0  0  0  0
  189.7920  176.9790  140.5610 C   0  0  0  0  0  0  0  0  0  0  0  0
  188.9850  176.9550  138.2800 C   0  0  0  0  0  3  0  0  0  0  0  0
  190.6470  177.6090  142.8250 C   0  0  2  0  0  3  0  0  0  0  0  0
  192.0110  177.1880  142.3420 C   0  0  0  0  0  3  0  0  0  0  0  0
  190.5570  176.8890  136.3890 N   0  0  0  0  0  0  0  0  0  0  0  0
  191.6470  176.2120  135.8930 O   0  0  0  0  0  0  0  0  0  0  0  0
  189.7930  177.4760  135.5960 O   0  0  0  0  0  0  0  0  0  0  0  0
  1 10  1  0  0  0  0
  2 15  2  0  0  0  0
  3  9  1  0  0  0  0
  4  8  2  0  0  0  0
  5  1  2  0  0  0  0
  5  4  1  0  0  0  0
  6  7  1  0  0  0  0
  8  6  1  0  0  0  0
  9 11  2  0  0  0  0
 10  9  1  0  0  0  0
 10  6  2  0  0  0  0
 12  2  1  0  0  0  0
 13 14  2  0  0  0  0
 13 12  1  0  0  0  0
 14 16  1  0  0  0  0
 15  3  1  0  0  0  0
 16 17  2  0  0  0  0
 17 15  1  0  0  0  0
 17  1  1  0  0  0  0
 18 13  1  0  0  0  0
 19 18  2  0  0  0  0
 20 18  2  0  0  0  0
 21  4  1  0  0  0  0
 22 31  2  0  0  0  0
 23 30  1  0  0  0  0
 24 29  2  0  0  0  0
 24 25  1  0  0  0  0
 25 26  2  0  0  0  0
 26 28  1  0  0  0  0
 26 22  1  0  0  0  0
 27 28  2  0  0  0  0
 28 23  1  0  0  0  0
 29 27  1  0  0  0  0
 30 21  1  1  0  0  0
 31 30  1  0  0  0  0
 32 24  1  0  0  0  0
 33 32  2  0  0  0  0
 34 32  2  0  0  0  0
M  END
>  <MODEL>
8

>  <REMARK>
 VINA RESULT:      -9.9      2.329      6.559
  Name = 
  4 active torsions:
  status: ('A' for Active; 'I' for Inactive)
    1  A    between atoms: N_3  and  C_25
    2  A    between atoms: C_7  and  N_11
    3  A    between atoms: C_8  and  C_18
    4  A    between atoms: C_18  and  C_30
                            x       y       z     vdW  Elec       q    Type
                         _______ _______ _______ _____ _____    ______ ____

>  <TORSDO>
F 4

$$$$
=
 OpenBabel10272415173D

 34 38  0  0  1  0  0  0  0  0999 V2000
  188.8370  177.5650  145.7240 C   0  0  0  0  0  0  0  0  0  0  0  0
  185.4760  178.2640  147.0400 C   0  0  0  0  0  3  0  0  0  0  0  0
  187.5070  178.2820  148.0120 O   0  0  0  0  0  0  0  0  0  0  0  0
  190.8910  176.8470  144.6190 C   0  0  0  0  0  0  0  0  0  0  0  0
  189.5420  177.1860  144.5650 C   0  0  0  0  0  3  0  0  0  0  0  0
  190.9040  177.2680  147.0040 C   0  0  0  0  0  0  0  0  0  0  0  0
  191.6500  177.2880  148.2200 N   0  0  0  0  0  1  0  0  0  0  0  0
  191.5660  176.8850  145.8370 C   0  0  0  0  0  3  0  0  0  0  0  0
  188.8080  178.0400  148.0960 C   0  0  0  0  0  0  0  0  0  0  0  0
  189.5280  177.6160  146.9610 C   0  0  0  0  0  0  0  0  0  0  0  0
  189.3710  178.1750  149.2150 O   0  0  0  0  0  0  0  0  0  0  0  0
  184.4570  177.9040  146.0140 C   0  0  0  0  0  2  0  0  0  0  0  0
  184.5380  178.7570  144.8000 C   0  0  0  0  0  0  0  0  0  0  0  0
  185.6500  178.7820  144.0700 C   0  0  0  0  0  3  0  0  0  0  0  0
  186.8030  178.1860  146.8910 C   0  0  0  0  0  0  0  0  0  0  0  0
  186.9480  178.1880  144.4360 C   0  0  0  0  0  3  0  0  0  0  0  0
  187.4720  177.9360  145.6580 C   0  0  0  0  0  0  0  0  0  0  0  0
  183.3620  179.4290  144.3260 N   0  0  0  0  0  0  0  0  0  0  0  0
  183.3880  180.6560  144.0960 O   0  0  0  0  0  0  0  0  0  0  0  0
  182.2000  178.7280  144.0980 O   0  0  0  0  0  0  0  0  0  0  0  0
  191.6080  176.4220  143.3810 C   0  0  0  0  0  2  0  0  0  0  0  0
  191.5480  177.0880  139.7340 C   0  0  0  0  0  3  0  0  0  0  0  0
  189.6330  176.8140  141.8680 C   0  0  0  0  0  2  0  0  0  0  0  0
  188.3930  178.2160  137.9870 C   0  0  0  0  0  0  0  0  0  0  0  0
  189.7340  177.8720  138.2200 C   0  0  0  0  0  3  0  0  0  0  0  0
  190.1430  177.4500  139.4870 C   0  0  0  0  0  0  0  0  0  0  0  0
  187.8710  177.6890  140.3040 C   0  0  0  0  0  3  0  0  0  0  0  0
  189.2080  177.3630  140.5350 C   0  0  0  0  0  0  0  0  0  0  0  0
  187.4660  178.1210  139.0370 C   0  0  0  0  0  3  0  0  0  0  0  0
  191.0950  177.1790  142.1660 C   0  0  2  0  0  3  0  0  0  0  0  0
  191.9900  176.9130  140.9840 C   0  0  0  0  0  3  0  0  0  0  0  0
  187.9690  178.6560  136.6890 N   0  0  0  0  0  0  0  0  0  0  0  0
  188.4670  178.0560  135.5560 O   0  0  0  0  0  0  0  0  0  0  0  0
  187.1450  179.5860  136.5730 O   0  0  0  0  0  0  0  0  0  0  0  0
  1 10  1  0  0  0  0
  3  9  1  0  0  0  0
  4  8  2  0  0  0  0
  5  4  1  0  0  0  0
  5  1  2  0  0  0  0
  6  7  1  0  0  0  0
  8  6  1  0  0  0  0
  9 11  2  0  0  0  0
 10  6  2  0  0  0  0
 10  9  1  0  0  0  0
 12  2  1  0  0  0  0
 13 12  1  0  0  0  0
 14 16  1  0  0  0  0
 14 13  2  0  0  0  0
 15  2  2  0  0  0  0
 15  3  1  0  0  0  0
 16 17  2  0  0  0  0
 17  1  1  0  0  0  0
 17 15  1  0  0  0  0
 18 13  1  0  0  0  0
 19 18  2  0  0  0  0
 20 18  2  0  0  0  0
 21  4  1  0  0  0  0
 22 31  2  0  0  0  0
 23 30  1  0  0  0  0
 24 25  2  0  0  0  0
 24 29  1  0  0  0  0
 25 26  1  0  0  0  0
 26 22  1  0  0  0  0
 26 28  2  0  0  0  0
 27 28  1  0  0  0  0
 28 23  1  0  0  0  0
 29 27  2  0  0  0  0
 30 21  1  1  0  0  0
 31 30  1  0  0  0  0
 32 24  1  0  0  0  0
 33 32  2  0  0  0  0
 34 32  2  0  0  0  0
M  END
>  <MODEL>
9

>  <REMARK>
 VINA RESULT:      -9.8      3.004      6.185
  Name = 
  4 active torsions:
  status: ('A' for Active; 'I' for Inactive)
    1  A    between atoms: N_3  and  C_25
    2  A    between atoms: C_7  and  N_11
    3  A    between atoms: C_8  and  C_18
    4  A    between atoms: C_18  and  C_30
                            x       y       z     vdW  Elec       q    Type
                         _______ _______ _______ _____ _____    ______ ____

>  <TORSDO>
F 4

$$$$
