=
 OpenBabel10272413423D

 30 32  0  0  1  0  0  0  0  0999 V2000
  187.8030  177.4850  141.9710 C   0  0  1  0  0  3  0  0  0  0  0  0
  187.9250  176.7770  143.3300 C   0  0  1  0  0  3  0  0  0  0  0  0
  186.7720  179.0040  142.0490 S   0  0  0  0  0  0  0  0  0  0  0  0
  186.3310  177.1990  145.8080 C   0  0  1  0  0  3  0  0  0  0  0  0
  184.4720  179.0070  143.5360 C   0  0  2  0  0  3  0  0  0  0  0  0
  184.4750  177.9230  141.3330 O   0  0  0  0  0  1  0  0  0  0  0  0
  187.8590  177.2370  145.8020 C   0  0  2  0  0  3  0  0  0  0  0  0
  185.2250  178.1480  142.4890 C   0  0  1  0  0  3  0  0  0  0  0  0
  184.5060  178.4210  144.8130 O   0  0  0  0  0  0  0  0  0  0  0  0
  188.1120  178.2610  146.9020 C   0  0  0  0  0  2  0  0  0  0  0  0
  186.0380  177.2890  147.1700 O   0  0  0  0  0  0  0  0  0  0  0  0
  188.6980  175.4720  143.2390 C   0  0  0  0  0  1  0  0  0  0  0  0
  188.4590  177.6620  144.4560 C   0  0  0  0  0  2  0  0  0  0  0  0
  186.6830  178.5010  147.4190 C   0  0  2  0  0  3  0  0  0  0  0  0
  185.9860  179.4450  146.4470 C   0  0  0  0  0  2  0  0  0  0  0  0
  185.8320  178.5330  145.2460 C   0  0  1  0  0  3  0  0  0  0  0  0
  183.0250  179.3210  143.1650 C   0  0  0  0  0  2  0  0  0  0  0  0
  180.6460  178.7320  143.6270 C   0  0  0  0  0  1  0  0  0  0  0  0
  182.0580  178.7320  144.1800 C   0  0  0  0  0  2  0  0  0  0  0  0
  189.1540  177.6950  141.2490 C   0  0  2  0  0  3  0  0  0  0  0  0
  191.3250  177.9620  142.3800 C   0  0  0  0  0  2  0  0  0  0  0  0
  190.1590  178.4960  142.0230 C   0  0  0  0  0  3  0  0  0  0  0  0
  189.0130  178.2190  139.8130 C   0  0  2  0  0  3  0  0  0  0  0  0
  187.7480  177.7690  139.1500 C   0  0  0  0  0  3  0  0  0  0  0  0
  187.0770  178.5540  138.4980 O   0  0  0  0  0  0  0  0  0  0  0  0
  190.2220  177.8370  138.9740 C   0  0  0  0  0  2  0  0  0  0  0  0
  189.9440  176.2280  138.1740 S   0  0  0  0  0  0  0  0  0  0  0  0
  191.6760  176.0660  137.6570 C   0  0  0  0  0  3  0  0  0  0  0  0
  192.5720  176.7150  138.6890 C   0  0  0  0  0  1  0  0  0  0  0  0
  192.0320  174.6010  137.5330 C   0  0  0  0  0  1  0  0  0  0  0  0
  1 20  1  1  0  0  0
  1  3  1  0  0  0  0
  1  2  1  0  0  0  0
  2 12  1  6  0  0  0
  2 13  1  0  0  0  0
  3  8  1  0  0  0  0
  4 11  1  1  0  0  0
  5 17  1  6  0  0  0
  5  9  1  0  0  0  0
  7 13  1  6  0  0  0
  7  4  1  0  0  0  0
  7 10  1  0  0  0  0
  8  6  1  6  0  0  0
  8  5  1  0  0  0  0
  9 16  1  0  0  0  0
 10 14  1  0  0  0  0
 11 14  1  0  0  0  0
 14 15  1  6  0  0  0
 16  4  1  0  0  0  0
 16 15  1  1  0  0  0
 17 19  1  0  0  0  0
 18 19  1  0  0  0  0
 20 22  1  1  0  0  0
 22 21  2  0  0  0  0
 23 26  1  6  0  0  0
 23 20  1  0  0  0  0
 24 23  1  0  0  0  0
 25 24  2  0  0  0  0
 27 26  1  0  0  0  0
 28 27  1  0  0  0  0
 28 29  1  0  0  0  0
 30 28  1  0  0  0  0
M  END
>  <MODEL>
1

>  <REMARK>
 VINA RESULT:      -5.8      0.000      0.000
  Name = 
  9 active torsions:
  status: ('A' for Active; 'I' for Inactive)
    1  A    between atoms: C_1  and  C_22
    2  A    between atoms: C_2  and  C_14
    3  A    between atoms: C_3  and  S_28
    4  A    between atoms: C_6  and  C_8
    5  A    between atoms: C_6  and  C_21
    6  A    between atoms: C_14  and  C_20
    7  A    between atoms: C_14  and  C_22
    8  A    between atoms: C_20  and  S_28
    9  A    between atoms: C_22  and  C_29
                            x       y       z     vdW  Elec       q    Type
                         _______ _______ _______ _____ _____    ______ ____

>  <TORSDO>
F 9

$$$$
=
 OpenBabel10272413423D

 30 32  0  0  1  0  0  0  0  0999 V2000
  187.6850  177.7750  141.7740 C   0  0  1  0  0  3  0  0  0  0  0  0
  187.9060  177.0280  143.1000 C   0  0  1  0  0  3  0  0  0  0  0  0
  186.5060  179.1750  141.9320 S   0  0  0  0  0  0  0  0  0  0  0  0
  186.3250  177.1820  145.6170 C   0  0  1  0  0  3  0  0  0  0  0  0
  184.2470  178.8800  143.4530 C   0  0  2  0  0  3  0  0  0  0  0  0
  184.3180  177.8930  141.2060 O   0  0  0  0  0  1  0  0  0  0  0  0
  187.8420  177.3780  145.5900 C   0  0  2  0  0  3  0  0  0  0  0  0
  185.0640  178.1470  142.3600 C   0  0  1  0  0  3  0  0  0  0  0  0
  184.3660  178.2490  144.7030 O   0  0  0  0  0  0  0  0  0  0  0  0
  188.0090  178.3770  146.7280 C   0  0  0  0  0  2  0  0  0  0  0  0
  186.0520  177.1860  146.9870 O   0  0  0  0  0  0  0  0  0  0  0  0
  188.8060  175.8150  142.9410 C   0  0  0  0  0  1  0  0  0  0  0  0
  188.3680  177.9170  144.2540 C   0  0  0  0  0  2  0  0  0  0  0  0
  186.5750  178.4470  147.2760 C   0  0  2  0  0  3  0  0  0  0  0  0
  185.7650  179.3530  146.3570 C   0  0  0  0  0  2  0  0  0  0  0  0
  185.6820  178.4790  145.1200 C   0  0  1  0  0  3  0  0  0  0  0  0
  182.7680  179.0580  143.1180 C   0  0  0  0  0  2  0  0  0  0  0  0
  180.4300  178.6230  143.8710 C   0  0  0  0  0  1  0  0  0  0  0  0
  181.8880  178.6520  144.2900 C   0  0  0  0  0  2  0  0  0  0  0  0
  188.9930  178.1530  141.0400 C   0  0  2  0  0  3  0  0  0  0  0  0
  187.7390  177.9860  138.9280 C   0  0  0  0  0  2  0  0  0  0  0  0
  188.8390  178.3770  139.5650 C   0  0  0  0  0  3  0  0  0  0  0  0
  190.1650  177.2100  141.3420 C   0  0  2  0  0  3  0  0  0  0  0  0
  191.3080  177.8990  142.0210 C   0  0  0  0  0  3  0  0  0  0  0  0
  191.7150  177.5020  143.1020 O   0  0  0  0  0  0  0  0  0  0  0  0
  190.6380  176.5110  140.0770 C   0  0  0  0  0  2  0  0  0  0  0  0
  192.2800  177.1290  139.5990 S   0  0  0  0  0  0  0  0  0  0  0  0
  192.1820  176.4130  137.9340 C   0  0  0  0  0  3  0  0  0  0  0  0
  193.3560  175.4830  137.7150 C   0  0  0  0  0  1  0  0  0  0  0  0
  190.8920  175.6350  137.7920 C   0  0  0  0  0  1  0  0  0  0  0  0
  1 20  1  1  0  0  0
  1  3  1  0  0  0  0
  1  2  1  0  0  0  0
  2 12  1  6  0  0  0
  2 13  1  0  0  0  0
  3  8  1  0  0  0  0
  4 11  1  1  0  0  0
  5 17  1  6  0  0  0
  5  9  1  0  0  0  0
  7 13  1  6  0  0  0
  7  4  1  0  0  0  0
  7 10  1  0  0  0  0
  8  6  1  6  0  0  0
  8  5  1  0  0  0  0
  9 16  1  0  0  0  0
 10 14  1  0  0  0  0
 11 14  1  0  0  0  0
 14 15  1  6  0  0  0
 16  4  1  0  0  0  0
 16 15  1  1  0  0  0
 17 19  1  0  0  0  0
 18 19  1  0  0  0  0
 20 22  1  6  0  0  0
 20 23  1  0  0  0  0
 21 22  2  0  0  0  0
 23 26  1  6  0  0  0
 23 24  1  0  0  0  0
 24 25  2  0  0  0  0
 27 26  1  0  0  0  0
 28 27  1  0  0  0  0
 29 28  1  0  0  0  0
 30 28  1  0  0  0  0
M  END
>  <MODEL>
2

>  <REMARK>
 VINA RESULT:      -5.7      1.444      2.011
  Name = 
  9 active torsions:
  status: ('A' for Active; 'I' for Inactive)
    1  A    between atoms: C_1  and  C_22
    2  A    between atoms: C_2  and  C_14
    3  A    between atoms: C_3  and  S_28
    4  A    between atoms: C_6  and  C_8
    5  A    between atoms: C_6  and  C_21
    6  A    between atoms: C_14  and  C_20
    7  A    between atoms: C_14  and  C_22
    8  A    between atoms: C_20  and  S_28
    9  A    between atoms: C_22  and  C_29
                            x       y       z     vdW  Elec       q    Type
                         _______ _______ _______ _____ _____    ______ ____

>  <TORSDO>
F 9

$$$$
=
 OpenBabel10272413423D

 30 32  0  0  1  0  0  0  0  0999 V2000
  190.4610  177.7110  140.1980 C   0  0  1  0  0  3  0  0  0  0  0  0
  191.6890  177.2000  139.4260 C   0  0  1  0  0  3  0  0  0  0  0  0
  188.8730  177.2700  139.3870 S   0  0  0  0  0  0  0  0  0  0  0  0
  191.8430  176.1490  136.6460 C   0  0  1  0  0  3  0  0  0  0  0  0
  188.6480  177.4470  136.6620 C   0  0  2  0  0  3  0  0  0  0  0  0
  188.5360  179.4950  138.0110 O   0  0  0  0  0  1  0  0  0  0  0  0
  192.4000  175.3790  137.8440 C   0  0  2  0  0  3  0  0  0  0  0  0
  189.1630  178.2540  137.8810 C   0  0  1  0  0  3  0  0  0  0  0  0
  189.7060  176.9590  135.8760 O   0  0  0  0  0  0  0  0  0  0  0  0
  192.1640  173.9460  137.3820 C   0  0  0  0  0  2  0  0  0  0  0  0
  192.2670  175.3670  135.5690 O   0  0  0  0  0  0  0  0  0  0  0  0
  192.9980  177.6500  140.0510 C   0  0  0  0  0  1  0  0  0  0  0  0
  191.6860  175.6950  139.1640 C   0  0  0  0  0  2  0  0  0  0  0  0
  191.6510  174.1750  135.9510 C   0  0  2  0  0  3  0  0  0  0  0  0
  190.1850  174.5810  136.0390 C   0  0  0  0  0  2  0  0  0  0  0  0
  190.3220  175.9650  136.6430 C   0  0  1  0  0  3  0  0  0  0  0  0
  187.6700  178.2090  135.7730 C   0  0  0  0  0  2  0  0  0  0  0  0
  186.3340  176.2650  136.5820 C   0  0  0  0  0  1  0  0  0  0  0  0
  186.3130  177.5240  135.7370 C   0  0  0  0  0  2  0  0  0  0  0  0
  190.4900  177.3850  141.7100 C   0  0  2  0  0  3  0  0  0  0  0  0
  190.6800  175.3370  143.0620 C   0  0  0  0  0  2  0  0  0  0  0  0
  190.0960  175.9790  142.0540 C   0  0  0  0  0  3  0  0  0  0  0  0
  189.7350  178.4030  142.5760 C   0  0  2  0  0  3  0  0  0  0  0  0
  190.5330  178.8740  143.7520 C   0  0  0  0  0  3  0  0  0  0  0  0
  191.7370  178.6780  143.8020 O   0  0  0  0  0  0  0  0  0  0  0  0
  188.3950  177.8420  143.0280 C   0  0  0  0  0  2  0  0  0  0  0  0
  188.3490  177.7250  144.8420 S   0  0  0  0  0  0  0  0  0  0  0  0
  186.5470  177.5160  144.8890 C   0  0  0  0  0  3  0  0  0  0  0  0
  185.9840  178.2610  146.0800 C   0  0  0  0  0  1  0  0  0  0  0  0
  185.9390  178.0700  143.6180 C   0  0  0  0  0  1  0  0  0  0  0  0
  1 20  1  1  0  0  0
  2 12  1  1  0  0  0
  2  1  1  0  0  0  0
  3  1  1  0  0  0  0
  4 11  1  6  0  0  0
  4  7  1  0  0  0  0
  5 17  1  6  0  0  0
  5  8  1  0  0  0  0
  7 10  1  6  0  0  0
  7 13  1  0  0  0  0
  8  6  1  1  0  0  0
  8  3  1  0  0  0  0
  9 16  1  0  0  0  0
  9  5  1  0  0  0  0
 11 14  1  0  0  0  0
 13  2  1  0  0  0  0
 14 15  1  1  0  0  0
 14 10  1  0  0  0  0
 16 15  1  6  0  0  0
 16  4  1  0  0  0  0
 19 17  1  0  0  0  0
 19 18  1  0  0  0  0
 20 22  1  6  0  0  0
 20 23  1  0  0  0  0
 22 21  2  0  0  0  0
 23 26  1  1  0  0  0
 23 24  1  0  0  0  0
 24 25  2  0  0  0  0
 26 27  1  0  0  0  0
 27 28  1  0  0  0  0
 28 29  1  0  0  0  0
 30 28  1  0  0  0  0
M  END
>  <MODEL>
3

>  <REMARK>
 VINA RESULT:      -5.5      2.856      8.167
  Name = 
  9 active torsions:
  status: ('A' for Active; 'I' for Inactive)
    1  A    between atoms: C_1  and  C_22
    2  A    between atoms: C_2  and  C_14
    3  A    between atoms: C_3  and  S_28
    4  A    between atoms: C_6  and  C_8
    5  A    between atoms: C_6  and  C_21
    6  A    between atoms: C_14  and  C_20
    7  A    between atoms: C_14  and  C_22
    8  A    between atoms: C_20  and  S_28
    9  A    between atoms: C_22  and  C_29
                            x       y       z     vdW  Elec       q    Type
                         _______ _______ _______ _____ _____    ______ ____

>  <TORSDO>
F 9

$$$$
=
 OpenBabel10272413423D

 30 32  0  0  1  0  0  0  0  0999 V2000
  187.9850  177.3420  142.1230 C   0  0  1  0  0  3  0  0  0  0  0  0
  188.0440  176.7040  143.5200 C   0  0  1  0  0  3  0  0  0  0  0  0
  186.9600  178.8660  142.0770 S   0  0  0  0  0  0  0  0  0  0  0  0
  186.3440  177.2560  145.9000 C   0  0  1  0  0  3  0  0  0  0  0  0
  184.5960  178.9510  143.4590 C   0  0  2  0  0  3  0  0  0  0  0  0
  184.6910  177.7560  141.3160 O   0  0  0  0  0  1  0  0  0  0  0  0
  187.8720  177.2900  145.9600 C   0  0  2  0  0  3  0  0  0  0  0  0
  185.3910  178.0380  142.4920 C   0  0  1  0  0  3  0  0  0  0  0  0
  184.5710  178.4310  144.7640 O   0  0  0  0  0  0  0  0  0  0  0  0
  188.0810  178.3680  147.0160 C   0  0  0  0  0  2  0  0  0  0  0  0
  185.9930  177.4160  147.2420 O   0  0  0  0  0  0  0  0  0  0  0  0
  188.8140  175.3940  143.5290 C   0  0  0  0  0  1  0  0  0  0  0  0
  188.5320  177.6440  144.6220 C   0  0  0  0  0  2  0  0  0  0  0  0
  186.6320  178.6380  147.4560 C   0  0  2  0  0  3  0  0  0  0  0  0
  185.9830  179.5330  146.4080 C   0  0  0  0  0  2  0  0  0  0  0  0
  185.8770  178.5610  145.2490 C   0  0  1  0  0  3  0  0  0  0  0  0
  183.1690  179.2500  143.0090 C   0  0  0  0  0  2  0  0  0  0  0  0
  180.7660  178.7670  143.4730 C   0  0  0  0  0  1  0  0  0  0  0  0
  182.1610  178.8290  144.0670 C   0  0  0  0  0  2  0  0  0  0  0  0
  189.3680  177.5120  141.4510 C   0  0  2  0  0  3  0  0  0  0  0  0
  191.1220  178.5770  142.8120 C   0  0  0  0  0  2  0  0  0  0  0  0
  190.1470  178.7070  141.9160 C   0  0  0  0  0  3  0  0  0  0  0  0
  189.3240  177.4380  139.9190 C   0  0  2  0  0  3  0  0  0  0  0  0
  190.5940  176.9120  139.3230 C   0  0  0  0  0  3  0  0  0  0  0  0
  190.6950  175.7320  139.0250 O   0  0  0  0  0  0  0  0  0  0  0  0
  188.9730  178.7910  139.3190 C   0  0  0  0  0  2  0  0  0  0  0  0
  188.7340  178.6350  137.5240 S   0  0  0  0  0  0  0  0  0  0  0  0
  187.4460  177.3680  137.6970 C   0  0  0  0  0  3  0  0  0  0  0  0
  186.0950  178.0390  137.8250 C   0  0  0  0  0  1  0  0  0  0  0  0
  187.4480  176.4720  136.4780 C   0  0  0  0  0  1  0  0  0  0  0  0
  1 20  1  1  0  0  0
  1  2  1  0  0  0  0
  2 12  1  6  0  0  0
  2 13  1  0  0  0  0
  3  1  1  0  0  0  0
  3  8  1  0  0  0  0
  4  7  1  0  0  0  0
  4 11  1  1  0  0  0
  5 17  1  6  0  0  0
  5  9  1  0  0  0  0
  7 13  1  6  0  0  0
  7 10  1  0  0  0  0
  8  6  1  6  0  0  0
  8  5  1  0  0  0  0
  9 16  1  0  0  0  0
 10 14  1  0  0  0  0
 11 14  1  0  0  0  0
 14 15  1  6  0  0  0
 16  4  1  0  0  0  0
 16 15  1  1  0  0  0
 17 19  1  0  0  0  0
 18 19  1  0  0  0  0
 20 22  1  6  0  0  0
 22 21  2  0  0  0  0
 23 26  1  6  0  0  0
 23 20  1  0  0  0  0
 24 23  1  0  0  0  0
 25 24  2  0  0  0  0
 27 28  1  0  0  0  0
 27 26  1  0  0  0  0
 28 29  1  0  0  0  0
 30 28  1  0  0  0  0
M  END
>  <MODEL>
4

>  <REMARK>
 VINA RESULT:      -5.4      1.275      2.100
  Name = 
  9 active torsions:
  status: ('A' for Active; 'I' for Inactive)
    1  A    between atoms: C_1  and  C_22
    2  A    between atoms: C_2  and  C_14
    3  A    between atoms: C_3  and  S_28
    4  A    between atoms: C_6  and  C_8
    5  A    between atoms: C_6  and  C_21
    6  A    between atoms: C_14  and  C_20
    7  A    between atoms: C_14  and  C_22
    8  A    between atoms: C_20  and  S_28
    9  A    between atoms: C_22  and  C_29
                            x       y       z     vdW  Elec       q    Type
                         _______ _______ _______ _____ _____    ______ ____

>  <TORSDO>
F 9

$$$$
=
 OpenBabel10272413423D

 30 32  0  0  1  0  0  0  0  0999 V2000
  187.5050  176.9650  138.0430 C   0  0  1  0  0  3  0  0  0  0  0  0
  188.2350  175.7220  137.5070 C   0  0  1  0  0  3  0  0  0  0  0  0
  188.6490  178.2090  138.7620 S   0  0  0  0  0  0  0  0  0  0  0  0
  191.0450  174.8590  137.9730 C   0  0  1  0  0  3  0  0  0  0  0  0
  190.7560  177.3820  140.3050 C   0  0  2  0  0  3  0  0  0  0  0  0
  188.5020  177.4300  141.2780 O   0  0  0  0  0  1  0  0  0  0  0  0
  190.4520  174.9950  136.5700 C   0  0  2  0  0  3  0  0  0  0  0  0
  189.2360  177.1480  140.1230 C   0  0  1  0  0  3  0  0  0  0  0  0
  191.5090  176.2800  139.8650 O   0  0  0  0  0  0  0  0  0  0  0  0
  191.6910  175.4160  135.7890 C   0  0  0  0  0  2  0  0  0  0  0  0
  192.2960  174.2960  137.7120 O   0  0  0  0  0  0  0  0  0  0  0  0
  187.2760  174.6580  137.0020 C   0  0  0  0  0  1  0  0  0  0  0  0
  189.3210  176.0260  136.4770 C   0  0  0  0  0  2  0  0  0  0  0  0
  192.7780  175.2990  136.8710 C   0  0  2  0  0  3  0  0  0  0  0  0
  192.6920  176.5360  137.7560 C   0  0  0  0  0  2  0  0  0  0  0  0
  191.3830  176.2670  138.4710 C   0  0  1  0  0  3  0  0  0  0  0  0
  191.1700  177.7360  141.7310 C   0  0  0  0  0  2  0  0  0  0  0  0
  190.8930  176.7210  143.9920 C   0  0  0  0  0  1  0  0  0  0  0  0
  191.3690  176.4850  142.5720 C   0  0  0  0  0  2  0  0  0  0  0  0
  186.4830  177.5700  137.0530 C   0  0  2  0  0  3  0  0  0  0  0  0
  186.9310  178.4100  134.7820 C   0  0  0  0  0  2  0  0  0  0  0  0
  187.0580  178.5730  136.0960 C   0  0  0  0  0  3  0  0  0  0  0  0
  185.2130  178.1070  137.7260 C   0  0  2  0  0  3  0  0  0  0  0  0
  185.4130  178.4340  139.1730 C   0  0  0  0  0  3  0  0  0  0  0  0
  185.0920  179.5280  139.6110 O   0  0  0  0  0  0  0  0  0  0  0  0
  184.0540  177.1370  137.5520 C   0  0  0  0  0  2  0  0  0  0  0  0
  182.4750  178.0380  137.5910 S   0  0  0  0  0  0  0  0  0  0  0  0
  181.8270  177.0550  138.9720 C   0  0  0  0  0  3  0  0  0  0  0  0
  182.6510  175.7930  139.1220 C   0  0  0  0  0  1  0  0  0  0  0  0
  181.9070  177.8610  140.2500 C   0  0  0  0  0  1  0  0  0  0  0  0
  1 20  1  6  0  0  0
  1  3  1  0  0  0  0
  2 12  1  6  0  0  0
  2  1  1  0  0  0  0
  3  8  1  0  0  0  0
  4 11  1  6  0  0  0
  4 16  1  0  0  0  0
  5 17  1  1  0  0  0
  7 10  1  6  0  0  0
  7  4  1  0  0  0  0
  8  5  1  0  0  0  0
  8  6  1  1  0  0  0
  9  5  1  0  0  0  0
 13  7  1  0  0  0  0
 13  2  1  0  0  0  0
 14 10  1  6  0  0  0
 14 11  1  0  0  0  0
 14 15  1  0  0  0  0
 16 15  1  6  0  0  0
 16  9  1  0  0  0  0
 17 19  1  0  0  0  0
 19 18  1  0  0  0  0
 20 22  1  1  0  0  0
 20 23  1  0  0  0  0
 21 22  2  0  0  0  0
 23 26  1  1  0  0  0
 23 24  1  0  0  0  0
 24 25  2  0  0  0  0
 26 27  1  0  0  0  0
 27 28  1  0  0  0  0
 28 29  1  0  0  0  0
 28 30  1  0  0  0  0
M  END
>  <MODEL>
5

>  <REMARK>
 VINA RESULT:      -5.3      3.518      8.273
  Name = 
  9 active torsions:
  status: ('A' for Active; 'I' for Inactive)
    1  A    between atoms: C_1  and  C_22
    2  A    between atoms: C_2  and  C_14
    3  A    between atoms: C_3  and  S_28
    4  A    between atoms: C_6  and  C_8
    5  A    between atoms: C_6  and  C_21
    6  A    between atoms: C_14  and  C_20
    7  A    between atoms: C_14  and  C_22
    8  A    between atoms: C_20  and  S_28
    9  A    between atoms: C_22  and  C_29
                            x       y       z     vdW  Elec       q    Type
                         _______ _______ _______ _____ _____    ______ ____

>  <TORSDO>
F 9

$$$$
=
 OpenBabel10272413423D

 30 32  0  0  1  0  0  0  0  0999 V2000
  190.1150  177.1220  143.5750 C   0  0  1  0  0  3  0  0  0  0  0  0
  190.2230  176.4980  144.9760 C   0  0  1  0  0  3  0  0  0  0  0  0
  188.8210  178.4220  143.4710 S   0  0  0  0  0  0  0  0  0  0  0  0
  188.3290  176.6990  147.2620 C   0  0  1  0  0  3  0  0  0  0  0  0
  186.4170  178.0440  144.7280 C   0  0  2  0  0  3  0  0  0  0  0  0
  186.8480  176.9040  142.5970 O   0  0  0  0  0  1  0  0  0  0  0  0
  189.8160  177.0240  147.4010 C   0  0  2  0  0  3  0  0  0  0  0  0
  187.4200  177.3070  143.8070 C   0  0  1  0  0  3  0  0  0  0  0  0
  186.4240  177.5210  146.0330 O   0  0  0  0  0  0  0  0  0  0  0  0
  189.7610  178.1150  148.4630 C   0  0  0  0  0  2  0  0  0  0  0  0
  187.8840  176.7800  148.5840 O   0  0  0  0  0  0  0  0  0  0  0  0
  191.2270  175.3590  145.0290 C   0  0  0  0  0  1  0  0  0  0  0  0
  190.4650  177.5060  146.0980 C   0  0  0  0  0  2  0  0  0  0  0  0
  188.2670  178.1000  148.8270 C   0  0  2  0  0  3  0  0  0  0  0  0
  187.5130  178.8620  147.7440 C   0  0  0  0  0  2  0  0  0  0  0  0
  187.6550  177.8950  146.5840 C   0  0  1  0  0  3  0  0  0  0  0  0
  184.9830  178.0680  144.2040 C   0  0  0  0  0  2  0  0  0  0  0  0
  182.6740  178.9360  144.5730 C   0  0  0  0  0  1  0  0  0  0  0  0
  184.1290  179.0540  144.9850 C   0  0  0  0  0  2  0  0  0  0  0  0
  191.4720  177.5570  142.9750 C   0  0  2  0  0  3  0  0  0  0  0  0
  192.0260  179.5680  144.2840 C   0  0  0  0  0  2  0  0  0  0  0  0
  191.7690  179.0230  143.0980 C   0  0  0  0  0  3  0  0  0  0  0  0
  191.7020  177.0610  141.5410 C   0  0  2  0  0  3  0  0  0  0  0  0
  192.7520  177.8440  140.8140 C   0  0  0  0  0  3  0  0  0  0  0  0
  193.6930  177.2740  140.2850 O   0  0  0  0  0  0  0  0  0  0  0  0
  190.4000  177.0520  140.7540 C   0  0  0  0  0  2  0  0  0  0  0  0
  190.6860  176.3930  139.0840 S   0  0  0  0  0  0  0  0  0  0  0  0
  189.6730  177.6730  138.2910 C   0  0  0  0  0  3  0  0  0  0  0  0
  188.7250  177.0260  137.3040 C   0  0  0  0  0  1  0  0  0  0  0  0
  188.8750  178.4120  139.3430 C   0  0  0  0  0  1  0  0  0  0  0  0
  1 20  1  1  0  0  0
  1  2  1  0  0  0  0
  2 12  1  6  0  0  0
  2 13  1  0  0  0  0
  3  1  1  0  0  0  0
  3  8  1  0  0  0  0
  4  7  1  0  0  0  0
  4 11  1  1  0  0  0
  5 17  1  6  0  0  0
  5  9  1  0  0  0  0
  7 13  1  6  0  0  0
  7 10  1  0  0  0  0
  8  6  1  6  0  0  0
  8  5  1  0  0  0  0
  9 16  1  0  0  0  0
 10 14  1  0  0  0  0
 11 14  1  0  0  0  0
 14 15  1  6  0  0  0
 16  4  1  0  0  0  0
 16 15  1  1  0  0  0
 17 19  1  0  0  0  0
 18 19  1  0  0  0  0
 20 22  1  6  0  0  0
 22 21  2  0  0  0  0
 23 26  1  6  0  0  0
 23 20  1  0  0  0  0
 24 23  1  0  0  0  0
 25 24  2  0  0  0  0
 27 26  1  0  0  0  0
 28 27  1  0  0  0  0
 28 30  1  0  0  0  0
 29 28  1  0  0  0  0
M  END
>  <MODEL>
6

>  <REMARK>
 VINA RESULT:      -5.3      2.189      3.084
  Name = 
  9 active torsions:
  status: ('A' for Active; 'I' for Inactive)
    1  A    between atoms: C_1  and  C_22
    2  A    between atoms: C_2  and  C_14
    3  A    between atoms: C_3  and  S_28
    4  A    between atoms: C_6  and  C_8
    5  A    between atoms: C_6  and  C_21
    6  A    between atoms: C_14  and  C_20
    7  A    between atoms: C_14  and  C_22
    8  A    between atoms: C_20  and  S_28
    9  A    between atoms: C_22  and  C_29
                            x       y       z     vdW  Elec       q    Type
                         _______ _______ _______ _____ _____    ______ ____

>  <TORSDO>
F 9

$$$$
=
 OpenBabel10272413423D

 30 32  0  0  1  0  0  0  0  0999 V2000
  188.6560  177.3690  141.7490 C   0  0  1  0  0  3  0  0  0  0  0  0
  187.8490  176.8570  142.9530 C   0  0  1  0  0  3  0  0  0  0  0  0
  187.9760  178.9220  141.0420 S   0  0  0  0  0  0  0  0  0  0  0  0
  185.1450  177.6890  143.8800 C   0  0  1  0  0  3  0  0  0  0  0  0
  185.2650  179.2250  140.7950 C   0  0  2  0  0  3  0  0  0  0  0  0
  186.4700  177.8400  139.1660 O   0  0  0  0  0  1  0  0  0  0  0  0
  186.3580  177.6670  144.8100 C   0  0  2  0  0  3  0  0  0  0  0  0
  186.3890  178.1980  140.5140 C   0  0  1  0  0  3  0  0  0  0  0  0
  184.4510  178.8270  141.8700 O   0  0  0  0  0  0  0  0  0  0  0  0
  186.0140  178.8270  145.7370 C   0  0  0  0  0  2  0  0  0  0  0  0
  184.1020  177.9830  144.7610 O   0  0  0  0  0  0  0  0  0  0  0  0
  188.3600  175.5240  143.4720 C   0  0  0  0  0  1  0  0  0  0  0  0
  187.6940  177.8720  144.0850 C   0  0  0  0  0  2  0  0  0  0  0  0
  184.6040  179.1930  145.2440 C   0  0  2  0  0  3  0  0  0  0  0  0
  184.7520  180.0150  143.9700 C   0  0  0  0  0  2  0  0  0  0  0  0
  185.2480  178.9480  143.0140 C   0  0  1  0  0  3  0  0  0  0  0  0
  184.3850  179.5390  139.5880 C   0  0  0  0  0  2  0  0  0  0  0  0
  181.9360  179.6810  139.1360 C   0  0  0  0  0  1  0  0  0  0  0  0
  183.0540  178.8080  139.6750 C   0  0  0  0  0  2  0  0  0  0  0  0
  190.1820  177.4220  141.9940 C   0  0  2  0  0  3  0  0  0  0  0  0
  191.1830  178.7300  143.8240 C   0  0  0  0  0  2  0  0  0  0  0  0
  190.6750  178.7050  142.5950 C   0  0  0  0  0  3  0  0  0  0  0  0
  191.0190  177.0230  140.7700 C   0  0  2  0  0  3  0  0  0  0  0  0
  192.3720  177.6640  140.7540 C   0  0  0  0  0  3  0  0  0  0  0  0
  193.3180  177.1000  140.2270 O   0  0  0  0  0  0  0  0  0  0  0  0
  190.2700  177.3210  139.4800 C   0  0  0  0  0  2  0  0  0  0  0  0
  190.7880  176.1630  138.1770 S   0  0  0  0  0  0  0  0  0  0  0  0
  189.7050  176.9160  136.9300 C   0  0  0  0  0  3  0  0  0  0  0  0
  188.4350  176.1010  136.8070 C   0  0  0  0  0  1  0  0  0  0  0  0
  189.3550  178.3280  137.3490 C   0  0  0  0  0  1  0  0  0  0  0  0
  1 20  1  1  0  0  0
  1  2  1  0  0  0  0
  2 12  1  1  0  0  0
  2 13  1  0  0  0  0
  3  1  1  0  0  0  0
  4 11  1  1  0  0  0
  4  7  1  0  0  0  0
  5 17  1  6  0  0  0
  5  9  1  0  0  0  0
  7 13  1  6  0  0  0
  7 10  1  0  0  0  0
  8  6  1  6  0  0  0
  8  5  1  0  0  0  0
  8  3  1  0  0  0  0
  9 16  1  0  0  0  0
 11 14  1  0  0  0  0
 14 15  1  6  0  0  0
 14 10  1  0  0  0  0
 16  4  1  0  0  0  0
 16 15  1  1  0  0  0
 17 19  1  0  0  0  0
 18 19  1  0  0  0  0
 20 22  1  6  0  0  0
 22 21  2  0  0  0  0
 23 26  1  6  0  0  0
 23 20  1  0  0  0  0
 24 23  1  0  0  0  0
 25 24  2  0  0  0  0
 27 26  1  0  0  0  0
 28 30  1  0  0  0  0
 28 27  1  0  0  0  0
 29 28  1  0  0  0  0
M  END
>  <MODEL>
7

>  <REMARK>
 VINA RESULT:      -5.1      2.148      2.999
  Name = 
  9 active torsions:
  status: ('A' for Active; 'I' for Inactive)
    1  A    between atoms: C_1  and  C_22
    2  A    between atoms: C_2  and  C_14
    3  A    between atoms: C_3  and  S_28
    4  A    between atoms: C_6  and  C_8
    5  A    between atoms: C_6  and  C_21
    6  A    between atoms: C_14  and  C_20
    7  A    between atoms: C_14  and  C_22
    8  A    between atoms: C_20  and  S_28
    9  A    between atoms: C_22  and  C_29
                            x       y       z     vdW  Elec       q    Type
                         _______ _______ _______ _____ _____    ______ ____

>  <TORSDO>
F 9

$$$$
=
 OpenBabel10272413423D

 30 32  0  0  1  0  0  0  0  0999 V2000
  185.7710  176.4190  137.2720 C   0  0  1  0  0  3  0  0  0  0  0  0
  184.4410  177.0520  137.7130 C   0  0  1  0  0  3  0  0  0  0  0  0
  185.5390  174.9450  136.2000 S   0  0  0  0  0  0  0  0  0  0  0  0
  181.6900  175.9290  137.5420 C   0  0  1  0  0  3  0  0  0  0  0  0
  183.5680  173.1370  136.7900 C   0  0  2  0  0  3  0  0  0  0  0  0
  185.6540  173.1020  138.0840 O   0  0  0  0  0  1  0  0  0  0  0  0
  182.0470  177.3070  136.9850 C   0  0  2  0  0  3  0  0  0  0  0  0
  184.7120  173.9300  137.4680 C   0  0  1  0  0  3  0  0  0  0  0  0
  182.3030  173.6290  137.1570 O   0  0  0  0  0  0  0  0  0  0  0  0
  181.0890  177.3810  135.8020 C   0  0  0  0  0  2  0  0  0  0  0  0
  180.3030  175.8960  137.3810 O   0  0  0  0  0  0  0  0  0  0  0  0
  184.6390  178.2100  138.6750 C   0  0  0  0  0  1  0  0  0  0  0  0
  183.5150  177.4380  136.5600 C   0  0  0  0  0  2  0  0  0  0  0  0
  180.2730  176.0940  136.0000 C   0  0  2  0  0  3  0  0  0  0  0  0
  181.1070  174.9270  135.4860 C   0  0  0  0  0  2  0  0  0  0  0  0
  182.1910  174.8820  136.5440 C   0  0  1  0  0  3  0  0  0  0  0  0
  183.6130  171.6320  137.0400 C   0  0  0  0  0  2  0  0  0  0  0  0
  185.2720  170.8690  135.3410 C   0  0  0  0  0  1  0  0  0  0  0  0
  183.8090  170.8650  135.7420 C   0  0  0  0  0  2  0  0  0  0  0  0
  186.7940  177.4330  136.7090 C   0  0  2  0  0  3  0  0  0  0  0  0
  186.7410  178.1510  134.3540 C   0  0  0  0  0  2  0  0  0  0  0  0
  187.1210  177.2500  135.2560 C   0  0  0  0  0  3  0  0  0  0  0  0
  188.0680  177.5610  137.5540 C   0  0  2  0  0  3  0  0  0  0  0  0
  188.9340  178.7080  137.1350 C   0  0  0  0  0  3  0  0  0  0  0  0
  188.9430  179.7450  137.7790 O   0  0  0  0  0  0  0  0  0  0  0  0
  188.8590  176.2620  137.5450 C   0  0  0  0  0  2  0  0  0  0  0  0
  190.4960  176.5340  136.8030 S   0  0  0  0  0  0  0  0  0  0  0  0
  191.3790  175.9570  138.2800 C   0  0  0  0  0  3  0  0  0  0  0  0
  192.8710  176.0240  138.0330 C   0  0  0  0  0  1  0  0  0  0  0  0
  191.0250  176.8380  139.4580 C   0  0  0  0  0  1  0  0  0  0  0  0
  1 20  1  6  0  0  0
  1  2  1  0  0  0  0
  2 12  1  6  0  0  0
  3  1  1  0  0  0  0
  3  8  1  0  0  0  0
  4 11  1  6  0  0  0
  5 17  1  1  0  0  0
  5  9  1  0  0  0  0
  5  8  1  0  0  0  0
  7 10  1  6  0  0  0
  7  4  1  0  0  0  0
  8  6  1  6  0  0  0
 10 14  1  0  0  0  0
 13  7  1  0  0  0  0
 13  2  1  0  0  0  0
 14 15  1  6  0  0  0
 14 11  1  0  0  0  0
 16 15  1  6  0  0  0
 16  9  1  0  0  0  0
 16  4  1  0  0  0  0
 18 19  1  0  0  0  0
 19 17  1  0  0  0  0
 20 22  1  6  0  0  0
 20 23  1  0  0  0  0
 21 22  2  0  0  0  0
 23 24  1  6  0  0  0
 24 25  2  0  0  0  0
 26 23  1  0  0  0  0
 27 26  1  0  0  0  0
 27 28  1  0  0  0  0
 28 30  1  0  0  0  0
 29 28  1  0  0  0  0
M  END
>  <MODEL>
8

>  <REMARK>
 VINA RESULT:      -5.1      5.480      8.252
  Name = 
  9 active torsions:
  status: ('A' for Active; 'I' for Inactive)
    1  A    between atoms: C_1  and  C_22
    2  A    between atoms: C_2  and  C_14
    3  A    between atoms: C_3  and  S_28
    4  A    between atoms: C_6  and  C_8
    5  A    between atoms: C_6  and  C_21
    6  A    between atoms: C_14  and  C_20
    7  A    between atoms: C_14  and  C_22
    8  A    between atoms: C_20  and  S_28
    9  A    between atoms: C_22  and  C_29
                            x       y       z     vdW  Elec       q    Type
                         _______ _______ _______ _____ _____    ______ ____

>  <TORSDO>
F 9

$$$$
=
 OpenBabel10272413423D

 30 32  0  0  1  0  0  0  0  0999 V2000
  183.3900  177.3460  138.0050 C   0  0  1  0  0  3  0  0  0  0  0  0
  183.3290  175.8500  138.3540 C   0  0  1  0  0  3  0  0  0  0  0  0
  184.6470  177.7280  136.7200 S   0  0  0  0  0  0  0  0  0  0  0  0
  185.2680  173.6940  137.6820 C   0  0  1  0  0  3  0  0  0  0  0  0
  187.0870  176.4860  136.8000 C   0  0  2  0  0  3  0  0  0  0  0  0
  186.6390  178.3510  138.3330 O   0  0  0  0  0  1  0  0  0  0  0  0
  183.7750  173.5790  137.3690 C   0  0  2  0  0  3  0  0  0  0  0  0
  186.0840  177.2250  137.7210 C   0  0  1  0  0  3  0  0  0  0  0  0
  187.1220  175.1070  137.0670 O   0  0  0  0  0  0  0  0  0  0  0  0
  183.8250  172.7450  136.0950 C   0  0  0  0  0  2  0  0  0  0  0  0
  185.7390  172.4240  137.3410 O   0  0  0  0  0  0  0  0  0  0  0  0
  182.3570  175.5560  139.4840 C   0  0  0  0  0  1  0  0  0  0  0  0
  183.0860  174.9330  137.1570 C   0  0  0  0  0  2  0  0  0  0  0  0
  185.3270  172.4250  136.0080 C   0  0  2  0  0  3  0  0  0  0  0  0
  186.0360  173.6520  135.4490 C   0  0  0  0  0  2  0  0  0  0  0  0
  185.8950  174.6040  136.6220 C   0  0  1  0  0  3  0  0  0  0  0  0
  188.5080  177.0430  136.8460 C   0  0  0  0  0  2  0  0  0  0  0  0
  189.8800  176.9620  138.9270 C   0  0  0  0  0  1  0  0  0  0  0  0
  189.4080  176.1800  137.7160 C   0  0  0  0  0  2  0  0  0  0  0  0
  182.0090  177.9810  137.7210 C   0  0  2  0  0  3  0  0  0  0  0  0
  181.0050  177.6190  135.5020 C   0  0  0  0  0  2  0  0  0  0  0  0
  181.7780  178.3630  136.2880 C   0  0  0  0  0  3  0  0  0  0  0  0
  181.6520  179.1350  138.6680 C   0  0  2  0  0  3  0  0  0  0  0  0
  181.4810  180.4420  137.9580 C   0  0  0  0  0  3  0  0  0  0  0  0
  181.8820  181.4780  138.4630 O   0  0  0  0  0  0  0  0  0  0  0  0
  182.6810  179.2610  139.7810 C   0  0  0  0  0  2  0  0  0  0  0  0
  181.9400  178.7880  141.3730 S   0  0  0  0  0  0  0  0  0  0  0  0
  183.5420  178.3650  142.1140 C   0  0  0  0  0  3  0  0  0  0  0  0
  184.6560  178.7890  141.1800 C   0  0  0  0  0  1  0  0  0  0  0  0
  183.6950  179.0850  143.4360 C   0  0  0  0  0  1  0  0  0  0  0  0
  1 20  1  6  0  0  0
  1  2  1  0  0  0  0
  2 12  1  1  0  0  0
  3  8  1  0  0  0  0
  3  1  1  0  0  0  0
  4 11  1  6  0  0  0
  5 17  1  1  0  0  0
  5  9  1  0  0  0  0
  5  8  1  0  0  0  0
  7 10  1  6  0  0  0
  7  4  1  0  0  0  0
  8  6  1  6  0  0  0
 13  7  1  0  0  0  0
 13  2  1  0  0  0  0
 14 15  1  6  0  0  0
 14 10  1  0  0  0  0
 14 11  1  0  0  0  0
 16 15  1  6  0  0  0
 16  9  1  0  0  0  0
 16  4  1  0  0  0  0
 17 19  1  0  0  0  0
 19 18  1  0  0  0  0
 20 22  1  6  0  0  0
 20 23  1  0  0  0  0
 21 22  2  0  0  0  0
 23 24  1  6  0  0  0
 23 26  1  0  0  0  0
 24 25  2  0  0  0  0
 26 27  1  0  0  0  0
 27 28  1  0  0  0  0
 28 30  1  0  0  0  0
 29 28  1  0  0  0  0
M  END
>  <MODEL>
9

>  <REMARK>
 VINA RESULT:      -5.0      4.761      9.115
  Name = 
  9 active torsions:
  status: ('A' for Active; 'I' for Inactive)
    1  A    between atoms: C_1  and  C_22
    2  A    between atoms: C_2  and  C_14
    3  A    between atoms: C_3  and  S_28
    4  A    between atoms: C_6  and  C_8
    5  A    between atoms: C_6  and  C_21
    6  A    between atoms: C_14  and  C_20
    7  A    between atoms: C_14  and  C_22
    8  A    between atoms: C_20  and  S_28
    9  A    between atoms: C_22  and  C_29
                            x       y       z     vdW  Elec       q    Type
                         _______ _______ _______ _____ _____    ______ ____

>  <TORSDO>
F 9

$$$$
