=
 OpenBabel10272414013D

 30 32  0  0  1  0  0  0  0  0999 V2000
  188.1200  178.0790  138.4860 C   0  0  2  0  0  3  0  0  0  0  0  0
  185.6990  178.6390  138.4220 C   0  0  0  0  0  3  0  0  0  0  0  0
  185.3030  178.4550  142.6360 N   0  0  0  0  0  2  0  0  0  0  0  0
  188.4130  179.3460  141.8830 O   0  0  0  0  0  1  0  0  0  0  0  0
  188.7200  176.7340  138.8990 C   0  0  0  0  0  2  0  0  0  0  0  0
  191.7350  176.8310  139.7730 C   0  0  2  0  0  3  0  0  0  0  0  0
  191.1850  177.1250  138.3810 C   0  0  0  0  0  2  0  0  0  0  0  0
  190.1550  174.9790  138.1770 F   0  0  0  0  0  0  0  0  0  0  0  0
  188.6800  176.7350  143.5610 C   0  0  2  0  0  3  0  0  0  0  0  0
  186.3340  177.8480  143.4210 C   0  0  0  0  0  0  0  0  0  0  0  0
  189.9180  176.3340  138.0440 C   0  0  1  0  0  3  0  0  0  0  0  0
  191.0500  177.7380  140.7900 C   0  0  0  0  0  2  0  0  0  0  0  0
  184.4680  178.9110  139.0240 C   0  0  0  0  0  3  0  0  0  0  0  0
  189.6190  175.8080  142.7620 C   0  0  0  0  0  2  0  0  0  0  0  0
  193.2290  177.0960  139.7610 C   0  0  0  0  0  1  0  0  0  0  0  0
  189.0130  179.1240  138.7360 O   0  0  0  0  0  1  0  0  0  0  0  0
  185.4500  178.5720  141.2120 C   0  0  0  0  0  0  0  0  0  0  0  0
  184.3400  178.8770  140.4130 C   0  0  0  0  0  0  0  0  0  0  0  0
  191.4990  177.4900  142.2280 C   0  0  0  0  0  2  0  0  0  0  0  0
  186.8220  178.3380  139.1990 C   0  0  0  0  0  0  0  0  0  0  0  0
  187.9070  178.1070  141.4880 C   0  0  1  0  0  3  0  0  0  0  0  0
  186.2060  177.7550  144.6720 O   0  0  0  0  0  0  0  0  0  0  0  0
  187.5190  177.2610  142.7050 C   0  0  1  0  0  3  0  0  0  0  0  0
  191.7690  175.8320  144.0860 C   0  0  0  0  0  1  0  0  0  0  0  0
  183.1050  179.1340  140.9940 O   0  0  0  0  0  1  0  0  0  0  0  0
  186.7040  178.3230  140.6080 C   0  0  0  0  0  0  0  0  0  0  0  0
  191.1260  176.1020  142.7400 C   0  0  1  0  0  3  0  0  0  0  0  0
  189.2800  177.6820  144.5630 C   0  0  0  0  0  0  0  0  0  0  0  0
  189.2700  177.3360  145.9420 N   0  0  0  0  0  1  0  0  0  0  0  0
  189.7990  178.7700  144.2000 O   0  0  0  0  0  0  0  0  0  0  0  0
  1 16  1  1  0  0  0
  1  5  1  0  0  0  0
  1 20  1  0  0  0  0
  2 13  2  0  0  0  0
  2 20  1  0  0  0  0
  3 10  1  0  0  0  0
  6 15  1  6  0  0  0
  6 12  1  0  0  0  0
  7  6  1  0  0  0  0
  9 28  1  6  0  0  0
 10 22  2  0  0  0  0
 11  8  1  1  0  0  0
 11  7  1  0  0  0  0
 11  5  1  0  0  0  0
 12 19  1  0  0  0  0
 13 18  1  0  0  0  0
 14  9  1  0  0  0  0
 17  3  1  0  0  0  0
 18 25  1  0  0  0  0
 18 17  2  0  0  0  0
 19 27  1  0  0  0  0
 20 26  2  0  0  0  0
 21  4  1  1  0  0  0
 21 23  1  0  0  0  0
 23 10  1  1  0  0  0
 23  9  1  0  0  0  0
 26 17  1  0  0  0  0
 26 21  1  0  0  0  0
 27 14  1  0  0  0  0
 27 24  1  1  0  0  0
 28 29  1  0  0  0  0
 30 28  2  0  0  0  0
M  END
>  <MODEL>
1

>  <REMARK>
 VINA RESULT:      -8.4      0.000      0.000
  Name = 
  1 active torsions:
  status: ('A' for Active; 'I' for Inactive)
    1  A    between atoms: C_7  and  C_10
                            x       y       z     vdW  Elec       q    Type
                         _______ _______ _______ _____ _____    ______ ____

>  <TORSDO>
F 1

$$$$
=
 OpenBabel10272414013D

 30 32  0  0  1  0  0  0  0  0999 V2000
  186.3720  177.8180  146.6180 C   0  0  2  0  0  3  0  0  0  0  0  0
  184.1350  178.5070  145.7820 C   0  0  0  0  0  3  0  0  0  0  0  0
  185.4110  178.5970  141.7420 N   0  0  0  0  0  2  0  0  0  0  0  0
  187.2250  176.3590  143.3980 O   0  0  0  0  0  1  0  0  0  0  0  0
  187.6390  178.6760  146.6040 C   0  0  0  0  0  2  0  0  0  0  0  0
  190.3330  177.0750  146.8090 C   0  0  2  0  0  3  0  0  0  0  0  0
  189.2530  177.1720  147.8810 C   0  0  0  0  0  2  0  0  0  0  0  0
  189.3650  179.5560  147.9840 F   0  0  0  0  0  0  0  0  0  0  0  0
  189.2750  178.4030  142.2470 C   0  0  2  0  0  3  0  0  0  0  0  0
  186.8100  178.5780  141.4380 C   0  0  0  0  0  0  0  0  0  0  0  0
  188.4860  178.4970  147.8590 C   0  0  1  0  0  3  0  0  0  0  0  0
  189.7170  176.5520  145.5150 C   0  0  0  0  0  2  0  0  0  0  0  0
  183.2310  178.8290  144.7670 C   0  0  0  0  0  3  0  0  0  0  0  0
  190.1830  178.8070  143.4270 C   0  0  0  0  0  2  0  0  0  0  0  0
  191.4060  176.1200  147.2970 C   0  0  0  0  0  1  0  0  0  0  0  0
  186.6860  176.4580  146.5620 O   0  0  0  0  0  1  0  0  0  0  0  0
  184.9640  178.5120  143.1050 C   0  0  0  0  0  0  0  0  0  0  0  0
  183.6410  178.8340  143.4320 C   0  0  0  0  0  0  0  0  0  0  0  0
  190.7110  176.4620  144.3600 C   0  0  0  0  0  2  0  0  0  0  0  0
  185.4590  178.1760  145.4780 C   0  0  0  0  0  0  0  0  0  0  0  0
  187.2620  177.7110  143.7440 C   0  0  1  0  0  3  0  0  0  0  0  0
  187.1980  178.6430  140.2410 O   0  0  0  0  0  0  0  0  0  0  0  0
  187.7850  178.5610  142.5830 C   0  0  1  0  0  3  0  0  0  0  0  0
  192.3770  177.6620  142.9250 C   0  0  0  0  0  1  0  0  0  0  0  0
  182.7320  179.1720  142.4370 O   0  0  0  0  0  1  0  0  0  0  0  0
  185.8760  178.1600  144.1270 C   0  0  0  0  0  0  0  0  0  0  0  0
  191.2490  177.8210  143.9260 C   0  0  1  0  0  3  0  0  0  0  0  0
  189.6690  177.2240  141.4020 C   0  0  0  0  0  0  0  0  0  0  0  0
  190.3190  177.4450  140.1560 N   0  0  0  0  0  1  0  0  0  0  0  0
  189.4420  176.0460  141.7830 O   0  0  0  0  0  0  0  0  0  0  0  0
  1 16  1  6  0  0  0
  3 17  1  0  0  0  0
  5  1  1  0  0  0  0
  5 11  1  0  0  0  0
  6 15  1  1  0  0  0
  6  7  1  0  0  0  0
  9 28  1  1  0  0  0
  9 23  1  0  0  0  0
  9 14  1  0  0  0  0
 10  3  1  0  0  0  0
 11  7  1  0  0  0  0
 11  8  1  6  0  0  0
 12  6  1  0  0  0  0
 13  2  2  0  0  0  0
 14 27  1  0  0  0  0
 17 18  2  0  0  0  0
 17 26  1  0  0  0  0
 18 13  1  0  0  0  0
 19 12  1  0  0  0  0
 20  2  1  0  0  0  0
 20  1  1  0  0  0  0
 21  4  1  6  0  0  0
 21 26  1  0  0  0  0
 22 10  2  0  0  0  0
 23 10  1  6  0  0  0
 23 21  1  0  0  0  0
 25 18  1  0  0  0  0
 26 20  2  0  0  0  0
 27 24  1  6  0  0  0
 27 19  1  0  0  0  0
 28 30  2  0  0  0  0
 29 28  1  0  0  0  0
M  END
>  <MODEL>
2

>  <REMARK>
 VINA RESULT:      -8.3      3.166      5.648
  Name = 
  1 active torsions:
  status: ('A' for Active; 'I' for Inactive)
    1  A    between atoms: C_7  and  C_10
                            x       y       z     vdW  Elec       q    Type
                         _______ _______ _______ _____ _____    ______ ____

>  <TORSDO>
F 1

$$$$
=
 OpenBabel10272414013D

 30 32  0  0  1  0  0  0  0  0999 V2000
  184.8230  178.5480  144.3790 C   0  0  2  0  0  3  0  0  0  0  0  0
  183.7010  179.0870  142.2270 C   0  0  0  0  0  3  0  0  0  0  0  0
  187.2190  178.4320  139.9580 N   0  0  0  0  0  2  0  0  0  0  0  0
  187.3170  176.5220  142.6750 O   0  0  0  0  0  1  0  0  0  0  0  0
  185.9130  179.3810  145.0560 C   0  0  0  0  0  2  0  0  0  0  0  0
  187.6730  177.8300  147.1440 C   0  0  2  0  0  3  0  0  0  0  0  0
  186.1810  178.1260  147.2580 C   0  0  0  0  0  2  0  0  0  0  0  0
  186.4900  180.4890  147.0820 F   0  0  0  0  0  0  0  0  0  0  0  0
  189.8630  178.3110  142.8240 C   0  0  2  0  0  3  0  0  0  0  0  0
  188.4870  178.3490  140.6180 C   0  0  0  0  0  0  0  0  0  0  0  0
  185.7620  179.4290  146.5730 C   0  0  1  0  0  3  0  0  0  0  0  0
  187.9420  177.0830  145.8410 C   0  0  0  0  0  2  0  0  0  0  0  0
  183.6760  179.2230  140.8370 C   0  0  0  0  0  3  0  0  0  0  0  0
  189.8760  178.9170  144.2420 C   0  0  0  0  0  2  0  0  0  0  0  0
  188.0810  176.9730  148.3280 C   0  0  0  0  0  1  0  0  0  0  0  0
  184.9380  177.1990  144.7220 O   0  0  0  0  0  1  0  0  0  0  0  0
  186.0140  178.5990  140.7210 C   0  0  0  0  0  0  0  0  0  0  0  0
  184.8260  178.9830  140.0830 C   0  0  0  0  0  0  0  0  0  0  0  0
  189.4190  176.7780  145.6080 C   0  0  0  0  0  2  0  0  0  0  0  0
  184.8730  178.6980  142.8840 C   0  0  0  0  0  0  0  0  0  0  0  0
  187.2910  177.9140  142.7760 C   0  0  1  0  0  3  0  0  0  0  0  0
  189.5410  178.1930  139.9470 O   0  0  0  0  0  0  0  0  0  0  0  0
  188.5220  178.5350  142.1110 C   0  0  1  0  0  3  0  0  0  0  0  0
  191.7450  177.6870  145.4130 C   0  0  0  0  0  1  0  0  0  0  0  0
  184.7870  179.1390  138.7030 O   0  0  0  0  0  1  0  0  0  0  0  0
  186.0370  178.4340  142.1250 C   0  0  0  0  0  0  0  0  0  0  0  0
  190.2690  178.0330  145.4340 C   0  0  1  0  0  3  0  0  0  0  0  0
  190.5530  176.9950  142.5940 C   0  0  0  0  0  0  0  0  0  0  0  0
  191.9150  176.9840  142.1840 N   0  0  0  0  0  1  0  0  0  0  0  0
  189.9490  175.9040  142.7680 O   0  0  0  0  0  0  0  0  0  0  0  0
  1 16  1  6  0  0  0
  1  5  1  0  0  0  0
  2 20  1  0  0  0  0
  3 10  1  0  0  0  0
  3 17  1  0  0  0  0
  5 11  1  0  0  0  0
  6  7  1  0  0  0  0
  6 15  1  1  0  0  0
  9 28  1  1  0  0  0
  9 14  1  0  0  0  0
 11  8  1  1  0  0  0
 11  7  1  0  0  0  0
 12  6  1  0  0  0  0
 13  2  2  0  0  0  0
 14 27  1  0  0  0  0
 17 26  1  0  0  0  0
 18 17  2  0  0  0  0
 18 13  1  0  0  0  0
 19 12  1  0  0  0  0
 20  1  1  0  0  0  0
 21  4  1  6  0  0  0
 22 10  2  0  0  0  0
 23 10  1  6  0  0  0
 23 21  1  0  0  0  0
 23  9  1  0  0  0  0
 25 18  1  0  0  0  0
 26 21  1  0  0  0  0
 26 20  2  0  0  0  0
 27 24  1  6  0  0  0
 27 19  1  0  0  0  0
 28 30  2  0  0  0  0
 29 28  1  0  0  0  0
M  END
>  <MODEL>
3

>  <REMARK>
 VINA RESULT:      -7.5      3.048      5.479
  Name = 
  1 active torsions:
  status: ('A' for Active; 'I' for Inactive)
    1  A    between atoms: C_7  and  C_10
                            x       y       z     vdW  Elec       q    Type
                         _______ _______ _______ _____ _____    ______ ____

>  <TORSDO>
F 1

$$$$
=
 OpenBabel10272414013D

 30 32  0  0  1  0  0  0  0  0999 V2000
  185.3040  178.6980  141.5900 C   0  0  2  0  0  3  0  0  0  0  0  0
  185.7760  178.7970  139.1510 C   0  0  0  0  0  3  0  0  0  0  0  0
  189.7840  177.5120  139.6350 N   0  0  0  0  0  2  0  0  0  0  0  0
  187.9400  176.2440  142.0910 O   0  0  0  0  0  1  0  0  0  0  0  0
  185.9050  179.6130  142.6580 C   0  0  0  0  0  2  0  0  0  0  0  0
  185.8060  178.4860  145.5870 C   0  0  2  0  0  3  0  0  0  0  0  0
  184.6080  178.8630  144.7200 C   0  0  0  0  0  2  0  0  0  0  0  0
  185.3510  181.1140  144.4200 F   0  0  0  0  0  0  0  0  0  0  0  0
  190.1640  177.9140  143.4970 C   0  0  2  0  0  3  0  0  0  0  0  0
  190.3820  177.5240  140.9350 C   0  0  0  0  0  0  0  0  0  0  0  0
  184.8990  180.0000  143.7370 C   0  0  1  0  0  3  0  0  0  0  0  0
  186.6620  177.4610  144.8500 C   0  0  0  0  0  2  0  0  0  0  0  0
  186.5970  178.6250  138.0350 C   0  0  0  0  0  3  0  0  0  0  0  0
  189.4390  178.8160  144.5160 C   0  0  0  0  0  2  0  0  0  0  0  0
  185.2870  177.8950  146.8850 C   0  0  0  0  0  1  0  0  0  0  0  0
  184.9660  177.4540  142.1270 O   0  0  0  0  0  1  0  0  0  0  0  0
  188.4090  177.8940  139.4660 C   0  0  0  0  0  0  0  0  0  0  0  0
  187.9100  178.1770  138.1880 C   0  0  0  0  0  0  0  0  0  0  0  0
  187.9160  177.0500  145.6170 C   0  0  0  0  0  2  0  0  0  0  0  0
  186.2490  178.5140  140.4360 C   0  0  0  0  0  0  0  0  0  0  0  0
  188.0930  177.6240  141.9470 C   0  0  1  0  0  3  0  0  0  0  0  0
  191.5860  177.1800  141.0810 O   0  0  0  0  0  0  0  0  0  0  0  0
  189.5620  178.0320  142.0890 C   0  0  1  0  0  3  0  0  0  0  0  0
  190.0210  177.7960  146.7530 C   0  0  0  0  0  1  0  0  0  0  0  0
  188.7190  178.0280  137.0680 O   0  0  0  0  0  1  0  0  0  0  0  0
  187.5720  178.0400  140.5960 C   0  0  0  0  0  0  0  0  0  0  0  0
  188.9000  178.1990  145.8150 C   0  0  1  0  0  3  0  0  0  0  0  0
  190.6240  176.5510  143.9360 C   0  0  0  0  0  0  0  0  0  0  0  0
  191.7890  176.4370  144.7450 N   0  0  0  0  0  1  0  0  0  0  0  0
  189.9930  175.5130  143.6080 O   0  0  0  0  0  0  0  0  0  0  0  0
  1 16  1  1  0  0  0
  1  5  1  0  0  0  0
  2 20  1  0  0  0  0
  3 10  1  0  0  0  0
  5 11  1  0  0  0  0
  6 15  1  1  0  0  0
  7  6  1  0  0  0  0
  9 28  1  1  0  0  0
  9 14  1  0  0  0  0
 10 22  2  0  0  0  0
 11  8  1  1  0  0  0
 11  7  1  0  0  0  0
 12  6  1  0  0  0  0
 12 19  1  0  0  0  0
 13 18  1  0  0  0  0
 13  2  2  0  0  0  0
 14 27  1  0  0  0  0
 17  3  1  0  0  0  0
 17 26  1  0  0  0  0
 18 17  2  0  0  0  0
 19 27  1  0  0  0  0
 20 26  2  0  0  0  0
 20  1  1  0  0  0  0
 21 23  1  0  0  0  0
 21  4  1  6  0  0  0
 23 10  1  6  0  0  0
 23  9  1  0  0  0  0
 25 18  1  0  0  0  0
 26 21  1  0  0  0  0
 27 24  1  1  0  0  0
 28 29  1  0  0  0  0
 30 28  2  0  0  0  0
M  END
>  <MODEL>
4

>  <REMARK>
 VINA RESULT:      -6.4      2.868      5.330
  Name = 
  1 active torsions:
  status: ('A' for Active; 'I' for Inactive)
    1  A    between atoms: C_7  and  C_10
                            x       y       z     vdW  Elec       q    Type
                         _______ _______ _______ _____ _____    ______ ____

>  <TORSDO>
F 1

$$$$
=
 OpenBabel10272414013D

 30 32  0  0  1  0  0  0  0  0999 V2000
  190.5530  177.2180  140.9920 C   0  0  2  0  0  3  0  0  0  0  0  0
  190.1250  177.4520  138.5540 C   0  0  0  0  0  3  0  0  0  0  0  0
  186.1480  178.7900  139.1420 N   0  0  0  0  0  2  0  0  0  0  0  0
  187.9810  179.6680  141.7700 O   0  0  0  0  0  1  0  0  0  0  0  0
  189.9050  176.1910  141.9230 C   0  0  0  0  0  2  0  0  0  0  0  0
  189.9820  176.9240  144.9750 C   0  0  2  0  0  3  0  0  0  0  0  0
  191.1840  176.6250  144.0840 C   0  0  0  0  0  2  0  0  0  0  0  0
  190.3800  174.4580  143.4820 F   0  0  0  0  0  0  0  0  0  0  0  0
  185.6830  177.9020  142.9130 C   0  0  2  0  0  3  0  0  0  0  0  0
  185.5250  178.6280  140.4210 C   0  0  0  0  0  0  0  0  0  0  0  0
  190.8780  175.6360  142.9570 C   0  0  1  0  0  3  0  0  0  0  0  0
  189.1710  178.0640  144.3650 C   0  0  0  0  0  2  0  0  0  0  0  0
  189.3300  177.7930  137.4580 C   0  0  0  0  0  3  0  0  0  0  0  0
  186.3620  176.8520  143.8160 C   0  0  0  0  0  2  0  0  0  0  0  0
  190.4930  177.3250  146.3470 C   0  0  0  0  0  1  0  0  0  0  0  0
  190.9170  178.3700  141.6920 O   0  0  0  0  0  1  0  0  0  0  0  0
  187.5130  178.3900  138.9450 C   0  0  0  0  0  0  0  0  0  0  0  0
  188.0280  178.2590  137.6490 C   0  0  0  0  0  0  0  0  0  0  0  0
  187.9150  178.4110  145.1610 C   0  0  0  0  0  2  0  0  0  0  0  0
  189.6350  177.5810  139.8580 C   0  0  0  0  0  0  0  0  0  0  0  0
  187.7910  178.3240  141.4450 C   0  0  1  0  0  3  0  0  0  0  0  0
  184.3290  178.9880  140.5930 O   0  0  0  0  0  0  0  0  0  0  0  0
  186.3080  177.9490  141.5110 C   0  0  1  0  0  3  0  0  0  0  0  0
  185.7680  177.5910  146.1580 C   0  0  0  0  0  1  0  0  0  0  0  0
  187.2450  178.5780  136.5460 O   0  0  0  0  0  1  0  0  0  0  0  0
  188.3240  178.0710  140.0590 C   0  0  0  0  0  0  0  0  0  0  0  0
  186.8940  177.2780  145.1920 C   0  0  1  0  0  3  0  0  0  0  0  0
  185.2550  179.2100  143.5190 C   0  0  0  0  0  0  0  0  0  0  0  0
  184.0320  179.2750  144.2430 N   0  0  0  0  0  1  0  0  0  0  0  0
  185.9630  180.2440  143.4040 O   0  0  0  0  0  0  0  0  0  0  0  0
  1 16  1  1  0  0  0
  1  5  1  0  0  0  0
  2 20  1  0  0  0  0
  3 10  1  0  0  0  0
  5 11  1  0  0  0  0
  6 15  1  1  0  0  0
  7  6  1  0  0  0  0
  9 28  1  1  0  0  0
  9 14  1  0  0  0  0
 10 22  2  0  0  0  0
 11  8  1  1  0  0  0
 11  7  1  0  0  0  0
 12  6  1  0  0  0  0
 12 19  1  0  0  0  0
 13 18  1  0  0  0  0
 13  2  2  0  0  0  0
 14 27  1  0  0  0  0
 17  3  1  0  0  0  0
 17 26  1  0  0  0  0
 18 17  2  0  0  0  0
 19 27  1  0  0  0  0
 20 26  2  0  0  0  0
 20  1  1  0  0  0  0
 21 23  1  0  0  0  0
 21  4  1  6  0  0  0
 23 10  1  6  0  0  0
 23  9  1  0  0  0  0
 25 18  1  0  0  0  0
 26 21  1  0  0  0  0
 27 24  1  1  0  0  0
 28 29  1  0  0  0  0
 30 28  2  0  0  0  0
M  END
>  <MODEL>
5

>  <REMARK>
 VINA RESULT:      -6.3      2.106      4.412
  Name = 
  1 active torsions:
  status: ('A' for Active; 'I' for Inactive)
    1  A    between atoms: C_7  and  C_10
                            x       y       z     vdW  Elec       q    Type
                         _______ _______ _______ _____ _____    ______ ____

>  <TORSDO>
F 1

$$$$
=
 OpenBabel10272414013D

 30 32  0  0  1  0  0  0  0  0999 V2000
  188.3990  178.2120  140.4010 C   0  0  2  0  0  3  0  0  0  0  0  0
  186.5380  178.4130  138.7650 C   0  0  0  0  0  3  0  0  0  0  0  0
  183.5970  178.7570  141.7960 N   0  0  0  0  0  2  0  0  0  0  0  0
  186.4730  179.9620  142.9420 O   0  0  0  0  0  1  0  0  0  0  0  0
  188.6400  177.0330  141.3460 C   0  0  0  0  0  2  0  0  0  0  0  0
  190.4420  177.6690  143.8380 C   0  0  2  0  0  3  0  0  0  0  0  0
  190.8770  177.6900  142.3760 C   0  0  0  0  0  2  0  0  0  0  0  0
  190.2520  175.4130  142.0080 F   0  0  0  0  0  0  0  0  0  0  0  0
  185.6920  177.6690  144.9020 C   0  0  2  0  0  3  0  0  0  0  0  0
  183.9240  178.4130  143.1460 C   0  0  0  0  0  0  0  0  0  0  0  0
  190.1180  176.6920  141.4980 C   0  0  1  0  0  3  0  0  0  0  0  0
  189.2500  178.6030  144.0240 C   0  0  0  0  0  2  0  0  0  0  0  0
  185.1950  178.5910  138.4230 C   0  0  0  0  0  3  0  0  0  0  0  0
  186.9460  176.7810  145.0400 C   0  0  0  0  0  2  0  0  0  0  0  0
  191.6080  178.1370  144.6890 C   0  0  0  0  0  1  0  0  0  0  0  0
  188.9150  179.3950  140.9340 O   0  0  0  0  0  1  0  0  0  0  0  0
  184.6000  178.6960  140.7690 C   0  0  0  0  0  0  0  0  0  0  0  0
  184.2270  178.7310  139.4190 C   0  0  0  0  0  0  0  0  0  0  0  0
  188.7070  178.6200  145.4510 C   0  0  0  0  0  2  0  0  0  0  0  0
  186.9350  178.3830  140.1060 C   0  0  0  0  0  0  0  0  0  0  0  0
  186.3530  178.6210  142.5710 C   0  0  1  0  0  3  0  0  0  0  0  0
  183.0440  178.4760  144.0460 O   0  0  0  0  0  0  0  0  0  0  0  0
  185.3100  177.9040  143.4330 C   0  0  1  0  0  3  0  0  0  0  0  0
  187.7940  177.2870  147.3650 C   0  0  0  0  0  1  0  0  0  0  0  0
  182.8940  178.8900  139.0610 O   0  0  0  0  0  1  0  0  0  0  0  0
  185.9610  178.5440  141.1190 C   0  0  0  0  0  0  0  0  0  0  0  0
  188.1280  177.2770  145.8860 C   0  0  1  0  0  3  0  0  0  0  0  0
  185.5110  178.8190  145.8530 C   0  0  0  0  0  0  0  0  0  0  0  0
  184.8570  178.5990  147.0960 N   0  0  0  0  0  1  0  0  0  0  0  0
  185.9370  179.9700  145.5710 O   0  0  0  0  0  0  0  0  0  0  0  0
  1 16  1  1  0  0  0
  1  5  1  0  0  0  0
  2 20  1  0  0  0  0
  3 10  1  0  0  0  0
  5 11  1  0  0  0  0
  6 12  1  0  0  0  0
  6 15  1  1  0  0  0
  7  6  1  0  0  0  0
  9 14  1  0  0  0  0
  9 28  1  6  0  0  0
 10 22  2  0  0  0  0
 11  8  1  1  0  0  0
 11  7  1  0  0  0  0
 12 19  1  0  0  0  0
 13  2  2  0  0  0  0
 13 18  1  0  0  0  0
 14 27  1  0  0  0  0
 17 26  1  0  0  0  0
 17  3  1  0  0  0  0
 18 17  2  0  0  0  0
 19 27  1  0  0  0  0
 20  1  1  0  0  0  0
 20 26  2  0  0  0  0
 21  4  1  1  0  0  0
 21 23  1  0  0  0  0
 23 10  1  1  0  0  0
 23  9  1  0  0  0  0
 25 18  1  0  0  0  0
 26 21  1  0  0  0  0
 27 24  1  1  0  0  0
 28 29  1  0  0  0  0
 30 28  2  0  0  0  0
M  END
>  <MODEL>
6

>  <REMARK>
 VINA RESULT:      -6.2      2.178      3.244
  Name = 
  1 active torsions:
  status: ('A' for Active; 'I' for Inactive)
    1  A    between atoms: C_7  and  C_10
                            x       y       z     vdW  Elec       q    Type
                         _______ _______ _______ _____ _____    ______ ____

>  <TORSDO>
F 1

$$$$
=
 OpenBabel10272414013D

 30 32  0  0  1  0  0  0  0  0999 V2000
  182.3120  177.4830  139.5280 C   0  0  2  0  0  3  0  0  0  0  0  0
  182.5330  178.2870  141.8700 C   0  0  0  0  0  3  0  0  0  0  0  0
  186.6550  179.1650  141.4290 N   0  0  0  0  0  2  0  0  0  0  0  0
  185.1620  179.4840  138.4780 O   0  0  0  0  0  1  0  0  0  0  0  0
  182.9450  176.2160  138.9500 C   0  0  0  0  0  2  0  0  0  0  0  0
  183.2200  176.1700  135.8220 C   0  0  2  0  0  3  0  0  0  0  0  0
  181.9180  176.1840  136.6180 C   0  0  0  0  0  2  0  0  0  0  0  0
  182.4570  174.1850  137.8100 F   0  0  0  0  0  0  0  0  0  0  0  0
  187.3820  177.3380  138.0600 C   0  0  2  0  0  3  0  0  0  0  0  0
  187.3750  178.6480  140.3060 C   0  0  0  0  0  0  0  0  0  0  0  0
  182.0240  175.4880  137.9760 C   0  0  1  0  0  3  0  0  0  0  0  0
  184.0740  177.3680  136.2280 C   0  0  0  0  0  2  0  0  0  0  0  0
  183.2510  178.8360  142.9340 C   0  0  0  0  0  3  0  0  0  0  0  0
  186.6950  176.1440  137.3650 C   0  0  0  0  0  2  0  0  0  0  0  0
  182.8780  176.2510  134.3460 C   0  0  0  0  0  1  0  0  0  0  0  0
  182.1230  178.4470  138.5340 O   0  0  0  0  0  1  0  0  0  0  0  0
  185.2450  178.9190  141.5620 C   0  0  0  0  0  0  0  0  0  0  0  0
  184.6030  179.1510  142.7850 C   0  0  0  0  0  0  0  0  0  0  0  0
  185.4250  177.4200  135.5190 C   0  0  0  0  0  2  0  0  0  0  0  0
  183.1510  178.0540  140.6370 C   0  0  0  0  0  0  0  0  0  0  0  0
  185.1950  178.2530  139.1360 C   0  0  1  0  0  3  0  0  0  0  0  0
  188.6100  178.8730  140.1880 O   0  0  0  0  0  0  0  0  0  0  0  0
  186.6370  177.7740  139.3300 C   0  0  1  0  0  3  0  0  0  0  0  0
  187.5690  176.2360  134.9960 C   0  0  0  0  0  1  0  0  0  0  0  0
  185.3060  179.6810  143.8600 O   0  0  0  0  0  1  0  0  0  0  0  0
  184.5150  178.3900  140.4730 C   0  0  0  0  0  0  0  0  0  0  0  0
  186.3340  176.2490  135.8760 C   0  0  1  0  0  3  0  0  0  0  0  0
  187.9840  178.4210  137.2100 C   0  0  0  0  0  0  0  0  0  0  0  0
  189.3310  178.2940  136.7700 N   0  0  0  0  0  1  0  0  0  0  0  0
  187.3150  179.4320  136.8730 O   0  0  0  0  0  0  0  0  0  0  0  0
  1 16  1  6  0  0  0
  1 20  1  0  0  0  0
  2 13  1  0  0  0  0
  3 17  1  0  0  0  0
  5  1  1  0  0  0  0
  6 15  1  6  0  0  0
  6 12  1  0  0  0  0
  6  7  1  0  0  0  0
  7 11  1  0  0  0  0
  9 28  1  6  0  0  0
  9 23  1  0  0  0  0
 10  3  1  0  0  0  0
 11  8  1  6  0  0  0
 11  5  1  0  0  0  0
 14  9  1  0  0  0  0
 17 18  1  0  0  0  0
 18 13  2  0  0  0  0
 18 25  1  0  0  0  0
 19 27  1  0  0  0  0
 19 12  1  0  0  0  0
 20  2  2  0  0  0  0
 21  4  1  1  0  0  0
 21 23  1  0  0  0  0
 21 26  1  0  0  0  0
 22 10  2  0  0  0  0
 23 10  1  6  0  0  0
 26 20  1  0  0  0  0
 26 17  2  0  0  0  0
 27 24  1  6  0  0  0
 27 14  1  0  0  0  0
 29 28  1  0  0  0  0
 30 28  2  0  0  0  0
M  END
>  <MODEL>
7

>  <REMARK>
 VINA RESULT:      -5.9      3.621      6.628
  Name = 
  1 active torsions:
  status: ('A' for Active; 'I' for Inactive)
    1  A    between atoms: C_7  and  C_10
                            x       y       z     vdW  Elec       q    Type
                         _______ _______ _______ _____ _____    ______ ____

>  <TORSDO>
F 1

$$$$
=
 OpenBabel10272414013D

 30 32  0  0  1  0  0  0  0  0999 V2000
  185.2370  178.4750  142.7910 C   0  0  2  0  0  3  0  0  0  0  0  0
  186.7640  177.9670  144.6870 C   0  0  0  0  0  3  0  0  0  0  0  0
  190.1090  177.4020  142.1490 N   0  0  0  0  0  2  0  0  0  0  0  0
  188.0240  179.5580  140.7210 O   0  0  0  0  0  1  0  0  0  0  0  0
  184.7790  177.4860  141.7180 C   0  0  0  0  0  2  0  0  0  0  0  0
  183.7250  178.7930  139.0640 C   0  0  2  0  0  3  0  0  0  0  0  0
  183.0870  178.9050  140.4450 C   0  0  0  0  0  2  0  0  0  0  0  0
  182.8540  176.5400  140.6880 F   0  0  0  0  0  0  0  0  0  0  0  0
  188.3140  177.2120  138.6910 C   0  0  2  0  0  3  0  0  0  0  0  0
  189.9140  177.2420  140.7400 C   0  0  0  0  0  0  0  0  0  0  0  0
  183.3170  177.6750  141.3270 C   0  0  1  0  0  3  0  0  0  0  0  0
  185.1730  179.2700  139.1350 C   0  0  0  0  0  2  0  0  0  0  0  0
  188.0140  177.6630  145.2310 C   0  0  0  0  0  3  0  0  0  0  0  0
  186.8780  176.8110  138.2940 C   0  0  0  0  0  2  0  0  0  0  0  0
  182.9370  179.6620  138.1020 C   0  0  0  0  0  1  0  0  0  0  0  0
  185.2380  179.7830  142.3010 O   0  0  0  0  0  1  0  0  0  0  0  0
  188.9880  177.6480  143.0130 C   0  0  0  0  0  0  0  0  0  0  0  0
  189.1240  177.5020  144.4000 C   0  0  0  0  0  0  0  0  0  0  0  0
  185.9180  179.1540  137.8070 C   0  0  0  0  0  2  0  0  0  0  0  0
  186.6060  178.1250  143.3060 C   0  0  0  0  0  0  0  0  0  0  0  0
  187.6310  178.2440  140.9810 C   0  0  1  0  0  3  0  0  0  0  0  0
  190.9010  177.0350  139.9840 O   0  0  0  0  0  0  0  0  0  0  0  0
  188.5050  177.2470  140.2140 C   0  0  1  0  0  3  0  0  0  0  0  0
  186.6410  177.6640  135.9280 C   0  0  0  0  0  1  0  0  0  0  0  0
  190.3560  177.1840  144.9570 O   0  0  0  0  0  1  0  0  0  0  0  0
  187.7300  177.9830  142.4610 C   0  0  0  0  0  0  0  0  0  0  0  0
  186.0840  177.7130  137.3380 C   0  0  1  0  0  3  0  0  0  0  0  0
  189.0190  178.2670  137.8840 C   0  0  0  0  0  0  0  0  0  0  0  0
  189.7320  177.8880  136.7130 N   0  0  0  0  0  1  0  0  0  0  0  0
  188.9820  179.4790  138.2220 O   0  0  0  0  0  0  0  0  0  0  0  0
  1 16  1  6  0  0  0
  1 20  1  0  0  0  0
  2 13  1  0  0  0  0
  3 17  1  0  0  0  0
  5  1  1  0  0  0  0
  6 15  1  6  0  0  0
  6 12  1  0  0  0  0
  6  7  1  0  0  0  0
  7 11  1  0  0  0  0
  9 28  1  1  0  0  0
  9 23  1  0  0  0  0
 10  3  1  0  0  0  0
 11  8  1  6  0  0  0
 11  5  1  0  0  0  0
 14  9  1  0  0  0  0
 17 18  1  0  0  0  0
 18 25  1  0  0  0  0
 18 13  2  0  0  0  0
 19 12  1  0  0  0  0
 20  2  2  0  0  0  0
 21  4  1  1  0  0  0
 21 26  1  0  0  0  0
 22 10  2  0  0  0  0
 23 10  1  6  0  0  0
 23 21  1  0  0  0  0
 26 17  2  0  0  0  0
 26 20  1  0  0  0  0
 27 24  1  6  0  0  0
 27 19  1  0  0  0  0
 27 14  1  0  0  0  0
 28 30  2  0  0  0  0
 29 28  1  0  0  0  0
M  END
>  <MODEL>
8

>  <REMARK>
 VINA RESULT:      -5.8      2.536      6.488
  Name = 
  1 active torsions:
  status: ('A' for Active; 'I' for Inactive)
    1  A    between atoms: C_7  and  C_10
                            x       y       z     vdW  Elec       q    Type
                         _______ _______ _______ _____ _____    ______ ____

>  <TORSDO>
F 1

$$$$
