=
 OpenBabel10272414493D

 37 43  0  0  1  0  0  0  0  0999 V2000
  195.7910  174.1970  137.5640 C   0  0  2  0  0  3  0  0  0  0  0  0
  195.4950  171.1080  136.3870 C   0  0  1  0  0  0  0  0  0  0  0  0
  192.2060  173.2980  136.9110 C   0  0  2  0  0  3  0  0  0  0  0  0
  196.8760  174.2070  136.4610 C   0  0  1  0  0  3  0  0  0  0  0  0
  192.3930  176.6950  137.6090 C   0  0  0  0  0  2  0  0  0  0  0  0
  193.6400  171.3810  134.6630 C   0  0  0  0  0  2  0  0  0  0  0  0
  194.2510  176.1860  139.1180 O   0  0  0  0  0  1  0  0  0  0  0  0
  196.4460  174.4820  135.1340 O   0  0  0  0  0  0  0  0  0  0  0  0
  193.4500  172.4670  137.0500 C   0  0  1  0  0  3  0  0  0  0  0  0
  190.9120  175.8050  135.8260 C   0  0  0  0  0  2  0  0  0  0  0  0
  192.1710  171.1970  134.3460 C   0  0  0  0  0  2  0  0  0  0  0  0
  195.3130  176.4780  134.3460 C   0  0  0  0  0  2  0  0  0  0  0  0
  195.7850  172.9140  138.4200 C   0  0  0  0  0  2  0  0  0  0  0  0
  196.2220  171.7130  135.3620 O   0  0  0  0  0  1  0  0  0  0  0  0
  189.7790  173.3170  136.3040 C   0  0  0  0  0  2  0  0  0  0  0  0
  191.4330  172.5010  134.5550 C   0  0  0  0  0  2  0  0  0  0  0  0
  196.1080  171.5480  137.7500 C   0  0  0  0  0  2  0  0  0  0  0  0
  194.1330  176.3940  135.3240 C   0  0  0  0  0  2  0  0  0  0  0  0
  193.6540  175.8590  137.9010 C   0  0  1  0  0  0  0  0  0  0  0  0
  191.1300  172.6570  136.0350 C   0  0  1  0  0  3  0  0  0  0  0  0
  194.3880  174.7170  137.1400 C   0  0  1  0  0  0  0  0  0  0  0  0
  193.9630  171.3190  136.1710 C   0  0  2  0  0  3  0  0  0  0  0  0
  191.1000  175.9330  137.3380 C   0  0  2  0  0  3  0  0  0  0  0  0
  195.7420  169.6160  136.2860 C   0  0  0  0  0  1  0  0  0  0  0  0
  194.6160  176.1720  136.7590 C   0  0  1  0  0  3  0  0  0  0  0  0
  196.6180  175.8480  134.8510 C   0  0  0  0  0  2  0  0  0  0  0  0
  193.5180  173.7770  136.2700 C   0  0  2  0  0  3  0  0  0  0  0  0
  189.4370  174.8400  135.3390 S   0  0  0  0  0  0  0  0  0  0  0  0
  190.2350  177.0800  139.4170 C   0  0  0  0  0  2  0  0  0  0  0  0
  189.8960  176.6130  138.0000 C   0  0  1  0  0  3  0  0  0  0  0  0
  189.3140  177.7320  137.1680 C   0  0  0  0  0  3  0  0  0  0  0  0
  188.1290  179.7210  136.9650 F   0  0  0  0  0  0  0  0  0  0  0  0
  188.5270  178.8120  139.1640 N   0  0  0  0  0  2  0  0  0  0  0  0
  188.6370  178.7300  137.7360 C   0  0  0  0  0  0  0  0  0  0  0  0
  189.0020  177.7380  140.0310 C   0  0  0  0  0  2  0  0  0  0  0  0
  199.2450  173.5090  137.0040 C   0  0  0  0  0  1  0  0  0  0  0  0
  198.2790  174.6750  136.8690 C   0  0  0  0  0  2  0  0  0  0  0  0
  1 13  1  6  0  0  0
  2 24  1  6  0  0  0
  2 17  1  0  0  0  0
  3  9  1  0  0  0  0
  4 37  1  0  0  0  0
  4  1  1  0  0  0  0
  5 19  1  0  0  0  0
  6 22  1  0  0  0  0
  8  4  1  0  0  0  0
 10 23  1  0  0  0  0
 11 16  1  0  0  0  0
 11  6  1  0  0  0  0
 12 26  1  0  0  0  0
 12 18  1  0  0  0  0
 14  2  1  0  0  0  0
 16 20  1  0  0  0  0
 17 13  1  0  0  0  0
 18 25  1  0  0  0  0
 19  7  1  0  0  0  0
 20 15  1  0  0  0  0
 20  3  1  0  0  0  0
 21  1  1  0  0  0  0
 21 19  1  0  0  0  0
 22  2  1  0  0  0  0
 22  9  1  0  0  0  0
 23  5  1  0  0  0  0
 23 30  1  0  0  0  0
 25 21  1  0  0  0  0
 25 19  1  0  0  0  0
 26  8  1  0  0  0  0
 27  3  1  0  0  0  0
 27  9  1  0  0  0  0
 27 21  1  0  0  0  0
 28 10  1  0  0  0  0
 28 15  1  0  0  0  0
 29 35  1  0  0  0  0
 30 29  1  0  0  0  0
 31 34  2  0  0  0  0
 31 30  1  0  0  0  0
 32 34  1  0  0  0  0
 33 35  1  0  0  0  0
 34 33  1  0  0  0  0
 37 36  1  0  0  0  0
M  END
>  <MODEL>
1

>  <REMARK>
 VINA RESULT:      -5.9      0.000      0.000
  Name = 
  2 active torsions:
  status: ('A' for Active; 'I' for Inactive)
    1  A    between atoms: C_5  and  C_23
    2  A    between atoms: C_6  and  C_31
                            x       y       z     vdW  Elec       q    Type
                         _______ _______ _______ _____ _____    ______ ____

>  <TORSDO>
F 2

$$$$
=
 OpenBabel10272414493D

 37 43  0  0  1  0  0  0  0  0999 V2000
  195.5090  173.6050  137.0660 C   0  0  2  0  0  3  0  0  0  0  0  0
  194.0090  171.1600  135.3960 C   0  0  1  0  0  0  0  0  0  0  0  0
  191.7720  173.8880  137.2520 C   0  0  2  0  0  3  0  0  0  0  0  0
  196.2970  173.6440  135.7350 C   0  0  1  0  0  3  0  0  0  0  0  0
  193.1750  176.7800  138.5670 C   0  0  0  0  0  2  0  0  0  0  0  0
  192.0350  172.3800  134.3460 C   0  0  0  0  0  2  0  0  0  0  0  0
  195.0330  175.4030  139.3640 O   0  0  0  0  0  1  0  0  0  0  0  0
  195.7220  174.3840  134.6660 O   0  0  0  0  0  0  0  0  0  0  0  0
  192.6850  172.7580  136.8660 C   0  0  1  0  0  3  0  0  0  0  0  0
  191.1620  176.8460  137.1150 C   0  0  0  0  0  2  0  0  0  0  0  0
  190.5530  172.6800  134.4140 C   0  0  0  0  0  2  0  0  0  0  0  0
  195.1570  176.7440  134.6560 C   0  0  0  0  0  2  0  0  0  0  0  0
  195.2640  172.1800  137.6020 C   0  0  0  0  0  2  0  0  0  0  0  0
  194.6710  171.8200  134.3610 O   0  0  0  0  0  1  0  0  0  0  0  0
  189.4090  174.7060  137.3540 C   0  0  0  0  0  2  0  0  0  0  0  0
  190.3300  174.0170  135.0870 C   0  0  0  0  0  2  0  0  0  0  0  0
  194.9900  171.0240  136.5990 C   0  0  0  0  0  2  0  0  0  0  0  0
  194.2320  176.6960  135.8810 C   0  0  0  0  0  2  0  0  0  0  0  0
  194.1320  175.5990  138.3190 C   0  0  1  0  0  0  0  0  0  0  0  0
  190.3950  173.8220  136.5920 C   0  0  1  0  0  3  0  0  0  0  0  0
  194.2930  174.5680  137.1630 C   0  0  1  0  0  0  0  0  0  0  0  0
  192.6160  171.8130  135.6600 C   0  0  2  0  0  3  0  0  0  0  0  0
  191.6780  176.4880  138.5090 C   0  0  2  0  0  3  0  0  0  0  0  0
  193.7390  169.7460  134.9210 C   0  0  0  0  0  1  0  0  0  0  0  0
  194.8950  175.9610  137.0480 C   0  0  1  0  0  3  0  0  0  0  0  0
  196.2630  175.6810  134.6390 C   0  0  0  0  0  2  0  0  0  0  0  0
  193.0120  174.1710  136.3890 C   0  0  2  0  0  3  0  0  0  0  0  0
  189.3890  176.4740  136.8610 S   0  0  0  0  0  0  0  0  0  0  0  0
  189.6250  176.5090  139.9810 C   0  0  0  0  0  2  0  0  0  0  0  0
  190.9140  177.2420  139.6040 C   0  0  1  0  0  3  0  0  0  0  0  0
  191.7600  177.5440  140.8180 C   0  0  0  0  0  3  0  0  0  0  0  0
  191.9880  177.9860  143.0880 F   0  0  0  0  0  0  0  0  0  0  0  0
  189.7930  177.5310  142.1970 N   0  0  0  0  0  2  0  0  0  0  0  0
  191.2040  177.7190  142.0170 C   0  0  0  0  0  0  0  0  0  0  0  0
  188.9010  177.3050  141.0630 C   0  0  0  0  0  2  0  0  0  0  0  0
  198.3130  173.8710  137.2440 C   0  0  0  0  0  1  0  0  0  0  0  0
  197.8270  173.5970  135.8300 C   0  0  0  0  0  2  0  0  0  0  0  0
  1 21  1  0  0  0  0
  1 13  1  6  0  0  0
  2 24  1  6  0  0  0
  2 22  1  0  0  0  0
  2 17  1  0  0  0  0
  4 37  1  0  0  0  0
  4  1  1  0  0  0  0
  6 11  1  0  0  0  0
  6 22  1  0  0  0  0
  8  4  1  0  0  0  0
  9  3  1  0  0  0  0
 10 23  1  0  0  0  0
 11 16  1  0  0  0  0
 12 18  1  0  0  0  0
 14  2  1  0  0  0  0
 16 20  1  0  0  0  0
 17 13  1  0  0  0  0
 18 25  1  0  0  0  0
 19  5  1  0  0  0  0
 19  7  1  0  0  0  0
 20  3  1  0  0  0  0
 20 15  1  0  0  0  0
 21 19  1  0  0  0  0
 22  9  1  0  0  0  0
 23  5  1  0  0  0  0
 23 30  1  0  0  0  0
 25 21  1  0  0  0  0
 25 19  1  0  0  0  0
 26 12  1  0  0  0  0
 26  8  1  0  0  0  0
 27  9  1  0  0  0  0
 27 21  1  0  0  0  0
 27  3  1  0  0  0  0
 28 10  1  0  0  0  0
 28 15  1  0  0  0  0
 29 35  1  0  0  0  0
 30 29  1  0  0  0  0
 30 31  1  0  0  0  0
 31 34  2  0  0  0  0
 34 33  1  0  0  0  0
 34 32  1  0  0  0  0
 35 33  1  0  0  0  0
 37 36  1  0  0  0  0
M  END
>  <MODEL>
2

>  <REMARK>
 VINA RESULT:      -5.0      1.806      2.195
  Name = 
  2 active torsions:
  status: ('A' for Active; 'I' for Inactive)
    1  A    between atoms: C_5  and  C_23
    2  A    between atoms: C_6  and  C_31
                            x       y       z     vdW  Elec       q    Type
                         _______ _______ _______ _____ _____    ______ ____

>  <TORSDO>
F 2

$$$$
=
 OpenBabel10272414493D

 37 43  0  0  1  0  0  0  0  0999 V2000
  188.9730  175.2320  136.9110 C   0  0  2  0  0  3  0  0  0  0  0  0
  187.7720  172.5060  135.4460 C   0  0  1  0  0  0  0  0  0  0  0  0
  185.2460  174.9900  137.2750 C   0  0  2  0  0  3  0  0  0  0  0  0
  189.6870  175.3070  135.5400 C   0  0  1  0  0  3  0  0  0  0  0  0
  186.2700  178.1230  138.3670 C   0  0  0  0  0  2  0  0  0  0  0  0
  185.5970  173.3690  134.4390 C   0  0  0  0  0  2  0  0  0  0  0  0
  188.3410  177.0730  139.1370 O   0  0  0  0  0  1  0  0  0  0  0  0
  188.9650  175.8940  134.4660 O   0  0  0  0  0  0  0  0  0  0  0  0
  186.2960  173.9810  136.9000 C   0  0  1  0  0  3  0  0  0  0  0  0
  184.2070  177.8170  137.0200 C   0  0  0  0  0  2  0  0  0  0  0  0
  184.0920  173.4590  134.5690 C   0  0  0  0  0  2  0  0  0  0  0  0
  188.0620  178.1450  134.3660 C   0  0  0  0  0  2  0  0  0  0  0  0
  188.9610  173.8200  137.5300 C   0  0  0  0  0  2  0  0  0  0  0  0
  188.2860  173.1930  134.3460 O   0  0  0  0  0  1  0  0  0  0  0  0
  182.7960  175.4660  137.4570 C   0  0  0  0  0  2  0  0  0  0  0  0
  183.7070  174.7860  135.1830 C   0  0  0  0  0  2  0  0  0  0  0  0
  188.8140  172.5810  136.6020 C   0  0  0  0  0  2  0  0  0  0  0  0
  187.2090  178.0360  135.6380 C   0  0  0  0  0  2  0  0  0  0  0  0
  187.3760  177.0780  138.1310 C   0  0  1  0  0  0  0  0  0  0  0  0
  183.8650  174.6900  136.6910 C   0  0  1  0  0  3  0  0  0  0  0  0
  187.6350  176.0160  137.0220 C   0  0  1  0  0  0  0  0  0  0  0  0
  186.3120  172.9680  135.7480 C   0  0  2  0  0  3  0  0  0  0  0  0
  184.8310  177.6180  138.4020 C   0  0  2  0  0  3  0  0  0  0  0  0
  187.6900  171.0440  135.0580 C   0  0  0  0  0  1  0  0  0  0  0  0
  188.0220  177.4710  136.8050 C   0  0  1  0  0  3  0  0  0  0  0  0
  189.3100  177.2510  134.3460 C   0  0  0  0  0  2  0  0  0  0  0  0
  186.3930  175.3970  136.3360 C   0  0  2  0  0  3  0  0  0  0  0  0
  182.4970  177.1810  136.8770 S   0  0  0  0  0  0  0  0  0  0  0  0
  183.0100  177.3540  140.1340 C   0  0  0  0  0  2  0  0  0  0  0  0
  184.0130  178.3160  139.4950 C   0  0  1  0  0  3  0  0  0  0  0  0
  184.8720  178.9980  140.5340 C   0  0  0  0  0  3  0  0  0  0  0  0
  185.2120  179.8210  142.6800 F   0  0  0  0  0  0  0  0  0  0  0  0
  183.1340  178.7090  142.1660 N   0  0  0  0  0  2  0  0  0  0  0  0
  184.4180  179.2100  141.7700 C   0  0  0  0  0  0  0  0  0  0  0  0
  182.2190  178.1010  141.2040 C   0  0  0  0  0  2  0  0  0  0  0  0
  191.6890  176.1230  136.8530 C   0  0  0  0  0  1  0  0  0  0  0  0
  191.2110  175.4850  135.5590 C   0  0  0  0  0  2  0  0  0  0  0  0
  1 21  1  0  0  0  0
  1 13  1  6  0  0  0
  2 24  1  6  0  0  0
  2 22  1  0  0  0  0
  2 17  1  0  0  0  0
  4 37  1  0  0  0  0
  4  1  1  0  0  0  0
  5 23  1  0  0  0  0
  6 11  1  0  0  0  0
  6 22  1  0  0  0  0
  8  4  1  0  0  0  0
  9  3  1  0  0  0  0
 10 23  1  0  0  0  0
 11 16  1  0  0  0  0
 12 18  1  0  0  0  0
 14  2  1  0  0  0  0
 16 20  1  0  0  0  0
 17 13  1  0  0  0  0
 18 25  1  0  0  0  0
 19  5  1  0  0  0  0
 19  7  1  0  0  0  0
 20  3  1  0  0  0  0
 20 15  1  0  0  0  0
 21 19  1  0  0  0  0
 22  9  1  0  0  0  0
 23 30  1  0  0  0  0
 25 21  1  0  0  0  0
 25 19  1  0  0  0  0
 26 12  1  0  0  0  0
 26  8  1  0  0  0  0
 27  9  1  0  0  0  0
 27 21  1  0  0  0  0
 27  3  1  0  0  0  0
 28 10  1  0  0  0  0
 28 15  1  0  0  0  0
 29 35  1  0  0  0  0
 30 29  1  0  0  0  0
 30 31  1  0  0  0  0
 31 34  2  0  0  0  0
 34 33  1  0  0  0  0
 34 32  1  0  0  0  0
 35 33  1  0  0  0  0
 37 36  1  0  0  0  0
M  END
>  <MODEL>
3

>  <REMARK>
 VINA RESULT:      -4.9      4.778      7.205
  Name = 
  2 active torsions:
  status: ('A' for Active; 'I' for Inactive)
    1  A    between atoms: C_5  and  C_23
    2  A    between atoms: C_6  and  C_31
                            x       y       z     vdW  Elec       q    Type
                         _______ _______ _______ _____ _____    ______ ____

>  <TORSDO>
F 2

$$$$
=
 OpenBabel10272414493D

 37 43  0  0  1  0  0  0  0  0999 V2000
  181.4980  177.4690  138.7900 C   0  0  2  0  0  3  0  0  0  0  0  0
  184.3540  178.6990  139.9510 C   0  0  1  0  0  0  0  0  0  0  0  0
  184.4590  175.5630  137.4920 C   0  0  2  0  0  3  0  0  0  0  0  0
  181.2840  178.9790  138.5320 C   0  0  1  0  0  3  0  0  0  0  0  0
  181.6240  174.5160  135.7810 C   0  0  0  0  0  2  0  0  0  0  0  0
  185.8750  178.4960  137.9180 C   0  0  0  0  0  2  0  0  0  0  0  0
  180.3540  174.9160  137.8340 O   0  0  0  0  0  1  0  0  0  0  0  0
  181.8330  179.5150  137.3360 O   0  0  0  0  0  0  0  0  0  0  0  0
  184.2930  176.5220  138.6370 C   0  0  1  0  0  3  0  0  0  0  0  0
  183.7960  174.8600  134.6280 C   0  0  0  0  0  2  0  0  0  0  0  0
  186.9730  177.7110  137.2340 C   0  0  0  0  0  2  0  0  0  0  0  0
  181.3350  178.8310  135.0610 C   0  0  0  0  0  2  0  0  0  0  0  0
  182.1080  177.1530  140.1710 C   0  0  0  0  0  2  0  0  0  0  0  0
  183.8840  179.7800  139.2050 O   0  0  0  0  0  1  0  0  0  0  0  0
  186.0720  174.2540  136.0970 C   0  0  0  0  0  2  0  0  0  0  0  0
  186.3730  176.7760  136.2070 C   0  0  0  0  0  2  0  0  0  0  0  0
  183.1660  178.1190  140.7760 C   0  0  0  0  0  2  0  0  0  0  0  0
  181.7060  177.3530  135.2500 C   0  0  0  0  0  2  0  0  0  0  0  0
  181.3950  175.3840  137.0330 C   0  0  1  0  0  0  0  0  0  0  0  0
  185.8740  175.5290  136.9160 C   0  0  1  0  0  3  0  0  0  0  0  0
  182.0890  176.6550  137.6030 C   0  0  1  0  0  0  0  0  0  0  0  0
  185.1630  177.7180  139.0460 C   0  0  2  0  0  3  0  0  0  0  0  0
  183.0240  173.9440  135.5770 C   0  0  2  0  0  3  0  0  0  0  0  0
  185.3320  179.2520  140.9680 C   0  0  0  0  0  1  0  0  0  0  0  0
  181.0460  176.7710  136.5010 C   0  0  1  0  0  3  0  0  0  0  0  0
  180.8500  179.5430  136.3320 C   0  0  0  0  0  2  0  0  0  0  0  0
  183.5990  176.8250  137.3120 C   0  0  2  0  0  3  0  0  0  0  0  0
  185.5290  174.3480  134.3460 S   0  0  0  0  0  0  0  0  0  0  0  0
  183.7370  171.5530  135.9790 C   0  0  0  0  0  2  0  0  0  0  0  0
  182.9730  172.5040  135.0540 C   0  0  1  0  0  3  0  0  0  0  0  0
  181.5680  172.0160  134.7900 C   0  0  0  0  0  3  0  0  0  0  0  0
  180.0040  170.3090  134.5850 F   0  0  0  0  0  0  0  0  0  0  0  0
  182.2690  169.7570  135.2040 N   0  0  0  0  0  2  0  0  0  0  0  0
  181.2730  170.7160  134.8230 C   0  0  0  0  0  0  0  0  0  0  0  0
  183.6640  170.1400  135.4070 C   0  0  0  0  0  2  0  0  0  0  0  0
  180.1870  180.2790  140.4040 C   0  0  0  0  0  1  0  0  0  0  0  0
  179.9830  179.5970  139.0610 C   0  0  0  0  0  2  0  0  0  0  0  0
  1 13  1  1  0  0  0
  2 17  1  0  0  0  0
  2 24  1  1  0  0  0
  3  9  1  0  0  0  0
  4  1  1  0  0  0  0
  4 37  1  0  0  0  0
  5 19  1  0  0  0  0
  6 22  1  0  0  0  0
  8  4  1  0  0  0  0
  9 22  1  0  0  0  0
 10 23  1  0  0  0  0
 11  6  1  0  0  0  0
 12 18  1  0  0  0  0
 12 26  1  0  0  0  0
 13 17  1  0  0  0  0
 14  2  1  0  0  0  0
 15 20  1  0  0  0  0
 16 20  1  0  0  0  0
 16 11  1  0  0  0  0
 18 25  1  0  0  0  0
 19 21  1  0  0  0  0
 19  7  1  0  0  0  0
 20  3  1  0  0  0  0
 21  1  1  0  0  0  0
 22  2  1  0  0  0  0
 23  5  1  0  0  0  0
 25 19  1  0  0  0  0
 25 21  1  0  0  0  0
 26  8  1  0  0  0  0
 27  3  1  0  0  0  0
 27 21  1  0  0  0  0
 27  9  1  0  0  0  0
 28 10  1  0  0  0  0
 28 15  1  0  0  0  0
 30 23  1  0  0  0  0
 30 29  1  0  0  0  0
 31 34  2  0  0  0  0
 31 30  1  0  0  0  0
 32 34  1  0  0  0  0
 33 35  1  0  0  0  0
 34 33  1  0  0  0  0
 35 29  1  0  0  0  0
 37 36  1  0  0  0  0
M  END
>  <MODEL>
4

>  <REMARK>
 VINA RESULT:      -4.8      8.623     12.364
  Name = 
  2 active torsions:
  status: ('A' for Active; 'I' for Inactive)
    1  A    between atoms: C_5  and  C_23
    2  A    between atoms: C_6  and  C_31
                            x       y       z     vdW  Elec       q    Type
                         _______ _______ _______ _____ _____    ______ ____

>  <TORSDO>
F 2

$$$$
=
 OpenBabel10272414493D

 37 43  0  0  1  0  0  0  0  0999 V2000
  188.7600  175.7930  137.0530 C   0  0  2  0  0  3  0  0  0  0  0  0
  188.3770  172.8410  135.5850 C   0  0  1  0  0  0  0  0  0  0  0  0
  185.1800  174.6680  137.1140 C   0  0  2  0  0  3  0  0  0  0  0  0
  189.5550  176.0200  135.7450 C   0  0  1  0  0  3  0  0  0  0  0  0
  185.3280  177.9690  138.1820 C   0  0  0  0  0  2  0  0  0  0  0  0
  186.1580  173.1440  134.3720 C   0  0  0  0  0  2  0  0  0  0  0  0
  187.5130  177.4560  139.1560 O   0  0  0  0  0  1  0  0  0  0  0  0
  188.8120  176.4040  134.5950 O   0  0  0  0  0  0  0  0  0  0  0  0
  186.4690  173.9360  136.8610 C   0  0  1  0  0  3  0  0  0  0  0  0
  183.5250  177.1600  136.6790 C   0  0  0  0  0  2  0  0  0  0  0  0
  184.6690  172.8710  134.3730 C   0  0  0  0  0  2  0  0  0  0  0  0
  187.4120  178.3700  134.3460 C   0  0  0  0  0  2  0  0  0  0  0  0
  189.0290  174.4270  137.7160 C   0  0  0  0  0  2  0  0  0  0  0  0
  188.8080  173.6170  134.5100 O   0  0  0  0  0  1  0  0  0  0  0  0
  182.6820  174.5450  137.0760 C   0  0  0  0  0  2  0  0  0  0  0  0
  183.9260  174.0750  134.9090 C   0  0  0  0  0  2  0  0  0  0  0  0
  189.2650  173.1780  136.8210 C   0  0  0  0  0  2  0  0  0  0  0  0
  186.5000  178.0760  135.5450 C   0  0  0  0  0  2  0  0  0  0  0  0
  186.6680  177.2170  138.0740 C   0  0  1  0  0  0  0  0  0  0  0  0
  183.9690  174.0380  136.4270 C   0  0  1  0  0  3  0  0  0  0  0  0
  187.2690  176.2350  137.0260 C   0  0  1  0  0  0  0  0  0  0  0  0
  186.8280  172.9430  135.7490 C   0  0  2  0  0  3  0  0  0  0  0  0
  184.0530  177.1330  138.1140 C   0  0  2  0  0  3  0  0  0  0  0  0
  188.6800  171.3960  135.2410 C   0  0  0  0  0  1  0  0  0  0  0  0
  187.3170  177.7370  136.7940 C   0  0  1  0  0  3  0  0  0  0  0  0
  188.8330  177.8020  134.4600 C   0  0  0  0  0  2  0  0  0  0  0  0
  186.2760  175.3270  136.2600 C   0  0  2  0  0  3  0  0  0  0  0  0
  182.0360  176.1310  136.4160 S   0  0  0  0  0  0  0  0  0  0  0  0
  183.6290  177.9350  140.4720 C   0  0  0  0  0  2  0  0  0  0  0  0
  183.0000  177.6290  139.1110 C   0  0  1  0  0  3  0  0  0  0  0  0
  182.1940  178.7960  138.5930 C   0  0  0  0  0  3  0  0  0  0  0  0
  180.9040  180.6980  138.9370 F   0  0  0  0  0  0  0  0  0  0  0  0
  181.8290  179.5500  140.8440 N   0  0  0  0  0  2  0  0  0  0  0  0
  181.6180  179.6590  139.4300 C   0  0  0  0  0  0  0  0  0  0  0  0
  182.5380  178.4120  141.4260 C   0  0  0  0  0  2  0  0  0  0  0  0
  192.0200  175.5070  135.5230 C   0  0  0  0  0  1  0  0  0  0  0  0
  190.9850  176.5580  135.8840 C   0  0  0  0  0  2  0  0  0  0  0  0
  1 13  1  6  0  0  0
  2 24  1  6  0  0  0
  2 22  1  0  0  0  0
  2 17  1  0  0  0  0
  4 37  1  0  0  0  0
  4  1  1  0  0  0  0
  6 11  1  0  0  0  0
  6 22  1  0  0  0  0
  8  4  1  0  0  0  0
  9  3  1  0  0  0  0
 10 23  1  0  0  0  0
 11 16  1  0  0  0  0
 12 26  1  0  0  0  0
 12 18  1  0  0  0  0
 14  2  1  0  0  0  0
 16 20  1  0  0  0  0
 17 13  1  0  0  0  0
 18 25  1  0  0  0  0
 19  5  1  0  0  0  0
 19  7  1  0  0  0  0
 20 15  1  0  0  0  0
 20  3  1  0  0  0  0
 21  1  1  0  0  0  0
 21 19  1  0  0  0  0
 22  9  1  0  0  0  0
 23  5  1  0  0  0  0
 23 30  1  0  0  0  0
 25 21  1  0  0  0  0
 25 19  1  0  0  0  0
 26  8  1  0  0  0  0
 27  9  1  0  0  0  0
 27 21  1  0  0  0  0
 27  3  1  0  0  0  0
 28 10  1  0  0  0  0
 28 15  1  0  0  0  0
 29 35  1  0  0  0  0
 30 29  1  0  0  0  0
 31 30  1  0  0  0  0
 31 34  2  0  0  0  0
 32 34  1  0  0  0  0
 33 35  1  0  0  0  0
 34 33  1  0  0  0  0
 36 37  1  0  0  0  0
M  END
>  <MODEL>
5

>  <REMARK>
 VINA RESULT:      -4.2      4.883      7.382
  Name = 
  2 active torsions:
  status: ('A' for Active; 'I' for Inactive)
    1  A    between atoms: C_5  and  C_23
    2  A    between atoms: C_6  and  C_31
                            x       y       z     vdW  Elec       q    Type
                         _______ _______ _______ _____ _____    ______ ____

>  <TORSDO>
F 2

$$$$
=
 OpenBabel10272414493D

 37 43  0  0  1  0  0  0  0  0999 V2000
  187.2800  176.1700  135.6700 C   0  0  2  0  0  3  0  0  0  0  0  0
  189.8400  176.8660  137.6650 C   0  0  1  0  0  0  0  0  0  0  0  0
  186.2460  178.3550  138.5410 C   0  0  2  0  0  3  0  0  0  0  0  0
  187.8890  174.7600  135.8550 C   0  0  1  0  0  3  0  0  0  0  0  0
  183.3950  177.2810  136.8750 C   0  0  0  0  0  2  0  0  0  0  0  0
  188.7490  176.7740  139.9650 C   0  0  0  0  0  2  0  0  0  0  0  0
  184.7000  177.3280  134.8070 O   0  0  0  0  0  1  0  0  0  0  0  0
  187.5070  174.0380  137.0180 O   0  0  0  0  0  0  0  0  0  0  0  0
  187.5890  178.0150  137.9570 C   0  0  1  0  0  3  0  0  0  0  0  0
  183.4950  177.4020  139.3530 C   0  0  0  0  0  2  0  0  0  0  0  0
  188.1710  177.5600  141.1220 C   0  0  0  0  0  2  0  0  0  0  0  0
  185.2590  173.3930  137.6680 C   0  0  0  0  0  2  0  0  0  0  0  0
  188.3290  177.2730  135.4220 C   0  0  0  0  0  2  0  0  0  0  0  0
  189.7510  175.4830  137.8210 O   0  0  0  0  0  1  0  0  0  0  0  0
  185.0190  179.4640  140.4180 C   0  0  0  0  0  2  0  0  0  0  0  0
  186.6640  177.6150  141.0030 C   0  0  0  0  0  2  0  0  0  0  0  0
  189.7010  177.1990  136.1490 C   0  0  0  0  0  2  0  0  0  0  0  0
  184.6720  174.8120  137.6550 C   0  0  0  0  0  2  0  0  0  0  0  0
  184.7410  177.0350  136.1690 C   0  0  1  0  0  0  0  0  0  0  0  0
  186.2920  178.7160  140.0250 C   0  0  1  0  0  3  0  0  0  0  0  0
  186.1380  176.5500  136.6550 C   0  0  1  0  0  0  0  0  0  0  0  0
  188.8840  177.5930  138.6630 C   0  0  2  0  0  3  0  0  0  0  0  0
  183.3980  178.2290  138.0710 C   0  0  2  0  0  3  0  0  0  0  0  0
  191.2500  177.2680  138.0490 C   0  0  0  0  0  1  0  0  0  0  0  0
  185.0300  175.5490  136.3640 C   0  0  1  0  0  3  0  0  0  0  0  0
  186.4410  173.1740  136.7140 C   0  0  0  0  0  2  0  0  0  0  0  0
  186.5450  176.9110  138.1040 C   0  0  2  0  0  3  0  0  0  0  0  0
  183.5930  178.4050  140.8800 S   0  0  0  0  0  0  0  0  0  0  0  0
  182.5230  180.5610  138.4980 C   0  0  0  0  0  2  0  0  0  0  0  0
  182.1620  179.1350  138.0770 C   0  0  1  0  0  3  0  0  0  0  0  0
  181.4050  179.1150  136.7700 C   0  0  0  0  0  3  0  0  0  0  0  0
  179.9820  180.1010  135.2190 F   0  0  0  0  0  0  0  0  0  0  0  0
  180.6100  181.3420  137.1900 N   0  0  0  0  0  2  0  0  0  0  0  0
  180.6470  180.1470  136.3980 C   0  0  0  0  0  0  0  0  0  0  0  0
  181.2580  181.4140  138.4970 C   0  0  0  0  0  2  0  0  0  0  0  0
  189.6790  173.8050  134.3460 C   0  0  0  0  0  1  0  0  0  0  0  0
  188.1860  173.9570  134.5810 C   0  0  0  0  0  2  0  0  0  0  0  0
  1 13  1  1  0  0  0
  1  4  1  0  0  0  0
  1 21  1  0  0  0  0
  2 14  1  0  0  0  0
  2 24  1  1  0  0  0
  2 22  1  0  0  0  0
  3 20  1  0  0  0  0
  4  8  1  0  0  0  0
  5 23  1  0  0  0  0
  6 11  1  0  0  0  0
  7 19  1  0  0  0  0
  9 27  1  0  0  0  0
  9  3  1  0  0  0  0
  9 22  1  0  0  0  0
 10 28  1  0  0  0  0
 13 17  1  0  0  0  0
 15 28  1  0  0  0  0
 16 11  1  0  0  0  0
 17  2  1  0  0  0  0
 18 12  1  0  0  0  0
 19 25  1  0  0  0  0
 19 21  1  0  0  0  0
 19  5  1  0  0  0  0
 20 15  1  0  0  0  0
 20 16  1  0  0  0  0
 21 27  1  0  0  0  0
 22  6  1  0  0  0  0
 23 30  1  0  0  0  0
 23 10  1  0  0  0  0
 25 21  1  0  0  0  0
 25 18  1  0  0  0  0
 26  8  1  0  0  0  0
 26 12  1  0  0  0  0
 27  3  1  0  0  0  0
 30 29  1  0  0  0  0
 31 30  1  0  0  0  0
 32 34  1  0  0  0  0
 33 35  1  0  0  0  0
 34 31  2  0  0  0  0
 34 33  1  0  0  0  0
 35 29  1  0  0  0  0
 36 37  1  0  0  0  0
 37  4  1  0  0  0  0
M  END
>  <MODEL>
6

>  <REMARK>
 VINA RESULT:      -3.9      5.307      8.986
  Name = 
  2 active torsions:
  status: ('A' for Active; 'I' for Inactive)
    1  A    between atoms: C_5  and  C_23
    2  A    between atoms: C_6  and  C_31
                            x       y       z     vdW  Elec       q    Type
                         _______ _______ _______ _____ _____    ______ ____

>  <TORSDO>
F 2

$$$$
=
 OpenBabel10272414493D

 37 43  0  0  1  0  0  0  0  0999 V2000
  183.2400  177.4430  135.5760 C   0  0  2  0  0  3  0  0  0  0  0  0
  181.1940  174.8300  135.6240 C   0  0  1  0  0  0  0  0  0  0  0  0
  185.1290  174.2010  135.5360 C   0  0  2  0  0  3  0  0  0  0  0  0
  182.2830  177.8520  136.7210 C   0  0  1  0  0  3  0  0  0  0  0  0
  187.3820  176.7970  136.0280 C   0  0  0  0  0  2  0  0  0  0  0  0
  182.4430  173.2170  137.1490 C   0  0  0  0  0  2  0  0  0  0  0  0
  185.9390  178.1900  134.6270 O   0  0  0  0  0  1  0  0  0  0  0  0
  182.5640  177.3340  138.0140 O   0  0  0  0  0  0  0  0  0  0  0  0
  183.6930  174.5410  135.2520 C   0  0  1  0  0  3  0  0  0  0  0  0
  187.5720  174.6490  137.2590 C   0  0  0  0  0  2  0  0  0  0  0  0
  183.3320  171.9960  137.2400 C   0  0  0  0  0  2  0  0  0  0  0  0
  184.5950  177.6440  139.3050 C   0  0  0  0  0  2  0  0  0  0  0  0
  182.5220  176.8510  134.3460 C   0  0  0  0  0  2  0  0  0  0  0  0
  180.9070  175.4130  136.8580 O   0  0  0  0  0  1  0  0  0  0  0  0
  186.8020  172.3710  135.8720 C   0  0  0  0  0  2  0  0  0  0  0  0
  184.7750  172.4220  137.4050 C   0  0  0  0  0  2  0  0  0  0  0  0
  181.2650  175.9590  134.5520 C   0  0  0  0  0  2  0  0  0  0  0  0
  185.5520  177.0830  138.2430 C   0  0  0  0  0  2  0  0  0  0  0  0
  185.9560  177.1920  135.6010 C   0  0  1  0  0  0  0  0  0  0  0  0
  185.3380  172.7730  136.0380 C   0  0  1  0  0  3  0  0  0  0  0  0
  184.5360  176.7010  136.0080 C   0  0  1  0  0  0  0  0  0  0  0  0
  182.4100  173.8600  135.7450 C   0  0  2  0  0  3  0  0  0  0  0  0
  187.7660  175.3260  135.9020 C   0  0  2  0  0  3  0  0  0  0  0  0
  179.9990  173.9780  135.2470 C   0  0  0  0  0  1  0  0  0  0  0  0
  185.2850  177.7060  136.8710 C   0  0  1  0  0  3  0  0  0  0  0  0
  183.3090  178.2710  138.7500 C   0  0  0  0  0  2  0  0  0  0  0  0
  184.3960  175.2170  136.4260 C   0  0  2  0  0  3  0  0  0  0  0  0
  187.9150  172.8520  137.2500 S   0  0  0  0  0  0  0  0  0  0  0  0
  189.7530  176.4810  134.8520 C   0  0  0  0  0  2  0  0  0  0  0  0
  189.2000  175.1590  135.3880 C   0  0  1  0  0  3  0  0  0  0  0  0
  190.1270  174.5380  136.4070 C   0  0  0  0  0  2  0  0  0  0  0  0
  192.2470  174.1920  137.2930 F   0  0  0  0  0  0  0  0  0  0  0  0
  191.9940  175.6700  135.4050 N   0  0  0  0  0  0  0  0  0  0  0  0
  191.4410  174.7590  136.3650 C   0  0  0  0  0  0  0  0  0  0  0  0
  191.1750  176.2560  134.3460 C   0  0  0  0  0  2  0  0  0  0  0  0
  180.1830  179.1710  136.2250 C   0  0  0  0  0  1  0  0  0  0  0  0
  181.6460  179.2450  136.6310 C   0  0  0  0  0  2  0  0  0  0  0  0
  1 13  1  6  0  0  0
  1 21  1  0  0  0  0
  1  4  1  0  0  0  0
  2 24  1  6  0  0  0
  2 22  1  0  0  0  0
  2 14  1  0  0  0  0
  3 20  1  0  0  0  0
  3 27  1  0  0  0  0
  4  8  1  0  0  0  0
  6 11  1  0  0  0  0
  7 19  1  0  0  0  0
  8 26  1  0  0  0  0
  9  3  1  0  0  0  0
  9 22  1  0  0  0  0
  9 27  1  0  0  0  0
 11 16  1  0  0  0  0
 13 17  1  0  0  0  0
 15 20  1  0  0  0  0
 15 28  1  0  0  0  0
 17  2  1  0  0  0  0
 18 12  1  0  0  0  0
 19 21  1  0  0  0  0
 19  5  1  0  0  0  0
 19 25  1  0  0  0  0
 20 16  1  0  0  0  0
 21 27  1  0  0  0  0
 21 25  1  0  0  0  0
 22  6  1  0  0  0  0
 23  5  1  0  0  0  0
 23 10  1  0  0  0  0
 25 18  1  0  0  0  0
 26 12  1  0  0  0  0
 28 10  1  0  0  0  0
 29 30  1  0  0  0  0
 30 23  1  0  0  0  0
 30 31  1  0  0  0  0
 33 34  2  0  0  0  0
 34 31  1  0  0  0  0
 34 32  1  0  0  0  0
 35 29  1  0  0  0  0
 35 33  1  0  0  0  0
 36 37  1  0  0  0  0
 37  4  1  0  0  0  0
M  END
>  <MODEL>
7

>  <REMARK>
 VINA RESULT:      -3.3      6.281     10.686
  Name = 
  2 active torsions:
  status: ('A' for Active; 'I' for Inactive)
    1  A    between atoms: C_5  and  C_23
    2  A    between atoms: C_6  and  C_31
                            x       y       z     vdW  Elec       q    Type
                         _______ _______ _______ _____ _____    ______ ____

>  <TORSDO>
F 2

$$$$
