=
 OpenBabel10272400323D

 31 35  0  0  1  0  0  0  0  0999 V2000
  187.3760  177.5670  135.7570 C   0  0  2  0  0  3  0  0  0  0  0  0
  186.2240  178.2750  139.3440 C   0  0  0  0  0  0  0  0  0  0  0  0
  184.7070  178.4740  139.2330 C   0  0  1  0  0  3  0  0  0  0  0  0
  183.4310  176.2950  138.5030 C   0  0  0  0  0  2  0  0  0  0  0  0
  187.0590  178.0920  138.2090 C   0  0  0  0  0  0  0  0  0  0  0  0
  188.8100  178.0450  135.9010 C   0  0  0  0  0  2  0  0  0  0  0  0
  184.0270  177.6670  138.1070 C   0  0  0  0  0  2  0  0  0  0  0  0
  188.2090  178.1950  140.7850 C   0  0  0  0  0  0  0  0  0  0  0  0
  186.8590  177.9170  134.3780 C   0  0  0  0  0  1  0  0  0  0  0  0
  184.6560  179.1730  141.6400 C   0  0  0  0  0  2  0  0  0  0  0  0
  182.5800  176.2820  139.6380 O   0  0  0  0  0  0  0  0  0  0  0  0
  189.0000  177.9350  139.6660 C   0  0  0  0  0  3  0  0  0  0  0  0
  186.8310  178.4010  140.6220 C   0  0  0  0  0  0  0  0  0  0  0  0
  186.5150  178.2560  136.8090 C   0  0  0  0  0  2  0  0  0  0  0  0
  181.8040  177.4580  139.6660 C   0  0  0  0  0  2  0  0  0  0  0  0
  188.4500  177.9090  138.3880 C   0  0  0  0  0  0  0  0  0  0  0  0
  189.3650  177.5800  137.2410 C   0  0  0  0  0  2  0  0  0  0  0  0
  186.0440  178.7540  141.7690 N   0  0  0  0  0  2  0  0  0  0  0  0
  183.9970  178.3060  140.5930 C   0  0  1  0  0  3  0  0  0  0  0  0
  182.4840  178.5210  140.5390 C   0  0  0  0  0  2  0  0  0  0  0  0
  188.2020  176.1430  142.9050 O   0  0  0  0  0  0  0  0  0  0  0  0
  188.7700  177.2510  143.1060 C   0  0  0  0  0  0  0  0  0  0  0  0
  188.7810  178.2720  142.1000 N   0  0  0  0  0  2  0  0  0  0  0  0
  191.1390  176.5950  147.1650 C   0  0  0  0  0  2  0  0  0  0  0  0
  188.3880  177.4430  145.5230 C   0  0  0  0  0  2  0  0  0  0  0  0
  191.5340  176.4680  143.4370 C   0  0  0  0  0  1  0  0  0  0  0  0
  189.6440  176.6210  147.4960 C   0  0  0  0  0  2  0  0  0  0  0  0
  188.9210  177.8190  146.8990 C   0  0  0  0  0  2  0  0  0  0  0  0
  190.6470  176.5820  144.6670 C   0  0  2  0  0  3  0  0  0  0  0  0
  189.4450  177.5190  144.4180 C   0  0  1  0  0  3  0  0  0  0  0  0
  191.5090  177.1480  145.7890 C   0  0  0  0  0  2  0  0  0  0  0  0
  1  9  1  6  0  0  0
  1  6  1  0  0  0  0
  1 14  1  0  0  0  0
  2 13  1  0  0  0  0
  3  7  1  6  0  0  0
  3  2  1  0  0  0  0
  3 19  1  0  0  0  0
  4 11  1  0  0  0  0
  5 16  1  0  0  0  0
  5  2  2  0  0  0  0
  6 17  1  0  0  0  0
  7  4  1  0  0  0  0
  8 23  1  0  0  0  0
 10 18  1  0  0  0  0
 11 15  1  0  0  0  0
 12  8  1  0  0  0  0
 13  8  2  0  0  0  0
 13 18  1  0  0  0  0
 14  5  1  0  0  0  0
 15 20  1  0  0  0  0
 16 12  2  0  0  0  0
 17 16  1  0  0  0  0
 19 20  1  6  0  0  0
 19 10  1  0  0  0  0
 21 22  2  0  0  0  0
 23 22  1  0  0  0  0
 24 27  1  0  0  0  0
 25 28  1  0  0  0  0
 28 27  1  0  0  0  0
 29 26  1  6  0  0  0
 29 31  1  0  0  0  0
 30 22  1  6  0  0  0
 30 29  1  0  0  0  0
 30 25  1  0  0  0  0
 31 24  1  0  0  0  0
M  END
>  <MODEL>
1

>  <REMARK>
 VINA RESULT:     -10.0      0.000      0.000
  Name = 
  2 active torsions:
  status: ('A' for Active; 'I' for Inactive)
    1  A    between atoms: C_9  and  C_22
    2  A    between atoms: C_15  and  N_23
                            x       y       z     vdW  Elec       q    Type
                         _______ _______ _______ _____ _____    ______ ____

>  <TORSDO>
F 2

$$$$
=
 OpenBabel10272400323D

 31 35  0  0  1  0  0  0  0  0999 V2000
  189.9600  176.1400  136.2690 C   0  0  2  0  0  3  0  0  0  0  0  0
  187.5000  177.7060  138.7570 C   0  0  0  0  0  0  0  0  0  0  0  0
  186.2360  177.9800  137.9330 C   0  0  1  0  0  3  0  0  0  0  0  0
  185.0670  175.7870  137.0760 C   0  0  0  0  0  2  0  0  0  0  0  0
  188.7030  177.2180  138.1780 C   0  0  0  0  0  0  0  0  0  0  0  0
  191.2470  176.5370  136.9710 C   0  0  0  0  0  2  0  0  0  0  0  0
  185.9900  176.9920  136.7730 C   0  0  0  0  0  2  0  0  0  0  0  0
  188.6220  177.8110  140.9370 C   0  0  0  0  0  0  0  0  0  0  0  0
  190.1570  176.2090  134.7690 C   0  0  0  0  0  1  0  0  0  0  0  0
  185.2610  179.1990  139.8950 C   0  0  0  0  0  2  0  0  0  0  0  0
  183.8190  176.0860  137.6800 O   0  0  0  0  0  0  0  0  0  0  0  0
  189.7670  177.2550  140.3640 C   0  0  0  0  0  3  0  0  0  0  0  0
  187.5060  178.0710  140.1300 C   0  0  0  0  0  0  0  0  0  0  0  0
  188.8530  177.1030  136.6790 C   0  0  0  0  0  2  0  0  0  0  0  0
  183.3100  177.2900  137.1530 C   0  0  0  0  0  2  0  0  0  0  0  0
  189.8290  176.9830  139.0010 C   0  0  0  0  0  0  0  0  0  0  0  0
  191.0840  176.3450  138.4730 C   0  0  0  0  0  2  0  0  0  0  0  0
  186.3680  178.7230  140.7120 N   0  0  0  0  0  2  0  0  0  0  0  0
  184.9900  178.1680  138.8240 C   0  0  1  0  0  3  0  0  0  0  0  0
  183.7070  178.4710  138.0490 C   0  0  0  0  0  2  0  0  0  0  0  0
  187.9550  176.0470  143.2060 O   0  0  0  0  0  0  0  0  0  0  0  0
  188.2540  177.2540  143.4160 C   0  0  0  0  0  0  0  0  0  0  0  0
  188.5720  178.1390  142.3340 N   0  0  0  0  0  2  0  0  0  0  0  0
  188.7430  177.5000  148.1300 C   0  0  0  0  0  2  0  0  0  0  0  0
  186.8670  177.6530  145.4010 C   0  0  0  0  0  2  0  0  0  0  0  0
  190.6880  177.0160  144.9590 C   0  0  0  0  0  1  0  0  0  0  0  0
  187.2560  177.2980  147.8240 C   0  0  0  0  0  2  0  0  0  0  0  0
  186.7230  178.2720  146.7840 C   0  0  0  0  0  2  0  0  0  0  0  0
  189.3580  177.1120  145.6900 C   0  0  2  0  0  3  0  0  0  0  0  0
  188.2760  177.7870  144.8170 C   0  0  1  0  0  3  0  0  0  0  0  0
  189.5940  177.9470  146.9420 C   0  0  0  0  0  2  0  0  0  0  0  0
  1  9  1  6  0  0  0
  1 14  1  0  0  0  0
  1  6  1  0  0  0  0
  2 13  1  0  0  0  0
  3  7  1  6  0  0  0
  3  2  1  0  0  0  0
  3 19  1  0  0  0  0
  4 11  1  0  0  0  0
  5  2  2  0  0  0  0
  5 16  1  0  0  0  0
  6 17  1  0  0  0  0
  7  4  1  0  0  0  0
  8 23  1  0  0  0  0
 10 18  1  0  0  0  0
 12  8  1  0  0  0  0
 13 18  1  0  0  0  0
 13  8  2  0  0  0  0
 14  5  1  0  0  0  0
 15 11  1  0  0  0  0
 15 20  1  0  0  0  0
 16 12  2  0  0  0  0
 17 16  1  0  0  0  0
 19 20  1  6  0  0  0
 19 10  1  0  0  0  0
 21 22  2  0  0  0  0
 23 22  1  0  0  0  0
 25 28  1  0  0  0  0
 27 24  1  0  0  0  0
 28 27  1  0  0  0  0
 29 26  1  6  0  0  0
 29 31  1  0  0  0  0
 30 22  1  6  0  0  0
 30 25  1  0  0  0  0
 30 29  1  0  0  0  0
 31 24  1  0  0  0  0
M  END
>  <MODEL>
2

>  <REMARK>
 VINA RESULT:      -9.5      1.464      2.109
  Name = 
  2 active torsions:
  status: ('A' for Active; 'I' for Inactive)
    1  A    between atoms: C_9  and  C_22
    2  A    between atoms: C_15  and  N_23
                            x       y       z     vdW  Elec       q    Type
                         _______ _______ _______ _____ _____    ______ ____

>  <TORSDO>
F 2

$$$$
=
 OpenBabel10272400323D

 31 35  0  0  1  0  0  0  0  0999 V2000
  185.1650  178.3840  145.6660 C   0  0  2  0  0  3  0  0  0  0  0  0
  186.6670  178.3730  142.1390 C   0  0  0  0  0  0  0  0  0  0  0  0
  188.1780  178.2320  142.3600 C   0  0  1  0  0  3  0  0  0  0  0  0
  188.8560  175.9240  143.4200 C   0  0  0  0  0  2  0  0  0  0  0  0
  185.7450  178.5230  143.2100 C   0  0  0  0  0  0  0  0  0  0  0  0
  183.8960  179.1550  145.3500 C   0  0  0  0  0  2  0  0  0  0  0  0
  188.5790  177.4340  143.6180 C   0  0  0  0  0  2  0  0  0  0  0  0
  184.8100  178.5740  140.5470 C   0  0  0  0  0  0  0  0  0  0  0  0
  185.6660  178.7710  147.0420 C   0  0  0  0  0  1  0  0  0  0  0  0
  188.5380  178.6060  139.9080 C   0  0  0  0  0  2  0  0  0  0  0  0
  189.7470  175.5810  142.3700 O   0  0  0  0  0  0  0  0  0  0  0  0
  183.9140  178.6390  141.6140 C   0  0  0  0  0  3  0  0  0  0  0  0
  186.1840  178.4790  140.8070 C   0  0  0  0  0  0  0  0  0  0  0  0
  186.2260  178.7260  144.6280 C   0  0  0  0  0  2  0  0  0  0  0  0
  190.7790  176.5370  142.2880 C   0  0  0  0  0  2  0  0  0  0  0  0
  184.3630  178.6420  142.9310 C   0  0  0  0  0  0  0  0  0  0  0  0
  183.3290  178.6710  144.0220 C   0  0  0  0  0  2  0  0  0  0  0  0
  187.1010  178.5020  139.7030 N   0  0  0  0  0  2  0  0  0  0  0  0
  188.9090  177.7440  141.0920 C   0  0  1  0  0  3  0  0  0  0  0  0
  190.4240  177.6140  141.2550 C   0  0  0  0  0  2  0  0  0  0  0  0
  183.2920  176.5290  139.0580 O   0  0  0  0  0  0  0  0  0  0  0  0
  183.6070  177.6120  138.4930 C   0  0  0  0  0  0  0  0  0  0  0  0
  184.3530  178.6200  139.1860 N   0  0  0  0  0  2  0  0  0  0  0  0
  181.1090  177.6070  134.4580 C   0  0  0  0  0  2  0  0  0  0  0  0
  183.7880  176.7380  136.2060 C   0  0  0  0  0  2  0  0  0  0  0  0
  181.0860  178.9290  137.9690 C   0  0  0  0  0  1  0  0  0  0  0  0
  182.1430  176.4820  134.3680 C   0  0  0  0  0  2  0  0  0  0  0  0
  183.5530  176.9370  134.7150 C   0  0  0  0  0  2  0  0  0  0  0  0
  181.6750  178.0130  136.9070 C   0  0  2  0  0  3  0  0  0  0  0  0
  183.2030  177.8590  137.0700 C   0  0  1  0  0  3  0  0  0  0  0  0
  181.3690  178.6410  135.5540 C   0  0  0  0  0  2  0  0  0  0  0  0
  1  9  1  1  0  0  0
  2  3  1  0  0  0  0
  2  5  1  0  0  0  0
  3  7  1  1  0  0  0
  4  7  1  0  0  0  0
  5 14  1  0  0  0  0
  6  1  1  0  0  0  0
  8 13  1  0  0  0  0
  8 12  2  0  0  0  0
 11  4  1  0  0  0  0
 12 16  1  0  0  0  0
 13  2  2  0  0  0  0
 14  1  1  0  0  0  0
 15 11  1  0  0  0  0
 16  5  2  0  0  0  0
 16 17  1  0  0  0  0
 17  6  1  0  0  0  0
 18 10  1  0  0  0  0
 18 13  1  0  0  0  0
 19 10  1  6  0  0  0
 19 20  1  0  0  0  0
 19  3  1  0  0  0  0
 20 15  1  0  0  0  0
 22 21  2  0  0  0  0
 22 23  1  0  0  0  0
 23  8  1  0  0  0  0
 24 31  1  0  0  0  0
 25 30  1  0  0  0  0
 27 24  1  0  0  0  0
 27 28  1  0  0  0  0
 28 25  1  0  0  0  0
 29 30  1  0  0  0  0
 29 26  1  1  0  0  0
 30 22  1  1  0  0  0
 31 29  1  0  0  0  0
M  END
>  <MODEL>
3

>  <REMARK>
 VINA RESULT:      -9.0      2.409      9.003
  Name = 
  2 active torsions:
  status: ('A' for Active; 'I' for Inactive)
    1  A    between atoms: C_9  and  C_22
    2  A    between atoms: C_15  and  N_23
                            x       y       z     vdW  Elec       q    Type
                         _______ _______ _______ _____ _____    ______ ____

>  <TORSDO>
F 2

$$$$
=
 OpenBabel10272400323D

 31 35  0  0  1  0  0  0  0  0999 V2000
  192.8340  176.1400  138.1200 C   0  0  2  0  0  3  0  0  0  0  0  0
  189.1680  177.2170  138.4260 C   0  0  0  0  0  0  0  0  0  0  0  0
  188.5730  176.9680  137.0350 C   0  0  1  0  0  3  0  0  0  0  0  0
  188.5040  174.4230  136.3800 C   0  0  0  0  0  2  0  0  0  0  0  0
  190.5500  177.0430  138.7110 C   0  0  0  0  0  0  0  0  0  0  0  0
  193.4000  177.0090  139.2290 C   0  0  0  0  0  2  0  0  0  0  0  0
  189.2070  175.7970  136.2560 C   0  0  0  0  0  2  0  0  0  0  0  0
  188.8120  177.9730  140.7330 C   0  0  0  0  0  0  0  0  0  0  0  0
  193.8330  176.0490  136.9850 C   0  0  0  0  0  1  0  0  0  0  0  0
  186.4610  178.0990  137.7730 C   0  0  0  0  0  2  0  0  0  0  0  0
  187.1050  174.4090  136.1460 O   0  0  0  0  0  0  0  0  0  0  0  0
  190.1550  177.7180  141.0140 C   0  0  0  0  0  3  0  0  0  0  0  0
  188.3280  177.7590  139.4350 C   0  0  0  0  0  0  0  0  0  0  0  0
  191.5430  176.7660  137.6080 C   0  0  0  0  0  2  0  0  0  0  0  0
  186.7850  175.3100  135.1110 C   0  0  0  0  0  2  0  0  0  0  0  0
  191.0270  177.2850  140.0210 C   0  0  0  0  0  0  0  0  0  0  0  0
  192.4480  176.9940  140.4180 C   0  0  0  0  0  2  0  0  0  0  0  0
  186.9680  178.1080  139.1370 N   0  0  0  0  0  2  0  0  0  0  0  0
  187.0320  176.8920  137.0660 C   0  0  1  0  0  3  0  0  0  0  0  0
  186.3890  176.6710  135.6960 C   0  0  0  0  0  2  0  0  0  0  0  0
  187.7530  176.5500  143.0900 O   0  0  0  0  0  0  0  0  0  0  0  0
  187.4310  177.7520  142.8860 C   0  0  0  0  0  0  0  0  0  0  0  0
  187.9200  178.4670  141.7440 N   0  0  0  0  0  2  0  0  0  0  0  0
  184.4180  178.5590  146.4630 C   0  0  0  0  0  2  0  0  0  0  0  0
  185.1170  178.5000  143.2230 C   0  0  0  0  0  2  0  0  0  0  0  0
  187.9500  177.5350  145.7220 C   0  0  0  0  0  1  0  0  0  0  0  0
  183.5950  178.4300  145.1780 C   0  0  0  0  0  2  0  0  0  0  0  0
  184.1150  179.3000  144.0440 C   0  0  0  0  0  2  0  0  0  0  0  0
  186.5320  177.8210  145.2520 C   0  0  2  0  0  3  0  0  0  0  0  0
  186.5170  178.4560  143.8440 C   0  0  1  0  0  3  0  0  0  0  0  0
  185.9150  178.7880  146.2530 C   0  0  0  0  0  2  0  0  0  0  0  0
  1  9  1  6  0  0  0
  1  6  1  0  0  0  0
  2  5  2  0  0  0  0
  2 13  1  0  0  0  0
  3  7  1  1  0  0  0
  3 19  1  0  0  0  0
  3  2  1  0  0  0  0
  5 16  1  0  0  0  0
  6 17  1  0  0  0  0
  7  4  1  0  0  0  0
  8 12  1  0  0  0  0
  8 23  1  0  0  0  0
 10 18  1  0  0  0  0
 11  4  1  0  0  0  0
 13  8  2  0  0  0  0
 14  1  1  0  0  0  0
 14  5  1  0  0  0  0
 15 20  1  0  0  0  0
 15 11  1  0  0  0  0
 16 17  1  0  0  0  0
 16 12  2  0  0  0  0
 18 13  1  0  0  0  0
 19 20  1  6  0  0  0
 19 10  1  0  0  0  0
 22 21  2  0  0  0  0
 23 22  1  0  0  0  0
 25 30  1  0  0  0  0
 25 28  1  0  0  0  0
 27 24  1  0  0  0  0
 28 27  1  0  0  0  0
 29 26  1  1  0  0  0
 29 31  1  0  0  0  0
 30 22  1  6  0  0  0
 30 29  1  0  0  0  0
 31 24  1  0  0  0  0
M  END
>  <MODEL>
4

>  <REMARK>
 VINA RESULT:      -8.9      2.680      4.816
  Name = 
  2 active torsions:
  status: ('A' for Active; 'I' for Inactive)
    1  A    between atoms: C_9  and  C_22
    2  A    between atoms: C_15  and  N_23
                            x       y       z     vdW  Elec       q    Type
                         _______ _______ _______ _____ _____    ______ ____

>  <TORSDO>
F 2

$$$$
=
 OpenBabel10272400323D

 31 35  0  0  1  0  0  0  0  0999 V2000
  186.7530  177.8790  146.8120 C   0  0  2  0  0  3  0  0  0  0  0  0
  186.8670  178.3060  143.0040 C   0  0  0  0  0  0  0  0  0  0  0  0
  188.3520  178.1820  142.6430 C   0  0  1  0  0  3  0  0  0  0  0  0
  189.3320  175.7870  143.1110 C   0  0  0  0  0  2  0  0  0  0  0  0
  186.4010  178.3100  144.3470 C   0  0  0  0  0  0  0  0  0  0  0  0
  185.4680  178.6470  147.0690 C   0  0  0  0  0  2  0  0  0  0  0  0
  189.1700  177.2570  143.5690 C   0  0  0  0  0  2  0  0  0  0  0  0
  184.5620  178.6350  142.2300 C   0  0  0  0  0  0  0  0  0  0  0  0
  187.7260  178.1220  147.9460 C   0  0  0  0  0  1  0  0  0  0  0  0
  187.8010  178.8390  140.2880 C   0  0  0  0  0  2  0  0  0  0  0  0
  189.7740  175.5890  141.7780 O   0  0  0  0  0  0  0  0  0  0  0  0
  184.1160  178.5550  143.5500 C   0  0  0  0  0  3  0  0  0  0  0  0
  185.9340  178.5480  141.9600 C   0  0  0  0  0  0  0  0  0  0  0  0
  187.3680  178.3650  145.5060 C   0  0  0  0  0  2  0  0  0  0  0  0
  190.7210  176.5750  141.4370 C   0  0  0  0  0  2  0  0  0  0  0  0
  185.0140  178.4220  144.6040 C   0  0  0  0  0  0  0  0  0  0  0  0
  184.4480  178.3010  145.9920 C   0  0  0  0  0  2  0  0  0  0  0  0
  186.3860  178.7200  140.6080 N   0  0  0  0  0  2  0  0  0  0  0  0
  188.5630  177.8590  141.1490 C   0  0  1  0  0  3  0  0  0  0  0  0
  190.0310  177.7520  140.7340 C   0  0  0  0  0  2  0  0  0  0  0  0
  183.0940  176.5810  140.7020 O   0  0  0  0  0  0  0  0  0  0  0  0
  182.9350  177.8010  140.4270 C   0  0  0  0  0  0  0  0  0  0  0  0
  183.6410  178.8220  141.1430 N   0  0  0  0  0  2  0  0  0  0  0  0
  181.1330  180.0050  136.6300 C   0  0  0  0  0  2  0  0  0  0  0  0
  181.0750  179.3030  139.8690 C   0  0  0  0  0  2  0  0  0  0  0  0
  183.8410  177.6340  137.6860 C   0  0  0  0  0  1  0  0  0  0  0  0
  180.5750  180.6940  137.8780 C   0  0  0  0  0  2  0  0  0  0  0  0
  179.9880  179.7190  138.8870 C   0  0  0  0  0  2  0  0  0  0  0  0
  182.7370  178.6190  138.0390 C   0  0  2  0  0  3  0  0  0  0  0  0
  181.9960  178.2050  139.3290 C   0  0  1  0  0  3  0  0  0  0  0  0
  181.7580  178.6320  136.8720 C   0  0  0  0  0  2  0  0  0  0  0  0
  1  6  1  0  0  0  0
  1  9  1  1  0  0  0
  2  5  1  0  0  0  0
  3  2  1  0  0  0  0
  3  7  1  1  0  0  0
  4  7  1  0  0  0  0
  5 16  2  0  0  0  0
  5 14  1  0  0  0  0
  8 12  2  0  0  0  0
 10 18  1  0  0  0  0
 11  4  1  0  0  0  0
 12 16  1  0  0  0  0
 13  8  1  0  0  0  0
 13  2  2  0  0  0  0
 14  1  1  0  0  0  0
 15 11  1  0  0  0  0
 16 17  1  0  0  0  0
 17  6  1  0  0  0  0
 18 13  1  0  0  0  0
 19 10  1  6  0  0  0
 19  3  1  0  0  0  0
 20 19  1  0  0  0  0
 20 15  1  0  0  0  0
 22 21  2  0  0  0  0
 22 23  1  0  0  0  0
 23  8  1  0  0  0  0
 24 31  1  0  0  0  0
 24 27  1  0  0  0  0
 27 28  1  0  0  0  0
 28 25  1  0  0  0  0
 29 26  1  6  0  0  0
 29 30  1  0  0  0  0
 30 25  1  0  0  0  0
 30 22  1  1  0  0  0
 31 29  1  0  0  0  0
M  END
>  <MODEL>
5

>  <REMARK>
 VINA RESULT:      -8.6      2.320      8.736
  Name = 
  2 active torsions:
  status: ('A' for Active; 'I' for Inactive)
    1  A    between atoms: C_9  and  C_22
    2  A    between atoms: C_15  and  N_23
                            x       y       z     vdW  Elec       q    Type
                         _______ _______ _______ _____ _____    ______ ____

>  <TORSDO>
F 2

$$$$
=
 OpenBabel10272400323D

 31 35  0  0  1  0  0  0  0  0999 V2000
  190.5540  177.1710  146.1560 C   0  0  2  0  0  3  0  0  0  0  0  0
  187.7210  177.7380  143.6370 C   0  0  0  0  0  0  0  0  0  0  0  0
  186.4360  177.6380  144.4680 C   0  0  1  0  0  3  0  0  0  0  0  0
  186.1980  179.5670  146.2380 C   0  0  0  0  0  2  0  0  0  0  0  0
  189.0090  177.4810  144.1810 C   0  0  0  0  0  0  0  0  0  0  0  0
  191.5970  176.6500  145.1830 C   0  0  0  0  0  2  0  0  0  0  0  0
  186.5740  178.0960  145.9350 C   0  0  0  0  0  2  0  0  0  0  0  0
  188.7500  178.1120  141.4410 C   0  0  0  0  0  0  0  0  0  0  0  0
  190.6830  176.4430  147.4770 C   0  0  0  0  0  1  0  0  0  0  0  0
  185.0970  177.7480  142.3510 C   0  0  0  0  0  2  0  0  0  0  0  0
  184.9420  180.0090  145.7490 O   0  0  0  0  0  0  0  0  0  0  0  0
  190.0110  177.9370  142.0120 C   0  0  0  0  0  3  0  0  0  0  0  0
  187.6070  177.9770  142.2410 C   0  0  0  0  0  0  0  0  0  0  0  0
  189.1670  176.9250  145.5760 C   0  0  0  0  0  2  0  0  0  0  0  0
  183.9960  178.9700  145.8530 C   0  0  0  0  0  2  0  0  0  0  0  0
  190.1510  177.5990  143.3550 C   0  0  0  0  0  0  0  0  0  0  0  0
  191.5460  177.4700  143.9010 C   0  0  0  0  0  2  0  0  0  0  0  0
  186.3150  178.0720  141.6240 N   0  0  0  0  0  2  0  0  0  0  0  0
  185.2300  178.2870  143.7570 C   0  0  1  0  0  3  0  0  0  0  0  0
  183.9180  178.1880  144.5350 C   0  0  0  0  0  2  0  0  0  0  0  0
  188.9820  176.2780  139.1410 O   0  0  0  0  0  0  0  0  0  0  0  0
  188.7090  177.4940  138.9490 C   0  0  0  0  0  0  0  0  0  0  0  0
  188.6010  178.4120  140.0440 N   0  0  0  0  0  2  0  0  0  0  0  0
  187.1100  177.8930  134.4980 C   0  0  0  0  0  2  0  0  0  0  0  0
  189.5780  177.3960  136.6550 C   0  0  0  0  0  2  0  0  0  0  0  0
  186.0180  178.1010  138.0820 C   0  0  0  0  0  1  0  0  0  0  0  0
  188.4720  177.1970  134.4450 C   0  0  0  0  0  2  0  0  0  0  0  0
  189.5500  177.9300  135.2300 C   0  0  0  0  0  2  0  0  0  0  0  0
  187.0650  177.7380  137.0390 C   0  0  2  0  0  3  0  0  0  0  0  0
  188.4970  178.0030  137.5540 C   0  0  1  0  0  3  0  0  0  0  0  0
  186.7970  178.6040  135.8150 C   0  0  0  0  0  2  0  0  0  0  0  0
  1  9  1  1  0  0  0
  2  5  1  0  0  0  0
  2  3  1  0  0  0  0
  3  7  1  1  0  0  0
  5 14  1  0  0  0  0
  6  1  1  0  0  0  0
  7  4  1  0  0  0  0
  8 12  2  0  0  0  0
  8 13  1  0  0  0  0
 11 15  1  0  0  0  0
 11  4  1  0  0  0  0
 12 16  1  0  0  0  0
 13  2  2  0  0  0  0
 14  1  1  0  0  0  0
 16 17  1  0  0  0  0
 16  5  2  0  0  0  0
 17  6  1  0  0  0  0
 18 13  1  0  0  0  0
 18 10  1  0  0  0  0
 19 10  1  6  0  0  0
 19  3  1  0  0  0  0
 19 20  1  0  0  0  0
 20 15  1  0  0  0  0
 22 21  2  0  0  0  0
 22 23  1  0  0  0  0
 23  8  1  0  0  0  0
 24 31  1  0  0  0  0
 25 30  1  0  0  0  0
 27 24  1  0  0  0  0
 27 28  1  0  0  0  0
 28 25  1  0  0  0  0
 29 30  1  0  0  0  0
 29 26  1  1  0  0  0
 30 22  1  1  0  0  0
 31 29  1  0  0  0  0
M  END
>  <MODEL>
6

>  <REMARK>
 VINA RESULT:      -8.4      2.093      7.743
  Name = 
  2 active torsions:
  status: ('A' for Active; 'I' for Inactive)
    1  A    between atoms: C_9  and  C_22
    2  A    between atoms: C_15  and  N_23
                            x       y       z     vdW  Elec       q    Type
                         _______ _______ _______ _____ _____    ______ ____

>  <TORSDO>
F 2

$$$$
=
 OpenBabel10272400323D

 31 35  0  0  1  0  0  0  0  0999 V2000
  187.6930  178.2410  137.0450 C   0  0  2  0  0  3  0  0  0  0  0  0
  185.8310  178.4360  140.3900 C   0  0  0  0  0  0  0  0  0  0  0  0
  184.3710  178.7020  140.0070 C   0  0  1  0  0  3  0  0  0  0  0  0
  183.2650  176.7030  138.7040 C   0  0  0  0  0  2  0  0  0  0  0  0
  186.8810  178.3990  139.4330 C   0  0  0  0  0  0  0  0  0  0  0  0
  189.0690  178.6420  137.5480 C   0  0  0  0  0  2  0  0  0  0  0  0
  183.9340  178.0990  138.6550 C   0  0  0  0  0  2  0  0  0  0  0  0
  187.4780  178.0710  142.1730 C   0  0  0  0  0  0  0  0  0  0  0  0
  187.4720  178.8130  135.6610 C   0  0  0  0  0  1  0  0  0  0  0  0
  183.8280  179.0300  142.4320 C   0  0  0  0  0  2  0  0  0  0  0  0
  182.1990  176.5490  139.6270 O   0  0  0  0  0  0  0  0  0  0  0  0
  188.4810  177.9570  141.2100 C   0  0  0  0  0  3  0  0  0  0  0  0
  186.1640  178.3460  141.7680 C   0  0  0  0  0  0  0  0  0  0  0  0
  186.6370  178.7910  137.9940 C   0  0  0  0  0  2  0  0  0  0  0  0
  181.4380  177.7320  139.6800 C   0  0  0  0  0  2  0  0  0  0  0  0
  188.2060  178.1430  139.8590 C   0  0  0  0  0  0  0  0  0  0  0  0
  189.3360  177.9600  138.8840 C   0  0  0  0  0  2  0  0  0  0  0  0
  185.1590  178.5480  142.7720 N   0  0  0  0  0  2  0  0  0  0  0  0
  183.3960  178.3540  141.1510 C   0  0  1  0  0  3  0  0  0  0  0  0
  181.9270  178.6270  140.8260 C   0  0  0  0  0  2  0  0  0  0  0  0
  188.7300  175.7860  143.5560 O   0  0  0  0  0  0  0  0  0  0  0  0
  188.3890  176.8060  144.2130 C   0  0  0  0  0  0  0  0  0  0  0  0
  187.7680  177.9270  143.5720 N   0  0  0  0  0  2  0  0  0  0  0  0
  188.6960  178.4140  148.6680 C   0  0  0  0  0  2  0  0  0  0  0  0
  190.1030  177.1850  145.9290 C   0  0  0  0  0  2  0  0  0  0  0  0
  186.2330  177.6640  145.9390 C   0  0  0  0  0  1  0  0  0  0  0  0
  190.1000  178.4560  148.0570 C   0  0  0  0  0  2  0  0  0  0  0  0
  190.5040  177.1470  147.3970 C   0  0  0  0  0  2  0  0  0  0  0  0
  187.6690  177.8360  146.4110 C   0  0  2  0  0  3  0  0  0  0  0  0
  188.6250  176.8580  145.6930 C   0  0  1  0  0  3  0  0  0  0  0  0
  187.6850  177.5560  147.9080 C   0  0  0  0  0  2  0  0  0  0  0  0
  1  9  1  6  0  0  0
  1  6  1  0  0  0  0
  1 14  1  0  0  0  0
  2 13  1  0  0  0  0
  3  7  1  6  0  0  0
  3  2  1  0  0  0  0
  3 19  1  0  0  0  0
  4 11  1  0  0  0  0
  5 16  1  0  0  0  0
  5  2  2  0  0  0  0
  6 17  1  0  0  0  0
  7  4  1  0  0  0  0
  8 23  1  0  0  0  0
 10 18  1  0  0  0  0
 11 15  1  0  0  0  0
 12  8  1  0  0  0  0
 13  8  2  0  0  0  0
 13 18  1  0  0  0  0
 14  5  1  0  0  0  0
 15 20  1  0  0  0  0
 16 12  2  0  0  0  0
 17 16  1  0  0  0  0
 19 20  1  6  0  0  0
 19 10  1  0  0  0  0
 21 22  2  0  0  0  0
 23 22  1  0  0  0  0
 25 28  1  0  0  0  0
 27 24  1  0  0  0  0
 28 27  1  0  0  0  0
 29 26  1  6  0  0  0
 29 31  1  0  0  0  0
 30 22  1  6  0  0  0
 30 25  1  0  0  0  0
 30 29  1  0  0  0  0
 31 24  1  0  0  0  0
M  END
>  <MODEL>
7

>  <REMARK>
 VINA RESULT:      -8.2      1.197      2.046
  Name = 
  2 active torsions:
  status: ('A' for Active; 'I' for Inactive)
    1  A    between atoms: C_9  and  C_22
    2  A    between atoms: C_15  and  N_23
                            x       y       z     vdW  Elec       q    Type
                         _______ _______ _______ _____ _____    ______ ____

>  <TORSDO>
F 2

$$$$
=
 OpenBabel10272400323D

 31 35  0  0  1  0  0  0  0  0999 V2000
  187.3980  177.9660  147.4860 C   0  0  2  0  0  3  0  0  0  0  0  0
  187.4470  178.1060  143.6560 C   0  0  0  0  0  0  0  0  0  0  0  0
  188.9350  178.0650  143.2840 C   0  0  1  0  0  3  0  0  0  0  0  0
  190.0960  175.7940  143.9190 C   0  0  0  0  0  2  0  0  0  0  0  0
  186.9940  178.1780  145.0010 C   0  0  0  0  0  0  0  0  0  0  0  0
  186.0620  178.6530  147.7030 C   0  0  0  0  0  2  0  0  0  0  0  0
  189.8280  177.2780  144.2660 C   0  0  0  0  0  2  0  0  0  0  0  0
  185.1170  178.2020  142.8920 C   0  0  0  0  0  0  0  0  0  0  0  0
  188.3600  178.3660  148.5850 C   0  0  0  0  0  1  0  0  0  0  0  0
  188.3160  178.4970  140.8940 C   0  0  0  0  0  2  0  0  0  0  0  0
  190.5410  175.5270  142.5980 O   0  0  0  0  0  0  0  0  0  0  0  0
  184.6910  178.1910  144.2200 C   0  0  0  0  0  3  0  0  0  0  0  0
  186.4900  178.1970  142.6100 C   0  0  0  0  0  0  0  0  0  0  0  0
  187.9640  178.3940  146.1380 C   0  0  0  0  0  2  0  0  0  0  0  0
  191.4070  176.5520  142.1700 C   0  0  0  0  0  2  0  0  0  0  0  0
  185.6050  178.2060  145.2690 C   0  0  0  0  0  0  0  0  0  0  0  0
  185.0620  178.1500  146.6700 C   0  0  0  0  0  2  0  0  0  0  0  0
  186.9170  178.2980  141.2430 N   0  0  0  0  0  2  0  0  0  0  0  0
  189.1570  177.6460  141.8160 C   0  0  1  0  0  3  0  0  0  0  0  0
  190.6250  177.6160  141.3900 C   0  0  0  0  0  2  0  0  0  0  0  0
  182.4810  179.5250  142.7980 O   0  0  0  0  0  0  0  0  0  0  0  0
  182.9050  178.8980  141.7890 C   0  0  0  0  0  0  0  0  0  0  0  0
  184.1760  178.2360  141.8070 N   0  0  0  0  0  2  0  0  0  0  0  0
  180.3160  177.2010  138.1910 C   0  0  0  0  0  2  0  0  0  0  0  0
  183.0170  178.7410  139.3420 C   0  0  0  0  0  2  0  0  0  0  0  0
  180.3050  177.6390  141.9180 C   0  0  0  0  0  1  0  0  0  0  0  0
  181.7450  177.4100  137.6820 C   0  0  0  0  0  2  0  0  0  0  0  0
  182.2980  178.7910  138.0010 C   0  0  0  0  0  2  0  0  0  0  0  0
  181.0370  177.6860  140.5850 C   0  0  2  0  0  3  0  0  0  0  0  0
  182.0720  178.8320  140.5440 C   0  0  1  0  0  3  0  0  0  0  0  0
  179.9870  177.9110  139.5050 C   0  0  0  0  0  2  0  0  0  0  0  0
  1  6  1  0  0  0  0
  1  9  1  1  0  0  0
  2  5  1  0  0  0  0
  3  2  1  0  0  0  0
  3  7  1  1  0  0  0
  4  7  1  0  0  0  0
  5 16  2  0  0  0  0
  5 14  1  0  0  0  0
  8 12  2  0  0  0  0
 10 18  1  0  0  0  0
 11  4  1  0  0  0  0
 12 16  1  0  0  0  0
 13  8  1  0  0  0  0
 13  2  2  0  0  0  0
 14  1  1  0  0  0  0
 15 11  1  0  0  0  0
 16 17  1  0  0  0  0
 17  6  1  0  0  0  0
 18 13  1  0  0  0  0
 19 10  1  6  0  0  0
 19  3  1  0  0  0  0
 20 19  1  0  0  0  0
 20 15  1  0  0  0  0
 22 23  1  0  0  0  0
 22 21  2  0  0  0  0
 23  8  1  0  0  0  0
 24 31  1  0  0  0  0
 25 30  1  0  0  0  0
 27 28  1  0  0  0  0
 27 24  1  0  0  0  0
 28 25  1  0  0  0  0
 29 26  1  1  0  0  0
 30 29  1  0  0  0  0
 30 22  1  1  0  0  0
 31 29  1  0  0  0  0
M  END
>  <MODEL>
8

>  <REMARK>
 VINA RESULT:      -8.1      2.717      8.923
  Name = 
  2 active torsions:
  status: ('A' for Active; 'I' for Inactive)
    1  A    between atoms: C_9  and  C_22
    2  A    between atoms: C_15  and  N_23
                            x       y       z     vdW  Elec       q    Type
                         _______ _______ _______ _____ _____    ______ ____

>  <TORSDO>
F 2

$$$$
=
 OpenBabel10272400323D

 31 35  0  0  1  0  0  0  0  0999 V2000
  191.6460  176.9130  138.5530 C   0  0  2  0  0  3  0  0  0  0  0  0
  188.9710  177.4560  141.2450 C   0  0  0  0  0  0  0  0  0  0  0  0
  189.6140  176.9460  142.5400 C   0  0  1  0  0  3  0  0  0  0  0  0
  191.6790  178.3830  143.3030 C   0  0  0  0  0  2  0  0  0  0  0  0
  189.6010  177.3360  139.9760 C   0  0  0  0  0  0  0  0  0  0  0  0
  190.7190  176.8100  137.3550 C   0  0  0  0  0  2  0  0  0  0  0  0
  191.1480  177.1050  142.6100 C   0  0  0  0  0  2  0  0  0  0  0  0
  187.0200  178.4660  140.1520 C   0  0  0  0  0  0  0  0  0  0  0  0
  192.8110  175.9620  138.3770 C   0  0  0  0  0  1  0  0  0  0  0  0
  187.4170  177.2440  143.7100 C   0  0  0  0  0  2  0  0  0  0  0  0
  191.1410  178.6750  144.5820 O   0  0  0  0  0  0  0  0  0  0  0  0
  187.6890  178.4130  138.9290 C   0  0  0  0  0  3  0  0  0  0  0  0
  187.6420  177.9550  141.2990 C   0  0  0  0  0  0  0  0  0  0  0  0
  190.8740  176.5390  139.8120 C   0  0  0  0  0  2  0  0  0  0  0  0
  190.9370  177.4800  145.2990 C   0  0  0  0  0  2  0  0  0  0  0  0
  188.9500  177.8350  138.8230 C   0  0  0  0  0  0  0  0  0  0  0  0
  189.6190  177.8570  137.4770 C   0  0  0  0  0  2  0  0  0  0  0  0
  186.9100  177.9360  142.5340 N   0  0  0  0  0  2  0  0  0  0  0  0
  188.9050  177.4930  143.7960 C   0  0  1  0  0  3  0  0  0  0  0  0
  189.4940  176.9910  145.1160 C   0  0  0  0  0  2  0  0  0  0  0  0
  184.5860  177.6710  138.6850 O   0  0  0  0  0  0  0  0  0  0  0  0
  184.5310  178.6010  139.5340 C   0  0  0  0  0  0  0  0  0  0  0  0
  185.6980  179.0180  140.2550 N   0  0  0  0  0  2  0  0  0  0  0  0
  179.9820  179.3630  140.6510 C   0  0  0  0  0  2  0  0  0  0  0  0
  182.4790  179.4300  138.4720 C   0  0  0  0  0  2  0  0  0  0  0  0
  183.2510  178.2260  142.0990 C   0  0  0  0  0  1  0  0  0  0  0  0
  180.0890  179.3300  139.1240 C   0  0  0  0  0  2  0  0  0  0  0  0
  181.1890  180.2310  138.5830 C   0  0  0  0  0  2  0  0  0  0  0  0
  182.3970  178.5940  140.8960 C   0  0  2  0  0  3  0  0  0  0  0  0
  183.2290  179.2970  139.8000 C   0  0  1  0  0  3  0  0  0  0  0  0
  181.3090  179.5380  141.3900 C   0  0  0  0  0  2  0  0  0  0  0  0
  1  9  1  6  0  0  0
  1 14  1  0  0  0  0
  2 13  1  0  0  0  0
  2  3  1  0  0  0  0
  3  7  1  1  0  0  0
  3 19  1  0  0  0  0
  4 11  1  0  0  0  0
  5  2  2  0  0  0  0
  6 17  1  0  0  0  0
  6  1  1  0  0  0  0
  7  4  1  0  0  0  0
  8 23  1  0  0  0  0
  8 13  2  0  0  0  0
 11 15  1  0  0  0  0
 12  8  1  0  0  0  0
 13 18  1  0  0  0  0
 14  5  1  0  0  0  0
 16 12  2  0  0  0  0
 16  5  1  0  0  0  0
 17 16  1  0  0  0  0
 18 10  1  0  0  0  0
 19 10  1  6  0  0  0
 19 20  1  0  0  0  0
 20 15  1  0  0  0  0
 21 22  2  0  0  0  0
 22 23  1  0  0  0  0
 24 31  1  0  0  0  0
 25 28  1  0  0  0  0
 25 30  1  0  0  0  0
 27 24  1  0  0  0  0
 28 27  1  0  0  0  0
 29 31  1  0  0  0  0
 29 26  1  1  0  0  0
 30 22  1  6  0  0  0
 30 29  1  0  0  0  0
M  END
>  <MODEL>
9

>  <REMARK>
 VINA RESULT:      -8.0      1.888      7.392
  Name = 
  2 active torsions:
  status: ('A' for Active; 'I' for Inactive)
    1  A    between atoms: C_9  and  C_22
    2  A    between atoms: C_15  and  N_23
                            x       y       z     vdW  Elec       q    Type
                         _______ _______ _______ _____ _____    ______ ____

>  <TORSDO>
F 2

$$$$
