=
 OpenBabel10272401083D

 27 31  0  0  0  0  0  0  0  0999 V2000
  186.5500  178.4580  140.8230 C   0  0  0  0  0  0  0  0  0  0  0  0
  188.8270  177.7170  141.5040 C   0  0  0  0  0  0  0  0  0  0  0  0
  187.1170  178.2260  143.1330 O   0  0  0  0  0  0  0  0  0  0  0  0
  191.5500  176.7380  144.4830 C   0  0  0  0  0  3  0  0  0  0  0  0
  192.1140  176.4960  146.8170 O   0  0  0  0  0  1  0  0  0  0  0  0
  190.0900  177.2960  141.2170 N   0  0  0  0  0  0  0  0  0  0  0  0
  188.9740  177.5760  145.2050 C   0  0  0  0  0  3  0  0  0  0  0  0
  189.9070  177.2430  146.1920 C   0  0  0  0  0  3  0  0  0  0  0  0
  189.3270  177.4910  143.8520 C   0  0  0  0  0  0  0  0  0  0  0  0
  187.8870  178.0400  140.4570 N   0  0  0  0  0  0  0  0  0  0  0  0
  191.1930  176.8250  145.8320 C   0  0  0  0  0  0  0  0  0  0  0  0
  190.6220  177.0690  143.4930 C   0  0  0  0  0  0  0  0  0  0  0  0
  185.5560  178.9050  139.7790 C   0  0  0  0  0  2  0  0  0  0  0  0
  188.4210  177.8150  142.8390 C   0  0  0  0  0  0  0  0  0  0  0  0
  184.8270  179.0180  142.5160 C   0  0  0  0  0  2  0  0  0  0  0  0
  190.9600  176.9840  142.1800 N   0  0  0  0  0  0  0  0  0  0  0  0
  183.8150  178.6830  141.4470 C   0  0  0  0  0  0  0  0  0  0  0  0
  184.1840  178.6200  140.2020 N   0  0  0  0  0  0  0  0  0  0  0  0
  186.2000  178.5460  142.1240 C   0  0  0  0  0  0  0  0  0  0  0  0
  189.0120  177.7190  136.3760 C   0  0  0  0  0  3  0  0  0  0  0  0
  188.2730  177.9300  139.0750 C   0  0  0  0  0  0  0  0  0  0  0  0
  188.0340  176.7440  138.3650 C   0  0  0  0  0  3  0  0  0  0  0  0
  188.4030  176.6390  137.0210 C   0  0  0  0  0  3  0  0  0  0  0  0
  189.2520  178.9050  137.0760 C   0  0  0  0  0  3  0  0  0  0  0  0
  188.8830  179.0110  138.4200 C   0  0  0  0  0  3  0  0  0  0  0  0
  182.4780  178.4400  141.7710 O   0  0  0  0  0  0  0  0  0  0  0  0
  181.8620  179.0000  142.9200 C   0  0  0  0  0  1  0  0  0  0  0  0
  1 19  2  0  0  0  0
  2 14  1  0  0  0  0
  4 11  2  0  0  0  0
  6  2  2  0  0  0  0
  6 16  1  0  0  0  0
  7  8  2  0  0  0  0
  9  7  1  0  0  0  0
 10  1  1  0  0  0  0
 10  2  1  0  0  0  0
 11  8  1  0  0  0  0
 11  5  1  0  0  0  0
 12  9  1  0  0  0  0
 12  4  1  0  0  0  0
 13 18  1  0  0  0  0
 13  1  1  0  0  0  0
 14  3  1  0  0  0  0
 14  9  2  0  0  0  0
 16 12  2  0  0  0  0
 17 26  1  0  0  0  0
 17 15  1  0  0  0  0
 18 17  2  0  0  0  0
 19 15  1  0  0  0  0
 19  3  1  0  0  0  0
 20 23  2  0  0  0  0
 20 24  1  0  0  0  0
 21 10  1  0  0  0  0
 22 21  2  0  0  0  0
 23 22  1  0  0  0  0
 24 25  2  0  0  0  0
 25 21  1  0  0  0  0
 26 27  1  0  0  0  0
M  END
>  <MODEL>
1

>  <REMARK>
 VINA RESULT:      -8.8      0.000      0.000
  Name = 
  2 active torsions:
  status: ('A' for Active; 'I' for Inactive)
    1  A    between atoms: C_9  and  N_15
    2  A    between atoms: O_10  and  C_22
                            x       y       z     vdW  Elec       q    Type
                         _______ _______ _______ _____ _____    ______ ____

>  <TORSDO>
F 2

$$$$
=
 OpenBabel10272401083D

 27 31  0  0  0  0  0  0  0  0999 V2000
  187.2580  177.9450  141.8230 C   0  0  0  0  0  0  0  0  0  0  0  0
  187.6170  177.6860  144.2720 C   0  0  0  0  0  0  0  0  0  0  0  0
  189.4030  177.3400  142.6830 O   0  0  0  0  0  0  0  0  0  0  0  0
  190.1370  176.8720  147.4720 C   0  0  0  0  0  3  0  0  0  0  0  0
  192.3090  176.2710  148.3360 O   0  0  0  0  0  1  0  0  0  0  0  0
  187.1830  177.7340  145.5630 N   0  0  0  0  0  0  0  0  0  0  0  0
  191.1560  176.7580  144.8630 C   0  0  0  0  0  3  0  0  0  0  0  0
  191.9870  176.4850  145.9540 C   0  0  0  0  0  3  0  0  0  0  0  0
  189.8110  177.0880  145.0730 C   0  0  0  0  0  0  0  0  0  0  0  0
  186.7330  177.9860  143.1720 N   0  0  0  0  0  0  0  0  0  0  0  0
  191.4790  176.5430  147.2560 C   0  0  0  0  0  0  0  0  0  0  0  0
  189.3030  177.1450  146.3850 C   0  0  0  0  0  0  0  0  0  0  0  0
  186.3590  178.1490  140.6270 C   0  0  0  0  0  2  0  0  0  0  0  0
  188.9530  177.3670  144.0070 C   0  0  0  0  0  0  0  0  0  0  0  0
  189.0960  177.5390  140.2100 C   0  0  0  0  0  2  0  0  0  0  0  0
  187.9990  177.4690  146.5860 N   0  0  0  0  0  0  0  0  0  0  0  0
  188.3470  178.4640  139.2810 C   0  0  0  0  0  0  0  0  0  0  0  0
  187.0970  178.7390  139.5100 N   0  0  0  0  0  0  0  0  0  0  0  0
  188.5510  177.6250  141.6090 C   0  0  0  0  0  0  0  0  0  0  0  0
  182.6830  179.0330  143.8970 C   0  0  0  0  0  3  0  0  0  0  0  0
  185.3590  178.3360  143.4190 C   0  0  0  0  0  0  0  0  0  0  0  0
  184.9470  178.7320  144.7000 C   0  0  0  0  0  3  0  0  0  0  0  0
  183.6140  179.0790  144.9390 C   0  0  0  0  0  3  0  0  0  0  0  0
  183.0850  178.6410  142.6180 C   0  0  0  0  0  3  0  0  0  0  0  0
  184.4180  178.2950  142.3780 C   0  0  0  0  0  3  0  0  0  0  0  0
  188.9740  179.0320  138.1700 O   0  0  0  0  0  0  0  0  0  0  0  0
  188.9880  178.3990  136.9000 C   0  0  0  0  0  1  0  0  0  0  0  0
  1 10  1  0  0  0  0
  2  6  1  0  0  0  0
  3 14  1  0  0  0  0
  6 16  2  0  0  0  0
  7  9  2  0  0  0  0
  7  8  1  0  0  0  0
  8 11  2  0  0  0  0
  9 12  1  0  0  0  0
 10 21  1  0  0  0  0
 10  2  1  0  0  0  0
 11  4  1  0  0  0  0
 11  5  1  0  0  0  0
 12 16  1  0  0  0  0
 12  4  2  0  0  0  0
 13  1  1  0  0  0  0
 14  2  2  0  0  0  0
 14  9  1  0  0  0  0
 15 19  1  0  0  0  0
 17 18  2  0  0  0  0
 17 15  1  0  0  0  0
 18 13  1  0  0  0  0
 19  1  2  0  0  0  0
 19  3  1  0  0  0  0
 20 23  1  0  0  0  0
 21 22  1  0  0  0  0
 22 23  2  0  0  0  0
 24 20  2  0  0  0  0
 25 24  1  0  0  0  0
 25 21  2  0  0  0  0
 26 17  1  0  0  0  0
 27 26  1  0  0  0  0
M  END
>  <MODEL>
2

>  <REMARK>
 VINA RESULT:      -8.7      2.228      5.125
  Name = 
  2 active torsions:
  status: ('A' for Active; 'I' for Inactive)
    1  A    between atoms: C_9  and  N_15
    2  A    between atoms: O_10  and  C_22
                            x       y       z     vdW  Elec       q    Type
                         _______ _______ _______ _____ _____    ______ ____

>  <TORSDO>
F 2

$$$$
=
 OpenBabel10272401083D

 27 31  0  0  0  0  0  0  0  0999 V2000
  189.9940  176.8920  144.3870 C   0  0  0  0  0  0  0  0  0  0  0  0
  188.0840  177.7090  143.0160 C   0  0  0  0  0  0  0  0  0  0  0  0
  187.8960  177.4130  145.4060 O   0  0  0  0  0  0  0  0  0  0  0  0
  184.1630  179.0540  142.7500 C   0  0  0  0  0  3  0  0  0  0  0  0
  182.0510  179.5890  143.7860 O   0  0  0  0  0  1  0  0  0  0  0  0
  187.5290  178.0890  141.8310 N   0  0  0  0  0  0  0  0  0  0  0  0
  185.1910  178.3180  145.2520 C   0  0  0  0  0  3  0  0  0  0  0  0
  183.8730  178.7710  145.1400 C   0  0  0  0  0  3  0  0  0  0  0  0
  186.0000  178.2300  144.1120 C   0  0  0  0  0  0  0  0  0  0  0  0
  189.4520  177.2580  143.0940 N   0  0  0  0  0  0  0  0  0  0  0  0
  183.3590  179.1400  143.8920 C   0  0  0  0  0  0  0  0  0  0  0  0
  185.4800  178.6020  142.8560 C   0  0  0  0  0  0  0  0  0  0  0  0
  191.3830  176.3170  144.5180 C   0  0  0  0  0  2  0  0  0  0  0  0
  187.3210  177.7820  144.1870 C   0  0  0  0  0  0  0  0  0  0  0  0
  189.7620  176.5520  146.8320 C   0  0  0  0  0  2  0  0  0  0  0  0
  186.2680  178.5200  141.7530 N   0  0  0  0  0  0  0  0  0  0  0  0
  191.2570  176.7500  146.8970 C   0  0  0  0  0  0  0  0  0  0  0  0
  191.9710  176.6550  145.8150 N   0  0  0  0  0  0  0  0  0  0  0  0
  189.2220  176.9690  145.4910 C   0  0  0  0  0  0  0  0  0  0  0  0
  191.8550  177.0500  139.6010 C   0  0  0  0  0  3  0  0  0  0  0  0
  190.2650  177.1910  141.9080 C   0  0  0  0  0  0  0  0  0  0  0  0
  191.5690  177.7080  141.9140 C   0  0  0  0  0  3  0  0  0  0  0  0
  192.3610  177.6380  140.7640 C   0  0  0  0  0  3  0  0  0  0  0  0
  190.5560  176.5330  139.5880 C   0  0  0  0  0  3  0  0  0  0  0  0
  189.7640  176.6020  140.7380 C   0  0  0  0  0  3  0  0  0  0  0  0
  191.8940  177.0340  148.1070 O   0  0  0  0  0  0  0  0  0  0  0  0
  192.8700  176.1720  148.6720 C   0  0  0  0  0  1  0  0  0  0  0  0
  1 13  1  0  0  0  0
  1 19  2  0  0  0  0
  2 10  1  0  0  0  0
  2 14  1  0  0  0  0
  3 19  1  0  0  0  0
  4 12  1  0  0  0  0
  4 11  2  0  0  0  0
  5 11  1  0  0  0  0
  6  2  2  0  0  0  0
  8  7  2  0  0  0  0
  9 14  2  0  0  0  0
  9  7  1  0  0  0  0
 10  1  1  0  0  0  0
 11  8  1  0  0  0  0
 12  9  1  0  0  0  0
 13 18  1  0  0  0  0
 14  3  1  0  0  0  0
 15 17  1  0  0  0  0
 16  6  1  0  0  0  0
 16 12  2  0  0  0  0
 17 26  1  0  0  0  0
 18 17  2  0  0  0  0
 19 15  1  0  0  0  0
 20 23  1  0  0  0  0
 21 22  1  0  0  0  0
 21 10  1  0  0  0  0
 23 22  2  0  0  0  0
 24 20  2  0  0  0  0
 24 25  1  0  0  0  0
 25 21  2  0  0  0  0
 26 27  1  0  0  0  0
M  END
>  <MODEL>
3

>  <REMARK>
 VINA RESULT:      -8.6      2.136      6.547
  Name = 
  2 active torsions:
  status: ('A' for Active; 'I' for Inactive)
    1  A    between atoms: C_9  and  N_15
    2  A    between atoms: O_10  and  C_22
                            x       y       z     vdW  Elec       q    Type
                         _______ _______ _______ _____ _____    ______ ____

>  <TORSDO>
F 2

$$$$
=
 OpenBabel10272401083D

 27 31  0  0  0  0  0  0  0  0999 V2000
  189.2980  177.5820  142.7190 C   0  0  0  0  0  0  0  0  0  0  0  0
  187.3200  177.9020  144.1960 C   0  0  0  0  0  0  0  0  0  0  0  0
  187.1530  178.0860  141.7930 O   0  0  0  0  0  0  0  0  0  0  0  0
  183.2650  178.6740  144.6610 C   0  0  0  0  0  3  0  0  0  0  0  0
  181.1000  179.1730  143.7190 O   0  0  0  0  0  1  0  0  0  0  0  0
  186.7250  177.9260  145.4220 N   0  0  0  0  0  0  0  0  0  0  0  0
  184.3650  178.6370  142.0820 C   0  0  0  0  0  3  0  0  0  0  0  0
  183.0030  178.8960  142.2610 C   0  0  0  0  0  3  0  0  0  0  0  0
  185.1830  178.3950  143.1930 C   0  0  0  0  0  0  0  0  0  0  0  0
  188.7270  177.6190  144.0500 N   0  0  0  0  0  0  0  0  0  0  0  0
  182.4530  178.9150  143.5480 C   0  0  0  0  0  0  0  0  0  0  0  0
  184.6270  178.4140  144.4880 C   0  0  0  0  0  0  0  0  0  0  0  0
  190.7800  177.3910  142.5080 C   0  0  0  0  0  2  0  0  0  0  0  0
  186.5470  178.1320  143.0520 C   0  0  0  0  0  0  0  0  0  0  0  0
  189.1100  177.8210  140.2590 C   0  0  0  0  0  2  0  0  0  0  0  0
  185.4220  178.1750  145.5630 N   0  0  0  0  0  0  0  0  0  0  0  0
  190.3120  176.9110  140.1810 C   0  0  0  0  0  0  0  0  0  0  0  0
  191.0480  176.7190  141.2350 N   0  0  0  0  0  0  0  0  0  0  0  0
  188.5190  177.8160  141.6420 C   0  0  0  0  0  0  0  0  0  0  0  0
  191.1200  176.8430  147.4690 C   0  0  0  0  0  3  0  0  0  0  0  0
  189.5410  177.3600  145.2080 C   0  0  0  0  0  0  0  0  0  0  0  0
  189.0610  177.6600  146.4920 C   0  0  0  0  0  3  0  0  0  0  0  0
  189.8480  177.4030  147.6180 C   0  0  0  0  0  3  0  0  0  0  0  0
  191.6050  176.5400  146.1940 C   0  0  0  0  0  3  0  0  0  0  0  0
  190.8180  176.7960  145.0670 C   0  0  0  0  0  3  0  0  0  0  0  0
  190.6550  176.2690  138.9890 O   0  0  0  0  0  0  0  0  0  0  0  0
  191.8650  176.5410  138.3010 C   0  0  0  0  0  1  0  0  0  0  0  0
  1 10  1  0  0  0  0
  2  6  1  0  0  0  0
  3 14  1  0  0  0  0
  6 16  2  0  0  0  0
  7  8  2  0  0  0  0
  7  9  1  0  0  0  0
  8 11  1  0  0  0  0
  9 12  2  0  0  0  0
 10  2  1  0  0  0  0
 10 21  1  0  0  0  0
 11  5  1  0  0  0  0
 11  4  2  0  0  0  0
 12  4  1  0  0  0  0
 12 16  1  0  0  0  0
 13  1  1  0  0  0  0
 14  9  1  0  0  0  0
 14  2  2  0  0  0  0
 15 19  1  0  0  0  0
 17 15  1  0  0  0  0
 17 18  2  0  0  0  0
 18 13  1  0  0  0  0
 19  3  1  0  0  0  0
 19  1  2  0  0  0  0
 20 23  1  0  0  0  0
 21 22  1  0  0  0  0
 22 23  2  0  0  0  0
 24 20  2  0  0  0  0
 25 21  2  0  0  0  0
 25 24  1  0  0  0  0
 26 17  1  0  0  0  0
 27 26  1  0  0  0  0
M  END
>  <MODEL>
4

>  <REMARK>
 VINA RESULT:      -8.3      2.554      7.294
  Name = 
  2 active torsions:
  status: ('A' for Active; 'I' for Inactive)
    1  A    between atoms: C_9  and  N_15
    2  A    between atoms: O_10  and  C_22
                            x       y       z     vdW  Elec       q    Type
                         _______ _______ _______ _____ _____    ______ ____

>  <TORSDO>
F 2

$$$$
=
 OpenBabel10272401083D

 27 31  0  0  0  0  0  0  0  0999 V2000
  189.4990  177.6280  141.5860 C   0  0  0  0  0  0  0  0  0  0  0  0
  187.7730  177.7130  143.3770 C   0  0  0  0  0  0  0  0  0  0  0  0
  187.2560  178.2830  141.0860 O   0  0  0  0  0  0  0  0  0  0  0  0
  183.8550  178.4130  144.5650 C   0  0  0  0  0  3  0  0  0  0  0  0
  181.5890  179.0650  144.0530 O   0  0  0  0  0  1  0  0  0  0  0  0
  187.3670  177.5410  144.6660 N   0  0  0  0  0  0  0  0  0  0  0  0
  184.5580  178.7890  141.8770 C   0  0  0  0  0  3  0  0  0  0  0  0
  183.2450  179.0210  142.2990 C   0  0  0  0  0  3  0  0  0  0  0  0
  185.5250  178.3690  142.7990 C   0  0  0  0  0  0  0  0  0  0  0  0
  189.1340  177.4520  142.9760 N   0  0  0  0  0  0  0  0  0  0  0  0
  182.8930  178.8330  143.6400 C   0  0  0  0  0  0  0  0  0  0  0  0
  185.1680  178.1800  144.1490 C   0  0  0  0  0  0  0  0  0  0  0  0
  190.9280  177.4690  141.1260 C   0  0  0  0  0  2  0  0  0  0  0  0
  186.8450  178.1270  142.4140 C   0  0  0  0  0  0  0  0  0  0  0  0
  188.9550  178.2620  139.2520 C   0  0  0  0  0  2  0  0  0  0  0  0
  186.1070  177.7690  145.0400 N   0  0  0  0  0  0  0  0  0  0  0  0
  190.1070  177.3730  138.8500 C   0  0  0  0  0  0  0  0  0  0  0  0
  190.9850  177.0100  139.7370 N   0  0  0  0  0  0  0  0  0  0  0  0
  188.5760  178.0360  140.6900 C   0  0  0  0  0  0  0  0  0  0  0  0
  191.9820  176.1320  145.8340 C   0  0  0  0  0  3  0  0  0  0  0  0
  190.1030  177.0070  143.9430 C   0  0  0  0  0  0  0  0  0  0  0  0
  190.2980  177.7240  145.1320 C   0  0  0  0  0  3  0  0  0  0  0  0
  191.2340  177.2880  146.0740 C   0  0  0  0  0  3  0  0  0  0  0  0
  191.7930  175.4120  144.6510 C   0  0  0  0  0  3  0  0  0  0  0  0
  190.8570  175.8470  143.7090 C   0  0  0  0  0  3  0  0  0  0  0  0
  190.2500  176.9300  137.5330 O   0  0  0  0  0  0  0  0  0  0  0  0
  189.3620  177.3230  136.4990 C   0  0  0  0  0  1  0  0  0  0  0  0
  1 10  1  0  0  0  0
  2  6  1  0  0  0  0
  3 14  1  0  0  0  0
  6 16  2  0  0  0  0
  7  8  2  0  0  0  0
  7  9  1  0  0  0  0
  8 11  1  0  0  0  0
  9 12  2  0  0  0  0
 10  2  1  0  0  0  0
 10 21  1  0  0  0  0
 11  5  1  0  0  0  0
 11  4  2  0  0  0  0
 12  4  1  0  0  0  0
 12 16  1  0  0  0  0
 13  1  1  0  0  0  0
 14  9  1  0  0  0  0
 14  2  2  0  0  0  0
 15 19  1  0  0  0  0
 17 15  1  0  0  0  0
 17 18  2  0  0  0  0
 18 13  1  0  0  0  0
 19  3  1  0  0  0  0
 19  1  2  0  0  0  0
 20 23  1  0  0  0  0
 21 22  1  0  0  0  0
 22 23  2  0  0  0  0
 24 20  2  0  0  0  0
 25 21  2  0  0  0  0
 25 24  1  0  0  0  0
 26 17  1  0  0  0  0
 27 26  1  0  0  0  0
M  END
>  <MODEL>
5

>  <REMARK>
 VINA RESULT:      -8.3      2.308      6.735
  Name = 
  2 active torsions:
  status: ('A' for Active; 'I' for Inactive)
    1  A    between atoms: C_9  and  N_15
    2  A    between atoms: O_10  and  C_22
                            x       y       z     vdW  Elec       q    Type
                         _______ _______ _______ _____ _____    ______ ____

>  <TORSDO>
F 2

$$$$
=
 OpenBabel10272401083D

 27 31  0  0  0  0  0  0  0  0999 V2000
  189.0720  177.4740  145.2560 C   0  0  0  0  0  0  0  0  0  0  0  0
  188.2350  177.7610  142.9300 C   0  0  0  0  0  0  0  0  0  0  0  0
  190.5200  177.1240  143.3880 O   0  0  0  0  0  0  0  0  0  0  0  0
  188.8910  177.6370  138.8300 C   0  0  0  0  0  3  0  0  0  0  0  0
  190.3550  177.2720  136.9470 O   0  0  0  0  0  1  0  0  0  0  0  0
  187.2460  178.0290  142.0320 N   0  0  0  0  0  0  0  0  0  0  0  0
  191.0060  177.0470  140.5740 C   0  0  0  0  0  3  0  0  0  0  0  0
  191.2060  177.0130  139.1900 C   0  0  0  0  0  3  0  0  0  0  0  0
  189.7470  177.3780  141.0910 C   0  0  0  0  0  0  0  0  0  0  0  0
  187.9880  177.7940  144.3510 N   0  0  0  0  0  0  0  0  0  0  0  0
  190.1510  177.3070  138.3190 C   0  0  0  0  0  0  0  0  0  0  0  0
  188.6860  177.6720  140.2120 C   0  0  0  0  0  0  0  0  0  0  0  0
  188.9030  177.5900  146.7520 C   0  0  0  0  0  2  0  0  0  0  0  0
  189.5100  177.4200  142.4670 C   0  0  0  0  0  0  0  0  0  0  0  0
  191.4330  176.8640  145.7010 C   0  0  0  0  0  2  0  0  0  0  0  0
  187.4650  177.9880  140.7160 N   0  0  0  0  0  0  0  0  0  0  0  0
  190.9330  176.2960  147.0070 C   0  0  0  0  0  0  0  0  0  0  0  0
  189.7600  176.6340  147.4540 N   0  0  0  0  0  0  0  0  0  0  0  0
  190.2900  177.1580  144.7690 C   0  0  0  0  0  0  0  0  0  0  0  0
  184.1340  178.7760  145.8360 C   0  0  0  0  0  3  0  0  0  0  0  0
  186.6800  178.1220  144.8540 C   0  0  0  0  0  0  0  0  0  0  0  0
  186.4210  178.0880  146.2320 C   0  0  0  0  0  3  0  0  0  0  0  0
  185.1530  178.4140  146.7210 C   0  0  0  0  0  3  0  0  0  0  0  0
  184.3840  178.8130  144.4610 C   0  0  0  0  0  3  0  0  0  0  0  0
  185.6520  178.4890  143.9710 C   0  0  0  0  0  3  0  0  0  0  0  0
  191.7130  175.4100  147.7540 O   0  0  0  0  0  0  0  0  0  0  0  0
  192.9570  175.7890  148.3240 C   0  0  0  0  0  1  0  0  0  0  0  0
  1 13  1  0  0  0  0
  2 10  1  0  0  0  0
  3 19  1  0  0  0  0
  4 12  1  0  0  0  0
  5 11  1  0  0  0  0
  6  2  2  0  0  0  0
  7  9  1  0  0  0  0
  8  7  2  0  0  0  0
  9 14  2  0  0  0  0
 10 21  1  0  0  0  0
 10  1  1  0  0  0  0
 11  4  2  0  0  0  0
 11  8  1  0  0  0  0
 12 16  2  0  0  0  0
 12  9  1  0  0  0  0
 13 18  1  0  0  0  0
 14  2  1  0  0  0  0
 14  3  1  0  0  0  0
 15 17  1  0  0  0  0
 16  6  1  0  0  0  0
 17 18  2  0  0  0  0
 17 26  1  0  0  0  0
 19  1  2  0  0  0  0
 19 15  1  0  0  0  0
 20 23  1  0  0  0  0
 21 22  1  0  0  0  0
 22 23  2  0  0  0  0
 24 20  2  0  0  0  0
 25 24  1  0  0  0  0
 25 21  2  0  0  0  0
 26 27  1  0  0  0  0
M  END
>  <MODEL>
6

>  <REMARK>
 VINA RESULT:      -8.3      2.731      7.301
  Name = 
  2 active torsions:
  status: ('A' for Active; 'I' for Inactive)
    1  A    between atoms: C_9  and  N_15
    2  A    between atoms: O_10  and  C_22
                            x       y       z     vdW  Elec       q    Type
                         _______ _______ _______ _____ _____    ______ ____

>  <TORSDO>
F 2

$$$$
=
 OpenBabel10272401083D

 27 31  0  0  0  0  0  0  0  0999 V2000
  188.9780  177.8590  140.4320 C   0  0  0  0  0  0  0  0  0  0  0  0
  187.2860  178.0380  142.2480 C   0  0  0  0  0  0  0  0  0  0  0  0
  186.7080  178.4120  139.9320 O   0  0  0  0  0  0  0  0  0  0  0  0
  183.3730  178.7230  143.4640 C   0  0  0  0  0  3  0  0  0  0  0  0
  181.0800  179.2710  142.9520 O   0  0  0  0  0  1  0  0  0  0  0  0
  186.9110  177.9560  143.5550 N   0  0  0  0  0  0  0  0  0  0  0  0
  184.0130  178.9060  140.7400 C   0  0  0  0  0  3  0  0  0  0  0  0
  182.7020  179.1350  141.1710 C   0  0  0  0  0  3  0  0  0  0  0  0
  185.0090  178.5850  141.6710 C   0  0  0  0  0  0  0  0  0  0  0  0
  188.6460  177.7830  141.8390 N   0  0  0  0  0  0  0  0  0  0  0  0
  182.3820  179.0430  142.5300 C   0  0  0  0  0  0  0  0  0  0  0  0
  184.6840  178.4930  143.0390 C   0  0  0  0  0  0  0  0  0  0  0  0
  190.4020  177.7030  139.9540 C   0  0  0  0  0  2  0  0  0  0  0  0
  186.3280  178.3500  141.2760 C   0  0  0  0  0  0  0  0  0  0  0  0
  188.3700  178.2940  138.0680 C   0  0  0  0  0  2  0  0  0  0  0  0
  185.6520  178.1780  143.9390 N   0  0  0  0  0  0  0  0  0  0  0  0
  189.5390  177.4070  137.7110 C   0  0  0  0  0  0  0  0  0  0  0  0
  190.4450  177.1390  138.6040 N   0  0  0  0  0  0  0  0  0  0  0  0
  188.0260  178.1710  139.5270 C   0  0  0  0  0  0  0  0  0  0  0  0
  191.6060  176.7760  144.7100 C   0  0  0  0  0  3  0  0  0  0  0  0
  189.6460  177.4410  142.8160 C   0  0  0  0  0  0  0  0  0  0  0  0
  190.0570  176.1090  142.9730 C   0  0  0  0  0  3  0  0  0  0  0  0
  191.0330  175.7780  143.9170 C   0  0  0  0  0  3  0  0  0  0  0  0
  191.2030  178.1050  144.5590 C   0  0  0  0  0  3  0  0  0  0  0  0
  190.2270  178.4370  143.6150 C   0  0  0  0  0  3  0  0  0  0  0  0
  189.6690  176.8660  136.4310 O   0  0  0  0  0  0  0  0  0  0  0  0
  189.0220  177.4290  135.3000 C   0  0  0  0  0  1  0  0  0  0  0  0
  1 10  1  0  0  0  0
  2  6  1  0  0  0  0
  3 14  1  0  0  0  0
  6 16  2  0  0  0  0
  7  8  2  0  0  0  0
  7  9  1  0  0  0  0
  8 11  1  0  0  0  0
  9 12  2  0  0  0  0
 10  2  1  0  0  0  0
 10 21  1  0  0  0  0
 11  5  1  0  0  0  0
 11  4  2  0  0  0  0
 12  4  1  0  0  0  0
 12 16  1  0  0  0  0
 13  1  1  0  0  0  0
 14  9  1  0  0  0  0
 14  2  2  0  0  0  0
 15 19  1  0  0  0  0
 17 15  1  0  0  0  0
 17 18  2  0  0  0  0
 18 13  1  0  0  0  0
 19  3  1  0  0  0  0
 19  1  2  0  0  0  0
 21 22  2  0  0  0  0
 21 25  1  0  0  0  0
 22 23  1  0  0  0  0
 23 20  2  0  0  0  0
 24 20  1  0  0  0  0
 25 24  2  0  0  0  0
 26 17  1  0  0  0  0
 27 26  1  0  0  0  0
M  END
>  <MODEL>
7

>  <REMARK>
 VINA RESULT:      -8.2      2.394      6.654
  Name = 
  2 active torsions:
  status: ('A' for Active; 'I' for Inactive)
    1  A    between atoms: C_9  and  N_15
    2  A    between atoms: O_10  and  C_22
                            x       y       z     vdW  Elec       q    Type
                         _______ _______ _______ _____ _____    ______ ____

>  <TORSDO>
F 2

$$$$
=
 OpenBabel10272401083D

 27 31  0  0  0  0  0  0  0  0999 V2000
  188.3020  178.0520  140.2570 C   0  0  0  0  0  0  0  0  0  0  0  0
  189.4540  177.4320  142.3740 C   0  0  0  0  0  0  0  0  0  0  0  0
  187.1700  178.2190  142.3540 O   0  0  0  0  0  0  0  0  0  0  0  0
  189.3890  176.9690  146.5020 C   0  0  0  0  0  3  0  0  0  0  0  0
  188.2370  177.1300  148.6160 O   0  0  0  0  0  1  0  0  0  0  0  0
  190.5300  176.9630  143.0660 N   0  0  0  0  0  0  0  0  0  0  0  0
  187.1010  177.9270  145.1950 C   0  0  0  0  0  3  0  0  0  0  0  0
  187.1010  177.7660  146.5840 C   0  0  0  0  0  3  0  0  0  0  0  0
  188.2460  177.6100  144.4540 C   0  0  0  0  0  0  0  0  0  0  0  0
  189.4870  177.5730  140.9390 N   0  0  0  0  0  0  0  0  0  0  0  0
  188.2430  177.2870  147.2370 C   0  0  0  0  0  0  0  0  0  0  0  0
  189.3940  177.1280  145.1140 C   0  0  0  0  0  0  0  0  0  0  0  0
  188.3090  178.3170  138.7710 C   0  0  0  0  0  2  0  0  0  0  0  0
  188.2820  177.7580  143.0660 C   0  0  0  0  0  0  0  0  0  0  0  0
  185.9730  178.9000  140.2670 C   0  0  0  0  0  2  0  0  0  0  0  0
  190.5020  176.8180  144.3920 N   0  0  0  0  0  0  0  0  0  0  0  0
  185.8900  178.3900  138.8490 C   0  0  0  0  0  0  0  0  0  0  0  0
  186.9780  178.1130  138.1950 N   0  0  0  0  0  0  0  0  0  0  0  0
  187.1940  178.3630  140.9620 C   0  0  0  0  0  0  0  0  0  0  0  0
  192.9880  176.5380  138.7730 C   0  0  0  0  0  3  0  0  0  0  0  0
  190.6730  177.2260  140.2020 C   0  0  0  0  0  0  0  0  0  0  0  0
  191.9320  177.6640  140.6380 C   0  0  0  0  0  3  0  0  0  0  0  0
  193.0850  177.3210  139.9260 C   0  0  0  0  0  3  0  0  0  0  0  0
  191.7370  176.0970  138.3320 C   0  0  0  0  0  3  0  0  0  0  0  0
  190.5840  176.4390  139.0440 C   0  0  0  0  0  3  0  0  0  0  0  0
  184.6560  178.2110  138.2190 O   0  0  0  0  0  0  0  0  0  0  0  0
  184.4600  177.2480  137.1950 C   0  0  0  0  0  1  0  0  0  0  0  0
  1 10  1  0  0  0  0
  1 19  2  0  0  0  0
  2 14  2  0  0  0  0
  2  6  1  0  0  0  0
  3 14  1  0  0  0  0
  4 11  1  0  0  0  0
  6 16  2  0  0  0  0
  7  8  1  0  0  0  0
  8 11  2  0  0  0  0
  9 12  1  0  0  0  0
  9  7  2  0  0  0  0
 10  2  1  0  0  0  0
 11  5  1  0  0  0  0
 12  4  2  0  0  0  0
 13  1  1  0  0  0  0
 14  9  1  0  0  0  0
 15 19  1  0  0  0  0
 16 12  1  0  0  0  0
 17 15  1  0  0  0  0
 18 13  1  0  0  0  0
 18 17  2  0  0  0  0
 19  3  1  0  0  0  0
 20 23  1  0  0  0  0
 21 22  1  0  0  0  0
 21 10  1  0  0  0  0
 23 22  2  0  0  0  0
 24 20  2  0  0  0  0
 24 25  1  0  0  0  0
 25 21  2  0  0  0  0
 26 17  1  0  0  0  0
 27 26  1  0  0  0  0
M  END
>  <MODEL>
8

>  <REMARK>
 VINA RESULT:      -8.1      2.410      3.233
  Name = 
  2 active torsions:
  status: ('A' for Active; 'I' for Inactive)
    1  A    between atoms: C_9  and  N_15
    2  A    between atoms: O_10  and  C_22
                            x       y       z     vdW  Elec       q    Type
                         _______ _______ _______ _____ _____    ______ ____

>  <TORSDO>
F 2

$$$$
=
 OpenBabel10272401083D

 27 31  0  0  0  0  0  0  0  0999 V2000
  186.0190  178.1070  144.3840 C   0  0  0  0  0  0  0  0  0  0  0  0
  188.3260  177.6990  143.5420 C   0  0  0  0  0  0  0  0  0  0  0  0
  186.4530  177.9650  142.0390 O   0  0  0  0  0  0  0  0  0  0  0  0
  190.9630  177.2100  140.3700 C   0  0  0  0  0  3  0  0  0  0  0  0
  191.3970  177.0780  138.0010 O   0  0  0  0  0  1  0  0  0  0  0  0
  189.6610  177.5070  143.7360 N   0  0  0  0  0  0  0  0  0  0  0  0
  188.2400  177.6150  139.8370 C   0  0  0  0  0  3  0  0  0  0  0  0
  189.1450  177.4460  138.7840 C   0  0  0  0  0  3  0  0  0  0  0  0
  188.6940  177.5810  141.1620 C   0  0  0  0  0  0  0  0  0  0  0  0
  187.4240  177.8810  144.6540 N   0  0  0  0  0  0  0  0  0  0  0  0
  190.5040  177.2450  139.0500 C   0  0  0  0  0  0  0  0  0  0  0  0
  190.0640  177.3780  141.4260 C   0  0  0  0  0  0  0  0  0  0  0  0
  185.0130  178.2040  145.5050 C   0  0  0  0  0  2  0  0  0  0  0  0
  187.8200  177.7460  142.2380 C   0  0  0  0  0  0  0  0  0  0  0  0
  184.1070  178.3310  142.8220 C   0  0  0  0  0  2  0  0  0  0  0  0
  190.5020  177.3500  142.7110 N   0  0  0  0  0  0  0  0  0  0  0  0
  183.4410  179.1320  143.9150 C   0  0  0  0  0  0  0  0  0  0  0  0
  183.8920  179.0670  145.1320 N   0  0  0  0  0  0  0  0  0  0  0  0
  185.5710  178.1380  143.1110 C   0  0  0  0  0  0  0  0  0  0  0  0
  188.8990  177.8180  148.6340 C   0  0  0  0  0  3  0  0  0  0  0  0
  187.9210  177.8560  146.0040 C   0  0  0  0  0  0  0  0  0  0  0  0
  189.0890  177.1440  146.3160 C   0  0  0  0  0  3  0  0  0  0  0  0
  189.5760  177.1250  147.6260 C   0  0  0  0  0  3  0  0  0  0  0  0
  187.7360  178.5300  148.3310 C   0  0  0  0  0  3  0  0  0  0  0  0
  187.2490  178.5510  147.0210 C   0  0  0  0  0  3  0  0  0  0  0  0
  182.3400  179.9460  143.6420 O   0  0  0  0  0  0  0  0  0  0  0  0
  181.1470  179.4410  143.0610 C   0  0  0  0  0  1  0  0  0  0  0  0
  1 10  1  0  0  0  0
  1 13  1  0  0  0  0
  2  6  1  0  0  0  0
  2 10  1  0  0  0  0
  3 14  1  0  0  0  0
  3 19  1  0  0  0  0
  4 12  1  0  0  0  0
  5 11  1  0  0  0  0
  7  9  1  0  0  0  0
  8 11  1  0  0  0  0
  8  7  2  0  0  0  0
  9 12  2  0  0  0  0
  9 14  1  0  0  0  0
 10 21  1  0  0  0  0
 11  4  2  0  0  0  0
 12 16  1  0  0  0  0
 14  2  2  0  0  0  0
 15 19  1  0  0  0  0
 15 17  1  0  0  0  0
 16  6  2  0  0  0  0
 17 18  2  0  0  0  0
 18 13  1  0  0  0  0
 19  1  2  0  0  0  0
 21 22  2  0  0  0  0
 21 25  1  0  0  0  0
 22 23  1  0  0  0  0
 23 20  2  0  0  0  0
 24 20  1  0  0  0  0
 25 24  2  0  0  0  0
 26 17  1  0  0  0  0
 27 26  1  0  0  0  0
M  END
>  <MODEL>
9

>  <REMARK>
 VINA RESULT:      -7.9      2.504      5.905
  Name = 
  2 active torsions:
  status: ('A' for Active; 'I' for Inactive)
    1  A    between atoms: C_9  and  N_15
    2  A    between atoms: O_10  and  C_22
                            x       y       z     vdW  Elec       q    Type
                         _______ _______ _______ _____ _____    ______ ____

>  <TORSDO>
F 2

$$$$
