=
 OpenBabel10272401513D

 28 30  0  0  1  0  0  0  0  0999 V2000
  188.1220  177.9320  139.6890 C   0  0  1  0  0  3  0  0  0  0  0  0
  184.8750  179.4700  140.1870 N   0  0  0  0  0  0  0  0  0  0  0  0
  186.7250  178.4700  139.6320 C   0  0  0  0  0  0  0  0  0  0  0  0
  184.6880  179.0220  138.8150 C   0  0  0  0  0  3  0  0  0  0  0  0
  186.1530  179.0910  140.6040 N   0  0  0  0  0  0  0  0  0  0  0  0
  185.9210  178.3860  138.5070 O   0  0  0  0  0  0  0  0  0  0  0  0
  188.9740  179.6570  138.2630 O   0  0  0  0  0  0  0  0  0  0  0  0
  189.8110  177.5360  137.8280 N   0  0  0  0  0  2  0  0  0  0  0  0
  188.9650  178.4310  138.5540 C   0  0  0  0  0  0  0  0  0  0  0  0
  189.8910  176.1120  138.1250 C   0  0  2  0  0  3  0  0  0  0  0  0
  191.0190  173.6440  137.2330 N   0  0  0  0  0  0  0  0  0  0  0  0
  191.3510  175.7370  138.4470 C   0  0  0  0  0  2  0  0  0  0  0  0
  187.7550  175.2890  137.0790 C   0  0  0  0  0  1  0  0  0  0  0  0
  189.2670  175.2920  136.9810 C   0  0  2  0  0  3  0  0  0  0  0  0
  189.7730  173.8780  137.0060 C   0  0  0  0  0  3  0  0  0  0  0  0
  191.9450  174.7320  137.4550 C   0  0  0  0  0  2  0  0  0  0  0  0
  188.7970  178.2130  141.0260 C   0  0  0  0  0  2  0  0  0  0  0  0
  188.8790  176.9510  141.8760 C   0  0  0  0  0  2  0  0  0  0  0  0
  187.0200  177.4530  143.4460 C   0  0  0  0  0  3  0  0  0  0  0  0
  189.2570  177.2550  144.3870 C   0  0  0  0  0  0  0  0  0  0  0  0
  187.3680  177.8270  145.8060 C   0  0  0  0  0  0  0  0  0  0  0  0
  188.3880  177.2050  143.2680 C   0  0  0  0  0  0  0  0  0  0  0  0
  188.7310  177.5740  145.6440 C   0  0  0  0  0  3  0  0  0  0  0  0
  186.7370  178.2310  147.3870 Cl  0  0  0  0  0  0  0  0  0  0  0  0
  186.5110  177.7590  144.7090 C   0  0  0  0  0  3  0  0  0  0  0  0
  190.6310  176.9970  144.3120 O   0  0  0  0  0  0  0  0  0  0  0  0
  191.5990  178.8910  143.9270 C   0  0  0  0  0  1  0  0  0  0  0  0
  191.5570  177.8220  144.8200 O   0  0  0  0  0  0  0  0  0  0  0  0
  1 17  1  1  0  0  0
  2  5  1  0  0  0  0
  3  1  1  0  0  0  0
  3  5  2  0  0  0  0
  4  2  2  0  0  0  0
  6  4  1  0  0  0  0
  6  3  1  0  0  0  0
  7  9  2  0  0  0  0
  8  9  1  0  0  0  0
  9  1  1  0  0  0  0
 10  8  1  6  0  0  0
 10 12  1  0  0  0  0
 11 16  1  0  0  0  0
 14 15  1  0  0  0  0
 14 13  1  1  0  0  0
 14 10  1  0  0  0  0
 15 11  2  0  0  0  0
 16 12  1  0  0  0  0
 17 18  1  0  0  0  0
 18 22  1  0  0  0  0
 19 25  1  0  0  0  0
 20 23  2  0  0  0  0
 21 24  1  0  0  0  0
 22 19  2  0  0  0  0
 22 20  1  0  0  0  0
 23 21  1  0  0  0  0
 25 21  2  0  0  0  0
 26 20  1  0  0  0  0
 26 28  1  0  0  0  0
 27 28  1  0  0  0  0
M  END
>  <MODEL>
1

>  <REMARK>
 VINA RESULT:      -7.7      0.000      0.000
  Name = 
  8 active torsions:
  status: ('A' for Active; 'I' for Inactive)
    1  A    between atoms: N_2  and  C_3
    2  A    between atoms: C_9  and  O_14
    3  A    between atoms: C_10  and  C_13
    4  A    between atoms: C_10  and  C_17
    5  A    between atoms: O_14  and  O_25
    6  A    between atoms: C_16  and  C_27
    7  A    between atoms: C_17  and  C_27
    8  A    between atoms: C_26  and  C_27
                            x       y       z     vdW  Elec       q    Type
                         _______ _______ _______ _____ _____    ______ ____

>  <TORSDO>
F 8

$$$$
=
 OpenBabel10272401513D

 28 30  0  0  1  0  0  0  0  0999 V2000
  188.5600  178.0940  142.3950 C   0  0  1  0  0  3  0  0  0  0  0  0
  187.9500  178.3960  138.8320 N   0  0  0  0  0  0  0  0  0  0  0  0
  188.5750  178.1220  140.8970 C   0  0  0  0  0  0  0  0  0  0  0  0
  189.3440  177.9810  138.7730 C   0  0  0  0  0  3  0  0  0  0  0  0
  187.5650  178.4580  140.1740 N   0  0  0  0  0  0  0  0  0  0  0  0
  189.6970  177.8240  140.1410 O   0  0  0  0  0  0  0  0  0  0  0  0
  188.4760  175.7270  142.7490 O   0  0  0  0  0  0  0  0  0  0  0  0
  186.7200  176.9150  143.6960 N   0  0  0  0  0  2  0  0  0  0  0  0
  187.9240  176.8460  142.9290 C   0  0  0  0  0  0  0  0  0  0  0  0
  186.0390  178.1700  143.9840 C   0  0  2  0  0  3  0  0  0  0  0  0
  183.8300  179.3100  145.3910 N   0  0  0  0  0  0  0  0  0  0  0  0
  186.1180  178.4600  145.4960 C   0  0  0  0  0  2  0  0  0  0  0  0
  184.6060  178.4130  141.9290 C   0  0  0  0  0  1  0  0  0  0  0  0
  184.6060  178.1420  143.4200 C   0  0  2  0  0  3  0  0  0  0  0  0
  183.7450  179.1580  144.1150 C   0  0  0  0  0  3  0  0  0  0  0  0
  184.7430  178.5040  146.1700 C   0  0  0  0  0  2  0  0  0  0  0  0
  189.9490  178.2890  142.9910 C   0  0  0  0  0  2  0  0  0  0  0  0
  189.8650  178.8320  144.4140 C   0  0  0  0  0  2  0  0  0  0  0  0
  191.5740  177.1180  144.9740 C   0  0  0  0  0  3  0  0  0  0  0  0
  189.9390  177.6710  146.6900 C   0  0  0  0  0  0  0  0  0  0  0  0
  191.6090  175.9500  147.0870 C   0  0  0  0  0  0  0  0  0  0  0  0
  190.4710  177.8730  145.3920 C   0  0  0  0  0  0  0  0  0  0  0  0
  190.5150  176.7020  147.5200 C   0  0  0  0  0  3  0  0  0  0  0  0
  192.3070  174.7390  148.1400 Cl  0  0  0  0  0  0  0  0  0  0  0  0
  192.1440  176.1630  145.8180 C   0  0  0  0  0  3  0  0  0  0  0  0
  188.8570  178.3960  147.2060 O   0  0  0  0  0  0  0  0  0  0  0  0
  187.6130  177.9710  148.9220 C   0  0  0  0  0  1  0  0  0  0  0  0
  188.7310  178.6920  148.5060 O   0  0  0  0  0  0  0  0  0  0  0  0
  1  9  1  0  0  0  0
  1 17  1  1  0  0  0
  2  5  1  0  0  0  0
  3  1  1  0  0  0  0
  4  2  2  0  0  0  0
  4  6  1  0  0  0  0
  5  3  2  0  0  0  0
  6  3  1  0  0  0  0
  7  9  2  0  0  0  0
  9  8  1  0  0  0  0
 10  8  1  1  0  0  0
 10 12  1  0  0  0  0
 11 16  1  0  0  0  0
 12 16  1  0  0  0  0
 14 13  1  6  0  0  0
 14 10  1  0  0  0  0
 14 15  1  0  0  0  0
 15 11  2  0  0  0  0
 17 18  1  0  0  0  0
 18 22  1  0  0  0  0
 19 22  2  0  0  0  0
 19 25  1  0  0  0  0
 20 26  1  0  0  0  0
 20 23  2  0  0  0  0
 21 23  1  0  0  0  0
 21 24  1  0  0  0  0
 22 20  1  0  0  0  0
 25 21  2  0  0  0  0
 26 28  1  0  0  0  0
 28 27  1  0  0  0  0
M  END
>  <MODEL>
2

>  <REMARK>
 VINA RESULT:      -7.3      2.984      6.188
  Name = 
  8 active torsions:
  status: ('A' for Active; 'I' for Inactive)
    1  A    between atoms: N_2  and  C_3
    2  A    between atoms: C_9  and  O_14
    3  A    between atoms: C_10  and  C_13
    4  A    between atoms: C_10  and  C_17
    5  A    between atoms: O_14  and  O_25
    6  A    between atoms: C_16  and  C_27
    7  A    between atoms: C_17  and  C_27
    8  A    between atoms: C_26  and  C_27
                            x       y       z     vdW  Elec       q    Type
                         _______ _______ _______ _____ _____    ______ ____

>  <TORSDO>
F 8

$$$$
=
 OpenBabel10272401513D

 28 30  0  0  1  0  0  0  0  0999 V2000
  189.1100  176.9020  142.9530 C   0  0  1  0  0  3  0  0  0  0  0  0
  190.2960  176.3970  139.5620 N   0  0  0  0  0  0  0  0  0  0  0  0
  189.3700  176.8460  141.4790 C   0  0  0  0  0  0  0  0  0  0  0  0
  189.0640  177.1080  139.2520 C   0  0  0  0  0  3  0  0  0  0  0  0
  190.3980  176.2800  140.9500 N   0  0  0  0  0  0  0  0  0  0  0  0
  188.5050  177.3680  140.5320 O   0  0  0  0  0  0  0  0  0  0  0  0
  189.4920  179.2660  142.9810 O   0  0  0  0  0  0  0  0  0  0  0  0
  190.2580  178.1360  144.8580 N   0  0  0  0  0  2  0  0  0  0  0  0
  189.6380  178.1620  143.5710 C   0  0  0  0  0  0  0  0  0  0  0  0
  190.4310  176.9090  145.6250 C   0  0  2  0  0  3  0  0  0  0  0  0
  191.9450  175.7180  147.7340 N   0  0  0  0  0  0  0  0  0  0  0  0
  190.0910  177.1790  147.1050 C   0  0  0  0  0  2  0  0  0  0  0  0
  191.9120  175.5880  144.0780 C   0  0  0  0  0  1  0  0  0  0  0  0
  191.8400  176.3310  145.3970 C   0  0  2  0  0  3  0  0  0  0  0  0
  192.2180  175.4030  146.5160 C   0  0  0  0  0  3  0  0  0  0  0  0
  191.2830  176.9670  148.0420 C   0  0  0  0  0  2  0  0  0  0  0  0
  187.6350  176.7140  143.2880 C   0  0  0  0  0  2  0  0  0  0  0  0
  187.1650  177.7510  144.3020 C   0  0  0  0  0  2  0  0  0  0  0  0
  185.2840  178.2090  142.7460 C   0  0  0  0  0  3  0  0  0  0  0  0
  184.8430  178.4300  145.1290 C   0  0  0  0  0  0  0  0  0  0  0  0
  183.1080  178.9330  143.5030 C   0  0  0  0  0  0  0  0  0  0  0  0
  185.7320  178.1200  144.0700 C   0  0  0  0  0  0  0  0  0  0  0  0
  183.5400  178.8400  144.8280 C   0  0  0  0  0  3  0  0  0  0  0  0
  181.4760  179.4560  143.1510 Cl  0  0  0  0  0  0  0  0  0  0  0  0
  183.9770  178.6100  142.4620 C   0  0  0  0  0  3  0  0  0  0  0  0
  185.1920  178.3450  146.4830 O   0  0  0  0  0  0  0  0  0  0  0  0
  186.8180  178.8140  147.8280 C   0  0  0  0  0  1  0  0  0  0  0  0
  185.7250  179.3680  147.1650 O   0  0  0  0  0  0  0  0  0  0  0  0
  1 17  1  6  0  0  0
  1  9  1  0  0  0  0
  2  5  1  0  0  0  0
  3  1  1  0  0  0  0
  4  2  2  0  0  0  0
  4  6  1  0  0  0  0
  5  3  2  0  0  0  0
  6  3  1  0  0  0  0
  7  9  2  0  0  0  0
  9  8  1  0  0  0  0
 10  8  1  6  0  0  0
 10 12  1  0  0  0  0
 11 16  1  0  0  0  0
 12 16  1  0  0  0  0
 14 13  1  6  0  0  0
 14 10  1  0  0  0  0
 14 15  1  0  0  0  0
 15 11  2  0  0  0  0
 17 18  1  0  0  0  0
 19 22  1  0  0  0  0
 20 26  1  0  0  0  0
 21 23  2  0  0  0  0
 22 18  1  0  0  0  0
 22 20  2  0  0  0  0
 23 20  1  0  0  0  0
 24 21  1  0  0  0  0
 25 19  2  0  0  0  0
 25 21  1  0  0  0  0
 26 28  1  0  0  0  0
 28 27  1  0  0  0  0
M  END
>  <MODEL>
3

>  <REMARK>
 VINA RESULT:      -7.3      3.773      6.319
  Name = 
  8 active torsions:
  status: ('A' for Active; 'I' for Inactive)
    1  A    between atoms: N_2  and  C_3
    2  A    between atoms: C_9  and  O_14
    3  A    between atoms: C_10  and  C_13
    4  A    between atoms: C_10  and  C_17
    5  A    between atoms: O_14  and  O_25
    6  A    between atoms: C_16  and  C_27
    7  A    between atoms: C_17  and  C_27
    8  A    between atoms: C_26  and  C_27
                            x       y       z     vdW  Elec       q    Type
                         _______ _______ _______ _____ _____    ______ ____

>  <TORSDO>
F 8

$$$$
=
 OpenBabel10272401513D

 28 30  0  0  1  0  0  0  0  0999 V2000
  188.0860  177.9100  139.7740 C   0  0  1  0  0  3  0  0  0  0  0  0
  184.8590  179.5470  140.0290 N   0  0  0  0  0  0  0  0  0  0  0  0
  186.6900  178.4380  139.6430 C   0  0  0  0  0  0  0  0  0  0  0  0
  184.6340  178.8300  138.7820 C   0  0  0  0  0  3  0  0  0  0  0  0
  186.1460  179.2500  140.4820 N   0  0  0  0  0  0  0  0  0  0  0  0
  185.8560  178.1340  138.5800 O   0  0  0  0  0  0  0  0  0  0  0  0
  189.0350  179.6680  138.4520 O   0  0  0  0  0  0  0  0  0  0  0  0
  189.8500  177.5470  137.9770 N   0  0  0  0  0  2  0  0  0  0  0  0
  188.9890  178.4320  138.6970 C   0  0  0  0  0  0  0  0  0  0  0  0
  189.8880  176.1110  138.2240 C   0  0  2  0  0  3  0  0  0  0  0  0
  190.9270  173.6410  137.2330 N   0  0  0  0  0  0  0  0  0  0  0  0
  191.3400  175.6810  138.5140 C   0  0  0  0  0  2  0  0  0  0  0  0
  187.7140  175.3920  137.1800 C   0  0  0  0  0  1  0  0  0  0  0  0
  189.2250  175.3510  137.0610 C   0  0  2  0  0  3  0  0  0  0  0  0
  189.6860  173.9220  137.0310 C   0  0  0  0  0  3  0  0  0  0  0  0
  191.8890  174.6920  137.4810 C   0  0  0  0  0  2  0  0  0  0  0  0
  188.6790  178.1780  141.1520 C   0  0  0  0  0  2  0  0  0  0  0  0
  188.6900  176.9120  142.0010 C   0  0  0  0  0  2  0  0  0  0  0  0
  190.0250  177.2100  144.0750 C   0  0  0  0  0  3  0  0  0  0  0  0
  187.6170  177.5290  144.2380 C   0  0  0  0  0  0  0  0  0  0  0  0
  189.0210  177.7100  146.2130 C   0  0  0  0  0  0  0  0  0  0  0  0
  188.7660  177.2410  143.4600 C   0  0  0  0  0  0  0  0  0  0  0  0
  187.7630  177.7530  145.6120 C   0  0  0  0  0  3  0  0  0  0  0  0
  189.1760  177.9860  147.9340 Cl  0  0  0  0  0  0  0  0  0  0  0  0
  190.1540  177.4470  145.4440 C   0  0  0  0  0  3  0  0  0  0  0  0
  186.3230  177.6080  143.7080 O   0  0  0  0  0  0  0  0  0  0  0  0
  184.3180  178.3980  143.5440 C   0  0  0  0  0  1  0  0  0  0  0  0
  185.6620  178.7650  143.5670 O   0  0  0  0  0  0  0  0  0  0  0  0
  1 17  1  1  0  0  0
  2  5  1  0  0  0  0
  3  1  1  0  0  0  0
  3  5  2  0  0  0  0
  4  2  2  0  0  0  0
  6  4  1  0  0  0  0
  6  3  1  0  0  0  0
  7  9  2  0  0  0  0
  8  9  1  0  0  0  0
  9  1  1  0  0  0  0
 10  8  1  6  0  0  0
 10 12  1  0  0  0  0
 11 16  1  0  0  0  0
 14 13  1  1  0  0  0
 14 10  1  0  0  0  0
 15 14  1  0  0  0  0
 15 11  2  0  0  0  0
 16 12  1  0  0  0  0
 17 18  1  0  0  0  0
 18 22  1  0  0  0  0
 19 25  1  0  0  0  0
 20 23  2  0  0  0  0
 21 24  1  0  0  0  0
 22 19  2  0  0  0  0
 22 20  1  0  0  0  0
 23 21  1  0  0  0  0
 25 21  2  0  0  0  0
 26 20  1  0  0  0  0
 27 28  1  0  0  0  0
 28 26  1  0  0  0  0
M  END
>  <MODEL>
4

>  <REMARK>
 VINA RESULT:      -7.3      1.512      2.291
  Name = 
  8 active torsions:
  status: ('A' for Active; 'I' for Inactive)
    1  A    between atoms: N_2  and  C_3
    2  A    between atoms: C_9  and  O_14
    3  A    between atoms: C_10  and  C_13
    4  A    between atoms: C_10  and  C_17
    5  A    between atoms: O_14  and  O_25
    6  A    between atoms: C_16  and  C_27
    7  A    between atoms: C_17  and  C_27
    8  A    between atoms: C_26  and  C_27
                            x       y       z     vdW  Elec       q    Type
                         _______ _______ _______ _____ _____    ______ ____

>  <TORSDO>
F 8

$$$$
=
 OpenBabel10272401513D

 28 30  0  0  1  0  0  0  0  0999 V2000
  188.1510  177.7690  138.9380 C   0  0  1  0  0  3  0  0  0  0  0  0
  184.6770  178.5980  138.3050 N   0  0  0  0  0  0  0  0  0  0  0  0
  186.7190  177.8790  138.5120 C   0  0  0  0  0  0  0  0  0  0  0  0
  184.7860  177.4520  137.4150 C   0  0  0  0  0  3  0  0  0  0  0  0
  185.9110  178.7870  138.9330 N   0  0  0  0  0  0  0  0  0  0  0  0
  186.1330  177.0310  137.5870 O   0  0  0  0  0  0  0  0  0  0  0  0
  189.0460  179.5860  137.6600 O   0  0  0  0  0  0  0  0  0  0  0  0
  190.0760  177.5380  137.2910 N   0  0  0  0  0  2  0  0  0  0  0  0
  189.0880  178.3540  137.9240 C   0  0  0  0  0  0  0  0  0  0  0  0
  190.2190  176.1150  137.5680 C   0  0  2  0  0  3  0  0  0  0  0  0
  191.7980  173.8100  136.9730 N   0  0  0  0  0  0  0  0  0  0  0  0
  191.5650  175.8640  138.2750 C   0  0  0  0  0  2  0  0  0  0  0  0
  188.5480  175.1480  135.9530 C   0  0  0  0  0  1  0  0  0  0  0  0
  190.0210  175.2970  136.2790 C   0  0  2  0  0  3  0  0  0  0  0  0
  190.6450  173.9370  136.4140 C   0  0  0  0  0  3  0  0  0  0  0  0
  192.5090  174.9690  137.4670 C   0  0  0  0  0  2  0  0  0  0  0  0
  188.3930  178.3810  140.3130 C   0  0  0  0  0  2  0  0  0  0  0  0
  188.9520  177.3460  141.2840 C   0  0  0  0  0  2  0  0  0  0  0  0
  186.9200  177.8500  142.6210 C   0  0  0  0  0  3  0  0  0  0  0  0
  188.8990  177.1100  143.8290 C   0  0  0  0  0  0  0  0  0  0  0  0
  186.8750  177.7140  145.0320 C   0  0  0  0  0  0  0  0  0  0  0  0
  188.2520  177.4150  142.6060 C   0  0  0  0  0  0  0  0  0  0  0  0
  188.1990  177.2720  145.0300 C   0  0  0  0  0  3  0  0  0  0  0  0
  186.0240  177.9160  146.5470 Cl  0  0  0  0  0  0  0  0  0  0  0  0
  186.2320  177.9960  143.8270 C   0  0  0  0  0  3  0  0  0  0  0  0
  190.2170  176.6440  143.9120 O   0  0  0  0  0  0  0  0  0  0  0  0
  191.5610  178.3260  144.1080 C   0  0  0  0  0  1  0  0  0  0  0  0
  191.1250  177.1680  144.7480 O   0  0  0  0  0  0  0  0  0  0  0  0
  1 17  1  1  0  0  0
  2  5  1  0  0  0  0
  3  5  2  0  0  0  0
  3  1  1  0  0  0  0
  4  6  1  0  0  0  0
  4  2  2  0  0  0  0
  6  3  1  0  0  0  0
  7  9  2  0  0  0  0
  8  9  1  0  0  0  0
  9  1  1  0  0  0  0
 10  8  1  6  0  0  0
 10 12  1  0  0  0  0
 11 16  1  0  0  0  0
 14 13  1  1  0  0  0
 14 15  1  0  0  0  0
 14 10  1  0  0  0  0
 15 11  2  0  0  0  0
 16 12  1  0  0  0  0
 17 18  1  0  0  0  0
 18 22  1  0  0  0  0
 19 25  1  0  0  0  0
 20 26  1  0  0  0  0
 20 23  2  0  0  0  0
 21 24  1  0  0  0  0
 22 19  2  0  0  0  0
 22 20  1  0  0  0  0
 23 21  1  0  0  0  0
 25 21  2  0  0  0  0
 26 28  1  0  0  0  0
 27 28  1  0  0  0  0
M  END
>  <MODEL>
5

>  <REMARK>
 VINA RESULT:      -6.9      1.046      1.065
  Name = 
  8 active torsions:
  status: ('A' for Active; 'I' for Inactive)
    1  A    between atoms: N_2  and  C_3
    2  A    between atoms: C_9  and  O_14
    3  A    between atoms: C_10  and  C_13
    4  A    between atoms: C_10  and  C_17
    5  A    between atoms: O_14  and  O_25
    6  A    between atoms: C_16  and  C_27
    7  A    between atoms: C_17  and  C_27
    8  A    between atoms: C_26  and  C_27
                            x       y       z     vdW  Elec       q    Type
                         _______ _______ _______ _____ _____    ______ ____

>  <TORSDO>
F 8

$$$$
=
 OpenBabel10272401513D

 28 30  0  0  1  0  0  0  0  0999 V2000
  190.6240  177.0510  143.6690 C   0  0  1  0  0  3  0  0  0  0  0  0
  192.1520  176.7590  146.9460 N   0  0  0  0  0  0  0  0  0  0  0  0
  191.3320  176.6710  144.9330 C   0  0  0  0  0  0  0  0  0  0  0  0
  192.4370  175.4170  146.4590 C   0  0  0  0  0  3  0  0  0  0  0  0
  191.4700  177.4550  145.9450 N   0  0  0  0  0  0  0  0  0  0  0  0
  191.8770  175.4170  145.1530 O   0  0  0  0  0  0  0  0  0  0  0  0
  190.3140  174.7040  143.3080 O   0  0  0  0  0  0  0  0  0  0  0  0
  190.0130  176.0260  141.4230 N   0  0  0  0  0  2  0  0  0  0  0  0
  190.3320  175.8600  142.8060 C   0  0  0  0  0  0  0  0  0  0  0  0
  189.9730  177.3300  140.7730 C   0  0  2  0  0  3  0  0  0  0  0  0
  188.7630  178.7910  138.6380 N   0  0  0  0  0  0  0  0  0  0  0  0
  188.5590  177.9280  140.9140 C   0  0  0  0  0  2  0  0  0  0  0  0
  191.9830  177.1710  139.2670 C   0  0  0  0  0  1  0  0  0  0  0  0
  190.4690  177.2180  139.3200 C   0  0  2  0  0  3  0  0  0  0  0  0
  189.9750  178.3770  138.5020 C   0  0  0  0  0  3  0  0  0  0  0  0
  187.8630  178.1440  139.5670 C   0  0  0  0  0  2  0  0  0  0  0  0
  189.3530  177.8490  143.9360 C   0  0  0  0  0  2  0  0  0  0  0  0
  188.4940  177.1740  145.0000 C   0  0  0  0  0  2  0  0  0  0  0  0
  186.5010  177.8030  143.6550 C   0  0  0  0  0  3  0  0  0  0  0  0
  186.3200  177.9830  146.0760 C   0  0  0  0  0  0  0  0  0  0  0  0
  184.4690  178.6490  144.6490 C   0  0  0  0  0  0  0  0  0  0  0  0
  187.0740  177.6460  144.9240 C   0  0  0  0  0  0  0  0  0  0  0  0
  185.0250  178.4890  145.9190 C   0  0  0  0  0  3  0  0  0  0  0  0
  182.8500  179.2900  144.4780 Cl  0  0  0  0  0  0  0  0  0  0  0  0
  185.2040  178.2990  143.5170 C   0  0  0  0  0  3  0  0  0  0  0  0
  186.7980  177.8350  147.3850 O   0  0  0  0  0  0  0  0  0  0  0  0
  188.5780  178.0670  148.5880 C   0  0  0  0  0  1  0  0  0  0  0  0
  187.5280  178.7730  148.0050 O   0  0  0  0  0  0  0  0  0  0  0  0
  1 17  1  1  0  0  0
  1  3  1  0  0  0  0
  3  6  1  0  0  0  0
  3  5  2  0  0  0  0
  4  2  2  0  0  0  0
  5  2  1  0  0  0  0
  6  4  1  0  0  0  0
  8  9  1  0  0  0  0
  9  7  2  0  0  0  0
  9  1  1  0  0  0  0
 10 12  1  0  0  0  0
 10  8  1  6  0  0  0
 11 16  1  0  0  0  0
 14 13  1  1  0  0  0
 14 10  1  0  0  0  0
 15 11  2  0  0  0  0
 15 14  1  0  0  0  0
 16 12  1  0  0  0  0
 17 18  1  0  0  0  0
 19 22  1  0  0  0  0
 20 26  1  0  0  0  0
 21 23  2  0  0  0  0
 22 18  1  0  0  0  0
 22 20  2  0  0  0  0
 23 20  1  0  0  0  0
 24 21  1  0  0  0  0
 25 19  2  0  0  0  0
 25 21  1  0  0  0  0
 26 28  1  0  0  0  0
 28 27  1  0  0  0  0
M  END
>  <MODEL>
6

>  <REMARK>
 VINA RESULT:      -6.9      3.330      5.606
  Name = 
  8 active torsions:
  status: ('A' for Active; 'I' for Inactive)
    1  A    between atoms: N_2  and  C_3
    2  A    between atoms: C_9  and  O_14
    3  A    between atoms: C_10  and  C_13
    4  A    between atoms: C_10  and  C_17
    5  A    between atoms: O_14  and  O_25
    6  A    between atoms: C_16  and  C_27
    7  A    between atoms: C_17  and  C_27
    8  A    between atoms: C_26  and  C_27
                            x       y       z     vdW  Elec       q    Type
                         _______ _______ _______ _____ _____    ______ ____

>  <TORSDO>
F 8

$$$$
=
 OpenBabel10272401513D

 28 30  0  0  1  0  0  0  0  0999 V2000
  188.2230  178.1860  142.2360 C   0  0  1  0  0  3  0  0  0  0  0  0
  187.4890  178.2820  138.6850 N   0  0  0  0  0  0  0  0  0  0  0  0
  188.1270  178.0300  140.7500 C   0  0  0  0  0  0  0  0  0  0  0  0
  188.6080  177.3520  138.6450 C   0  0  0  0  0  3  0  0  0  0  0  0
  187.2680  178.6470  140.0160 N   0  0  0  0  0  0  0  0  0  0  0  0
  188.9830  177.2310  140.0100 O   0  0  0  0  0  0  0  0  0  0  0  0
  188.4490  175.8640  142.7770 O   0  0  0  0  0  0  0  0  0  0  0  0
  186.7500  176.9660  143.9130 N   0  0  0  0  0  2  0  0  0  0  0  0
  187.8170  176.9390  142.9620 C   0  0  0  0  0  0  0  0  0  0  0  0
  185.9940  178.1740  144.2160 C   0  0  2  0  0  3  0  0  0  0  0  0
  183.7310  179.1630  145.6510 N   0  0  0  0  0  0  0  0  0  0  0  0
  186.0690  178.4590  145.7290 C   0  0  0  0  0  2  0  0  0  0  0  0
  184.5290  178.3390  142.1760 C   0  0  0  0  0  1  0  0  0  0  0  0
  184.5610  178.0590  143.6650 C   0  0  2  0  0  3  0  0  0  0  0  0
  183.6430  179.0140  144.3750 C   0  0  0  0  0  3  0  0  0  0  0  0
  184.7010  178.4110  146.4160 C   0  0  0  0  0  2  0  0  0  0  0  0
  189.6080  178.6420  142.6810 C   0  0  0  0  0  2  0  0  0  0  0  0
  189.6030  179.0650  144.1460 C   0  0  0  0  0  2  0  0  0  0  0  0
  189.6570  177.7660  146.2630 C   0  0  0  0  0  3  0  0  0  0  0  0
  191.4090  177.3220  144.6320 C   0  0  0  0  0  0  0  0  0  0  0  0
  191.4020  176.1770  146.7760 C   0  0  0  0  0  0  0  0  0  0  0  0
  190.2340  178.0180  145.0110 C   0  0  0  0  0  0  0  0  0  0  0  0
  191.9810  176.4120  145.5280 C   0  0  0  0  0  3  0  0  0  0  0  0
  192.1400  175.0400  147.8820 Cl  0  0  0  0  0  0  0  0  0  0  0  0
  190.2350  176.8480  147.1410 C   0  0  0  0  0  3  0  0  0  0  0  0
  192.0410  177.4870  143.3930 O   0  0  0  0  0  0  0  0  0  0  0  0
  192.2620  177.2880  141.2520 C   0  0  0  0  0  1  0  0  0  0  0  0
  191.9770  176.5740  142.4140 O   0  0  0  0  0  0  0  0  0  0  0  0
  1 17  1  6  0  0  0
  1  9  1  0  0  0  0
  2  5  1  0  0  0  0
  3  1  1  0  0  0  0
  4  2  2  0  0  0  0
  4  6  1  0  0  0  0
  5  3  2  0  0  0  0
  6  3  1  0  0  0  0
  7  9  2  0  0  0  0
  9  8  1  0  0  0  0
 10  8  1  1  0  0  0
 10 12  1  0  0  0  0
 11 16  1  0  0  0  0
 12 16  1  0  0  0  0
 14 13  1  6  0  0  0
 14 10  1  0  0  0  0
 14 15  1  0  0  0  0
 15 11  2  0  0  0  0
 17 18  1  0  0  0  0
 18 22  1  0  0  0  0
 19 25  1  0  0  0  0
 20 22  1  0  0  0  0
 20 23  2  0  0  0  0
 21 25  2  0  0  0  0
 21 24  1  0  0  0  0
 22 19  2  0  0  0  0
 23 21  1  0  0  0  0
 26 20  1  0  0  0  0
 27 28  1  0  0  0  0
 28 26  1  0  0  0  0
M  END
>  <MODEL>
7

>  <REMARK>
 VINA RESULT:      -6.8      2.757      5.963
  Name = 
  8 active torsions:
  status: ('A' for Active; 'I' for Inactive)
    1  A    between atoms: N_2  and  C_3
    2  A    between atoms: C_9  and  O_14
    3  A    between atoms: C_10  and  C_13
    4  A    between atoms: C_10  and  C_17
    5  A    between atoms: O_14  and  O_25
    6  A    between atoms: C_16  and  C_27
    7  A    between atoms: C_17  and  C_27
    8  A    between atoms: C_26  and  C_27
                            x       y       z     vdW  Elec       q    Type
                         _______ _______ _______ _____ _____    ______ ____

>  <TORSDO>
F 8

$$$$
=
 OpenBabel10272401513D

 28 30  0  0  1  0  0  0  0  0999 V2000
  189.0270  177.0700  142.5380 C   0  0  1  0  0  3  0  0  0  0  0  0
  190.6650  176.2430  139.4080 N   0  0  0  0  0  0  0  0  0  0  0  0
  189.4830  176.8630  141.1250 C   0  0  0  0  0  0  0  0  0  0  0  0
  189.4700  176.8700  138.8620 C   0  0  0  0  0  3  0  0  0  0  0  0
  190.5840  176.2810  140.8020 N   0  0  0  0  0  0  0  0  0  0  0  0
  188.7400  177.2470  140.0210 O   0  0  0  0  0  0  0  0  0  0  0  0
  190.0120  179.2500  142.4200 O   0  0  0  0  0  0  0  0  0  0  0  0
  189.7360  178.4220  144.5720 N   0  0  0  0  0  2  0  0  0  0  0  0
  189.6340  178.2950  143.1520 C   0  0  0  0  0  0  0  0  0  0  0  0
  189.2870  177.3840  145.4910 C   0  0  2  0  0  3  0  0  0  0  0  0
  188.4800  176.9030  148.1880 N   0  0  0  0  0  0  0  0  0  0  0  0
  187.8570  177.7070  145.9670 C   0  0  0  0  0  2  0  0  0  0  0  0
  191.4880  176.3720  146.1730 C   0  0  0  0  0  1  0  0  0  0  0  0
  190.3060  177.2030  146.6310 C   0  0  2  0  0  3  0  0  0  0  0  0
  189.6610  176.5460  147.8180 C   0  0  0  0  0  3  0  0  0  0  0  0
  187.7670  177.9410  147.4780 C   0  0  0  0  0  2  0  0  0  0  0  0
  187.5080  177.1020  142.6570 C   0  0  0  0  0  2  0  0  0  0  0  0
  186.9550  178.4660  142.2590 C   0  0  0  0  0  2  0  0  0  0  0  0
  185.2160  178.6150  144.0270 C   0  0  0  0  0  3  0  0  0  0  0  0
  184.4650  178.6630  141.7120 C   0  0  0  0  0  0  0  0  0  0  0  0
  182.8550  178.7170  143.5320 C   0  0  0  0  0  0  0  0  0  0  0  0
  185.5180  178.6010  142.6590 C   0  0  0  0  0  0  0  0  0  0  0  0
  183.1420  178.7130  142.1660 C   0  0  0  0  0  3  0  0  0  0  0  0
  181.1920  178.7720  144.0750 Cl  0  0  0  0  0  0  0  0  0  0  0  0
  183.8920  178.6760  144.4630 C   0  0  0  0  0  3  0  0  0  0  0  0
  184.6690  178.6820  140.3270 O   0  0  0  0  0  0  0  0  0  0  0  0
  183.5510  179.8420  138.8860 C   0  0  0  0  0  1  0  0  0  0  0  0
  184.7380  179.8150  139.6150 O   0  0  0  0  0  0  0  0  0  0  0  0
  1 17  1  6  0  0  0
  1  9  1  0  0  0  0
  2  5  1  0  0  0  0
  3  1  1  0  0  0  0
  4  2  2  0  0  0  0
  4  6  1  0  0  0  0
  5  3  2  0  0  0  0
  6  3  1  0  0  0  0
  7  9  2  0  0  0  0
  9  8  1  0  0  0  0
 10  8  1  6  0  0  0
 10 12  1  0  0  0  0
 10 14  1  0  0  0  0
 12 16  1  0  0  0  0
 14 13  1  6  0  0  0
 14 15  1  0  0  0  0
 15 11  2  0  0  0  0
 16 11  1  0  0  0  0
 18 17  1  0  0  0  0
 18 22  1  0  0  0  0
 19 25  1  0  0  0  0
 20 23  2  0  0  0  0
 20 22  1  0  0  0  0
 21 24  1  0  0  0  0
 21 25  2  0  0  0  0
 22 19  2  0  0  0  0
 23 21  1  0  0  0  0
 26 20  1  0  0  0  0
 27 28  1  0  0  0  0
 28 26  1  0  0  0  0
M  END
>  <MODEL>
8

>  <REMARK>
 VINA RESULT:      -6.8      3.098      6.909
  Name = 
  8 active torsions:
  status: ('A' for Active; 'I' for Inactive)
    1  A    between atoms: N_2  and  C_3
    2  A    between atoms: C_9  and  O_14
    3  A    between atoms: C_10  and  C_13
    4  A    between atoms: C_10  and  C_17
    5  A    between atoms: O_14  and  O_25
    6  A    between atoms: C_16  and  C_27
    7  A    between atoms: C_17  and  C_27
    8  A    between atoms: C_26  and  C_27
                            x       y       z     vdW  Elec       q    Type
                         _______ _______ _______ _____ _____    ______ ____

>  <TORSDO>
F 8

$$$$
=
 OpenBabel10272401513D

 28 30  0  0  1  0  0  0  0  0999 V2000
  184.2000  178.0980  140.2600 C   0  0  1  0  0  3  0  0  0  0  0  0
  180.9800  176.5400  139.6570 N   0  0  0  0  0  0  0  0  0  0  0  0
  182.7650  177.6850  140.1420 C   0  0  0  0  0  0  0  0  0  0  0  0
  180.5170  177.6980  140.4080 C   0  0  0  0  0  3  0  0  0  0  0  0
  182.3710  176.6140  139.5470 N   0  0  0  0  0  0  0  0  0  0  0  0
  181.7170  178.4000  140.6990 O   0  0  0  0  0  0  0  0  0  0  0  0
  183.9720  180.2520  139.2370 O   0  0  0  0  0  0  0  0  0  0  0  0
  185.6420  178.9180  138.3320 N   0  0  0  0  0  2  0  0  0  0  0  0
  184.5700  179.1430  139.2500 C   0  0  0  0  0  0  0  0  0  0  0  0
  186.4110  177.6810  138.3050 C   0  0  2  0  0  3  0  0  0  0  0  0
  188.5740  176.3530  136.9930 N   0  0  0  0  0  0  0  0  0  0  0  0
  187.8770  177.9820  138.6760 C   0  0  0  0  0  2  0  0  0  0  0  0
  184.9180  176.2250  136.8960 C   0  0  0  0  0  1  0  0  0  0  0  0
  186.2360  176.9720  136.9490 C   0  0  2  0  0  3  0  0  0  0  0  0
  187.3660  176.0130  136.7040 C   0  0  0  0  0  3  0  0  0  0  0  0
  188.8600  177.6590  137.5460 C   0  0  0  0  0  2  0  0  0  0  0  0
  184.5550  178.5600  141.6680 C   0  0  0  0  0  2  0  0  0  0  0  0
  186.0500  178.4190  141.9320 C   0  0  0  0  0  2  0  0  0  0  0  0
  185.3910  178.7580  144.3030 C   0  0  0  0  0  3  0  0  0  0  0  0
  187.5070  177.6300  143.8800 C   0  0  0  0  0  0  0  0  0  0  0  0
  186.7920  178.0960  146.1560 C   0  0  0  0  0  0  0  0  0  0  0  0
  186.3250  178.2440  143.3940 C   0  0  0  0  0  0  0  0  0  0  0  0
  187.7270  177.5720  145.2610 C   0  0  0  0  0  3  0  0  0  0  0  0
  187.0930  178.0180  147.8780 Cl  0  0  0  0  0  0  0  0  0  0  0  0
  185.6210  178.6820  145.6780 C   0  0  0  0  0  3  0  0  0  0  0  0
  188.4840  177.0650  143.0500 O   0  0  0  0  0  0  0  0  0  0  0  0
  190.2320  175.7970  142.9680 C   0  0  0  0  0  1  0  0  0  0  0  0
  188.8470  175.7780  143.1240 O   0  0  0  0  0  0  0  0  0  0  0  0
  1 17  1  1  0  0  0
  2  4  2  0  0  0  0
  3  1  1  0  0  0  0
  3  6  1  0  0  0  0
  4  6  1  0  0  0  0
  5  2  1  0  0  0  0
  5  3  2  0  0  0  0
  7  9  2  0  0  0  0
  8  9  1  0  0  0  0
  9  1  1  0  0  0  0
 10  8  1  6  0  0  0
 10 12  1  0  0  0  0
 11 16  1  0  0  0  0
 14 13  1  1  0  0  0
 14 10  1  0  0  0  0
 15 14  1  0  0  0  0
 15 11  2  0  0  0  0
 16 12  1  0  0  0  0
 17 18  1  0  0  0  0
 18 22  1  0  0  0  0
 19 25  1  0  0  0  0
 20 23  2  0  0  0  0
 21 24  1  0  0  0  0
 22 20  1  0  0  0  0
 22 19  2  0  0  0  0
 23 21  1  0  0  0  0
 25 21  2  0  0  0  0
 26 28  1  0  0  0  0
 26 20  1  0  0  0  0
 27 28  1  0  0  0  0
M  END
>  <MODEL>
9

>  <REMARK>
 VINA RESULT:      -6.8      2.440      3.601
  Name = 
  8 active torsions:
  status: ('A' for Active; 'I' for Inactive)
    1  A    between atoms: N_2  and  C_3
    2  A    between atoms: C_9  and  O_14
    3  A    between atoms: C_10  and  C_13
    4  A    between atoms: C_10  and  C_17
    5  A    between atoms: O_14  and  O_25
    6  A    between atoms: C_16  and  C_27
    7  A    between atoms: C_17  and  C_27
    8  A    between atoms: C_26  and  C_27
                            x       y       z     vdW  Elec       q    Type
                         _______ _______ _______ _____ _____    ______ ____

>  <TORSDO>
F 8

$$$$
