=
 OpenBabel10272401053D

 27 30  0  0  1  0  0  0  0  0999 V2000
  188.3860  177.9890  142.3510 C   0  0  2  0  0  3  0  0  0  0  0  0
  188.5870  177.9000  140.9040 N   0  0  0  0  0  0  0  0  0  0  0  0
  186.5740  178.8060  140.2070 O   0  0  0  0  0  0  0  0  0  0  0  0
  189.7980  177.1160  136.6420 C   0  0  0  0  0  3  0  0  0  0  0  0
  188.1240  177.8380  135.0900 F   0  0  0  0  0  0  0  0  0  0  0  0
  189.6510  177.3590  140.3150 N   0  0  0  0  0  2  0  0  0  0  0  0
  187.7220  178.1470  137.4290 C   0  0  0  0  0  0  0  0  0  0  0  0
  186.5110  178.7100  137.1920 F   0  0  0  0  0  0  0  0  0  0  0  0
  188.2030  177.9840  138.7260 C   0  0  0  0  0  0  0  0  0  0  0  0
  188.5410  177.7040  136.3730 C   0  0  0  0  0  0  0  0  0  0  0  0
  189.4240  177.4140  138.9870 C   0  0  0  0  0  0  0  0  0  0  0  0
  187.6920  178.2780  139.9650 C   0  0  0  0  0  0  0  0  0  0  0  0
  190.2550  176.9630  137.9650 C   0  0  0  0  0  3  0  0  0  0  0  0
  191.9360  177.2050  144.6560 C   0  0  0  0  0  3  0  0  0  0  0  0
  189.6260  177.6900  143.1450 C   0  0  0  0  0  0  0  0  0  0  0  0
  190.0190  176.3750  143.4350 C   0  0  0  0  0  3  0  0  0  0  0  0
  191.1710  176.1330  144.1880 C   0  0  0  0  0  3  0  0  0  0  0  0
  191.5480  178.5170  144.3730 C   0  0  0  0  0  3  0  0  0  0  0  0
  190.3950  178.7580  143.6200 C   0  0  0  0  0  3  0  0  0  0  0  0
  187.1290  177.2490  142.8310 C   0  0  0  0  0  2  0  0  0  0  0  0
  185.7270  178.7280  147.0230 C   0  0  0  0  0  2  0  0  0  0  0  0
  184.4700  178.4210  146.2450 C   0  0  0  0  0  2  0  0  0  0  0  0
  186.5120  177.8290  144.0630 C   0  0  0  0  0  0  0  0  0  0  0  0
  186.8720  177.8720  146.5950 C   0  0  0  0  0  3  0  0  0  0  0  0
  184.5480  179.1940  144.9500 C   0  0  0  0  0  2  0  0  0  0  0  0
  185.3550  178.4890  143.9080 C   0  0  0  0  0  3  0  0  0  0  0  0
  187.1960  177.5260  145.3440 C   0  0  0  0  0  3  0  0  0  0  0  0
  1 20  1  1  0  0  0
  1 15  1  0  0  0  0
  2  1  1  0  0  0  0
  4 13  1  0  0  0  0
  5 10  1  0  0  0  0
  6  2  1  0  0  0  0
  7  9  2  0  0  0  0
  8  7  1  0  0  0  0
  9 11  1  0  0  0  0
  9 12  1  0  0  0  0
 10  4  2  0  0  0  0
 10  7  1  0  0  0  0
 11  6  1  0  0  0  0
 12  3  2  0  0  0  0
 12  2  1  0  0  0  0
 13 11  2  0  0  0  0
 15 16  2  0  0  0  0
 15 19  1  0  0  0  0
 16 17  1  0  0  0  0
 17 14  2  0  0  0  0
 18 14  1  0  0  0  0
 19 18  2  0  0  0  0
 20 23  1  0  0  0  0
 22 21  1  0  0  0  0
 23 27  1  0  0  0  0
 24 21  1  0  0  0  0
 25 22  1  0  0  0  0
 26 23  2  0  0  0  0
 26 25  1  0  0  0  0
 27 24  2  0  0  0  0
M  END
>  <MODEL>
1

>  <REMARK>
 VINA RESULT:      -9.5      0.000      0.000
  Name = 
  4 active torsions:
  status: ('A' for Active; 'I' for Inactive)
    1  A    between atoms: C_1  and  C_15
    2  A    between atoms: C_1  and  C_18
    3  A    between atoms: N_2  and  C_15
    4  A    between atoms: C_9  and  C_15
                            x       y       z     vdW  Elec       q    Type
                         _______ _______ _______ _____ _____    ______ ____

>  <TORSDO>
F 4

$$$$
=
 OpenBabel10272401053D

 27 30  0  0  1  0  0  0  0  0999 V2000
  188.5090  177.8600  142.3890 C   0  0  2  0  0  3  0  0  0  0  0  0
  188.8200  177.7590  140.9610 N   0  0  0  0  0  0  0  0  0  0  0  0
  186.9340  178.7970  140.1110 O   0  0  0  0  0  0  0  0  0  0  0  0
  190.3180  176.9030  136.8060 C   0  0  0  0  0  3  0  0  0  0  0  0
  188.8270  177.7360  135.1290 F   0  0  0  0  0  0  0  0  0  0  0  0
  189.8900  177.1510  140.4570 N   0  0  0  0  0  2  0  0  0  0  0  0
  188.2580  178.0670  137.4300 C   0  0  0  0  0  0  0  0  0  0  0  0
  187.1090  178.7090  137.1000 F   0  0  0  0  0  0  0  0  0  0  0  0
  188.6210  177.8720  138.7610 C   0  0  0  0  0  0  0  0  0  0  0  0
  189.1280  177.5730  136.4400 C   0  0  0  0  0  0  0  0  0  0  0  0
  189.7760  177.2220  139.1160 C   0  0  0  0  0  0  0  0  0  0  0  0
  188.0310  178.1980  139.9560 C   0  0  0  0  0  0  0  0  0  0  0  0
  190.6560  176.7190  138.1610 C   0  0  0  0  0  3  0  0  0  0  0  0
  192.0060  177.7440  144.8960 C   0  0  0  0  0  3  0  0  0  0  0  0
  189.7280  177.8470  143.2670 C   0  0  0  0  0  0  0  0  0  0  0  0
  190.5170  178.9920  143.4530 C   0  0  0  0  0  3  0  0  0  0  0  0
  191.6520  178.9410  144.2670 C   0  0  0  0  0  3  0  0  0  0  0  0
  191.2250  176.6000  144.7110 C   0  0  0  0  0  3  0  0  0  0  0  0
  190.0900  176.6520  143.8970 C   0  0  0  0  0  3  0  0  0  0  0  0
  187.3950  176.9000  142.8310 C   0  0  0  0  0  2  0  0  0  0  0  0
  184.0530  178.9630  145.3410 C   0  0  0  0  0  2  0  0  0  0  0  0
  185.3450  179.2050  146.0840 C   0  0  0  0  0  2  0  0  0  0  0  0
  186.4380  177.4870  143.8180 C   0  0  0  0  0  0  0  0  0  0  0  0
  184.2690  178.8410  143.8690 C   0  0  0  0  0  3  0  0  0  0  0  0
  185.9930  177.8590  146.3020 C   0  0  0  0  0  2  0  0  0  0  0  0
  186.7730  177.3970  145.1130 C   0  0  0  0  0  3  0  0  0  0  0  0
  185.2660  178.1980  143.2510 C   0  0  0  0  0  3  0  0  0  0  0  0
  1 20  1  1  0  0  0
  1 15  1  0  0  0  0
  2  1  1  0  0  0  0
  4 13  1  0  0  0  0
  5 10  1  0  0  0  0
  6  2  1  0  0  0  0
  7  9  2  0  0  0  0
  8  7  1  0  0  0  0
  9 11  1  0  0  0  0
  9 12  1  0  0  0  0
 10  4  2  0  0  0  0
 10  7  1  0  0  0  0
 11  6  1  0  0  0  0
 12  3  2  0  0  0  0
 12  2  1  0  0  0  0
 13 11  2  0  0  0  0
 15 16  2  0  0  0  0
 15 19  1  0  0  0  0
 16 17  1  0  0  0  0
 17 14  2  0  0  0  0
 18 14  1  0  0  0  0
 19 18  2  0  0  0  0
 20 23  1  0  0  0  0
 21 22  1  0  0  0  0
 22 25  1  0  0  0  0
 23 26  2  0  0  0  0
 24 21  1  0  0  0  0
 26 25  1  0  0  0  0
 27 23  1  0  0  0  0
 27 24  2  0  0  0  0
M  END
>  <MODEL>
2

>  <REMARK>
 VINA RESULT:      -9.3      0.593      1.594
  Name = 
  4 active torsions:
  status: ('A' for Active; 'I' for Inactive)
    1  A    between atoms: C_1  and  C_15
    2  A    between atoms: C_1  and  C_18
    3  A    between atoms: N_2  and  C_15
    4  A    between atoms: C_9  and  C_15
                            x       y       z     vdW  Elec       q    Type
                         _______ _______ _______ _____ _____    ______ ____

>  <TORSDO>
F 4

$$$$
=
 OpenBabel10272401053D

 27 30  0  0  1  0  0  0  0  0999 V2000
  188.4180  178.0510  142.4650 C   0  0  2  0  0  3  0  0  0  0  0  0
  188.7540  177.8760  141.0510 N   0  0  0  0  0  0  0  0  0  0  0  0
  190.2430  176.1150  141.2520 O   0  0  0  0  0  0  0  0  0  0  0  0
  189.4630  178.0700  136.6120 C   0  0  0  0  0  3  0  0  0  0  0  0
  191.0260  176.4100  135.8830 F   0  0  0  0  0  0  0  0  0  0  0  0
  188.3010  178.6410  140.0610 N   0  0  0  0  0  2  0  0  0  0  0  0
  190.4740  176.5150  138.2100 C   0  0  0  0  0  0  0  0  0  0  0  0
  191.3030  175.4820  138.4990 F   0  0  0  0  0  0  0  0  0  0  0  0
  189.7320  177.1480  139.2040 C   0  0  0  0  0  0  0  0  0  0  0  0
  190.3300  176.9880  136.8910 C   0  0  0  0  0  0  0  0  0  0  0  0
  188.8900  178.1970  138.9320 C   0  0  0  0  0  0  0  0  0  0  0  0
  189.6280  176.9700  140.5600 C   0  0  0  0  0  0  0  0  0  0  0  0
  188.7280  178.6910  137.6410 C   0  0  0  0  0  3  0  0  0  0  0  0
  191.8240  177.7650  145.0810 C   0  0  0  0  0  3  0  0  0  0  0  0
  189.6110  177.9780  143.3750 C   0  0  0  0  0  0  0  0  0  0  0  0
  190.6330  178.9380  143.3320 C   0  0  0  0  0  3  0  0  0  0  0  0
  191.7360  178.8320  144.1840 C   0  0  0  0  0  3  0  0  0  0  0  0
  190.8100  176.8040  145.1260 C   0  0  0  0  0  3  0  0  0  0  0  0
  189.7080  176.9100  144.2740 C   0  0  0  0  0  3  0  0  0  0  0  0
  187.2250  177.1930  142.9100 C   0  0  0  0  0  2  0  0  0  0  0  0
  184.6310  178.9700  146.3510 C   0  0  0  0  0  2  0  0  0  0  0  0
  183.7040  178.8010  145.1710 C   0  0  0  0  0  2  0  0  0  0  0  0
  186.2920  177.8850  143.8500 C   0  0  0  0  0  0  0  0  0  0  0  0
  185.7320  177.9620  146.3450 C   0  0  0  0  0  3  0  0  0  0  0  0
  184.3360  179.5160  144.0010 C   0  0  0  0  0  2  0  0  0  0  0  0
  185.3620  178.6820  143.3040 C   0  0  0  0  0  3  0  0  0  0  0  0
  186.4310  177.5380  145.2860 C   0  0  0  0  0  3  0  0  0  0  0  0
  1 20  1  1  0  0  0
  1 15  1  0  0  0  0
  2  1  1  0  0  0  0
  4 10  2  0  0  0  0
  4 13  1  0  0  0  0
  5 10  1  0  0  0  0
  6  2  1  0  0  0  0
  7  8  1  0  0  0  0
  7  9  2  0  0  0  0
  9 12  1  0  0  0  0
 10  7  1  0  0  0  0
 11  9  1  0  0  0  0
 11  6  1  0  0  0  0
 12  2  1  0  0  0  0
 12  3  2  0  0  0  0
 13 11  2  0  0  0  0
 14 18  1  0  0  0  0
 15 19  1  0  0  0  0
 16 15  2  0  0  0  0
 16 17  1  0  0  0  0
 17 14  2  0  0  0  0
 19 18  2  0  0  0  0
 20 23  1  0  0  0  0
 22 21  1  0  0  0  0
 23 27  1  0  0  0  0
 24 21  1  0  0  0  0
 25 22  1  0  0  0  0
 26 23  2  0  0  0  0
 26 25  1  0  0  0  0
 27 24  2  0  0  0  0
M  END
>  <MODEL>
3

>  <REMARK>
 VINA RESULT:      -9.2      1.685      2.224
  Name = 
  4 active torsions:
  status: ('A' for Active; 'I' for Inactive)
    1  A    between atoms: C_1  and  C_15
    2  A    between atoms: C_1  and  C_18
    3  A    between atoms: N_2  and  C_15
    4  A    between atoms: C_9  and  C_15
                            x       y       z     vdW  Elec       q    Type
                         _______ _______ _______ _____ _____    ______ ____

>  <TORSDO>
F 4

$$$$
=
 OpenBabel10272401053D

 27 30  0  0  1  0  0  0  0  0999 V2000
  188.0610  177.6360  143.0450 C   0  0  2  0  0  3  0  0  0  0  0  0
  188.4510  177.6190  141.6340 N   0  0  0  0  0  0  0  0  0  0  0  0
  190.0530  175.9510  141.7260 O   0  0  0  0  0  0  0  0  0  0  0  0
  189.2770  178.2780  137.2600 C   0  0  0  0  0  3  0  0  0  0  0  0
  190.9740  176.8020  136.4390 F   0  0  0  0  0  0  0  0  0  0  0  0
  187.9750  178.4420  140.7030 N   0  0  0  0  0  2  0  0  0  0  0  0
  190.3460  176.6500  138.7440 C   0  0  0  0  0  0  0  0  0  0  0  0
  191.2370  175.6520  138.9670 F   0  0  0  0  0  0  0  0  0  0  0  0
  189.5320  177.1360  139.7640 C   0  0  0  0  0  0  0  0  0  0  0  0
  190.2090  177.2350  137.4700 C   0  0  0  0  0  0  0  0  0  0  0  0
  188.6270  178.1470  139.5600 C   0  0  0  0  0  0  0  0  0  0  0  0
  189.4000  176.8240  141.0940 C   0  0  0  0  0  0  0  0  0  0  0  0
  188.4700  178.7480  138.3140 C   0  0  0  0  0  3  0  0  0  0  0  0
  183.9390  178.6710  143.7310 C   0  0  0  0  0  3  0  0  0  0  0  0
  186.6160  177.9860  143.2600 C   0  0  0  0  0  0  0  0  0  0  0  0
  185.7160  178.1000  142.1900 C   0  0  0  0  0  3  0  0  0  0  0  0
  184.3810  178.4410  142.4250 C   0  0  0  0  0  3  0  0  0  0  0  0
  184.8330  178.5620  144.8000 C   0  0  0  0  0  3  0  0  0  0  0  0
  186.1670  178.2220  144.5640 C   0  0  0  0  0  3  0  0  0  0  0  0
  189.0430  178.4160  143.9310 C   0  0  0  0  0  2  0  0  0  0  0  0
  190.6680  175.9990  147.5700 C   0  0  0  0  0  2  0  0  0  0  0  0
  191.8790  176.5800  146.8790 C   0  0  0  0  0  2  0  0  0  0  0  0
  189.7340  177.5800  144.9590 C   0  0  0  0  0  0  0  0  0  0  0  0
  189.4600  176.8590  147.3980 C   0  0  0  0  0  3  0  0  0  0  0  0
  191.8050  176.1660  145.4290 C   0  0  0  0  0  2  0  0  0  0  0  0
  190.9230  177.0610  144.6190 C   0  0  0  0  0  3  0  0  0  0  0  0
  189.0750  177.4940  146.2860 C   0  0  0  0  0  3  0  0  0  0  0  0
  1 15  1  0  0  0  0
  1 20  1  1  0  0  0
  2  1  1  0  0  0  0
  4 10  2  0  0  0  0
  4 13  1  0  0  0  0
  5 10  1  0  0  0  0
  6  2  1  0  0  0  0
  7  8  1  0  0  0  0
  7  9  2  0  0  0  0
  9 12  1  0  0  0  0
 10  7  1  0  0  0  0
 11  9  1  0  0  0  0
 11  6  1  0  0  0  0
 12  2  1  0  0  0  0
 12  3  2  0  0  0  0
 13 11  2  0  0  0  0
 14 18  1  0  0  0  0
 15 19  1  0  0  0  0
 16 17  1  0  0  0  0
 16 15  2  0  0  0  0
 17 14  2  0  0  0  0
 19 18  2  0  0  0  0
 20 23  1  0  0  0  0
 22 21  1  0  0  0  0
 23 27  1  0  0  0  0
 24 21  1  0  0  0  0
 25 22  1  0  0  0  0
 26 23  2  0  0  0  0
 26 25  1  0  0  0  0
 27 24  2  0  0  0  0
M  END
>  <MODEL>
4

>  <REMARK>
 VINA RESULT:      -8.8      2.121      4.487
  Name = 
  4 active torsions:
  status: ('A' for Active; 'I' for Inactive)
    1  A    between atoms: C_1  and  C_15
    2  A    between atoms: C_1  and  C_18
    3  A    between atoms: N_2  and  C_15
    4  A    between atoms: C_9  and  C_15
                            x       y       z     vdW  Elec       q    Type
                         _______ _______ _______ _____ _____    ______ ____

>  <TORSDO>
F 4

$$$$
=
 OpenBabel10272401053D

 27 30  0  0  1  0  0  0  0  0999 V2000
  187.7450  177.7750  142.7920 C   0  0  2  0  0  3  0  0  0  0  0  0
  186.3200  178.1000  142.7130 N   0  0  0  0  0  0  0  0  0  0  0  0
  185.9300  178.5400  144.9510 O   0  0  0  0  0  0  0  0  0  0  0  0
  181.9740  178.7500  141.7470 C   0  0  0  0  0  3  0  0  0  0  0  0
  180.7020  179.3230  143.6920 F   0  0  0  0  0  0  0  0  0  0  0  0
  185.5870  178.0420  141.6040 N   0  0  0  0  0  2  0  0  0  0  0  0
  183.0500  178.9280  143.9380 C   0  0  0  0  0  0  0  0  0  0  0  0
  182.9950  179.1650  145.2730 F   0  0  0  0  0  0  0  0  0  0  0  0
  184.2480  178.5980  143.3100 C   0  0  0  0  0  0  0  0  0  0  0  0
  181.8960  179.0050  143.1350 C   0  0  0  0  0  0  0  0  0  0  0  0
  184.3240  178.3510  141.9620 C   0  0  0  0  0  0  0  0  0  0  0  0
  185.5330  178.4260  143.7610 C   0  0  0  0  0  0  0  0  0  0  0  0
  183.2010  178.4160  141.1420 C   0  0  0  0  0  3  0  0  0  0  0  0
  189.7320  177.6410  138.9750 C   0  0  0  0  0  3  0  0  0  0  0  0
  188.4270  177.7520  141.4530 C   0  0  0  0  0  0  0  0  0  0  0  0
  187.9240  178.4670  140.3550 C   0  0  0  0  0  3  0  0  0  0  0  0
  188.5760  178.4120  139.1200 C   0  0  0  0  0  3  0  0  0  0  0  0
  190.2350  176.9230  140.0650 C   0  0  0  0  0  3  0  0  0  0  0  0
  189.5820  176.9780  141.2990 C   0  0  0  0  0  3  0  0  0  0  0  0
  188.0360  176.5530  143.6750 C   0  0  0  0  0  2  0  0  0  0  0  0
  191.5990  177.0820  146.6320 C   0  0  0  0  0  2  0  0  0  0  0  0
  190.4180  176.6560  147.4710 C   0  0  0  0  0  2  0  0  0  0  0  0
  189.0240  176.8090  144.7660 C   0  0  0  0  0  0  0  0  0  0  0  0
  191.5220  176.5400  145.2430 C   0  0  0  0  0  3  0  0  0  0  0  0
  189.2900  177.6150  147.1720 C   0  0  0  0  0  2  0  0  0  0  0  0
  188.5350  177.2460  145.9360 C   0  0  0  0  0  3  0  0  0  0  0  0
  190.4340  176.4560  144.4700 C   0  0  0  0  0  3  0  0  0  0  0  0
  1 20  1  6  0  0  0
  2  1  1  0  0  0  0
  2 12  1  0  0  0  0
  4 10  1  0  0  0  0
  6 11  1  0  0  0  0
  6  2  1  0  0  0  0
  7  8  1  0  0  0  0
  9 12  1  0  0  0  0
  9  7  1  0  0  0  0
 10  5  1  0  0  0  0
 10  7  2  0  0  0  0
 11  9  2  0  0  0  0
 12  3  2  0  0  0  0
 13  4  2  0  0  0  0
 13 11  1  0  0  0  0
 14 17  2  0  0  0  0
 14 18  1  0  0  0  0
 15  1  1  0  0  0  0
 16 15  2  0  0  0  0
 17 16  1  0  0  0  0
 18 19  2  0  0  0  0
 19 15  1  0  0  0  0
 20 23  1  0  0  0  0
 21 22  1  0  0  0  0
 23 26  2  0  0  0  0
 24 21  1  0  0  0  0
 25 22  1  0  0  0  0
 26 25  1  0  0  0  0
 27 23  1  0  0  0  0
 27 24  2  0  0  0  0
M  END
>  <MODEL>
5

>  <REMARK>
 VINA RESULT:      -8.6      3.461      5.963
  Name = 
  4 active torsions:
  status: ('A' for Active; 'I' for Inactive)
    1  A    between atoms: C_1  and  C_15
    2  A    between atoms: C_1  and  C_18
    3  A    between atoms: N_2  and  C_15
    4  A    between atoms: C_9  and  C_15
                            x       y       z     vdW  Elec       q    Type
                         _______ _______ _______ _____ _____    ______ ____

>  <TORSDO>
F 4

$$$$
=
 OpenBabel10272401053D

 27 30  0  0  1  0  0  0  0  0999 V2000
  187.5820  178.0780  142.9020 C   0  0  2  0  0  3  0  0  0  0  0  0
  186.3900  178.4140  142.1210 N   0  0  0  0  0  0  0  0  0  0  0  0
  184.7820  178.0390  143.7430 O   0  0  0  0  0  0  0  0  0  0  0  0
  183.2140  179.3750  139.0830 C   0  0  0  0  0  3  0  0  0  0  0  0
  181.0130  179.2300  140.0140 F   0  0  0  0  0  0  0  0  0  0  0  0
  186.3950  178.7520  140.8340 N   0  0  0  0  0  2  0  0  0  0  0  0
  182.8860  178.7670  141.4310 C   0  0  0  0  0  0  0  0  0  0  0  0
  182.0790  178.5190  142.4920 F   0  0  0  0  0  0  0  0  0  0  0  0
  184.2720  178.6760  141.5390 C   0  0  0  0  0  0  0  0  0  0  0  0
  182.3540  179.1250  140.1770 C   0  0  0  0  0  0  0  0  0  0  0  0
  185.1050  178.9190  140.4760 C   0  0  0  0  0  0  0  0  0  0  0  0
  185.1180  178.3520  142.5690 C   0  0  0  0  0  0  0  0  0  0  0  0
  184.6120  179.2720  139.2240 C   0  0  0  0  0  3  0  0  0  0  0  0
  191.0020  177.2890  140.4100 C   0  0  0  0  0  3  0  0  0  0  0  0
  188.7910  177.7970  142.0550 C   0  0  0  0  0  0  0  0  0  0  0  0
  190.0920  177.8750  142.5740 C   0  0  0  0  0  3  0  0  0  0  0  0
  191.1940  177.6210  141.7540 C   0  0  0  0  0  3  0  0  0  0  0  0
  189.7080  177.2140  139.8870 C   0  0  0  0  0  3  0  0  0  0  0  0
  188.6060  177.4680  140.7080 C   0  0  0  0  0  3  0  0  0  0  0  0
  187.3110  177.0300  143.9920 C   0  0  0  0  0  2  0  0  0  0  0  0
  189.2850  178.0360  148.0930 C   0  0  0  0  0  2  0  0  0  0  0  0
  187.8560  177.6520  148.3980 C   0  0  0  0  0  2  0  0  0  0  0  0
  187.7440  177.4470  145.3610 C   0  0  0  0  0  0  0  0  0  0  0  0
  189.8020  177.3430  146.8760 C   0  0  0  0  0  3  0  0  0  0  0  0
  186.9690  178.5220  147.5400 C   0  0  0  0  0  2  0  0  0  0  0  0
  186.8070  177.9880  146.1540 C   0  0  0  0  0  3  0  0  0  0  0  0
  189.1440  177.1270  145.7310 C   0  0  0  0  0  3  0  0  0  0  0  0
  1 20  1  6  0  0  0
  2 12  1  0  0  0  0
  2  1  1  0  0  0  0
  4 13  2  0  0  0  0
  4 10  1  0  0  0  0
  5 10  1  0  0  0  0
  6  2  1  0  0  0  0
  7  9  1  0  0  0  0
  7  8  1  0  0  0  0
  9 12  1  0  0  0  0
 10  7  2  0  0  0  0
 11  6  1  0  0  0  0
 11  9  2  0  0  0  0
 12  3  2  0  0  0  0
 13 11  1  0  0  0  0
 14 17  1  0  0  0  0
 15 16  1  0  0  0  0
 15  1  1  0  0  0  0
 17 16  2  0  0  0  0
 18 14  2  0  0  0  0
 18 19  1  0  0  0  0
 19 15  2  0  0  0  0
 20 23  1  0  0  0  0
 21 22  1  0  0  0  0
 23 27  1  0  0  0  0
 23 26  2  0  0  0  0
 24 21  1  0  0  0  0
 25 22  1  0  0  0  0
 26 25  1  0  0  0  0
 27 24  2  0  0  0  0
M  END
>  <MODEL>
6

>  <REMARK>
 VINA RESULT:      -8.3      2.993      4.509
  Name = 
  4 active torsions:
  status: ('A' for Active; 'I' for Inactive)
    1  A    between atoms: C_1  and  C_15
    2  A    between atoms: C_1  and  C_18
    3  A    between atoms: N_2  and  C_15
    4  A    between atoms: C_9  and  C_15
                            x       y       z     vdW  Elec       q    Type
                         _______ _______ _______ _____ _____    ______ ____

>  <TORSDO>
F 4

$$$$
=
 OpenBabel10272401053D

 27 30  0  0  1  0  0  0  0  0999 V2000
  186.7490  177.8260  143.0560 C   0  0  2  0  0  3  0  0  0  0  0  0
  185.5520  178.1520  142.2780 N   0  0  0  0  0  0  0  0  0  0  0  0
  186.5750  178.8340  140.3170 O   0  0  0  0  0  0  0  0  0  0  0  0
  181.4960  179.1390  140.5990 C   0  0  0  0  0  3  0  0  0  0  0  0
  181.6360  179.9820  138.3630 F   0  0  0  0  0  0  0  0  0  0  0  0
  184.3050  178.0870  142.7380 N   0  0  0  0  0  2  0  0  0  0  0  0
  183.6630  179.3780  139.4840 C   0  0  0  0  0  0  0  0  0  0  0  0
  184.4140  179.7270  138.4100 F   0  0  0  0  0  0  0  0  0  0  0  0
  184.2480  178.8800  140.6460 C   0  0  0  0  0  0  0  0  0  0  0  0
  182.2600  179.5050  139.4670 C   0  0  0  0  0  0  0  0  0  0  0  0
  183.5060  178.5250  141.7440 C   0  0  0  0  0  0  0  0  0  0  0  0
  185.5460  178.6360  141.0180 C   0  0  0  0  0  0  0  0  0  0  0  0
  182.1190  178.6410  141.7600 C   0  0  0  0  0  3  0  0  0  0  0  0
  186.3440  178.4540  147.2950 C   0  0  0  0  0  3  0  0  0  0  0  0
  186.5820  178.0560  144.5310 C   0  0  0  0  0  0  0  0  0  0  0  0
  185.6700  178.9950  145.0350 C   0  0  0  0  0  3  0  0  0  0  0  0
  185.5500  179.1920  146.4130 C   0  0  0  0  0  3  0  0  0  0  0  0
  187.2570  177.5200  146.7990 C   0  0  0  0  0  3  0  0  0  0  0  0
  187.3760  177.3230  145.4200 C   0  0  0  0  0  3  0  0  0  0  0  0
  188.0330  178.4210  142.4610 C   0  0  0  0  0  2  0  0  0  0  0  0
  191.6790  175.8490  143.8090 C   0  0  0  0  0  2  0  0  0  0  0  0
  191.4710  176.8810  144.8910 C   0  0  0  0  0  2  0  0  0  0  0  0
  189.2910  177.7920  142.9690 C   0  0  0  0  0  0  0  0  0  0  0  0
  190.4020  175.4940  143.1230 C   0  0  0  0  0  3  0  0  0  0  0  0
  191.4680  178.2350  144.2210 C   0  0  0  0  0  2  0  0  0  0  0  0
  190.1360  178.5860  143.6420 C   0  0  0  0  0  3  0  0  0  0  0  0
  189.4230  176.3290  142.7590 C   0  0  0  0  0  3  0  0  0  0  0  0
  1 20  1  6  0  0  0
  1 15  1  0  0  0  0
  2  6  1  0  0  0  0
  2  1  1  0  0  0  0
  3 12  2  0  0  0  0
  4 13  1  0  0  0  0
  5 10  1  0  0  0  0
  7  9  2  0  0  0  0
  8  7  1  0  0  0  0
  9 12  1  0  0  0  0
  9 11  1  0  0  0  0
 10  7  1  0  0  0  0
 10  4  2  0  0  0  0
 11 13  2  0  0  0  0
 11  6  1  0  0  0  0
 12  2  1  0  0  0  0
 15 16  2  0  0  0  0
 15 19  1  0  0  0  0
 16 17  1  0  0  0  0
 17 14  2  0  0  0  0
 18 14  1  0  0  0  0
 19 18  2  0  0  0  0
 20 23  1  0  0  0  0
 21 22  1  0  0  0  0
 23 26  2  0  0  0  0
 24 21  1  0  0  0  0
 25 22  1  0  0  0  0
 26 25  1  0  0  0  0
 27 23  1  0  0  0  0
 27 24  2  0  0  0  0
M  END
>  <MODEL>
7

>  <REMARK>
 VINA RESULT:      -8.3      2.865      5.542
  Name = 
  4 active torsions:
  status: ('A' for Active; 'I' for Inactive)
    1  A    between atoms: C_1  and  C_15
    2  A    between atoms: C_1  and  C_18
    3  A    between atoms: N_2  and  C_15
    4  A    between atoms: C_9  and  C_15
                            x       y       z     vdW  Elec       q    Type
                         _______ _______ _______ _____ _____    ______ ____

>  <TORSDO>
F 4

$$$$
=
 OpenBabel10272401053D

 27 30  0  0  1  0  0  0  0  0999 V2000
  188.3040  177.5700  141.9740 C   0  0  2  0  0  3  0  0  0  0  0  0
  187.0780  177.8330  142.7300 N   0  0  0  0  0  0  0  0  0  0  0  0
  185.6310  178.1770  140.9560 O   0  0  0  0  0  0  0  0  0  0  0  0
  183.8050  178.7480  145.6790 C   0  0  0  0  0  3  0  0  0  0  0  0
  181.7340  179.2520  144.5880 F   0  0  0  0  0  0  0  0  0  0  0  0
  187.0000  177.8920  144.0570 N   0  0  0  0  0  2  0  0  0  0  0  0
  183.6390  178.7250  143.2370 C   0  0  0  0  0  0  0  0  0  0  0  0
  182.9260  178.8810  142.0930 F   0  0  0  0  0  0  0  0  0  0  0  0
  184.9860  178.3750  143.2080 C   0  0  0  0  0  0  0  0  0  0  0  0
  183.0430  178.9110  144.4990 C   0  0  0  0  0  0  0  0  0  0  0  0
  185.7250  178.2160  144.3530 C   0  0  0  0  0  0  0  0  0  0  0  0
  185.8750  178.1290  142.1920 C   0  0  0  0  0  0  0  0  0  0  0  0
  185.1680  178.3960  145.6160 C   0  0  0  0  0  3  0  0  0  0  0  0
  191.7320  176.7100  144.4310 C   0  0  0  0  0  3  0  0  0  0  0  0
  189.4940  177.2930  142.8460 C   0  0  0  0  0  0  0  0  0  0  0  0
  190.1070  178.3020  143.6040 C   0  0  0  0  0  3  0  0  0  0  0  0
  191.2230  178.0110  144.3940 C   0  0  0  0  0  3  0  0  0  0  0  0
  191.1280  175.7020  143.6750 C   0  0  0  0  0  3  0  0  0  0  0  0
  190.0130  175.9940  142.8840 C   0  0  0  0  0  3  0  0  0  0  0  0
  188.5560  178.5970  140.8600 C   0  0  0  0  0  2  0  0  0  0  0  0
  190.3000  176.5940  137.0300 C   0  0  0  0  0  2  0  0  0  0  0  0
  189.4260  177.7280  136.5490 C   0  0  0  0  0  2  0  0  0  0  0  0
  188.9100  177.9920  139.5400 C   0  0  0  0  0  0  0  0  0  0  0  0
  190.8920  176.8750  138.3710 C   0  0  0  0  0  3  0  0  0  0  0  0
  188.0650  177.5390  137.1760 C   0  0  0  0  0  2  0  0  0  0  0  0
  187.9920  178.0830  138.5670 C   0  0  0  0  0  3  0  0  0  0  0  0
  190.2820  177.4430  139.4180 C   0  0  0  0  0  3  0  0  0  0  0  0
  1 20  1  1  0  0  0
  1  2  1  0  0  0  0
  1 15  1  0  0  0  0
  2  6  1  0  0  0  0
  3 12  2  0  0  0  0
  6 11  1  0  0  0  0
  7 10  1  0  0  0  0
  8  7  1  0  0  0  0
  9  7  2  0  0  0  0
  9 11  1  0  0  0  0
 10  5  1  0  0  0  0
 10  4  2  0  0  0  0
 11 13  2  0  0  0  0
 12  2  1  0  0  0  0
 12  9  1  0  0  0  0
 13  4  1  0  0  0  0
 15 19  2  0  0  0  0
 15 16  1  0  0  0  0
 16 17  2  0  0  0  0
 17 14  1  0  0  0  0
 18 14  2  0  0  0  0
 19 18  1  0  0  0  0
 21 24  1  0  0  0  0
 22 21  1  0  0  0  0
 22 25  1  0  0  0  0
 23 20  1  0  0  0  0
 24 27  2  0  0  0  0
 25 26  1  0  0  0  0
 26 23  2  0  0  0  0
 27 23  1  0  0  0  0
M  END
>  <MODEL>
8

>  <REMARK>
 VINA RESULT:      -8.2      2.416      6.611
  Name = 
  4 active torsions:
  status: ('A' for Active; 'I' for Inactive)
    1  A    between atoms: C_1  and  C_15
    2  A    between atoms: C_1  and  C_18
    3  A    between atoms: N_2  and  C_15
    4  A    between atoms: C_9  and  C_15
                            x       y       z     vdW  Elec       q    Type
                         _______ _______ _______ _____ _____    ______ ____

>  <TORSDO>
F 4

$$$$
=
 OpenBabel10272401053D

 27 30  0  0  1  0  0  0  0  0999 V2000
  187.1270  177.9110  142.1000 C   0  0  2  0  0  3  0  0  0  0  0  0
  187.4930  177.8270  143.5150 N   0  0  0  0  0  0  0  0  0  0  0  0
  185.3930  178.1140  144.4450 O   0  0  0  0  0  0  0  0  0  0  0  0
  189.3700  177.6870  147.6020 C   0  0  0  0  0  3  0  0  0  0  0  0
  187.7420  177.9170  149.3420 F   0  0  0  0  0  0  0  0  0  0  0  0
  188.7350  177.6920  143.9730 N   0  0  0  0  0  2  0  0  0  0  0  0
  186.9970  177.9560  147.0670 C   0  0  0  0  0  0  0  0  0  0  0  0
  185.7050  178.1200  147.4470 F   0  0  0  0  0  0  0  0  0  0  0  0
  187.3530  177.8820  145.7230 C   0  0  0  0  0  0  0  0  0  0  0  0
  188.0290  177.8530  148.0190 C   0  0  0  0  0  0  0  0  0  0  0  0
  188.6530  177.7200  145.3180 C   0  0  0  0  0  0  0  0  0  0  0  0
  186.6380  177.9520  144.5530 C   0  0  0  0  0  0  0  0  0  0  0  0
  189.6980  177.6190  146.2330 C   0  0  0  0  0  3  0  0  0  0  0  0
  190.4440  177.4080  139.4030 C   0  0  0  0  0  3  0  0  0  0  0  0
  188.2890  177.7100  141.1700 C   0  0  0  0  0  0  0  0  0  0  0  0
  189.3300  176.8180  141.4690 C   0  0  0  0  0  3  0  0  0  0  0  0
  190.4040  176.6670  140.5870 C   0  0  0  0  0  3  0  0  0  0  0  0
  189.4120  178.3010  139.1020 C   0  0  0  0  0  3  0  0  0  0  0  0
  188.3380  178.4520  139.9850 C   0  0  0  0  0  3  0  0  0  0  0  0
  186.2550  179.1330  141.7760 C   0  0  0  0  0  2  0  0  0  0  0  0
  182.7480  178.2050  138.8490 C   0  0  0  0  0  2  0  0  0  0  0  0
  182.1500  179.0110  139.9780 C   0  0  0  0  0  2  0  0  0  0  0  0
  185.0040  178.8090  141.0250 C   0  0  0  0  0  0  0  0  0  0  0  0
  184.1820  178.5480  138.6170 C   0  0  0  0  0  3  0  0  0  0  0  0
  182.5140  178.3120  141.2660 C   0  0  0  0  0  2  0  0  0  0  0  0
  183.8830  178.6690  141.7470 C   0  0  0  0  0  3  0  0  0  0  0  0
  185.1170  178.7750  139.5460 C   0  0  0  0  0  3  0  0  0  0  0  0
  1 20  1  1  0  0  0
  1  2  1  0  0  0  0
  2  6  1  0  0  0  0
  2 12  1  0  0  0  0
  3 12  2  0  0  0  0
  4 10  1  0  0  0  0
  6 11  1  0  0  0  0
  7  8  1  0  0  0  0
  7 10  2  0  0  0  0
  9  7  1  0  0  0  0
 10  5  1  0  0  0  0
 11  9  2  0  0  0  0
 11 13  1  0  0  0  0
 12  9  1  0  0  0  0
 13  4  2  0  0  0  0
 14 17  1  0  0  0  0
 15 16  1  0  0  0  0
 15  1  1  0  0  0  0
 17 16  2  0  0  0  0
 18 14  2  0  0  0  0
 18 19  1  0  0  0  0
 19 15  2  0  0  0  0
 21 22  1  0  0  0  0
 22 25  1  0  0  0  0
 23 26  2  0  0  0  0
 23 20  1  0  0  0  0
 24 21  1  0  0  0  0
 24 27  2  0  0  0  0
 25 26  1  0  0  0  0
 27 23  1  0  0  0  0
M  END
>  <MODEL>
9

>  <REMARK>
 VINA RESULT:      -8.0      4.013      6.842
  Name = 
  4 active torsions:
  status: ('A' for Active; 'I' for Inactive)
    1  A    between atoms: C_1  and  C_15
    2  A    between atoms: C_1  and  C_18
    3  A    between atoms: N_2  and  C_15
    4  A    between atoms: C_9  and  C_15
                            x       y       z     vdW  Elec       q    Type
                         _______ _______ _______ _____ _____    ______ ____

>  <TORSDO>
F 4

$$$$
