=
 OpenBabel10272401473D

 28 30  0  0  1  0  0  0  0  0999 V2000
  183.9840  178.4210  142.2650 C   0  0  1  0  0  3  0  0  0  0  0  0
  185.2570  178.3570  146.9640 O   0  0  0  0  0  1  0  0  0  0  0  0
  187.2020  177.1860  143.9800 C   0  0  2  0  0  3  0  0  0  0  0  0
  188.0680  178.1930  144.7100 C   0  0  1  0  0  3  0  0  0  0  0  0
  184.7540  178.6930  144.6620 C   0  0  0  0  0  0  0  0  0  0  0  0
  186.3310  177.9070  142.9580 C   0  0  0  0  0  2  0  0  0  0  0  0
  182.6940  179.6480  143.9030 O   0  0  0  0  0  0  0  0  0  0  0  0
  185.8280  178.6080  145.7150 C   0  0  2  0  0  3  0  0  0  0  0  0
  183.7150  179.5160  144.8530 C   0  0  0  0  0  3  0  0  0  0  0  0
  186.9100  177.5470  145.4470 C   0  0  1  0  0  3  0  0  0  0  0  0
  182.5880  178.7780  142.7790 C   0  0  0  0  0  2  0  0  0  0  0  0
  184.8780  177.8840  143.3960 C   0  0  2  0  0  3  0  0  0  0  0  0
  183.9590  177.5910  141.1170 O   0  0  0  0  0  0  0  0  0  0  0  0
  183.5400  178.3390  139.9970 C   0  0  2  0  0  3  0  0  0  0  0  0
  182.5500  176.2090  139.2650 C   0  0  0  0  0  2  0  0  0  0  0  0
  183.0100  177.4160  138.9430 C   0  0  0  0  0  3  0  0  0  0  0  0
  184.2450  180.4040  138.9770 O   0  0  0  0  0  1  0  0  0  0  0  0
  184.7010  179.1670  139.4390 C   0  0  2  0  0  3  0  0  0  0  0  0
  185.4140  178.4350  138.3150 C   0  0  0  0  0  2  0  0  0  0  0  0
  186.8390  178.3680  138.5930 N   0  0  0  0  0  1  0  0  0  0  0  0
  189.3730  177.5350  145.1320 C   0  0  1  0  0  3  0  0  0  0  0  0
  190.9770  179.2690  144.3580 C   0  0  0  0  0  1  0  0  0  0  0  0
  191.0720  177.0140  143.2820 C   0  0  0  0  0  0  0  0  0  0  0  0
  190.4730  177.9100  144.2400 N   0  0  0  0  0  0  0  0  0  0  0  0
  192.0180  177.4160  142.5520 O   0  0  0  0  0  0  0  0  0  0  0  0
  190.5160  175.3180  143.0880 S   0  0  0  0  0  1  0  0  0  0  0  0
  189.6960  177.8460  146.5890 C   0  0  0  0  0  2  0  0  0  0  0  0
  190.5360  176.7360  147.1910 C   0  0  0  0  0  1  0  0  0  0  0  0
  1 13  1  6  0  0  0
  1 11  1  0  0  0  0
  1 12  1  0  0  0  0
  3  6  1  6  0  0  0
  3  4  1  0  0  0  0
  3 10  1  0  0  0  0
  4 21  1  1  0  0  0
  4 10  1  0  0  0  0
  5  9  2  0  0  0  0
  5  8  1  0  0  0  0
  6 12  1  0  0  0  0
  7  9  1  0  0  0  0
  8  2  1  1  0  0  0
 10  8  1  0  0  0  0
 11  7  1  0  0  0  0
 12  5  1  0  0  0  0
 14 13  1  0  0  0  0
 16 15  2  0  0  0  0
 16 14  1  0  0  0  0
 17 18  1  0  0  0  0
 18 14  1  0  0  0  0
 19 20  1  0  0  0  0
 19 18  1  0  0  0  0
 21 27  1  0  0  0  0
 23 24  1  0  0  0  0
 24 22  1  0  0  0  0
 24 21  1  0  0  0  0
 25 23  2  0  0  0  0
 26 23  1  0  0  0  0
 27 28  1  0  0  0  0
M  END
>  <MODEL>
1

>  <REMARK>
 VINA RESULT:      -7.4      0.000      0.000
  Name = 
  8 active torsions:
  status: ('A' for Active; 'I' for Inactive)
    1  A    between atoms: C_1  and  O_2
    2  A    between atoms: O_2  and  C_3
    3  A    between atoms: C_3  and  C_11
    4  A    between atoms: C_3  and  C_22
    5  A    between atoms: C_4  and  C_13
    6  A    between atoms: C_4  and  C_14
    7  A    between atoms: C_4  and  N_15
    8  A    between atoms: C_7  and  C_11
                            x       y       z     vdW  Elec       q    Type
                         _______ _______ _______ _____ _____    ______ ____

>  <TORSDO>
F 8

$$$$
=
 OpenBabel10272401473D

 28 30  0  0  1  0  0  0  0  0999 V2000
  187.9360  177.1560  145.4970 C   0  0  1  0  0  3  0  0  0  0  0  0
  184.2540  180.2770  144.8520 O   0  0  0  0  0  1  0  0  0  0  0  0
  185.9650  178.0970  142.3260 C   0  0  2  0  0  3  0  0  0  0  0  0
  184.4860  177.7720  142.2680 C   0  0  1  0  0  3  0  0  0  0  0  0
  185.8240  178.5320  145.2450 C   0  0  0  0  0  0  0  0  0  0  0  0
  186.6440  177.2020  143.3560 C   0  0  0  0  0  2  0  0  0  0  0  0
  186.7670  178.0860  147.4000 O   0  0  0  0  0  0  0  0  0  0  0  0
  184.6600  179.0140  144.4190 C   0  0  2  0  0  3  0  0  0  0  0  0
  185.7240  178.5360  146.5800 C   0  0  0  0  0  3  0  0  0  0  0  0
  184.9290  179.0760  142.9050 C   0  0  1  0  0  3  0  0  0  0  0  0
  188.0610  177.7890  146.8840 C   0  0  0  0  0  2  0  0  0  0  0  0
  187.0670  178.0180  144.5640 C   0  0  2  0  0  3  0  0  0  0  0  0
  189.1840  176.7910  144.9360 O   0  0  0  0  0  0  0  0  0  0  0  0
  190.1650  177.7390  145.2970 C   0  0  2  0  0  3  0  0  0  0  0  0
  191.4930  179.4630  144.1490 C   0  0  0  0  0  2  0  0  0  0  0  0
  190.4470  178.6400  144.1330 C   0  0  0  0  0  3  0  0  0  0  0  0
  191.7830  176.0080  144.8640 O   0  0  0  0  0  1  0  0  0  0  0  0
  191.4500  177.0380  145.7470 C   0  0  2  0  0  3  0  0  0  0  0  0
  191.3130  176.4800  147.1530 C   0  0  0  0  0  2  0  0  0  0  0  0
  192.5840  175.9310  147.5940 N   0  0  0  0  0  1  0  0  0  0  0  0
  183.9580  178.0410  140.8660 C   0  0  1  0  0  3  0  0  0  0  0  0
  181.7380  178.8450  141.6420 C   0  0  0  0  0  1  0  0  0  0  0  0
  181.7970  176.9680  139.9910 C   0  0  0  0  0  0  0  0  0  0  0  0
  182.4990  177.9240  140.8140 N   0  0  0  0  0  0  0  0  0  0  0  0
  180.5370  176.9340  140.0030 O   0  0  0  0  0  0  0  0  0  0  0  0
  182.6650  175.8080  138.9310 S   0  0  0  0  0  1  0  0  0  0  0  0
  184.4340  179.3940  140.3530 C   0  0  0  0  0  2  0  0  0  0  0  0
  184.1660  179.5170  138.8650 C   0  0  0  0  0  1  0  0  0  0  0  0
  1 13  1  6  0  0  0
  1 11  1  0  0  0  0
  3 10  1  0  0  0  0
  3  6  1  1  0  0  0
  4 21  1  6  0  0  0
  4  3  1  0  0  0  0
  4 10  1  0  0  0  0
  5  9  2  0  0  0  0
  6 12  1  0  0  0  0
  8  2  1  1  0  0  0
  8  5  1  0  0  0  0
  9  7  1  0  0  0  0
 10  8  1  0  0  0  0
 11  7  1  0  0  0  0
 12  5  1  0  0  0  0
 12  1  1  0  0  0  0
 13 14  1  0  0  0  0
 14 18  1  0  0  0  0
 16 15  2  0  0  0  0
 16 14  1  0  0  0  0
 17 18  1  0  0  0  0
 18 19  1  0  0  0  0
 19 20  1  0  0  0  0
 23 25  2  0  0  0  0
 23 24  1  0  0  0  0
 24 21  1  0  0  0  0
 24 22  1  0  0  0  0
 26 23  1  0  0  0  0
 27 21  1  0  0  0  0
 28 27  1  0  0  0  0
M  END
>  <MODEL>
2

>  <REMARK>
 VINA RESULT:      -7.1      2.689      7.653
  Name = 
  8 active torsions:
  status: ('A' for Active; 'I' for Inactive)
    1  A    between atoms: C_1  and  O_2
    2  A    between atoms: O_2  and  C_3
    3  A    between atoms: C_3  and  C_11
    4  A    between atoms: C_3  and  C_22
    5  A    between atoms: C_4  and  C_13
    6  A    between atoms: C_4  and  C_14
    7  A    between atoms: C_4  and  N_15
    8  A    between atoms: C_7  and  C_11
                            x       y       z     vdW  Elec       q    Type
                         _______ _______ _______ _____ _____    ______ ____

>  <TORSDO>
F 8

$$$$
=
 OpenBabel10272401473D

 28 30  0  0  1  0  0  0  0  0999 V2000
  187.9340  177.6670  143.7680 C   0  0  1  0  0  3  0  0  0  0  0  0
  183.6950  179.2410  145.5750 O   0  0  0  0  0  1  0  0  0  0  0  0
  184.7560  178.9230  141.9930 C   0  0  2  0  0  3  0  0  0  0  0  0
  183.4740  178.1290  142.1510 C   0  0  1  0  0  3  0  0  0  0  0  0
  185.6380  178.1720  144.7110 C   0  0  0  0  0  0  0  0  0  0  0  0
  185.9520  178.0240  142.2850 C   0  0  0  0  0  2  0  0  0  0  0  0
  187.3980  177.3410  146.1050 O   0  0  0  0  0  0  0  0  0  0  0  0
  184.1730  178.4660  144.5170 C   0  0  2  0  0  3  0  0  0  0  0  0
  186.0510  177.6490  145.8720 C   0  0  0  0  0  3  0  0  0  0  0  0
  183.8280  179.1720  143.1940 C   0  0  1  0  0  3  0  0  0  0  0  0
  188.4320  177.7460  145.2120 C   0  0  0  0  0  2  0  0  0  0  0  0
  186.6110  178.4330  143.5890 C   0  0  2  0  0  3  0  0  0  0  0  0
  188.9250  178.0140  142.8170 O   0  0  0  0  0  0  0  0  0  0  0  0
  189.4480  176.8450  142.2250 C   0  0  2  0  0  3  0  0  0  0  0  0
  191.5750  177.7260  143.0910 C   0  0  0  0  0  2  0  0  0  0  0  0
  190.8940  176.6990  142.5890 C   0  0  0  0  0  3  0  0  0  0  0  0
  190.3990  176.3300  140.0730 O   0  0  0  0  0  1  0  0  0  0  0  0
  189.2880  176.8950  140.7030 C   0  0  2  0  0  3  0  0  0  0  0  0
  189.0940  178.3200  140.2130 C   0  0  0  0  0  2  0  0  0  0  0  0
  187.9470  178.3870  139.3240 N   0  0  0  0  0  1  0  0  0  0  0  0
  182.4110  178.6820  141.2150 C   0  0  1  0  0  3  0  0  0  0  0  0
  182.7550  176.6650  139.8040 C   0  0  0  0  0  1  0  0  0  0  0  0
  182.4040  178.8580  138.6550 C   0  0  0  0  0  0  0  0  0  0  0  0
  182.5220  178.0980  139.8760 N   0  0  0  0  0  0  0  0  0  0  0  0
  182.5120  178.2770  137.5410 O   0  0  0  0  0  0  0  0  0  0  0  0
  182.1030  180.6270  138.6610 S   0  0  0  0  0  1  0  0  0  0  0  0
  181.0160  178.4920  141.7990 C   0  0  0  0  0  2  0  0  0  0  0  0
  180.3250  179.8330  141.9600 C   0  0  0  0  0  1  0  0  0  0  0  0
  1 13  1  6  0  0  0
  1 11  1  0  0  0  0
  3  4  1  0  0  0  0
  3  6  1  1  0  0  0
  3 10  1  0  0  0  0
  4 21  1  6  0  0  0
  4 10  1  0  0  0  0
  5  9  2  0  0  0  0
  6 12  1  0  0  0  0
  8  5  1  0  0  0  0
  8  2  1  1  0  0  0
  9  7  1  0  0  0  0
 10  8  1  0  0  0  0
 11  7  1  0  0  0  0
 12  1  1  0  0  0  0
 12  5  1  0  0  0  0
 14 16  1  0  0  0  0
 14 13  1  0  0  0  0
 16 15  2  0  0  0  0
 17 18  1  0  0  0  0
 18 14  1  0  0  0  0
 19 18  1  0  0  0  0
 20 19  1  0  0  0  0
 21 27  1  0  0  0  0
 22 24  1  0  0  0  0
 23 26  1  0  0  0  0
 23 24  1  0  0  0  0
 24 21  1  0  0  0  0
 25 23  2  0  0  0  0
 27 28  1  0  0  0  0
M  END
>  <MODEL>
3

>  <REMARK>
 VINA RESULT:      -6.8      2.951      6.912
  Name = 
  8 active torsions:
  status: ('A' for Active; 'I' for Inactive)
    1  A    between atoms: C_1  and  O_2
    2  A    between atoms: O_2  and  C_3
    3  A    between atoms: C_3  and  C_11
    4  A    between atoms: C_3  and  C_22
    5  A    between atoms: C_4  and  C_13
    6  A    between atoms: C_4  and  C_14
    7  A    between atoms: C_4  and  N_15
    8  A    between atoms: C_7  and  C_11
                            x       y       z     vdW  Elec       q    Type
                         _______ _______ _______ _____ _____    ______ ____

>  <TORSDO>
F 8

$$$$
=
 OpenBabel10272401473D

 28 30  0  0  1  0  0  0  0  0999 V2000
  187.6110  177.6360  144.9650 C   0  0  1  0  0  3  0  0  0  0  0  0
  191.9960  175.8340  143.8510 O   0  0  0  0  0  1  0  0  0  0  0  0
  189.0880  176.5270  141.5870 C   0  0  2  0  0  3  0  0  0  0  0  0
  190.2770  177.2840  141.0310 C   0  0  1  0  0  3  0  0  0  0  0  0
  189.9890  177.0100  144.3590 C   0  0  0  0  0  0  0  0  0  0  0  0
  188.3440  177.4060  142.5850 C   0  0  0  0  0  2  0  0  0  0  0  0
  189.4170  177.7170  146.5730 O   0  0  0  0  0  0  0  0  0  0  0  0
  191.0500  176.7180  143.3290 C   0  0  2  0  0  3  0  0  0  0  0  0
  190.3580  177.4180  145.5790 C   0  0  0  0  0  3  0  0  0  0  0  0
  190.5190  176.1450  142.0030 C   0  0  1  0  0  3  0  0  0  0  0  0
  188.0320  177.4180  146.4190 C   0  0  0  0  0  2  0  0  0  0  0  0
  188.5320  176.8760  143.9950 C   0  0  2  0  0  3  0  0  0  0  0  0
  186.2320  177.4000  144.7430 O   0  0  0  0  0  0  0  0  0  0  0  0
  185.5850  178.6130  144.4270 C   0  0  2  0  0  3  0  0  0  0  0  0
  184.6260  178.3470  146.6770 C   0  0  0  0  0  2  0  0  0  0  0  0
  184.5760  178.9380  145.4850 C   0  0  0  0  0  3  0  0  0  0  0  0
  185.4560  179.4430  142.1690 O   0  0  0  0  0  1  0  0  0  0  0  0
  184.9040  178.5170  143.0590 C   0  0  2  0  0  3  0  0  0  0  0  0
  183.4070  178.7460  143.1670 C   0  0  0  0  0  2  0  0  0  0  0  0
  182.8010  178.7010  141.8470 N   0  0  0  0  0  1  0  0  0  0  0  0
  190.5650  176.8150  139.6120 C   0  0  1  0  0  3  0  0  0  0  0  0
  189.1680  178.7200  138.8370 C   0  0  0  0  0  1  0  0  0  0  0  0
  189.0020  176.5570  137.5940 C   0  0  0  0  0  0  0  0  0  0  0  0
  189.5730  177.3340  138.6670 N   0  0  0  0  0  0  0  0  0  0  0  0
  188.1530  177.0810  136.8220 O   0  0  0  0  0  0  0  0  0  0  0  0
  189.4610  174.8460  137.3090 S   0  0  0  0  0  1  0  0  0  0  0  0
  191.9860  177.1760  139.1950 C   0  0  0  0  0  2  0  0  0  0  0  0
  192.5520  176.1090  138.2770 C   0  0  0  0  0  1  0  0  0  0  0  0
  1 13  1  1  0  0  0
  1 11  1  0  0  0  0
  3 10  1  0  0  0  0
  3  6  1  1  0  0  0
  4 21  1  6  0  0  0
  4  3  1  0  0  0  0
  4 10  1  0  0  0  0
  5  9  2  0  0  0  0
  6 12  1  0  0  0  0
  8  2  1  1  0  0  0
  8  5  1  0  0  0  0
  9  7  1  0  0  0  0
 10  8  1  0  0  0  0
 11  7  1  0  0  0  0
 12  5  1  0  0  0  0
 12  1  1  0  0  0  0
 14 13  1  0  0  0  0
 14 16  1  0  0  0  0
 16 15  2  0  0  0  0
 17 18  1  0  0  0  0
 18 19  1  0  0  0  0
 18 14  1  0  0  0  0
 20 19  1  0  0  0  0
 23 24  1  0  0  0  0
 24 22  1  0  0  0  0
 24 21  1  0  0  0  0
 25 23  2  0  0  0  0
 26 23  1  0  0  0  0
 27 21  1  0  0  0  0
 28 27  1  0  0  0  0
M  END
>  <MODEL>
4

>  <REMARK>
 VINA RESULT:      -6.7      3.041      5.889
  Name = 
  8 active torsions:
  status: ('A' for Active; 'I' for Inactive)
    1  A    between atoms: C_1  and  O_2
    2  A    between atoms: O_2  and  C_3
    3  A    between atoms: C_3  and  C_11
    4  A    between atoms: C_3  and  C_22
    5  A    between atoms: C_4  and  C_13
    6  A    between atoms: C_4  and  C_14
    7  A    between atoms: C_4  and  N_15
    8  A    between atoms: C_7  and  C_11
                            x       y       z     vdW  Elec       q    Type
                         _______ _______ _______ _____ _____    ______ ____

>  <TORSDO>
F 8

$$$$
=
 OpenBabel10272401473D

 28 30  0  0  1  0  0  0  0  0999 V2000
  187.7360  177.7720  144.8870 C   0  0  1  0  0  3  0  0  0  0  0  0
  183.1720  179.4580  145.0740 O   0  0  0  0  0  1  0  0  0  0  0  0
  185.2960  178.7370  142.0690 C   0  0  2  0  0  3  0  0  0  0  0  0
  184.0160  177.9400  141.9130 C   0  0  1  0  0  3  0  0  0  0  0  0
  185.2690  178.3350  144.9960 C   0  0  0  0  0  0  0  0  0  0  0  0
  186.3250  177.9050  142.8260 C   0  0  0  0  0  2  0  0  0  0  0  0
  186.4900  177.7150  146.9600 O   0  0  0  0  0  0  0  0  0  0  0  0
  183.9440  178.5720  144.3200 C   0  0  2  0  0  3  0  0  0  0  0  0
  185.2890  177.9640  146.2820 C   0  0  0  0  0  3  0  0  0  0  0  0
  184.0430  179.1080  142.8810 C   0  0  1  0  0  3  0  0  0  0  0  0
  187.7590  178.0330  146.3940 C   0  0  0  0  0  2  0  0  0  0  0  0
  186.5490  178.4810  144.2130 C   0  0  2  0  0  3  0  0  0  0  0  0
  188.9810  178.0230  144.2590 O   0  0  0  0  0  0  0  0  0  0  0  0
  189.7680  176.8530  144.2740 C   0  0  2  0  0  3  0  0  0  0  0  0
  191.6280  176.5410  145.8540 C   0  0  0  0  0  2  0  0  0  0  0  0
  191.1380  177.1720  144.7900 C   0  0  0  0  0  3  0  0  0  0  0  0
  190.4920  175.0040  142.9100 O   0  0  0  0  0  1  0  0  0  0  0  0
  189.8600  176.2490  142.8700 C   0  0  2  0  0  3  0  0  0  0  0  0
  190.6080  177.1680  141.9190 C   0  0  0  0  0  2  0  0  0  0  0  0
  190.4460  176.7040  140.5510 N   0  0  0  0  0  1  0  0  0  0  0  0
  183.3090  178.3540  140.6310 C   0  0  1  0  0  3  0  0  0  0  0  0
  182.2760  176.2340  139.8440 C   0  0  0  0  0  1  0  0  0  0  0  0
  184.1950  177.1630  138.5380 C   0  0  0  0  0  0  0  0  0  0  0  0
  183.2880  177.2610  139.6560 N   0  0  0  0  0  0  0  0  0  0  0  0
  184.1080  176.1890  137.7420 O   0  0  0  0  0  0  0  0  0  0  0  0
  185.4610  178.3980  138.2290 S   0  0  0  0  0  1  0  0  0  0  0  0
  181.9070  178.8760  140.9240 C   0  0  0  0  0  2  0  0  0  0  0  0
  181.4070  179.7220  139.7680 C   0  0  0  0  0  1  0  0  0  0  0  0
  1 13  1  6  0  0  0
  1 11  1  0  0  0  0
  3  6  1  1  0  0  0
  3 10  1  0  0  0  0
  4 21  1  6  0  0  0
  4  3  1  0  0  0  0
  4 10  1  0  0  0  0
  5  9  2  0  0  0  0
  6 12  1  0  0  0  0
  8  5  1  0  0  0  0
  8  2  1  1  0  0  0
  9  7  1  0  0  0  0
 10  8  1  0  0  0  0
 11  7  1  0  0  0  0
 12  1  1  0  0  0  0
 12  5  1  0  0  0  0
 13 14  1  0  0  0  0
 14 16  1  0  0  0  0
 16 15  2  0  0  0  0
 18 17  1  0  0  0  0
 18 14  1  0  0  0  0
 19 18  1  0  0  0  0
 20 19  1  0  0  0  0
 21 27  1  0  0  0  0
 23 24  1  0  0  0  0
 24 22  1  0  0  0  0
 24 21  1  0  0  0  0
 25 23  2  0  0  0  0
 26 23  1  0  0  0  0
 28 27  1  0  0  0  0
M  END
>  <MODEL>
5

>  <REMARK>
 VINA RESULT:      -6.7      2.450      7.000
  Name = 
  8 active torsions:
  status: ('A' for Active; 'I' for Inactive)
    1  A    between atoms: C_1  and  O_2
    2  A    between atoms: O_2  and  C_3
    3  A    between atoms: C_3  and  C_11
    4  A    between atoms: C_3  and  C_22
    5  A    between atoms: C_4  and  C_13
    6  A    between atoms: C_4  and  C_14
    7  A    between atoms: C_4  and  N_15
    8  A    between atoms: C_7  and  C_11
                            x       y       z     vdW  Elec       q    Type
                         _______ _______ _______ _____ _____    ______ ____

>  <TORSDO>
F 8

$$$$
=
 OpenBabel10272401473D

 28 30  0  0  1  0  0  0  0  0999 V2000
  190.6060  176.5910  138.7660 C   0  0  1  0  0  3  0  0  0  0  0  0
  186.8690  178.7640  141.0080 O   0  0  0  0  0  1  0  0  0  0  0  0
  189.3910  176.3710  142.4130 C   0  0  2  0  0  3  0  0  0  0  0  0
  189.4360  177.6210  143.2690 C   0  0  1  0  0  3  0  0  0  0  0  0
  188.8670  177.9710  139.9850 C   0  0  0  0  0  0  0  0  0  0  0  0
  190.3720  176.5110  141.2550 C   0  0  0  0  0  2  0  0  0  0  0  0
  189.4270  178.4160  137.7010 O   0  0  0  0  0  0  0  0  0  0  0  0
  188.1960  178.4120  141.2600 C   0  0  2  0  0  3  0  0  0  0  0  0
  188.8110  178.7660  138.9090 C   0  0  0  0  0  3  0  0  0  0  0  0
  188.2220  177.3710  142.3940 C   0  0  1  0  0  3  0  0  0  0  0  0
  189.9730  177.1190  137.4770 C   0  0  0  0  0  2  0  0  0  0  0  0
  189.6200  176.6660  139.9450 C   0  0  2  0  0  3  0  0  0  0  0  0
  191.2100  175.3190  138.6100 O   0  0  0  0  0  0  0  0  0  0  0  0
  192.0880  175.3410  137.5050 C   0  0  2  0  0  3  0  0  0  0  0  0
  191.0350  173.4470  136.3410 C   0  0  0  0  0  2  0  0  0  0  0  0
  192.1320  173.9860  136.8680 C   0  0  0  0  0  3  0  0  0  0  0  0
  193.9660  176.8070  137.1430 O   0  0  0  0  0  1  0  0  0  0  0  0
  193.4930  175.7650  137.9450 C   0  0  2  0  0  3  0  0  0  0  0  0
  194.4660  174.5990  137.8910 C   0  0  0  0  0  2  0  0  0  0  0  0
  195.5690  174.8320  138.8070 N   0  0  0  0  0  1  0  0  0  0  0  0
  189.1080  177.2650  144.7120 C   0  0  1  0  0  3  0  0  0  0  0  0
  191.5570  177.6440  144.9030 C   0  0  0  0  0  1  0  0  0  0  0  0
  190.2960  177.0380  146.9740 C   0  0  0  0  0  0  0  0  0  0  0  0
  190.3040  177.3040  145.5570 N   0  0  0  0  0  0  0  0  0  0  0  0
  191.3710  177.0940  147.6310 O   0  0  0  0  0  0  0  0  0  0  0  0
  188.7880  176.6250  147.8570 S   0  0  0  0  0  1  0  0  0  0  0  0
  188.0010  178.1600  145.2580 C   0  0  0  0  0  2  0  0  0  0  0  0
  186.6700  177.4330  145.2220 C   0  0  0  0  0  1  0  0  0  0  0  0
  1 13  1  6  0  0  0
  1 12  1  0  0  0  0
  3  6  1  6  0  0  0
  3  4  1  0  0  0  0
  4 21  1  1  0  0  0
  5  8  1  0  0  0  0
  7  9  1  0  0  0  0
  8  2  1  6  0  0  0
  8 10  1  0  0  0  0
  9  5  2  0  0  0  0
 10  3  1  0  0  0  0
 10  4  1  0  0  0  0
 11  7  1  0  0  0  0
 11  1  1  0  0  0  0
 12  5  1  0  0  0  0
 12  6  1  0  0  0  0
 14 18  1  0  0  0  0
 14 13  1  0  0  0  0
 15 16  2  0  0  0  0
 16 14  1  0  0  0  0
 17 18  1  0  0  0  0
 19 18  1  0  0  0  0
 19 20  1  0  0  0  0
 21 27  1  0  0  0  0
 21 24  1  0  0  0  0
 22 24  1  0  0  0  0
 23 25  2  0  0  0  0
 23 26  1  0  0  0  0
 24 23  1  0  0  0  0
 28 27  1  0  0  0  0
M  END
>  <MODEL>
6

>  <REMARK>
 VINA RESULT:      -6.4      4.464      6.815
  Name = 
  8 active torsions:
  status: ('A' for Active; 'I' for Inactive)
    1  A    between atoms: C_1  and  O_2
    2  A    between atoms: O_2  and  C_3
    3  A    between atoms: C_3  and  C_11
    4  A    between atoms: C_3  and  C_22
    5  A    between atoms: C_4  and  C_13
    6  A    between atoms: C_4  and  C_14
    7  A    between atoms: C_4  and  N_15
    8  A    between atoms: C_7  and  C_11
                            x       y       z     vdW  Elec       q    Type
                         _______ _______ _______ _____ _____    ______ ____

>  <TORSDO>
F 8

$$$$
=
 OpenBabel10272401473D

 28 30  0  0  1  0  0  0  0  0999 V2000
  186.9750  177.8380  144.4730 C   0  0  1  0  0  3  0  0  0  0  0  0
  191.5290  176.1210  144.3210 O   0  0  0  0  0  1  0  0  0  0  0  0
  189.1370  176.7100  141.4940 C   0  0  2  0  0  3  0  0  0  0  0  0
  190.4010  177.4860  141.1790 C   0  0  1  0  0  3  0  0  0  0  0  0
  189.4380  177.2580  144.3810 C   0  0  0  0  0  0  0  0  0  0  0  0
  188.1870  177.5870  142.3000 C   0  0  0  0  0  2  0  0  0  0  0  0
  188.4090  177.9870  146.4160 O   0  0  0  0  0  0  0  0  0  0  0  0
  190.6940  176.9750  143.5980 C   0  0  2  0  0  3  0  0  0  0  0  0
  189.5400  177.6930  145.6430 C   0  0  0  0  0  3  0  0  0  0  0  0
  190.4590  176.3680  142.2030 C   0  0  1  0  0  3  0  0  0  0  0  0
  187.0910  177.6530  145.9870 C   0  0  0  0  0  2  0  0  0  0  0  0
  188.0910  177.0840  143.7280 C   0  0  2  0  0  3  0  0  0  0  0  0
  185.6760  177.5670  143.9770 O   0  0  0  0  0  0  0  0  0  0  0  0
  185.1560  178.7170  143.3470 C   0  0  2  0  0  3  0  0  0  0  0  0
  183.5880  178.7990  145.2420 C   0  0  0  0  0  2  0  0  0  0  0  0
  183.8390  179.0780  143.9650 C   0  0  0  0  0  3  0  0  0  0  0  0
  185.5160  179.5430  141.1130 O   0  0  0  0  0  1  0  0  0  0  0  0
  184.9860  178.4760  141.8440 C   0  0  2  0  0  3  0  0  0  0  0  0
  183.5260  178.2820  141.4750 C   0  0  0  0  0  2  0  0  0  0  0  0
  183.1870  179.1210  140.3380 N   0  0  0  0  0  1  0  0  0  0  0  0
  190.9840  177.0010  139.8600 C   0  0  1  0  0  3  0  0  0  0  0  0
  189.3740  178.5510  138.7720 C   0  0  0  0  0  1  0  0  0  0  0  0
  189.8700  176.3810  137.6330 C   0  0  0  0  0  0  0  0  0  0  0  0
  190.0800  177.2800  138.7420 N   0  0  0  0  0  0  0  0  0  0  0  0
  189.0730  176.6990  136.7080 O   0  0  0  0  0  0  0  0  0  0  0  0
  190.7140  174.8020  137.5160 S   0  0  0  0  0  1  0  0  0  0  0  0
  192.3700  177.5890  139.6250 C   0  0  0  0  0  2  0  0  0  0  0  0
  193.2860  176.5490  139.0090 C   0  0  0  0  0  1  0  0  0  0  0  0
  1 13  1  6  0  0  0
  1 11  1  0  0  0  0
  3 10  1  0  0  0  0
  3  6  1  1  0  0  0
  4 21  1  6  0  0  0
  4  3  1  0  0  0  0
  4 10  1  0  0  0  0
  5  9  2  0  0  0  0
  6 12  1  0  0  0  0
  8  2  1  1  0  0  0
  8  5  1  0  0  0  0
  9  7  1  0  0  0  0
 10  8  1  0  0  0  0
 11  7  1  0  0  0  0
 12  5  1  0  0  0  0
 12  1  1  0  0  0  0
 14 16  1  0  0  0  0
 14 13  1  0  0  0  0
 16 15  2  0  0  0  0
 17 18  1  0  0  0  0
 18 14  1  0  0  0  0
 19 18  1  0  0  0  0
 20 19  1  0  0  0  0
 23 24  1  0  0  0  0
 24 22  1  0  0  0  0
 24 21  1  0  0  0  0
 25 23  2  0  0  0  0
 26 23  1  0  0  0  0
 27 21  1  0  0  0  0
 28 27  1  0  0  0  0
M  END
>  <MODEL>
7

>  <REMARK>
 VINA RESULT:      -6.4      2.989      5.263
  Name = 
  8 active torsions:
  status: ('A' for Active; 'I' for Inactive)
    1  A    between atoms: C_1  and  O_2
    2  A    between atoms: O_2  and  C_3
    3  A    between atoms: C_3  and  C_11
    4  A    between atoms: C_3  and  C_22
    5  A    between atoms: C_4  and  C_13
    6  A    between atoms: C_4  and  C_14
    7  A    between atoms: C_4  and  N_15
    8  A    between atoms: C_7  and  C_11
                            x       y       z     vdW  Elec       q    Type
                         _______ _______ _______ _____ _____    ______ ____

>  <TORSDO>
F 8

$$$$
=
 OpenBabel10272401473D

 28 30  0  0  1  0  0  0  0  0999 V2000
  189.4430  177.6450  144.3250 C   0  0  1  0  0  3  0  0  0  0  0  0
  192.9390  177.1900  140.9660 O   0  0  0  0  0  1  0  0  0  0  0  0
  189.2600  176.5380  140.6410 C   0  0  2  0  0  3  0  0  0  0  0  0
  189.6340  177.5370  139.5640 C   0  0  1  0  0  3  0  0  0  0  0  0
  191.2130  177.7260  142.5150 C   0  0  0  0  0  0  0  0  0  0  0  0
  188.8770  177.2820  141.9160 C   0  0  0  0  0  2  0  0  0  0  0  0
  191.6480  178.5600  144.7160 O   0  0  0  0  0  0  0  0  0  0  0  0
  191.6170  177.6270  141.0670 C   0  0  2  0  0  3  0  0  0  0  0  0
  191.9810  178.4220  143.3620 C   0  0  0  0  0  3  0  0  0  0  0  0
  190.7280  176.7080  140.2110 C   0  0  1  0  0  3  0  0  0  0  0  0
  190.5950  177.8120  145.3170 C   0  0  0  0  0  2  0  0  0  0  0  0
  189.9360  177.0750  142.9840 C   0  0  2  0  0  3  0  0  0  0  0  0
  188.3360  176.9470  144.8680 O   0  0  0  0  0  0  0  0  0  0  0  0
  187.5980  177.8050  145.7100 C   0  0  2  0  0  3  0  0  0  0  0  0
  188.2500  177.9990  148.0740 C   0  0  0  0  0  2  0  0  0  0  0  0
  187.6480  177.2960  147.1180 C   0  0  0  0  0  3  0  0  0  0  0  0
  186.0910  178.0410  143.8450 O   0  0  0  0  0  1  0  0  0  0  0  0
  186.1450  177.9030  145.2350 C   0  0  2  0  0  3  0  0  0  0  0  0
  185.4250  179.0680  145.8910 C   0  0  0  0  0  2  0  0  0  0  0  0
  184.0020  178.9990  145.6000 N   0  0  0  0  0  1  0  0  0  0  0  0
  189.2990  176.9620  138.1960 C   0  0  1  0  0  3  0  0  0  0  0  0
  188.9820  179.2750  137.3430 C   0  0  0  0  0  1  0  0  0  0  0  0
  187.3080  177.5390  136.6830 C   0  0  0  0  0  0  0  0  0  0  0  0
  188.5050  177.9030  137.4010 N   0  0  0  0  0  0  0  0  0  0  0  0
  186.6830  178.4110  136.0200 O   0  0  0  0  0  0  0  0  0  0  0  0
  186.6640  175.8640  136.6940 S   0  0  0  0  0  1  0  0  0  0  0  0
  190.5610  176.5280  137.4610 C   0  0  0  0  0  2  0  0  0  0  0  0
  190.5200  175.0380  137.1780 C   0  0  0  0  0  1  0  0  0  0  0  0
  1 13  1  1  0  0  0
  1 11  1  0  0  0  0
  3  6  1  1  0  0  0
  4 21  1  6  0  0  0
  4 10  1  0  0  0  0
  4  3  1  0  0  0  0
  5 12  1  0  0  0  0
  5  9  2  0  0  0  0
  6 12  1  0  0  0  0
  7 11  1  0  0  0  0
  8  2  1  1  0  0  0
  8  5  1  0  0  0  0
  9  7  1  0  0  0  0
 10  3  1  0  0  0  0
 10  8  1  0  0  0  0
 12  1  1  0  0  0  0
 13 14  1  0  0  0  0
 14 16  1  0  0  0  0
 16 15  2  0  0  0  0
 17 18  1  0  0  0  0
 18 14  1  0  0  0  0
 18 19  1  0  0  0  0
 20 19  1  0  0  0  0
 22 24  1  0  0  0  0
 23 26  1  0  0  0  0
 23 24  1  0  0  0  0
 24 21  1  0  0  0  0
 25 23  2  0  0  0  0
 27 21  1  0  0  0  0
 28 27  1  0  0  0  0
M  END
>  <MODEL>
8

>  <REMARK>
 VINA RESULT:      -6.3      3.454      7.510
  Name = 
  8 active torsions:
  status: ('A' for Active; 'I' for Inactive)
    1  A    between atoms: C_1  and  O_2
    2  A    between atoms: O_2  and  C_3
    3  A    between atoms: C_3  and  C_11
    4  A    between atoms: C_3  and  C_22
    5  A    between atoms: C_4  and  C_13
    6  A    between atoms: C_4  and  C_14
    7  A    between atoms: C_4  and  N_15
    8  A    between atoms: C_7  and  C_11
                            x       y       z     vdW  Elec       q    Type
                         _______ _______ _______ _____ _____    ______ ____

>  <TORSDO>
F 8

$$$$
=
 OpenBabel10272401473D

 28 30  0  0  1  0  0  0  0  0999 V2000
  183.9450  178.6770  142.8640 C   0  0  1  0  0  3  0  0  0  0  0  0
  187.4390  177.5740  146.0710 O   0  0  0  0  0  1  0  0  0  0  0  0
  187.5170  177.3410  142.3300 C   0  0  2  0  0  3  0  0  0  0  0  0
  188.6870  178.2090  142.7470 C   0  0  1  0  0  3  0  0  0  0  0  0
  185.8470  178.4190  144.5160 C   0  0  0  0  0  0  0  0  0  0  0  0
  186.2860  178.2130  142.1130 C   0  0  0  0  0  2  0  0  0  0  0  0
  183.7440  179.3510  145.1790 O   0  0  0  0  0  0  0  0  0  0  0  0
  187.3030  178.1710  144.8170 C   0  0  2  0  0  3  0  0  0  0  0  0
  185.0990  179.0780  145.4100 C   0  0  0  0  0  3  0  0  0  0  0  0
  188.0360  177.3050  143.7770 C   0  0  1  0  0  3  0  0  0  0  0  0
  183.0320  178.7770  144.0860 C   0  0  0  0  0  2  0  0  0  0  0  0
  185.2620  177.9590  143.2050 C   0  0  2  0  0  3  0  0  0  0  0  0
  183.2920  178.1550  141.7200 O   0  0  0  0  0  0  0  0  0  0  0  0
  183.0160  179.1980  140.8110 C   0  0  2  0  0  3  0  0  0  0  0  0
  180.7170  178.3610  141.0690 C   0  0  0  0  0  2  0  0  0  0  0  0
  181.5630  179.1800  140.4480 C   0  0  0  0  0  3  0  0  0  0  0  0
  184.4740  180.2730  139.2220 O   0  0  0  0  0  1  0  0  0  0  0  0
  183.8780  179.0530  139.5520 C   0  0  2  0  0  3  0  0  0  0  0  0
  183.0600  178.5520  138.3750 C   0  0  0  0  0  2  0  0  0  0  0  0
  183.4180  177.1760  138.0730 N   0  0  0  0  0  1  0  0  0  0  0  0
  189.9870  177.5820  142.2650 C   0  0  1  0  0  3  0  0  0  0  0  0
  190.6600  175.4520  143.3540 C   0  0  0  0  0  1  0  0  0  0  0  0
  191.4030  177.5950  144.4050 C   0  0  0  0  0  0  0  0  0  0  0  0
  190.6900  176.9050  143.3570 N   0  0  0  0  0  0  0  0  0  0  0  0
  191.9850  176.9360  145.3090 O   0  0  0  0  0  0  0  0  0  0  0  0
  191.4980  179.3860  144.4710 S   0  0  0  0  0  1  0  0  0  0  0  0
  189.7400  176.6470  141.0870 C   0  0  0  0  0  2  0  0  0  0  0  0
  190.2470  177.2730  139.8020 C   0  0  0  0  0  1  0  0  0  0  0  0
  1 13  1  6  0  0  0
  1 12  1  0  0  0  0
  1 11  1  0  0  0  0
  3  6  1  1  0  0  0
  3  4  1  0  0  0  0
  3 10  1  0  0  0  0
  4 21  1  6  0  0  0
  4 10  1  0  0  0  0
  5  8  1  0  0  0  0
  5  9  2  0  0  0  0
  6 12  1  0  0  0  0
  7  9  1  0  0  0  0
  8  2  1  1  0  0  0
 10  8  1  0  0  0  0
 11  7  1  0  0  0  0
 12  5  1  0  0  0  0
 14 13  1  0  0  0  0
 16 14  1  0  0  0  0
 16 15  2  0  0  0  0
 17 18  1  0  0  0  0
 18 14  1  0  0  0  0
 19 18  1  0  0  0  0
 20 19  1  0  0  0  0
 21 24  1  0  0  0  0
 22 24  1  0  0  0  0
 23 26  1  0  0  0  0
 23 25  2  0  0  0  0
 24 23  1  0  0  0  0
 27 21  1  0  0  0  0
 28 27  1  0  0  0  0
M  END
>  <MODEL>
9

>  <REMARK>
 VINA RESULT:      -6.2      1.959      2.761
  Name = 
  8 active torsions:
  status: ('A' for Active; 'I' for Inactive)
    1  A    between atoms: C_1  and  O_2
    2  A    between atoms: O_2  and  C_3
    3  A    between atoms: C_3  and  C_11
    4  A    between atoms: C_3  and  C_22
    5  A    between atoms: C_4  and  C_13
    6  A    between atoms: C_4  and  C_14
    7  A    between atoms: C_4  and  N_15
    8  A    between atoms: C_7  and  C_11
                            x       y       z     vdW  Elec       q    Type
                         _______ _______ _______ _____ _____    ______ ____

>  <TORSDO>
F 8

$$$$
