=
 OpenBabel10272414163D

 43 49  0  0  1  0  0  0  0  0999 V2000
  188.6340  177.4290  145.4190 C   0  0  0  0  0  0  0  0  0  0  0  0
  190.6710  177.2870  140.7610 C   0  0  0  0  0  0  0  0  0  0  0  0
  188.5030  177.2510  138.8420 C   0  0  2  0  0  3  0  0  0  0  0  0
  190.1510  177.4460  143.5080 C   0  0  0  0  0  0  0  0  0  0  0  0
  187.4980  177.0700  144.4990 C   0  0  0  0  0  2  0  0  0  0  0  0
  188.4080  177.5300  146.7510 F   0  0  0  0  0  0  0  0  0  0  0  0
  189.0800  177.4640  142.5940 C   0  0  0  0  0  0  0  0  0  0  0  0
  189.8820  177.5370  144.9520 C   0  0  0  0  0  3  0  0  0  0  0  0
  187.6800  177.6820  143.1070 C   0  0  0  0  0  2  0  0  0  0  0  0
  188.2670  177.4400  140.2700 N   0  0  0  0  0  2  0  0  0  0  0  0
  189.3400  177.3780  141.2170 C   0  0  0  0  0  0  0  0  0  0  0  0
  191.7250  177.2660  141.6800 C   0  0  0  0  0  3  0  0  0  0  0  0
  190.9710  177.1780  139.2910 C   0  0  2  0  0  3  0  0  0  0  0  0
  189.8640  177.8220  138.4490 C   0  0  0  0  0  2  0  0  0  0  0  0
  191.4660  177.3490  143.0490 C   0  0  0  0  0  3  0  0  0  0  0  0
  187.4170  177.8840  138.0380 C   0  0  0  0  0  0  0  0  0  0  0  0
  186.0950  177.3330  138.0470 N   0  0  0  0  0  2  0  0  0  0  0  0
  187.6660  178.9330  137.3850 O   0  0  0  0  0  0  0  0  0  0  0  0
  184.9870  177.9120  137.2990 C   0  0  1  0  0  3  0  0  0  0  0  0
  184.5460  176.9550  136.2050 C   0  0  0  0  0  1  0  0  0  0  0  0
  183.8230  178.1600  138.2390 C   0  0  2  0  0  3  0  0  0  0  0  0
  183.8270  179.5760  138.6630 N   0  0  2  0  0  0  0  0  0  0  0  0
  182.0440  179.0130  140.1920 N   0  0  0  0  0  2  0  0  0  0  0  0
  184.3100  178.5230  139.5670 C   0  0  1  0  0  3  0  0  0  0  0  0
  182.5190  179.9690  139.2000 C   0  0  2  0  0  3  0  0  0  0  0  0
  183.2250  178.2710  140.5950 C   0  0  0  0  0  2  0  0  0  0  0  0
  181.4870  180.2490  138.1040 C   0  0  0  0  0  2  0  0  0  0  0  0
  180.4690  181.3070  138.5060 C   0  0  0  0  0  2  0  0  0  0  0  0
  180.2470  182.2240  137.4020 N   0  0  0  0  0  0  0  0  0  0  0  0
  181.1870  184.2670  136.3520 C   0  0  0  0  0  2  0  0  0  0  0  0
  180.5830  182.4330  134.9520 C   0  0  0  0  0  2  0  0  0  0  0  0
  180.2480  183.8090  135.3260 N   0  0  0  0  0  2  0  0  0  0  0  0
  180.5830  181.5010  136.1750 C   0  0  0  0  0  2  0  0  0  0  0  0
  181.1940  183.3290  137.5690 C   0  0  0  0  0  2  0  0  0  0  0  0
  191.1310  175.7770  138.9250 N   0  0  0  0  0  2  0  0  0  0  0  0
  193.5130  174.1170  137.7320 N   0  0  0  0  0  0  0  0  0  0  0  0
  193.0720  176.4800  137.6690 C   0  0  0  0  0  2  0  0  0  0  0  0
  192.1410  174.3090  137.2920 C   0  0  0  0  0  2  0  0  0  0  0  0
  191.7590  175.7360  137.6150 C   0  0  1  0  0  3  0  0  0  0  0  0
  194.1500  175.4180  137.5840 C   0  0  0  0  0  2  0  0  0  0  0  0
  194.1430  173.2130  136.7830 C   0  0  0  0  0  2  0  0  0  0  0  0
  195.3250  172.6200  138.7700 O   0  0  0  0  0  1  0  0  0  0  0  0
  194.9230  172.1400  137.5230 C   0  0  0  0  0  2  0  0  0  0  0  0
  1  6  1  0  0  0  0
  2 11  2  0  0  0  0
  2 12  1  0  0  0  0
  3 16  1  6  0  0  0
  3 10  1  0  0  0  0
  4  8  1  0  0  0  0
  5  1  1  0  0  0  0
  7  9  1  0  0  0  0
  7  4  2  0  0  0  0
  8  1  2  0  0  0  0
  9  5  1  0  0  0  0
 10 11  1  0  0  0  0
 11  7  1  0  0  0  0
 12 15  2  0  0  0  0
 13 35  1  6  0  0  0
 13  2  1  0  0  0  0
 14  3  1  0  0  0  0
 14 13  1  0  0  0  0
 15  4  1  0  0  0  0
 16 17  1  0  0  0  0
 18 16  2  0  0  0  0
 19 20  1  6  0  0  0
 19 17  1  0  0  0  0
 21 19  1  6  0  0  0
 21 22  1  0  0  0  0
 21 24  1  0  0  0  0
 22 25  1  0  0  0  0
 22 24  1  0  0  0  0
 23 26  1  0  0  0  0
 24 26  1  0  0  0  0
 25 23  1  0  0  0  0
 27 28  1  0  0  0  0
 27 25  1  0  0  0  0
 29 34  1  0  0  0  0
 29 28  1  0  0  0  0
 30 34  1  0  0  0  0
 31 32  1  0  0  0  0
 31 33  1  0  0  0  0
 32 30  1  0  0  0  0
 33 29  1  0  0  0  0
 38 39  1  0  0  0  0
 38 36  1  0  0  0  0
 39 37  1  0  0  0  0
 39 35  1  0  0  0  0
 40 37  1  0  0  0  0
 40 36  1  0  0  0  0
 41 43  1  0  0  0  0
 41 36  1  0  0  0  0
 43 42  1  0  0  0  0
M  END
>  <MODEL>
1

>  <REMARK>
 VINA RESULT:      -8.6      0.000      0.000
  Name = 
  10 active torsions:
  status: ('A' for Active; 'I' for Inactive)
    1  A    between atoms: N_1  and  C_34
    2  A    between atoms: N_1  and  C_35
    3  A    between atoms: C_2  and  C_13
    4  A    between atoms: C_3  and  C_12
    5  A    between atoms: N_6  and  C_12
    6  A    between atoms: C_9  and  N_19
    7  A    between atoms: C_9  and  C_37
    8  A    between atoms: N_11  and  C_14
    9  A    between atoms: C_14  and  C_41
   10  A    between atoms: C_22  and  C_41
                            x       y       z     vdW  Elec       q    Type
                         _______ _______ _______ _____ _____    ______ ____

>  <TORSDO>
F 10

$$$$
=
 OpenBabel10272414163D

 43 49  0  0  1  0  0  0  0  0999 V2000
  184.7900  178.8490  145.7520 C   0  0  0  0  0  0  0  0  0  0  0  0
  181.8970  178.7850  141.5690 C   0  0  0  0  0  0  0  0  0  0  0  0
  183.6540  178.8870  139.2700 C   0  0  2  0  0  3  0  0  0  0  0  0
  182.9390  178.7130  144.1680 C   0  0  0  0  0  0  0  0  0  0  0  0
  185.7090  179.2440  144.6270 C   0  0  0  0  0  2  0  0  0  0  0  0
  185.2710  178.7890  147.0170 F   0  0  0  0  0  0  0  0  0  0  0  0
  183.8160  178.7280  143.0660 C   0  0  0  0  0  0  0  0  0  0  0  0
  183.4840  178.6670  145.5340 C   0  0  0  0  0  3  0  0  0  0  0  0
  185.2980  178.5930  143.3030 C   0  0  0  0  0  2  0  0  0  0  0  0
  184.1680  178.7420  140.6290 N   0  0  0  0  0  2  0  0  0  0  0  0
  183.2940  178.7700  141.7630 C   0  0  0  0  0  0  0  0  0  0  0  0
  181.0390  178.7730  142.6730 C   0  0  0  0  0  3  0  0  0  0  0  0
  181.3170  178.8460  140.1840 C   0  0  2  0  0  3  0  0  0  0  0  0
  182.2760  178.2400  139.1530 C   0  0  0  0  0  2  0  0  0  0  0  0
  181.5570  178.7330  143.9680 C   0  0  0  0  0  3  0  0  0  0  0  0
  184.5990  178.2910  138.2810 C   0  0  0  0  0  0  0  0  0  0  0  0
  186.0130  178.3590  138.5000 N   0  0  0  0  0  2  0  0  0  0  0  0
  184.1380  177.6930  137.2730 O   0  0  0  0  0  0  0  0  0  0  0  0
  186.9880  177.7840  137.5830 C   0  0  1  0  0  3  0  0  0  0  0  0
  187.4740  178.8460  136.6120 C   0  0  0  0  0  1  0  0  0  0  0  0
  188.1700  177.2570  138.3740 C   0  0  2  0  0  3  0  0  0  0  0  0
  188.7990  178.3700  139.1180 N   0  0  2  0  0  0  0  0  0  0  0  0
  190.5500  176.8270  139.7380 N   0  0  0  0  0  2  0  0  0  0  0  0
  189.4120  177.8500  137.8880 C   0  0  1  0  0  3  0  0  0  0  0  0
  189.6430  177.8660  140.2070 C   0  0  2  0  0  3  0  0  0  0  0  0
  190.5860  176.9830  138.2950 C   0  0  0  0  0  2  0  0  0  0  0  0
  188.8330  177.4370  141.4350 C   0  0  0  0  0  2  0  0  0  0  0  0
  189.6270  176.5520  142.3860 C   0  0  0  0  0  2  0  0  0  0  0  0
  189.7040  177.1780  143.6950 N   0  0  0  0  0  0  0  0  0  0  0  0
  188.5240  177.2740  145.8760 C   0  0  0  0  0  2  0  0  0  0  0  0
  190.8930  177.0020  145.8650 C   0  0  0  0  0  2  0  0  0  0  0  0
  189.8000  177.9170  146.1980 N   0  0  0  0  0  2  0  0  0  0  0  0
  190.8360  176.5660  144.3920 C   0  0  0  0  0  2  0  0  0  0  0  0
  188.4710  176.8300  144.4060 C   0  0  0  0  0  2  0  0  0  0  0  0
  181.0150  180.2280  139.8380 N   0  0  0  0  0  2  0  0  0  0  0  0
  180.9250  182.7050  137.9120 N   0  0  0  0  0  0  0  0  0  0  0  0
  180.1450  180.4540  137.5950 C   0  0  0  0  0  2  0  0  0  0  0  0
  181.9980  181.7990  138.2860 C   0  0  0  0  0  2  0  0  0  0  0  0
  181.3910  180.4240  138.4470 C   0  0  1  0  0  3  0  0  0  0  0  0
  179.9820  181.8950  137.1540 C   0  0  0  0  0  2  0  0  0  0  0  0
  181.4920  183.6830  136.9970 C   0  0  0  0  0  2  0  0  0  0  0  0
  180.4480  184.7530  135.1370 O   0  0  0  0  0  1  0  0  0  0  0  0
  180.4150  184.6460  136.5280 C   0  0  0  0  0  2  0  0  0  0  0  0
  1  6  1  0  0  0  0
  2 11  2  0  0  0  0
  2 12  1  0  0  0  0
  3 16  1  6  0  0  0
  3 10  1  0  0  0  0
  4  8  1  0  0  0  0
  5  1  1  0  0  0  0
  7  9  1  0  0  0  0
  7  4  2  0  0  0  0
  8  1  2  0  0  0  0
  9  5  1  0  0  0  0
 10 11  1  0  0  0  0
 11  7  1  0  0  0  0
 12 15  2  0  0  0  0
 13 35  1  6  0  0  0
 13  2  1  0  0  0  0
 14  3  1  0  0  0  0
 14 13  1  0  0  0  0
 15  4  1  0  0  0  0
 16 17  1  0  0  0  0
 18 16  2  0  0  0  0
 19 20  1  6  0  0  0
 19 17  1  0  0  0  0
 21 19  1  6  0  0  0
 21 22  1  0  0  0  0
 22 25  1  0  0  0  0
 23 25  1  0  0  0  0
 24 26  1  0  0  0  0
 24 21  1  0  0  0  0
 24 22  1  0  0  0  0
 25 27  1  0  0  0  0
 26 23  1  0  0  0  0
 27 28  1  0  0  0  0
 28 29  1  0  0  0  0
 29 33  1  0  0  0  0
 29 34  1  0  0  0  0
 30 32  1  0  0  0  0
 31 32  1  0  0  0  0
 33 31  1  0  0  0  0
 34 30  1  0  0  0  0
 36 38  1  0  0  0  0
 37 39  1  0  0  0  0
 38 39  1  0  0  0  0
 39 35  1  0  0  0  0
 40 37  1  0  0  0  0
 40 36  1  0  0  0  0
 41 36  1  0  0  0  0
 42 43  1  0  0  0  0
 43 41  1  0  0  0  0
M  END
>  <MODEL>
2

>  <REMARK>
 VINA RESULT:      -8.1      2.951     10.215
  Name = 
  10 active torsions:
  status: ('A' for Active; 'I' for Inactive)
    1  A    between atoms: N_1  and  C_34
    2  A    between atoms: N_1  and  C_35
    3  A    between atoms: C_2  and  C_13
    4  A    between atoms: C_3  and  C_12
    5  A    between atoms: N_6  and  C_12
    6  A    between atoms: C_9  and  N_19
    7  A    between atoms: C_9  and  C_37
    8  A    between atoms: N_11  and  C_14
    9  A    between atoms: C_14  and  C_41
   10  A    between atoms: C_22  and  C_41
                            x       y       z     vdW  Elec       q    Type
                         _______ _______ _______ _____ _____    ______ ____

>  <TORSDO>
F 10

$$$$
=
 OpenBabel10272414163D

 43 49  0  0  1  0  0  0  0  0999 V2000
  188.9140  177.7270  145.0830 C   0  0  0  0  0  0  0  0  0  0  0  0
  190.6060  177.3200  140.3040 C   0  0  0  0  0  0  0  0  0  0  0  0
  188.3050  177.1090  138.5600 C   0  0  2  0  0  3  0  0  0  0  0  0
  190.2860  177.6500  143.0670 C   0  0  0  0  0  0  0  0  0  0  0  0
  187.7230  177.2830  144.2760 C   0  0  0  0  0  2  0  0  0  0  0  0
  188.7840  177.9120  146.4190 F   0  0  0  0  0  0  0  0  0  0  0  0
  189.1500  177.5840  142.2370 C   0  0  0  0  0  0  0  0  0  0  0  0
  190.1210  177.8320  144.5180 C   0  0  0  0  0  3  0  0  0  0  0  0
  187.7860  177.8040  142.8370 C   0  0  0  0  0  2  0  0  0  0  0  0
  188.1690  177.3870  139.9870 N   0  0  0  0  0  2  0  0  0  0  0  0
  189.3100  177.4120  140.8530 C   0  0  0  0  0  0  0  0  0  0  0  0
  191.7250  177.3830  141.1410 C   0  0  0  0  0  3  0  0  0  0  0  0
  190.8010  177.1190  138.8270 C   0  0  2  0  0  3  0  0  0  0  0  0
  189.6180  177.6810  138.0300 C   0  0  0  0  0  2  0  0  0  0  0  0
  191.5660  177.5520  142.5170 C   0  0  0  0  0  3  0  0  0  0  0  0
  187.1460  177.6630  137.8010 C   0  0  0  0  0  0  0  0  0  0  0  0
  186.3610  176.8120  136.9570 N   0  0  0  0  0  2  0  0  0  0  0  0
  186.8420  178.8770  137.9420 O   0  0  0  0  0  0  0  0  0  0  0  0
  185.2090  177.2860  136.2020 C   0  0  1  0  0  3  0  0  0  0  0  0
  185.4070  177.0030  134.7230 C   0  0  0  0  0  1  0  0  0  0  0  0
  183.9640  176.5640  136.6820 C   0  0  2  0  0  3  0  0  0  0  0  0
  184.2460  175.9050  137.9750 N   0  0  2  0  0  0  0  0  0  0  0  0
  182.0670  174.8780  137.8070 N   0  0  0  0  0  2  0  0  0  0  0  0
  184.1990  175.1240  136.7310 C   0  0  1  0  0  3  0  0  0  0  0  0
  183.0030  175.5740  138.6800 C   0  0  2  0  0  3  0  0  0  0  0  0
  182.8740  174.3890  136.7040 C   0  0  0  0  0  2  0  0  0  0  0  0
  182.3750  176.7850  139.3770 C   0  0  0  0  0  2  0  0  0  0  0  0
  183.4090  177.7980  139.8470 C   0  0  0  0  0  2  0  0  0  0  0  0
  183.3250  177.9580  141.2890 N   0  0  0  0  0  0  0  0  0  0  0  0
  184.3660  179.1950  143.1710 C   0  0  0  0  0  2  0  0  0  0  0  0
  181.9870  179.0950  143.0420 C   0  0  0  0  0  2  0  0  0  0  0  0
  183.1590  178.6540  143.8000 N   0  0  0  0  0  2  0  0  0  0  0  0
  182.0850  178.6860  141.5630 C   0  0  0  0  0  2  0  0  0  0  0  0
  184.4590  178.7940  141.6910 C   0  0  0  0  0  2  0  0  0  0  0  0
  190.9710  175.7010  138.5410 N   0  0  0  0  0  2  0  0  0  0  0  0
  193.4760  174.0340  137.6470 N   0  0  0  0  0  0  0  0  0  0  0  0
  192.9860  176.3740  137.3900 C   0  0  0  0  0  2  0  0  0  0  0  0
  192.1380  174.1580  137.0930 C   0  0  0  0  0  2  0  0  0  0  0  0
  191.6990  175.5910  137.2880 C   0  0  1  0  0  3  0  0  0  0  0  0
  194.0920  175.3400  137.4590 C   0  0  0  0  0  2  0  0  0  0  0  0
  194.1970  173.0870  136.8130 C   0  0  0  0  0  2  0  0  0  0  0  0
  195.2990  172.3550  138.7990 O   0  0  0  0  0  1  0  0  0  0  0  0
  195.5150  172.7120  137.4680 C   0  0  0  0  0  2  0  0  0  0  0  0
  1  6  1  0  0  0  0
  2 11  2  0  0  0  0
  2 12  1  0  0  0  0
  3 16  1  6  0  0  0
  3 10  1  0  0  0  0
  4  8  1  0  0  0  0
  5  1  1  0  0  0  0
  7  9  1  0  0  0  0
  7  4  2  0  0  0  0
  8  1  2  0  0  0  0
  9  5  1  0  0  0  0
 10 11  1  0  0  0  0
 11  7  1  0  0  0  0
 12 15  2  0  0  0  0
 13 35  1  1  0  0  0
 13  2  1  0  0  0  0
 14  3  1  0  0  0  0
 14 13  1  0  0  0  0
 15  4  1  0  0  0  0
 16 18  2  0  0  0  0
 17 16  1  0  0  0  0
 19 20  1  6  0  0  0
 19 17  1  0  0  0  0
 21 19  1  6  0  0  0
 21 24  1  0  0  0  0
 21 22  1  0  0  0  0
 22 25  1  0  0  0  0
 23 25  1  0  0  0  0
 24 22  1  0  0  0  0
 25 27  1  0  0  0  0
 26 24  1  0  0  0  0
 26 23  1  0  0  0  0
 27 28  1  0  0  0  0
 28 29  1  0  0  0  0
 29 33  1  0  0  0  0
 29 34  1  0  0  0  0
 30 32  1  0  0  0  0
 31 32  1  0  0  0  0
 33 31  1  0  0  0  0
 34 30  1  0  0  0  0
 37 40  1  0  0  0  0
 38 39  1  0  0  0  0
 38 36  1  0  0  0  0
 39 37  1  0  0  0  0
 39 35  1  0  0  0  0
 40 36  1  0  0  0  0
 41 43  1  0  0  0  0
 41 36  1  0  0  0  0
 43 42  1  0  0  0  0
M  END
>  <MODEL>
3

>  <REMARK>
 VINA RESULT:      -8.1      2.930      3.605
  Name = 
  10 active torsions:
  status: ('A' for Active; 'I' for Inactive)
    1  A    between atoms: N_1  and  C_34
    2  A    between atoms: N_1  and  C_35
    3  A    between atoms: C_2  and  C_13
    4  A    between atoms: C_3  and  C_12
    5  A    between atoms: N_6  and  C_12
    6  A    between atoms: C_9  and  N_19
    7  A    between atoms: C_9  and  C_37
    8  A    between atoms: N_11  and  C_14
    9  A    between atoms: C_14  and  C_41
   10  A    between atoms: C_22  and  C_41
                            x       y       z     vdW  Elec       q    Type
                         _______ _______ _______ _____ _____    ______ ____

>  <TORSDO>
F 10

$$$$
=
 OpenBabel10272414163D

 43 49  0  0  1  0  0  0  0  0999 V2000
  188.6320  177.5660  145.1810 C   0  0  0  0  0  0  0  0  0  0  0  0
  190.6700  177.2720  140.5300 C   0  0  0  0  0  0  0  0  0  0  0  0
  188.5050  177.0290  138.6230 C   0  0  2  0  0  3  0  0  0  0  0  0
  190.1460  177.5540  143.2670 C   0  0  0  0  0  0  0  0  0  0  0  0
  187.5140  177.1040  144.2850 C   0  0  0  0  0  2  0  0  0  0  0  0
  188.4030  177.7270  146.5060 F   0  0  0  0  0  0  0  0  0  0  0  0
  189.0740  177.4710  142.3570 C   0  0  0  0  0  0  0  0  0  0  0  0
  189.8730  177.7090  144.7050 C   0  0  0  0  0  3  0  0  0  0  0  0
  187.6650  177.6480  142.8620 C   0  0  0  0  0  2  0  0  0  0  0  0
  188.2610  177.2830  140.0400 N   0  0  0  0  0  2  0  0  0  0  0  0
  189.3370  177.3240  140.9860 C   0  0  0  0  0  0  0  0  0  0  0  0
  191.7240  177.3510  141.4460 C   0  0  0  0  0  3  0  0  0  0  0  0
  190.9740  177.0990  139.0680 C   0  0  2  0  0  3  0  0  0  0  0  0
  189.8370  177.6430  138.1960 C   0  0  0  0  0  2  0  0  0  0  0  0
  191.4640  177.4960  142.8090 C   0  0  0  0  0  3  0  0  0  0  0  0
  187.3890  177.5660  137.7910 C   0  0  0  0  0  0  0  0  0  0  0  0
  186.6870  176.7080  136.8840 N   0  0  0  0  0  2  0  0  0  0  0  0
  187.0450  178.7700  137.9250 O   0  0  0  0  0  0  0  0  0  0  0  0
  185.5790  177.1640  136.0550 C   0  0  1  0  0  3  0  0  0  0  0  0
  186.0570  177.3870  134.6300 C   0  0  0  0  0  1  0  0  0  0  0  0
  184.4880  176.1100  136.0530 C   0  0  2  0  0  3  0  0  0  0  0  0
  184.3620  175.5300  137.4070 N   0  0  2  0  0  0  0  0  0  0  0  0
  182.8140  173.9340  136.4640 N   0  0  0  0  0  2  0  0  0  0  0  0
  185.0520  174.7940  136.3380 C   0  0  1  0  0  3  0  0  0  0  0  0
  183.0740  174.8470  137.5700 C   0  0  2  0  0  3  0  0  0  0  0  0
  184.1090  173.7160  135.8450 C   0  0  0  0  0  2  0  0  0  0  0  0
  181.9150  175.8170  137.8220 C   0  0  0  0  0  2  0  0  0  0  0  0
  182.0220  176.5290  139.1640 C   0  0  0  0  0  2  0  0  0  0  0  0
  182.8540  177.7130  139.0300 N   0  0  0  0  0  0  0  0  0  0  0  0
  182.7090  180.1870  138.9170 C   0  0  0  0  0  2  0  0  0  0  0  0
  184.3440  179.1990  140.3450 C   0  0  0  0  0  2  0  0  0  0  0  0
  184.1450  179.9810  139.1230 N   0  0  0  0  0  2  0  0  0  0  0  0
  183.5830  177.8640  140.2900 C   0  0  0  0  0  2  0  0  0  0  0  0
  181.9490  178.8530  138.8720 C   0  0  0  0  0  2  0  0  0  0  0  0
  191.2010  175.6900  138.7770 N   0  0  0  0  0  2  0  0  0  0  0  0
  193.7170  174.1530  137.6980 N   0  0  0  0  0  0  0  0  0  0  0  0
  193.0820  176.4610  137.4710 C   0  0  0  0  0  2  0  0  0  0  0  0
  192.3350  174.2000  137.2490 C   0  0  0  0  0  2  0  0  0  0  0  0
  191.8360  175.6090  137.4720 C   0  0  1  0  0  3  0  0  0  0  0  0
  194.2450  175.4880  137.4580 C   0  0  0  0  0  2  0  0  0  0  0  0
  194.4220  173.2400  136.8140 C   0  0  0  0  0  2  0  0  0  0  0  0
  195.6300  172.5100  138.7390 O   0  0  0  0  0  1  0  0  0  0  0  0
  194.9580  172.0570  137.6040 C   0  0  0  0  0  2  0  0  0  0  0  0
  1  6  1  0  0  0  0
  2 11  2  0  0  0  0
  2 12  1  0  0  0  0
  3 16  1  6  0  0  0
  3 10  1  0  0  0  0
  4  8  1  0  0  0  0
  5  1  1  0  0  0  0
  7  9  1  0  0  0  0
  7  4  2  0  0  0  0
  8  1  2  0  0  0  0
  9  5  1  0  0  0  0
 10 11  1  0  0  0  0
 11  7  1  0  0  0  0
 12 15  2  0  0  0  0
 13 35  1  1  0  0  0
 13  2  1  0  0  0  0
 14  3  1  0  0  0  0
 14 13  1  0  0  0  0
 15  4  1  0  0  0  0
 16 18  2  0  0  0  0
 17 16  1  0  0  0  0
 19 20  1  6  0  0  0
 19 17  1  0  0  0  0
 21 19  1  1  0  0  0
 21 24  1  0  0  0  0
 21 22  1  0  0  0  0
 22 25  1  0  0  0  0
 23 25  1  0  0  0  0
 24 22  1  0  0  0  0
 25 27  1  0  0  0  0
 26 24  1  0  0  0  0
 26 23  1  0  0  0  0
 27 28  1  0  0  0  0
 29 28  1  0  0  0  0
 29 33  1  0  0  0  0
 30 32  1  0  0  0  0
 32 31  1  0  0  0  0
 33 31  1  0  0  0  0
 34 30  1  0  0  0  0
 34 29  1  0  0  0  0
 37 39  1  0  0  0  0
 38 39  1  0  0  0  0
 38 36  1  0  0  0  0
 39 35  1  0  0  0  0
 40 37  1  0  0  0  0
 40 36  1  0  0  0  0
 41 43  1  0  0  0  0
 41 36  1  0  0  0  0
 43 42  1  0  0  0  0
M  END
>  <MODEL>
4

>  <REMARK>
 VINA RESULT:      -8.0      2.002      3.193
  Name = 
  10 active torsions:
  status: ('A' for Active; 'I' for Inactive)
    1  A    between atoms: N_1  and  C_34
    2  A    between atoms: N_1  and  C_35
    3  A    between atoms: C_2  and  C_13
    4  A    between atoms: C_3  and  C_12
    5  A    between atoms: N_6  and  C_12
    6  A    between atoms: C_9  and  N_19
    7  A    between atoms: C_9  and  C_37
    8  A    between atoms: N_11  and  C_14
    9  A    between atoms: C_14  and  C_41
   10  A    between atoms: C_22  and  C_41
                            x       y       z     vdW  Elec       q    Type
                         _______ _______ _______ _____ _____    ______ ____

>  <TORSDO>
F 10

$$$$
=
 OpenBabel10272414163D

 43 49  0  0  1  0  0  0  0  0999 V2000
  184.7560  178.7590  145.6700 C   0  0  0  0  0  0  0  0  0  0  0  0
  182.3900  178.9860  141.1730 C   0  0  0  0  0  0  0  0  0  0  0  0
  184.4140  179.0200  139.1030 C   0  0  2  0  0  3  0  0  0  0  0  0
  183.1040  178.7850  143.8740 C   0  0  0  0  0  0  0  0  0  0  0  0
  185.8270  179.1170  144.6740 C   0  0  0  0  0  2  0  0  0  0  0  0
  185.0760  178.6380  146.9810 F   0  0  0  0  0  0  0  0  0  0  0  0
  184.1070  178.7660  142.8850 C   0  0  0  0  0  0  0  0  0  0  0  0
  183.4760  178.6720  145.2930 C   0  0  0  0  0  3  0  0  0  0  0  0
  185.5370  178.5250  143.2920 C   0  0  0  0  0  2  0  0  0  0  0  0
  184.7500  178.8110  140.5080 N   0  0  0  0  0  2  0  0  0  0  0  0
  183.7490  178.8730  141.5310 C   0  0  0  0  0  0  0  0  0  0  0  0
  181.4050  179.0070  142.1660 C   0  0  0  0  0  3  0  0  0  0  0  0
  181.9850  179.1180  139.7310 C   0  0  2  0  0  3  0  0  0  0  0  0
  183.0200  178.4710  138.8030 C   0  0  0  0  0  2  0  0  0  0  0  0
  181.7610  178.9030  143.5120 C   0  0  0  0  0  3  0  0  0  0  0  0
  185.4310  178.3850  138.2160 C   0  0  0  0  0  0  0  0  0  0  0  0
  186.8240  178.4720  138.5340 N   0  0  0  0  0  2  0  0  0  0  0  0
  185.0470  177.7360  137.2070 O   0  0  0  0  0  0  0  0  0  0  0  0
  187.8660  177.8600  137.7190 C   0  0  1  0  0  3  0  0  0  0  0  0
  188.6190  178.9340  136.9520 C   0  0  0  0  0  1  0  0  0  0  0  0
  188.8370  177.1210  138.6200 C   0  0  2  0  0  3  0  0  0  0  0  0
  189.7850  178.0850  139.2170 N   0  0  2  0  0  0  0  0  0  0  0  0
  190.9820  176.1900  140.1150 N   0  0  0  0  0  2  0  0  0  0  0  0
  190.1960  177.2270  138.0980 C   0  0  1  0  0  3  0  0  0  0  0  0
  190.4440  177.5150  140.3970 C   0  0  2  0  0  3  0  0  0  0  0  0
  191.0500  176.1120  138.6670 C   0  0  0  0  0  2  0  0  0  0  0  0
  189.5540  177.5400  141.6440 C   0  0  0  0  0  2  0  0  0  0  0  0
  189.4670  176.1860  142.3360 C   0  0  0  0  0  2  0  0  0  0  0  0
  189.8610  176.3160  143.7280 N   0  0  0  0  0  0  0  0  0  0  0  0
  191.3720  177.6150  145.2080 C   0  0  0  0  0  2  0  0  0  0  0  0
  189.1040  177.2980  145.8770 C   0  0  0  0  0  2  0  0  0  0  0  0
  190.4960  176.9560  146.1790 N   0  0  0  0  0  2  0  0  0  0  0  0
  188.7320  176.9230  144.4340 C   0  0  0  0  0  2  0  0  0  0  0  0
  190.9920  177.2460  143.7650 C   0  0  0  0  0  2  0  0  0  0  0  0
  181.8180  180.5250  139.3940 N   0  0  0  0  0  2  0  0  0  0  0  0
  180.8190  180.3060  136.4260 N   0  0  0  0  0  0  0  0  0  0  0  0
  180.4440  182.0130  138.0770 C   0  0  0  0  0  2  0  0  0  0  0  0
  180.3820  179.6600  137.6530 C   0  0  0  0  0  2  0  0  0  0  0  0
  180.5140  180.6730  138.7680 C   0  0  1  0  0  3  0  0  0  0  0  0
  180.4850  181.7130  136.5910 C   0  0  0  0  0  2  0  0  0  0  0  0
  179.9920  179.7840  135.3510 C   0  0  0  0  0  2  0  0  0  0  0  0
  180.5040  177.4920  134.9260 O   0  0  0  0  0  1  0  0  0  0  0  0
  180.7850  178.7950  134.5140 C   0  0  0  0  0  2  0  0  0  0  0  0
  1  6  1  0  0  0  0
  2 11  2  0  0  0  0
  2 12  1  0  0  0  0
  3 16  1  6  0  0  0
  3 10  1  0  0  0  0
  4  8  1  0  0  0  0
  5  1  1  0  0  0  0
  7  9  1  0  0  0  0
  7  4  2  0  0  0  0
  8  1  2  0  0  0  0
  9  5  1  0  0  0  0
 10 11  1  0  0  0  0
 11  7  1  0  0  0  0
 12 15  2  0  0  0  0
 13 35  1  6  0  0  0
 13  2  1  0  0  0  0
 14  3  1  0  0  0  0
 14 13  1  0  0  0  0
 15  4  1  0  0  0  0
 16 17  1  0  0  0  0
 18 16  2  0  0  0  0
 19 20  1  1  0  0  0
 19 17  1  0  0  0  0
 21 19  1  6  0  0  0
 21 22  1  0  0  0  0
 22 25  1  0  0  0  0
 23 25  1  0  0  0  0
 24 21  1  0  0  0  0
 24 26  1  0  0  0  0
 24 22  1  0  0  0  0
 25 27  1  0  0  0  0
 26 23  1  0  0  0  0
 27 28  1  0  0  0  0
 28 29  1  0  0  0  0
 29 34  1  0  0  0  0
 29 33  1  0  0  0  0
 30 32  1  0  0  0  0
 31 32  1  0  0  0  0
 33 31  1  0  0  0  0
 34 30  1  0  0  0  0
 36 40  1  0  0  0  0
 36 38  1  0  0  0  0
 37 39  1  0  0  0  0
 38 39  1  0  0  0  0
 39 35  1  0  0  0  0
 40 37  1  0  0  0  0
 41 36  1  0  0  0  0
 43 42  1  0  0  0  0
 43 41  1  0  0  0  0
M  END
>  <MODEL>
5

>  <REMARK>
 VINA RESULT:      -8.0      2.759      9.924
  Name = 
  10 active torsions:
  status: ('A' for Active; 'I' for Inactive)
    1  A    between atoms: N_1  and  C_34
    2  A    between atoms: N_1  and  C_35
    3  A    between atoms: C_2  and  C_13
    4  A    between atoms: C_3  and  C_12
    5  A    between atoms: N_6  and  C_12
    6  A    between atoms: C_9  and  N_19
    7  A    between atoms: C_9  and  C_37
    8  A    between atoms: N_11  and  C_14
    9  A    between atoms: C_14  and  C_41
   10  A    between atoms: C_22  and  C_41
                            x       y       z     vdW  Elec       q    Type
                         _______ _______ _______ _____ _____    ______ ____

>  <TORSDO>
F 10

$$$$
=
 OpenBabel10272414163D

 43 49  0  0  1  0  0  0  0  0999 V2000
  185.5460  178.6160  145.8160 C   0  0  0  0  0  0  0  0  0  0  0  0
  182.8110  178.7650  141.5310 C   0  0  0  0  0  0  0  0  0  0  0  0
  184.6530  178.7480  139.2980 C   0  0  2  0  0  3  0  0  0  0  0  0
  183.7490  178.6140  144.1660 C   0  0  0  0  0  0  0  0  0  0  0  0
  186.5300  178.9480  144.7270 C   0  0  0  0  0  2  0  0  0  0  0  0
  185.9750  178.5190  147.0980 F   0  0  0  0  0  0  0  0  0  0  0  0
  184.6650  178.5700  143.0960 C   0  0  0  0  0  0  0  0  0  0  0  0
  184.2380  178.5280  145.5510 C   0  0  0  0  0  3  0  0  0  0  0  0
  186.1230  178.3300  143.3860 C   0  0  0  0  0  2  0  0  0  0  0  0
  185.1060  178.5650  140.6740 N   0  0  0  0  0  2  0  0  0  0  0  0
  184.1950  178.6520  141.7760 C   0  0  0  0  0  0  0  0  0  0  0  0
  181.9130  178.8120  142.6030 C   0  0  0  0  0  3  0  0  0  0  0  0
  182.2870  178.8710  140.1260 C   0  0  2  0  0  3  0  0  0  0  0  0
  183.2380  178.2010  139.1270 C   0  0  0  0  0  2  0  0  0  0  0  0
  182.3800  178.7320  143.9160 C   0  0  0  0  0  3  0  0  0  0  0  0
  185.5890  178.0900  138.3410 C   0  0  0  0  0  0  0  0  0  0  0  0
  186.9970  178.3460  138.4140 N   0  0  0  0  0  2  0  0  0  0  0  0
  185.1330  177.2750  137.4960 O   0  0  0  0  0  0  0  0  0  0  0  0
  187.9660  177.7240  137.5210 C   0  0  1  0  0  3  0  0  0  0  0  0
  188.1650  178.5900  136.2900 C   0  0  0  0  0  1  0  0  0  0  0  0
  189.2910  177.5770  138.2450 C   0  0  2  0  0  3  0  0  0  0  0  0
  189.4990  176.1590  138.6070 N   0  0  2  0  0  0  0  0  0  0  0  0
  191.4500  176.8710  139.8400 N   0  0  0  0  0  2  0  0  0  0  0  0
  189.0750  177.1370  139.6190 C   0  0  1  0  0  3  0  0  0  0  0  0
  190.9110  175.8930  138.9030 C   0  0  2  0  0  3  0  0  0  0  0  0
  190.2870  177.4770  140.4620 C   0  0  0  0  0  2  0  0  0  0  0  0
  191.7660  175.7470  137.6400 C   0  0  0  0  0  2  0  0  0  0  0  0
  193.0710  176.5270  137.7170 C   0  0  0  0  0  2  0  0  0  0  0  0
  194.1970  175.6210  137.5750 N   0  0  0  0  0  0  0  0  0  0  0  0
  194.7410  173.2050  137.4180 C   0  0  0  0  0  2  0  0  0  0  0  0
  195.7550  174.7100  135.8710 C   0  0  0  0  0  2  0  0  0  0  0  0
  196.0040  173.8220  137.0090 N   0  0  0  0  0  2  0  0  0  0  0  0
  194.6910  175.7680  136.2050 C   0  0  0  0  0  2  0  0  0  0  0  0
  193.6750  174.2630  137.7420 C   0  0  0  0  0  2  0  0  0  0  0  0
  182.0960  180.2720  139.7760 N   0  0  0  0  0  2  0  0  0  0  0  0
  180.9930  182.2880  137.6380 N   0  0  0  0  0  0  0  0  0  0  0  0
  180.0070  181.4820  139.6770 C   0  0  0  0  0  2  0  0  0  0  0  0
  181.0990  180.8390  137.6490 C   0  0  0  0  0  2  0  0  0  0  0  0
  180.8330  180.3770  139.0640 C   0  0  1  0  0  3  0  0  0  0  0  0
  180.0130  182.6110  138.6650 C   0  0  0  0  0  2  0  0  0  0  0  0
  180.4210  182.6640  136.3550 C   0  0  0  0  0  2  0  0  0  0  0  0
  181.8670  184.5010  136.8380 O   0  0  0  0  0  1  0  0  0  0  0  0
  180.8460  184.0760  135.9880 C   0  0  0  0  0  2  0  0  0  0  0  0
  1  6  1  0  0  0  0
  2 11  2  0  0  0  0
  2 12  1  0  0  0  0
  3 16  1  6  0  0  0
  3 10  1  0  0  0  0
  4  8  1  0  0  0  0
  5  1  1  0  0  0  0
  7  9  1  0  0  0  0
  7  4  2  0  0  0  0
  8  1  2  0  0  0  0
  9  5  1  0  0  0  0
 10 11  1  0  0  0  0
 11  7  1  0  0  0  0
 12 15  2  0  0  0  0
 13 35  1  6  0  0  0
 13  2  1  0  0  0  0
 14  3  1  0  0  0  0
 14 13  1  0  0  0  0
 15  4  1  0  0  0  0
 16 17  1  0  0  0  0
 18 16  2  0  0  0  0
 19 20  1  6  0  0  0
 19 17  1  0  0  0  0
 21 19  1  6  0  0  0
 21 22  1  0  0  0  0
 21 24  1  0  0  0  0
 22 25  1  0  0  0  0
 22 24  1  0  0  0  0
 23 26  1  0  0  0  0
 24 26  1  0  0  0  0
 25 23  1  0  0  0  0
 27 28  1  0  0  0  0
 27 25  1  0  0  0  0
 29 28  1  0  0  0  0
 29 34  1  0  0  0  0
 30 34  1  0  0  0  0
 31 33  1  0  0  0  0
 31 32  1  0  0  0  0
 32 30  1  0  0  0  0
 33 29  1  0  0  0  0
 36 38  1  0  0  0  0
 36 40  1  0  0  0  0
 38 39  1  0  0  0  0
 39 37  1  0  0  0  0
 39 35  1  0  0  0  0
 40 37  1  0  0  0  0
 41 36  1  0  0  0  0
 43 41  1  0  0  0  0
 43 42  1  0  0  0  0
M  END
>  <MODEL>
6

>  <REMARK>
 VINA RESULT:      -7.9      2.455     10.696
  Name = 
  10 active torsions:
  status: ('A' for Active; 'I' for Inactive)
    1  A    between atoms: N_1  and  C_34
    2  A    between atoms: N_1  and  C_35
    3  A    between atoms: C_2  and  C_13
    4  A    between atoms: C_3  and  C_12
    5  A    between atoms: N_6  and  C_12
    6  A    between atoms: C_9  and  N_19
    7  A    between atoms: C_9  and  C_37
    8  A    between atoms: N_11  and  C_14
    9  A    between atoms: C_14  and  C_41
   10  A    between atoms: C_22  and  C_41
                            x       y       z     vdW  Elec       q    Type
                         _______ _______ _______ _____ _____    ______ ____

>  <TORSDO>
F 10

$$$$
=
 OpenBabel10272414163D

 43 49  0  0  1  0  0  0  0  0999 V2000
  192.9530  174.4430  135.7610 C   0  0  0  0  0  0  0  0  0  0  0  0
  189.2110  177.4290  137.4770 C   0  0  0  0  0  0  0  0  0  0  0  0
  189.2390  177.3180  140.3700 C   0  0  2  0  0  3  0  0  0  0  0  0
  191.1150  176.0340  135.9690 C   0  0  0  0  0  0  0  0  0  0  0  0
  192.7940  174.0860  137.2140 C   0  0  0  0  0  2  0  0  0  0  0  0
  193.8780  173.7960  135.0110 F   0  0  0  0  0  0  0  0  0  0  0  0
  191.1710  175.9900  137.3760 C   0  0  0  0  0  0  0  0  0  0  0  0
  192.1180  175.3070  135.1750 C   0  0  0  0  0  3  0  0  0  0  0  0
  192.3220  175.2830  138.0440 C   0  0  0  0  0  2  0  0  0  0  0  0
  190.2800  176.6880  139.5630 N   0  0  0  0  0  2  0  0  0  0  0  0
  190.2130  176.6840  138.1310 C   0  0  0  0  0  0  0  0  0  0  0  0
  189.1650  177.4610  136.0790 C   0  0  0  0  0  3  0  0  0  0  0  0
  188.1660  178.1680  138.2660 C   0  0  2  0  0  3  0  0  0  0  0  0
  188.6870  178.5510  139.6560 C   0  0  0  0  0  2  0  0  0  0  0  0
  190.1160  176.7690  135.3280 C   0  0  0  0  0  3  0  0  0  0  0  0
  189.7640  177.6840  141.7170 C   0  0  0  0  0  0  0  0  0  0  0  0
  190.8840  176.9840  142.2720 N   0  0  0  0  0  2  0  0  0  0  0  0
  189.2370  178.6420  142.3430 O   0  0  0  0  0  0  0  0  0  0  0  0
  191.4540  177.3020  143.5740 C   0  0  1  0  0  3  0  0  0  0  0  0
  191.6900  178.7990  143.6840 C   0  0  0  0  0  1  0  0  0  0  0  0
  190.4900  176.8710  144.6630 C   0  0  2  0  0  3  0  0  0  0  0  0
  189.8660  178.0670  145.2680 N   0  0  2  0  0  0  0  0  0  0  0  0
  188.8670  176.5900  146.8980 N   0  0  0  0  0  2  0  0  0  0  0  0
  190.9440  177.3510  145.9640 C   0  0  1  0  0  3  0  0  0  0  0  0
  188.6420  177.7120  145.9950 C   0  0  2  0  0  3  0  0  0  0  0  0
  190.3080  176.5260  147.0640 C   0  0  0  0  0  2  0  0  0  0  0  0
  187.4420  177.4940  145.0670 C   0  0  0  0  0  2  0  0  0  0  0  0
  186.2000  178.2470  145.5210 C   0  0  0  0  0  2  0  0  0  0  0  0
  185.1820  178.1900  144.4860 N   0  0  0  0  0  0  0  0  0  0  0  0
  183.0360  179.2380  143.8110 C   0  0  0  0  0  2  0  0  0  0  0  0
  184.7310  178.9320  142.1610 C   0  0  0  0  0  2  0  0  0  0  0  0
  183.4020  178.5000  142.6000 N   0  0  0  0  0  2  0  0  0  0  0  0
  185.7780  178.7500  143.2730 C   0  0  0  0  0  2  0  0  0  0  0  0
  184.0870  179.0630  144.9170 C   0  0  0  0  0  2  0  0  0  0  0  0
  186.9690  177.3460  138.3860 N   0  0  0  0  0  2  0  0  0  0  0  0
  183.8830  177.6380  138.8800 N   0  0  0  0  0  0  0  0  0  0  0  0
  185.0920  176.9910  136.9060 C   0  0  0  0  0  2  0  0  0  0  0  0
  184.9310  178.6180  138.6510 C   0  0  0  0  0  2  0  0  0  0  0  0
  185.9030  178.0170  137.6610 C   0  0  1  0  0  3  0  0  0  0  0  0
  183.7640  176.9020  137.6300 C   0  0  0  0  0  2  0  0  0  0  0  0
  182.6450  178.3750  139.0730 C   0  0  0  0  0  2  0  0  0  0  0  0
  181.8640  180.3900  138.0590 O   0  0  0  0  0  1  0  0  0  0  0  0
  182.8810  179.8600  138.8540 C   0  0  0  0  0  2  0  0  0  0  0  0
  1  5  1  0  0  0  0
  2 11  1  0  0  0  0
  2 13  1  0  0  0  0
  3 16  1  1  0  0  0
  4  7  1  0  0  0  0
  5  9  1  0  0  0  0
  6  1  1  0  0  0  0
  7  9  1  0  0  0  0
  7 11  2  0  0  0  0
  8  1  2  0  0  0  0
  8  4  1  0  0  0  0
 10  3  1  0  0  0  0
 11 10  1  0  0  0  0
 12  2  2  0  0  0  0
 13 35  1  1  0  0  0
 13 14  1  0  0  0  0
 14  3  1  0  0  0  0
 15  4  2  0  0  0  0
 15 12  1  0  0  0  0
 16 17  1  0  0  0  0
 16 18  2  0  0  0  0
 17 19  1  0  0  0  0
 19 20  1  6  0  0  0
 21 19  1  6  0  0  0
 21 22  1  0  0  0  0
 21 24  1  0  0  0  0
 22 24  1  0  0  0  0
 22 25  1  0  0  0  0
 23 26  1  0  0  0  0
 24 26  1  0  0  0  0
 25 23  1  0  0  0  0
 27 28  1  0  0  0  0
 27 25  1  0  0  0  0
 29 34  1  0  0  0  0
 29 28  1  0  0  0  0
 30 34  1  0  0  0  0
 31 32  1  0  0  0  0
 31 33  1  0  0  0  0
 32 30  1  0  0  0  0
 33 29  1  0  0  0  0
 36 41  1  0  0  0  0
 37 40  1  0  0  0  0
 37 39  1  0  0  0  0
 38 36  1  0  0  0  0
 39 35  1  0  0  0  0
 39 38  1  0  0  0  0
 40 36  1  0  0  0  0
 42 43  1  0  0  0  0
 43 41  1  0  0  0  0
M  END
>  <MODEL>
7

>  <REMARK>
 VINA RESULT:      -7.5      3.668      8.796
  Name = 
  10 active torsions:
  status: ('A' for Active; 'I' for Inactive)
    1  A    between atoms: N_1  and  C_34
    2  A    between atoms: N_1  and  C_35
    3  A    between atoms: C_2  and  C_13
    4  A    between atoms: C_3  and  C_12
    5  A    between atoms: N_6  and  C_12
    6  A    between atoms: C_9  and  N_19
    7  A    between atoms: C_9  and  C_37
    8  A    between atoms: N_11  and  C_14
    9  A    between atoms: C_14  and  C_41
   10  A    between atoms: C_22  and  C_41
                            x       y       z     vdW  Elec       q    Type
                         _______ _______ _______ _____ _____    ______ ____

>  <TORSDO>
F 10

$$$$
=
 OpenBabel10272414163D

 43 49  0  0  1  0  0  0  0  0999 V2000
  184.2860  173.0210  135.7570 C   0  0  0  0  0  0  0  0  0  0  0  0
  189.1690  174.1520  136.6130 C   0  0  0  0  0  0  0  0  0  0  0  0
  189.2740  176.7710  137.8440 C   0  0  2  0  0  3  0  0  0  0  0  0
  186.7150  172.9620  135.9810 C   0  0  0  0  0  0  0  0  0  0  0  0
  184.3040  174.4940  136.0670 C   0  0  0  0  0  2  0  0  0  0  0  0
  183.1100  172.4150  135.4640 F   0  0  0  0  0  0  0  0  0  0  0  0
  186.7360  174.2220  136.6100 C   0  0  0  0  0  0  0  0  0  0  0  0
  185.4260  172.3310  135.6550 C   0  0  0  0  0  3  0  0  0  0  0  0
  185.4370  174.8560  137.0320 C   0  0  0  0  0  2  0  0  0  0  0  0
  188.0100  176.0830  137.6000 N   0  0  0  0  0  2  0  0  0  0  0  0
  187.9670  174.8220  136.9210 C   0  0  0  0  0  0  0  0  0  0  0  0
  189.1330  172.9030  135.9850 C   0  0  0  0  0  3  0  0  0  0  0  0
  190.4990  174.7830  136.9230 C   0  0  2  0  0  3  0  0  0  0  0  0
  190.3890  175.7590  138.1000 C   0  0  0  0  0  2  0  0  0  0  0  0
  187.9090  172.3080  135.6740 C   0  0  0  0  0  3  0  0  0  0  0  0
  189.1490  177.7160  138.9910 C   0  0  0  0  0  0  0  0  0  0  0  0
  188.9960  177.2170  140.3250 N   0  0  0  0  0  2  0  0  0  0  0  0
  189.2220  178.9550  138.7790 O   0  0  0  0  0  0  0  0  0  0  0  0
  188.8850  178.0850  141.4900 C   0  0  1  0  0  3  0  0  0  0  0  0
  187.4240  178.3870  141.7730 C   0  0  0  0  0  1  0  0  0  0  0  0
  189.4880  177.3860  142.6940 C   0  0  2  0  0  3  0  0  0  0  0  0
  190.6380  178.1690  143.1930 N   0  0  2  0  0  0  0  0  0  0  0  0
  191.0870  176.3460  144.7120 N   0  0  0  0  0  2  0  0  0  0  0  0
  190.8500  176.9500  142.4000 C   0  0  1  0  0  3  0  0  0  0  0  0
  190.9760  177.7920  144.5700 C   0  0  2  0  0  3  0  0  0  0  0  0
  191.2520  175.8470  143.3580 C   0  0  0  0  0  2  0  0  0  0  0  0
  190.0370  178.4200  145.6040 C   0  0  0  0  0  2  0  0  0  0  0  0
  188.9060  177.4880  146.0170 C   0  0  0  0  0  2  0  0  0  0  0  0
  187.6440  178.2080  146.0080 N   0  0  0  0  0  0  0  0  0  0  0  0
  185.3400  178.0820  145.0970 C   0  0  0  0  0  2  0  0  0  0  0  0
  185.6330  178.6200  147.4020 C   0  0  0  0  0  2  0  0  0  0  0  0
  185.2060  179.1400  146.1010 N   0  0  0  0  0  2  0  0  0  0  0  0
  187.0680  178.0710  147.3460 C   0  0  0  0  0  2  0  0  0  0  0  0
  186.7710  177.5270  145.0490 C   0  0  0  0  0  2  0  0  0  0  0  0
  191.0030  175.4720  135.7430 N   0  0  0  0  0  2  0  0  0  0  0  0
  193.9760  175.3660  136.7450 N   0  0  0  0  0  0  0  0  0  0  0  0
  193.0840  175.7070  134.5380 C   0  0  0  0  0  2  0  0  0  0  0  0
  192.9950  174.3250  136.4880 C   0  0  0  0  0  2  0  0  0  0  0  0
  192.1830  174.7550  135.2880 C   0  0  1  0  0  3  0  0  0  0  0  0
  194.2790  175.9390  135.4410 C   0  0  0  0  0  2  0  0  0  0  0  0
  195.1810  174.7090  137.2230 C   0  0  0  0  0  2  0  0  0  0  0  0
  195.3540  172.9690  138.8480 O   0  0  0  0  0  1  0  0  0  0  0  0
  194.8840  173.2590  137.5670 C   0  0  0  0  0  2  0  0  0  0  0  0
  1  5  1  0  0  0  0
  2 11  1  0  0  0  0
  2 13  1  0  0  0  0
  3 14  1  0  0  0  0
  3 16  1  1  0  0  0
  4  7  1  0  0  0  0
  5  9  1  0  0  0  0
  6  1  1  0  0  0  0
  7 11  2  0  0  0  0
  7  9  1  0  0  0  0
  8  1  2  0  0  0  0
  8  4  1  0  0  0  0
 10  3  1  0  0  0  0
 11 10  1  0  0  0  0
 12  2  2  0  0  0  0
 13 35  1  6  0  0  0
 13 14  1  0  0  0  0
 15  4  2  0  0  0  0
 15 12  1  0  0  0  0
 16 17  1  0  0  0  0
 17 19  1  0  0  0  0
 18 16  2  0  0  0  0
 19 20  1  1  0  0  0
 21 19  1  6  0  0  0
 21 22  1  0  0  0  0
 22 25  1  0  0  0  0
 24 21  1  0  0  0  0
 24 22  1  0  0  0  0
 24 26  1  0  0  0  0
 25 23  1  0  0  0  0
 25 27  1  0  0  0  0
 26 23  1  0  0  0  0
 27 28  1  0  0  0  0
 29 28  1  0  0  0  0
 29 33  1  0  0  0  0
 30 32  1  0  0  0  0
 32 31  1  0  0  0  0
 33 31  1  0  0  0  0
 34 30  1  0  0  0  0
 34 29  1  0  0  0  0
 36 41  1  0  0  0  0
 37 39  1  0  0  0  0
 37 40  1  0  0  0  0
 38 36  1  0  0  0  0
 39 35  1  0  0  0  0
 39 38  1  0  0  0  0
 40 36  1  0  0  0  0
 41 43  1  0  0  0  0
 43 42  1  0  0  0  0
M  END
>  <MODEL>
8

>  <REMARK>
 VINA RESULT:      -7.5      4.992      8.028
  Name = 
  10 active torsions:
  status: ('A' for Active; 'I' for Inactive)
    1  A    between atoms: N_1  and  C_34
    2  A    between atoms: N_1  and  C_35
    3  A    between atoms: C_2  and  C_13
    4  A    between atoms: C_3  and  C_12
    5  A    between atoms: N_6  and  C_12
    6  A    between atoms: C_9  and  N_19
    7  A    between atoms: C_9  and  C_37
    8  A    between atoms: N_11  and  C_14
    9  A    between atoms: C_14  and  C_41
   10  A    between atoms: C_22  and  C_41
                            x       y       z     vdW  Elec       q    Type
                         _______ _______ _______ _____ _____    ______ ____

>  <TORSDO>
F 10

$$$$
=
 OpenBabel10272414163D

 43 49  0  0  1  0  0  0  0  0999 V2000
  190.5650  177.5490  144.2860 C   0  0  0  0  0  0  0  0  0  0  0  0
  191.0260  177.0960  139.2420 C   0  0  0  0  0  0  0  0  0  0  0  0
  188.3650  177.1120  138.1000 C   0  0  2  0  0  3  0  0  0  0  0  0
  191.4040  177.3980  142.0000 C   0  0  0  0  0  0  0  0  0  0  0  0
  189.1830  177.2210  143.7880 C   0  0  0  0  0  2  0  0  0  0  0  0
  190.7740  177.7170  145.6140 F   0  0  0  0  0  0  0  0  0  0  0  0
  190.1010  177.4430  141.4660 C   0  0  0  0  0  0  0  0  0  0  0  0
  191.6070  177.5630  143.4480 C   0  0  0  0  0  3  0  0  0  0  0  0
  188.9450  177.7640  142.3760 C   0  0  0  0  0  2  0  0  0  0  0  0
  188.5990  177.3720  139.5170 N   0  0  0  0  0  2  0  0  0  0  0  0
  189.9120  177.2850  140.0840 C   0  0  0  0  0  0  0  0  0  0  0  0
  192.3130  177.0490  139.7860 C   0  0  0  0  0  3  0  0  0  0  0  0
  190.8440  176.9090  137.7610 C   0  0  2  0  0  3  0  0  0  0  0  0
  189.5580  177.5830  137.2700 C   0  0  0  0  0  2  0  0  0  0  0  0
  192.5030  177.2030  141.1600 C   0  0  0  0  0  3  0  0  0  0  0  0
  187.1110  177.7760  137.6400 C   0  0  0  0  0  0  0  0  0  0  0  0
  185.9680  177.8380  138.5010 N   0  0  0  0  0  2  0  0  0  0  0  0
  187.0820  178.3170  136.5020 O   0  0  0  0  0  0  0  0  0  0  0  0
  184.7200  178.4850  138.1190 C   0  0  1  0  0  3  0  0  0  0  0  0
  183.9050  177.5570  137.2340 C   0  0  0  0  0  1  0  0  0  0  0  0
  183.9200  178.8070  139.3680 C   0  0  2  0  0  3  0  0  0  0  0  0
  183.9440  177.6440  140.2800 N   0  0  2  0  0  0  0  0  0  0  0  0
  182.3500  178.8250  141.6570 N   0  0  0  0  0  2  0  0  0  0  0  0
  182.7550  177.9330  139.4650 C   0  0  1  0  0  3  0  0  0  0  0  0
  183.5750  178.0360  141.6450 C   0  0  2  0  0  3  0  0  0  0  0  0
  181.7200  178.5620  140.3760 C   0  0  0  0  0  2  0  0  0  0  0  0
  184.7240  178.7130  142.3980 C   0  0  0  0  0  2  0  0  0  0  0  0
  184.2490  179.5220  143.5980 C   0  0  0  0  0  2  0  0  0  0  0  0
  185.0490  179.1920  144.7640 N   0  0  0  0  0  0  0  0  0  0  0  0
  184.8570  178.2340  147.0450 C   0  0  0  0  0  2  0  0  0  0  0  0
  186.6120  177.4670  145.6240 C   0  0  0  0  0  2  0  0  0  0  0  0
  186.3070  178.2260  146.8390 N   0  0  0  0  0  2  0  0  0  0  0  0
  185.8700  178.0360  144.4030 C   0  0  0  0  0  2  0  0  0  0  0  0
  184.1160  178.7940  145.8210 C   0  0  0  0  0  2  0  0  0  0  0  0
  190.8180  175.4870  137.4440 N   0  0  0  0  0  2  0  0  0  0  0  0
  193.6760  174.1880  137.3860 N   0  0  0  0  0  0  0  0  0  0  0  0
  192.8940  176.2790  136.4930 C   0  0  0  0  0  2  0  0  0  0  0  0
  192.4700  173.9290  136.6170 C   0  0  0  0  0  2  0  0  0  0  0  0
  191.7870  175.2570  136.3850 C   0  0  1  0  0  3  0  0  0  0  0  0
  194.1100  175.5180  136.9840 C   0  0  0  0  0  2  0  0  0  0  0  0
  194.6840  173.2440  136.9310 C   0  0  0  0  0  2  0  0  0  0  0  0
  195.3550  173.1560  139.2190 O   0  0  0  0  0  1  0  0  0  0  0  0
  195.8420  173.2030  137.9130 C   0  0  0  0  0  2  0  0  0  0  0  0
  1  6  1  0  0  0  0
  2 12  2  0  0  0  0
  2 11  1  0  0  0  0
  3 16  1  6  0  0  0
  3 10  1  0  0  0  0
  4  8  1  0  0  0  0
  5  1  1  0  0  0  0
  7  4  1  0  0  0  0
  7  9  1  0  0  0  0
  8  1  2  0  0  0  0
  9  5  1  0  0  0  0
 10 11  1  0  0  0  0
 11  7  2  0  0  0  0
 12 15  1  0  0  0  0
 13 35  1  1  0  0  0
 13  2  1  0  0  0  0
 14 13  1  0  0  0  0
 14  3  1  0  0  0  0
 15  4  2  0  0  0  0
 16 17  1  0  0  0  0
 18 16  2  0  0  0  0
 19 20  1  6  0  0  0
 19 17  1  0  0  0  0
 21 19  1  6  0  0  0
 21 24  1  0  0  0  0
 21 22  1  0  0  0  0
 22 25  1  0  0  0  0
 24 22  1  0  0  0  0
 24 26  1  0  0  0  0
 25 23  1  0  0  0  0
 25 27  1  0  0  0  0
 26 23  1  0  0  0  0
 27 28  1  0  0  0  0
 28 29  1  0  0  0  0
 29 34  1  0  0  0  0
 31 32  1  0  0  0  0
 32 30  1  0  0  0  0
 33 29  1  0  0  0  0
 33 31  1  0  0  0  0
 34 30  1  0  0  0  0
 37 40  1  0  0  0  0
 38 36  1  0  0  0  0
 39 37  1  0  0  0  0
 39 38  1  0  0  0  0
 39 35  1  0  0  0  0
 40 36  1  0  0  0  0
 41 36  1  0  0  0  0
 41 43  1  0  0  0  0
 43 42  1  0  0  0  0
M  END
>  <MODEL>
9

>  <REMARK>
 VINA RESULT:      -7.3      2.722      4.807
  Name = 
  10 active torsions:
  status: ('A' for Active; 'I' for Inactive)
    1  A    between atoms: N_1  and  C_34
    2  A    between atoms: N_1  and  C_35
    3  A    between atoms: C_2  and  C_13
    4  A    between atoms: C_3  and  C_12
    5  A    between atoms: N_6  and  C_12
    6  A    between atoms: C_9  and  N_19
    7  A    between atoms: C_9  and  C_37
    8  A    between atoms: N_11  and  C_14
    9  A    between atoms: C_14  and  C_41
   10  A    between atoms: C_22  and  C_41
                            x       y       z     vdW  Elec       q    Type
                         _______ _______ _______ _____ _____    ______ ____

>  <TORSDO>
F 10

$$$$
