=
 OpenBabel10272401123D

 27 30  0  0  1  0  0  0  0  0999 V2000
  188.1260  177.2390  143.4980 C   0  0  2  0  0  3  0  0  0  0  0  0
  188.5890  177.2030  142.0500 C   0  0  1  0  0  3  0  0  0  0  0  0
  190.4730  176.4870  143.5040 C   0  0  2  0  0  0  0  0  0  0  0  0
  188.4330  178.5540  141.3880 C   0  0  0  0  0  2  0  0  0  0  0  0
  190.4120  177.3640  146.2860 C   0  0  0  0  0  0  0  0  0  0  0  0
  191.0420  175.2120  143.4860 O   0  0  0  0  0  1  0  0  0  0  0  0
  190.4370  177.8150  147.6010 O   0  0  0  0  0  1  0  0  0  0  0  0
  190.8680  177.0270  141.0980 C   0  0  0  0  0  3  0  0  0  0  0  0
  190.4270  177.4980  139.7320 C   0  0  2  0  0  3  0  0  0  0  0  0
  189.1640  176.4640  144.3140 C   0  0  1  0  0  3  0  0  0  0  0  0
  190.0330  176.8730  142.1330 C   0  0  0  0  0  0  0  0  0  0  0  0
  191.7040  177.2910  145.5320 C   0  0  0  0  0  2  0  0  0  0  0  0
  188.8070  178.3820  139.6110 S   0  0  0  0  0  0  0  0  0  0  0  0
  188.0950  176.9980  146.5070 O   0  0  0  0  0  1  0  0  0  0  0  0
  189.2550  176.9650  145.7400 C   0  0  0  0  0  0  0  0  0  0  0  0
  191.4740  177.5110  144.0450 C   0  0  0  0  0  2  0  0  0  0  0  0
  190.5040  176.4170  138.7550 N   0  0  0  0  0  2  0  0  0  0  0  0
  191.6470  174.9310  137.0700 C   0  0  0  0  0  1  0  0  0  0  0  0
  192.7740  176.6670  138.2330 O   0  0  0  0  0  0  0  0  0  0  0  0
  191.6920  176.0520  138.0440 C   0  0  0  0  0  0  0  0  0  0  0  0
  186.7080  176.6790  143.6630 C   0  0  0  0  0  2  0  0  0  0  0  0
  183.6740  179.6970  144.0410 C   0  0  0  0  0  3  0  0  0  0  0  0
  185.6600  177.7410  143.7940 C   0  0  0  0  0  0  0  0  0  0  0  0
  184.9230  178.1400  142.6730 C   0  0  0  0  0  3  0  0  0  0  0  0
  183.9320  179.1170  142.7960 C   0  0  0  0  0  3  0  0  0  0  0  0
  184.4090  179.3010  145.1630 C   0  0  0  0  0  3  0  0  0  0  0  0
  185.4010  178.3230  145.0400 C   0  0  0  0  0  3  0  0  0  0  0  0
  1 21  1  6  0  0  0
  1 10  1  0  0  0  0
  2  4  1  1  0  0  0
  2 11  1  0  0  0  0
  2  1  1  0  0  0  0
  3  6  1  6  0  0  0
  3 16  1  0  0  0  0
  3 10  1  0  0  0  0
  5  7  1  0  0  0  0
  8 11  2  0  0  0  0
  9 17  1  6  0  0  0
  9  8  1  0  0  0  0
 10 15  1  1  0  0  0
 11  3  1  0  0  0  0
 12  5  1  0  0  0  0
 13  9  1  0  0  0  0
 13  4  1  0  0  0  0
 15  5  2  0  0  0  0
 15 14  1  0  0  0  0
 16 12  1  0  0  0  0
 18 20  1  0  0  0  0
 20 19  2  0  0  0  0
 20 17  1  0  0  0  0
 21 23  1  0  0  0  0
 22 26  1  0  0  0  0
 23 27  1  0  0  0  0
 24 25  1  0  0  0  0
 24 23  2  0  0  0  0
 25 22  2  0  0  0  0
 27 26  2  0  0  0  0
M  END
>  <MODEL>
1

>  <REMARK>
 VINA RESULT:      -8.7      0.000      0.000
  Name = 
  3 active torsions:
  status: ('A' for Active; 'I' for Inactive)
    1  A    between atoms: C_1  and  C_15
    2  A    between atoms: N_4  and  C_17
    3  A    between atoms: C_9  and  C_15
                            x       y       z     vdW  Elec       q    Type
                         _______ _______ _______ _____ _____    ______ ____

>  <TORSDO>
F 3

$$$$
=
 OpenBabel10272401123D

 27 30  0  0  1  0  0  0  0  0999 V2000
  186.3290  177.9170  144.7450 C   0  0  2  0  0  3  0  0  0  0  0  0
  187.4740  177.5640  143.8080 C   0  0  1  0  0  3  0  0  0  0  0  0
  185.7510  178.8090  142.5210 C   0  0  2  0  0  0  0  0  0  0  0  0
  187.7130  176.0710  143.7700 C   0  0  0  0  0  2  0  0  0  0  0  0
  183.0280  178.7800  143.5690 C   0  0  0  0  0  0  0  0  0  0  0  0
  185.9550  180.0620  141.9390 O   0  0  0  0  0  1  0  0  0  0  0  0
  181.7140  178.7340  144.0160 O   0  0  0  0  0  1  0  0  0  0  0  0
  187.6020  177.6230  141.3360 C   0  0  0  0  0  3  0  0  0  0  0  0
  188.8290  176.7430  141.2930 C   0  0  2  0  0  3  0  0  0  0  0  0
  185.4800  178.9710  144.0280 C   0  0  1  0  0  3  0  0  0  0  0  0
  187.0080  178.0090  142.4730 C   0  0  0  0  0  0  0  0  0  0  0  0
  183.2850  178.7250  142.0950 C   0  0  0  0  0  2  0  0  0  0  0  0
  189.2230  175.7450  142.8000 S   0  0  0  0  0  0  0  0  0  0  0  0
  183.7280  179.0220  145.8070 O   0  0  0  0  0  1  0  0  0  0  0  0
  184.0280  178.9150  144.4530 C   0  0  0  0  0  0  0  0  0  0  0  0
  184.6230  178.0640  141.8030 C   0  0  0  0  0  2  0  0  0  0  0  0
  189.9970  177.4950  140.8470 N   0  0  0  0  0  2  0  0  0  0  0  0
  192.1380  177.8510  139.5650 C   0  0  0  0  0  1  0  0  0  0  0  0
  190.9010  175.8270  139.4720 O   0  0  0  0  0  0  0  0  0  0  0  0
  190.9890  176.9900  139.9460 C   0  0  0  0  0  0  0  0  0  0  0  0
  186.8300  178.3950  146.1130 C   0  0  0  0  0  2  0  0  0  0  0  0
  190.6640  176.7590  147.1570 C   0  0  0  0  0  3  0  0  0  0  0  0
  188.1690  177.8360  146.4850 C   0  0  0  0  0  0  0  0  0  0  0  0
  188.2750  176.9020  147.5220 C   0  0  0  0  0  3  0  0  0  0  0  0
  189.5210  176.3650  147.8580 C   0  0  0  0  0  3  0  0  0  0  0  0
  190.5610  177.6920  146.1200 C   0  0  0  0  0  3  0  0  0  0  0  0
  189.3150  178.2290  145.7840 C   0  0  0  0  0  3  0  0  0  0  0  0
  1 21  1  1  0  0  0
  2  4  1  6  0  0  0
  2  1  1  0  0  0  0
  3  6  1  6  0  0  0
  3 10  1  0  0  0  0
  5  7  1  0  0  0  0
  5 15  2  0  0  0  0
  8 11  2  0  0  0  0
  9 17  1  1  0  0  0
  9  8  1  0  0  0  0
  9 13  1  0  0  0  0
 10 15  1  6  0  0  0
 10  1  1  0  0  0  0
 11  3  1  0  0  0  0
 11  2  1  0  0  0  0
 12  5  1  0  0  0  0
 13  4  1  0  0  0  0
 15 14  1  0  0  0  0
 16 12  1  0  0  0  0
 16  3  1  0  0  0  0
 18 20  1  0  0  0  0
 19 20  2  0  0  0  0
 20 17  1  0  0  0  0
 21 23  1  0  0  0  0
 22 25  1  0  0  0  0
 23 24  1  0  0  0  0
 24 25  2  0  0  0  0
 26 22  2  0  0  0  0
 27 26  1  0  0  0  0
 27 23  2  0  0  0  0
M  END
>  <MODEL>
2

>  <REMARK>
 VINA RESULT:      -6.9      2.533      5.420
  Name = 
  3 active torsions:
  status: ('A' for Active; 'I' for Inactive)
    1  A    between atoms: C_1  and  C_15
    2  A    between atoms: N_4  and  C_17
    3  A    between atoms: C_9  and  C_15
                            x       y       z     vdW  Elec       q    Type
                         _______ _______ _______ _____ _____    ______ ____

>  <TORSDO>
F 3

$$$$
=
 OpenBabel10272401123D

 27 30  0  0  1  0  0  0  0  0999 V2000
  187.9890  177.3320  143.1110 C   0  0  2  0  0  3  0  0  0  0  0  0
  187.6690  177.4070  141.6270 C   0  0  1  0  0  3  0  0  0  0  0  0
  190.0940  176.9380  141.8920 C   0  0  2  0  0  0  0  0  0  0  0  0
  187.0490  178.7390  141.2650 C   0  0  0  0  0  2  0  0  0  0  0  0
  191.3310  177.7130  144.4180 C   0  0  0  0  0  0  0  0  0  0  0  0
  190.7200  175.7630  141.4710 O   0  0  0  0  0  1  0  0  0  0  0  0
  191.9560  178.1240  145.5890 O   0  0  0  0  0  1  0  0  0  0  0  0
  189.1700  177.6000  139.6680 C   0  0  0  0  0  3  0  0  0  0  0  0
  188.0560  178.0410  138.7480 C   0  0  2  0  0  3  0  0  0  0  0  0
  189.3770  176.6960  143.2320 C   0  0  1  0  0  3  0  0  0  0  0  0
  188.9870  177.2940  140.9590 C   0  0  0  0  0  0  0  0  0  0  0  0
  192.0720  177.8550  143.1240 C   0  0  0  0  0  2  0  0  0  0  0  0
  186.5030  178.6770  139.5260 S   0  0  0  0  0  0  0  0  0  0  0  0
  189.4920  177.0010  145.7090 O   0  0  0  0  0  1  0  0  0  0  0  0
  190.1090  177.1630  144.4720 C   0  0  0  0  0  0  0  0  0  0  0  0
  191.1070  178.0830  141.9710 C   0  0  0  0  0  2  0  0  0  0  0  0
  187.7580  177.0120  137.7570 N   0  0  0  0  0  2  0  0  0  0  0  0
  187.9760  175.8440  135.5340 C   0  0  0  0  0  1  0  0  0  0  0  0
  189.2140  177.7900  136.0940 O   0  0  0  0  0  0  0  0  0  0  0  0
  188.3620  176.9390  136.4610 C   0  0  0  0  0  0  0  0  0  0  0  0
  186.9180  176.5620  143.8930 C   0  0  0  0  0  2  0  0  0  0  0  0
  184.3420  179.1340  146.1760 C   0  0  0  0  0  3  0  0  0  0  0  0
  186.0110  177.4490  144.6910 C   0  0  0  0  0  0  0  0  0  0  0  0
  186.2180  177.6080  146.0650 C   0  0  0  0  0  3  0  0  0  0  0  0
  185.3850  178.4500  146.8080 C   0  0  0  0  0  3  0  0  0  0  0  0
  184.1320  178.9760  144.8030 C   0  0  0  0  0  3  0  0  0  0  0  0
  184.9660  178.1340  144.0610 C   0  0  0  0  0  3  0  0  0  0  0  0
  1 10  1  0  0  0  0
  1 21  1  1  0  0  0
  2  4  1  1  0  0  0
  2  1  1  0  0  0  0
  3  6  1  6  0  0  0
  3 16  1  0  0  0  0
  3 10  1  0  0  0  0
  5 15  2  0  0  0  0
  5  7  1  0  0  0  0
  8 11  2  0  0  0  0
  9 17  1  1  0  0  0
  9 13  1  0  0  0  0
  9  8  1  0  0  0  0
 10 15  1  1  0  0  0
 11  2  1  0  0  0  0
 11  3  1  0  0  0  0
 12  5  1  0  0  0  0
 13  4  1  0  0  0  0
 15 14  1  0  0  0  0
 16 12  1  0  0  0  0
 18 20  1  0  0  0  0
 19 20  2  0  0  0  0
 20 17  1  0  0  0  0
 21 23  1  0  0  0  0
 22 25  1  0  0  0  0
 23 24  1  0  0  0  0
 24 25  2  0  0  0  0
 26 22  2  0  0  0  0
 27 23  2  0  0  0  0
 27 26  1  0  0  0  0
M  END
>  <MODEL>
3

>  <REMARK>
 VINA RESULT:      -6.9      1.974      2.415
  Name = 
  3 active torsions:
  status: ('A' for Active; 'I' for Inactive)
    1  A    between atoms: C_1  and  C_15
    2  A    between atoms: N_4  and  C_17
    3  A    between atoms: C_9  and  C_15
                            x       y       z     vdW  Elec       q    Type
                         _______ _______ _______ _____ _____    ______ ____

>  <TORSDO>
F 3

$$$$
=
 OpenBabel10272401123D

 27 30  0  0  1  0  0  0  0  0999 V2000
  187.1840  178.2240  141.8400 C   0  0  2  0  0  3  0  0  0  0  0  0
  187.5040  178.0430  143.3150 C   0  0  1  0  0  3  0  0  0  0  0  0
  189.6080  177.8160  142.0140 C   0  0  2  0  0  0  0  0  0  0  0  0
  186.6980  176.9140  143.9180 C   0  0  0  0  0  2  0  0  0  0  0  0
  189.3610  177.0660  139.2050 C   0  0  0  0  0  0  0  0  0  0  0  0
  190.6940  178.6880  142.1130 O   0  0  0  0  0  1  0  0  0  0  0  0
  189.2740  176.6550  137.8810 O   0  0  0  0  0  1  0  0  0  0  0  0
  189.5330  177.1540  144.4210 C   0  0  0  0  0  3  0  0  0  0  0  0
  188.8250  176.9370  145.7380 C   0  0  2  0  0  3  0  0  0  0  0  0
  188.5200  178.4370  141.1210 C   0  0  1  0  0  3  0  0  0  0  0  0
  188.9400  177.6740  143.3390 C   0  0  0  0  0  0  0  0  0  0  0  0
  190.4830  176.5380  140.0460 C   0  0  0  0  0  2  0  0  0  0  0  0
  186.9760  176.8940  145.7210 S   0  0  0  0  0  0  0  0  0  0  0  0
  187.4910  178.4540  138.8450 O   0  0  0  0  0  1  0  0  0  0  0  0
  188.4770  177.9510  139.6880 C   0  0  0  0  0  0  0  0  0  0  0  0
  190.0680  176.4470  141.5060 C   0  0  0  0  0  2  0  0  0  0  0  0
  189.3150  177.8610  146.7550 N   0  0  0  0  0  2  0  0  0  0  0  0
  189.5430  178.7880  149.0880 C   0  0  0  0  0  1  0  0  0  0  0  0
  188.2210  176.8830  148.5800 O   0  0  0  0  0  0  0  0  0  0  0  0
  188.9820  177.7860  148.1450 C   0  0  0  0  0  0  0  0  0  0  0  0
  186.1960  179.3720  141.6010 C   0  0  0  0  0  2  0  0  0  0  0  0
  182.3710  178.7970  143.4710 C   0  0  0  0  0  3  0  0  0  0  0  0
  184.8660  179.1590  142.2560 C   0  0  0  0  0  0  0  0  0  0  0  0
  184.6720  179.5420  143.5880 C   0  0  0  0  0  3  0  0  0  0  0  0
  183.4250  179.3620  144.1950 C   0  0  0  0  0  3  0  0  0  0  0  0
  182.5630  178.4130  142.1410 C   0  0  0  0  0  3  0  0  0  0  0  0
  183.8090  178.5940  141.5330 C   0  0  0  0  0  3  0  0  0  0  0  0
  1 21  1  1  0  0  0
  1  2  1  0  0  0  0
  2 11  1  0  0  0  0
  2  4  1  6  0  0  0
  3  6  1  1  0  0  0
  3 11  1  0  0  0  0
  4 13  1  0  0  0  0
  5 15  2  0  0  0  0
  5 12  1  0  0  0  0
  7  5  1  0  0  0  0
  8  9  1  0  0  0  0
  9 17  1  1  0  0  0
 10 15  1  6  0  0  0
 10  1  1  0  0  0  0
 10  3  1  0  0  0  0
 11  8  2  0  0  0  0
 12 16  1  0  0  0  0
 13  9  1  0  0  0  0
 14 15  1  0  0  0  0
 16  3  1  0  0  0  0
 17 20  1  0  0  0  0
 20 19  2  0  0  0  0
 20 18  1  0  0  0  0
 21 23  1  0  0  0  0
 22 25  1  0  0  0  0
 23 24  1  0  0  0  0
 24 25  2  0  0  0  0
 26 22  2  0  0  0  0
 27 26  1  0  0  0  0
 27 23  2  0  0  0  0
M  END
>  <MODEL>
4

>  <REMARK>
 VINA RESULT:      -6.4      2.827      5.980
  Name = 
  3 active torsions:
  status: ('A' for Active; 'I' for Inactive)
    1  A    between atoms: C_1  and  C_15
    2  A    between atoms: N_4  and  C_17
    3  A    between atoms: C_9  and  C_15
                            x       y       z     vdW  Elec       q    Type
                         _______ _______ _______ _____ _____    ______ ____

>  <TORSDO>
F 3

$$$$
=
 OpenBabel10272401123D

 27 30  0  0  1  0  0  0  0  0999 V2000
  187.6370  177.7690  143.0800 C   0  0  2  0  0  3  0  0  0  0  0  0
  188.9190  177.5100  143.8550 C   0  0  1  0  0  3  0  0  0  0  0  0
  187.0300  177.6270  145.4640 C   0  0  2  0  0  0  0  0  0  0  0  0
  189.9440  178.5930  143.5990 C   0  0  0  0  0  2  0  0  0  0  0  0
  184.6480  179.0840  144.6160 C   0  0  0  0  0  0  0  0  0  0  0  0
  186.5990  176.5580  146.2530 O   0  0  0  0  0  1  0  0  0  0  0  0
  183.5250  179.8190  144.2590 O   0  0  0  0  0  1  0  0  0  0  0  0
  189.3900  177.6730  146.2800 C   0  0  0  0  0  3  0  0  0  0  0  0
  190.8860  177.6940  146.0760 C   0  0  2  0  0  3  0  0  0  0  0  0
  186.4760  177.4770  144.0360 C   0  0  1  0  0  3  0  0  0  0  0  0
  188.5080  177.5670  145.2780 C   0  0  0  0  0  0  0  0  0  0  0  0
  185.1260  179.1510  146.0340 C   0  0  0  0  0  2  0  0  0  0  0  0
  191.5160  178.1080  144.3870 S   0  0  0  0  0  0  0  0  0  0  0  0
  184.7270  178.2320  142.4200 O   0  0  0  0  0  1  0  0  0  0  0  0
  185.2500  178.3020  143.7080 C   0  0  0  0  0  0  0  0  0  0  0  0
  186.6320  178.9580  146.1060 C   0  0  0  0  0  2  0  0  0  0  0  0
  191.5000  176.4670  146.5740 N   0  0  0  0  0  2  0  0  0  0  0  0
  192.7340  175.0390  148.2450 C   0  0  0  0  0  1  0  0  0  0  0  0
  192.2130  177.3220  148.6350 O   0  0  0  0  0  0  0  0  0  0  0  0
  192.1420  176.3420  147.8470 C   0  0  0  0  0  0  0  0  0  0  0  0
  187.5630  176.9370  141.7940 C   0  0  0  0  0  2  0  0  0  0  0  0
  190.4810  178.0390  138.8380 C   0  0  0  0  0  3  0  0  0  0  0  0
  188.5840  177.3320  140.7710 C   0  0  0  0  0  0  0  0  0  0  0  0
  189.8410  176.7160  140.7620 C   0  0  0  0  0  3  0  0  0  0  0  0
  190.7880  177.0690  139.7960 C   0  0  0  0  0  3  0  0  0  0  0  0
  189.2260  178.6560  138.8450 C   0  0  0  0  0  3  0  0  0  0  0  0
  188.2790  178.3030  139.8110 C   0  0  0  0  0  3  0  0  0  0  0  0
  1 21  1  6  0  0  0
  1  2  1  0  0  0  0
  1 10  1  0  0  0  0
  2  4  1  1  0  0  0
  2 11  1  0  0  0  0
  3 16  1  0  0  0  0
  3  6  1  1  0  0  0
  4 13  1  0  0  0  0
  5 12  1  0  0  0  0
  7  5  1  0  0  0  0
  9  8  1  0  0  0  0
  9 17  1  6  0  0  0
 10 15  1  6  0  0  0
 10  3  1  0  0  0  0
 11  3  1  0  0  0  0
 11  8  2  0  0  0  0
 12 16  1  0  0  0  0
 13  9  1  0  0  0  0
 14 15  1  0  0  0  0
 15  5  2  0  0  0  0
 17 20  1  0  0  0  0
 20 18  1  0  0  0  0
 20 19  2  0  0  0  0
 22 26  2  0  0  0  0
 22 25  1  0  0  0  0
 23 21  1  0  0  0  0
 24 23  1  0  0  0  0
 25 24  2  0  0  0  0
 26 27  1  0  0  0  0
 27 23  2  0  0  0  0
M  END
>  <MODEL>
5

>  <REMARK>
 VINA RESULT:      -6.4      3.093      6.354
  Name = 
  3 active torsions:
  status: ('A' for Active; 'I' for Inactive)
    1  A    between atoms: C_1  and  C_15
    2  A    between atoms: N_4  and  C_17
    3  A    between atoms: C_9  and  C_15
                            x       y       z     vdW  Elec       q    Type
                         _______ _______ _______ _____ _____    ______ ____

>  <TORSDO>
F 3

$$$$
=
 OpenBabel10272401123D

 27 30  0  0  1  0  0  0  0  0999 V2000
  190.8670  177.3280  138.9450 C   0  0  2  0  0  3  0  0  0  0  0  0
  189.3870  177.1470  138.6470 C   0  0  1  0  0  3  0  0  0  0  0  0
  190.6580  175.3760  137.4550 C   0  0  2  0  0  0  0  0  0  0  0  0
  188.7940  178.3940  138.0280 C   0  0  0  0  0  2  0  0  0  0  0  0
  193.4690  175.9110  136.8870 C   0  0  0  0  0  0  0  0  0  0  0  0
  190.5440  174.0100  137.7210 O   0  0  0  0  0  1  0  0  0  0  0  0
  194.7940  176.1630  136.5540 O   0  0  0  0  0  1  0  0  0  0  0  0
  188.2510  175.7810  136.9230 C   0  0  0  0  0  3  0  0  0  0  0  0
  186.9450  176.5240  137.0700 C   0  0  2  0  0  3  0  0  0  0  0  0
  191.5670  176.0380  138.5060 C   0  0  1  0  0  3  0  0  0  0  0  0
  189.3420  176.0500  137.6520 C   0  0  0  0  0  0  0  0  0  0  0  0
  192.6130  175.1750  135.9030 C   0  0  0  0  0  2  0  0  0  0  0  0
  186.9880  178.1790  137.8950 S   0  0  0  0  0  0  0  0  0  0  0  0
  193.8570  176.9130  138.9840 O   0  0  0  0  0  1  0  0  0  0  0  0
  193.0000  176.2860  138.0850 C   0  0  0  0  0  0  0  0  0  0  0  0
  191.1580  175.6020  136.0270 C   0  0  0  0  0  2  0  0  0  0  0  0
  185.9220  175.6710  137.6680 N   0  0  0  0  0  2  0  0  0  0  0  0
  184.1060  173.9230  137.6560 C   0  0  0  0  0  1  0  0  0  0  0  0
  185.2610  174.5950  135.6940 O   0  0  0  0  0  0  0  0  0  0  0  0
  185.1200  174.7370  136.9370 C   0  0  0  0  0  0  0  0  0  0  0  0
  191.1210  177.6630  140.4200 C   0  0  0  0  0  2  0  0  0  0  0  0
  187.8570  176.6510  143.0240 C   0  0  0  0  0  3  0  0  0  0  0  0
  189.9760  177.3040  141.3180 C   0  0  0  0  0  0  0  0  0  0  0  0
  190.0500  176.1630  142.1240 C   0  0  0  0  0  3  0  0  0  0  0  0
  188.9910  175.8360  142.9760 C   0  0  0  0  0  3  0  0  0  0  0  0
  187.7800  177.7920  142.2200 C   0  0  0  0  0  3  0  0  0  0  0  0
  188.8390  178.1190  141.3670 C   0  0  0  0  0  3  0  0  0  0  0  0
  1 21  1  1  0  0  0
  2  4  1  6  0  0  0
  2  1  1  0  0  0  0
  3 11  1  0  0  0  0
  3  6  1  1  0  0  0
  3 10  1  0  0  0  0
  5 15  2  0  0  0  0
  7  5  1  0  0  0  0
  8  9  1  0  0  0  0
  8 11  2  0  0  0  0
  9 17  1  1  0  0  0
  9 13  1  0  0  0  0
 10 15  1  6  0  0  0
 10  1  1  0  0  0  0
 11  2  1  0  0  0  0
 12 16  1  0  0  0  0
 12  5  1  0  0  0  0
 13  4  1  0  0  0  0
 15 14  1  0  0  0  0
 16  3  1  0  0  0  0
 19 20  2  0  0  0  0
 20 18  1  0  0  0  0
 20 17  1  0  0  0  0
 21 23  1  0  0  0  0
 23 27  2  0  0  0  0
 23 24  1  0  0  0  0
 24 25  2  0  0  0  0
 25 22  1  0  0  0  0
 26 22  2  0  0  0  0
 27 26  1  0  0  0  0
M  END
>  <MODEL>
6

>  <REMARK>
 VINA RESULT:      -6.4      3.795      6.675
  Name = 
  3 active torsions:
  status: ('A' for Active; 'I' for Inactive)
    1  A    between atoms: C_1  and  C_15
    2  A    between atoms: N_4  and  C_17
    3  A    between atoms: C_9  and  C_15
                            x       y       z     vdW  Elec       q    Type
                         _______ _______ _______ _____ _____    ______ ____

>  <TORSDO>
F 3

$$$$
=
 OpenBabel10272401123D

 27 30  0  0  1  0  0  0  0  0999 V2000
  189.3920  177.0990  138.1850 C   0  0  2  0  0  3  0  0  0  0  0  0
  190.6360  176.4850  137.5630 C   0  0  1  0  0  3  0  0  0  0  0  0
  189.0600  177.0990  135.7430 C   0  0  2  0  0  0  0  0  0  0  0  0
  190.8880  175.0920  138.0970 C   0  0  0  0  0  2  0  0  0  0  0  0
  186.2370  177.3240  136.4480 C   0  0  0  0  0  0  0  0  0  0  0  0
  189.3190  178.0650  134.7690 O   0  0  0  0  0  1  0  0  0  0  0  0
  184.8810  177.3820  136.7440 O   0  0  0  0  0  1  0  0  0  0  0  0
  191.0390  175.6520  135.2660 C   0  0  0  0  0  3  0  0  0  0  0  0
  192.2680  174.8740  135.6720 C   0  0  2  0  0  3  0  0  0  0  0  0
  188.6210  177.7820  137.0510 C   0  0  1  0  0  3  0  0  0  0  0  0
  190.3190  176.3950  136.1170 C   0  0  0  0  0  0  0  0  0  0  0  0
  186.6570  176.7520  135.1290 C   0  0  0  0  0  2  0  0  0  0  0  0
  192.4980  174.5080  137.4700 S   0  0  0  0  0  0  0  0  0  0  0  0
  186.6810  178.3900  138.5020 O   0  0  0  0  0  1  0  0  0  0  0  0
  187.1310  177.8160  137.3180 C   0  0  0  0  0  0  0  0  0  0  0  0
  188.0240  176.0940  135.2350 C   0  0  0  0  0  2  0  0  0  0  0  0
  193.4740  175.4680  135.1030 N   0  0  0  0  0  2  0  0  0  0  0  0
  195.4730  177.0040  135.0690 C   0  0  0  0  0  1  0  0  0  0  0  0
  193.9470  176.9130  136.8850 O   0  0  0  0  0  0  0  0  0  0  0  0
  194.2630  176.4730  135.7490 C   0  0  0  0  0  0  0  0  0  0  0  0
  189.7340  178.0610  139.3290 C   0  0  0  0  0  2  0  0  0  0  0  0
  188.9070  176.4870  143.2400 C   0  0  0  0  0  3  0  0  0  0  0  0
  189.4390  177.5020  140.6860 C   0  0  0  0  0  0  0  0  0  0  0  0
  190.3700  176.6700  141.3190 C   0  0  0  0  0  3  0  0  0  0  0  0
  190.1040  176.1630  142.5940 C   0  0  0  0  0  3  0  0  0  0  0  0
  187.9750  177.3170  142.6090 C   0  0  0  0  0  3  0  0  0  0  0  0
  188.2410  177.8250  141.3340 C   0  0  0  0  0  3  0  0  0  0  0  0
  1 21  1  1  0  0  0
  2  4  1  1  0  0  0
  2  1  1  0  0  0  0
  3  6  1  6  0  0  0
  3 11  1  0  0  0  0
  3 10  1  0  0  0  0
  5  7  1  0  0  0  0
  5 15  2  0  0  0  0
  8  9  1  0  0  0  0
  8 11  2  0  0  0  0
  9 17  1  1  0  0  0
  9 13  1  0  0  0  0
 10 15  1  1  0  0  0
 10  1  1  0  0  0  0
 11  2  1  0  0  0  0
 12 16  1  0  0  0  0
 12  5  1  0  0  0  0
 13  4  1  0  0  0  0
 15 14  1  0  0  0  0
 16  3  1  0  0  0  0
 17 20  1  0  0  0  0
 18 20  1  0  0  0  0
 20 19  2  0  0  0  0
 21 23  1  0  0  0  0
 23 24  2  0  0  0  0
 23 27  1  0  0  0  0
 24 25  1  0  0  0  0
 25 22  2  0  0  0  0
 26 22  1  0  0  0  0
 27 26  2  0  0  0  0
M  END
>  <MODEL>
7

>  <REMARK>
 VINA RESULT:      -6.2      3.982      7.025
  Name = 
  3 active torsions:
  status: ('A' for Active; 'I' for Inactive)
    1  A    between atoms: C_1  and  C_15
    2  A    between atoms: N_4  and  C_17
    3  A    between atoms: C_9  and  C_15
                            x       y       z     vdW  Elec       q    Type
                         _______ _______ _______ _____ _____    ______ ____

>  <TORSDO>
F 3

$$$$
=
 OpenBabel10272401123D

 27 30  0  0  1  0  0  0  0  0999 V2000
  187.7850  178.1110  139.9200 C   0  0  2  0  0  3  0  0  0  0  0  0
  186.4600  178.4530  139.2570 C   0  0  1  0  0  3  0  0  0  0  0  0
  186.2320  178.7990  141.7060 C   0  0  2  0  0  0  0  0  0  0  0  0
  185.9230  177.2810  138.4650 C   0  0  0  0  0  2  0  0  0  0  0  0
  188.0770  177.3400  143.4330 C   0  0  0  0  0  0  0  0  0  0  0  0
  185.9960  180.0370  142.3090 O   0  0  0  0  0  1  0  0  0  0  0  0
  188.9060  176.6140  144.2790 O   0  0  0  0  0  1  0  0  0  0  0  0
  184.2120  178.7880  140.2380 C   0  0  0  0  0  3  0  0  0  0  0  0
  183.5130  178.6340  138.9080 C   0  0  2  0  0  3  0  0  0  0  0  0
  187.7230  178.6710  141.3450 C   0  0  1  0  0  3  0  0  0  0  0  0
  185.5410  178.7290  140.3870 C   0  0  0  0  0  0  0  0  0  0  0  0
  186.6510  177.5510  143.8370 C   0  0  0  0  0  2  0  0  0  0  0  0
  184.4530  177.8290  137.5340 S   0  0  0  0  0  0  0  0  0  0  0  0
  189.9230  177.6930  142.0100 O   0  0  0  0  0  1  0  0  0  0  0  0
  188.5750  177.8700  142.3060 C   0  0  0  0  0  0  0  0  0  0  0  0
  185.7540  177.6640  142.6140 C   0  0  0  0  0  2  0  0  0  0  0  0
  182.9340  179.9000  138.4710 N   0  0  0  0  0  2  0  0  0  0  0  0
  181.1490  181.6740  138.3310 C   0  0  0  0  0  1  0  0  0  0  0  0
  180.8900  179.6810  139.5940 O   0  0  0  0  0  0  0  0  0  0  0  0
  181.6320  180.3650  138.8420 C   0  0  0  0  0  0  0  0  0  0  0  0
  188.9820  178.6490  139.1270 C   0  0  0  0  0  2  0  0  0  0  0  0
  190.7630  175.6870  136.5750 C   0  0  0  0  0  3  0  0  0  0  0  0
  189.6130  177.6250  138.2340 C   0  0  0  0  0  0  0  0  0  0  0  0
  190.4450  176.6400  138.7780 C   0  0  0  0  0  3  0  0  0  0  0  0
  191.0200  175.6720  137.9490 C   0  0  0  0  0  3  0  0  0  0  0  0
  189.9320  176.6710  136.0290 C   0  0  0  0  0  3  0  0  0  0  0  0
  189.3580  177.6390  136.8580 C   0  0  0  0  0  3  0  0  0  0  0  0
  1 21  1  6  0  0  0
  1 10  1  0  0  0  0
  2  4  1  1  0  0  0
  2  1  1  0  0  0  0
  2 11  1  0  0  0  0
  3  6  1  1  0  0  0
  3 16  1  0  0  0  0
  5 12  1  0  0  0  0
  5  7  1  0  0  0  0
  8 11  2  0  0  0  0
  9 17  1  6  0  0  0
  9  8  1  0  0  0  0
 10  3  1  0  0  0  0
 10 15  1  1  0  0  0
 11  3  1  0  0  0  0
 13  4  1  0  0  0  0
 13  9  1  0  0  0  0
 14 15  1  0  0  0  0
 15  5  2  0  0  0  0
 16 12  1  0  0  0  0
 17 20  1  0  0  0  0
 18 20  1  0  0  0  0
 20 19  2  0  0  0  0
 22 25  1  0  0  0  0
 23 24  1  0  0  0  0
 23 21  1  0  0  0  0
 25 24  2  0  0  0  0
 26 22  2  0  0  0  0
 26 27  1  0  0  0  0
 27 23  2  0  0  0  0
M  END
>  <MODEL>
8

>  <REMARK>
 VINA RESULT:      -6.0      3.811      7.325
  Name = 
  3 active torsions:
  status: ('A' for Active; 'I' for Inactive)
    1  A    between atoms: C_1  and  C_15
    2  A    between atoms: N_4  and  C_17
    3  A    between atoms: C_9  and  C_15
                            x       y       z     vdW  Elec       q    Type
                         _______ _______ _______ _____ _____    ______ ____

>  <TORSDO>
F 3

$$$$
=
 OpenBabel10272401123D

 27 30  0  0  1  0  0  0  0  0999 V2000
  186.6630  178.3680  141.0520 C   0  0  2  0  0  3  0  0  0  0  0  0
  187.8120  177.9910  141.9730 C   0  0  1  0  0  3  0  0  0  0  0  0
  188.5810  177.7820  139.6200 C   0  0  2  0  0  0  0  0  0  0  0  0
  187.4280  176.8540  142.8940 C   0  0  0  0  0  2  0  0  0  0  0  0
  186.5310  177.3920  137.5810 C   0  0  0  0  0  0  0  0  0  0  0  0
  189.5880  178.5620  139.0480 O   0  0  0  0  0  1  0  0  0  0  0  0
  185.5800  177.1490  136.5970 O   0  0  0  0  0  1  0  0  0  0  0  0
  189.9510  176.8430  141.4860 C   0  0  0  0  0  3  0  0  0  0  0  0
  190.2070  176.5170  142.9380 C   0  0  2  0  0  3  0  0  0  0  0  0
  187.2640  178.5770  139.6590 C   0  0  1  0  0  3  0  0  0  0  0  0
  188.8820  177.5270  141.0580 C   0  0  0  0  0  0  0  0  0  0  0  0
  187.8530  176.6940  137.4850 C   0  0  0  0  0  2  0  0  0  0  0  0
  188.7710  176.6000  144.1020 S   0  0  0  0  0  0  0  0  0  0  0  0
  185.0460  178.9340  138.5660 O   0  0  0  0  0  1  0  0  0  0  0  0
  186.2680  178.2700  138.5600 C   0  0  0  0  0  0  0  0  0  0  0  0
  188.4400  176.4570  138.8680 C   0  0  0  0  0  2  0  0  0  0  0  0
  191.3400  177.2790  143.4540 N   0  0  0  0  0  2  0  0  0  0  0  0
  192.4940  179.3170  144.3860 C   0  0  0  0  0  1  0  0  0  0  0  0
  190.1870  179.2830  143.8310 O   0  0  0  0  0  0  0  0  0  0  0  0
  191.2700  178.6440  143.8800 C   0  0  0  0  0  0  0  0  0  0  0  0
  185.9010  179.6000  141.5560 C   0  0  0  0  0  2  0  0  0  0  0  0
  182.6060  178.5920  144.1230 C   0  0  0  0  0  3  0  0  0  0  0  0
  184.7480  179.2620  142.4510 C   0  0  0  0  0  0  0  0  0  0  0  0
  183.5410  178.8150  141.9010 C   0  0  0  0  0  3  0  0  0  0  0  0
  182.4710  178.4810  142.7360 C   0  0  0  0  0  3  0  0  0  0  0  0
  183.8100  179.0390  144.6750 C   0  0  0  0  0  3  0  0  0  0  0  0
  184.8810  179.3730  143.8400 C   0  0  0  0  0  3  0  0  0  0  0  0
  1 21  1  1  0  0  0
  1  2  1  0  0  0  0
  2  4  1  1  0  0  0
  3  6  1  6  0  0  0
  3 10  1  0  0  0  0
  3 11  1  0  0  0  0
  4 13  1  0  0  0  0
  5 15  2  0  0  0  0
  7  5  1  0  0  0  0
  8  9  1  0  0  0  0
  9 17  1  1  0  0  0
  9 13  1  0  0  0  0
 10 15  1  6  0  0  0
 10  1  1  0  0  0  0
 11  8  2  0  0  0  0
 11  2  1  0  0  0  0
 12  5  1  0  0  0  0
 12 16  1  0  0  0  0
 15 14  1  0  0  0  0
 16  3  1  0  0  0  0
 17 20  1  0  0  0  0
 19 20  2  0  0  0  0
 20 18  1  0  0  0  0
 21 23  1  0  0  0  0
 22 26  1  0  0  0  0
 23 27  1  0  0  0  0
 24 23  2  0  0  0  0
 24 25  1  0  0  0  0
 25 22  2  0  0  0  0
 27 26  2  0  0  0  0
M  END
>  <MODEL>
9

>  <REMARK>
 VINA RESULT:      -5.8      3.232      5.586
  Name = 
  3 active torsions:
  status: ('A' for Active; 'I' for Inactive)
    1  A    between atoms: C_1  and  C_15
    2  A    between atoms: N_4  and  C_17
    3  A    between atoms: C_9  and  C_15
                            x       y       z     vdW  Elec       q    Type
                         _______ _______ _______ _____ _____    ______ ____

>  <TORSDO>
F 3

$$$$
