=
 OpenBabel10272401233D

 55 61  0  0  1  0  0  0  0  0999 V2000
  183.0370  172.5960  137.2010 C   0  0  0  0  0  2  0  0  0  0  0  0
  185.1930  177.7750  134.4700 C   0  0  0  0  0  2  0  0  0  0  0  0
  188.8510  178.1030  135.4410 C   0  0  0  0  0  2  0  0  0  0  0  0
  191.1360  176.6540  136.9330 C   0  0  0  0  0  3  0  0  0  0  0  0
  192.0750  175.6360  137.1010 C   0  0  0  0  0  3  0  0  0  0  0  0
  189.3330  175.0560  137.2190 C   0  0  0  0  0  0  0  0  0  0  0  0
  190.2840  174.0380  137.3840 C   0  0  0  0  0  3  0  0  0  0  0  0
  188.9120  178.4290  137.8080 O   0  0  0  0  0  1  0  0  0  0  0  0
  191.6470  174.3280  137.3230 C   0  0  0  0  0  3  0  0  0  0  0  0
  189.7660  176.3710  136.9870 C   0  0  0  0  0  0  0  0  0  0  0  0
  182.3570  174.2500  135.7890 C   0  0  1  0  0  0  0  0  0  0  0  0
  185.2800  172.4810  138.1110 O   0  0  0  0  0  0  0  0  0  0  0  0
  183.0730  173.7960  134.5240 C   0  0  0  0  0  2  0  0  0  0  0  0
  185.8940  173.6780  137.7280 C   0  0  0  0  0  2  0  0  0  0  0  0
  185.5070  175.0870  134.7910 O   0  0  0  0  0  1  0  0  0  0  0  0
  187.9600  174.7890  137.2780 O   0  0  0  0  0  0  0  0  0  0  0  0
  186.7010  177.5290  134.3470 C   0  0  0  0  0  2  0  0  0  0  0  0
  187.4900  178.6340  135.0300 C   0  0  0  0  0  2  0  0  0  0  0  0
  184.5780  177.1170  135.6410 N   0  0  0  0  0  0  0  0  0  0  0  0
  184.4800  172.1200  137.0150 C   0  0  0  0  0  2  0  0  0  0  0  0
  188.7580  177.4640  136.8160 C   0  0  2  0  0  3  0  0  0  0  0  0
  182.9720  173.9910  137.0340 O   0  0  0  0  0  0  0  0  0  0  0  0
  184.4550  175.6530  135.5140 C   0  0  1  0  0  3  0  0  0  0  0  0
  187.3900  173.5020  137.5070 C   0  0  2  0  0  3  0  0  0  0  0  0
  183.1010  175.2760  134.9160 C   0  0  2  0  0  3  0  0  0  0  0  0
  187.6350  172.6090  136.3290 C   0  0  0  0  0  0  0  0  0  0  0  0
  187.8960  170.9310  135.1200 C   0  0  0  0  0  0  0  0  0  0  0  0
  187.9700  173.0640  135.1150 N   0  0  0  0  0  0  0  0  0  0  0  0
  188.1270  172.0030  134.3470 N   0  0  0  0  0  0  0  0  0  0  0  0
  187.5720  171.2680  136.3790 N   0  0  0  0  0  2  0  0  0  0  0  0
  187.9120  169.5280  134.6130 C   0  0  0  0  0  3  0  0  0  0  0  0
  186.4960  169.0030  134.4710 C   0  0  0  0  0  2  0  0  0  0  0  0
  187.3370  168.5910  135.6570 C   0  0  0  0  0  2  0  0  0  0  0  0
  185.2920  177.4250  136.8810 C   0  0  0  0  0  2  0  0  0  0  0  0
  184.3280  177.3990  138.0590 C   0  0  0  0  0  2  0  0  0  0  0  0
  181.1860  177.3750  140.9980 S   0  0  0  0  0  0  0  0  0  0  0  0
  184.6980  178.6310  140.2150 C   0  0  0  0  0  2  0  0  0  0  0  0
  182.0880  179.5420  139.8970 C   0  0  2  0  0  3  0  0  0  0  0  0
  184.2670  178.7630  138.7490 C   0  0  2  0  0  3  0  0  0  0  0  0
  182.8630  179.3990  138.5840 C   0  0  0  0  0  2  0  0  0  0  0  0
  182.2570  178.3120  140.7820 C   0  0  0  0  0  0  0  0  0  0  0  0
  183.6680  177.8380  141.0380 C   0  0  2  0  0  3  0  0  0  0  0  0
  180.7190  181.3240  138.7330 C   0  0  0  0  0  1  0  0  0  0  0  0
  179.9820  180.4990  140.9750 C   0  0  0  0  0  1  0  0  0  0  0  0
  180.6900  180.1410  139.6820 C   0  0  0  0  0  3  0  0  0  0  0  0
  184.0080  177.9180  142.5200 C   0  0  0  0  0  2  0  0  0  0  0  0
  183.6640  179.2990  143.0580 C   0  0  1  0  0  3  0  0  0  0  0  0
  184.1450  179.5650  144.4490 C   0  0  2  0  0  3  0  0  0  0  0  0
  184.8520  180.0050  143.3140 O   0  0  0  0  0  0  0  0  0  0  0  0
  184.8060  178.4730  145.0180 O   0  0  0  0  0  0  0  0  0  0  0  0
  186.3290  177.9420  146.7650 C   0  0  0  0  0  1  0  0  0  0  0  0
  185.4670  179.0040  146.1160 C   0  0  0  0  0  2  0  0  0  0  0  0
  180.8400  174.4370  135.7650 C   0  0  0  0  0  2  0  0  0  0  0  0
  180.5180  176.1310  137.4910 N   0  0  0  0  0  1  0  0  0  0  0  0
  180.2950  174.7330  137.1610 C   0  0  0  0  0  2  0  0  0  0  0  0
  2 19  1  0  0  0  0
  3 21  1  0  0  0  0
  4 10  2  0  0  0  0
  4  5  1  0  0  0  0
  5  9  2  0  0  0  0
  6 16  1  0  0  0  0
  6  7  2  0  0  0  0
  9  7  1  0  0  0  0
 10  6  1  0  0  0  0
 11 53  1  6  0  0  0
 11 22  1  0  0  0  0
 13 11  1  0  0  0  0
 14 12  1  0  0  0  0
 16 24  1  0  0  0  0
 17  2  1  0  0  0  0
 17 18  1  0  0  0  0
 18  3  1  0  0  0  0
 19 34  1  0  0  0  0
 20  1  1  0  0  0  0
 20 12  1  0  0  0  0
 21 10  1  0  0  0  0
 21  8  1  1  0  0  0
 22  1  1  0  0  0  0
 23 15  1  6  0  0  0
 23 19  1  0  0  0  0
 24 26  1  6  0  0  0
 24 14  1  0  0  0  0
 25 13  1  6  0  0  0
 25 23  1  0  0  0  0
 25 11  1  0  0  0  0
 26 30  1  0  0  0  0
 27 30  1  0  0  0  0
 28 26  2  0  0  0  0
 29 28  1  0  0  0  0
 29 27  2  0  0  0  0
 31 27  1  0  0  0  0
 31 33  1  0  0  0  0
 32 31  1  0  0  0  0
 32 33  1  0  0  0  0
 34 35  1  0  0  0  0
 37 42  1  0  0  0  0
 38 45  1  6  0  0  0
 38 41  1  0  0  0  0
 39 35  1  1  0  0  0
 39 37  1  0  0  0  0
 40 39  1  0  0  0  0
 40 38  1  0  0  0  0
 41 36  2  0  0  0  0
 41 42  1  0  0  0  0
 42 46  1  1  0  0  0
 43 45  1  0  0  0  0
 45 44  1  0  0  0  0
 47 46  1  6  0  0  0
 47 49  1  0  0  0  0
 47 48  1  0  0  0  0
 48 50  1  6  0  0  0
 49 48  1  0  0  0  0
 50 52  1  0  0  0  0
 52 51  1  0  0  0  0
 53 55  1  0  0  0  0
 55 54  1  0  0  0  0
M  END
>  <MODEL>
1

>  <REMARK>
 VINA RESULT:      -5.3      0.000      0.000
  Name = 
  12 active torsions:
  status: ('A' for Active; 'I' for Inactive)
    1  A    between atoms: C_3  and  C_21
    2  A    between atoms: C_6  and  O_25
    3  A    between atoms: C_8  and  C_20
    4  A    between atoms: C_8  and  C_22
    5  A    between atoms: C_10  and  C_32
    6  A    between atoms: C_12  and  C_50
    7  A    between atoms: C_13  and  C_52
    8  A    between atoms: C_21  and  C_53
    9  A    between atoms: C_22  and  N_43
   10  A    between atoms: O_25  and  C_38
   11  A    between atoms: C_27  and  C_55
   12  A    between atoms: C_41  and  C_55
                            x       y       z     vdW  Elec       q    Type
                         _______ _______ _______ _____ _____    ______ ____

>  <TORSDO>
F 12

$$$$
=
 OpenBabel10272401233D

 55 61  0  0  1  0  0  0  0  0999 V2000
  180.0040  176.6450  140.4580 C   0  0  0  0  0  2  0  0  0  0  0  0
  184.8190  180.0100  138.3560 C   0  0  0  0  0  2  0  0  0  0  0  0
  187.2230  177.5890  136.6870 C   0  0  0  0  0  2  0  0  0  0  0  0
  187.5530  174.6270  135.8670 C   0  0  0  0  0  3  0  0  0  0  0  0
  187.2450  173.4950  135.1130 C   0  0  0  0  0  3  0  0  0  0  0  0
  185.3490  174.5670  136.8790 C   0  0  0  0  0  0  0  0  0  0  0  0
  185.0470  173.4300  136.1160 C   0  0  0  0  0  3  0  0  0  0  0  0
  188.0280  176.1240  138.3970 O   0  0  0  0  0  1  0  0  0  0  0  0
  185.9910  172.8990  135.2360 C   0  0  0  0  0  3  0  0  0  0  0  0
  186.6090  175.1700  136.7480 C   0  0  0  0  0  0  0  0  0  0  0  0
  180.7050  178.8080  140.3160 C   0  0  1  0  0  0  0  0  0  0  0  0
  181.2840  174.7850  139.5790 O   0  0  0  0  0  0  0  0  0  0  0  0
  180.4400  179.0510  138.8370 C   0  0  0  0  0  2  0  0  0  0  0  0
  182.5110  175.3330  139.1920 C   0  0  0  0  0  2  0  0  0  0  0  0
  182.8410  178.2460  137.7200 O   0  0  0  0  0  1  0  0  0  0  0  0
  184.4180  175.1160  137.7700 O   0  0  0  0  0  0  0  0  0  0  0  0
  185.3840  179.1690  137.2060 C   0  0  0  0  0  2  0  0  0  0  0  0
  186.8550  178.8580  137.4320 C   0  0  0  0  0  2  0  0  0  0  0  0
  184.2030  179.2060  139.4320 N   0  0  0  0  0  0  0  0  0  0  0  0
  180.3320  175.7630  139.2510 C   0  0  0  0  0  2  0  0  0  0  0  0
  186.9410  176.3800  137.5630 C   0  0  2  0  0  3  0  0  0  0  0  0
  181.0820  177.5080  140.7220 O   0  0  0  0  0  0  0  0  0  0  0  0
  182.9070  178.6050  139.0680 C   0  0  1  0  0  3  0  0  0  0  0  0
  183.1080  174.6020  137.9980 C   0  0  2  0  0  3  0  0  0  0  0  0
  181.7550  179.5310  139.4550 C   0  0  2  0  0  3  0  0  0  0  0  0
  182.2510  174.8090  136.7860 C   0  0  0  0  0  0  0  0  0  0  0  0
  181.0690  175.6790  135.3060 C   0  0  0  0  0  0  0  0  0  0  0  0
  181.8270  173.8100  136.0020 N   0  0  0  0  0  0  0  0  0  0  0  0
  181.0850  174.3610  135.0600 N   0  0  0  0  0  0  0  0  0  0  0  0
  181.8000  176.0090  136.3830 N   0  0  0  0  0  2  0  0  0  0  0  0
  180.3850  176.6750  134.4290 C   0  0  0  0  0  3  0  0  0  0  0  0
  181.2010  177.9510  134.3470 C   0  0  0  0  0  2  0  0  0  0  0  0
  179.9820  177.8920  135.2390 C   0  0  0  0  0  2  0  0  0  0  0  0
  185.0970  178.1490  139.9070 C   0  0  0  0  0  2  0  0  0  0  0  0
  184.7650  177.7930  141.3490 C   0  0  0  0  0  2  0  0  0  0  0  0
  187.7500  176.0400  143.9050 S   0  0  0  0  0  0  0  0  0  0  0  0
  186.7600  179.1800  141.9850 C   0  0  0  0  0  2  0  0  0  0  0  0
  186.3910  178.1540  144.5450 C   0  0  2  0  0  3  0  0  0  0  0  0
  185.2970  178.8560  142.3140 C   0  0  2  0  0  3  0  0  0  0  0  0
  185.0880  178.4140  143.7850 C   0  0  0  0  0  2  0  0  0  0  0  0
  187.4070  177.4200  143.6770 C   0  0  0  0  0  0  0  0  0  0  0  0
  187.6880  177.9970  142.3100 C   0  0  2  0  0  3  0  0  0  0  0  0
  184.8180  178.2020  146.5270 C   0  0  0  0  0  1  0  0  0  0  0  0
  187.2770  178.0020  146.9340 C   0  0  0  0  0  1  0  0  0  0  0  0
  186.1360  177.6830  145.9850 C   0  0  0  0  0  3  0  0  0  0  0  0
  189.1440  178.4250  142.1880 C   0  0  0  0  0  2  0  0  0  0  0  0
  189.7830  177.7550  140.9810 C   0  0  1  0  0  3  0  0  0  0  0  0
  191.1750  177.2580  141.2070 C   0  0  2  0  0  3  0  0  0  0  0  0
  190.0540  176.4100  141.2880 O   0  0  0  0  0  0  0  0  0  0  0  0
  191.6510  177.5280  142.4930 O   0  0  0  0  0  0  0  0  0  0  0  0
  191.4180  176.4960  144.6220 C   0  0  0  0  0  1  0  0  0  0  0  0
  191.6240  176.2990  143.1360 C   0  0  0  0  0  2  0  0  0  0  0  0
  180.0550  179.7230  141.3550 C   0  0  0  0  0  2  0  0  0  0  0  0
  180.1150  179.2860  143.7540 N   0  0  0  0  0  1  0  0  0  0  0  0
  180.8890  179.7930  142.6320 C   0  0  0  0  0  2  0  0  0  0  0  0
  1 22  1  0  0  0  0
  2 19  1  0  0  0  0
  3 18  1  0  0  0  0
  3 21  1  0  0  0  0
  4 10  1  0  0  0  0
  5  9  1  0  0  0  0
  5  4  2  0  0  0  0
  6 16  1  0  0  0  0
  7  6  1  0  0  0  0
  9  7  2  0  0  0  0
 10  6  2  0  0  0  0
 10 21  1  0  0  0  0
 11 22  1  0  0  0  0
 11 53  1  1  0  0  0
 13 11  1  0  0  0  0
 14 12  1  0  0  0  0
 16 24  1  0  0  0  0
 17 18  1  0  0  0  0
 17  2  1  0  0  0  0
 19 34  1  0  0  0  0
 20 12  1  0  0  0  0
 20  1  1  0  0  0  0
 21  8  1  6  0  0  0
 23 15  1  6  0  0  0
 23 19  1  0  0  0  0
 23 25  1  0  0  0  0
 24 26  1  6  0  0  0
 24 14  1  0  0  0  0
 25 13  1  6  0  0  0
 25 11  1  0  0  0  0
 27 30  1  0  0  0  0
 28 26  2  0  0  0  0
 29 27  2  0  0  0  0
 29 28  1  0  0  0  0
 30 26  1  0  0  0  0
 31 33  1  0  0  0  0
 31 27  1  0  0  0  0
 32 31  1  0  0  0  0
 32 33  1  0  0  0  0
 34 35  1  0  0  0  0
 37 42  1  0  0  0  0
 37 39  1  0  0  0  0
 38 45  1  1  0  0  0
 39 35  1  6  0  0  0
 39 40  1  0  0  0  0
 40 38  1  0  0  0  0
 41 36  2  0  0  0  0
 41 38  1  0  0  0  0
 42 46  1  1  0  0  0
 42 41  1  0  0  0  0
 45 43  1  0  0  0  0
 45 44  1  0  0  0  0
 47 48  1  0  0  0  0
 47 49  1  0  0  0  0
 47 46  1  1  0  0  0
 48 49  1  0  0  0  0
 48 50  1  1  0  0  0
 50 52  1  0  0  0  0
 52 51  1  0  0  0  0
 53 55  1  0  0  0  0
 55 54  1  0  0  0  0
M  END
>  <MODEL>
2

>  <REMARK>
 VINA RESULT:      -4.9      3.122      6.264
  Name = 
  12 active torsions:
  status: ('A' for Active; 'I' for Inactive)
    1  A    between atoms: C_3  and  C_21
    2  A    between atoms: C_6  and  O_25
    3  A    between atoms: C_8  and  C_20
    4  A    between atoms: C_8  and  C_22
    5  A    between atoms: C_10  and  C_32
    6  A    between atoms: C_12  and  C_50
    7  A    between atoms: C_13  and  C_52
    8  A    between atoms: C_21  and  C_53
    9  A    between atoms: C_22  and  N_43
   10  A    between atoms: O_25  and  C_38
   11  A    between atoms: C_27  and  C_55
   12  A    between atoms: C_41  and  C_55
                            x       y       z     vdW  Elec       q    Type
                         _______ _______ _______ _____ _____    ______ ____

>  <TORSDO>
F 12

$$$$
=
 OpenBabel10272401233D

 55 61  0  0  1  0  0  0  0  0999 V2000
  182.4700  175.7760  138.9260 C   0  0  0  0  0  2  0  0  0  0  0  0
  186.8860  178.0170  135.1300 C   0  0  0  0  0  2  0  0  0  0  0  0
  189.2520  175.1460  134.3620 C   0  0  0  0  0  2  0  0  0  0  0  0
  189.6630  172.1150  134.8040 C   0  0  0  0  0  3  0  0  0  0  0  0
  189.3480  170.7690  134.6200 C   0  0  0  0  0  3  0  0  0  0  0  0
  187.5670  172.4570  135.9780 C   0  0  0  0  0  0  0  0  0  0  0  0
  187.2580  171.1030  135.7860 C   0  0  0  0  0  3  0  0  0  0  0  0
  190.2870  174.5320  136.4280 O   0  0  0  0  0  1  0  0  0  0  0  0
  188.1440  170.2640  135.1100 C   0  0  0  0  0  3  0  0  0  0  0  0
  188.7760  172.9650  135.4770 C   0  0  0  0  0  0  0  0  0  0  0  0
  183.0390  177.6920  137.8330 C   0  0  1  0  0  0  0  0  0  0  0  0
  183.7610  173.7330  138.7610 O   0  0  0  0  0  0  0  0  0  0  0  0
  182.6260  177.2970  136.4220 C   0  0  0  0  0  2  0  0  0  0  0  0
  184.9170  174.0840  138.0550 C   0  0  0  0  0  2  0  0  0  0  0  0
  184.9540  176.1270  135.4890 O   0  0  0  0  0  1  0  0  0  0  0  0
  186.6940  173.3160  136.6560 O   0  0  0  0  0  0  0  0  0  0  0  0
  187.3870  176.7800  134.3750 C   0  0  0  0  0  2  0  0  0  0  0  0
  188.8870  176.6070  134.5520 C   0  0  0  0  0  2  0  0  0  0  0  0
  186.4150  177.7250  136.5000 N   0  0  0  0  0  0  0  0  0  0  0  0
  182.7330  174.4770  138.1620 C   0  0  0  0  0  2  0  0  0  0  0  0
  189.1170  174.4080  135.6830 C   0  0  2  0  0  3  0  0  0  0  0  0
  183.5200  176.6830  138.6960 O   0  0  0  0  0  0  0  0  0  0  0  0
  185.1240  177.0130  136.5540 C   0  0  1  0  0  3  0  0  0  0  0  0
  185.4400  172.9290  137.2120 C   0  0  2  0  0  3  0  0  0  0  0  0
  183.9650  178.0040  136.6450 C   0  0  2  0  0  3  0  0  0  0  0  0
  184.4660  172.6060  136.1210 C   0  0  0  0  0  0  0  0  0  0  0  0
  183.1070  171.6120  134.8910 C   0  0  0  0  0  0  0  0  0  0  0  0
  184.1730  173.4470  135.1200 N   0  0  0  0  0  0  0  0  0  0  0  0
  183.3070  172.8220  134.3460 N   0  0  0  0  0  0  0  0  0  0  0  0
  183.8130  171.4360  136.0190 N   0  0  0  0  0  2  0  0  0  0  0  0
  182.1430  170.6100  134.3490 C   0  0  0  0  0  3  0  0  0  0  0  0
  180.7270  170.9660  134.7600 C   0  0  0  0  0  2  0  0  0  0  0  0
  181.4700  169.8680  135.4860 C   0  0  0  0  0  2  0  0  0  0  0  0
  187.4030  176.9700  137.2700 C   0  0  0  0  0  2  0  0  0  0  0  0
  186.9940  176.9160  138.7350 C   0  0  0  0  0  2  0  0  0  0  0  0
  187.3670  176.5960  143.0100 S   0  0  0  0  0  0  0  0  0  0  0  0
  188.3540  178.6420  139.9500 C   0  0  0  0  0  2  0  0  0  0  0  0
  186.2960  178.6380  141.8230 C   0  0  2  0  0  3  0  0  0  0  0  0
  186.9790  178.3160  139.3530 C   0  0  2  0  0  3  0  0  0  0  0  0
  185.8250  178.4500  140.3790 C   0  0  0  0  0  2  0  0  0  0  0  0
  187.4860  177.7400  142.1440 C   0  0  0  0  0  0  0  0  0  0  0  0
  188.6540  177.7780  141.1860 C   0  0  2  0  0  3  0  0  0  0  0  0
  183.7830  178.7570  142.0960 C   0  0  0  0  0  1  0  0  0  0  0  0
  185.2420  179.8850  143.7850 C   0  0  0  0  0  1  0  0  0  0  0  0
  185.1220  178.7290  142.8090 C   0  0  0  0  0  3  0  0  0  0  0  0
  189.9120  178.2780  141.8820 C   0  0  0  0  0  2  0  0  0  0  0  0
  190.7380  177.0980  142.3720 C   0  0  1  0  0  3  0  0  0  0  0  0
  192.1160  177.0190  141.7970 C   0  0  2  0  0  3  0  0  0  0  0  0
  191.8640  177.5770  143.0640 O   0  0  0  0  0  0  0  0  0  0  0  0
  192.3870  178.0390  140.8820 O   0  0  0  0  0  0  0  0  0  0  0  0
  191.7590  176.4750  139.2040 C   0  0  0  0  0  1  0  0  0  0  0  0
  192.8440  177.3770  139.7520 C   0  0  0  0  0  2  0  0  0  0  0  0
  182.4390  178.9490  138.4660 C   0  0  0  0  0  2  0  0  0  0  0  0
  180.3070  179.6980  139.3840 N   0  0  0  0  0  1  0  0  0  0  0  0
  180.9260  179.0010  138.2680 C   0  0  0  0  0  2  0  0  0  0  0  0
  2 19  1  0  0  0  0
  3 18  1  0  0  0  0
  3 21  1  0  0  0  0
  4 10  1  0  0  0  0
  5  4  2  0  0  0  0
  5  9  1  0  0  0  0
  6 16  1  0  0  0  0
  7  6  1  0  0  0  0
  9  7  2  0  0  0  0
 10 21  1  0  0  0  0
 10  6  2  0  0  0  0
 11 53  1  1  0  0  0
 11 22  1  0  0  0  0
 13 11  1  0  0  0  0
 14 12  1  0  0  0  0
 16 24  1  0  0  0  0
 17 18  1  0  0  0  0
 17  2  1  0  0  0  0
 19 23  1  0  0  0  0
 19 34  1  0  0  0  0
 20 12  1  0  0  0  0
 20  1  1  0  0  0  0
 21  8  1  6  0  0  0
 22  1  1  0  0  0  0
 23 15  1  6  0  0  0
 23 25  1  0  0  0  0
 24 26  1  6  0  0  0
 24 14  1  0  0  0  0
 25 13  1  6  0  0  0
 25 11  1  0  0  0  0
 27 30  1  0  0  0  0
 28 26  2  0  0  0  0
 29 27  2  0  0  0  0
 29 28  1  0  0  0  0
 30 26  1  0  0  0  0
 31 32  1  0  0  0  0
 31 27  1  0  0  0  0
 31 33  1  0  0  0  0
 32 33  1  0  0  0  0
 34 35  1  0  0  0  0
 37 42  1  0  0  0  0
 38 41  1  0  0  0  0
 38 45  1  1  0  0  0
 39 35  1  1  0  0  0
 39 37  1  0  0  0  0
 39 40  1  0  0  0  0
 40 38  1  0  0  0  0
 41 36  2  0  0  0  0
 42 46  1  1  0  0  0
 42 41  1  0  0  0  0
 43 45  1  0  0  0  0
 45 44  1  0  0  0  0
 47 46  1  6  0  0  0
 47 49  1  0  0  0  0
 48 50  1  6  0  0  0
 48 47  1  0  0  0  0
 48 49  1  0  0  0  0
 51 52  1  0  0  0  0
 52 50  1  0  0  0  0
 55 53  1  0  0  0  0
 55 54  1  0  0  0  0
M  END
>  <MODEL>
3

>  <REMARK>
 VINA RESULT:      -3.9      2.891      4.865
  Name = 
  12 active torsions:
  status: ('A' for Active; 'I' for Inactive)
    1  A    between atoms: C_3  and  C_21
    2  A    between atoms: C_6  and  O_25
    3  A    between atoms: C_8  and  C_20
    4  A    between atoms: C_8  and  C_22
    5  A    between atoms: C_10  and  C_32
    6  A    between atoms: C_12  and  C_50
    7  A    between atoms: C_13  and  C_52
    8  A    between atoms: C_21  and  C_53
    9  A    between atoms: C_22  and  N_43
   10  A    between atoms: O_25  and  C_38
   11  A    between atoms: C_27  and  C_55
   12  A    between atoms: C_41  and  C_55
                            x       y       z     vdW  Elec       q    Type
                         _______ _______ _______ _____ _____    ______ ____

>  <TORSDO>
F 12

$$$$
=
 OpenBabel10272401233D

 55 61  0  0  1  0  0  0  0  0999 V2000
  180.6460  176.8870  140.4840 C   0  0  0  0  0  2  0  0  0  0  0  0
  185.6830  179.9180  138.3960 C   0  0  0  0  0  2  0  0  0  0  0  0
  187.7980  177.3900  136.5090 C   0  0  0  0  0  2  0  0  0  0  0  0
  187.8270  174.4630  135.5150 C   0  0  0  0  0  3  0  0  0  0  0  0
  187.3920  173.4090  134.7120 C   0  0  0  0  0  3  0  0  0  0  0  0
  185.6590  174.5440  136.6030 C   0  0  0  0  0  0  0  0  0  0  0  0
  185.2300  173.4860  135.7900 C   0  0  0  0  0  3  0  0  0  0  0  0
  188.5170  175.7620  138.1050 O   0  0  0  0  0  1  0  0  0  0  0  0
  186.0920  172.9230  134.8490 C   0  0  0  0  0  3  0  0  0  0  0  0
  186.9650  175.0380  136.4590 C   0  0  0  0  0  0  0  0  0  0  0  0
  181.5390  178.9820  140.4360 C   0  0  1  0  0  0  0  0  0  0  0  0
  181.7200  174.9730  139.4590 O   0  0  0  0  0  0  0  0  0  0  0  0
  181.2510  179.3340  138.9830 C   0  0  0  0  0  2  0  0  0  0  0  0
  182.9790  175.4290  139.0570 C   0  0  0  0  0  2  0  0  0  0  0  0
  183.5300  178.3810  137.7360 O   0  0  0  0  0  1  0  0  0  0  0  0
  184.8120  175.1230  137.5560 O   0  0  0  0  0  0  0  0  0  0  0  0
  186.1310  179.0980  137.1810 C   0  0  0  0  0  2  0  0  0  0  0  0
  187.5730  178.6420  137.3350 C   0  0  0  0  0  2  0  0  0  0  0  0
  185.0290  179.1120  139.4470 N   0  0  0  0  0  0  0  0  0  0  0  0
  180.8530  176.0510  139.2200 C   0  0  0  0  0  2  0  0  0  0  0  0
  187.4340  176.1630  137.3270 C   0  0  2  0  0  3  0  0  0  0  0  0
  181.8060  177.6330  140.7560 O   0  0  0  0  0  0  0  0  0  0  0  0
  183.6720  178.6530  139.0980 C   0  0  1  0  0  3  0  0  0  0  0  0
  183.4680  174.7170  137.8040 C   0  0  2  0  0  3  0  0  0  0  0  0
  182.6240  179.6560  139.5780 C   0  0  2  0  0  3  0  0  0  0  0  0
  182.5960  175.0720  136.6380 C   0  0  0  0  0  0  0  0  0  0  0  0
  181.5140  176.1350  135.2080 C   0  0  0  0  0  0  0  0  0  0  0  0
  181.9470  174.1630  135.8990 N   0  0  0  0  0  0  0  0  0  0  0  0
  181.2680  174.8360  134.9880 N   0  0  0  0  0  0  0  0  0  0  0  0
  182.3560  176.3310  136.2360 N   0  0  0  0  0  2  0  0  0  0  0  0
  180.9800  177.2340  134.3510 C   0  0  0  0  0  3  0  0  0  0  0  0
  181.9360  178.4110  134.3470 C   0  0  0  0  0  2  0  0  0  0  0  0
  180.6860  178.4580  135.1970 C   0  0  0  0  0  2  0  0  0  0  0  0
  185.8360  177.9530  139.8300 C   0  0  0  0  0  2  0  0  0  0  0  0
  186.8500  178.3500  140.8930 C   0  0  0  0  0  2  0  0  0  0  0  0
  190.0570  179.6180  143.4670 S   0  0  0  0  0  0  0  0  0  0  0  0
  187.3210  177.0120  142.9650 C   0  0  0  0  0  2  0  0  0  0  0  0
  190.0050  177.3070  142.2900 C   0  0  2  0  0  3  0  0  0  0  0  0
  187.5680  177.1210  141.4550 C   0  0  2  0  0  3  0  0  0  0  0  0
  189.0730  177.1480  141.0860 C   0  0  0  0  0  2  0  0  0  0  0  0
  189.4570  178.3210  143.2890 C   0  0  0  0  0  0  0  0  0  0  0  0
  188.0250  178.1420  143.7350 C   0  0  2  0  0  3  0  0  0  0  0  0
  191.6500  177.3570  140.3670 C   0  0  0  0  0  1  0  0  0  0  0  0
  192.3350  176.2920  142.5230 C   0  0  0  0  0  1  0  0  0  0  0  0
  191.4820  177.3670  141.8750 C   0  0  0  0  0  3  0  0  0  0  0  0
  187.9510  177.8790  145.2330 C   0  0  0  0  0  2  0  0  0  0  0  0
  186.5190  177.5590  145.6340 C   0  0  1  0  0  3  0  0  0  0  0  0
  186.1040  178.1110  146.9610 C   0  0  2  0  0  3  0  0  0  0  0  0
  185.7920  178.7570  145.7500 O   0  0  0  0  0  0  0  0  0  0  0  0
  187.1290  178.8030  147.6110 O   0  0  0  0  0  0  0  0  0  0  0  0
  189.1980  178.2630  148.6500 C   0  0  0  0  0  1  0  0  0  0  0  0
  187.7750  177.8350  148.3660 C   0  0  0  0  0  2  0  0  0  0  0  0
  181.0090  179.8900  141.5470 C   0  0  0  0  0  2  0  0  0  0  0  0
  180.4540  178.6540  143.5750 N   0  0  0  0  0  1  0  0  0  0  0  0
  181.4940  179.4290  142.9190 C   0  0  0  0  0  2  0  0  0  0  0  0
  1 22  1  0  0  0  0
  2 19  1  0  0  0  0
  3 21  1  0  0  0  0
  3 18  1  0  0  0  0
  4 10  1  0  0  0  0
  5  9  1  0  0  0  0
  5  4  2  0  0  0  0
  6 16  1  0  0  0  0
  7  6  1  0  0  0  0
  9  7  2  0  0  0  0
 10  6  2  0  0  0  0
 10 21  1  0  0  0  0
 11 22  1  0  0  0  0
 11 53  1  1  0  0  0
 13 11  1  0  0  0  0
 14 12  1  0  0  0  0
 16 24  1  0  0  0  0
 17 18  1  0  0  0  0
 17  2  1  0  0  0  0
 19 34  1  0  0  0  0
 20 12  1  0  0  0  0
 20  1  1  0  0  0  0
 21  8  1  6  0  0  0
 23 15  1  6  0  0  0
 23 19  1  0  0  0  0
 23 25  1  0  0  0  0
 24 26  1  6  0  0  0
 24 14  1  0  0  0  0
 25 13  1  6  0  0  0
 25 11  1  0  0  0  0
 27 30  1  0  0  0  0
 28 26  2  0  0  0  0
 29 27  2  0  0  0  0
 29 28  1  0  0  0  0
 30 26  1  0  0  0  0
 31 33  1  0  0  0  0
 31 27  1  0  0  0  0
 32 31  1  0  0  0  0
 32 33  1  0  0  0  0
 34 35  1  0  0  0  0
 37 42  1  0  0  0  0
 38 45  1  6  0  0  0
 38 41  1  0  0  0  0
 39 35  1  1  0  0  0
 39 37  1  0  0  0  0
 40 39  1  0  0  0  0
 40 38  1  0  0  0  0
 41 36  2  0  0  0  0
 41 42  1  0  0  0  0
 42 46  1  1  0  0  0
 43 45  1  0  0  0  0
 45 44  1  0  0  0  0
 47 46  1  1  0  0  0
 47 49  1  0  0  0  0
 47 48  1  0  0  0  0
 48 50  1  1  0  0  0
 49 48  1  0  0  0  0
 50 52  1  0  0  0  0
 52 51  1  0  0  0  0
 53 55  1  0  0  0  0
 55 54  1  0  0  0  0
M  END
>  <MODEL>
4

>  <REMARK>
 VINA RESULT:      -2.4      3.182      6.351
  Name = 
  12 active torsions:
  status: ('A' for Active; 'I' for Inactive)
    1  A    between atoms: C_3  and  C_21
    2  A    between atoms: C_6  and  O_25
    3  A    between atoms: C_8  and  C_20
    4  A    between atoms: C_8  and  C_22
    5  A    between atoms: C_10  and  C_32
    6  A    between atoms: C_12  and  C_50
    7  A    between atoms: C_13  and  C_52
    8  A    between atoms: C_21  and  C_53
    9  A    between atoms: C_22  and  N_43
   10  A    between atoms: O_25  and  C_38
   11  A    between atoms: C_27  and  C_55
   12  A    between atoms: C_41  and  C_55
                            x       y       z     vdW  Elec       q    Type
                         _______ _______ _______ _____ _____    ______ ____

>  <TORSDO>
F 12

$$$$
