=
 OpenBabel10272401283D

 55 61  0  0  1  0  0  0  0  0999 V2000
  192.4080  176.2300  137.5500 C   0  0  1  0  0  3  0  0  0  0  0  0
  190.9800  175.7240  137.5720 C   0  0  0  0  0  2  0  0  0  0  0  0
  190.1680  176.4140  136.4790 C   0  0  0  0  0  2  0  0  0  0  0  0
  189.3880  174.8860  134.3470 S   0  0  0  0  0  1  0  0  0  0  0  0
  188.9740  175.5810  135.9900 C   0  0  1  0  0  0  0  0  0  0  0  0
  188.8400  174.5170  136.8630 F   0  0  0  0  0  0  0  0  0  0  0  0
  185.6070  175.1270  137.1230 C   0  0  0  0  0  2  0  0  0  0  0  0
  185.1140  177.4990  136.3970 O   0  0  0  0  0  0  0  0  0  0  0  0
  187.6340  176.3960  135.9640 C   0  0  1  0  0  0  0  0  0  0  0  0
  187.8270  176.5770  138.3770 F   0  0  0  0  0  0  0  0  0  0  0  0
  187.4970  177.2820  137.2240 C   0  0  2  0  0  3  0  0  0  0  0  0
  186.3690  174.4840  134.8850 O   0  0  0  0  0  1  0  0  0  0  0  0
  185.0410  176.1040  136.0900 C   0  0  1  0  0  3  0  0  0  0  0  0
  186.0890  177.9080  137.3420 C   0  0  2  0  0  3  0  0  0  0  0  0
  187.6230  177.2350  134.8460 O   0  0  0  0  0  1  0  0  0  0  0  0
  186.4020  175.4640  135.8740 C   0  0  1  0  0  0  0  0  0  0  0  0
  185.5070  178.1600  138.7290 C   0  0  1  0  0  3  0  0  0  0  0  0
  186.4210  178.8030  139.5510 O   0  0  0  0  0  1  0  0  0  0  0  0
  184.2360  178.9660  138.6310 C   0  0  0  0  0  2  0  0  0  0  0  0
  184.4440  180.2230  139.1840 O   0  0  0  0  0  1  0  0  0  0  0  0
  192.8070  176.6960  138.9480 C   0  0  0  0  0  2  0  0  0  0  0  0
  191.7910  177.6760  139.5120 C   0  0  0  0  0  2  0  0  0  0  0  0
  191.8880  177.7180  140.9280 O   0  0  0  0  0  0  0  0  0  0  0  0
  190.5220  175.9090  141.2650 O   0  0  0  0  0  0  0  0  0  0  0  0
  190.7840  177.3460  143.0860 N   0  0  0  0  0  2  0  0  0  0  0  0
  191.0570  176.9460  141.7390 C   0  0  0  0  0  0  0  0  0  0  0  0
  186.5280  177.5210  142.6930 C   0  0  0  0  0  3  0  0  0  0  0  0
  191.7150  175.7720  145.5320 C   0  0  0  0  0  3  0  0  0  0  0  0
  186.0430  178.9870  146.1500 C   0  0  0  0  0  2  0  0  0  0  0  0
  192.3220  175.7290  146.7910 C   0  0  0  0  0  3  0  0  0  0  0  0
  189.9520  177.1720  146.4320 C   0  0  0  0  0  0  0  0  0  0  0  0
  190.5690  177.1340  147.6860 C   0  0  0  0  0  3  0  0  0  0  0  0
  191.7520  176.4130  147.8670 C   0  0  0  0  0  3  0  0  0  0  0  0
  190.5290  176.4920  145.3430 C   0  0  0  0  0  0  0  0  0  0  0  0
  187.7960  177.0340  142.7900 N   0  0  0  0  0  0  0  0  0  0  0  0
  183.8810  179.1550  144.9460 C   0  0  2  0  0  3  0  0  0  0  0  0
  187.9770  177.7940  145.0500 C   0  0  0  0  0  0  0  0  0  0  0  0
  185.9380  178.1680  143.7770 C   0  0  0  0  0  0  0  0  0  0  0  0
  188.7110  177.8590  146.2760 N   0  0  0  0  0  0  0  0  0  0  0  0
  184.4950  178.5830  143.6680 C   0  0  0  0  0  2  0  0  0  0  0  0
  189.9220  176.5700  143.9640 C   0  0  0  0  0  0  0  0  0  0  0  0
  184.5660  178.6400  146.2090 C   0  0  0  0  0  2  0  0  0  0  0  0
  188.5250  177.1400  143.9340 C   0  0  0  0  0  0  0  0  0  0  0  0
  186.6730  178.3110  144.9690 C   0  0  0  0  0  0  0  0  0  0  0  0
  182.5260  178.8160  144.9810 O   0  0  0  0  0  0  0  0  0  0  0  0
  182.0730  178.9230  143.6690 C   0  0  0  0  0  2  0  0  0  0  0  0
  180.6090  178.5190  143.6200 C   0  0  0  0  0  1  0  0  0  0  0  0
  193.3240  175.1110  137.0820 C   0  0  0  0  0  2  0  0  0  0  0  0
  194.6440  175.1890  137.8360 C   0  0  0  0  0  2  0  0  0  0  0  0
  197.1300  171.7800  137.0140 C   0  0  0  0  0  3  0  0  0  0  0  0
  195.4980  174.0040  137.5350 C   0  0  0  0  0  0  0  0  0  0  0  0
  195.2390  172.7820  138.1680 C   0  0  0  0  0  3  0  0  0  0  0  0
  197.3860  172.9980  136.3760 C   0  0  0  0  0  3  0  0  0  0  0  0
  196.0560  171.6710  137.9090 C   0  0  0  0  0  3  0  0  0  0  0  0
  196.5710  174.1110  136.6360 C   0  0  0  0  0  3  0  0  0  0  0  0
  1 48  1  1  0  0  0
  1  2  1  0  0  0  0
  1 21  1  0  0  0  0
  3  2  1  0  0  0  0
  5  4  1  6  0  0  0
  5  3  1  0  0  0  0
  5  6  1  0  0  0  0
  8 14  1  0  0  0  0
  9 15  1  6  0  0  0
  9  5  1  0  0  0  0
  9 11  1  0  0  0  0
 11 14  1  0  0  0  0
 11 10  1  1  0  0  0
 13  8  1  0  0  0  0
 13  7  1  1  0  0  0
 14 17  1  1  0  0  0
 16 12  1  6  0  0  0
 16  9  1  0  0  0  0
 16 13  1  0  0  0  0
 16  7  1  0  0  0  0
 17 18  1  1  0  0  0
 19 17  1  0  0  0  0
 19 20  1  0  0  0  0
 21 22  1  0  0  0  0
 22 23  1  0  0  0  0
 23 26  1  0  0  0  0
 24 26  2  0  0  0  0
 25 41  1  0  0  0  0
 26 25  1  0  0  0  0
 27 35  2  0  0  0  0
 27 38  1  0  0  0  0
 28 30  1  0  0  0  0
 29 42  1  0  0  0  0
 30 33  2  0  0  0  0
 31 32  2  0  0  0  0
 32 33  1  0  0  0  0
 34 28  2  0  0  0  0
 34 31  1  0  0  0  0
 35 43  1  0  0  0  0
 36 45  1  1  0  0  0
 36 42  1  0  0  0  0
 37 39  2  0  0  0  0
 38 44  2  0  0  0  0
 39 31  1  0  0  0  0
 40 38  1  0  0  0  0
 40 36  1  0  0  0  0
 41 34  1  0  0  0  0
 43 41  2  0  0  0  0
 43 37  1  0  0  0  0
 44 37  1  0  0  0  0
 44 29  1  0  0  0  0
 46 45  1  0  0  0  0
 47 46  1  0  0  0  0
 48 49  1  0  0  0  0
 50 54  1  0  0  0  0
 51 49  1  0  0  0  0
 51 52  1  0  0  0  0
 53 55  1  0  0  0  0
 53 50  2  0  0  0  0
 54 52  2  0  0  0  0
 55 51  2  0  0  0  0
M  END
>  <MODEL>
1

>  <REMARK>
 VINA RESULT:      -8.7      0.000      0.000
  Name = 
  16 active torsions:
  status: ('A' for Active; 'I' for Inactive)
    1  A    between atoms: O_4  and  C_37
    2  A    between atoms: O_4  and  C_40
    3  A    between atoms: C_6  and  C_20
    4  A    between atoms: C_8  and  C_22
    5  A    between atoms: C_8  and  C_43
    6  A    between atoms: O_10  and  C_18
    7  A    between atoms: O_10  and  C_32
    8  A    between atoms: C_11  and  C_29
    9  A    between atoms: N_19  and  C_45
   10  A    between atoms: C_20  and  C_22
   11  A    between atoms: C_27  and  C_54
   12  A    between atoms: C_29  and  C_38
   13  A    between atoms: C_35  and  C_37
   14  A    between atoms: C_35  and  C_43
   15  A    between atoms: C_43  and  C_51
   16  A    between atoms: C_51  and  C_54
                            x       y       z     vdW  Elec       q    Type
                         _______ _______ _______ _____ _____    ______ ____

>  <TORSDO>
F 16

$$$$
=
 OpenBabel10272401283D

 55 61  0  0  1  0  0  0  0  0999 V2000
  191.0890  176.2140  138.9650 C   0  0  1  0  0  3  0  0  0  0  0  0
  192.3120  176.6680  138.1950 C   0  0  0  0  0  2  0  0  0  0  0  0
  193.2210  175.4750  137.9110 C   0  0  0  0  0  2  0  0  0  0  0  0
  192.4270  175.5780  135.2950 S   0  0  0  0  0  1  0  0  0  0  0  0
  193.8080  175.4790  136.4920 C   0  0  1  0  0  0  0  0  0  0  0  0
  194.5450  176.6420  136.3650 F   0  0  0  0  0  0  0  0  0  0  0  0
  195.3870  172.9010  138.4120 C   0  0  0  0  0  2  0  0  0  0  0  0
  196.1650  171.8560  136.2460 O   0  0  0  0  0  0  0  0  0  0  0  0
  194.7400  174.2480  136.2160 C   0  0  1  0  0  0  0  0  0  0  0  0
  192.8830  172.8340  136.8830 F   0  0  0  0  0  0  0  0  0  0  0  0
  193.9100  172.9700  135.9550 C   0  0  2  0  0  3  0  0  0  0  0  0
  196.4630  175.0400  137.8960 O   0  0  0  0  0  1  0  0  0  0  0  0
  196.4830  172.6820  137.3690 C   0  0  1  0  0  3  0  0  0  0  0  0
  194.7940  171.7030  135.9170 C   0  0  2  0  0  3  0  0  0  0  0  0
  195.5130  174.4980  135.0770 O   0  0  0  0  0  1  0  0  0  0  0  0
  195.7030  173.9850  137.3980 C   0  0  1  0  0  0  0  0  0  0  0  0
  194.2090  170.3800  136.4000 C   0  0  1  0  0  3  0  0  0  0  0  0
  193.0780  170.0320  135.6750 O   0  0  0  0  0  1  0  0  0  0  0  0
  195.2410  169.2830  136.3170 C   0  0  0  0  0  2  0  0  0  0  0  0
  195.3000  168.6130  137.5320 O   0  0  0  0  0  1  0  0  0  0  0  0
  190.6810  177.2970  139.9610 C   0  0  0  0  0  2  0  0  0  0  0  0
  191.8310  177.6520  140.8890 C   0  0  0  0  0  2  0  0  0  0  0  0
  191.3310  178.0210  142.1660 O   0  0  0  0  0  0  0  0  0  0  0  0
  190.3240  176.0280  142.6830 O   0  0  0  0  0  0  0  0  0  0  0  0
  189.3030  177.9440  143.5430 N   0  0  0  0  0  2  0  0  0  0  0  0
  190.3320  177.2830  142.7990 C   0  0  0  0  0  0  0  0  0  0  0  0
  185.4000  177.6570  141.8160 C   0  0  0  0  0  3  0  0  0  0  0  0
  189.4680  176.8020  146.3710 C   0  0  0  0  0  3  0  0  0  0  0  0
  183.7520  179.5120  144.6760 C   0  0  0  0  0  2  0  0  0  0  0  0
  189.6370  176.9840  147.7470 C   0  0  0  0  0  3  0  0  0  0  0  0
  187.4440  178.1330  146.4460 C   0  0  0  0  0  0  0  0  0  0  0  0
  187.6220  178.3200  147.8190 C   0  0  0  0  0  3  0  0  0  0  0  0
  188.7170  177.7460  148.4700 C   0  0  0  0  0  3  0  0  0  0  0  0
  188.3730  177.3740  145.7110 C   0  0  0  0  0  0  0  0  0  0  0  0
  186.5900  177.3110  142.3800 N   0  0  0  0  0  0  0  0  0  0  0  0
  182.0900  179.3120  142.8460 C   0  0  2  0  0  3  0  0  0  0  0  0
  185.9940  178.3760  144.4360 C   0  0  0  0  0  0  0  0  0  0  0  0
  184.4600  178.3810  142.5470 C   0  0  0  0  0  0  0  0  0  0  0  0
  186.2870  178.6720  145.8040 N   0  0  0  0  0  0  0  0  0  0  0  0
  183.1120  178.6380  141.9290 C   0  0  0  0  0  2  0  0  0  0  0  0
  188.2430  177.2110  144.2170 C   0  0  0  0  0  0  0  0  0  0  0  0
  182.3540  179.0360  144.3230 C   0  0  0  0  0  2  0  0  0  0  0  0
  186.9050  177.6350  143.6630 C   0  0  0  0  0  0  0  0  0  0  0  0
  184.7630  178.7500  143.8720 C   0  0  0  0  0  0  0  0  0  0  0  0
  180.8150  178.8520  142.5080 O   0  0  0  0  0  0  0  0  0  0  0  0
  180.3310  179.7400  141.5510 C   0  0  0  0  0  2  0  0  0  0  0  0
  179.9980  178.9670  140.2870 C   0  0  0  0  0  1  0  0  0  0  0  0
  189.9590  175.9390  137.9870 C   0  0  0  0  0  2  0  0  0  0  0  0
  189.3480  177.2580  137.5370 C   0  0  0  0  0  2  0  0  0  0  0  0
  185.0590  176.9800  137.4520 C   0  0  0  0  0  3  0  0  0  0  0  0
  187.8600  177.1660  137.4900 C   0  0  0  0  0  0  0  0  0  0  0  0
  187.0840  178.1630  138.0940 C   0  0  0  0  0  3  0  0  0  0  0  0
  185.8340  175.9860  136.8440 C   0  0  0  0  0  3  0  0  0  0  0  0
  185.6840  178.0690  138.0760 C   0  0  0  0  0  3  0  0  0  0  0  0
  187.2340  176.0780  136.8620 C   0  0  0  0  0  3  0  0  0  0  0  0
  1 48  1  6  0  0  0
  1 21  1  0  0  0  0
  2  1  1  0  0  0  0
  3  2  1  0  0  0  0
  5  4  1  6  0  0  0
  5  3  1  0  0  0  0
  6  5  1  0  0  0  0
  8 13  1  0  0  0  0
  9 15  1  6  0  0  0
  9  5  1  0  0  0  0
  9 16  1  0  0  0  0
 11  9  1  0  0  0  0
 11 10  1  1  0  0  0
 13 16  1  0  0  0  0
 13  7  1  1  0  0  0
 14 11  1  0  0  0  0
 14  8  1  0  0  0  0
 14 17  1  1  0  0  0
 16 12  1  1  0  0  0
 16  7  1  0  0  0  0
 17 18  1  6  0  0  0
 19 17  1  0  0  0  0
 19 20  1  0  0  0  0
 21 22  1  0  0  0  0
 22 23  1  0  0  0  0
 23 26  1  0  0  0  0
 24 26  2  0  0  0  0
 25 41  1  0  0  0  0
 26 25  1  0  0  0  0
 27 35  2  0  0  0  0
 27 38  1  0  0  0  0
 28 30  1  0  0  0  0
 30 33  2  0  0  0  0
 31 32  2  0  0  0  0
 32 33  1  0  0  0  0
 34 28  2  0  0  0  0
 34 31  1  0  0  0  0
 35 43  1  0  0  0  0
 36 45  1  6  0  0  0
 36 42  1  0  0  0  0
 37 39  2  0  0  0  0
 38 44  2  0  0  0  0
 39 31  1  0  0  0  0
 40 38  1  0  0  0  0
 40 36  1  0  0  0  0
 41 34  1  0  0  0  0
 42 29  1  0  0  0  0
 43 41  2  0  0  0  0
 43 37  1  0  0  0  0
 44 37  1  0  0  0  0
 44 29  1  0  0  0  0
 46 45  1  0  0  0  0
 47 46  1  0  0  0  0
 49 48  1  0  0  0  0
 50 54  1  0  0  0  0
 51 49  1  0  0  0  0
 51 52  1  0  0  0  0
 53 55  1  0  0  0  0
 53 50  2  0  0  0  0
 54 52  2  0  0  0  0
 55 51  2  0  0  0  0
M  END
>  <MODEL>
2

>  <REMARK>
 VINA RESULT:      -8.0      3.044      7.020
  Name = 
  16 active torsions:
  status: ('A' for Active; 'I' for Inactive)
    1  A    between atoms: O_4  and  C_37
    2  A    between atoms: O_4  and  C_40
    3  A    between atoms: C_6  and  C_20
    4  A    between atoms: C_8  and  C_22
    5  A    between atoms: C_8  and  C_43
    6  A    between atoms: O_10  and  C_18
    7  A    between atoms: O_10  and  C_32
    8  A    between atoms: C_11  and  C_29
    9  A    between atoms: N_19  and  C_45
   10  A    between atoms: C_20  and  C_22
   11  A    between atoms: C_27  and  C_54
   12  A    between atoms: C_29  and  C_38
   13  A    between atoms: C_35  and  C_37
   14  A    between atoms: C_35  and  C_43
   15  A    between atoms: C_43  and  C_51
   16  A    between atoms: C_51  and  C_54
                            x       y       z     vdW  Elec       q    Type
                         _______ _______ _______ _____ _____    ______ ____

>  <TORSDO>
F 16

$$$$
=
 OpenBabel10272401283D

 55 61  0  0  1  0  0  0  0  0999 V2000
  191.3450  176.9640  138.8010 C   0  0  1  0  0  3  0  0  0  0  0  0
  190.4230  176.0400  138.0330 C   0  0  0  0  0  2  0  0  0  0  0  0
  189.8370  176.7720  136.8290 C   0  0  0  0  0  2  0  0  0  0  0  0
  189.9490  175.6280  134.3460 S   0  0  0  0  0  1  0  0  0  0  0  0
  189.0160  175.8630  135.9030 C   0  0  1  0  0  0  0  0  0  0  0  0
  188.9310  174.6290  136.5210 F   0  0  0  0  0  0  0  0  0  0  0  0
  185.6600  174.8230  136.6000 C   0  0  0  0  0  2  0  0  0  0  0  0
  184.8530  177.0290  135.6630 O   0  0  0  0  0  0  0  0  0  0  0  0
  187.5670  176.4070  135.6450 C   0  0  1  0  0  0  0  0  0  0  0  0
  187.3750  176.7150  138.0460 F   0  0  0  0  0  0  0  0  0  0  0  0
  187.0920  177.2990  136.8150 C   0  0  2  0  0  3  0  0  0  0  0  0
  186.8410  174.2510  134.5310 O   0  0  0  0  0  1  0  0  0  0  0  0
  185.0800  175.6340  135.4400 C   0  0  1  0  0  3  0  0  0  0  0  0
  185.5910  177.6510  136.7020 C   0  0  2  0  0  3  0  0  0  0  0  0
  187.5650  177.1860  134.4830 O   0  0  0  0  0  1  0  0  0  0  0  0
  186.5520  175.2560  135.4510 C   0  0  1  0  0  0  0  0  0  0  0  0
  184.7790  177.8420  137.9790 C   0  0  1  0  0  3  0  0  0  0  0  0
  185.1210  179.0210  138.6240 O   0  0  0  0  0  1  0  0  0  0  0  0
  183.3020  177.8220  137.6740 C   0  0  0  0  0  2  0  0  0  0  0  0
  182.5860  177.9270  138.8600 O   0  0  0  0  0  1  0  0  0  0  0  0
  190.8140  177.1540  140.2200 C   0  0  0  0  0  2  0  0  0  0  0  0
  191.9010  177.6670  141.1500 C   0  0  0  0  0  2  0  0  0  0  0  0
  191.3300  178.1030  142.3750 O   0  0  0  0  0  0  0  0  0  0  0  0
  190.4410  176.1030  143.0530 O   0  0  0  0  0  0  0  0  0  0  0  0
  189.2250  178.0110  143.6290 N   0  0  0  0  0  2  0  0  0  0  0  0
  190.3470  177.3590  143.0260 C   0  0  0  0  0  0  0  0  0  0  0  0
  185.3140  177.6560  141.9340 C   0  0  0  0  0  3  0  0  0  0  0  0
  189.4250  176.8990  146.4670 C   0  0  0  0  0  3  0  0  0  0  0  0
  183.6620  179.5180  144.7870 C   0  0  0  0  0  2  0  0  0  0  0  0
  189.6000  177.0970  147.8410 C   0  0  0  0  0  3  0  0  0  0  0  0
  187.3830  178.2050  146.5440 C   0  0  0  0  0  0  0  0  0  0  0  0
  187.5700  178.4080  147.9140 C   0  0  0  0  0  3  0  0  0  0  0  0
  188.6760  177.8540  148.5630 C   0  0  0  0  0  3  0  0  0  0  0  0
  188.3180  177.4500  145.8100 C   0  0  0  0  0  0  0  0  0  0  0  0
  186.5120  177.3310  142.4920 N   0  0  0  0  0  0  0  0  0  0  0  0
  181.9900  179.2780  142.9710 C   0  0  2  0  0  3  0  0  0  0  0  0
  185.9170  178.4080  144.5420 C   0  0  0  0  0  0  0  0  0  0  0  0
  184.3700  178.3750  142.6640 C   0  0  0  0  0  0  0  0  0  0  0  0
  186.2160  178.7220  145.9050 N   0  0  0  0  0  0  0  0  0  0  0  0
  183.0140  178.6090  142.0540 C   0  0  0  0  0  2  0  0  0  0  0  0
  188.1790  177.2710  144.3180 C   0  0  0  0  0  0  0  0  0  0  0  0
  182.2680  179.0210  144.4490 C   0  0  0  0  0  2  0  0  0  0  0  0
  186.8310  177.6720  143.7700 C   0  0  0  0  0  0  0  0  0  0  0  0
  184.6760  178.7610  143.9830 C   0  0  0  0  0  0  0  0  0  0  0  0
  180.7180  178.7990  142.6470 O   0  0  0  0  0  0  0  0  0  0  0  0
  180.0100  179.8960  142.1630 C   0  0  0  0  0  2  0  0  0  0  0  0
  180.3220  180.0690  140.6870 C   0  0  0  0  0  1  0  0  0  0  0  0
  192.7400  176.3610  138.8320 C   0  0  0  0  0  2  0  0  0  0  0  0
  193.2150  176.1110  137.4080 C   0  0  0  0  0  2  0  0  0  0  0  0
  195.8670  172.7320  137.2550 C   0  0  0  0  0  3  0  0  0  0  0  0
  194.1490  174.9490  137.3560 C   0  0  0  0  0  0  0  0  0  0  0  0
  194.3230  174.2530  136.1530 C   0  0  0  0  0  3  0  0  0  0  0  0
  195.6990  173.4310  138.4550 C   0  0  0  0  0  3  0  0  0  0  0  0
  195.1810  173.1430  136.1040 C   0  0  0  0  0  3  0  0  0  0  0  0
  194.8400  174.5400  138.5060 C   0  0  0  0  0  3  0  0  0  0  0  0
  1  2  1  6  0  0  0
  1 48  1  0  0  0  0
  1 21  1  0  0  0  0
  3  2  1  0  0  0  0
  5  4  1  6  0  0  0
  5  6  1  0  0  0  0
  5  3  1  0  0  0  0
  8 14  1  0  0  0  0
  9 15  1  6  0  0  0
  9  5  1  0  0  0  0
  9 11  1  0  0  0  0
 11 10  1  1  0  0  0
 13 16  1  0  0  0  0
 13  8  1  0  0  0  0
 13  7  1  1  0  0  0
 14 11  1  0  0  0  0
 14 17  1  1  0  0  0
 16 12  1  6  0  0  0
 16  9  1  0  0  0  0
 16  7  1  0  0  0  0
 17 18  1  6  0  0  0
 19 17  1  0  0  0  0
 19 20  1  0  0  0  0
 21 22  1  0  0  0  0
 22 23  1  0  0  0  0
 23 26  1  0  0  0  0
 25 41  1  0  0  0  0
 26 24  2  0  0  0  0
 26 25  1  0  0  0  0
 27 35  2  0  0  0  0
 27 38  1  0  0  0  0
 28 30  1  0  0  0  0
 30 33  2  0  0  0  0
 31 32  2  0  0  0  0
 32 33  1  0  0  0  0
 34 28  2  0  0  0  0
 34 31  1  0  0  0  0
 35 43  1  0  0  0  0
 36 45  1  6  0  0  0
 36 42  1  0  0  0  0
 37 39  2  0  0  0  0
 38 44  2  0  0  0  0
 39 31  1  0  0  0  0
 40 38  1  0  0  0  0
 40 36  1  0  0  0  0
 41 34  1  0  0  0  0
 42 29  1  0  0  0  0
 43 41  2  0  0  0  0
 43 37  1  0  0  0  0
 44 37  1  0  0  0  0
 44 29  1  0  0  0  0
 46 45  1  0  0  0  0
 47 46  1  0  0  0  0
 49 48  1  0  0  0  0
 50 53  1  0  0  0  0
 51 49  1  0  0  0  0
 51 55  1  0  0  0  0
 52 51  2  0  0  0  0
 53 55  2  0  0  0  0
 54 52  1  0  0  0  0
 54 50  2  0  0  0  0
M  END
>  <MODEL>
3

>  <REMARK>
 VINA RESULT:      -7.8      1.383      2.033
  Name = 
  16 active torsions:
  status: ('A' for Active; 'I' for Inactive)
    1  A    between atoms: O_4  and  C_37
    2  A    between atoms: O_4  and  C_40
    3  A    between atoms: C_6  and  C_20
    4  A    between atoms: C_8  and  C_22
    5  A    between atoms: C_8  and  C_43
    6  A    between atoms: O_10  and  C_18
    7  A    between atoms: O_10  and  C_32
    8  A    between atoms: C_11  and  C_29
    9  A    between atoms: N_19  and  C_45
   10  A    between atoms: C_20  and  C_22
   11  A    between atoms: C_27  and  C_54
   12  A    between atoms: C_29  and  C_38
   13  A    between atoms: C_35  and  C_37
   14  A    between atoms: C_35  and  C_43
   15  A    between atoms: C_43  and  C_51
   16  A    between atoms: C_51  and  C_54
                            x       y       z     vdW  Elec       q    Type
                         _______ _______ _______ _____ _____    ______ ____

>  <TORSDO>
F 16

$$$$
=
 OpenBabel10272401283D

 55 61  0  0  1  0  0  0  0  0999 V2000
  185.5980  178.0730  142.4640 C   0  0  1  0  0  3  0  0  0  0  0  0
  184.1860  178.6240  142.4510 C   0  0  0  0  0  2  0  0  0  0  0  0
  183.2810  177.7160  141.6230 C   0  0  0  0  0  2  0  0  0  0  0  0
  181.0500  179.1480  142.2980 S   0  0  0  0  0  1  0  0  0  0  0  0
  182.1050  178.4580  140.9710 C   0  0  1  0  0  0  0  0  0  0  0  0
  182.6390  179.5260  140.2740 F   0  0  0  0  0  0  0  0  0  0  0  0
  181.4570  178.3470  137.4500 C   0  0  0  0  0  2  0  0  0  0  0  0
  180.2330  176.1640  137.8120 O   0  0  0  0  0  0  0  0  0  0  0  0
  181.2900  177.5540  139.9800 C   0  0  1  0  0  0  0  0  0  0  0  0
  183.4170  176.8540  139.0440 F   0  0  0  0  0  0  0  0  0  0  0  0
  182.1620  176.4000  139.4350 C   0  0  2  0  0  3  0  0  0  0  0  0
  180.0270  179.5400  139.0420 O   0  0  0  0  0  1  0  0  0  0  0  0
  180.1460  177.5800  137.6320 C   0  0  1  0  0  3  0  0  0  0  0  0
  181.4640  175.6410  138.2830 C   0  0  2  0  0  3  0  0  0  0  0  0
  180.2030  176.9890  140.6560 O   0  0  0  0  0  1  0  0  0  0  0  0
  180.7390  178.3700  138.7870 C   0  0  1  0  0  0  0  0  0  0  0  0
  182.3180  175.0350  137.1750 C   0  0  1  0  0  3  0  0  0  0  0  0
  182.6500  173.7170  137.4570 O   0  0  0  0  0  1  0  0  0  0  0  0
  181.6040  175.1210  135.8490 C   0  0  0  0  0  2  0  0  0  0  0  0
  182.0620  174.1110  135.0130 O   0  0  0  0  0  1  0  0  0  0  0  0
  186.3160  178.4760  141.1790 C   0  0  0  0  0  2  0  0  0  0  0  0
  187.7020  179.0270  141.4740 C   0  0  0  0  0  2  0  0  0  0  0  0
  188.6950  178.1110  141.0370 O   0  0  0  0  0  0  0  0  0  0  0  0
  188.7880  178.7940  138.8520 O   0  0  0  0  0  0  0  0  0  0  0  0
  189.2160  176.5320  139.2350 N   0  0  0  0  0  2  0  0  0  0  0  0
  188.9050  177.8550  139.6830 C   0  0  0  0  0  0  0  0  0  0  0  0
  186.1210  174.7960  136.8470 C   0  0  0  0  0  3  0  0  0  0  0  0
  191.9110  176.6870  137.8050 C   0  0  0  0  0  3  0  0  0  0  0  0
  188.0810  171.6200  136.2110 C   0  0  0  0  0  2  0  0  0  0  0  0
  193.2410  176.2770  137.6710 C   0  0  0  0  0  3  0  0  0  0  0  0
  191.1690  174.4330  137.3110 C   0  0  0  0  0  0  0  0  0  0  0  0
  192.5010  174.0260  137.1880 C   0  0  0  0  0  3  0  0  0  0  0  0
  193.5360  174.9470  137.3670 C   0  0  0  0  0  3  0  0  0  0  0  0
  190.8670  175.7710  137.6270 C   0  0  0  0  0  0  0  0  0  0  0  0
  187.1080  175.6330  137.2700 N   0  0  0  0  0  0  0  0  0  0  0  0
  185.7550  171.2410  135.4380 C   0  0  2  0  0  3  0  0  0  0  0  0
  188.7510  173.9120  137.0310 C   0  0  0  0  0  0  0  0  0  0  0  0
  186.4160  173.4790  136.5010 C   0  0  0  0  0  0  0  0  0  0  0  0
  190.1190  173.4980  137.0620 N   0  0  0  0  0  0  0  0  0  0  0  0
  185.3190  172.6240  135.9240 C   0  0  0  0  0  2  0  0  0  0  0  0
  189.4430  176.2230  137.8310 C   0  0  0  0  0  0  0  0  0  0  0  0
  187.2250  171.1980  135.0300 C   0  0  0  0  0  2  0  0  0  0  0  0
  188.4060  175.2350  137.3580 C   0  0  0  0  0  0  0  0  0  0  0  0
  187.7470  173.0290  136.5990 C   0  0  0  0  0  0  0  0  0  0  0  0
  184.9600  170.8800  134.3470 O   0  0  0  0  0  0  0  0  0  0  0  0
  183.6550  170.8260  134.8300 C   0  0  0  0  0  2  0  0  0  0  0  0
  183.3920  169.4350  135.3820 C   0  0  0  0  0  1  0  0  0  0  0  0
  186.3320  178.6180  143.6780 C   0  0  0  0  0  2  0  0  0  0  0  0
  185.9430  177.8130  144.9080 C   0  0  0  0  0  2  0  0  0  0  0  0
  189.1750  177.7360  147.7420 C   0  0  0  0  0  3  0  0  0  0  0  0
  187.0650  177.7680  145.8910 C   0  0  0  0  0  0  0  0  0  0  0  0
  186.8160  178.0420  147.2420 C   0  0  0  0  0  3  0  0  0  0  0  0
  189.4240  177.4560  146.3930 C   0  0  0  0  0  3  0  0  0  0  0  0
  187.8710  178.0270  148.1660 C   0  0  0  0  0  3  0  0  0  0  0  0
  188.3700  177.4720  145.4670 C   0  0  0  0  0  3  0  0  0  0  0  0
  1 21  1  6  0  0  0
  1 48  1  0  0  0  0
  2  1  1  0  0  0  0
  3  2  1  0  0  0  0
  5  6  1  6  0  0  0
  5  3  1  0  0  0  0
  5  4  1  0  0  0  0
  7 16  1  0  0  0  0
  8 14  1  0  0  0  0
  9 15  1  1  0  0  0
  9  5  1  0  0  0  0
 11 10  1  6  0  0  0
 11  9  1  0  0  0  0
 13  7  1  6  0  0  0
 13  8  1  0  0  0  0
 13 16  1  0  0  0  0
 14 17  1  6  0  0  0
 14 11  1  0  0  0  0
 16 12  1  1  0  0  0
 16  9  1  0  0  0  0
 17 18  1  1  0  0  0
 19 17  1  0  0  0  0
 20 19  1  0  0  0  0
 21 22  1  0  0  0  0
 23 22  1  0  0  0  0
 24 26  2  0  0  0  0
 25 26  1  0  0  0  0
 26 23  1  0  0  0  0
 27 35  1  0  0  0  0
 29 44  1  0  0  0  0
 30 28  2  0  0  0  0
 31 34  1  0  0  0  0
 32 31  1  0  0  0  0
 32 33  2  0  0  0  0
 33 30  1  0  0  0  0
 34 28  1  0  0  0  0
 34 41  2  0  0  0  0
 35 43  2  0  0  0  0
 36 45  1  6  0  0  0
 36 40  1  0  0  0  0
 37 39  1  0  0  0  0
 37 43  1  0  0  0  0
 38 44  1  0  0  0  0
 38 27  2  0  0  0  0
 39 31  2  0  0  0  0
 40 38  1  0  0  0  0
 41 25  1  0  0  0  0
 42 36  1  0  0  0  0
 42 29  1  0  0  0  0
 43 41  1  0  0  0  0
 44 37  2  0  0  0  0
 45 46  1  0  0  0  0
 46 47  1  0  0  0  0
 48 49  1  0  0  0  0
 49 51  1  0  0  0  0
 50 54  1  0  0  0  0
 51 52  1  0  0  0  0
 52 54  2  0  0  0  0
 53 50  2  0  0  0  0
 55 51  2  0  0  0  0
 55 53  1  0  0  0  0
M  END
>  <MODEL>
4

>  <REMARK>
 VINA RESULT:      -7.8      3.728      9.286
  Name = 
  16 active torsions:
  status: ('A' for Active; 'I' for Inactive)
    1  A    between atoms: O_4  and  C_37
    2  A    between atoms: O_4  and  C_40
    3  A    between atoms: C_6  and  C_20
    4  A    between atoms: C_8  and  C_22
    5  A    between atoms: C_8  and  C_43
    6  A    between atoms: O_10  and  C_18
    7  A    between atoms: O_10  and  C_32
    8  A    between atoms: C_11  and  C_29
    9  A    between atoms: N_19  and  C_45
   10  A    between atoms: C_20  and  C_22
   11  A    between atoms: C_27  and  C_54
   12  A    between atoms: C_29  and  C_38
   13  A    between atoms: C_35  and  C_37
   14  A    between atoms: C_35  and  C_43
   15  A    between atoms: C_43  and  C_51
   16  A    between atoms: C_51  and  C_54
                            x       y       z     vdW  Elec       q    Type
                         _______ _______ _______ _____ _____    ______ ____

>  <TORSDO>
F 16

$$$$
=
 OpenBabel10272401283D

 55 61  0  0  1  0  0  0  0  0999 V2000
  188.9960  177.9650  141.6750 C   0  0  1  0  0  3  0  0  0  0  0  0
  190.1370  177.3270  140.9090 C   0  0  0  0  0  2  0  0  0  0  0  0
  189.9420  177.5420  139.4100 C   0  0  0  0  0  2  0  0  0  0  0  0
  192.3930  176.7820  138.4620 S   0  0  0  0  0  1  0  0  0  0  0  0
  190.5940  176.4520  138.5480 C   0  0  1  0  0  0  0  0  0  0  0  0
  190.4290  175.2540  139.2190 F   0  0  0  0  0  0  0  0  0  0  0  0
  188.7600  173.9980  136.6930 C   0  0  0  0  0  2  0  0  0  0  0  0
  188.4510  175.7120  134.8600 O   0  0  0  0  0  0  0  0  0  0  0  0
  189.9480  176.3350  137.1230 C   0  0  1  0  0  0  0  0  0  0  0  0
  187.7870  176.3010  138.2290 F   0  0  0  0  0  0  0  0  0  0  0  0
  188.4790  176.8170  137.1380 C   0  0  2  0  0  3  0  0  0  0  0  0
  191.2010  174.1940  136.6140 O   0  0  0  0  0  1  0  0  0  0  0  0
  189.1830  174.5830  135.3440 C   0  0  1  0  0  3  0  0  0  0  0  0
  187.7490  176.4920  135.8150 C   0  0  2  0  0  3  0  0  0  0  0  0
  190.6560  177.1420  136.2260 O   0  0  0  0  0  1  0  0  0  0  0  0
  189.9910  174.8820  136.5950 C   0  0  1  0  0  0  0  0  0  0  0  0
  186.2560  176.1900  135.8510 C   0  0  1  0  0  3  0  0  0  0  0  0
  185.7780  176.1550  137.1530 O   0  0  0  0  0  1  0  0  0  0  0  0
  185.4900  177.2060  135.0400 C   0  0  0  0  0  2  0  0  0  0  0  0
  186.3860  178.0580  134.4060 O   0  0  0  0  0  1  0  0  0  0  0  0
  187.9000  178.3890  140.7000 C   0  0  0  0  0  2  0  0  0  0  0  0
  186.6190  178.7490  141.4350 C   0  0  0  0  0  2  0  0  0  0  0  0
  185.7440  179.4580  140.5700 O   0  0  0  0  0  0  0  0  0  0  0  0
  183.7670  178.6100  141.3610 O   0  0  0  0  0  0  0  0  0  0  0  0
  183.8240  179.1180  139.0830 N   0  0  0  0  0  2  0  0  0  0  0  0
  184.4220  179.0570  140.3820 C   0  0  0  0  0  0  0  0  0  0  0  0
  182.8510  175.0130  138.3750 C   0  0  0  0  0  3  0  0  0  0  0  0
  181.4630  181.0130  138.6800 C   0  0  0  0  0  3  0  0  0  0  0  0
  181.5750  175.6850  134.8740 C   0  0  0  0  0  2  0  0  0  0  0  0
  180.8350  182.0380  137.9640 C   0  0  0  0  0  3  0  0  0  0  0  0
  181.3400  179.5790  136.7300 C   0  0  0  0  0  0  0  0  0  0  0  0
  180.7210  180.6090  136.0160 C   0  0  0  0  0  3  0  0  0  0  0  0
  180.4680  181.8370  136.6320 C   0  0  0  0  0  3  0  0  0  0  0  0
  181.7200  179.7790  138.0700 C   0  0  0  0  0  0  0  0  0  0  0  0
  182.8430  176.2690  138.9020 N   0  0  0  0  0  0  0  0  0  0  0  0
  181.7670  173.2280  135.1520 C   0  0  2  0  0  3  0  0  0  0  0  0
  182.0260  177.1880  136.8530 C   0  0  0  0  0  0  0  0  0  0  0  0
  182.4460  174.8010  137.0590 C   0  0  0  0  0  0  0  0  0  0  0  0
  181.5350  178.3080  136.1100 N   0  0  0  0  0  0  0  0  0  0  0  0
  182.3550  173.3860  136.5550 C   0  0  0  0  0  2  0  0  0  0  0  0
  182.4480  178.7090  138.8450 C   0  0  0  0  0  0  0  0  0  0  0  0
  180.8240  174.3690  134.7780 C   0  0  0  0  0  2  0  0  0  0  0  0
  182.4320  177.3500  138.1880 C   0  0  0  0  0  0  0  0  0  0  0  0
  182.0330  175.9020  136.2860 C   0  0  0  0  0  0  0  0  0  0  0  0
  181.0750  172.0150  135.0900 O   0  0  0  0  0  0  0  0  0  0  0  0
  182.0060  171.0300  135.4060 C   0  0  0  0  0  2  0  0  0  0  0  0
  181.3800  169.6670  135.1660 C   0  0  0  0  0  1  0  0  0  0  0  0
  188.4530  176.9640  142.6820 C   0  0  0  0  0  2  0  0  0  0  0  0
  189.3850  176.8980  143.8830 C   0  0  0  0  0  2  0  0  0  0  0  0
  187.3040  178.0000  147.4790 C   0  0  0  0  0  3  0  0  0  0  0  0
  188.6630  177.2630  145.1360 C   0  0  0  0  0  0  0  0  0  0  0  0
  187.2970  177.5660  145.0870 C   0  0  0  0  0  3  0  0  0  0  0  0
  188.6690  177.6920  147.5300 C   0  0  0  0  0  3  0  0  0  0  0  0
  186.6180  177.9350  146.2580 C   0  0  0  0  0  3  0  0  0  0  0  0
  189.3490  177.3240  146.3590 C   0  0  0  0  0  3  0  0  0  0  0  0
  1 21  1  6  0  0  0
  1 48  1  0  0  0  0
  2  1  1  0  0  0  0
  3  2  1  0  0  0  0
  5  4  1  6  0  0  0
  5  6  1  0  0  0  0
  5  3  1  0  0  0  0
  8 13  1  0  0  0  0
  8 14  1  0  0  0  0
  9 15  1  6  0  0  0
  9 11  1  0  0  0  0
  9  5  1  0  0  0  0
 11 10  1  1  0  0  0
 13 16  1  0  0  0  0
 13  7  1  1  0  0  0
 14 17  1  1  0  0  0
 14 11  1  0  0  0  0
 16 12  1  1  0  0  0
 16  7  1  0  0  0  0
 16  9  1  0  0  0  0
 17 18  1  1  0  0  0
 19 17  1  0  0  0  0
 20 19  1  0  0  0  0
 21 22  1  0  0  0  0
 23 22  1  0  0  0  0
 25 26  1  0  0  0  0
 26 23  1  0  0  0  0
 26 24  2  0  0  0  0
 27 35  1  0  0  0  0
 29 44  1  0  0  0  0
 30 28  2  0  0  0  0
 31 34  1  0  0  0  0
 32 33  2  0  0  0  0
 32 31  1  0  0  0  0
 33 30  1  0  0  0  0
 34 28  1  0  0  0  0
 34 41  2  0  0  0  0
 36 45  1  1  0  0  0
 36 40  1  0  0  0  0
 37 43  1  0  0  0  0
 38 27  2  0  0  0  0
 39 31  2  0  0  0  0
 39 37  1  0  0  0  0
 40 38  1  0  0  0  0
 41 25  1  0  0  0  0
 42 29  1  0  0  0  0
 42 36  1  0  0  0  0
 43 41  1  0  0  0  0
 43 35  2  0  0  0  0
 44 37  2  0  0  0  0
 44 38  1  0  0  0  0
 45 46  1  0  0  0  0
 47 46  1  0  0  0  0
 48 49  1  0  0  0  0
 49 51  1  0  0  0  0
 50 53  1  0  0  0  0
 51 55  1  0  0  0  0
 52 51  2  0  0  0  0
 52 54  1  0  0  0  0
 54 50  2  0  0  0  0
 55 53  2  0  0  0  0
M  END
>  <MODEL>
5

>  <REMARK>
 VINA RESULT:      -7.6      3.702      9.212
  Name = 
  16 active torsions:
  status: ('A' for Active; 'I' for Inactive)
    1  A    between atoms: O_4  and  C_37
    2  A    between atoms: O_4  and  C_40
    3  A    between atoms: C_6  and  C_20
    4  A    between atoms: C_8  and  C_22
    5  A    between atoms: C_8  and  C_43
    6  A    between atoms: O_10  and  C_18
    7  A    between atoms: O_10  and  C_32
    8  A    between atoms: C_11  and  C_29
    9  A    between atoms: N_19  and  C_45
   10  A    between atoms: C_20  and  C_22
   11  A    between atoms: C_27  and  C_54
   12  A    between atoms: C_29  and  C_38
   13  A    between atoms: C_35  and  C_37
   14  A    between atoms: C_35  and  C_43
   15  A    between atoms: C_43  and  C_51
   16  A    between atoms: C_51  and  C_54
                            x       y       z     vdW  Elec       q    Type
                         _______ _______ _______ _____ _____    ______ ____

>  <TORSDO>
F 16

$$$$
=
 OpenBabel10272401283D

 55 61  0  0  1  0  0  0  0  0999 V2000
  188.7190  178.4720  141.0920 C   0  0  1  0  0  3  0  0  0  0  0  0
  189.3030  178.2980  139.7050 C   0  0  0  0  0  2  0  0  0  0  0  0
  188.5600  177.1900  138.9630 C   0  0  0  0  0  2  0  0  0  0  0  0
  188.6290  179.1810  137.0860 S   0  0  0  0  0  1  0  0  0  0  0  0
  188.5360  177.3870  137.4400 C   0  0  1  0  0  0  0  0  0  0  0  0
  189.6900  176.8110  136.9410 F   0  0  0  0  0  0  0  0  0  0  0  0
  187.9070  175.3080  134.5920 C   0  0  0  0  0  2  0  0  0  0  0  0
  185.4950  175.1410  135.3310 O   0  0  0  0  0  0  0  0  0  0  0  0
  187.2920  176.7160  136.7590 C   0  0  1  0  0  0  0  0  0  0  0  0
  188.2280  174.5740  137.4150 F   0  0  0  0  0  0  0  0  0  0  0  0
  187.0440  175.3000  137.3280 C   0  0  2  0  0  3  0  0  0  0  0  0
  187.8270  177.7550  134.5120 O   0  0  0  0  0  1  0  0  0  0  0  0
  186.4530  175.7680  134.4750 C   0  0  1  0  0  3  0  0  0  0  0  0
  185.9800  174.5270  136.5140 C   0  0  2  0  0  3  0  0  0  0  0  0
  186.1530  177.4870  137.0150 O   0  0  0  0  0  1  0  0  0  0  0  0
  187.4660  176.6150  135.2260 C   0  0  1  0  0  0  0  0  0  0  0  0
  186.0990  173.0120  136.3940 C   0  0  1  0  0  3  0  0  0  0  0  0
  186.9550  172.4950  137.3560 O   0  0  0  0  0  1  0  0  0  0  0  0
  184.7410  172.3640  136.5020 C   0  0  0  0  0  2  0  0  0  0  0  0
  184.6070  171.4090  135.5020 O   0  0  0  0  0  1  0  0  0  0  0  0
  187.2860  177.9430  141.1130 C   0  0  0  0  0  2  0  0  0  0  0  0
  186.3020  179.0380  141.4900 C   0  0  0  0  0  2  0  0  0  0  0  0
  185.5800  179.4610  140.3420 O   0  0  0  0  0  0  0  0  0  0  0  0
  183.5640  178.7690  141.1840 O   0  0  0  0  0  0  0  0  0  0  0  0
  183.5830  179.3530  138.9240 N   0  0  0  0  0  2  0  0  0  0  0  0
  184.2210  179.1900  140.1950 C   0  0  0  0  0  0  0  0  0  0  0  0
  182.1740  175.3480  138.4090 C   0  0  0  0  0  3  0  0  0  0  0  0
  181.4230  181.4670  138.4840 C   0  0  0  0  0  3  0  0  0  0  0  0
  180.8950  176.0070  134.9060 C   0  0  0  0  0  2  0  0  0  0  0  0
  180.8890  182.5220  137.7360 C   0  0  0  0  0  3  0  0  0  0  0  0
  181.1070  179.9760  136.5990 C   0  0  0  0  0  0  0  0  0  0  0  0
  180.5830  181.0360  135.8530 C   0  0  0  0  0  3  0  0  0  0  0  0
  180.4730  182.3070  136.4210 C   0  0  0  0  0  3  0  0  0  0  0  0
  181.5370  180.1890  137.9220 C   0  0  0  0  0  0  0  0  0  0  0  0
  182.3080  176.6170  138.8820 N   0  0  0  0  0  0  0  0  0  0  0  0
  180.8380  173.5560  135.2850 C   0  0  2  0  0  3  0  0  0  0  0  0
  181.5440  177.5340  136.8100 C   0  0  0  0  0  0  0  0  0  0  0  0
  181.7190  175.1260  137.1100 C   0  0  0  0  0  0  0  0  0  0  0  0
  181.1560  178.6670  136.0300 N   0  0  0  0  0  0  0  0  0  0  0  0
  181.4700  173.7080  136.6680 C   0  0  0  0  0  2  0  0  0  0  0  0
  182.1670  179.0810  138.7280 C   0  0  0  0  0  0  0  0  0  0  0  0
  180.0110  174.7740  134.8790 C   0  0  0  0  0  2  0  0  0  0  0  0
  181.9950  177.7060  138.1300 C   0  0  0  0  0  0  0  0  0  0  0  0
  181.4050  176.2320  136.2980 C   0  0  0  0  0  0  0  0  0  0  0  0
  180.0220  172.4210  135.2870 O   0  0  0  0  0  0  0  0  0  0  0  0
  180.7810  171.4100  135.8710 C   0  0  0  0  0  2  0  0  0  0  0  0
  179.9850  170.1170  135.8390 C   0  0  0  0  0  1  0  0  0  0  0  0
  189.5780  177.7150  142.0910 C   0  0  0  0  0  2  0  0  0  0  0  0
  188.7210  176.6950  142.8260 C   0  0  0  0  0  2  0  0  0  0  0  0
  188.4180  177.6260  147.0120 C   0  0  0  0  0  3  0  0  0  0  0  0
  188.6140  177.0360  144.2750 C   0  0  0  0  0  0  0  0  0  0  0  0
  189.7570  176.9960  145.0830 C   0  0  0  0  0  3  0  0  0  0  0  0
  187.2760  177.6710  146.2040 C   0  0  0  0  0  3  0  0  0  0  0  0
  189.6580  177.2900  146.4510 C   0  0  0  0  0  3  0  0  0  0  0  0
  187.3740  177.3760  144.8360 C   0  0  0  0  0  3  0  0  0  0  0  0
  1  2  1  6  0  0  0
  1 21  1  0  0  0  0
  1 48  1  0  0  0  0
  3  2  1  0  0  0  0
  4  5  1  0  0  0  0
  5  6  1  6  0  0  0
  5  3  1  0  0  0  0
  7 16  1  0  0  0  0
  8 14  1  0  0  0  0
  9 15  1  1  0  0  0
  9 11  1  0  0  0  0
  9  5  1  0  0  0  0
 11 10  1  6  0  0  0
 13  7  1  1  0  0  0
 13 16  1  0  0  0  0
 13  8  1  0  0  0  0
 14 17  1  6  0  0  0
 14 11  1  0  0  0  0
 16 12  1  6  0  0  0
 16  9  1  0  0  0  0
 17 19  1  0  0  0  0
 17 18  1  1  0  0  0
 20 19  1  0  0  0  0
 21 22  1  0  0  0  0
 23 22  1  0  0  0  0
 25 26  1  0  0  0  0
 26 23  1  0  0  0  0
 26 24  2  0  0  0  0
 27 35  1  0  0  0  0
 29 44  1  0  0  0  0
 30 28  2  0  0  0  0
 31 34  1  0  0  0  0
 32 33  2  0  0  0  0
 32 31  1  0  0  0  0
 33 30  1  0  0  0  0
 34 28  1  0  0  0  0
 34 41  2  0  0  0  0
 36 45  1  1  0  0  0
 36 40  1  0  0  0  0
 37 43  1  0  0  0  0
 38 27  2  0  0  0  0
 39 31  2  0  0  0  0
 39 37  1  0  0  0  0
 40 38  1  0  0  0  0
 41 25  1  0  0  0  0
 42 29  1  0  0  0  0
 42 36  1  0  0  0  0
 43 41  1  0  0  0  0
 43 35  2  0  0  0  0
 44 37  2  0  0  0  0
 44 38  1  0  0  0  0
 45 46  1  0  0  0  0
 47 46  1  0  0  0  0
 48 49  1  0  0  0  0
 49 51  1  0  0  0  0
 51 55  2  0  0  0  0
 51 52  1  0  0  0  0
 52 54  2  0  0  0  0
 53 50  2  0  0  0  0
 54 50  1  0  0  0  0
 55 53  1  0  0  0  0
M  END
>  <MODEL>
6

>  <REMARK>
 VINA RESULT:      -7.5      4.431      9.236
  Name = 
  16 active torsions:
  status: ('A' for Active; 'I' for Inactive)
    1  A    between atoms: O_4  and  C_37
    2  A    between atoms: O_4  and  C_40
    3  A    between atoms: C_6  and  C_20
    4  A    between atoms: C_8  and  C_22
    5  A    between atoms: C_8  and  C_43
    6  A    between atoms: O_10  and  C_18
    7  A    between atoms: O_10  and  C_32
    8  A    between atoms: C_11  and  C_29
    9  A    between atoms: N_19  and  C_45
   10  A    between atoms: C_20  and  C_22
   11  A    between atoms: C_27  and  C_54
   12  A    between atoms: C_29  and  C_38
   13  A    between atoms: C_35  and  C_37
   14  A    between atoms: C_35  and  C_43
   15  A    between atoms: C_43  and  C_51
   16  A    between atoms: C_51  and  C_54
                            x       y       z     vdW  Elec       q    Type
                         _______ _______ _______ _____ _____    ______ ____

>  <TORSDO>
F 16

$$$$
=
 OpenBabel10272401283D

 55 61  0  0  1  0  0  0  0  0999 V2000
  190.8470  176.9260  138.2590 C   0  0  1  0  0  3  0  0  0  0  0  0
  189.6630  176.0700  137.8550 C   0  0  0  0  0  2  0  0  0  0  0  0
  188.8770  176.7620  136.7450 C   0  0  0  0  0  2  0  0  0  0  0  0
  188.0910  175.4060  134.5010 S   0  0  0  0  0  1  0  0  0  0  0  0
  187.7050  175.9220  136.2140 C   0  0  1  0  0  0  0  0  0  0  0  0
  187.6500  174.7760  136.9850 F   0  0  0  0  0  0  0  0  0  0  0  0
  184.5010  175.3440  137.7070 C   0  0  0  0  0  2  0  0  0  0  0  0
  183.8160  177.6650  136.9740 O   0  0  0  0  0  0  0  0  0  0  0  0
  186.3290  176.6710  136.3080 C   0  0  1  0  0  0  0  0  0  0  0  0
  186.7630  176.9380  138.6820 F   0  0  0  0  0  0  0  0  0  0  0  0
  186.2800  177.5890  137.5510 C   0  0  2  0  0  3  0  0  0  0  0  0
  185.0590  174.6680  135.4190 O   0  0  0  0  0  1  0  0  0  0  0  0
  183.7820  176.2590  136.7140 C   0  0  1  0  0  3  0  0  0  0  0  0
  184.8610  178.1500  137.8000 C   0  0  2  0  0  3  0  0  0  0  0  0
  186.1600  177.4730  135.1750 O   0  0  0  0  0  1  0  0  0  0  0  0
  185.1440  175.6790  136.3730 C   0  0  1  0  0  0  0  0  0  0  0  0
  184.4140  178.4180  139.2330 C   0  0  1  0  0  3  0  0  0  0  0  0
  184.8590  179.6550  139.6780 O   0  0  0  0  0  1  0  0  0  0  0  0
  182.9120  178.3330  139.3430 C   0  0  0  0  0  2  0  0  0  0  0  0
  182.5630  177.1360  139.9570 O   0  0  0  0  0  1  0  0  0  0  0  0
  191.0910  176.7870  139.7590 C   0  0  0  0  0  2  0  0  0  0  0  0
  192.2460  177.6630  140.2130 C   0  0  0  0  0  2  0  0  0  0  0  0
  192.2550  177.7630  141.6300 O   0  0  0  0  0  0  0  0  0  0  0  0
  191.5220  175.7410  142.4200 O   0  0  0  0  0  0  0  0  0  0  0  0
  190.3770  177.6210  143.1980 N   0  0  0  0  0  2  0  0  0  0  0  0
  191.4020  176.9950  142.4200 C   0  0  0  0  0  0  0  0  0  0  0  0
  186.1770  177.5670  142.3880 C   0  0  0  0  0  3  0  0  0  0  0  0
  191.1260  176.2360  145.8160 C   0  0  0  0  0  3  0  0  0  0  0  0
  185.2900  179.2040  145.6850 C   0  0  0  0  0  2  0  0  0  0  0  0
  191.6070  176.2960  147.1280 C   0  0  0  0  0  3  0  0  0  0  0  0
  189.2260  177.5990  146.4540 C   0  0  0  0  0  0  0  0  0  0  0  0
  189.7160  177.6640  147.7610 C   0  0  0  0  0  3  0  0  0  0  0  0
  190.9050  177.0120  148.0990 C   0  0  0  0  0  3  0  0  0  0  0  0
  189.9350  176.8860  145.4690 C   0  0  0  0  0  0  0  0  0  0  0  0
  187.4480  177.1480  142.6370 N   0  0  0  0  0  0  0  0  0  0  0  0
  183.2530  179.1980  144.2700 C   0  0  2  0  0  3  0  0  0  0  0  0
  187.3730  178.0450  144.8520 C   0  0  0  0  0  0  0  0  0  0  0  0
  185.4560  178.2460  143.3680 C   0  0  0  0  0  0  0  0  0  0  0  0
  187.9780  178.2150  146.1370 N   0  0  0  0  0  0  0  0  0  0  0  0
  184.0140  178.5840  143.0950 C   0  0  0  0  0  2  0  0  0  0  0  0
  189.4660  176.8550  144.0360 C   0  0  0  0  0  0  0  0  0  0  0  0
  183.8310  178.7900  145.6220 C   0  0  0  0  0  2  0  0  0  0  0  0
  188.0560  177.3540  143.8360 C   0  0  0  0  0  0  0  0  0  0  0  0
  186.0620  178.4930  144.6140 C   0  0  0  0  0  0  0  0  0  0  0  0
  181.9160  178.7960  144.1960 O   0  0  0  0  0  0  0  0  0  0  0  0
  181.5750  178.8600  142.8470 C   0  0  0  0  0  2  0  0  0  0  0  0
  180.1420  179.3480  142.7260 C   0  0  0  0  0  1  0  0  0  0  0  0
  192.0720  176.4790  137.4780 C   0  0  0  0  0  2  0  0  0  0  0  0
  192.3100  174.9960  137.7170 C   0  0  0  0  0  2  0  0  0  0  0  0
  195.2170  173.4020  134.9800 C   0  0  0  0  0  3  0  0  0  0  0  0
  193.3220  174.4590  136.7610 C   0  0  0  0  0  0  0  0  0  0  0  0
  192.9000  173.7740  135.6150 C   0  0  0  0  0  3  0  0  0  0  0  0
  195.6400  174.0920  136.1210 C   0  0  0  0  0  3  0  0  0  0  0  0
  193.8470  173.2440  134.7260 C   0  0  0  0  0  3  0  0  0  0  0  0
  194.6930  174.6210  137.0120 C   0  0  0  0  0  3  0  0  0  0  0  0
  1 48  1  6  0  0  0
  1 21  1  0  0  0  0
  2  1  1  0  0  0  0
  3  2  1  0  0  0  0
  5  4  1  6  0  0  0
  5  9  1  0  0  0  0
  5  3  1  0  0  0  0
  5  6  1  0  0  0  0
  8 14  1  0  0  0  0
  9 15  1  6  0  0  0
  9 16  1  0  0  0  0
  9 11  1  0  0  0  0
 11 14  1  0  0  0  0
 11 10  1  1  0  0  0
 13  8  1  0  0  0  0
 13  7  1  1  0  0  0
 14 17  1  1  0  0  0
 16 12  1  6  0  0  0
 16 13  1  0  0  0  0
 16  7  1  0  0  0  0
 17 19  1  0  0  0  0
 17 18  1  6  0  0  0
 19 20  1  0  0  0  0
 21 22  1  0  0  0  0
 22 23  1  0  0  0  0
 23 26  1  0  0  0  0
 24 26  2  0  0  0  0
 25 41  1  0  0  0  0
 26 25  1  0  0  0  0
 27 35  2  0  0  0  0
 27 38  1  0  0  0  0
 28 30  1  0  0  0  0
 30 33  2  0  0  0  0
 31 32  2  0  0  0  0
 32 33  1  0  0  0  0
 34 28  2  0  0  0  0
 34 31  1  0  0  0  0
 35 43  1  0  0  0  0
 36 45  1  1  0  0  0
 36 42  1  0  0  0  0
 37 39  2  0  0  0  0
 38 44  2  0  0  0  0
 39 31  1  0  0  0  0
 40 38  1  0  0  0  0
 40 36  1  0  0  0  0
 41 34  1  0  0  0  0
 42 29  1  0  0  0  0
 43 41  2  0  0  0  0
 43 37  1  0  0  0  0
 44 37  1  0  0  0  0
 44 29  1  0  0  0  0
 46 45  1  0  0  0  0
 47 46  1  0  0  0  0
 48 49  1  0  0  0  0
 50 53  1  0  0  0  0
 51 55  1  0  0  0  0
 51 49  1  0  0  0  0
 52 51  2  0  0  0  0
 53 55  2  0  0  0  0
 54 50  2  0  0  0  0
 54 52  1  0  0  0  0
M  END
>  <MODEL>
7

>  <REMARK>
 VINA RESULT:      -7.4      1.235      1.588
  Name = 
  16 active torsions:
  status: ('A' for Active; 'I' for Inactive)
    1  A    between atoms: O_4  and  C_37
    2  A    between atoms: O_4  and  C_40
    3  A    between atoms: C_6  and  C_20
    4  A    between atoms: C_8  and  C_22
    5  A    between atoms: C_8  and  C_43
    6  A    between atoms: O_10  and  C_18
    7  A    between atoms: O_10  and  C_32
    8  A    between atoms: C_11  and  C_29
    9  A    between atoms: N_19  and  C_45
   10  A    between atoms: C_20  and  C_22
   11  A    between atoms: C_27  and  C_54
   12  A    between atoms: C_29  and  C_38
   13  A    between atoms: C_35  and  C_37
   14  A    between atoms: C_35  and  C_43
   15  A    between atoms: C_43  and  C_51
   16  A    between atoms: C_51  and  C_54
                            x       y       z     vdW  Elec       q    Type
                         _______ _______ _______ _____ _____    ______ ____

>  <TORSDO>
F 16

$$$$
=
 OpenBabel10272401283D

 55 61  0  0  1  0  0  0  0  0999 V2000
  188.2960  178.5610  141.5720 C   0  0  1  0  0  3  0  0  0  0  0  0
  188.9040  178.5470  140.1840 C   0  0  0  0  0  2  0  0  0  0  0  0
  188.6130  177.2130  139.5020 C   0  0  0  0  0  2  0  0  0  0  0  0
  186.5670  177.6730  137.7440 S   0  0  0  0  0  1  0  0  0  0  0  0
  188.3500  177.3430  137.9950 C   0  0  1  0  0  0  0  0  0  0  0  0
  189.0390  178.4610  137.5610 F   0  0  0  0  0  0  0  0  0  0  0  0
  190.2930  176.7230  135.0500 C   0  0  0  0  0  2  0  0  0  0  0  0
  190.1380  174.2490  135.5510 O   0  0  0  0  0  0  0  0  0  0  0  0
  188.8380  176.0930  137.1820 C   0  0  1  0  0  0  0  0  0  0  0  0
  191.0950  176.6640  137.8720 F   0  0  0  0  0  0  0  0  0  0  0  0
  190.2140  175.6030  137.6890 C   0  0  2  0  0  3  0  0  0  0  0  0
  187.8560  176.9810  135.0230 O   0  0  0  0  0  1  0  0  0  0  0  0
  189.6380  175.3620  134.8050 C   0  0  1  0  0  3  0  0  0  0  0  0
  190.8250  174.5300  136.7590 C   0  0  2  0  0  3  0  0  0  0  0  0
  187.9230  175.0480  137.3460 O   0  0  0  0  0  1  0  0  0  0  0  0
  188.9450  176.4020  135.6700 C   0  0  1  0  0  0  0  0  0  0  0  0
  192.3410  174.4550  136.6150 C   0  0  1  0  0  3  0  0  0  0  0  0
  192.8920  173.5600  137.5210 O   0  0  0  0  0  1  0  0  0  0  0  0
  192.7200  174.0720  135.2060 C   0  0  0  0  0  2  0  0  0  0  0  0
  193.6900  174.9490  134.7360 O   0  0  0  0  0  1  0  0  0  0  0  0
  186.8560  178.0580  141.5040 C   0  0  0  0  0  2  0  0  0  0  0  0
  185.8660  179.1880  141.7340 C   0  0  0  0  0  2  0  0  0  0  0  0
  185.2310  179.5360  140.5120 O   0  0  0  0  0  0  0  0  0  0  0  0
  183.1820  178.7760  141.2010 O   0  0  0  0  0  0  0  0  0  0  0  0
  183.3760  179.2800  138.9300 N   0  0  0  0  0  2  0  0  0  0  0  0
  183.9040  179.1930  140.2570 C   0  0  0  0  0  0  0  0  0  0  0  0
  182.1720  175.1890  138.5990 C   0  0  0  0  0  3  0  0  0  0  0  0
  181.1940  181.2580  138.1210 C   0  0  0  0  0  3  0  0  0  0  0  0
  181.2210  175.5290  134.9490 C   0  0  0  0  0  2  0  0  0  0  0  0
  180.6970  182.2300  137.2450 C   0  0  0  0  0  3  0  0  0  0  0  0
  181.1200  179.6180  136.3380 C   0  0  0  0  0  0  0  0  0  0  0  0
  180.6340  180.5950  135.4640 C   0  0  0  0  0  3  0  0  0  0  0  0
  180.4210  181.9000  135.9170 C   0  0  0  0  0  3  0  0  0  0  0  0
  181.4090  179.9480  137.6750 C   0  0  0  0  0  0  0  0  0  0  0  0
  182.2120  176.4950  138.9810 N   0  0  0  0  0  0  0  0  0  0  0  0
  181.2160  173.1130  135.5110 C   0  0  2  0  0  3  0  0  0  0  0  0
  181.6230  177.2200  136.7810 C   0  0  0  0  0  0  0  0  0  0  0  0
  181.8550  174.8510  137.2840 C   0  0  0  0  0  0  0  0  0  0  0  0
  181.2720  178.2740  135.8800 N   0  0  0  0  0  0  0  0  0  0  0  0
  181.7030  173.3950  136.9330 C   0  0  0  0  0  2  0  0  0  0  0  0
  181.9970  178.9320  138.6220 C   0  0  0  0  0  0  0  0  0  0  0  0
  180.3890  174.2590  134.9350 C   0  0  0  0  0  2  0  0  0  0  0  0
  181.9350  177.5100  138.1190 C   0  0  0  0  0  0  0  0  0  0  0  0
  181.5830  175.8790  136.3620 C   0  0  0  0  0  0  0  0  0  0  0  0
  180.4470  171.9470  135.5250 O   0  0  0  0  0  0  0  0  0  0  0  0
  181.3380  170.9060  135.7750 C   0  0  0  0  0  2  0  0  0  0  0  0
  180.8310  169.6500  135.0890 C   0  0  0  0  0  1  0  0  0  0  0  0
  189.1260  177.6760  142.4870 C   0  0  0  0  0  2  0  0  0  0  0  0
  188.2010  176.8910  143.4050 C   0  0  0  0  0  2  0  0  0  0  0  0
  189.1910  177.5390  147.5380 C   0  0  0  0  0  3  0  0  0  0  0  0
  188.5430  177.1330  144.8370 C   0  0  0  0  0  0  0  0  0  0  0  0
  189.8700  177.0070  145.2650 C   0  0  0  0  0  3  0  0  0  0  0  0
  187.8650  177.6720  147.1100 C   0  0  0  0  0  3  0  0  0  0  0  0
  190.1940  177.2080  146.6150 C   0  0  0  0  0  3  0  0  0  0  0  0
  187.5410  177.4690  145.7600 C   0  0  0  0  0  3  0  0  0  0  0  0
  1  2  1  6  0  0  0
  1 48  1  0  0  0  0
  3  2  1  0  0  0  0
  4  5  1  0  0  0  0
  5  6  1  6  0  0  0
  5  3  1  0  0  0  0
  7 16  1  0  0  0  0
  8 14  1  0  0  0  0
  9 15  1  1  0  0  0
  9 11  1  0  0  0  0
  9  5  1  0  0  0  0
 11 10  1  6  0  0  0
 13  7  1  1  0  0  0
 13  8  1  0  0  0  0
 13 16  1  0  0  0  0
 14 17  1  6  0  0  0
 14 11  1  0  0  0  0
 16 12  1  6  0  0  0
 16  9  1  0  0  0  0
 17 18  1  1  0  0  0
 19 17  1  0  0  0  0
 20 19  1  0  0  0  0
 21  1  1  0  0  0  0
 21 22  1  0  0  0  0
 23 22  1  0  0  0  0
 25 26  1  0  0  0  0
 26 23  1  0  0  0  0
 26 24  2  0  0  0  0
 27 35  1  0  0  0  0
 29 44  1  0  0  0  0
 30 28  2  0  0  0  0
 31 34  1  0  0  0  0
 32 33  2  0  0  0  0
 32 31  1  0  0  0  0
 33 30  1  0  0  0  0
 34 28  1  0  0  0  0
 34 41  2  0  0  0  0
 36 45  1  1  0  0  0
 36 40  1  0  0  0  0
 37 43  1  0  0  0  0
 38 27  2  0  0  0  0
 39 31  2  0  0  0  0
 39 37  1  0  0  0  0
 40 38  1  0  0  0  0
 41 25  1  0  0  0  0
 42 29  1  0  0  0  0
 42 36  1  0  0  0  0
 43 41  1  0  0  0  0
 43 35  2  0  0  0  0
 44 37  2  0  0  0  0
 44 38  1  0  0  0  0
 45 46  1  0  0  0  0
 47 46  1  0  0  0  0
 48 49  1  0  0  0  0
 49 51  1  0  0  0  0
 51 52  2  0  0  0  0
 51 55  1  0  0  0  0
 52 54  1  0  0  0  0
 53 50  1  0  0  0  0
 54 50  2  0  0  0  0
 55 53  2  0  0  0  0
M  END
>  <MODEL>
8

>  <REMARK>
 VINA RESULT:      -7.4      3.789      9.653
  Name = 
  16 active torsions:
  status: ('A' for Active; 'I' for Inactive)
    1  A    between atoms: O_4  and  C_37
    2  A    between atoms: O_4  and  C_40
    3  A    between atoms: C_6  and  C_20
    4  A    between atoms: C_8  and  C_22
    5  A    between atoms: C_8  and  C_43
    6  A    between atoms: O_10  and  C_18
    7  A    between atoms: O_10  and  C_32
    8  A    between atoms: C_11  and  C_29
    9  A    between atoms: N_19  and  C_45
   10  A    between atoms: C_20  and  C_22
   11  A    between atoms: C_27  and  C_54
   12  A    between atoms: C_29  and  C_38
   13  A    between atoms: C_35  and  C_37
   14  A    between atoms: C_35  and  C_43
   15  A    between atoms: C_43  and  C_51
   16  A    between atoms: C_51  and  C_54
                            x       y       z     vdW  Elec       q    Type
                         _______ _______ _______ _____ _____    ______ ____

>  <TORSDO>
F 16

$$$$
=
 OpenBabel10272401283D

 55 61  0  0  1  0  0  0  0  0999 V2000
  184.9470  178.8460  142.5700 C   0  0  1  0  0  3  0  0  0  0  0  0
  185.5880  178.0910  143.7160 C   0  0  0  0  0  2  0  0  0  0  0  0
  186.9770  178.6570  144.0000 C   0  0  0  0  0  2  0  0  0  0  0  0
  188.1030  177.6820  146.2960 S   0  0  0  0  0  1  0  0  0  0  0  0
  187.9820  177.5960  144.4710 C   0  0  1  0  0  0  0  0  0  0  0  0
  187.4450  176.3620  144.1540 F   0  0  0  0  0  0  0  0  0  0  0  0
  190.4690  175.4070  143.1100 C   0  0  0  0  0  2  0  0  0  0  0  0
  191.7370  177.4460  142.3200 O   0  0  0  0  0  0  0  0  0  0  0  0
  189.3840  177.7370  143.7800 C   0  0  1  0  0  0  0  0  0  0  0  0
  188.3430  176.9040  141.7510 F   0  0  0  0  0  0  0  0  0  0  0  0
  189.2380  177.8480  142.2450 C   0  0  2  0  0  3  0  0  0  0  0  0
  190.4780  176.1670  145.4390 O   0  0  0  0  0  1  0  0  0  0  0  0
  191.5930  176.4250  143.3110 C   0  0  1  0  0  3  0  0  0  0  0  0
  190.6020  177.7480  141.5250 C   0  0  2  0  0  3  0  0  0  0  0  0
  190.0100  178.9010  144.2370 O   0  0  0  0  0  1  0  0  0  0  0  0
  190.3050  176.5380  144.1080 C   0  0  1  0  0  0  0  0  0  0  0  0
  190.6600  177.1160  140.1390 C   0  0  1  0  0  3  0  0  0  0  0  0
  189.9620  177.8720  139.2080 O   0  0  0  0  0  1  0  0  0  0  0  0
  192.0920  176.9370  139.6980 C   0  0  0  0  0  2  0  0  0  0  0  0
  192.1230  176.6580  138.3380 O   0  0  0  0  0  1  0  0  0  0  0  0
  186.0120  179.2060  141.5360 C   0  0  0  0  0  2  0  0  0  0  0  0
  185.5830  178.7920  140.1380 C   0  0  0  0  0  2  0  0  0  0  0  0
  186.7180  178.4210  139.3690 O   0  0  0  0  0  0  0  0  0  0  0  0
  186.0410  178.6860  137.1960 O   0  0  0  0  0  0  0  0  0  0  0  0
  187.0510  176.6450  137.7120 N   0  0  0  0  0  2  0  0  0  0  0  0
  186.5910  177.9550  138.0620 C   0  0  0  0  0  0  0  0  0  0  0  0
  183.7430  174.1770  136.5880 C   0  0  0  0  0  3  0  0  0  0  0  0
  189.2030  176.8500  135.5540 C   0  0  0  0  0  3  0  0  0  0  0  0
  185.9380  171.1800  135.8520 C   0  0  0  0  0  2  0  0  0  0  0  0
  190.4960  176.5750  135.0970 C   0  0  0  0  0  3  0  0  0  0  0  0
  188.7220  174.4740  135.6100 C   0  0  0  0  0  0  0  0  0  0  0  0
  190.0190  174.2050  135.1630 C   0  0  0  0  0  3  0  0  0  0  0  0
  190.9050  175.2540  134.9050 C   0  0  0  0  0  3  0  0  0  0  0  0
  188.3080  175.8040  135.8140 C   0  0  0  0  0  0  0  0  0  0  0  0
  184.6620  175.1810  136.5870 N   0  0  0  0  0  0  0  0  0  0  0  0
  183.5800  170.4110  135.8480 C   0  0  2  0  0  3  0  0  0  0  0  0
  186.4310  173.6420  136.1200 C   0  0  0  0  0  0  0  0  0  0  0  0
  184.1390  172.8610  136.3560 C   0  0  0  0  0  0  0  0  0  0  0  0
  187.8060  173.3970  135.8080 N   0  0  0  0  0  0  0  0  0  0  0  0
  183.0780  171.8000  136.2460 C   0  0  0  0  0  2  0  0  0  0  0  0
  186.9380  176.1210  136.3590 C   0  0  0  0  0  0  0  0  0  0  0  0
  184.8740  170.4630  135.0410 C   0  0  0  0  0  2  0  0  0  0  0  0
  185.9820  174.9540  136.3480 C   0  0  0  0  0  0  0  0  0  0  0  0
  185.5010  172.5890  136.1240 C   0  0  0  0  0  0  0  0  0  0  0  0
  182.5890  169.7750  135.0960 O   0  0  0  0  0  0  0  0  0  0  0  0
  181.4120  170.4750  135.3490 C   0  0  0  0  0  2  0  0  0  0  0  0
  180.2540  169.4930  135.3820 C   0  0  0  0  0  1  0  0  0  0  0  0
  183.8700  177.9770  141.9420 C   0  0  0  0  0  2  0  0  0  0  0  0
  182.5850  178.7810  141.8100 C   0  0  0  0  0  2  0  0  0  0  0  0
  180.8640  178.1980  137.9140 C   0  0  0  0  0  3  0  0  0  0  0  0
  181.9740  178.5890  140.4620 C   0  0  0  0  0  0  0  0  0  0  0  0
  181.3780  177.3640  140.1390 C   0  0  0  0  0  3  0  0  0  0  0  0
  181.4540  179.4250  138.2380 C   0  0  0  0  0  3  0  0  0  0  0  0
  180.8250  177.1680  138.8640 C   0  0  0  0  0  3  0  0  0  0  0  0
  182.0090  179.6210  139.5130 C   0  0  0  0  0  3  0  0  0  0  0  0
  1 21  1  6  0  0  0
  1  2  1  0  0  0  0
  2  3  1  0  0  0  0
  3  5  1  0  0  0  0
  5  6  1  6  0  0  0
  5  4  1  0  0  0  0
  7 16  1  0  0  0  0
  8 13  1  0  0  0  0
  9 16  1  0  0  0  0
  9 15  1  1  0  0  0
  9  5  1  0  0  0  0
 11 10  1  6  0  0  0
 11  9  1  0  0  0  0
 13  7  1  6  0  0  0
 13 16  1  0  0  0  0
 14 17  1  6  0  0  0
 14 11  1  0  0  0  0
 14  8  1  0  0  0  0
 16 12  1  1  0  0  0
 17 18  1  6  0  0  0
 19 17  1  0  0  0  0
 20 19  1  0  0  0  0
 22 21  1  0  0  0  0
 23 22  1  0  0  0  0
 24 26  2  0  0  0  0
 25 26  1  0  0  0  0
 26 23  1  0  0  0  0
 28 34  1  0  0  0  0
 29 44  1  0  0  0  0
 30 28  2  0  0  0  0
 31 39  2  0  0  0  0
 31 34  1  0  0  0  0
 32 31  1  0  0  0  0
 33 30  1  0  0  0  0
 33 32  2  0  0  0  0
 34 41  2  0  0  0  0
 35 27  1  0  0  0  0
 36 45  1  6  0  0  0
 36 40  1  0  0  0  0
 37 44  2  0  0  0  0
 37 43  1  0  0  0  0
 38 27  2  0  0  0  0
 39 37  1  0  0  0  0
 40 38  1  0  0  0  0
 41 25  1  0  0  0  0
 42 36  1  0  0  0  0
 42 29  1  0  0  0  0
 43 41  1  0  0  0  0
 43 35  2  0  0  0  0
 44 38  1  0  0  0  0
 45 46  1  0  0  0  0
 46 47  1  0  0  0  0
 48  1  1  0  0  0  0
 49 48  1  0  0  0  0
 50 53  2  0  0  0  0
 50 54  1  0  0  0  0
 51 49  1  0  0  0  0
 52 51  1  0  0  0  0
 53 55  1  0  0  0  0
 54 52  2  0  0  0  0
 55 51  2  0  0  0  0
M  END
>  <MODEL>
9

>  <REMARK>
 VINA RESULT:      -7.2      3.880     10.493
  Name = 
  16 active torsions:
  status: ('A' for Active; 'I' for Inactive)
    1  A    between atoms: O_4  and  C_37
    2  A    between atoms: O_4  and  C_40
    3  A    between atoms: C_6  and  C_20
    4  A    between atoms: C_8  and  C_22
    5  A    between atoms: C_8  and  C_43
    6  A    between atoms: O_10  and  C_18
    7  A    between atoms: O_10  and  C_32
    8  A    between atoms: C_11  and  C_29
    9  A    between atoms: N_19  and  C_45
   10  A    between atoms: C_20  and  C_22
   11  A    between atoms: C_27  and  C_54
   12  A    between atoms: C_29  and  C_38
   13  A    between atoms: C_35  and  C_37
   14  A    between atoms: C_35  and  C_43
   15  A    between atoms: C_43  and  C_51
   16  A    between atoms: C_51  and  C_54
                            x       y       z     vdW  Elec       q    Type
                         _______ _______ _______ _____ _____    ______ ____

>  <TORSDO>
F 16

$$$$
