=
 OpenBabel10272413483D

 30 32  0  0  1  0  0  0  0  0999 V2000
  184.8150  178.7620  141.1190 C   0  0  0  0  0  2  0  0  0  0  0  0
  184.3940  178.1960  139.8300 C   0  0  2  0  0  3  0  0  0  0  0  0
  185.1960  177.7760  142.0570 C   0  0  0  0  0  2  0  0  0  0  0  0
  185.9550  177.6280  136.8360 O   0  0  0  0  0  0  0  0  0  0  0  0
  190.2920  176.5900  140.2780 O   0  0  0  0  0  0  0  0  0  0  0  0
  185.5850  177.7570  138.9190 C   0  0  2  0  0  3  0  0  0  0  0  0
  186.9600  178.4780  137.4120 C   0  0  2  0  0  0  0  0  0  0  0  0
  186.2800  178.9160  138.5620 O   0  0  0  0  0  0  0  0  0  0  0  0
  185.4800  176.9340  137.8300 O   0  0  0  0  0  0  0  0  0  0  0  0
  189.4670  177.5030  140.3950 C   0  0  0  0  0  0  0  0  0  0  0  0
  188.8330  177.5990  141.6560 N   0  0  0  0  0  2  0  0  0  0  0  0
  187.1860  179.4900  136.5790 O   0  0  0  0  0  1  0  0  0  0  0  0
  187.0770  177.7180  143.5840 C   0  0  2  0  0  3  0  0  0  0  0  0
  188.2240  177.6780  137.8600 C   0  0  0  0  0  2  0  0  0  0  0  0
  185.6160  177.9940  143.4720 C   0  0  1  0  0  3  0  0  0  0  0  0
  189.2700  176.9210  142.9440 C   0  0  1  0  0  3  0  0  0  0  0  0
  186.9330  176.1660  143.6100 C   0  0  0  0  0  2  0  0  0  0  0  0
  189.1550  178.7190  139.0480 S   0  0  0  0  0  0  0  0  0  0  0  0
  188.1870  176.7930  144.0220 C   0  0  2  0  0  3  0  0  0  0  0  0
  185.4330  179.2900  144.2720 C   0  0  0  0  0  0  0  0  0  0  0  0
  184.8080  180.2180  143.6550 C   0  0  0  0  0  2  0  0  0  0  0  0
  186.4480  178.8730  146.6880 O   0  0  0  0  0  1  0  0  0  0  0  0
  185.3580  179.1690  145.7930 C   0  0  0  0  0  0  0  0  0  0  0  0
  184.2140  178.9930  146.2780 O   0  0  0  0  0  0  0  0  0  0  0  0
  183.3290  179.0420  139.2460 C   0  0  0  0  0  2  0  0  0  0  0  0
  183.9720  180.3100  139.1540 O   0  0  0  0  0  1  0  0  0  0  0  0
  190.0290  175.7460  142.8640 O   0  0  0  0  0  0  0  0  0  0  0  0
  191.1510  175.9310  143.6860 C   0  0  0  0  0  2  0  0  0  0  0  0
  191.6720  177.2680  143.4960 C   0  0  0  0  0  3  0  0  0  0  0  0
  191.8800  177.9290  144.4810 O   0  0  0  0  0  0  0  0  0  0  0  0
  1  3  1  0  0  0  0
  2 25  1  6  0  0  0
  2  1  1  0  0  0  0
  3 15  1  0  0  0  0
  4  7  1  0  0  0  0
  4  9  1  0  0  0  0
  5 10  2  0  0  0  0
  6  9  1  6  0  0  0
  6  2  1  0  0  0  0
  7 12  1  6  0  0  0
  7 14  1  0  0  0  0
  7  8  1  0  0  0  0
  8  6  1  0  0  0  0
 10 11  1  0  0  0  0
 11 16  1  0  0  0  0
 13 17  1  6  0  0  0
 13 19  1  0  0  0  0
 14 18  1  0  0  0  0
 15 13  1  0  0  0  0
 15 20  1  6  0  0  0
 16 27  1  6  0  0  0
 16 19  1  0  0  0  0
 18 10  1  0  0  0  0
 19 17  1  6  0  0  0
 20 23  1  0  0  0  0
 21 20  2  0  0  0  0
 23 24  2  0  0  0  0
 23 22  1  0  0  0  0
 26 25  1  0  0  0  0
 27 28  1  0  0  0  0
 29 28  1  0  0  0  0
 29 30  2  0  0  0  0
M  END
>  <MODEL>
1

>  <REMARK>
 VINA RESULT:      -6.5      0.000      0.000
  Name = 
  6 active torsions:
  status: ('A' for Active; 'I' for Inactive)
    1  A    between atoms: C_2  and  C_20
    2  A    between atoms: C_2  and  C_22
    3  A    between atoms: C_3  and  C_10
    4  A    between atoms: C_4  and  C_27
    5  A    between atoms: C_10  and  O_25
    6  A    between atoms: C_23  and  O_25
                            x       y       z     vdW  Elec       q    Type
                         _______ _______ _______ _____ _____    ______ ____

>  <TORSDO>
F 6

$$$$
=
 OpenBabel10272413483D

 30 32  0  0  1  0  0  0  0  0999 V2000
  184.4700  177.2000  136.7860 C   0  0  0  0  0  2  0  0  0  0  0  0
  185.2560  176.0080  136.4370 C   0  0  2  0  0  3  0  0  0  0  0  0
  183.8240  177.0880  138.0380 C   0  0  0  0  0  2  0  0  0  0  0  0
  188.5520  175.1350  136.7420 O   0  0  0  0  0  0  0  0  0  0  0  0
  188.0250  178.1680  141.4610 O   0  0  0  0  0  0  0  0  0  0  0  0
  186.6340  175.9300  137.1690 C   0  0  2  0  0  3  0  0  0  0  0  0
  188.7050  176.5370  137.0160 C   0  0  2  0  0  0  0  0  0  0  0  0
  187.4130  176.9900  136.6970 O   0  0  0  0  0  0  0  0  0  0  0  0
  187.4080  174.8040  137.2690 O   0  0  0  0  0  0  0  0  0  0  0  0
  187.5470  178.4450  140.3550 C   0  0  0  0  0  0  0  0  0  0  0  0
  186.1590  178.7200  140.3390 N   0  0  0  0  0  2  0  0  0  0  0  0
  189.6040  177.0370  136.1730 O   0  0  0  0  0  1  0  0  0  0  0  0
  183.5990  178.7040  139.8300 C   0  0  2  0  0  3  0  0  0  0  0  0
  188.9700  176.8200  138.5290 C   0  0  0  0  0  2  0  0  0  0  0  0
  182.9030  178.0800  138.6680 C   0  0  1  0  0  3  0  0  0  0  0  0
  185.2790  179.0130  141.5430 C   0  0  1  0  0  3  0  0  0  0  0  0
  183.3670  177.5070  140.8010 C   0  0  0  0  0  2  0  0  0  0  0  0
  188.5900  178.5860  138.8440 S   0  0  0  0  0  0  0  0  0  0  0  0
  183.7760  178.8090  141.3260 C   0  0  2  0  0  3  0  0  0  0  0  0
  182.2490  179.2720  137.9580 C   0  0  0  0  0  0  0  0  0  0  0  0
  181.6230  178.9800  136.8840 C   0  0  0  0  0  2  0  0  0  0  0  0
  180.7260  180.4620  139.7760 O   0  0  0  0  0  1  0  0  0  0  0  0
  181.8110  180.4490  138.8280 C   0  0  0  0  0  0  0  0  0  0  0  0
  182.2110  181.5830  138.4670 O   0  0  0  0  0  0  0  0  0  0  0  0
  185.2190  175.8070  134.9710 C   0  0  0  0  0  2  0  0  0  0  0  0
  184.8270  177.0950  134.5040 O   0  0  0  0  0  1  0  0  0  0  0  0
  185.6690  178.5270  142.7980 O   0  0  0  0  0  0  0  0  0  0  0  0
  184.8880  179.1960  143.7520 C   0  0  0  0  0  2  0  0  0  0  0  0
  185.3050  178.7970  145.0800 C   0  0  0  0  0  3  0  0  0  0  0  0
  184.5130  178.9380  145.9760 O   0  0  0  0  0  0  0  0  0  0  0  0
  1  3  1  0  0  0  0
  2 25  1  6  0  0  0
  2  1  1  0  0  0  0
  2  6  1  0  0  0  0
  3 15  1  0  0  0  0
  4  7  1  0  0  0  0
  4  9  1  0  0  0  0
  6  8  1  6  0  0  0
  6  9  1  0  0  0  0
  7 12  1  6  0  0  0
  7 14  1  0  0  0  0
  8  7  1  0  0  0  0
 10  5  2  0  0  0  0
 11 10  1  0  0  0  0
 11 16  1  0  0  0  0
 13 17  1  6  0  0  0
 13 19  1  0  0  0  0
 14 18  1  0  0  0  0
 15 20  1  6  0  0  0
 15 13  1  0  0  0  0
 16 27  1  1  0  0  0
 18 10  1  0  0  0  0
 19 17  1  1  0  0  0
 19 16  1  0  0  0  0
 20 23  1  0  0  0  0
 21 20  2  0  0  0  0
 23 22  1  0  0  0  0
 24 23  2  0  0  0  0
 26 25  1  0  0  0  0
 27 28  1  0  0  0  0
 28 29  1  0  0  0  0
 29 30  2  0  0  0  0
M  END
>  <MODEL>
2

>  <REMARK>
 VINA RESULT:      -6.3      2.675      5.297
  Name = 
  6 active torsions:
  status: ('A' for Active; 'I' for Inactive)
    1  A    between atoms: C_2  and  C_20
    2  A    between atoms: C_2  and  C_22
    3  A    between atoms: C_3  and  C_10
    4  A    between atoms: C_4  and  C_27
    5  A    between atoms: C_10  and  O_25
    6  A    between atoms: C_23  and  O_25
                            x       y       z     vdW  Elec       q    Type
                         _______ _______ _______ _____ _____    ______ ____

>  <TORSDO>
F 6

$$$$
=
 OpenBabel10272413483D

 30 32  0  0  1  0  0  0  0  0999 V2000
  186.3300  178.3760  143.5390 C   0  0  0  0  0  2  0  0  0  0  0  0
  184.9810  178.0420  143.0600 C   0  0  2  0  0  3  0  0  0  0  0  0
  187.2090  177.2690  143.5280 C   0  0  0  0  0  2  0  0  0  0  0  0
  183.3760  178.2900  140.0460 O   0  0  0  0  0  0  0  0  0  0  0  0
  188.5490  177.0790  138.1700 O   0  0  0  0  0  0  0  0  0  0  0  0
  184.8750  177.9430  141.5050 C   0  0  2  0  0  3  0  0  0  0  0  0
  184.5080  179.1140  139.7230 C   0  0  2  0  0  0  0  0  0  0  0  0
  185.1010  179.2240  140.9930 O   0  0  0  0  0  0  0  0  0  0  0  0
  183.8420  177.3550  140.8230 O   0  0  0  0  0  0  0  0  0  0  0  0
  188.2670  177.8460  139.0980 C   0  0  0  0  0  0  0  0  0  0  0  0
  188.9410  177.6050  140.3190 N   0  0  0  0  0  2  0  0  0  0  0  0
  184.0640  180.2960  139.3030 O   0  0  0  0  0  1  0  0  0  0  0  0
  189.5210  177.1180  142.8170 C   0  0  2  0  0  3  0  0  0  0  0  0
  185.5110  178.3930  138.7680 C   0  0  0  0  0  2  0  0  0  0  0  0
  188.6230  177.2380  144.0020 C   0  0  1  0  0  3  0  0  0  0  0  0
  190.1690  176.7320  140.5190 C   0  0  1  0  0  3  0  0  0  0  0  0
  189.2980  175.5890  142.6180 C   0  0  0  0  0  2  0  0  0  0  0  0
  187.1190  179.2680  138.8790 S   0  0  0  0  0  0  0  0  0  0  0  0
  190.4150  176.2590  141.9560 C   0  0  2  0  0  3  0  0  0  0  0  0
  189.3040  178.3120  144.8610 C   0  0  0  0  0  0  0  0  0  0  0  0
  188.9020  178.3660  146.0710 C   0  0  0  0  0  2  0  0  0  0  0  0
  191.9450  178.0550  144.9280 O   0  0  0  0  0  1  0  0  0  0  0  0
  190.7340  178.7010  144.4880 C   0  0  0  0  0  0  0  0  0  0  0  0
  190.8900  179.8590  144.0290 O   0  0  0  0  0  0  0  0  0  0  0  0
  183.9850  178.8600  143.7890 C   0  0  0  0  0  2  0  0  0  0  0  0
  184.5040  178.8490  145.1160 O   0  0  0  0  0  1  0  0  0  0  0  0
  190.4160  175.6960  139.6080 O   0  0  0  0  0  0  0  0  0  0  0  0
  191.5300  176.0810  138.8480 C   0  0  0  0  0  2  0  0  0  0  0  0
  191.6920  175.1700  137.7340 C   0  0  0  0  0  3  0  0  0  0  0  0
  190.9980  174.1860  137.7170 O   0  0  0  0  0  0  0  0  0  0  0  0
  2  1  1  0  0  0  0
  2 25  1  6  0  0  0
  3  1  1  0  0  0  0
  3 15  1  0  0  0  0
  4  9  1  0  0  0  0
  5 10  2  0  0  0  0
  6  9  1  1  0  0  0
  6  2  1  0  0  0  0
  7 12  1  6  0  0  0
  7  4  1  0  0  0  0
  7  8  1  0  0  0  0
  8  6  1  0  0  0  0
 10 11  1  0  0  0  0
 11 16  1  0  0  0  0
 13 17  1  6  0  0  0
 13 15  1  0  0  0  0
 14 18  1  0  0  0  0
 14  7  1  0  0  0  0
 15 20  1  6  0  0  0
 16 27  1  6  0  0  0
 16 19  1  0  0  0  0
 18 10  1  0  0  0  0
 19 17  1  6  0  0  0
 19 13  1  0  0  0  0
 20 21  2  0  0  0  0
 23 20  1  0  0  0  0
 23 22  1  0  0  0  0
 24 23  2  0  0  0  0
 25 26  1  0  0  0  0
 28 27  1  0  0  0  0
 29 28  1  0  0  0  0
 30 29  2  0  0  0  0
M  END
>  <MODEL>
3

>  <REMARK>
 VINA RESULT:      -5.9      1.935      4.139
  Name = 
  6 active torsions:
  status: ('A' for Active; 'I' for Inactive)
    1  A    between atoms: C_2  and  C_20
    2  A    between atoms: C_2  and  C_22
    3  A    between atoms: C_3  and  C_10
    4  A    between atoms: C_4  and  C_27
    5  A    between atoms: C_10  and  O_25
    6  A    between atoms: C_23  and  O_25
                            x       y       z     vdW  Elec       q    Type
                         _______ _______ _______ _____ _____    ______ ____

>  <TORSDO>
F 6

$$$$
=
 OpenBabel10272413483D

 30 32  0  0  1  0  0  0  0  0999 V2000
  186.5520  177.5580  137.7160 C   0  0  0  0  0  2  0  0  0  0  0  0
  187.7060  177.5000  136.8080 C   0  0  2  0  0  3  0  0  0  0  0  0
  185.3140  177.5900  137.0350 C   0  0  0  0  0  2  0  0  0  0  0  0
  189.6570  174.9750  135.5680 O   0  0  0  0  0  0  0  0  0  0  0  0
  184.7280  172.2520  135.7300 O   0  0  0  0  0  0  0  0  0  0  0  0
  187.9670  176.0770  136.2170 C   0  0  2  0  0  3  0  0  0  0  0  0
  189.0020  174.2150  136.5970 C   0  0  2  0  0  0  0  0  0  0  0  0
  188.3410  175.2510  137.2810 O   0  0  0  0  0  0  0  0  0  0  0  0
  188.7590  175.8100  135.1320 O   0  0  0  0  0  0  0  0  0  0  0  0
  185.1670  173.0230  136.5910 C   0  0  0  0  0  0  0  0  0  0  0  0
  184.2980  174.0710  136.9760 N   0  0  0  0  0  2  0  0  0  0  0  0
  189.9320  173.6570  137.3670 O   0  0  0  0  0  1  0  0  0  0  0  0
  183.2490  176.4050  137.4920 C   0  0  2  0  0  3  0  0  0  0  0  0
  187.9290  173.2390  136.0200 C   0  0  0  0  0  2  0  0  0  0  0  0
  183.9560  177.7100  137.6410 C   0  0  1  0  0  3  0  0  0  0  0  0
  182.8090  174.1670  136.6870 C   0  0  1  0  0  3  0  0  0  0  0  0
  182.8670  176.6150  135.9960 C   0  0  0  0  0  2  0  0  0  0  0  0
  186.8060  172.7660  137.3900 S   0  0  0  0  0  0  0  0  0  0  0  0
  182.2090  175.5740  136.7820 C   0  0  2  0  0  3  0  0  0  0  0  0
  183.6540  178.1190  139.0890 C   0  0  0  0  0  0  0  0  0  0  0  0
  183.2740  177.1650  139.8480 C   0  0  0  0  0  2  0  0  0  0  0  0
  184.9780  179.4340  140.9750 O   0  0  0  0  0  1  0  0  0  0  0  0
  184.4210  179.3140  139.6520 C   0  0  0  0  0  0  0  0  0  0  0  0
  184.2820  180.4000  139.0370 O   0  0  0  0  0  0  0  0  0  0  0  0
  188.8400  178.2390  137.4060 C   0  0  0  0  0  2  0  0  0  0  0  0
  188.2590  178.7630  138.5970 O   0  0  0  0  0  1  0  0  0  0  0  0
  182.2920  173.4820  135.5800 O   0  0  0  0  0  0  0  0  0  0  0  0
  181.0640  172.9330  135.9800 C   0  0  0  0  0  2  0  0  0  0  0  0
  181.3020  171.8360  136.8950 C   0  0  0  0  0  3  0  0  0  0  0  0
  180.5570  171.7250  137.8340 O   0  0  0  0  0  0  0  0  0  0  0  0
  2 25  1  1  0  0  0
  2  1  1  0  0  0  0
  3 15  1  0  0  0  0
  3  1  1  0  0  0  0
  4  7  1  0  0  0  0
  5 10  2  0  0  0  0
  6  9  1  6  0  0  0
  6  2  1  0  0  0  0
  6  8  1  0  0  0  0
  7  8  1  0  0  0  0
  7 12  1  1  0  0  0
  9  4  1  0  0  0  0
 10 11  1  0  0  0  0
 10 18  1  0  0  0  0
 13 17  1  6  0  0  0
 13 15  1  0  0  0  0
 14  7  1  0  0  0  0
 14 18  1  0  0  0  0
 15 20  1  1  0  0  0
 16 27  1  6  0  0  0
 16 19  1  0  0  0  0
 16 11  1  0  0  0  0
 19 17  1  6  0  0  0
 19 13  1  0  0  0  0
 20 23  1  0  0  0  0
 20 21  2  0  0  0  0
 23 22  1  0  0  0  0
 24 23  2  0  0  0  0
 25 26  1  0  0  0  0
 27 28  1  0  0  0  0
 28 29  1  0  0  0  0
 29 30  2  0  0  0  0
M  END
>  <MODEL>
4

>  <REMARK>
 VINA RESULT:      -5.9      4.581      7.557
  Name = 
  6 active torsions:
  status: ('A' for Active; 'I' for Inactive)
    1  A    between atoms: C_2  and  C_20
    2  A    between atoms: C_2  and  C_22
    3  A    between atoms: C_3  and  C_10
    4  A    between atoms: C_4  and  C_27
    5  A    between atoms: C_10  and  O_25
    6  A    between atoms: C_23  and  O_25
                            x       y       z     vdW  Elec       q    Type
                         _______ _______ _______ _____ _____    ______ ____

>  <TORSDO>
F 6

$$$$
=
 OpenBabel10272413483D

 30 32  0  0  1  0  0  0  0  0999 V2000
  192.0770  175.8060  138.4150 C   0  0  0  0  0  2  0  0  0  0  0  0
  192.8380  175.5740  137.1800 C   0  0  2  0  0  3  0  0  0  0  0  0
  191.2970  176.9840  138.3700 C   0  0  0  0  0  2  0  0  0  0  0  0
  192.3140  173.7180  134.3520 O   0  0  0  0  0  0  0  0  0  0  0  0
  186.9900  175.2480  135.3760 O   0  0  0  0  0  0  0  0  0  0  0  0
  191.9790  174.9900  136.0140 C   0  0  2  0  0  3  0  0  0  0  0  0
  191.2740  173.1340  135.1530 C   0  0  2  0  0  0  0  0  0  0  0  0
  191.5760  173.7080  136.4000 O   0  0  0  0  0  0  0  0  0  0  0  0
  192.3500  174.9730  134.6950 O   0  0  0  0  0  0  0  0  0  0  0  0
  187.8240  174.8930  136.2160 C   0  0  0  0  0  0  0  0  0  0  0  0
  188.0080  175.7740  137.3080 N   0  0  0  0  0  2  0  0  0  0  0  0
  191.4530  171.8160  135.1820 O   0  0  0  0  0  1  0  0  0  0  0  0
  189.0200  177.3790  139.1010 C   0  0  2  0  0  3  0  0  0  0  0  0
  189.8530  173.6120  134.7180 C   0  0  0  0  0  2  0  0  0  0  0  0
  190.4560  177.5490  139.4660 C   0  0  1  0  0  3  0  0  0  0  0  0
  187.0930  176.9190  137.7120 C   0  0  1  0  0  3  0  0  0  0  0  0
  188.9750  178.5840  138.1140 C   0  0  0  0  0  2  0  0  0  0  0  0
  188.7000  173.2780  136.1040 S   0  0  0  0  0  0  0  0  0  0  0  0
  187.7330  177.9900  138.6030 C   0  0  2  0  0  3  0  0  0  0  0  0
  190.5040  177.1280  140.9400 C   0  0  0  0  0  0  0  0  0  0  0  0
  191.6370  177.2890  141.5080 C   0  0  0  0  0  2  0  0  0  0  0  0
  188.5010  178.4310  142.0940 O   0  0  0  0  0  0  0  0  0  0  0  0
  189.2040  177.2250  141.7370 C   0  0  0  0  0  0  0  0  0  0  0  0
  188.8900  176.2130  142.4090 O   0  0  0  0  0  1  0  0  0  0  0  0
  194.1240  174.9200  137.5110 C   0  0  0  0  0  2  0  0  0  0  0  0
  194.5840  175.7050  138.6080 O   0  0  0  0  0  1  0  0  0  0  0  0
  186.2790  177.5090  136.7360 O   0  0  0  0  0  0  0  0  0  0  0  0
  185.0100  177.6740  137.3120 C   0  0  0  0  0  2  0  0  0  0  0  0
  184.3200  176.4010  137.3290 C   0  0  0  0  0  3  0  0  0  0  0  0
  183.4710  176.2410  138.1670 O   0  0  0  0  0  0  0  0  0  0  0  0
  2 25  1  1  0  0  0
  2  1  1  0  0  0  0
  3  1  1  0  0  0  0
  3 15  1  0  0  0  0
  4  9  1  0  0  0  0
  4  7  1  0  0  0  0
  5 10  2  0  0  0  0
  6  9  1  6  0  0  0
  6  8  1  0  0  0  0
  6  2  1  0  0  0  0
  7 12  1  1  0  0  0
  7  8  1  0  0  0  0
 10 11  1  0  0  0  0
 11 16  1  0  0  0  0
 13 17  1  6  0  0  0
 13 15  1  0  0  0  0
 14  7  1  0  0  0  0
 14 18  1  0  0  0  0
 15 20  1  1  0  0  0
 16 27  1  6  0  0  0
 16 19  1  0  0  0  0
 18 10  1  0  0  0  0
 19 17  1  6  0  0  0
 19 13  1  0  0  0  0
 20 21  2  0  0  0  0
 20 23  1  0  0  0  0
 23 22  2  0  0  0  0
 23 24  1  0  0  0  0
 25 26  1  0  0  0  0
 27 28  1  0  0  0  0
 28 29  1  0  0  0  0
 29 30  2  0  0  0  0
M  END
>  <MODEL>
5

>  <REMARK>
 VINA RESULT:      -5.6      3.992      7.565
  Name = 
  6 active torsions:
  status: ('A' for Active; 'I' for Inactive)
    1  A    between atoms: C_2  and  C_20
    2  A    between atoms: C_2  and  C_22
    3  A    between atoms: C_3  and  C_10
    4  A    between atoms: C_4  and  C_27
    5  A    between atoms: C_10  and  O_25
    6  A    between atoms: C_23  and  O_25
                            x       y       z     vdW  Elec       q    Type
                         _______ _______ _______ _____ _____    ______ ____

>  <TORSDO>
F 6

$$$$
=
 OpenBabel10272413483D

 30 32  0  0  1  0  0  0  0  0999 V2000
  184.9710  178.0300  139.5590 C   0  0  0  0  0  2  0  0  0  0  0  0
  184.5510  179.0740  140.5050 C   0  0  2  0  0  3  0  0  0  0  0  0
  186.0780  178.4140  138.7680 C   0  0  0  0  0  2  0  0  0  0  0  0
  185.1930  179.7180  143.8050 O   0  0  0  0  0  0  0  0  0  0  0  0
  190.2150  177.6210  142.3450 O   0  0  0  0  0  0  0  0  0  0  0  0
  185.4560  179.1690  141.7750 C   0  0  2  0  0  3  0  0  0  0  0  0
  185.7130  178.3780  143.7730 C   0  0  2  0  0  0  0  0  0  0  0  0
  185.2850  177.9820  142.4930 O   0  0  0  0  0  0  0  0  0  0  0  0
  185.4830  180.2280  142.6430 O   0  0  0  0  0  0  0  0  0  0  0  0
  189.1110  177.1930  141.9910 C   0  0  0  0  0  0  0  0  0  0  0  0
  188.9350  177.0320  140.5960 N   0  0  0  0  0  2  0  0  0  0  0  0
  185.1050  177.6670  144.7180 O   0  0  0  0  0  1  0  0  0  0  0  0
  188.0580  177.1650  138.1410 C   0  0  2  0  0  3  0  0  0  0  0  0
  187.2740  178.3480  143.8040 C   0  0  0  0  0  2  0  0  0  0  0  0
  186.7190  177.6270  137.6740 C   0  0  1  0  0  3  0  0  0  0  0  0
  190.0270  177.0290  139.5390 C   0  0  1  0  0  3  0  0  0  0  0  0
  188.7740  178.5290  137.9100 C   0  0  0  0  0  2  0  0  0  0  0  0
  187.8150  176.7030  143.2030 S   0  0  0  0  0  0  0  0  0  0  0  0
  189.5590  177.3130  138.1070 C   0  0  2  0  0  3  0  0  0  0  0  0
  186.1250  176.3850  136.9980 C   0  0  0  0  0  0  0  0  0  0  0  0
  185.1440  176.6180  136.2140 C   0  0  0  0  0  2  0  0  0  0  0  0
  188.0150  175.0710  135.6770 O   0  0  0  0  0  0  0  0  0  0  0  0
  187.0660  175.2060  136.7520 C   0  0  0  0  0  0  0  0  0  0  0  0
  186.7730  174.1340  137.3360 O   0  0  0  0  0  1  0  0  0  0  0  0
  183.0830  179.0140  140.6820 C   0  0  0  0  0  2  0  0  0  0  0  0
  182.7780  177.7060  140.2050 O   0  0  0  0  0  1  0  0  0  0  0  0
  191.2290  177.6970  139.8090 O   0  0  0  0  0  0  0  0  0  0  0  0
  192.2610  176.9010  139.2890 C   0  0  0  0  0  2  0  0  0  0  0  0
  193.5290  177.3420  139.8320 C   0  0  0  0  0  3  0  0  0  0  0  0
  194.3910  176.5140  139.9730 O   0  0  0  0  0  0  0  0  0  0  0  0
  1  2  1  0  0  0  0
  2 25  1  1  0  0  0
  2  6  1  0  0  0  0
  3  1  1  0  0  0  0
  6  8  1  1  0  0  0
  6  9  1  0  0  0  0
  7 14  1  0  0  0  0
  7  4  1  0  0  0  0
  7 12  1  1  0  0  0
  8  7  1  0  0  0  0
  9  4  1  0  0  0  0
 10  5  2  0  0  0  0
 10 18  1  0  0  0  0
 11 10  1  0  0  0  0
 13 17  1  1  0  0  0
 15 20  1  1  0  0  0
 15 13  1  0  0  0  0
 15  3  1  0  0  0  0
 16 27  1  1  0  0  0
 16 11  1  0  0  0  0
 18 14  1  0  0  0  0
 19 17  1  1  0  0  0
 19 13  1  0  0  0  0
 19 16  1  0  0  0  0
 21 20  2  0  0  0  0
 22 23  2  0  0  0  0
 23 20  1  0  0  0  0
 23 24  1  0  0  0  0
 26 25  1  0  0  0  0
 28 27  1  0  0  0  0
 28 29  1  0  0  0  0
 29 30  2  0  0  0  0
M  END
>  <MODEL>
6

>  <REMARK>
 VINA RESULT:      -5.5      2.468      5.902
  Name = 
  6 active torsions:
  status: ('A' for Active; 'I' for Inactive)
    1  A    between atoms: C_2  and  C_20
    2  A    between atoms: C_2  and  C_22
    3  A    between atoms: C_3  and  C_10
    4  A    between atoms: C_4  and  C_27
    5  A    between atoms: C_10  and  O_25
    6  A    between atoms: C_23  and  O_25
                            x       y       z     vdW  Elec       q    Type
                         _______ _______ _______ _____ _____    ______ ____

>  <TORSDO>
F 6

$$$$
=
 OpenBabel10272413483D

 30 32  0  0  1  0  0  0  0  0999 V2000
  185.2020  178.0060  139.2300 C   0  0  0  0  0  2  0  0  0  0  0  0
  184.7220  179.0700  140.1230 C   0  0  2  0  0  3  0  0  0  0  0  0
  186.3830  178.3560  138.5390 C   0  0  0  0  0  2  0  0  0  0  0  0
  185.0770  179.7410  143.4610 O   0  0  0  0  0  0  0  0  0  0  0  0
  190.1620  177.5200  142.4840 O   0  0  0  0  0  0  0  0  0  0  0  0
  185.5100  179.1620  141.4690 C   0  0  2  0  0  3  0  0  0  0  0  0
  185.5670  178.3910  143.4900 C   0  0  2  0  0  0  0  0  0  0  0  0
  185.2480  177.9880  142.1810 O   0  0  0  0  0  0  0  0  0  0  0  0
  185.4820  180.2310  142.3250 O   0  0  0  0  0  0  0  0  0  0  0  0
  189.0850  177.1110  142.0360 C   0  0  0  0  0  0  0  0  0  0  0  0
  189.0320  176.9360  140.6330 N   0  0  0  0  0  2  0  0  0  0  0  0
  184.8610  177.7040  144.3830 O   0  0  0  0  0  1  0  0  0  0  0  0
  188.3830  177.0570  138.1070 C   0  0  2  0  0  3  0  0  0  0  0  0
  187.1180  178.3280  143.6630 C   0  0  0  0  0  2  0  0  0  0  0  0
  187.1030  177.5430  137.5160 C   0  0  1  0  0  3  0  0  0  0  0  0
  190.2150  176.8970  139.6790 C   0  0  1  0  0  3  0  0  0  0  0  0
  189.1480  178.4030  137.9280 C   0  0  0  0  0  2  0  0  0  0  0  0
  187.6740  176.6640  143.1310 S   0  0  0  0  0  0  0  0  0  0  0  0
  189.8850  177.1730  138.2080 C   0  0  2  0  0  3  0  0  0  0  0  0
  186.5450  176.3050  136.8010 C   0  0  0  0  0  0  0  0  0  0  0  0
  187.0870  175.2000  137.1400 C   0  0  0  0  0  2  0  0  0  0  0  0
  184.0190  175.4910  136.7680 O   0  0  0  0  0  1  0  0  0  0  0  0
  185.0880  176.3600  136.3440 C   0  0  0  0  0  0  0  0  0  0  0  0
  184.8640  176.9940  135.2850 O   0  0  0  0  0  0  0  0  0  0  0  0
  183.2430  179.0450  140.1680 C   0  0  0  0  0  2  0  0  0  0  0  0
  182.8970  179.8100  139.0160 O   0  0  0  0  0  1  0  0  0  0  0  0
  191.4020  177.5430  140.0490 O   0  0  0  0  0  0  0  0  0  0  0  0
  192.4230  177.0030  139.2520 C   0  0  0  0  0  2  0  0  0  0  0  0
  193.7100  177.3890  139.7920 C   0  0  0  0  0  3  0  0  0  0  0  0
  194.4820  176.5090  140.0710 O   0  0  0  0  0  0  0  0  0  0  0  0
  1  2  1  0  0  0  0
  2 25  1  1  0  0  0
  2  6  1  0  0  0  0
  3  1  1  0  0  0  0
  4  7  1  0  0  0  0
  6  8  1  1  0  0  0
  6  9  1  0  0  0  0
  7 14  1  0  0  0  0
  7 12  1  1  0  0  0
  8  7  1  0  0  0  0
  9  4  1  0  0  0  0
 10  5  2  0  0  0  0
 10 18  1  0  0  0  0
 11 10  1  0  0  0  0
 13 17  1  1  0  0  0
 13 19  1  0  0  0  0
 15 20  1  1  0  0  0
 15 13  1  0  0  0  0
 15  3  1  0  0  0  0
 16 27  1  1  0  0  0
 16 11  1  0  0  0  0
 18 14  1  0  0  0  0
 19 17  1  1  0  0  0
 19 16  1  0  0  0  0
 20 21  2  0  0  0  0
 23 22  1  0  0  0  0
 23 20  1  0  0  0  0
 24 23  2  0  0  0  0
 26 25  1  0  0  0  0
 28 29  1  0  0  0  0
 28 27  1  0  0  0  0
 29 30  2  0  0  0  0
M  END
>  <MODEL>
7

>  <REMARK>
 VINA RESULT:      -5.4      2.337      5.836
  Name = 
  6 active torsions:
  status: ('A' for Active; 'I' for Inactive)
    1  A    between atoms: C_2  and  C_20
    2  A    between atoms: C_2  and  C_22
    3  A    between atoms: C_3  and  C_10
    4  A    between atoms: C_4  and  C_27
    5  A    between atoms: C_10  and  O_25
    6  A    between atoms: C_23  and  O_25
                            x       y       z     vdW  Elec       q    Type
                         _______ _______ _______ _____ _____    ______ ____

>  <TORSDO>
F 6

$$$$
=
 OpenBabel10272413483D

 30 32  0  0  1  0  0  0  0  0999 V2000
  187.2290  178.1060  139.9410 C   0  0  0  0  0  2  0  0  0  0  0  0
  187.8500  178.4400  138.6510 C   0  0  2  0  0  3  0  0  0  0  0  0
  186.0090  178.7850  140.1580 C   0  0  0  0  0  2  0  0  0  0  0  0
  187.8490  177.0030  135.5440 O   0  0  0  0  0  0  0  0  0  0  0  0
  182.5780  175.7390  137.0790 O   0  0  0  0  0  0  0  0  0  0  0  0
  187.1990  177.7100  137.4340 C   0  0  2  0  0  3  0  0  0  0  0  0
  187.2880  175.8930  136.2630 C   0  0  2  0  0  0  0  0  0  0  0  0
  187.4600  176.3450  137.5830 O   0  0  0  0  0  0  0  0  0  0  0  0
  187.3670  178.0660  136.1220 O   0  0  0  0  0  0  0  0  0  0  0  0
  183.5820  175.6850  137.7970 C   0  0  0  0  0  0  0  0  0  0  0  0
  183.4930  176.3750  139.0290 N   0  0  0  0  0  2  0  0  0  0  0  0
  188.0360  174.8180  136.0290 O   0  0  0  0  0  1  0  0  0  0  0  0
  183.9070  177.9740  141.0510 C   0  0  2  0  0  3  0  0  0  0  0  0
  185.7600  175.7240  135.9920 C   0  0  0  0  0  2  0  0  0  0  0  0
  185.1520  178.7280  141.3780 C   0  0  1  0  0  3  0  0  0  0  0  0
  182.2250  176.8960  139.6870 C   0  0  1  0  0  3  0  0  0  0  0  0
  183.2070  179.1570  140.3180 C   0  0  0  0  0  2  0  0  0  0  0  0
  185.0630  174.6910  137.3370 S   0  0  0  0  0  0  0  0  0  0  0  0
  182.4310  177.9920  140.7380 C   0  0  2  0  0  3  0  0  0  0  0  0
  185.5690  178.1580  142.7400 C   0  0  0  0  0  0  0  0  0  0  0  0
  186.7760  177.7450  142.8030 C   0  0  0  0  0  2  0  0  0  0  0  0
  183.9760  179.8490  144.0240 O   0  0  0  0  0  0  0  0  0  0  0  0
  184.8620  178.7140  143.9760 C   0  0  0  0  0  0  0  0  0  0  0  0
  185.3320  178.3640  145.0860 O   0  0  0  0  0  1  0  0  0  0  0  0
  189.3230  178.4090  138.7930 C   0  0  0  0  0  2  0  0  0  0  0  0
  189.4990  177.4970  139.8740 O   0  0  0  0  0  1  0  0  0  0  0  0
  181.1170  177.1850  138.8800 O   0  0  0  0  0  0  0  0  0  0  0  0
  179.9820  176.7390  139.5740 C   0  0  0  0  0  2  0  0  0  0  0  0
  180.0040  175.2930  139.6520 C   0  0  0  0  0  3  0  0  0  0  0  0
  179.9820  174.6810  138.6160 O   0  0  0  0  0  0  0  0  0  0  0  0
  1  3  1  0  0  0  0
  2 25  1  1  0  0  0
  2  1  1  0  0  0  0
  3 15  1  0  0  0  0
  4  9  1  0  0  0  0
  4  7  1  0  0  0  0
  5 10  2  0  0  0  0
  6  9  1  6  0  0  0
  6  8  1  0  0  0  0
  6  2  1  0  0  0  0
  7 12  1  6  0  0  0
  7  8  1  0  0  0  0
 10 11  1  0  0  0  0
 11 16  1  0  0  0  0
 13 17  1  6  0  0  0
 13 15  1  0  0  0  0
 14  7  1  0  0  0  0
 14 18  1  0  0  0  0
 15 20  1  1  0  0  0
 16 27  1  6  0  0  0
 16 19  1  0  0  0  0
 18 10  1  0  0  0  0
 19 17  1  6  0  0  0
 19 13  1  0  0  0  0
 20 21  2  0  0  0  0
 20 23  1  0  0  0  0
 23 22  2  0  0  0  0
 23 24  1  0  0  0  0
 25 26  1  0  0  0  0
 27 28  1  0  0  0  0
 28 29  1  0  0  0  0
 30 29  2  0  0  0  0
M  END
>  <MODEL>
8

>  <REMARK>
 VINA RESULT:      -5.4      2.987      6.161
  Name = 
  6 active torsions:
  status: ('A' for Active; 'I' for Inactive)
    1  A    between atoms: C_2  and  C_20
    2  A    between atoms: C_2  and  C_22
    3  A    between atoms: C_3  and  C_10
    4  A    between atoms: C_4  and  C_27
    5  A    between atoms: C_10  and  O_25
    6  A    between atoms: C_23  and  O_25
                            x       y       z     vdW  Elec       q    Type
                         _______ _______ _______ _____ _____    ______ ____

>  <TORSDO>
F 6

$$$$
=
 OpenBabel10272413483D

 30 32  0  0  1  0  0  0  0  0999 V2000
  185.7580  176.7040  137.6660 C   0  0  0  0  0  2  0  0  0  0  0  0
  184.9130  177.9060  137.7070 C   0  0  2  0  0  3  0  0  0  0  0  0
  187.1110  176.9890  137.3770 C   0  0  0  0  0  2  0  0  0  0  0  0
  183.7920  179.9660  140.2000 O   0  0  0  0  0  0  0  0  0  0  0  0
  188.8660  178.7380  142.3170 O   0  0  0  0  0  0  0  0  0  0  0  0
  185.0490  178.7230  139.0310 C   0  0  2  0  0  3  0  0  0  0  0  0
  184.2600  178.8970  141.0380 C   0  0  2  0  0  0  0  0  0  0  0  0
  184.5410  177.9260  140.0610 O   0  0  0  0  0  0  0  0  0  0  0  0
  184.6290  180.0150  139.2040 O   0  0  0  0  0  0  0  0  0  0  0  0
  188.0960  177.9500  141.7570 C   0  0  0  0  0  0  0  0  0  0  0  0
  188.6520  177.2010  140.6930 N   0  0  0  0  0  2  0  0  0  0  0  0
  183.2590  178.5060  141.8220 O   0  0  0  0  0  1  0  0  0  0  0  0
  189.1400  176.1110  138.3720 C   0  0  2  0  0  3  0  0  0  0  0  0
  185.5890  179.2600  141.7730 C   0  0  0  0  0  2  0  0  0  0  0  0
  188.2210  176.0070  137.2010 C   0  0  1  0  0  3  0  0  0  0  0  0
  190.1290  177.0330  140.3770 C   0  0  1  0  0  3  0  0  0  0  0  0
  189.8700  177.3940  137.8720 C   0  0  0  0  0  2  0  0  0  0  0  0
  186.3650  177.6970  142.3330 S   0  0  0  0  0  0  0  0  0  0  0  0
  190.4510  176.5910  138.9460 C   0  0  2  0  0  3  0  0  0  0  0  0
  188.0560  174.4940  137.0080 C   0  0  0  0  0  0  0  0  0  0  0  0
  186.8770  174.1190  136.6920 C   0  0  0  0  0  2  0  0  0  0  0  0
  190.5180  173.5360  137.2610 O   0  0  0  0  0  1  0  0  0  0  0  0
  189.2820  173.7120  136.5400 C   0  0  0  0  0  0  0  0  0  0  0  0
  189.3500  173.4730  135.3100 O   0  0  0  0  0  0  0  0  0  0  0  0
  183.5580  177.5710  137.2150 C   0  0  0  0  0  2  0  0  0  0  0  0
  183.6310  176.1540  137.0810 O   0  0  0  0  0  1  0  0  0  0  0  0
  191.0260  178.0220  140.8030 O   0  0  0  0  0  0  0  0  0  0  0  0
  192.0820  177.3610  141.4480 C   0  0  0  0  0  2  0  0  0  0  0  0
  191.6760  176.9960  142.7880 C   0  0  0  0  0  3  0  0  0  0  0  0
  191.7250  177.8510  143.6350 O   0  0  0  0  0  0  0  0  0  0  0  0
  1  2  1  0  0  0  0
  2 25  1  1  0  0  0
  2  6  1  0  0  0  0
  3  1  1  0  0  0  0
  4  7  1  0  0  0  0
  6  9  1  6  0  0  0
  6  8  1  0  0  0  0
  7 14  1  0  0  0  0
  7 12  1  1  0  0  0
  8  7  1  0  0  0  0
  9  4  1  0  0  0  0
 10  5  2  0  0  0  0
 10 18  1  0  0  0  0
 11 10  1  0  0  0  0
 13 17  1  1  0  0  0
 13 19  1  0  0  0  0
 14 18  1  0  0  0  0
 15 20  1  1  0  0  0
 15  3  1  0  0  0  0
 15 13  1  0  0  0  0
 16 11  1  0  0  0  0
 16 27  1  6  0  0  0
 19 17  1  6  0  0  0
 19 16  1  0  0  0  0
 21 20  2  0  0  0  0
 23 20  1  0  0  0  0
 23 22  1  0  0  0  0
 24 23  2  0  0  0  0
 26 25  1  0  0  0  0
 27 28  1  0  0  0  0
 28 29  1  0  0  0  0
 29 30  2  0  0  0  0
M  END
>  <MODEL>
9

>  <REMARK>
 VINA RESULT:      -5.4      2.530      5.892
  Name = 
  6 active torsions:
  status: ('A' for Active; 'I' for Inactive)
    1  A    between atoms: C_2  and  C_20
    2  A    between atoms: C_2  and  C_22
    3  A    between atoms: C_3  and  C_10
    4  A    between atoms: C_4  and  C_27
    5  A    between atoms: C_10  and  O_25
    6  A    between atoms: C_23  and  O_25
                            x       y       z     vdW  Elec       q    Type
                         _______ _______ _______ _____ _____    ______ ____

>  <TORSDO>
F 6

$$$$
