=
 OpenBabel10272414463D

 37 45  0  0  1  0  0  0  0  0999 V2000
  188.8850  177.2500  136.8150 C   0  0  1  0  0  3  0  0  0  0  0  0
  182.3290  175.9020  135.0920 C   0  0  0  0  0  2  0  0  0  0  0  0
  187.3750  177.2560  142.7330 C   0  0  0  0  0  2  0  0  0  0  0  0
  185.0490  178.3710  139.1480 C   0  0  1  0  0  3  0  0  0  0  0  0
  188.9460  177.6640  135.3620 C   0  0  0  0  0  2  0  0  0  0  0  0
  183.2740  175.4850  136.2430 C   0  0  2  0  0  0  0  0  0  0  0  0
  184.5710  174.8310  135.8340 C   0  0  0  0  0  2  0  0  0  0  0  0
  182.7340  175.2900  137.6610 C   0  0  2  0  0  3  0  0  0  0  0  0
  185.4770  179.3250  141.3210 C   0  0  0  0  0  2  0  0  0  0  0  0
  185.8360  177.6650  138.0390 C   0  0  2  0  0  3  0  0  0  0  0  0
  190.1570  177.3080  138.7510 O   0  0  0  0  0  1  0  0  0  0  0  0
  186.0280  179.0550  139.9810 N   0  0  1  0  0  0  0  0  0  0  0  0
  185.1490  176.3540  137.5840 C   0  0  2  0  0  3  0  0  0  0  0  0
  180.8440  175.9470  138.9140 O   0  0  0  0  0  0  0  0  0  0  0  0
  185.0980  178.0710  142.1050 C   0  0  0  0  0  2  0  0  0  0  0  0
  187.8310  176.9740  134.5640 C   0  0  0  0  0  2  0  0  0  0  0  0
  180.3690  175.6500  136.6310 C   0  0  0  0  0  2  0  0  0  0  0  0
  181.2840  175.6650  137.8120 C   0  0  0  0  0  0  0  0  0  0  0  0
  187.1260  178.0960  140.0250 C   0  0  2  0  0  3  0  0  0  0  0  0
  189.2900  177.6030  141.3090 C   0  0  0  0  0  2  0  0  0  0  0  0
  182.8150  178.4650  138.1360 C   0  0  0  0  0  2  0  0  0  0  0  0
  189.7160  178.1140  137.7100 C   0  0  2  0  0  3  0  0  0  0  0  0
  183.5660  180.2560  139.4770 O   0  0  0  0  0  1  0  0  0  0  0  0
  188.3620  178.6610  140.7390 C   0  0  2  0  0  3  0  0  0  0  0  0
  187.6410  175.4620  134.8410 C   0  0  2  0  0  3  0  0  0  0  0  0
  185.6260  175.8340  136.2360 C   0  0  1  0  0  3  0  0  0  0  0  0
  184.0020  179.3110  138.5460 C   0  0  1  0  0  3  0  0  0  0  0  0
  187.2610  177.5000  138.6080 C   0  0  2  0  0  3  0  0  0  0  0  0
  186.0820  177.8650  143.2450 C   0  0  0  0  0  2  0  0  0  0  0  0
  183.6310  176.5000  137.3420 C   0  0  1  0  0  0  0  0  0  0  0  0
  188.3590  178.3220  142.2470 C   0  0  1  0  0  3  0  0  0  0  0  0
  186.9970  175.1930  136.2060 C   0  0  0  0  0  2  0  0  0  0  0  0
  180.9880  176.4890  135.5310 C   0  0  0  0  0  2  0  0  0  0  0  0
  188.1840  178.2920  137.6620 C   0  0  2  0  0  3  0  0  0  0  0  0
  183.1170  177.7600  136.9680 O   0  0  0  0  0  0  0  0  0  0  0  0
  188.9300  174.6670  134.6880 C   0  0  0  0  0  2  0  0  0  0  0  0
  189.0610  173.6500  135.8070 C   0  0  0  0  0  1  0  0  0  0  0  0
  1  5  1  6  0  0  0
  1 34  1  0  0  0  0
  1 22  1  0  0  0  0
  2 33  1  0  0  0  0
  2  6  1  0  0  0  0
  3 29  1  0  0  0  0
  4 12  1  0  0  0  0
  6 30  1  0  0  0  0
  6  8  1  0  0  0  0
  7 26  1  0  0  0  0
  7  6  1  0  0  0  0
  8 18  1  0  0  0  0
  9 15  1  0  0  0  0
 10 28  1  0  0  0  0
 10  4  1  0  0  0  0
 12 19  1  0  0  0  0
 12  9  1  0  0  0  0
 13 10  1  0  0  0  0
 15 29  1  0  0  0  0
 16 25  1  0  0  0  0
 16  5  1  0  0  0  0
 17 18  1  0  0  0  0
 18 14  2  0  0  0  0
 19 24  1  0  0  0  0
 20 31  1  0  0  0  0
 21 27  1  0  0  0  0
 22 11  1  0  0  0  0
 24 20  1  0  0  0  0
 24 31  1  0  0  0  0
 25 32  1  0  0  0  0
 26 13  1  0  0  0  0
 27  4  1  0  0  0  0
 27 23  1  0  0  0  0
 28 19  1  0  0  0  0
 30 13  1  0  0  0  0
 30  8  1  0  0  0  0
 31  3  1  0  0  0  0
 32 26  1  0  0  0  0
 33 17  1  0  0  0  0
 34 22  1  0  0  0  0
 34 28  1  0  0  0  0
 35 30  1  0  0  0  0
 35 21  1  0  0  0  0
 36 25  1  0  0  0  0
 36 37  1  0  0  0  0
M  END
>  <MODEL>
1

>  <REMARK>
 VINA RESULT:      -7.1      0.000      0.000
  Name = 
  1 active torsions:
  status: ('A' for Active; 'I' for Inactive)
    1  A    between atoms: C_11  and  C_26
                            x       y       z     vdW  Elec       q    Type
                         _______ _______ _______ _____ _____    ______ ____

>  <TORSDO>
F 1

$$$$
=
 OpenBabel10272414463D

 37 45  0  0  1  0  0  0  0  0999 V2000
  192.7280  175.4950  136.7890 C   0  0  1  0  0  3  0  0  0  0  0  0
  186.5390  173.3860  134.5480 C   0  0  0  0  0  2  0  0  0  0  0  0
  190.3760  176.6900  142.2970 C   0  0  0  0  0  2  0  0  0  0  0  0
  188.5590  176.8470  138.2740 C   0  0  1  0  0  3  0  0  0  0  0  0
  192.9860  175.5860  135.3020 C   0  0  0  0  0  2  0  0  0  0  0  0
  187.3200  173.2900  135.8800 C   0  0  2  0  0  0  0  0  0  0  0  0
  188.6840  172.6480  135.8050 C   0  0  0  0  0  2  0  0  0  0  0  0
  186.5870  173.3740  137.2190 C   0  0  2  0  0  3  0  0  0  0  0  0
  188.6360  178.2750  140.2150 C   0  0  0  0  0  2  0  0  0  0  0  0
  189.5210  175.9690  137.4680 C   0  0  2  0  0  3  0  0  0  0  0  0
  193.7030  176.0540  138.8160 O   0  0  0  0  0  1  0  0  0  0  0  0
  189.3840  177.7570  139.0560 N   0  0  1  0  0  0  0  0  0  0  0  0
  188.9520  174.5480  137.2310 C   0  0  2  0  0  3  0  0  0  0  0  0
  184.5150  174.1650  138.0280 O   0  0  0  0  0  0  0  0  0  0  0  0
  188.1880  177.2010  141.2030 C   0  0  0  0  0  2  0  0  0  0  0  0
  192.0220  174.6690  134.5370 C   0  0  0  0  0  2  0  0  0  0  0  0
  184.3860  173.3490  135.8270 C   0  0  0  0  0  2  0  0  0  0  0  0
  185.1190  173.6790  137.0860 C   0  0  0  0  0  0  0  0  0  0  0  0
  190.4950  176.9030  139.4620 C   0  0  2  0  0  3  0  0  0  0  0  0
  192.4650  176.8410  141.1020 C   0  0  0  0  0  2  0  0  0  0  0  0
  186.4940  176.5750  136.9770 C   0  0  0  0  0  2  0  0  0  0  0  0
  193.3920  176.5830  137.5700 C   0  0  2  0  0  3  0  0  0  0  0  0
  186.9830  178.6590  137.9700 O   0  0  0  0  0  1  0  0  0  0  0  0
  191.5950  177.6890  140.1900 C   0  0  2  0  0  3  0  0  0  0  0  0
  191.8430  173.2440  135.1180 C   0  0  2  0  0  3  0  0  0  0  0  0
  189.6360  173.7800  136.1100 C   0  0  1  0  0  3  0  0  0  0  0  0
  187.5800  177.5650  137.3420 C   0  0  1  0  0  3  0  0  0  0  0  0
  190.8540  176.0230  138.2460 C   0  0  2  0  0  3  0  0  0  0  0  0
  189.0020  177.3110  142.4810 C   0  0  0  0  0  2  0  0  0  0  0  0
  187.4810  174.5410  136.7600 C   0  0  1  0  0  0  0  0  0  0  0  0
  191.3840  177.6860  141.7210 C   0  0  1  0  0  3  0  0  0  0  0  0
  191.0170  173.2370  136.4090 C   0  0  0  0  0  2  0  0  0  0  0  0
  185.1310  173.9670  134.6600 C   0  0  0  0  0  2  0  0  0  0  0  0
  191.8770  176.6490  137.2790 C   0  0  2  0  0  3  0  0  0  0  0  0
  186.9850  175.6530  136.0480 O   0  0  0  0  0  0  0  0  0  0  0  0
  193.1660  172.5190  135.3210 C   0  0  0  0  0  2  0  0  0  0  0  0
  192.9440  171.0190  135.3850 C   0  0  0  0  0  1  0  0  0  0  0  0
  1  5  1  6  0  0  0
  1 34  1  0  0  0  0
  1 22  1  0  0  0  0
  2 33  1  0  0  0  0
  2  6  1  0  0  0  0
  3 29  1  0  0  0  0
  4 12  1  0  0  0  0
  6 30  1  0  0  0  0
  6  8  1  0  0  0  0
  7  6  1  0  0  0  0
  7 26  1  0  0  0  0
  9 15  1  0  0  0  0
 10 28  1  0  0  0  0
 10  4  1  0  0  0  0
 12 19  1  0  0  0  0
 12  9  1  0  0  0  0
 13 10  1  0  0  0  0
 15 29  1  0  0  0  0
 16 25  1  0  0  0  0
 16  5  1  0  0  0  0
 17 18  1  0  0  0  0
 18  8  1  0  0  0  0
 18 14  2  0  0  0  0
 19 24  1  0  0  0  0
 20 31  1  0  0  0  0
 21 27  1  0  0  0  0
 22 11  1  0  0  0  0
 24 20  1  0  0  0  0
 24 31  1  0  0  0  0
 25 36  1  0  0  0  0
 25 32  1  0  0  0  0
 26 32  1  0  0  0  0
 26 13  1  0  0  0  0
 27 23  1  0  0  0  0
 27  4  1  0  0  0  0
 28 19  1  0  0  0  0
 30  8  1  0  0  0  0
 30 13  1  0  0  0  0
 31  3  1  0  0  0  0
 33 17  1  0  0  0  0
 34 22  1  0  0  0  0
 34 28  1  0  0  0  0
 35 30  1  0  0  0  0
 35 21  1  0  0  0  0
 36 37  1  0  0  0  0
M  END
>  <MODEL>
2

>  <REMARK>
 VINA RESULT:      -6.8      2.838      4.170
  Name = 
  1 active torsions:
  status: ('A' for Active; 'I' for Inactive)
    1  A    between atoms: C_11  and  C_26
                            x       y       z     vdW  Elec       q    Type
                         _______ _______ _______ _____ _____    ______ ____

>  <TORSDO>
F 1

$$$$
=
 OpenBabel10272414463D

 37 45  0  0  1  0  0  0  0  0999 V2000
  189.7360  176.4770  136.5760 C   0  0  1  0  0  3  0  0  0  0  0  0
  182.9960  175.5940  135.3240 C   0  0  0  0  0  2  0  0  0  0  0  0
  188.6370  176.6900  142.5800 C   0  0  0  0  0  2  0  0  0  0  0  0
  186.1600  177.9190  139.1360 C   0  0  1  0  0  3  0  0  0  0  0  0
  189.7280  176.8610  135.1140 C   0  0  0  0  0  2  0  0  0  0  0  0
  183.9840  175.1260  136.4180 C   0  0  2  0  0  0  0  0  0  0  0  0
  185.1990  174.3710  135.9360 C   0  0  0  0  0  2  0  0  0  0  0  0
  183.5290  174.9950  137.8720 C   0  0  2  0  0  3  0  0  0  0  0  0
  186.8040  178.8720  141.2540 C   0  0  0  0  0  2  0  0  0  0  0  0
  186.8160  177.1380  137.9920 C   0  0  2  0  0  3  0  0  0  0  0  0
  191.1380  176.4710  138.4210 O   0  0  0  0  0  1  0  0  0  0  0  0
  187.2420  178.5410  139.8870 N   0  0  1  0  0  0  0  0  0  0  0  0
  186.0050  175.8740  137.6120 C   0  0  2  0  0  3  0  0  0  0  0  0
  181.7830  175.8110  139.2350 O   0  0  0  0  0  0  0  0  0  0  0  0
  186.3890  177.6630  142.0890 C   0  0  0  0  0  2  0  0  0  0  0  0
  188.5130  176.2440  134.4070 C   0  0  0  0  0  2  0  0  0  0  0  0
  181.1320  175.5150  136.9960 C   0  0  0  0  0  2  0  0  0  0  0  0
  182.1250  175.4790  138.1120 C   0  0  0  0  0  0  0  0  0  0  0  0
  188.2660  177.5030  139.8780 C   0  0  2  0  0  3  0  0  0  0  0  0
  190.4710  176.8710  141.0240 C   0  0  0  0  0  2  0  0  0  0  0  0
  183.8750  178.1620  138.2740 C   0  0  0  0  0  2  0  0  0  0  0  0
  190.6870  177.2900  137.3940 C   0  0  2  0  0  3  0  0  0  0  0  0
  184.8450  179.9130  139.5230 O   0  0  0  0  0  1  0  0  0  0  0  0
  189.5860  177.9860  140.4960 C   0  0  2  0  0  3  0  0  0  0  0  0
  188.2320  174.7550  134.7280 C   0  0  2  0  0  3  0  0  0  0  0  0
  186.3490  175.2990  136.2460 C   0  0  1  0  0  3  0  0  0  0  0  0
  185.1470  178.9240  138.5860 C   0  0  1  0  0  3  0  0  0  0  0  0
  188.2610  176.8760  138.4680 C   0  0  2  0  0  3  0  0  0  0  0  0
  187.4300  177.4030  143.1640 C   0  0  0  0  0  2  0  0  0  0  0  0
  184.4890  176.1300  137.4690 C   0  0  1  0  0  0  0  0  0  0  0  0
  189.6610  177.6720  142.0070 C   0  0  1  0  0  3  0  0  0  0  0  0
  187.6640  174.5570  136.1380 C   0  0  0  0  0  2  0  0  0  0  0  0
  181.7350  176.2870  135.8390 C   0  0  0  0  0  2  0  0  0  0  0  0
  189.1720  177.5820  137.4460 C   0  0  2  0  0  3  0  0  0  0  0  0
  184.0440  177.4180  137.1030 O   0  0  0  0  0  0  0  0  0  0  0  0
  189.4460  173.8640  134.5060 C   0  0  0  0  0  2  0  0  0  0  0  0
  189.5850  172.8660  135.6400 C   0  0  0  0  0  1  0  0  0  0  0  0
  1  5  1  6  0  0  0
  1 22  1  0  0  0  0
  1 34  1  0  0  0  0
  2 33  1  0  0  0  0
  2  6  1  0  0  0  0
  3 29  1  0  0  0  0
  4 12  1  0  0  0  0
  6 30  1  0  0  0  0
  6  8  1  0  0  0  0
  7 26  1  0  0  0  0
  7  6  1  0  0  0  0
  8 18  1  0  0  0  0
  9 15  1  0  0  0  0
 10 28  1  0  0  0  0
 10  4  1  0  0  0  0
 12  9  1  0  0  0  0
 13 10  1  0  0  0  0
 15 29  1  0  0  0  0
 16 25  1  0  0  0  0
 16  5  1  0  0  0  0
 17 18  1  0  0  0  0
 18 14  2  0  0  0  0
 19 12  1  0  0  0  0
 19 24  1  0  0  0  0
 20 31  1  0  0  0  0
 21 27  1  0  0  0  0
 22 34  1  0  0  0  0
 22 11  1  0  0  0  0
 24 20  1  0  0  0  0
 24 31  1  0  0  0  0
 25 32  1  0  0  0  0
 26 13  1  0  0  0  0
 27  4  1  0  0  0  0
 27 23  1  0  0  0  0
 28 19  1  0  0  0  0
 30 13  1  0  0  0  0
 30  8  1  0  0  0  0
 31  3  1  0  0  0  0
 32 26  1  0  0  0  0
 33 17  1  0  0  0  0
 34 28  1  0  0  0  0
 35 30  1  0  0  0  0
 35 21  1  0  0  0  0
 36 25  1  0  0  0  0
 36 37  1  0  0  0  0
M  END
>  <MODEL>
3

>  <REMARK>
 VINA RESULT:      -6.7      1.029      1.137
  Name = 
  1 active torsions:
  status: ('A' for Active; 'I' for Inactive)
    1  A    between atoms: C_11  and  C_26
                            x       y       z     vdW  Elec       q    Type
                         _______ _______ _______ _____ _____    ______ ____

>  <TORSDO>
F 1

$$$$
=
 OpenBabel10272414463D

 37 45  0  0  1  0  0  0  0  0999 V2000
  187.6250  177.1050  136.9370 C   0  0  1  0  0  3  0  0  0  0  0  0
  184.5030  171.3320  134.7680 C   0  0  0  0  0  2  0  0  0  0  0  0
  183.1190  178.0900  140.9400 C   0  0  0  0  0  2  0  0  0  0  0  0
  183.1000  176.1370  136.9780 C   0  0  1  0  0  3  0  0  0  0  0  0
  188.3460  176.9430  135.6180 C   0  0  0  0  0  2  0  0  0  0  0  0
  184.6740  172.0490  136.1280 C   0  0  2  0  0  0  0  0  0  0  0  0
  186.0940  172.3150  136.5650 C   0  0  0  0  0  2  0  0  0  0  0  0
  183.5460  172.0340  137.1610 C   0  0  2  0  0  3  0  0  0  0  0  0
  181.7640  177.7880  138.1210 C   0  0  0  0  0  2  0  0  0  0  0  0
  184.5830  175.8020  136.7940 C   0  0  2  0  0  3  0  0  0  0  0  0
  187.3830  178.6190  138.6750 O   0  0  0  0  0  1  0  0  0  0  0  0
  183.0400  177.5190  137.4340 N   0  0  1  0  0  0  0  0  0  0  0  0
  184.8830  174.3100  137.0820 C   0  0  2  0  0  3  0  0  0  0  0  0
  181.2150  171.6640  137.1950 O   0  0  0  0  0  0  0  0  0  0  0  0
  181.5400  176.9490  139.3760 C   0  0  0  0  0  2  0  0  0  0  0  0
  188.2910  175.4800  135.1560 C   0  0  0  0  0  2  0  0  0  0  0  0
  182.3190  170.3930  135.5540 C   0  0  0  0  0  2  0  0  0  0  0  0
  182.2790  171.3930  136.6630 C   0  0  0  0  0  0  0  0  0  0  0  0
  184.1770  177.5980  138.3440 C   0  0  2  0  0  3  0  0  0  0  0  0
  185.1670  179.1040  140.1690 C   0  0  0  0  0  2  0  0  0  0  0  0
  182.0620  174.4050  135.5840 C   0  0  0  0  0  2  0  0  0  0  0  0
  187.3530  178.5330  137.2890 C   0  0  2  0  0  3  0  0  0  0  0  0
  181.1040  176.5600  135.6760 O   0  0  0  0  0  1  0  0  0  0  0  0
  184.4160  179.0280  138.8510 C   0  0  2  0  0  3  0  0  0  0  0  0
  188.5980  174.4200  136.2420 C   0  0  2  0  0  3  0  0  0  0  0  0
  186.2100  173.8200  136.5240 C   0  0  1  0  0  3  0  0  0  0  0  0
  182.3300  175.8930  135.6790 C   0  0  1  0  0  3  0  0  0  0  0  0
  185.3330  176.8100  137.6920 C   0  0  2  0  0  3  0  0  0  0  0  0
  181.6600  177.8300  140.6080 C   0  0  0  0  0  2  0  0  0  0  0  0
  183.8860  173.3380  136.4140 C   0  0  1  0  0  0  0  0  0  0  0  0
  183.6740  179.2960  140.1800 C   0  0  1  0  0  3  0  0  0  0  0  0
  187.4570  174.2690  137.2540 C   0  0  0  0  0  2  0  0  0  0  0  0
  183.0620  171.0020  134.3820 C   0  0  0  0  0  2  0  0  0  0  0  0
  186.2200  177.6370  136.7420 C   0  0  2  0  0  3  0  0  0  0  0  0
  183.2350  173.7340  135.2270 O   0  0  0  0  0  0  0  0  0  0  0  0
  189.9210  174.6700  136.9550 C   0  0  0  0  0  2  0  0  0  0  0  0
  190.9310  173.5980  136.5880 C   0  0  0  0  0  1  0  0  0  0  0  0
  1  5  1  6  0  0  0
  1 22  1  0  0  0  0
  2  6  1  0  0  0  0
  4 12  1  0  0  0  0
  6 30  1  0  0  0  0
  6  7  1  0  0  0  0
  6  8  1  0  0  0  0
  9 15  1  0  0  0  0
 10  4  1  0  0  0  0
 10 13  1  0  0  0  0
 10 28  1  0  0  0  0
 12  9  1  0  0  0  0
 12 19  1  0  0  0  0
 15 29  1  0  0  0  0
 16  5  1  0  0  0  0
 16 25  1  0  0  0  0
 17 18  1  0  0  0  0
 18  8  1  0  0  0  0
 18 14  2  0  0  0  0
 19 24  1  0  0  0  0
 20 31  1  0  0  0  0
 21 27  1  0  0  0  0
 22 11  1  0  0  0  0
 23 27  1  0  0  0  0
 24 20  1  0  0  0  0
 24 31  1  0  0  0  0
 25 36  1  0  0  0  0
 25 32  1  0  0  0  0
 26  7  1  0  0  0  0
 26 13  1  0  0  0  0
 26 32  1  0  0  0  0
 27  4  1  0  0  0  0
 28 19  1  0  0  0  0
 29  3  1  0  0  0  0
 30 13  1  0  0  0  0
 30  8  1  0  0  0  0
 31  3  1  0  0  0  0
 33  2  1  0  0  0  0
 33 17  1  0  0  0  0
 34  1  1  0  0  0  0
 34 22  1  0  0  0  0
 34 28  1  0  0  0  0
 35 21  1  0  0  0  0
 35 30  1  0  0  0  0
 37 36  1  0  0  0  0
M  END
>  <MODEL>
4

>  <REMARK>
 VINA RESULT:      -6.6      2.496      3.856
  Name = 
  1 active torsions:
  status: ('A' for Active; 'I' for Inactive)
    1  A    between atoms: C_11  and  C_26
                            x       y       z     vdW  Elec       q    Type
                         _______ _______ _______ _____ _____    ______ ____

>  <TORSDO>
F 1

$$$$
=
 OpenBabel10272414463D

 37 45  0  0  1  0  0  0  0  0999 V2000
  187.8180  177.1080  137.2840 C   0  0  1  0  0  3  0  0  0  0  0  0
  182.6100  173.5370  134.4760 C   0  0  0  0  0  2  0  0  0  0  0  0
  184.4900  178.0950  142.3090 C   0  0  0  0  0  2  0  0  0  0  0  0
  183.2870  177.5900  138.0900 C   0  0  1  0  0  3  0  0  0  0  0  0
  188.2640  177.1600  135.8410 C   0  0  0  0  0  2  0  0  0  0  0  0
  183.1910  173.7020  135.9000 C   0  0  2  0  0  0  0  0  0  0  0  0
  184.6560  173.3760  136.0610 C   0  0  0  0  0  2  0  0  0  0  0  0
  182.2700  173.7050  137.1200 C   0  0  2  0  0  3  0  0  0  0  0  0
  182.7760  179.1190  139.8820 C   0  0  0  0  0  2  0  0  0  0  0  0
  184.5200  176.8980  137.5000 C   0  0  2  0  0  3  0  0  0  0  0  0
  188.3470  177.9970  139.3580 O   0  0  0  0  0  1  0  0  0  0  0  0
  183.7780  178.7080  138.8830 N   0  0  1  0  0  0  0  0  0  0  0  0
  184.3050  175.3750  137.3250 C   0  0  2  0  0  3  0  0  0  0  0  0
  179.9820  174.0640  137.5790 O   0  0  0  0  0  0  0  0  0  0  0  0
  182.4270  178.0360  140.9010 C   0  0  0  0  0  2  0  0  0  0  0  0
  187.6380  176.0050  135.0470 C   0  0  0  0  0  2  0  0  0  0  0  0
  180.3500  173.1030  135.4660 C   0  0  0  0  0  2  0  0  0  0  0  0
  180.8060  173.6660  136.7720 C   0  0  0  0  0  0  0  0  0  0  0  0
  184.9730  178.1500  139.5050 C   0  0  2  0  0  3  0  0  0  0  0  0
  186.6510  178.6320  141.3830 C   0  0  0  0  0  2  0  0  0  0  0  0
  181.5370  176.7830  136.5690 C   0  0  0  0  0  2  0  0  0  0  0  0
  188.1160  178.3650  138.0390 C   0  0  2  0  0  3  0  0  0  0  0  0
  181.4240  178.9820  137.4180 O   0  0  0  0  0  1  0  0  0  0  0  0
  185.7630  179.2050  140.2920 C   0  0  2  0  0  3  0  0  0  0  0  0
  187.6820  174.6160  135.7320 C   0  0  2  0  0  3  0  0  0  0  0  0
  185.2910  174.7090  136.3780 C   0  0  1  0  0  3  0  0  0  0  0  0
  182.3250  178.0110  136.9770 C   0  0  1  0  0  3  0  0  0  0  0  0
  185.6830  177.2970  138.4330 C   0  0  2  0  0  3  0  0  0  0  0  0
  183.0040  178.4060  142.2570 C   0  0  0  0  0  2  0  0  0  0  0  0
  182.9530  175.0110  136.6730 C   0  0  1  0  0  0  0  0  0  0  0  0
  185.3370  179.2520  141.7770 C   0  0  1  0  0  3  0  0  0  0  0  0
  186.6980  174.5070  136.9010 C   0  0  0  0  0  2  0  0  0  0  0  0
  181.1090  173.7960  134.3510 C   0  0  0  0  0  2  0  0  0  0  0  0
  186.6800  178.0720  137.5510 C   0  0  2  0  0  3  0  0  0  0  0  0
  182.3420  175.9370  135.8010 O   0  0  0  0  0  0  0  0  0  0  0  0
  189.0850  174.2180  136.1700 C   0  0  0  0  0  2  0  0  0  0  0  0
  189.9860  174.0370  134.9620 C   0  0  0  0  0  1  0  0  0  0  0  0
  1  5  1  6  0  0  0
  1 34  1  0  0  0  0
  1 22  1  0  0  0  0
  2  6  1  0  0  0  0
  4 12  1  0  0  0  0
  6  7  1  0  0  0  0
  6 30  1  0  0  0  0
  6  8  1  0  0  0  0
  7 26  1  0  0  0  0
  9 15  1  0  0  0  0
 10  4  1  0  0  0  0
 10 28  1  0  0  0  0
 12 19  1  0  0  0  0
 12  9  1  0  0  0  0
 13 10  1  0  0  0  0
 15 29  1  0  0  0  0
 16 25  1  0  0  0  0
 16  5  1  0  0  0  0
 17 18  1  0  0  0  0
 18  8  1  0  0  0  0
 18 14  2  0  0  0  0
 19 24  1  0  0  0  0
 20 31  1  0  0  0  0
 21 27  1  0  0  0  0
 22 11  1  0  0  0  0
 24 20  1  0  0  0  0
 24 31  1  0  0  0  0
 25 36  1  0  0  0  0
 25 32  1  0  0  0  0
 26 32  1  0  0  0  0
 26 13  1  0  0  0  0
 27 23  1  0  0  0  0
 27  4  1  0  0  0  0
 28 19  1  0  0  0  0
 29  3  1  0  0  0  0
 30  8  1  0  0  0  0
 30 13  1  0  0  0  0
 31  3  1  0  0  0  0
 33  2  1  0  0  0  0
 33 17  1  0  0  0  0
 34 22  1  0  0  0  0
 34 28  1  0  0  0  0
 35 21  1  0  0  0  0
 35 30  1  0  0  0  0
 37 36  1  0  0  0  0
M  END
>  <MODEL>
5

>  <REMARK>
 VINA RESULT:      -5.6      1.605      2.221
  Name = 
  1 active torsions:
  status: ('A' for Active; 'I' for Inactive)
    1  A    between atoms: C_11  and  C_26
                            x       y       z     vdW  Elec       q    Type
                         _______ _______ _______ _____ _____    ______ ____

>  <TORSDO>
F 1

$$$$
=
 OpenBabel10272414463D

 37 45  0  0  1  0  0  0  0  0999 V2000
  189.5570  172.8580  135.7160 C   0  0  1  0  0  3  0  0  0  0  0  0
  182.6860  173.6000  135.8340 C   0  0  0  0  0  2  0  0  0  0  0  0
  190.1310  177.0730  140.0990 C   0  0  0  0  0  2  0  0  0  0  0  0
  187.1270  176.6170  136.8930 C   0  0  1  0  0  3  0  0  0  0  0  0
  189.2420  172.2330  134.3760 C   0  0  0  0  0  2  0  0  0  0  0  0
  183.8150  173.6240  136.8900 C   0  0  2  0  0  0  0  0  0  0  0  0
  184.6900  172.3970  136.9550 C   0  0  0  0  0  2  0  0  0  0  0  0
  183.7400  174.5740  138.0870 C   0  0  2  0  0  3  0  0  0  0  0  0
  188.4750  178.4060  137.7840 C   0  0  0  0  0  2  0  0  0  0  0  0
  187.2950  175.1400  136.5220 C   0  0  2  0  0  3  0  0  0  0  0  0
  191.3640  173.5470  136.9930 O   0  0  0  0  0  1  0  0  0  0  0  0
  188.4670  177.1830  136.9610 N   0  0  1  0  0  0  0  0  0  0  0  0
  186.1840  174.2550  137.1390 C   0  0  2  0  0  3  0  0  0  0  0  0
  182.6040  176.5600  138.6700 O   0  0  0  0  0  0  0  0  0  0  0  0
  188.0660  178.1860  139.2380 C   0  0  0  0  0  2  0  0  0  0  0  0
  187.7880  171.7400  134.3460 C   0  0  0  0  0  2  0  0  0  0  0  0
  181.3460  175.1700  137.2520 C   0  0  0  0  0  2  0  0  0  0  0  0
  182.5690  175.5180  138.0360 C   0  0  0  0  0  0  0  0  0  0  0  0
  189.2310  176.1050  137.5780 C   0  0  2  0  0  3  0  0  0  0  0  0
  191.4930  175.6560  138.7010 C   0  0  0  0  0  2  0  0  0  0  0  0
  184.7890  176.9870  136.2460 C   0  0  0  0  0  2  0  0  0  0  0  0
  190.8290  173.6450  135.7150 C   0  0  2  0  0  3  0  0  0  0  0  0
  186.3730  178.7090  135.9380 O   0  0  0  0  0  1  0  0  0  0  0  0
  190.7350  176.4130  137.6240 C   0  0  2  0  0  3  0  0  0  0  0  0
  187.3170  170.9590  135.5980 C   0  0  2  0  0  3  0  0  0  0  0  0
  186.0400  172.8880  136.4870 C   0  0  1  0  0  3  0  0  0  0  0  0
  186.2200  177.3220  135.8830 C   0  0  1  0  0  3  0  0  0  0  0  0
  188.7350  174.7840  136.9520 C   0  0  2  0  0  3  0  0  0  0  0  0
  189.2810  178.3310  140.1380 C   0  0  0  0  0  2  0  0  0  0  0  0
  184.7630  174.8340  136.9650 C   0  0  1  0  0  0  0  0  0  0  0  0
  191.1400  177.0980  138.9490 C   0  0  1  0  0  3  0  0  0  0  0  0
  187.1100  171.8680  136.8140 C   0  0  0  0  0  2  0  0  0  0  0  0
  181.7640  174.8180  135.8380 C   0  0  0  0  0  2  0  0  0  0  0  0
  189.4660  174.3700  135.6610 C   0  0  2  0  0  3  0  0  0  0  0  0
  184.4970  175.6750  135.8640 O   0  0  0  0  0  0  0  0  0  0  0  0
  188.2330  169.7930  135.9460 C   0  0  0  0  0  2  0  0  0  0  0  0
  187.8090  168.5440  135.1950 C   0  0  0  0  0  1  0  0  0  0  0  0
  1  5  1  6  0  0  0
  2 33  1  0  0  0  0
  2  6  1  0  0  0  0
  3 29  1  0  0  0  0
  4 12  1  0  0  0  0
  6  7  1  0  0  0  0
  6 30  1  0  0  0  0
  6  8  1  0  0  0  0
  9 15  1  0  0  0  0
 10  4  1  0  0  0  0
 10 28  1  0  0  0  0
 10 13  1  0  0  0  0
 12 19  1  0  0  0  0
 12  9  1  0  0  0  0
 15 29  1  0  0  0  0
 16  5  1  0  0  0  0
 16 25  1  0  0  0  0
 17 18  1  0  0  0  0
 18  8  1  0  0  0  0
 18 14  2  0  0  0  0
 19 24  1  0  0  0  0
 20 31  1  0  0  0  0
 22  1  1  0  0  0  0
 22 11  1  0  0  0  0
 24 20  1  0  0  0  0
 24 31  1  0  0  0  0
 25 36  1  0  0  0  0
 25 32  1  0  0  0  0
 26 32  1  0  0  0  0
 26  7  1  0  0  0  0
 26 13  1  0  0  0  0
 27 23  1  0  0  0  0
 27 21  1  0  0  0  0
 27  4  1  0  0  0  0
 28 19  1  0  0  0  0
 30 13  1  0  0  0  0
 30  8  1  0  0  0  0
 31  3  1  0  0  0  0
 33 17  1  0  0  0  0
 34 22  1  0  0  0  0
 34  1  1  0  0  0  0
 34 28  1  0  0  0  0
 35 21  1  0  0  0  0
 35 30  1  0  0  0  0
 37 36  1  0  0  0  0
M  END
>  <MODEL>
6

>  <REMARK>
 VINA RESULT:      -5.6      2.357      3.794
  Name = 
  1 active torsions:
  status: ('A' for Active; 'I' for Inactive)
    1  A    between atoms: C_11  and  C_26
                            x       y       z     vdW  Elec       q    Type
                         _______ _______ _______ _____ _____    ______ ____

>  <TORSDO>
F 1

$$$$
=
 OpenBabel10272414463D

 37 45  0  0  1  0  0  0  0  0999 V2000
  185.8050  178.3670  139.6900 C   0  0  1  0  0  3  0  0  0  0  0  0
  189.8040  177.9410  145.3120 C   0  0  0  0  0  2  0  0  0  0  0  0
  189.0950  174.0020  136.9660 C   0  0  0  0  0  2  0  0  0  0  0  0
  190.2420  177.0710  139.9270 C   0  0  1  0  0  3  0  0  0  0  0  0
  185.4470  179.6930  140.3200 C   0  0  0  0  0  2  0  0  0  0  0  0
  189.2480  176.9360  144.2750 C   0  0  2  0  0  0  0  0  0  0  0  0
  187.7480  176.9130  144.1100 C   0  0  0  0  0  2  0  0  0  0  0  0
  190.0840  175.7340  143.8320 C   0  0  2  0  0  3  0  0  0  0  0  0
  191.1220  176.2370  137.8430 C   0  0  0  0  0  2  0  0  0  0  0  0
  188.8800  177.4540  140.5160 C   0  0  2  0  0  3  0  0  0  0  0  0
  185.4930  177.1700  137.7300 O   0  0  0  0  0  1  0  0  0  0  0  0
  190.0800  177.0610  138.4800 N   0  0  1  0  0  0  0  0  0  0  0  0
  188.6360  176.7910  141.8940 C   0  0  2  0  0  3  0  0  0  0  0  0
  192.3570  175.0950  143.8290 O   0  0  0  0  0  0  0  0  0  0  0  0
  191.0950  174.7670  138.2530 C   0  0  0  0  0  2  0  0  0  0  0  0
  185.7270  179.6600  141.8290 C   0  0  0  0  0  2  0  0  0  0  0  0
  191.7930  176.4590  145.6590 C   0  0  0  0  0  2  0  0  0  0  0  0
  191.4800  175.7300  144.3930 C   0  0  0  0  0  0  0  0  0  0  0  0
  188.7510  176.4820  138.3170 C   0  0  2  0  0  3  0  0  0  0  0  0
  187.2280  175.4630  136.5230 C   0  0  0  0  0  2  0  0  0  0  0  0
  191.7230  177.6120  141.8070 C   0  0  0  0  0  2  0  0  0  0  0  0
  185.8710  178.4220  138.1970 C   0  0  2  0  0  3  0  0  0  0  0  0
  192.4580  177.9860  139.5960 O   0  0  0  0  0  1  0  0  0  0  0  0
  188.2850  176.5030  136.8540 C   0  0  2  0  0  3  0  0  0  0  0  0
  185.2450  178.3910  142.5750 C   0  0  2  0  0  3  0  0  0  0  0  0
  187.5300  177.4400  142.7120 C   0  0  1  0  0  3  0  0  0  0  0  0
  191.3250  178.0380  140.4090 C   0  0  1  0  0  3  0  0  0  0  0  0
  187.8570  177.0900  139.4180 C   0  0  2  0  0  3  0  0  0  0  0  0
  190.6060  173.9210  137.0900 C   0  0  0  0  0  2  0  0  0  0  0  0
  189.8390  176.9000  142.8560 C   0  0  1  0  0  0  0  0  0  0  0  0
  188.6520  175.1950  136.1170 C   0  0  1  0  0  3  0  0  0  0  0  0
  186.1100  177.1640  142.2650 C   0  0  0  0  0  2  0  0  0  0  0  0
  191.3170  177.8920  145.5200 C   0  0  0  0  0  2  0  0  0  0  0  0
  187.1690  178.4130  139.0320 C   0  0  2  0  0  3  0  0  0  0  0  0
  190.7300  177.9850  142.7170 O   0  0  0  0  0  0  0  0  0  0  0  0
  183.7730  178.0880  142.3340 C   0  0  0  0  0  2  0  0  0  0  0  0
  182.9110  178.7880  143.3670 C   0  0  0  0  0  1  0  0  0  0  0  0
  1  5  1  1  0  0  0
  2 33  1  0  0  0  0
  3 29  1  0  0  0  0
  4 27  1  0  0  0  0
  4 10  1  0  0  0  0
  5 16  1  0  0  0  0
  6  2  1  0  0  0  0
  7  6  1  0  0  0  0
  8  6  1  0  0  0  0
  8 18  1  0  0  0  0
  9 15  1  0  0  0  0
  9 12  1  0  0  0  0
 10 13  1  0  0  0  0
 11 22  1  0  0  0  0
 12  4  1  0  0  0  0
 13 26  1  0  0  0  0
 13 30  1  0  0  0  0
 14 18  2  0  0  0  0
 16 25  1  0  0  0  0
 18 17  1  0  0  0  0
 19 12  1  0  0  0  0
 19 28  1  0  0  0  0
 20 24  1  0  0  0  0
 21 35  1  0  0  0  0
 22 34  1  0  0  0  0
 22  1  1  0  0  0  0
 23 27  1  0  0  0  0
 24 19  1  0  0  0  0
 26  7  1  0  0  0  0
 27 21  1  0  0  0  0
 28 10  1  0  0  0  0
 29 15  1  0  0  0  0
 30  8  1  0  0  0  0
 30  6  1  0  0  0  0
 31 20  1  0  0  0  0
 31 24  1  0  0  0  0
 31  3  1  0  0  0  0
 32 25  1  0  0  0  0
 32 26  1  0  0  0  0
 33 17  1  0  0  0  0
 34 28  1  0  0  0  0
 34  1  1  0  0  0  0
 35 30  1  0  0  0  0
 36 25  1  0  0  0  0
 36 37  1  0  0  0  0
M  END
>  <MODEL>
7

>  <REMARK>
 VINA RESULT:      -4.7      2.921      8.308
  Name = 
  1 active torsions:
  status: ('A' for Active; 'I' for Inactive)
    1  A    between atoms: C_11  and  C_26
                            x       y       z     vdW  Elec       q    Type
                         _______ _______ _______ _____ _____    ______ ____

>  <TORSDO>
F 1

$$$$
=
 OpenBabel10272414463D

 37 45  0  0  1  0  0  0  0  0999 V2000
  188.5960  177.4360  135.8920 C   0  0  1  0  0  3  0  0  0  0  0  0
  189.2390  178.5130  142.6890 C   0  0  0  0  0  2  0  0  0  0  0  0
  192.5430  172.7860  136.2110 C   0  0  0  0  0  2  0  0  0  0  0  0
  192.2440  176.5010  138.5820 C   0  0  1  0  0  3  0  0  0  0  0  0
  188.0500  178.8440  135.9480 C   0  0  0  0  0  2  0  0  0  0  0  0
  189.2150  177.2710  141.7670 C   0  0  2  0  0  0  0  0  0  0  0  0
  187.9970  177.1200  140.8890 C   0  0  0  0  0  2  0  0  0  0  0  0
  190.0880  176.0550  142.0780 C   0  0  2  0  0  3  0  0  0  0  0  0
  193.9930  175.2810  137.4560 C   0  0  0  0  0  2  0  0  0  0  0  0
  190.7950  176.9200  138.3140 C   0  0  2  0  0  3  0  0  0  0  0  0
  189.2300  175.8170  134.3590 O   0  0  0  0  0  1  0  0  0  0  0  0
  192.8220  176.1600  137.2890 N   0  0  1  0  0  0  0  0  0  0  0  0
  189.8600  176.5650  139.4970 C   0  0  2  0  0  3  0  0  0  0  0  0
  192.0200  175.5720  143.3460 O   0  0  0  0  0  0  0  0  0  0  0  0
  193.6800  173.9400  138.1140 C   0  0  0  0  0  2  0  0  0  0  0  0
  187.5400  179.1630  137.3600 C   0  0  0  0  0  2  0  0  0  0  0  0
  190.7030  177.2710  144.2970 C   0  0  0  0  0  2  0  0  0  0  0  0
  191.0190  176.2610  143.2420 C   0  0  0  0  0  0  0  0  0  0  0  0
  191.7190  175.4790  136.6220 C   0  0  2  0  0  3  0  0  0  0  0  0
  191.2320  173.9960  134.5870 C   0  0  0  0  0  2  0  0  0  0  0  0
  192.6230  177.5350  140.7740 C   0  0  0  0  0  2  0  0  0  0  0  0
  189.3980  177.1630  134.6590 C   0  0  2  0  0  3  0  0  0  0  0  0
  194.3800  177.4540  139.2010 O   0  0  0  0  0  1  0  0  0  0  0  0
  192.0430  175.1460  135.1580 C   0  0  2  0  0  3  0  0  0  0  0  0
  186.6780  178.0640  138.0290 C   0  0  2  0  0  3  0  0  0  0  0  0
  188.5330  177.3090  139.4890 C   0  0  1  0  0  3  0  0  0  0  0  0
  192.9980  177.6160  139.3090 C   0  0  1  0  0  3  0  0  0  0  0  0
  190.4330  176.2590  136.9670 C   0  0  2  0  0  3  0  0  0  0  0  0
  193.7850  172.8290  137.0830 C   0  0  0  0  0  2  0  0  0  0  0  0
  190.4300  176.9580  140.8770 C   0  0  1  0  0  0  0  0  0  0  0  0
  192.6510  173.7330  135.0130 C   0  0  1  0  0  3  0  0  0  0  0  0
  187.5100  176.8550  138.4710 C   0  0  0  0  0  2  0  0  0  0  0  0
  190.4430  178.6040  143.6260 C   0  0  0  0  0  2  0  0  0  0  0  0
  190.1070  177.4190  136.0070 C   0  0  2  0  0  3  0  0  0  0  0  0
  191.3330  178.0380  140.9620 O   0  0  0  0  0  0  0  0  0  0  0  0
  185.5060  177.6240  137.1630 C   0  0  0  0  0  2  0  0  0  0  0  0
  185.4760  176.1120  137.0400 C   0  0  0  0  0  1  0  0  0  0  0  0
  1  5  1  6  0  0  0
  1 34  1  0  0  0  0
  2 33  1  0  0  0  0
  3 29  1  0  0  0  0
  4 27  1  0  0  0  0
  5 16  1  0  0  0  0
  6  8  1  0  0  0  0
  6  2  1  0  0  0  0
  7  6  1  0  0  0  0
  8 18  1  0  0  0  0
  9 15  1  0  0  0  0
 10  4  1  0  0  0  0
 10 13  1  0  0  0  0
 11 22  1  0  0  0  0
 12  9  1  0  0  0  0
 12  4  1  0  0  0  0
 13 30  1  0  0  0  0
 16 25  1  0  0  0  0
 18 14  2  0  0  0  0
 18 17  1  0  0  0  0
 19 28  1  0  0  0  0
 19 12  1  0  0  0  0
 20 31  1  0  0  0  0
 20 24  1  0  0  0  0
 21 35  1  0  0  0  0
 22  1  1  0  0  0  0
 22 34  1  0  0  0  0
 23 27  1  0  0  0  0
 24 19  1  0  0  0  0
 25 32  1  0  0  0  0
 26 13  1  0  0  0  0
 26  7  1  0  0  0  0
 27 21  1  0  0  0  0
 28 10  1  0  0  0  0
 29 15  1  0  0  0  0
 30 35  1  0  0  0  0
 30  6  1  0  0  0  0
 30  8  1  0  0  0  0
 31 24  1  0  0  0  0
 31  3  1  0  0  0  0
 32 26  1  0  0  0  0
 33 17  1  0  0  0  0
 34 28  1  0  0  0  0
 36 25  1  0  0  0  0
 37 36  1  0  0  0  0
M  END
>  <MODEL>
8

>  <REMARK>
 VINA RESULT:      -4.7      3.574      7.980
  Name = 
  1 active torsions:
  status: ('A' for Active; 'I' for Inactive)
    1  A    between atoms: C_11  and  C_26
                            x       y       z     vdW  Elec       q    Type
                         _______ _______ _______ _____ _____    ______ ____

>  <TORSDO>
F 1

$$$$
=
 OpenBabel10272414463D

 37 45  0  0  1  0  0  0  0  0999 V2000
  186.3240  172.3930  135.3050 C   0  0  1  0  0  3  0  0  0  0  0  0
  182.0080  177.2750  137.6090 C   0  0  0  0  0  2  0  0  0  0  0  0
  191.0070  175.1610  138.0820 C   0  0  0  0  0  2  0  0  0  0  0  0
  187.3050  176.8010  136.3180 C   0  0  1  0  0  3  0  0  0  0  0  0
  185.1810  172.1510  134.3460 C   0  0  0  0  0  2  0  0  0  0  0  0
  183.2530  176.5490  138.1720 C   0  0  2  0  0  0  0  0  0  0  0  0
  183.1770  175.0430  138.2210 C   0  0  0  0  0  2  0  0  0  0  0  0
  184.2520  177.2940  139.0580 C   0  0  2  0  0  3  0  0  0  0  0  0
  189.6580  177.3160  136.2340 C   0  0  0  0  0  2  0  0  0  0  0  0
  186.4090  175.5580  136.2750 C   0  0  2  0  0  3  0  0  0  0  0  0
  188.5210  171.7520  135.6760 O   0  0  0  0  0  1  0  0  0  0  0  0
  188.5980  176.3980  135.7820 N   0  0  1  0  0  0  0  0  0  0  0  0
  185.3770  175.5460  137.4290 C   0  0  2  0  0  3  0  0  0  0  0  0
  184.8580  179.5310  139.5070 O   0  0  0  0  0  0  0  0  0  0  0  0
  189.8520  177.3520  137.7480 C   0  0  0  0  0  2  0  0  0  0  0  0
  183.8670  172.6790  134.9380 C   0  0  0  0  0  2  0  0  0  0  0  0
  182.5780  179.2880  138.9850 C   0  0  0  0  0  2  0  0  0  0  0  0
  183.9620  178.7640  139.1910 C   0  0  0  0  0  0  0  0  0  0  0  0
  188.7630  175.0590  136.3350 C   0  0  2  0  0  3  0  0  0  0  0  0
  190.5500  173.2520  136.6800 C   0  0  0  0  0  2  0  0  0  0  0  0
  185.6170  178.5780  136.4500 C   0  0  0  0  0  2  0  0  0  0  0  0
  187.6690  172.2070  134.6780 C   0  0  2  0  0  3  0  0  0  0  0  0
  187.5950  178.9340  135.2130 O   0  0  0  0  0  1  0  0  0  0  0  0
  190.0110  174.3540  135.7840 C   0  0  2  0  0  3  0  0  0  0  0  0
  183.6070  172.3240  136.4230 C   0  0  2  0  0  3  0  0  0  0  0  0
  184.2090  174.5950  137.2130 C   0  0  1  0  0  3  0  0  0  0  0  0
  186.6600  177.9530  135.5460 C   0  0  1  0  0  3  0  0  0  0  0  0
  187.3870  174.3640  136.2520 C   0  0  2  0  0  3  0  0  0  0  0  0
  191.1610  176.6710  138.1110 C   0  0  0  0  0  2  0  0  0  0  0  0
  184.6480  176.8940  137.6240 C   0  0  1  0  0  0  0  0  0  0  0  0
  191.2450  174.5870  136.6840 C   0  0  1  0  0  3  0  0  0  0  0  0
  184.5000  173.1190  137.3820 C   0  0  0  0  0  2  0  0  0  0  0  0
  182.0740  178.8010  137.6410 C   0  0  0  0  0  2  0  0  0  0  0  0
  187.1170  173.6270  134.9260 C   0  0  2  0  0  3  0  0  0  0  0  0
  184.4910  177.7530  136.5160 O   0  0  0  0  0  0  0  0  0  0  0  0
  183.7150  170.8300  136.7010 C   0  0  0  0  0  2  0  0  0  0  0  0
  182.7540  170.0570  135.8170 C   0  0  0  0  0  1  0  0  0  0  0  0
  1  5  1  6  0  0  0
  2 33  1  0  0  0  0
  2  6  1  0  0  0  0
  3 29  1  0  0  0  0
  5 16  1  0  0  0  0
  6  7  1  0  0  0  0
  6  8  1  0  0  0  0
  8 18  1  0  0  0  0
  9 15  1  0  0  0  0
 10  4  1  0  0  0  0
 10 13  1  0  0  0  0
 12  9  1  0  0  0  0
 12  4  1  0  0  0  0
 12 19  1  0  0  0  0
 13 30  1  0  0  0  0
 15 29  1  0  0  0  0
 16 25  1  0  0  0  0
 17 18  1  0  0  0  0
 18 14  2  0  0  0  0
 20 31  1  0  0  0  0
 21 35  1  0  0  0  0
 22 34  1  0  0  0  0
 22  1  1  0  0  0  0
 22 11  1  0  0  0  0
 23 27  1  0  0  0  0
 24 19  1  0  0  0  0
 24 20  1  0  0  0  0
 24 31  1  0  0  0  0
 25 36  1  0  0  0  0
 25 32  1  0  0  0  0
 26 32  1  0  0  0  0
 26 13  1  0  0  0  0
 26  7  1  0  0  0  0
 27  4  1  0  0  0  0
 27 21  1  0  0  0  0
 28 10  1  0  0  0  0
 28 19  1  0  0  0  0
 30  6  1  0  0  0  0
 30  8  1  0  0  0  0
 31  3  1  0  0  0  0
 33 17  1  0  0  0  0
 34  1  1  0  0  0  0
 34 28  1  0  0  0  0
 35 30  1  0  0  0  0
 37 36  1  0  0  0  0
M  END
>  <MODEL>
9

>  <REMARK>
 VINA RESULT:      -4.6      2.651      5.139
  Name = 
  1 active torsions:
  status: ('A' for Active; 'I' for Inactive)
    1  A    between atoms: C_11  and  C_26
                            x       y       z     vdW  Elec       q    Type
                         _______ _______ _______ _____ _____    ______ ____

>  <TORSDO>
F 1

$$$$
