=
 OpenBabel10272414433D

 43 47  0  0  1  0  0  0  0  0999 V2000
  187.6080  176.5320  136.6260 N   0  0  0  0  0  0  0  0  0  0  0  0
  186.4900  178.5080  137.3150 C   0  0  2  0  0  3  0  0  0  0  0  0
  186.1780  177.6060  135.1350 O   0  0  0  0  0  1  0  0  0  0  0  0
  186.3560  177.2500  136.4730 C   0  0  1  0  0  3  0  0  0  0  0  0
  187.8480  175.2660  135.9830 C   0  0  0  0  0  0  0  0  0  0  0  0
  186.8660  174.5520  135.6460 O   0  0  0  0  0  0  0  0  0  0  0  0
  188.5700  177.2350  137.4640 C   0  0  1  0  0  3  0  0  0  0  0  0
  187.9700  178.6110  137.6830 C   0  0  0  0  0  2  0  0  0  0  0  0
  191.8250  173.9460  135.0700 C   0  0  0  0  0  0  0  0  0  0  0  0
  189.8110  173.7400  136.4040 C   0  0  0  0  0  0  0  0  0  0  0  0
  191.2430  174.9880  134.3460 C   0  0  0  0  0  3  0  0  0  0  0  0
  193.4550  173.4300  134.7030 Cl  0  0  0  0  0  0  0  0  0  0  0  0
  189.2190  174.7980  135.6820 C   0  0  0  0  0  0  0  0  0  0  0  0
  191.1100  173.3240  136.0960 C   0  0  0  0  0  3  0  0  0  0  0  0
  189.9470  175.4100  134.6500 C   0  0  0  0  0  3  0  0  0  0  0  0
  189.1300  173.1100  137.4390 O   0  0  0  0  0  1  0  0  0  0  0  0
  185.6050  178.4100  138.5270 C   0  0  0  0  0  0  0  0  0  0  0  0
  186.0460  178.9830  139.7590 N   0  0  0  0  0  2  0  0  0  0  0  0
  184.5030  177.7970  138.4740 O   0  0  0  0  0  0  0  0  0  0  0  0
  185.2310  178.9680  140.9600 C   0  0  0  0  0  2  0  0  0  0  0  0
  185.5800  177.7440  141.7830 C   0  0  0  0  0  2  0  0  0  0  0  0
  185.6910  178.1000  143.2310 C   0  0  0  0  0  0  0  0  0  0  0  0
  186.7580  177.9140  145.4050 C   0  0  0  0  0  3  0  0  0  0  0  0
  184.7500  178.9780  143.7800 C   0  0  0  0  0  3  0  0  0  0  0  0
  184.8100  179.3210  145.1330 C   0  0  0  0  0  3  0  0  0  0  0  0
  186.7120  177.5710  144.0480 C   0  0  0  0  0  0  0  0  0  0  0  0
  185.8110  178.7870  145.9460 C   0  0  0  0  0  3  0  0  0  0  0  0
  187.7540  176.6470  143.4910 C   0  0  0  0  0  2  0  0  0  0  0  0
  189.1290  177.1450  143.7950 C   0  0  0  0  0  0  0  0  0  0  0  0
  191.7010  178.0500  144.3070 C   0  0  0  0  0  3  0  0  0  0  0  0
  191.3890  176.6910  144.3690 C   0  0  0  0  0  3  0  0  0  0  0  0
  190.7000  178.9650  143.9820 C   0  0  0  0  0  3  0  0  0  0  0  0
  190.1210  176.2700  144.1140 N   0  0  0  0  0  0  0  0  0  0  0  0
  189.4040  178.5130  143.7220 C   0  0  0  0  0  3  0  0  0  0  0  0
  188.7050  176.5500  138.8220 C   0  0  0  0  0  2  0  0  0  0  0  0
  192.5340  176.3080  138.4260 C   0  0  1  0  0  3  0  0  0  0  0  0
  192.8970  177.1850  139.6010 C   0  0  0  0  0  0  0  0  0  0  0  0
  193.9930  177.7180  139.6800 O   0  0  0  0  0  0  0  0  0  0  0  0
  190.5150  177.4870  140.2500 C   0  0  0  0  0  2  0  0  0  0  0  0
  191.0770  176.5270  138.0220 C   0  0  0  0  0  2  0  0  0  0  0  0
  190.1580  176.4050  139.2380 C   0  0  2  0  0  3  0  0  0  0  0  0
  193.4270  176.5580  137.2220 C   0  0  0  0  0  1  0  0  0  0  0  0
  191.9430  177.2910  140.7550 C   0  0  0  0  0  2  0  0  0  0  0  0
  1  7  1  0  0  0  0
  2  8  1  0  0  0  0
  2 17  1  1  0  0  0
  4  3  1  6  0  0  0
  4  1  1  0  0  0  0
  4  2  1  0  0  0  0
  5  1  1  0  0  0  0
  6  5  2  0  0  0  0
  7  8  1  0  0  0  0
  7 35  1  1  0  0  0
  9 14  1  0  0  0  0
 10 16  1  0  0  0  0
 11 15  1  0  0  0  0
 11  9  2  0  0  0  0
 12  9  1  0  0  0  0
 13  5  1  0  0  0  0
 13 10  1  0  0  0  0
 14 10  2  0  0  0  0
 15 13  2  0  0  0  0
 17 18  1  0  0  0  0
 18 20  1  0  0  0  0
 19 17  2  0  0  0  0
 20 21  1  0  0  0  0
 21 22  1  0  0  0  0
 22 24  2  0  0  0  0
 22 26  1  0  0  0  0
 23 27  1  0  0  0  0
 24 25  1  0  0  0  0
 25 27  2  0  0  0  0
 26 23  2  0  0  0  0
 28 29  1  0  0  0  0
 28 26  1  0  0  0  0
 29 33  1  0  0  0  0
 30 31  1  0  0  0  0
 32 30  2  0  0  0  0
 33 31  2  0  0  0  0
 34 29  2  0  0  0  0
 34 32  1  0  0  0  0
 36 42  1  6  0  0  0
 36 37  1  0  0  0  0
 37 38  2  0  0  0  0
 37 43  1  0  0  0  0
 39 43  1  0  0  0  0
 40 36  1  0  0  0  0
 40 41  1  0  0  0  0
 41 35  1  6  0  0  0
 41 39  1  0  0  0  0
M  END
>  <MODEL>
1

>  <REMARK>
 VINA RESULT:      -8.5      0.000      0.000
  Name = 
  9 active torsions:
  status: ('A' for Active; 'I' for Inactive)
    1  A    between atoms: C_1  and  C_34
    2  A    between atoms: C_1  and  C_35
    3  A    between atoms: C_2  and  C_13
    4  A    between atoms: C_3  and  C_4
    5  A    between atoms: C_3  and  C_12
    6  A    between atoms: N_6  and  C_12
    7  A    between atoms: C_11  and  C_14
    8  A    between atoms: C_14  and  C_41
    9  A    between atoms: C_21  and  C_30
                            x       y       z     vdW  Elec       q    Type
                         _______ _______ _______ _____ _____    ______ ____

>  <TORSDO>
F 9

$$$$
=
 OpenBabel10272414433D

 43 47  0  0  1  0  0  0  0  0999 V2000
  189.3920  177.2310  141.7780 N   0  0  0  0  0  0  0  0  0  0  0  0
  189.2000  178.0600  139.5630 C   0  0  2  0  0  3  0  0  0  0  0  0
  191.3070  177.4220  140.4660 O   0  0  0  0  0  1  0  0  0  0  0  0
  189.9530  177.0800  140.4480 C   0  0  1  0  0  3  0  0  0  0  0  0
  189.8460  176.4440  142.8940 C   0  0  0  0  0  0  0  0  0  0  0  0
  190.4020  175.3340  142.6770 O   0  0  0  0  0  0  0  0  0  0  0  0
  188.3630  178.2600  141.8500 C   0  0  1  0  0  3  0  0  0  0  0  0
  188.4260  178.9740  140.5130 C   0  0  0  0  0  2  0  0  0  0  0  0
  189.3790  177.7950  146.9370 C   0  0  0  0  0  0  0  0  0  0  0  0
  190.6950  177.7090  144.9030 C   0  0  0  0  0  0  0  0  0  0  0  0
  188.3890  177.0190  146.3330 C   0  0  0  0  0  3  0  0  0  0  0  0
  189.1880  178.3230  148.5930 Cl  0  0  0  0  0  0  0  0  0  0  0  0
  189.7020  176.9190  144.2880 C   0  0  0  0  0  0  0  0  0  0  0  0
  190.5290  178.1390  146.2230 C   0  0  0  0  0  3  0  0  0  0  0  0
  188.5500  176.5850  145.0160 C   0  0  0  0  0  3  0  0  0  0  0  0
  191.8570  178.0570  144.2230 O   0  0  0  0  0  1  0  0  0  0  0  0
  188.2930  177.3110  138.6260 C   0  0  0  0  0  0  0  0  0  0  0  0
  186.9960  177.8390  138.3420 N   0  0  0  0  0  2  0  0  0  0  0  0
  188.6510  176.2100  138.1230 O   0  0  0  0  0  0  0  0  0  0  0  0
  186.0820  177.1980  137.4140 C   0  0  0  0  0  2  0  0  0  0  0  0
  184.7950  177.9980  137.3510 C   0  0  0  0  0  2  0  0  0  0  0  0
  183.7120  177.3090  138.1170 C   0  0  0  0  0  0  0  0  0  0  0  0
  181.8920  177.3160  139.7260 C   0  0  0  0  0  3  0  0  0  0  0  0
  183.5340  175.9330  137.9380 C   0  0  0  0  0  3  0  0  0  0  0  0
  182.5430  175.2510  138.6490 C   0  0  0  0  0  3  0  0  0  0  0  0
  182.8770  178.0110  139.0120 C   0  0  0  0  0  0  0  0  0  0  0  0
  181.7250  175.9410  139.5450 C   0  0  0  0  0  3  0  0  0  0  0  0
  183.0190  179.4900  139.2120 C   0  0  0  0  0  2  0  0  0  0  0  0
  182.0600  180.2430  138.3500 C   0  0  0  0  0  0  0  0  0  0  0  0
  180.3240  181.6660  136.7200 C   0  0  0  0  0  3  0  0  0  0  0  0
  181.0210  182.2940  137.7540 C   0  0  0  0  0  3  0  0  0  0  0  0
  180.5070  180.3000  136.5060 C   0  0  0  0  0  3  0  0  0  0  0  0
  181.8670  181.5770  138.5400 N   0  0  0  0  0  0  0  0  0  0  0  0
  181.3810  179.5800  137.3240 C   0  0  0  0  0  3  0  0  0  0  0  0
  186.9790  177.6300  141.9920 C   0  0  0  0  0  2  0  0  0  0  0  0
  183.6560  179.1910  143.1690 C   0  0  1  0  0  3  0  0  0  0  0  0
  183.9260  179.1050  144.6530 C   0  0  0  0  0  0  0  0  0  0  0  0
  183.0150  179.1390  145.4670 O   0  0  0  0  0  0  0  0  0  0  0  0
  186.2050  178.1760  144.2930 C   0  0  0  0  0  2  0  0  0  0  0  0
  184.5920  178.2640  142.3970 C   0  0  0  0  0  2  0  0  0  0  0  0
  186.0440  178.5000  142.8120 C   0  0  2  0  0  3  0  0  0  0  0  0
  182.2160  178.8450  142.8240 C   0  0  0  0  0  1  0  0  0  0  0  0
  185.3460  179.1150  145.1370 C   0  0  0  0  0  2  0  0  0  0  0  0
  1  7  1  0  0  0  0
  1  5  1  0  0  0  0
  2 17  1  6  0  0  0
  2  4  1  0  0  0  0
  2  8  1  0  0  0  0
  4  3  1  1  0  0  0
  4  1  1  0  0  0  0
  5 13  1  0  0  0  0
  6  5  2  0  0  0  0
  7 35  1  6  0  0  0
  8  7  1  0  0  0  0
  9 12  1  0  0  0  0
 10 14  1  0  0  0  0
 11  9  1  0  0  0  0
 13 10  2  0  0  0  0
 13 15  1  0  0  0  0
 14  9  2  0  0  0  0
 15 11  2  0  0  0  0
 16 10  1  0  0  0  0
 18 17  1  0  0  0  0
 19 17  2  0  0  0  0
 20 18  1  0  0  0  0
 21 20  1  0  0  0  0
 21 22  1  0  0  0  0
 22 26  1  0  0  0  0
 24 22  2  0  0  0  0
 24 25  1  0  0  0  0
 25 27  2  0  0  0  0
 26 28  1  0  0  0  0
 26 23  2  0  0  0  0
 27 23  1  0  0  0  0
 29 33  1  0  0  0  0
 29 28  1  0  0  0  0
 30 31  1  0  0  0  0
 31 33  2  0  0  0  0
 32 30  2  0  0  0  0
 32 34  1  0  0  0  0
 34 29  2  0  0  0  0
 36 42  1  1  0  0  0
 36 37  1  0  0  0  0
 37 43  1  0  0  0  0
 37 38  2  0  0  0  0
 39 43  1  0  0  0  0
 40 41  1  0  0  0  0
 40 36  1  0  0  0  0
 41 35  1  6  0  0  0
 41 39  1  0  0  0  0
M  END
>  <MODEL>
2

>  <REMARK>
 VINA RESULT:      -8.1      4.010      8.819
  Name = 
  9 active torsions:
  status: ('A' for Active; 'I' for Inactive)
    1  A    between atoms: C_1  and  C_34
    2  A    between atoms: C_1  and  C_35
    3  A    between atoms: C_2  and  C_13
    4  A    between atoms: C_3  and  C_4
    5  A    between atoms: C_3  and  C_12
    6  A    between atoms: N_6  and  C_12
    7  A    between atoms: C_11  and  C_14
    8  A    between atoms: C_14  and  C_41
    9  A    between atoms: C_21  and  C_30
                            x       y       z     vdW  Elec       q    Type
                         _______ _______ _______ _____ _____    ______ ____

>  <TORSDO>
F 9

$$$$
=
 OpenBabel10272414433D

 43 47  0  0  1  0  0  0  0  0999 V2000
  188.7430  176.7480  136.2450 N   0  0  0  0  0  0  0  0  0  0  0  0
  187.1170  178.4580  136.4980 C   0  0  2  0  0  3  0  0  0  0  0  0
  187.7390  177.6520  134.3480 O   0  0  0  0  0  1  0  0  0  0  0  0
  187.5100  177.2490  135.6640 C   0  0  1  0  0  3  0  0  0  0  0  0
  189.4140  175.5840  135.7280 C   0  0  0  0  0  0  0  0  0  0  0  0
  188.7540  174.7340  135.0730 O   0  0  0  0  0  0  0  0  0  0  0  0
  189.2160  177.5530  137.3630 C   0  0  1  0  0  3  0  0  0  0  0  0
  188.3370  178.7900  137.3570 C   0  0  0  0  0  2  0  0  0  0  0  0
  193.6330  175.0170  136.2510 C   0  0  0  0  0  0  0  0  0  0  0  0
  191.3580  174.5060  136.9170 C   0  0  0  0  0  0  0  0  0  0  0  0
  193.1530  175.8750  135.2590 C   0  0  0  0  0  3  0  0  0  0  0  0
  195.3550  174.8100  136.4690 Cl  0  0  0  0  0  0  0  0  0  0  0  0
  190.8660  175.3760  135.9230 C   0  0  0  0  0  0  0  0  0  0  0  0
  192.7380  174.3350  137.0770 C   0  0  0  0  0  3  0  0  0  0  0  0
  191.7770  176.0510  135.0960 C   0  0  0  0  0  3  0  0  0  0  0  0
  190.4930  173.8230  137.7640 O   0  0  0  0  0  1  0  0  0  0  0  0
  185.9050  178.1360  137.3270 C   0  0  0  0  0  0  0  0  0  0  0  0
  185.7200  178.8030  138.5770 N   0  0  0  0  0  2  0  0  0  0  0  0
  185.0780  177.2610  136.9500 O   0  0  0  0  0  0  0  0  0  0  0  0
  184.5530  178.5790  139.4120 C   0  0  0  0  0  2  0  0  0  0  0  0
  184.9210  178.8420  140.8600 C   0  0  0  0  0  2  0  0  0  0  0  0
  183.7010  178.8140  141.7240 C   0  0  0  0  0  0  0  0  0  0  0  0
  182.5540  179.2410  143.8220 C   0  0  0  0  0  3  0  0  0  0  0  0
  182.5220  178.2700  141.2030 C   0  0  0  0  0  3  0  0  0  0  0  0
  181.3660  178.2100  141.9860 C   0  0  0  0  0  3  0  0  0  0  0  0
  183.7160  179.3140  143.0430 C   0  0  0  0  0  0  0  0  0  0  0  0
  181.3830  178.6920  143.2960 C   0  0  0  0  0  3  0  0  0  0  0  0
  184.9530  179.9280  143.6290 C   0  0  0  0  0  2  0  0  0  0  0  0
  185.4930  179.0890  144.7400 C   0  0  0  0  0  0  0  0  0  0  0  0
  186.4390  177.5160  146.8200 C   0  0  0  0  0  3  0  0  0  0  0  0
  185.8620  178.7640  147.0640 C   0  0  0  0  0  3  0  0  0  0  0  0
  186.5380  177.0560  145.5070 C   0  0  0  0  0  3  0  0  0  0  0  0
  185.4040  179.5180  146.0290 N   0  0  0  0  0  0  0  0  0  0  0  0
  186.0620  177.8440  144.4580 C   0  0  0  0  0  3  0  0  0  0  0  0
  189.0000  176.8190  138.6850 C   0  0  0  0  0  2  0  0  0  0  0  0
  189.9760  177.7690  142.2930 C   0  0  1  0  0  3  0  0  0  0  0  0
  191.4530  177.4780  142.1680 C   0  0  0  0  0  0  0  0  0  0  0  0
  192.1450  177.2730  143.1540 O   0  0  0  0  0  0  0  0  0  0  0  0
  191.2440  176.8940  139.7600 C   0  0  0  0  0  2  0  0  0  0  0  0
  189.1980  177.0950  141.1650 C   0  0  0  0  0  2  0  0  0  0  0  0
  189.8180  177.4310  139.8090 C   0  0  2  0  0  3  0  0  0  0  0  0
  189.4100  177.3160  143.6290 C   0  0  0  0  0  1  0  0  0  0  0  0
  192.1050  177.5780  140.8200 C   0  0  0  0  0  2  0  0  0  0  0  0
  1  7  1  0  0  0  0
  2 17  1  1  0  0  0
  2  8  1  0  0  0  0
  4  3  1  6  0  0  0
  4  1  1  0  0  0  0
  4  2  1  0  0  0  0
  5 13  1  0  0  0  0
  5  1  1  0  0  0  0
  6  5  2  0  0  0  0
  7 35  1  1  0  0  0
  8  7  1  0  0  0  0
  9 12  1  0  0  0  0
  9 14  1  0  0  0  0
 10 14  2  0  0  0  0
 10 16  1  0  0  0  0
 11  9  2  0  0  0  0
 13 10  1  0  0  0  0
 15 11  1  0  0  0  0
 15 13  2  0  0  0  0
 17 18  1  0  0  0  0
 18 20  1  0  0  0  0
 19 17  2  0  0  0  0
 20 21  1  0  0  0  0
 21 22  1  0  0  0  0
 22 26  1  0  0  0  0
 24 22  2  0  0  0  0
 24 25  1  0  0  0  0
 25 27  2  0  0  0  0
 26 28  1  0  0  0  0
 26 23  2  0  0  0  0
 27 23  1  0  0  0  0
 28 29  1  0  0  0  0
 29 33  1  0  0  0  0
 30 31  1  0  0  0  0
 32 30  2  0  0  0  0
 33 31  2  0  0  0  0
 34 29  2  0  0  0  0
 34 32  1  0  0  0  0
 36 42  1  1  0  0  0
 37 36  1  0  0  0  0
 37 38  2  0  0  0  0
 39 41  1  0  0  0  0
 39 43  1  0  0  0  0
 40 36  1  0  0  0  0
 41 35  1  6  0  0  0
 41 40  1  0  0  0  0
 43 37  1  0  0  0  0
M  END
>  <MODEL>
3

>  <REMARK>
 VINA RESULT:      -8.0      1.949      3.321
  Name = 
  9 active torsions:
  status: ('A' for Active; 'I' for Inactive)
    1  A    between atoms: C_1  and  C_34
    2  A    between atoms: C_1  and  C_35
    3  A    between atoms: C_2  and  C_13
    4  A    between atoms: C_3  and  C_4
    5  A    between atoms: C_3  and  C_12
    6  A    between atoms: N_6  and  C_12
    7  A    between atoms: C_11  and  C_14
    8  A    between atoms: C_14  and  C_41
    9  A    between atoms: C_21  and  C_30
                            x       y       z     vdW  Elec       q    Type
                         _______ _______ _______ _____ _____    ______ ____

>  <TORSDO>
F 9

$$$$
=
 OpenBabel10272414433D

 43 47  0  0  1  0  0  0  0  0999 V2000
  189.0850  177.3860  142.0300 N   0  0  0  0  0  0  0  0  0  0  0  0
  188.8680  178.4120  139.9020 C   0  0  2  0  0  3  0  0  0  0  0  0
  191.0030  177.8660  140.8000 O   0  0  0  0  0  1  0  0  0  0  0  0
  189.6850  177.4160  140.7090 C   0  0  1  0  0  3  0  0  0  0  0  0
  189.5820  176.5320  143.0770 C   0  0  0  0  0  0  0  0  0  0  0  0
  190.2360  175.5000  142.7690 O   0  0  0  0  0  0  0  0  0  0  0  0
  187.9700  178.3130  142.1720 C   0  0  1  0  0  3  0  0  0  0  0  0
  187.9990  179.1590  140.9130 C   0  0  0  0  0  2  0  0  0  0  0  0
  188.9080  177.4580  147.2100 C   0  0  0  0  0  0  0  0  0  0  0  0
  190.4520  177.0800  145.3790 C   0  0  0  0  0  0  0  0  0  0  0  0
  187.8300  177.2420  146.3500 C   0  0  0  0  0  3  0  0  0  0  0  0
  188.6220  177.8140  148.8980 Cl  0  0  0  0  0  0  0  0  0  0  0  0
  189.3680  176.8530  144.5060 C   0  0  0  0  0  0  0  0  0  0  0  0
  190.2160  177.3770  146.7250 C   0  0  0  0  0  3  0  0  0  0  0  0
  188.0600  176.9420  145.0050 C   0  0  0  0  0  3  0  0  0  0  0  0
  191.7650  176.9930  144.9300 O   0  0  0  0  0  1  0  0  0  0  0  0
  188.0500  177.6870  138.8700 C   0  0  0  0  0  0  0  0  0  0  0  0
  186.8730  178.3100  138.3510 N   0  0  0  0  0  2  0  0  0  0  0  0
  188.3690  176.5270  138.4890 O   0  0  0  0  0  0  0  0  0  0  0  0
  186.0560  177.6930  137.3220 C   0  0  0  0  0  2  0  0  0  0  0  0
  184.8050  177.1190  137.9570 C   0  0  0  0  0  2  0  0  0  0  0  0
  183.7370  178.1600  138.0480 C   0  0  0  0  0  0  0  0  0  0  0  0
  181.5170  179.0010  137.5310 C   0  0  0  0  0  3  0  0  0  0  0  0
  184.0070  179.3390  138.7520 C   0  0  0  0  0  3  0  0  0  0  0  0
  183.0400  180.3430  138.8450 C   0  0  0  0  0  3  0  0  0  0  0  0
  182.4760  177.9840  137.4400 C   0  0  0  0  0  0  0  0  0  0  0  0
  181.7970  180.1760  138.2320 C   0  0  0  0  0  3  0  0  0  0  0  0
  182.1390  176.7240  136.6980 C   0  0  0  0  0  2  0  0  0  0  0  0
  181.3700  175.7820  137.5640 C   0  0  0  0  0  0  0  0  0  0  0  0
  179.9830  173.9890  139.1630 C   0  0  0  0  0  3  0  0  0  0  0  0
  179.9930  173.8580  137.7730 C   0  0  0  0  0  3  0  0  0  0  0  0
  180.6850  175.0400  139.7540 C   0  0  0  0  0  3  0  0  0  0  0  0
  180.6800  174.7480  137.0090 N   0  0  0  0  0  0  0  0  0  0  0  0
  181.3860  175.9440  138.9520 C   0  0  0  0  0  3  0  0  0  0  0  0
  186.6430  177.5580  142.2110 C   0  0  0  0  0  2  0  0  0  0  0  0
  183.0620  178.9900  142.2420 C   0  0  1  0  0  3  0  0  0  0  0  0
  182.9470  179.1650  143.7390 C   0  0  0  0  0  0  0  0  0  0  0  0
  181.8570  179.2480  144.2850 O   0  0  0  0  0  0  0  0  0  0  0  0
  185.2800  178.3940  144.1180 C   0  0  0  0  0  2  0  0  0  0  0  0
  184.2060  178.0370  141.9000 C   0  0  0  0  0  2  0  0  0  0  0  0
  185.4910  178.4630  142.6100 C   0  0  2  0  0  3  0  0  0  0  0  0
  181.7770  178.4690  141.6220 C   0  0  0  0  0  1  0  0  0  0  0  0
  184.1930  179.3770  144.5470 C   0  0  0  0  0  2  0  0  0  0  0  0
  1  7  1  0  0  0  0
  1  5  1  0  0  0  0
  2 17  1  6  0  0  0
  2  4  1  0  0  0  0
  2  8  1  0  0  0  0
  4  3  1  1  0  0  0
  4  1  1  0  0  0  0
  5 13  1  0  0  0  0
  6  5  2  0  0  0  0
  7 35  1  6  0  0  0
  8  7  1  0  0  0  0
  9 12  1  0  0  0  0
 10 14  2  0  0  0  0
 11  9  2  0  0  0  0
 13 15  2  0  0  0  0
 13 10  1  0  0  0  0
 14  9  1  0  0  0  0
 15 11  1  0  0  0  0
 16 10  1  0  0  0  0
 18 17  1  0  0  0  0
 19 17  2  0  0  0  0
 20 21  1  0  0  0  0
 20 18  1  0  0  0  0
 21 22  1  0  0  0  0
 22 24  1  0  0  0  0
 23 27  2  0  0  0  0
 24 25  2  0  0  0  0
 26 23  1  0  0  0  0
 26 22  2  0  0  0  0
 27 25  1  0  0  0  0
 28 26  1  0  0  0  0
 28 29  1  0  0  0  0
 29 34  1  0  0  0  0
 30 32  1  0  0  0  0
 31 30  2  0  0  0  0
 33 29  2  0  0  0  0
 33 31  1  0  0  0  0
 34 32  2  0  0  0  0
 36 42  1  1  0  0  0
 36 37  1  0  0  0  0
 37 38  2  0  0  0  0
 37 43  1  0  0  0  0
 39 43  1  0  0  0  0
 40 36  1  0  0  0  0
 40 41  1  0  0  0  0
 41 35  1  1  0  0  0
 41 39  1  0  0  0  0
M  END
>  <MODEL>
4

>  <REMARK>
 VINA RESULT:      -7.9      4.254      8.956
  Name = 
  9 active torsions:
  status: ('A' for Active; 'I' for Inactive)
    1  A    between atoms: C_1  and  C_34
    2  A    between atoms: C_1  and  C_35
    3  A    between atoms: C_2  and  C_13
    4  A    between atoms: C_3  and  C_4
    5  A    between atoms: C_3  and  C_12
    6  A    between atoms: N_6  and  C_12
    7  A    between atoms: C_11  and  C_14
    8  A    between atoms: C_14  and  C_41
    9  A    between atoms: C_21  and  C_30
                            x       y       z     vdW  Elec       q    Type
                         _______ _______ _______ _____ _____    ______ ____

>  <TORSDO>
F 9

$$$$
=
 OpenBabel10272414433D

 43 47  0  0  1  0  0  0  0  0999 V2000
  186.9370  175.6180  136.7150 N   0  0  0  0  0  0  0  0  0  0  0  0
  187.7440  177.8460  136.5730 C   0  0  2  0  0  3  0  0  0  0  0  0
  185.5050  177.3010  135.9780 O   0  0  0  0  0  1  0  0  0  0  0  0
  186.5210  176.9990  136.8860 C   0  0  1  0  0  3  0  0  0  0  0  0
  186.0420  174.5150  136.9460 C   0  0  0  0  0  0  0  0  0  0  0  0
  185.0490  174.6780  137.7040 O   0  0  0  0  0  0  0  0  0  0  0  0
  188.3190  175.4900  136.2720 C   0  0  1  0  0  3  0  0  0  0  0  0
  188.7530  176.9010  135.9210 C   0  0  0  0  0  2  0  0  0  0  0  0
  186.6690  170.7010  135.0880 C   0  0  0  0  0  0  0  0  0  0  0  0
  185.4610  172.8010  135.1910 C   0  0  0  0  0  0  0  0  0  0  0  0
  187.4530  171.0950  136.1730 C   0  0  0  0  0  3  0  0  0  0  0  0
  186.9190  169.1350  134.3510 Cl  0  0  0  0  0  0  0  0  0  0  0  0
  186.2440  173.2030  136.2920 C   0  0  0  0  0  0  0  0  0  0  0  0
  185.6750  171.5520  134.5980 C   0  0  0  0  0  3  0  0  0  0  0  0
  187.2420  172.3400  136.7700 C   0  0  0  0  0  3  0  0  0  0  0  0
  184.4560  173.6200  134.6890 O   0  0  0  0  0  1  0  0  0  0  0  0
  188.2740  178.4660  137.8360 C   0  0  0  0  0  0  0  0  0  0  0  0
  187.9650  177.8590  139.0920 N   0  0  0  0  0  2  0  0  0  0  0  0
  188.9520  179.5290  137.7990 O   0  0  0  0  0  0  0  0  0  0  0  0
  188.4770  178.3710  140.3500 C   0  0  0  0  0  2  0  0  0  0  0  0
  188.7550  177.2100  141.2840 C   0  0  0  0  0  2  0  0  0  0  0  0
  189.4500  177.6850  142.5200 C   0  0  0  0  0  0  0  0  0  0  0  0
  189.5770  177.9700  144.9290 C   0  0  0  0  0  3  0  0  0  0  0  0
  190.6740  178.3490  142.3880 C   0  0  0  0  0  3  0  0  0  0  0  0
  191.3460  178.8220  143.5180 C   0  0  0  0  0  3  0  0  0  0  0  0
  188.9000  177.4830  143.8030 C   0  0  0  0  0  0  0  0  0  0  0  0
  190.7960  178.6360  144.7870 C   0  0  0  0  0  3  0  0  0  0  0  0
  187.6030  176.7530  143.9880 C   0  0  0  0  0  2  0  0  0  0  0  0
  186.5320  177.6770  144.4670 C   0  0  0  0  0  0  0  0  0  0  0  0
  184.5010  179.3540  145.3370 C   0  0  0  0  0  3  0  0  0  0  0  0
  184.8170  179.2470  143.9810 C   0  0  0  0  0  3  0  0  0  0  0  0
  185.2210  178.6030  146.2660 C   0  0  0  0  0  3  0  0  0  0  0  0
  185.8160  178.4180  143.5770 N   0  0  0  0  0  0  0  0  0  0  0  0
  186.2430  177.7560  145.8320 C   0  0  0  0  0  3  0  0  0  0  0  0
  189.2050  174.9860  137.4090 C   0  0  0  0  0  2  0  0  0  0  0  0
  192.5120  176.6970  138.4140 C   0  0  1  0  0  3  0  0  0  0  0  0
  193.4420  175.6490  137.8470 C   0  0  0  0  0  0  0  0  0  0  0  0
  194.5970  175.5500  138.2340 O   0  0  0  0  0  0  0  0  0  0  0  0
  191.5540  174.3110  136.9370 C   0  0  0  0  0  2  0  0  0  0  0  0
  191.1010  176.1340  138.5730 C   0  0  0  0  0  2  0  0  0  0  0  0
  190.6340  175.4800  137.2720 C   0  0  2  0  0  3  0  0  0  0  0  0
  192.9900  177.2270  139.7560 C   0  0  0  0  0  1  0  0  0  0  0  0
  192.9770  174.8090  136.6950 C   0  0  0  0  0  2  0  0  0  0  0  0
  1  4  1  0  0  0  0
  1  5  1  0  0  0  0
  2  4  1  0  0  0  0
  2 17  1  1  0  0  0
  4  3  1  6  0  0  0
  5  6  2  0  0  0  0
  7  1  1  0  0  0  0
  7 35  1  1  0  0  0
  8  7  1  0  0  0  0
  8  2  1  0  0  0  0
  9 11  1  0  0  0  0
 10 13  2  0  0  0  0
 11 15  2  0  0  0  0
 12  9  1  0  0  0  0
 13 15  1  0  0  0  0
 13  5  1  0  0  0  0
 14  9  2  0  0  0  0
 14 10  1  0  0  0  0
 16 10  1  0  0  0  0
 17 18  1  0  0  0  0
 18 20  1  0  0  0  0
 19 17  2  0  0  0  0
 20 21  1  0  0  0  0
 21 22  1  0  0  0  0
 22 26  1  0  0  0  0
 24 22  2  0  0  0  0
 24 25  1  0  0  0  0
 25 27  2  0  0  0  0
 26 28  1  0  0  0  0
 26 23  2  0  0  0  0
 27 23  1  0  0  0  0
 28 29  1  0  0  0  0
 29 34  1  0  0  0  0
 30 32  1  0  0  0  0
 31 30  2  0  0  0  0
 33 31  1  0  0  0  0
 33 29  2  0  0  0  0
 34 32  2  0  0  0  0
 36 40  1  0  0  0  0
 36 42  1  1  0  0  0
 37 38  2  0  0  0  0
 37 36  1  0  0  0  0
 39 41  1  0  0  0  0
 41 35  1  1  0  0  0
 41 40  1  0  0  0  0
 43 39  1  0  0  0  0
 43 37  1  0  0  0  0
M  END
>  <MODEL>
5

>  <REMARK>
 VINA RESULT:      -7.7      2.402      4.138
  Name = 
  9 active torsions:
  status: ('A' for Active; 'I' for Inactive)
    1  A    between atoms: C_1  and  C_34
    2  A    between atoms: C_1  and  C_35
    3  A    between atoms: C_2  and  C_13
    4  A    between atoms: C_3  and  C_4
    5  A    between atoms: C_3  and  C_12
    6  A    between atoms: N_6  and  C_12
    7  A    between atoms: C_11  and  C_14
    8  A    between atoms: C_14  and  C_41
    9  A    between atoms: C_21  and  C_30
                            x       y       z     vdW  Elec       q    Type
                         _______ _______ _______ _____ _____    ______ ____

>  <TORSDO>
F 9

$$$$
=
 OpenBabel10272414433D

 43 47  0  0  1  0  0  0  0  0999 V2000
  189.0650  177.4240  142.1510 N   0  0  0  0  0  0  0  0  0  0  0  0
  188.9220  178.4670  140.0240 C   0  0  2  0  0  3  0  0  0  0  0  0
  191.0250  177.9370  141.0030 O   0  0  0  0  0  1  0  0  0  0  0  0
  189.7170  177.4720  140.8550 C   0  0  1  0  0  3  0  0  0  0  0  0
  189.5300  176.5660  143.2100 C   0  0  0  0  0  0  0  0  0  0  0  0
  190.2080  175.5440  142.9190 O   0  0  0  0  0  0  0  0  0  0  0  0
  187.9340  178.3350  142.2550 C   0  0  1  0  0  3  0  0  0  0  0  0
  188.0030  179.1940  141.0060 C   0  0  0  0  0  2  0  0  0  0  0  0
  188.6780  177.4470  147.3190 C   0  0  0  0  0  0  0  0  0  0  0  0
  190.3000  177.0730  145.5560 C   0  0  0  0  0  0  0  0  0  0  0  0
  187.6380  177.2540  146.4080 C   0  0  0  0  0  3  0  0  0  0  0  0
  188.3200  177.7840  148.9970 Cl  0  0  0  0  0  0  0  0  0  0  0  0
  189.2550  176.8700  144.6310 C   0  0  0  0  0  0  0  0  0  0  0  0
  190.0060  177.3560  146.8940 C   0  0  0  0  0  3  0  0  0  0  0  0
  187.9260  176.9690  145.0720 C   0  0  0  0  0  3  0  0  0  0  0  0
  191.6310  176.9770  145.1660 O   0  0  0  0  0  1  0  0  0  0  0  0
  188.1540  177.7410  138.9540 C   0  0  0  0  0  0  0  0  0  0  0  0
  186.9370  178.3080  138.4650 N   0  0  0  0  0  2  0  0  0  0  0  0
  188.5520  176.6270  138.5150 O   0  0  0  0  0  0  0  0  0  0  0  0
  186.1630  177.6910  137.4020 C   0  0  0  0  0  2  0  0  0  0  0  0
  184.7090  177.6160  137.8250 C   0  0  0  0  0  2  0  0  0  0  0  0
  183.8340  177.3320  136.6470 C   0  0  0  0  0  0  0  0  0  0  0  0
  181.6560  177.2050  135.5780 C   0  0  0  0  0  3  0  0  0  0  0  0
  184.4280  176.8720  135.4660 C   0  0  0  0  0  3  0  0  0  0  0  0
  183.6420  176.5790  134.3480 C   0  0  0  0  0  3  0  0  0  0  0  0
  182.4360  177.5100  136.7020 C   0  0  0  0  0  0  0  0  0  0  0  0
  182.2570  176.7420  134.4050 C   0  0  0  0  0  3  0  0  0  0  0  0
  181.7650  178.0250  137.9400 C   0  0  0  0  0  2  0  0  0  0  0  0
  181.4130  179.4690  137.7980 C   0  0  0  0  0  0  0  0  0  0  0  0
  180.7110  182.1430  137.5710 C   0  0  0  0  0  3  0  0  0  0  0  0
  179.9840  181.1480  136.9140 C   0  0  0  0  0  3  0  0  0  0  0  0
  181.8070  181.7820  138.3540 C   0  0  0  0  0  3  0  0  0  0  0  0
  180.3460  179.8430  137.0400 N   0  0  0  0  0  0  0  0  0  0  0  0
  182.1630  180.4360  138.4720 C   0  0  0  0  0  3  0  0  0  0  0  0
  186.6150  177.5650  142.2340 C   0  0  0  0  0  2  0  0  0  0  0  0
  183.0220  178.9620  142.1490 C   0  0  1  0  0  3  0  0  0  0  0  0
  182.8430  179.1020  143.6420 C   0  0  0  0  0  0  0  0  0  0  0  0
  181.7310  179.1630  144.1450 O   0  0  0  0  0  0  0  0  0  0  0  0
  185.1670  178.3450  144.1010 C   0  0  0  0  0  2  0  0  0  0  0  0
  184.1890  178.0280  141.8330 C   0  0  0  0  0  2  0  0  0  0  0  0
  185.4390  178.4500  142.6050 C   0  0  2  0  0  3  0  0  0  0  0  0
  181.7690  178.4430  141.4640 C   0  0  0  0  0  1  0  0  0  0  0  0
  184.0520  179.3080  144.5060 C   0  0  0  0  0  2  0  0  0  0  0  0
  1  7  1  0  0  0  0
  1  5  1  0  0  0  0
  2 17  1  6  0  0  0
  2  4  1  0  0  0  0
  2  8  1  0  0  0  0
  4  3  1  1  0  0  0
  4  1  1  0  0  0  0
  5 13  1  0  0  0  0
  6  5  2  0  0  0  0
  7 35  1  6  0  0  0
  8  7  1  0  0  0  0
  9 12  1  0  0  0  0
 10 14  2  0  0  0  0
 11  9  2  0  0  0  0
 13 15  2  0  0  0  0
 13 10  1  0  0  0  0
 14  9  1  0  0  0  0
 15 11  1  0  0  0  0
 16 10  1  0  0  0  0
 18 17  1  0  0  0  0
 19 17  2  0  0  0  0
 20 21  1  0  0  0  0
 20 18  1  0  0  0  0
 22 26  1  0  0  0  0
 22 21  1  0  0  0  0
 23 26  2  0  0  0  0
 24 22  2  0  0  0  0
 25 27  2  0  0  0  0
 25 24  1  0  0  0  0
 26 28  1  0  0  0  0
 27 23  1  0  0  0  0
 29 28  1  0  0  0  0
 29 34  1  0  0  0  0
 30 32  1  0  0  0  0
 31 33  1  0  0  0  0
 31 30  2  0  0  0  0
 32 34  2  0  0  0  0
 33 29  2  0  0  0  0
 36 42  1  6  0  0  0
 36 37  1  0  0  0  0
 37 38  2  0  0  0  0
 37 43  1  0  0  0  0
 39 43  1  0  0  0  0
 40 36  1  0  0  0  0
 40 41  1  0  0  0  0
 41 35  1  6  0  0  0
 41 39  1  0  0  0  0
M  END
>  <MODEL>
6

>  <REMARK>
 VINA RESULT:      -7.6      4.159      9.356
  Name = 
  9 active torsions:
  status: ('A' for Active; 'I' for Inactive)
    1  A    between atoms: C_1  and  C_34
    2  A    between atoms: C_1  and  C_35
    3  A    between atoms: C_2  and  C_13
    4  A    between atoms: C_3  and  C_4
    5  A    between atoms: C_3  and  C_12
    6  A    between atoms: N_6  and  C_12
    7  A    between atoms: C_11  and  C_14
    8  A    between atoms: C_14  and  C_41
    9  A    between atoms: C_21  and  C_30
                            x       y       z     vdW  Elec       q    Type
                         _______ _______ _______ _____ _____    ______ ____

>  <TORSDO>
F 9

$$$$
=
 OpenBabel10272414433D

 43 47  0  0  1  0  0  0  0  0999 V2000
  189.0810  177.4230  142.2390 N   0  0  0  0  0  0  0  0  0  0  0  0
  188.9640  178.4140  140.0860 C   0  0  2  0  0  3  0  0  0  0  0  0
  191.0550  177.9110  141.1030 O   0  0  0  0  0  1  0  0  0  0  0  0
  189.7490  177.4410  140.9500 C   0  0  1  0  0  3  0  0  0  0  0  0
  189.5340  176.5920  143.3230 C   0  0  0  0  0  0  0  0  0  0  0  0
  190.2160  175.5640  143.0660 O   0  0  0  0  0  0  0  0  0  0  0  0
  187.9480  178.3360  142.3070 C   0  0  1  0  0  3  0  0  0  0  0  0
  188.0330  179.1640  141.0380 C   0  0  0  0  0  2  0  0  0  0  0  0
  188.6310  177.5680  147.4000 C   0  0  0  0  0  0  0  0  0  0  0  0
  190.2730  177.2120  145.6520 C   0  0  0  0  0  0  0  0  0  0  0  0
  187.6040  177.2970  146.4950 C   0  0  0  0  0  3  0  0  0  0  0  0
  188.2520  177.9440  149.0650 Cl  0  0  0  0  0  0  0  0  0  0  0  0
  189.2410  176.9300  144.7340 C   0  0  0  0  0  0  0  0  0  0  0  0
  189.9620  177.5260  146.9800 C   0  0  0  0  0  3  0  0  0  0  0  0
  187.9080  176.9820  145.1690 C   0  0  0  0  0  3  0  0  0  0  0  0
  191.6080  177.1650  145.2670 O   0  0  0  0  0  1  0  0  0  0  0  0
  188.2100  177.6620  139.0240 C   0  0  0  0  0  0  0  0  0  0  0  0
  187.1450  178.3160  138.3310 N   0  0  0  0  0  2  0  0  0  0  0  0
  188.4830  176.4570  138.7680 O   0  0  0  0  0  0  0  0  0  0  0  0
  186.4010  177.6730  137.2640 C   0  0  0  0  0  2  0  0  0  0  0  0
  187.0350  178.0250  135.9330 C   0  0  0  0  0  2  0  0  0  0  0  0
  187.8890  176.8990  135.4440 C   0  0  0  0  0  0  0  0  0  0  0  0
  188.1680  174.6800  134.4960 C   0  0  0  0  0  3  0  0  0  0  0  0
  189.2800  177.0300  135.5200 C   0  0  0  0  0  3  0  0  0  0  0  0
  190.1110  175.9920  135.0880 C   0  0  0  0  0  3  0  0  0  0  0  0
  187.3260  175.7180  134.9180 C   0  0  0  0  0  0  0  0  0  0  0  0
  189.5560  174.8170  134.5810 C   0  0  0  0  0  3  0  0  0  0  0  0
  185.8410  175.5490  134.7960 C   0  0  0  0  0  2  0  0  0  0  0  0
  185.3720  174.3580  135.5640 C   0  0  0  0  0  0  0  0  0  0  0  0
  184.5470  172.1120  136.9690 C   0  0  0  0  0  3  0  0  0  0  0  0
  184.3820  172.1990  135.5850 C   0  0  0  0  0  3  0  0  0  0  0  0
  185.1380  173.1750  137.6520 C   0  0  0  0  0  3  0  0  0  0  0  0
  184.7940  173.3080  134.9170 N   0  0  0  0  0  0  0  0  0  0  0  0
  185.5560  174.3070  136.9480 C   0  0  0  0  0  3  0  0  0  0  0  0
  186.6310  177.5640  142.2880 C   0  0  0  0  0  2  0  0  0  0  0  0
  183.0670  179.0170  142.0450 C   0  0  1  0  0  3  0  0  0  0  0  0
  182.8100  179.1250  143.5300 C   0  0  0  0  0  0  0  0  0  0  0  0
  181.6730  179.1910  143.9730 O   0  0  0  0  0  0  0  0  0  0  0  0
  185.0950  178.3220  144.0930 C   0  0  0  0  0  2  0  0  0  0  0  0
  184.2360  178.0730  141.7690 C   0  0  0  0  0  2  0  0  0  0  0  0
  185.4490  178.4580  142.6170 C   0  0  2  0  0  3  0  0  0  0  0  0
  181.8450  178.5330  141.2820 C   0  0  0  0  0  1  0  0  0  0  0  0
  183.9740  179.2920  144.4610 C   0  0  0  0  0  2  0  0  0  0  0  0
  1  7  1  0  0  0  0
  1  5  1  0  0  0  0
  2 17  1  6  0  0  0
  2  4  1  0  0  0  0
  2  8  1  0  0  0  0
  4  3  1  1  0  0  0
  4  1  1  0  0  0  0
  5 13  1  0  0  0  0
  6  5  2  0  0  0  0
  7 35  1  6  0  0  0
  8  7  1  0  0  0  0
  9 12  1  0  0  0  0
 10 14  2  0  0  0  0
 11  9  2  0  0  0  0
 13 15  2  0  0  0  0
 13 10  1  0  0  0  0
 14  9  1  0  0  0  0
 15 11  1  0  0  0  0
 16 10  1  0  0  0  0
 18 17  1  0  0  0  0
 19 17  2  0  0  0  0
 20 18  1  0  0  0  0
 21 20  1  0  0  0  0
 22 24  1  0  0  0  0
 22 21  1  0  0  0  0
 23 27  2  0  0  0  0
 23 26  1  0  0  0  0
 25 24  2  0  0  0  0
 26 22  2  0  0  0  0
 27 25  1  0  0  0  0
 28 26  1  0  0  0  0
 28 29  1  0  0  0  0
 29 34  1  0  0  0  0
 30 32  1  0  0  0  0
 31 30  2  0  0  0  0
 33 29  2  0  0  0  0
 33 31  1  0  0  0  0
 34 32  2  0  0  0  0
 36 42  1  6  0  0  0
 36 37  1  0  0  0  0
 37 38  2  0  0  0  0
 37 43  1  0  0  0  0
 39 43  1  0  0  0  0
 40 36  1  0  0  0  0
 40 41  1  0  0  0  0
 41 35  1  6  0  0  0
 41 39  1  0  0  0  0
M  END
>  <MODEL>
7

>  <REMARK>
 VINA RESULT:      -7.4      3.672      9.330
  Name = 
  9 active torsions:
  status: ('A' for Active; 'I' for Inactive)
    1  A    between atoms: C_1  and  C_34
    2  A    between atoms: C_1  and  C_35
    3  A    between atoms: C_2  and  C_13
    4  A    between atoms: C_3  and  C_4
    5  A    between atoms: C_3  and  C_12
    6  A    between atoms: N_6  and  C_12
    7  A    between atoms: C_11  and  C_14
    8  A    between atoms: C_14  and  C_41
    9  A    between atoms: C_21  and  C_30
                            x       y       z     vdW  Elec       q    Type
                         _______ _______ _______ _____ _____    ______ ____

>  <TORSDO>
F 9

$$$$
=
 OpenBabel10272414433D

 43 47  0  0  1  0  0  0  0  0999 V2000
  189.0970  177.4280  142.1480 N   0  0  0  0  0  0  0  0  0  0  0  0
  188.9940  178.3980  139.9850 C   0  0  2  0  0  3  0  0  0  0  0  0
  191.0780  177.8900  141.0150 O   0  0  0  0  0  1  0  0  0  0  0  0
  189.7700  177.4280  140.8620 C   0  0  1  0  0  3  0  0  0  0  0  0
  189.5400  176.6050  143.2430 C   0  0  0  0  0  0  0  0  0  0  0  0
  190.2160  175.5700  142.9990 O   0  0  0  0  0  0  0  0  0  0  0  0
  187.9700  178.3500  142.2030 C   0  0  1  0  0  3  0  0  0  0  0  0
  188.0650  179.1640  140.9260 C   0  0  0  0  0  2  0  0  0  0  0  0
  188.6300  177.6260  147.3070 C   0  0  0  0  0  0  0  0  0  0  0  0
  190.2700  177.3170  145.5490 C   0  0  0  0  0  0  0  0  0  0  0  0
  187.6080  177.2810  146.4210 C   0  0  0  0  0  3  0  0  0  0  0  0
  188.2490  178.0200  148.9680 Cl  0  0  0  0  0  0  0  0  0  0  0  0
  189.2440  176.9600  144.6490 C   0  0  0  0  0  0  0  0  0  0  0  0
  189.9570  177.6440  146.8720 C   0  0  0  0  0  3  0  0  0  0  0  0
  187.9150  176.9510  145.0990 C   0  0  0  0  0  3  0  0  0  0  0  0
  191.6010  177.3320  145.1490 O   0  0  0  0  0  1  0  0  0  0  0  0
  188.2390  177.6400  138.9280 C   0  0  0  0  0  0  0  0  0  0  0  0
  187.3970  178.3590  138.0250 N   0  0  0  0  0  2  0  0  0  0  0  0
  188.3120  176.3820  138.8570 O   0  0  0  0  0  0  0  0  0  0  0  0
  186.6710  177.7040  136.9510 C   0  0  0  0  0  2  0  0  0  0  0  0
  187.5990  177.5160  135.7660 C   0  0  0  0  0  2  0  0  0  0  0  0
  187.8370  176.0630  135.5120 C   0  0  0  0  0  0  0  0  0  0  0  0
  189.2650  174.2100  134.8560 C   0  0  0  0  0  3  0  0  0  0  0  0
  186.7730  175.1690  135.6770 C   0  0  0  0  0  3  0  0  0  0  0  0
  186.9510  173.8050  135.4320 C   0  0  0  0  0  3  0  0  0  0  0  0
  189.0990  175.5780  135.1070 C   0  0  0  0  0  0  0  0  0  0  0  0
  188.1950  173.3260  135.0190 C   0  0  0  0  0  3  0  0  0  0  0  0
  190.2700  176.5000  134.9440 C   0  0  0  0  0  2  0  0  0  0  0  0
  191.3630  176.1520  135.9010 C   0  0  0  0  0  0  0  0  0  0  0  0
  193.4250  175.5520  137.6560 C   0  0  0  0  0  3  0  0  0  0  0  0
  193.5120  175.2240  136.3020 C   0  0  0  0  0  3  0  0  0  0  0  0
  192.2810  176.1930  138.1300 C   0  0  0  0  0  3  0  0  0  0  0  0
  192.4890  175.5280  135.4590 N   0  0  0  0  0  0  0  0  0  0  0  0
  191.2410  176.4990  137.2490 C   0  0  0  0  0  3  0  0  0  0  0  0
  186.6480  177.5870  142.1870 C   0  0  0  0  0  2  0  0  0  0  0  0
  183.1010  179.0910  142.0010 C   0  0  1  0  0  3  0  0  0  0  0  0
  182.8450  179.1450  143.4890 C   0  0  0  0  0  0  0  0  0  0  0  0
  181.7100  179.2070  143.9360 O   0  0  0  0  0  0  0  0  0  0  0  0
  185.1210  178.2940  144.0210 C   0  0  0  0  0  2  0  0  0  0  0  0
  184.2590  178.1440  141.6890 C   0  0  0  0  0  2  0  0  0  0  0  0
  185.4760  178.4810  142.5500 C   0  0  2  0  0  3  0  0  0  0  0  0
  181.8740  178.6510  141.2210 C   0  0  0  0  0  1  0  0  0  0  0  0
  184.0110  179.2620  144.4260 C   0  0  0  0  0  2  0  0  0  0  0  0
  1  7  1  0  0  0  0
  1  5  1  0  0  0  0
  2 17  1  6  0  0  0
  2  4  1  0  0  0  0
  2  8  1  0  0  0  0
  4  3  1  1  0  0  0
  4  1  1  0  0  0  0
  5 13  1  0  0  0  0
  6  5  2  0  0  0  0
  7 35  1  6  0  0  0
  8  7  1  0  0  0  0
  9 12  1  0  0  0  0
 10 14  2  0  0  0  0
 11  9  2  0  0  0  0
 13 15  2  0  0  0  0
 13 10  1  0  0  0  0
 14  9  1  0  0  0  0
 15 11  1  0  0  0  0
 16 10  1  0  0  0  0
 18 17  1  0  0  0  0
 19 17  2  0  0  0  0
 20 18  1  0  0  0  0
 21 20  1  0  0  0  0
 22 24  1  0  0  0  0
 22 21  1  0  0  0  0
 23 27  2  0  0  0  0
 23 26  1  0  0  0  0
 25 24  2  0  0  0  0
 26 22  2  0  0  0  0
 27 25  1  0  0  0  0
 28 26  1  0  0  0  0
 28 29  1  0  0  0  0
 29 34  1  0  0  0  0
 30 32  1  0  0  0  0
 31 30  2  0  0  0  0
 33 29  2  0  0  0  0
 33 31  1  0  0  0  0
 34 32  2  0  0  0  0
 36 42  1  6  0  0  0
 36 37  1  0  0  0  0
 37 38  2  0  0  0  0
 37 43  1  0  0  0  0
 39 43  1  0  0  0  0
 40 36  1  0  0  0  0
 40 41  1  0  0  0  0
 41 35  1  6  0  0  0
 41 39  1  0  0  0  0
M  END
>  <MODEL>
8

>  <REMARK>
 VINA RESULT:      -7.4      3.450      8.881
  Name = 
  9 active torsions:
  status: ('A' for Active; 'I' for Inactive)
    1  A    between atoms: C_1  and  C_34
    2  A    between atoms: C_1  and  C_35
    3  A    between atoms: C_2  and  C_13
    4  A    between atoms: C_3  and  C_4
    5  A    between atoms: C_3  and  C_12
    6  A    between atoms: N_6  and  C_12
    7  A    between atoms: C_11  and  C_14
    8  A    between atoms: C_14  and  C_41
    9  A    between atoms: C_21  and  C_30
                            x       y       z     vdW  Elec       q    Type
                         _______ _______ _______ _____ _____    ______ ____

>  <TORSDO>
F 9

$$$$
=
 OpenBabel10272414433D

 43 47  0  0  1  0  0  0  0  0999 V2000
  188.9350  177.4410  142.1060 N   0  0  0  0  0  0  0  0  0  0  0  0
  188.7510  178.4130  139.9490 C   0  0  2  0  0  3  0  0  0  0  0  0
  190.8730  177.9320  140.9120 O   0  0  0  0  0  1  0  0  0  0  0  0
  189.5670  177.4530  140.7990 C   0  0  1  0  0  3  0  0  0  0  0  0
  189.4230  176.6210  143.1850 C   0  0  0  0  0  0  0  0  0  0  0  0
  190.1050  175.5960  142.9170 O   0  0  0  0  0  0  0  0  0  0  0  0
  187.7980  178.3460  142.1980 C   0  0  1  0  0  3  0  0  0  0  0  0
  187.8410  179.1640  140.9210 C   0  0  0  0  0  2  0  0  0  0  0  0
  188.6260  177.6230  147.2770 C   0  0  0  0  0  0  0  0  0  0  0  0
  190.2170  177.3160  145.4740 C   0  0  0  0  0  0  0  0  0  0  0  0
  187.5800  177.2890  146.4160 C   0  0  0  0  0  3  0  0  0  0  0  0
  188.2910  178.0090  148.9500 Cl  0  0  0  0  0  0  0  0  0  0  0  0
  189.1670  176.9700  144.6000 C   0  0  0  0  0  0  0  0  0  0  0  0
  189.9410  177.6370  146.8070 C   0  0  0  0  0  3  0  0  0  0  0  0
  187.8500  176.9650  145.0840 C   0  0  0  0  0  3  0  0  0  0  0  0
  191.5380  177.3250  145.0400 O   0  0  0  0  0  1  0  0  0  0  0  0
  187.9740  177.6470  138.9140 C   0  0  0  0  0  0  0  0  0  0  0  0
  186.7320  178.1760  138.4450 N   0  0  0  0  0  2  0  0  0  0  0  0
  188.3870  176.5330  138.4890 O   0  0  0  0  0  0  0  0  0  0  0  0
  185.9470  177.5180  137.4160 C   0  0  0  0  0  2  0  0  0  0  0  0
  184.5990  177.1290  137.9920 C   0  0  0  0  0  2  0  0  0  0  0  0
  183.6700  176.6940  136.9050 C   0  0  0  0  0  0  0  0  0  0  0  0
  182.4150  174.9860  135.7180 C   0  0  0  0  0  3  0  0  0  0  0  0
  183.1980  177.6520  136.0010 C   0  0  0  0  0  3  0  0  0  0  0  0
  182.3420  177.2820  134.9620 C   0  0  0  0  0  3  0  0  0  0  0  0
  183.2670  175.3490  136.7690 C   0  0  0  0  0  0  0  0  0  0  0  0
  181.9530  175.9490  134.8170 C   0  0  0  0  0  3  0  0  0  0  0  0
  183.7300  174.2970  137.7320 C   0  0  0  0  0  2  0  0  0  0  0  0
  184.8220  173.4700  137.1380 C   0  0  0  0  0  0  0  0  0  0  0  0
  186.8400  171.9580  135.9800 C   0  0  0  0  0  3  0  0  0  0  0  0
  185.4950  171.6310  135.7930 C   0  0  0  0  0  3  0  0  0  0  0  0
  187.1690  173.0650  136.7620 C   0  0  0  0  0  3  0  0  0  0  0  0
  184.5230  172.3860  136.3700 N   0  0  0  0  0  0  0  0  0  0  0  0
  186.1560  173.8290  137.3460 C   0  0  0  0  0  3  0  0  0  0  0  0
  186.4860  177.5650  142.2220 C   0  0  0  0  0  2  0  0  0  0  0  0
  182.9240  178.9910  141.8320 C   0  0  1  0  0  3  0  0  0  0  0  0
  182.6360  179.1740  143.3030 C   0  0  0  0  0  0  0  0  0  0  0  0
  181.4910  179.2590  143.7200 O   0  0  0  0  0  0  0  0  0  0  0  0
  184.9110  178.4090  143.9540 C   0  0  0  0  0  2  0  0  0  0  0  0
  184.1010  178.0380  141.6280 C   0  0  0  0  0  2  0  0  0  0  0  0
  185.2950  178.4700  142.4800 C   0  0  2  0  0  3  0  0  0  0  0  0
  181.7200  178.4650  141.0690 C   0  0  0  0  0  1  0  0  0  0  0  0
  183.7810  179.3930  144.2490 C   0  0  0  0  0  2  0  0  0  0  0  0
  1  7  1  0  0  0  0
  1  5  1  0  0  0  0
  2 17  1  6  0  0  0
  2  4  1  0  0  0  0
  2  8  1  0  0  0  0
  4  3  1  1  0  0  0
  4  1  1  0  0  0  0
  5 13  1  0  0  0  0
  6  5  2  0  0  0  0
  7 35  1  6  0  0  0
  8  7  1  0  0  0  0
  9 12  1  0  0  0  0
 10 14  2  0  0  0  0
 11  9  2  0  0  0  0
 13 15  2  0  0  0  0
 13 10  1  0  0  0  0
 14  9  1  0  0  0  0
 15 11  1  0  0  0  0
 16 10  1  0  0  0  0
 18 17  1  0  0  0  0
 19 17  2  0  0  0  0
 20 21  1  0  0  0  0
 20 18  1  0  0  0  0
 22 21  1  0  0  0  0
 23 26  2  0  0  0  0
 24 22  2  0  0  0  0
 25 24  1  0  0  0  0
 26 22  1  0  0  0  0
 26 28  1  0  0  0  0
 27 25  2  0  0  0  0
 27 23  1  0  0  0  0
 29 34  1  0  0  0  0
 29 28  1  0  0  0  0
 30 32  1  0  0  0  0
 31 30  2  0  0  0  0
 31 33  1  0  0  0  0
 32 34  2  0  0  0  0
 33 29  2  0  0  0  0
 36 42  1  6  0  0  0
 36 37  1  0  0  0  0
 37 38  2  0  0  0  0
 37 43  1  0  0  0  0
 39 43  1  0  0  0  0
 40 36  1  0  0  0  0
 40 41  1  0  0  0  0
 41 35  1  1  0  0  0
 41 39  1  0  0  0  0
M  END
>  <MODEL>
9

>  <REMARK>
 VINA RESULT:      -7.4      3.921      9.010
  Name = 
  9 active torsions:
  status: ('A' for Active; 'I' for Inactive)
    1  A    between atoms: C_1  and  C_34
    2  A    between atoms: C_1  and  C_35
    3  A    between atoms: C_2  and  C_13
    4  A    between atoms: C_3  and  C_4
    5  A    between atoms: C_3  and  C_12
    6  A    between atoms: N_6  and  C_12
    7  A    between atoms: C_11  and  C_14
    8  A    between atoms: C_14  and  C_41
    9  A    between atoms: C_21  and  C_30
                            x       y       z     vdW  Elec       q    Type
                         _______ _______ _______ _____ _____    ______ ____

>  <TORSDO>
F 9

$$$$
