=
 OpenBabel10262423543D

 34 39  0  0  1  0  0  0  0  0999 V2000
  184.4250  175.8390  137.3330 C   0  0  0  0  0  0  0  0  0  0  0  0
  185.9830  177.6870  137.6290 C   0  0  0  0  0  0  0  0  0  0  0  0
  183.5380  178.0880  138.1440 C   0  0  1  0  0  3  0  0  0  0  0  0
  182.3770  178.5110  140.3240 N   0  0  0  0  0  0  0  0  0  0  0  0
  186.7950  175.5130  136.9370 C   0  0  0  0  0  3  0  0  0  0  0  0
  187.0380  176.8470  137.2660 C   0  0  0  0  0  3  0  0  0  0  0  0
  184.6190  178.4470  140.4660 C   0  0  0  0  0  3  0  0  0  0  0  0
  184.6670  177.1890  137.6850 C   0  0  0  0  0  0  0  0  0  0  0  0
  182.6930  178.7560  141.6040 C   0  0  0  0  0  3  0  0  0  0  0  0
  185.4910  175.0160  136.9580 C   0  0  0  0  0  3  0  0  0  0  0  0
  182.1640  177.5950  137.6450 C   0  0  2  0  0  3  0  0  0  0  0  0
  183.0320  175.2900  137.2010 C   0  0  0  0  0  2  0  0  0  0  0  0
  186.2520  179.0190  137.9310 O   0  0  0  0  0  1  0  0  0  0  0  0
  181.0210  178.3910  139.7970 C   0  0  0  0  0  2  0  0  0  0  0  0
  181.0060  178.3980  138.2600 C   0  0  1  0  0  3  0  0  0  0  0  0
  184.0710  178.7290  141.7040 C   0  0  0  0  0  0  0  0  0  0  0  0
  183.5180  178.2940  139.6390 C   0  0  0  0  0  0  0  0  0  0  0  0
  181.9950  176.1110  137.9590 C   0  0  0  0  0  2  0  0  0  0  0  0
  180.6970  181.2970  135.8010 C   0  0  0  0  0  0  0  0  0  0  0  0
  180.6770  182.3860  136.6760 C   0  0  0  0  0  3  0  0  0  0  0  0
  180.9010  179.7820  137.6880 C   0  0  0  0  0  0  0  0  0  0  0  0
  180.7650  182.1770  138.0560 C   0  0  0  0  0  3  0  0  0  0  0  0
  180.8070  179.9990  136.3050 C   0  0  0  0  0  3  0  0  0  0  0  0
  180.8740  180.8770  138.5590 C   0  0  0  0  0  3  0  0  0  0  0  0
  180.6070  181.5000  134.4640 F   0  0  0  0  0  0  0  0  0  0  0  0
  184.8480  178.9540  142.9520 C   0  0  0  0  0  2  0  0  0  0  0  0
  185.5010  177.7520  143.3320 O   0  0  0  0  0  0  0  0  0  0  0  0
  188.4410  177.8290  142.0200 S   0  0  0  0  0  0  0  0  0  0  0  0
  186.6580  177.6890  144.1210 C   0  0  0  0  0  0  0  0  0  0  0  0
  188.0420  177.5380  143.5810 C   0  0  0  0  0  0  0  0  0  0  0  0
  188.9150  177.1800  145.8240 C   0  0  0  0  0  3  0  0  0  0  0  0
  187.6470  177.7320  146.4170 C   0  0  0  0  0  2  0  0  0  0  0  0
  186.4930  177.7360  145.4470 C   0  0  0  0  0  3  0  0  0  0  0  0
  189.1130  177.1390  144.5060 C   0  0  0  0  0  3  0  0  0  0  0  0
  1  8  1  0  0  0  0
  2  8  2  0  0  0  0
  2 13  1  0  0  0  0
  3  8  1  1  0  0  0
  3 17  1  0  0  0  0
  4  9  1  0  0  0  0
  5 10  1  0  0  0  0
  5  6  2  0  0  0  0
  6  2  1  0  0  0  0
  7 16  1  0  0  0  0
  9 16  2  0  0  0  0
 10  1  2  0  0  0  0
 11 18  1  1  0  0  0
 11  3  1  0  0  0  0
 11 15  1  0  0  0  0
 12  1  1  0  0  0  0
 12 18  1  0  0  0  0
 14  4  1  0  0  0  0
 15 21  1  6  0  0  0
 15 14  1  0  0  0  0
 16 26  1  0  0  0  0
 17  4  1  0  0  0  0
 17  7  2  0  0  0  0
 19 23  2  0  0  0  0
 19 20  1  0  0  0  0
 20 22  2  0  0  0  0
 21 24  2  0  0  0  0
 22 24  1  0  0  0  0
 23 21  1  0  0  0  0
 25 19  1  0  0  0  0
 26 27  1  0  0  0  0
 27 29  1  0  0  0  0
 28 30  2  0  0  0  0
 29 33  2  0  0  0  0
 30 29  1  0  0  0  0
 30 34  1  0  0  0  0
 31 32  1  0  0  0  0
 33 32  1  0  0  0  0
 34 31  2  0  0  0  0
M  END
>  <MODEL>
1

>  <REMARK>
 VINA RESULT:      -8.4      0.000      0.000
  Name = 
  4 active torsions:
  status: ('A' for Active; 'I' for Inactive)
    1  A    between atoms: O_3  and  C_13
    2  A    between atoms: O_3  and  C_17
    3  A    between atoms: C_12  and  C_28
    4  A    between atoms: C_17  and  C_29
                            x       y       z     vdW  Elec       q    Type
                         _______ _______ _______ _____ _____    ______ ____

>  <TORSDO>
F 4

$$$$
=
 OpenBabel10262423543D

 34 39  0  0  1  0  0  0  0  0999 V2000
  190.9390  174.5090  136.3350 C   0  0  0  0  0  0  0  0  0  0  0  0
  188.7990  173.4310  136.7720 C   0  0  0  0  0  0  0  0  0  0  0  0
  189.3010  175.6180  137.9420 C   0  0  1  0  0  3  0  0  0  0  0  0
  188.2790  177.8900  137.6650 N   0  0  0  0  0  0  0  0  0  0  0  0
  190.3520  172.4530  135.1920 C   0  0  0  0  0  3  0  0  0  0  0  0
  189.1290  172.4240  135.8620 C   0  0  0  0  0  3  0  0  0  0  0  0
  187.2600  176.2660  136.4910 C   0  0  0  0  0  3  0  0  0  0  0  0
  189.6930  174.4960  137.0050 C   0  0  0  0  0  0  0  0  0  0  0  0
  187.2430  178.4600  137.0300 C   0  0  0  0  0  3  0  0  0  0  0  0
  191.2590  173.4850  135.4380 C   0  0  0  0  0  3  0  0  0  0  0  0
  190.5300  176.3710  138.4930 C   0  0  2  0  0  3  0  0  0  0  0  0
  192.0080  175.5140  136.6650 C   0  0  0  0  0  2  0  0  0  0  0  0
  187.5820  173.3660  137.4420 O   0  0  0  0  0  1  0  0  0  0  0  0
  189.2560  178.5950  138.4890 C   0  0  0  0  0  2  0  0  0  0  0  0
  190.1290  177.6200  139.2950 C   0  0  1  0  0  3  0  0  0  0  0  0
  186.6010  177.4690  136.3110 C   0  0  0  0  0  0  0  0  0  0  0  0
  188.3180  176.5850  137.3270 C   0  0  0  0  0  0  0  0  0  0  0  0
  191.4600  176.7610  137.3480 C   0  0  0  0  0  2  0  0  0  0  0  0
  187.7550  177.4480  142.2750 C   0  0  0  0  0  0  0  0  0  0  0  0
  188.4550  176.5850  143.1210 C   0  0  0  0  0  3  0  0  0  0  0  0
  189.5340  177.2780  140.6300 C   0  0  0  0  0  0  0  0  0  0  0  0
  189.6900  176.0640  142.7250 C   0  0  0  0  0  3  0  0  0  0  0  0
  188.2910  177.7930  141.0320 C   0  0  0  0  0  3  0  0  0  0  0  0
  190.2260  176.4090  141.4800 C   0  0  0  0  0  3  0  0  0  0  0  0
  186.5550  177.9490  142.6580 F   0  0  0  0  0  0  0  0  0  0  0  0
  185.3960  177.6660  135.4620 C   0  0  0  0  0  2  0  0  0  0  0  0
  184.3490  176.8200  135.9130 O   0  0  0  0  0  0  0  0  0  0  0  0
  184.0830  174.1070  137.6270 S   0  0  0  0  0  0  0  0  0  0  0  0
  183.8290  176.8220  137.2150 C   0  0  0  0  0  0  0  0  0  0  0  0
  183.5080  175.5940  138.0000 C   0  0  0  0  0  0  0  0  0  0  0  0
  182.4090  176.9300  139.7100 C   0  0  0  0  0  3  0  0  0  0  0  0
  183.0680  178.1730  139.1770 C   0  0  0  0  0  2  0  0  0  0  0  0
  183.5770  178.0140  137.7670 C   0  0  0  0  0  3  0  0  0  0  0  0
  182.6570  175.7270  139.1910 C   0  0  0  0  0  3  0  0  0  0  0  0
  1 12  1  0  0  0  0
  1  8  1  0  0  0  0
  2  8  2  0  0  0  0
  2 13  1  0  0  0  0
  3  8  1  6  0  0  0
  3 11  1  0  0  0  0
  4 14  1  0  0  0  0
  5 10  1  0  0  0  0
  5  6  2  0  0  0  0
  6  2  1  0  0  0  0
  7 17  2  0  0  0  0
  9  4  1  0  0  0  0
 10  1  2  0  0  0  0
 11 18  1  6  0  0  0
 11 15  1  0  0  0  0
 12 18  1  0  0  0  0
 14 15  1  0  0  0  0
 15 21  1  1  0  0  0
 16  7  1  0  0  0  0
 16  9  2  0  0  0  0
 17  4  1  0  0  0  0
 17  3  1  0  0  0  0
 19 25  1  0  0  0  0
 19 20  1  0  0  0  0
 21 23  1  0  0  0  0
 21 24  2  0  0  0  0
 22 20  2  0  0  0  0
 23 19  2  0  0  0  0
 24 22  1  0  0  0  0
 26 27  1  0  0  0  0
 26 16  1  0  0  0  0
 27 29  1  0  0  0  0
 28 30  2  0  0  0  0
 29 33  2  0  0  0  0
 29 30  1  0  0  0  0
 30 34  1  0  0  0  0
 32 31  1  0  0  0  0
 33 32  1  0  0  0  0
 34 31  2  0  0  0  0
M  END
>  <MODEL>
2

>  <REMARK>
 VINA RESULT:      -7.0      3.859      8.048
  Name = 
  4 active torsions:
  status: ('A' for Active; 'I' for Inactive)
    1  A    between atoms: O_3  and  C_13
    2  A    between atoms: O_3  and  C_17
    3  A    between atoms: C_12  and  C_28
    4  A    between atoms: C_17  and  C_29
                            x       y       z     vdW  Elec       q    Type
                         _______ _______ _______ _____ _____    ______ ____

>  <TORSDO>
F 4

$$$$
=
 OpenBabel10262423543D

 34 39  0  0  1  0  0  0  0  0999 V2000
  181.6800  178.8930  136.9600 C   0  0  0  0  0  0  0  0  0  0  0  0
  182.7060  178.3090  139.0900 C   0  0  0  0  0  0  0  0  0  0  0  0
  183.2000  176.8500  137.0820 C   0  0  1  0  0  3  0  0  0  0  0  0
  185.3210  176.5160  135.7900 N   0  0  0  0  0  0  0  0  0  0  0  0
  181.3190  180.2850  138.9110 C   0  0  0  0  0  3  0  0  0  0  0  0
  182.1190  179.4350  139.6730 C   0  0  0  0  0  3  0  0  0  0  0  0
  185.5490  177.7840  137.6320 C   0  0  0  0  0  3  0  0  0  0  0  0
  182.5080  178.0340  137.7220 C   0  0  0  0  0  0  0  0  0  0  0  0
  186.6190  176.8460  135.8780 C   0  0  0  0  0  3  0  0  0  0  0  0
  181.0900  180.0070  137.5630 C   0  0  0  0  0  3  0  0  0  0  0  0
  182.4860  176.3850  135.7970 C   0  0  2  0  0  3  0  0  0  0  0  0
  181.2850  178.5660  135.5460 C   0  0  0  0  0  2  0  0  0  0  0  0
  183.4820  177.4650  139.8790 O   0  0  0  0  0  1  0  0  0  0  0  0
  184.7170  175.7520  134.7030 C   0  0  0  0  0  2  0  0  0  0  0  0
  183.2870  175.3050  135.0510 C   0  0  1  0  0  3  0  0  0  0  0  0
  186.7750  177.6190  137.0130 C   0  0  0  0  0  0  0  0  0  0  0  0
  184.6660  177.0960  136.8160 C   0  0  0  0  0  0  0  0  0  0  0  0
  182.2330  177.5770  134.8780 C   0  0  0  0  0  2  0  0  0  0  0  0
  182.0550  172.2300  136.9400 C   0  0  0  0  0  0  0  0  0  0  0  0
  183.2300  171.4780  137.0160 C   0  0  0  0  0  3  0  0  0  0  0  0
  183.2500  173.9770  135.7490 C   0  0  0  0  0  0  0  0  0  0  0  0
  184.4130  171.9690  136.4570 C   0  0  0  0  0  3  0  0  0  0  0  0
  182.0640  173.4750  136.3070 C   0  0  0  0  0  3  0  0  0  0  0  0
  184.4210  173.2150  135.8230 C   0  0  0  0  0  3  0  0  0  0  0  0
  180.9070  171.7510  137.4780 F   0  0  0  0  0  0  0  0  0  0  0  0
  188.0590  178.1980  137.4900 C   0  0  0  0  0  2  0  0  0  0  0  0
  187.8900  178.7250  138.7980 O   0  0  0  0  0  0  0  0  0  0  0  0
  186.3650  178.7980  141.6330 S   0  0  0  0  0  0  0  0  0  0  0  0
  188.4660  178.1830  139.9550 C   0  0  0  0  0  0  0  0  0  0  0  0
  187.9070  178.3390  141.3300 C   0  0  0  0  0  0  0  0  0  0  0  0
  189.9210  177.3750  142.2970 C   0  0  0  0  0  3  0  0  0  0  0  0
  190.3200  176.8320  140.9510 C   0  0  0  0  0  2  0  0  0  0  0  0
  189.6140  177.5130  139.8060 C   0  0  0  0  0  3  0  0  0  0  0  0
  188.7740  178.0300  142.4770 C   0  0  0  0  0  3  0  0  0  0  0  0
  1 10  2  0  0  0  0
  1  8  1  0  0  0  0
  2  6  1  0  0  0  0
  2 13  1  0  0  0  0
  3 17  1  6  0  0  0
  3  8  1  0  0  0  0
  4  9  1  0  0  0  0
  4 17  1  0  0  0  0
  5  6  2  0  0  0  0
  8  2  2  0  0  0  0
  9 16  2  0  0  0  0
 10  5  1  0  0  0  0
 11 18  1  6  0  0  0
 11  3  1  0  0  0  0
 12  1  1  0  0  0  0
 14 15  1  0  0  0  0
 14  4  1  0  0  0  0
 15 21  1  1  0  0  0
 15 11  1  0  0  0  0
 16 26  1  0  0  0  0
 16  7  1  0  0  0  0
 17  7  2  0  0  0  0
 18 12  1  0  0  0  0
 19 20  1  0  0  0  0
 19 25  1  0  0  0  0
 21 24  2  0  0  0  0
 21 23  1  0  0  0  0
 22 20  2  0  0  0  0
 23 19  2  0  0  0  0
 24 22  1  0  0  0  0
 26 27  1  0  0  0  0
 27 29  1  0  0  0  0
 29 30  1  0  0  0  0
 30 28  2  0  0  0  0
 30 34  1  0  0  0  0
 31 34  2  0  0  0  0
 32 31  1  0  0  0  0
 33 29  2  0  0  0  0
 33 32  1  0  0  0  0
M  END
>  <MODEL>
3

>  <REMARK>
 VINA RESULT:      -6.9      2.973      6.014
  Name = 
  4 active torsions:
  status: ('A' for Active; 'I' for Inactive)
    1  A    between atoms: O_3  and  C_13
    2  A    between atoms: O_3  and  C_17
    3  A    between atoms: C_12  and  C_28
    4  A    between atoms: C_17  and  C_29
                            x       y       z     vdW  Elec       q    Type
                         _______ _______ _______ _____ _____    ______ ____

>  <TORSDO>
F 4

$$$$
=
 OpenBabel10262423543D

 34 39  0  0  1  0  0  0  0  0999 V2000
  181.7250  178.9070  137.2560 C   0  0  0  0  0  0  0  0  0  0  0  0
  182.5110  178.1680  139.4400 C   0  0  0  0  0  0  0  0  0  0  0  0
  183.2160  176.8450  137.4020 C   0  0  1  0  0  3  0  0  0  0  0  0
  185.4640  176.5780  136.3270 N   0  0  0  0  0  0  0  0  0  0  0  0
  181.1570  180.1670  139.2490 C   0  0  0  0  0  3  0  0  0  0  0  0
  181.8680  179.2580  140.0320 C   0  0  0  0  0  3  0  0  0  0  0  0
  185.4940  177.7140  138.2660 C   0  0  0  0  0  3  0  0  0  0  0  0
  182.4620  177.9900  138.0430 C   0  0  0  0  0  0  0  0  0  0  0  0
  186.7460  176.8880  136.5770 C   0  0  0  0  0  3  0  0  0  0  0  0
  181.0760  179.9840  137.8680 C   0  0  0  0  0  3  0  0  0  0  0  0
  182.6440  176.4770  136.0170 C   0  0  2  0  0  3  0  0  0  0  0  0
  181.4850  178.6820  135.7900 C   0  0  0  0  0  2  0  0  0  0  0  0
  183.1940  177.2650  140.2480 O   0  0  0  0  0  1  0  0  0  0  0  0
  184.9790  175.8970  135.1300 C   0  0  0  0  0  2  0  0  0  0  0  0
  183.5190  175.4420  135.2890 C   0  0  1  0  0  3  0  0  0  0  0  0
  186.7800  177.5790  137.7730 C   0  0  0  0  0  0  0  0  0  0  0  0
  184.7030  177.0930  137.3130 C   0  0  0  0  0  0  0  0  0  0  0  0
  182.4970  177.7310  135.1610 C   0  0  0  0  0  2  0  0  0  0  0  0
  182.0740  172.2370  136.7670 C   0  0  0  0  0  0  0  0  0  0  0  0
  183.2380  171.4910  136.9690 C   0  0  0  0  0  3  0  0  0  0  0  0
  183.4020  174.0700  135.8860 C   0  0  0  0  0  0  0  0  0  0  0  0
  184.4830  172.0280  136.6290 C   0  0  0  0  0  3  0  0  0  0  0  0
  182.1550  173.5220  136.2250 C   0  0  0  0  0  3  0  0  0  0  0  0
  184.5630  173.3150  136.0850 C   0  0  0  0  0  3  0  0  0  0  0  0
  180.8670  171.7140  137.0940 F   0  0  0  0  0  0  0  0  0  0  0  0
  188.0060  178.1110  138.4250 C   0  0  0  0  0  2  0  0  0  0  0  0
  187.6590  178.7560  139.6420 O   0  0  0  0  0  0  0  0  0  0  0  0
  190.3910  177.2850  140.5050 S   0  0  0  0  0  0  0  0  0  0  0  0
  187.8180  178.1920  140.9150 C   0  0  0  0  0  0  0  0  0  0  0  0
  188.9750  177.3420  141.3250 C   0  0  0  0  0  0  0  0  0  0  0  0
  187.8590  176.7670  143.4100 C   0  0  0  0  0  3  0  0  0  0  0  0
  186.9010  177.9120  143.2240 C   0  0  0  0  0  2  0  0  0  0  0  0
  186.8420  178.4110  141.8030 C   0  0  0  0  0  3  0  0  0  0  0  0
  188.8530  176.5380  142.5500 C   0  0  0  0  0  3  0  0  0  0  0  0
  1 10  2  0  0  0  0
  1  8  1  0  0  0  0
  2  6  1  0  0  0  0
  2 13  1  0  0  0  0
  3 17  1  6  0  0  0
  3  8  1  0  0  0  0
  4  9  1  0  0  0  0
  4 17  1  0  0  0  0
  5  6  2  0  0  0  0
  8  2  2  0  0  0  0
  9 16  2  0  0  0  0
 10  5  1  0  0  0  0
 11 18  1  6  0  0  0
 11  3  1  0  0  0  0
 12  1  1  0  0  0  0
 14 15  1  0  0  0  0
 14  4  1  0  0  0  0
 15 21  1  1  0  0  0
 15 11  1  0  0  0  0
 16  7  1  0  0  0  0
 16 26  1  0  0  0  0
 17  7  2  0  0  0  0
 18 12  1  0  0  0  0
 19 20  1  0  0  0  0
 19 25  1  0  0  0  0
 21 24  2  0  0  0  0
 21 23  1  0  0  0  0
 22 20  2  0  0  0  0
 23 19  2  0  0  0  0
 24 22  1  0  0  0  0
 26 27  1  0  0  0  0
 27 29  1  0  0  0  0
 28 30  2  0  0  0  0
 29 30  1  0  0  0  0
 29 33  2  0  0  0  0
 30 34  1  0  0  0  0
 32 31  1  0  0  0  0
 33 32  1  0  0  0  0
 34 31  2  0  0  0  0
M  END
>  <MODEL>
4

>  <REMARK>
 VINA RESULT:      -6.8      2.780      5.736
  Name = 
  4 active torsions:
  status: ('A' for Active; 'I' for Inactive)
    1  A    between atoms: O_3  and  C_13
    2  A    between atoms: O_3  and  C_17
    3  A    between atoms: C_12  and  C_28
    4  A    between atoms: C_17  and  C_29
                            x       y       z     vdW  Elec       q    Type
                         _______ _______ _______ _____ _____    ______ ____

>  <TORSDO>
F 4

$$$$
=
 OpenBabel10262423543D

 34 39  0  0  1  0  0  0  0  0999 V2000
  189.8320  173.7060  135.7110 C   0  0  0  0  0  0  0  0  0  0  0  0
  187.8170  172.9280  136.8370 C   0  0  0  0  0  0  0  0  0  0  0  0
  188.6020  175.2920  137.2830 C   0  0  1  0  0  3  0  0  0  0  0  0
  187.5880  177.4950  136.6520 N   0  0  0  0  0  0  0  0  0  0  0  0
  188.9720  171.4810  135.2750 C   0  0  0  0  0  3  0  0  0  0  0  0
  187.9230  171.7070  136.1660 C   0  0  0  0  0  3  0  0  0  0  0  0
  186.3090  175.7130  136.1650 C   0  0  0  0  0  3  0  0  0  0  0  0
  188.7610  173.9480  136.6040 C   0  0  0  0  0  0  0  0  0  0  0  0
  186.4510  177.9660  136.1190 C   0  0  0  0  0  3  0  0  0  0  0  0
  189.9300  172.4730  135.0600 C   0  0  0  0  0  3  0  0  0  0  0  0
  189.9360  176.0640  137.3610 C   0  0  2  0  0  3  0  0  0  0  0  0
  190.9660  174.6790  135.5490 C   0  0  0  0  0  2  0  0  0  0  0  0
  186.7740  173.1180  137.7370 O   0  0  0  0  0  1  0  0  0  0  0  0
  188.7340  178.3070  137.0510 C   0  0  0  0  0  2  0  0  0  0  0  0
  189.7420  177.4970  137.8830 C   0  0  1  0  0  3  0  0  0  0  0  0
  185.6490  176.8800  135.8230 C   0  0  0  0  0  0  0  0  0  0  0  0
  187.5280  176.1480  136.6570 C   0  0  0  0  0  0  0  0  0  0  0  0
  190.6040  176.0930  135.9890 C   0  0  0  0  0  2  0  0  0  0  0  0
  189.9520  176.9210  141.6470 C   0  0  0  0  0  0  0  0  0  0  0  0
  188.8590  177.6700  142.0900 C   0  0  0  0  0  3  0  0  0  0  0  0
  189.4440  177.5370  139.3530 C   0  0  0  0  0  0  0  0  0  0  0  0
  188.0600  178.3550  141.1710 C   0  0  0  0  0  3  0  0  0  0  0  0
  190.2450  176.8560  140.2830 C   0  0  0  0  0  3  0  0  0  0  0  0
  188.3550  178.2900  139.8050 C   0  0  0  0  0  3  0  0  0  0  0  0
  190.7290  176.2600  142.5390 F   0  0  0  0  0  0  0  0  0  0  0  0
  184.2930  176.9510  135.2170 C   0  0  0  0  0  2  0  0  0  0  0  0
  183.4250  177.6810  136.0710 O   0  0  0  0  0  0  0  0  0  0  0  0
  184.1020  178.9430  138.9550 S   0  0  0  0  0  0  0  0  0  0  0  0
  182.8540  177.1730  137.2470 C   0  0  0  0  0  0  0  0  0  0  0  0
  183.2530  177.5820  138.6260 C   0  0  0  0  0  0  0  0  0  0  0  0
  181.9040  175.7980  139.5840 C   0  0  0  0  0  3  0  0  0  0  0  0
  181.1730  175.6370  138.2790 C   0  0  0  0  0  2  0  0  0  0  0  0
  181.9110  176.2350  137.1080 C   0  0  0  0  0  3  0  0  0  0  0  0
  182.8350  176.7380  139.7550 C   0  0  0  0  0  3  0  0  0  0  0  0
  1  8  1  0  0  0  0
  2 13  1  0  0  0  0
  3  8  1  6  0  0  0
  3 11  1  0  0  0  0
  4 17  1  0  0  0  0
  4 14  1  0  0  0  0
  5  6  2  0  0  0  0
  6  2  1  0  0  0  0
  7 17  2  0  0  0  0
  8  2  2  0  0  0  0
  9  4  1  0  0  0  0
 10  5  1  0  0  0  0
 10  1  2  0  0  0  0
 11 18  1  6  0  0  0
 11 15  1  0  0  0  0
 12  1  1  0  0  0  0
 12 18  1  0  0  0  0
 14 15  1  0  0  0  0
 15 21  1  1  0  0  0
 16  9  2  0  0  0  0
 16  7  1  0  0  0  0
 17  3  1  0  0  0  0
 19 20  1  0  0  0  0
 19 25  1  0  0  0  0
 21 24  2  0  0  0  0
 21 23  1  0  0  0  0
 22 20  2  0  0  0  0
 23 19  2  0  0  0  0
 24 22  1  0  0  0  0
 26 16  1  0  0  0  0
 26 27  1  0  0  0  0
 27 29  1  0  0  0  0
 29 30  1  0  0  0  0
 30 28  2  0  0  0  0
 30 34  1  0  0  0  0
 31 34  2  0  0  0  0
 32 31  1  0  0  0  0
 33 29  2  0  0  0  0
 33 32  1  0  0  0  0
M  END
>  <MODEL>
5

>  <REMARK>
 VINA RESULT:      -6.8      4.184      8.020
  Name = 
  4 active torsions:
  status: ('A' for Active; 'I' for Inactive)
    1  A    between atoms: O_3  and  C_13
    2  A    between atoms: O_3  and  C_17
    3  A    between atoms: C_12  and  C_28
    4  A    between atoms: C_17  and  C_29
                            x       y       z     vdW  Elec       q    Type
                         _______ _______ _______ _____ _____    ______ ____

>  <TORSDO>
F 4

$$$$
=
 OpenBabel10262423543D

 34 39  0  0  1  0  0  0  0  0999 V2000
  181.0040  179.8250  136.9190 C   0  0  0  0  0  0  0  0  0  0  0  0
  181.3470  179.1110  139.2220 C   0  0  0  0  0  0  0  0  0  0  0  0
  182.1890  177.6130  137.3640 C   0  0  1  0  0  3  0  0  0  0  0  0
  184.5260  177.0320  136.6690 N   0  0  0  0  0  0  0  0  0  0  0  0
  180.2960  181.2420  138.7550 C   0  0  0  0  0  3  0  0  0  0  0  0
  180.7590  180.2960  139.6700 C   0  0  0  0  0  3  0  0  0  0  0  0
  184.3960  178.2530  138.5510 C   0  0  0  0  0  3  0  0  0  0  0  0
  181.4920  178.8700  137.8410 C   0  0  0  0  0  0  0  0  0  0  0  0
  185.7820  177.2020  137.1100 C   0  0  0  0  0  3  0  0  0  0  0  0
  180.4060  181.0000  137.3850 C   0  0  0  0  0  3  0  0  0  0  0  0
  181.7960  177.2450  135.9180 C   0  0  2  0  0  3  0  0  0  0  0  0
  180.9670  179.5560  135.4400 C   0  0  0  0  0  2  0  0  0  0  0  0
  181.7810  178.1750  140.1550 O   0  0  0  0  0  1  0  0  0  0  0  0
  184.1500  176.3520  135.4330 C   0  0  0  0  0  2  0  0  0  0  0  0
  182.6380  176.0800  135.3720 C   0  0  1  0  0  3  0  0  0  0  0  0
  185.7160  177.9440  138.2740 C   0  0  0  0  0  0  0  0  0  0  0  0
  183.6910  177.6810  137.5050 C   0  0  0  0  0  0  0  0  0  0  0  0
  181.9380  178.4630  135.0110 C   0  0  0  0  0  2  0  0  0  0  0  0
  182.8570  172.5910  136.8970 C   0  0  0  0  0  0  0  0  0  0  0  0
  181.5090  172.3310  137.1550 C   0  0  0  0  0  3  0  0  0  0  0  0
  182.2630  174.7620  135.9850 C   0  0  0  0  0  0  0  0  0  0  0  0
  180.5370  173.2830  136.8340 C   0  0  0  0  0  3  0  0  0  0  0  0
  183.2340  173.8040  136.3150 C   0  0  0  0  0  3  0  0  0  0  0  0
  180.9150  174.4970  136.2530 C   0  0  0  0  0  3  0  0  0  0  0  0
  183.7990  171.6690  137.2130 F   0  0  0  0  0  0  0  0  0  0  0  0
  186.8830  178.3610  139.0950 C   0  0  0  0  0  2  0  0  0  0  0  0
  186.4340  178.8610  140.3460 O   0  0  0  0  0  0  0  0  0  0  0  0
  184.2260  178.5250  142.6660 S   0  0  0  0  0  0  0  0  0  0  0  0
  186.7550  178.3000  141.5900 C   0  0  0  0  0  0  0  0  0  0  0  0
  185.8410  178.2770  142.7690 C   0  0  0  0  0  0  0  0  0  0  0  0
  187.6440  177.4840  144.1970 C   0  0  0  0  0  3  0  0  0  0  0  0
  188.4490  177.1020  142.9850 C   0  0  0  0  0  2  0  0  0  0  0  0
  187.9820  177.7850  141.7250 C   0  0  0  0  0  3  0  0  0  0  0  0
  186.4120  177.9830  144.0920 C   0  0  0  0  0  3  0  0  0  0  0  0
  1 10  2  0  0  0  0
  1  8  1  0  0  0  0
  2  6  1  0  0  0  0
  2 13  1  0  0  0  0
  3 17  1  6  0  0  0
  3  8  1  0  0  0  0
  4  9  1  0  0  0  0
  4 17  1  0  0  0  0
  5  6  2  0  0  0  0
  8  2  2  0  0  0  0
  9 16  2  0  0  0  0
 10  5  1  0  0  0  0
 11 18  1  6  0  0  0
 11  3  1  0  0  0  0
 12  1  1  0  0  0  0
 14  4  1  0  0  0  0
 15 14  1  0  0  0  0
 15 11  1  0  0  0  0
 15 21  1  1  0  0  0
 16  7  1  0  0  0  0
 16 26  1  0  0  0  0
 17  7  2  0  0  0  0
 18 12  1  0  0  0  0
 19 20  1  0  0  0  0
 19 25  1  0  0  0  0
 21 24  2  0  0  0  0
 21 23  1  0  0  0  0
 22 20  2  0  0  0  0
 23 19  2  0  0  0  0
 24 22  1  0  0  0  0
 26 27  1  0  0  0  0
 27 29  1  0  0  0  0
 28 30  2  0  0  0  0
 29 33  2  0  0  0  0
 29 30  1  0  0  0  0
 30 34  1  0  0  0  0
 32 31  1  0  0  0  0
 33 32  1  0  0  0  0
 34 31  2  0  0  0  0
M  END
>  <MODEL>
6

>  <REMARK>
 VINA RESULT:      -6.7      2.793      5.592
  Name = 
  4 active torsions:
  status: ('A' for Active; 'I' for Inactive)
    1  A    between atoms: O_3  and  C_13
    2  A    between atoms: O_3  and  C_17
    3  A    between atoms: C_12  and  C_28
    4  A    between atoms: C_17  and  C_29
                            x       y       z     vdW  Elec       q    Type
                         _______ _______ _______ _____ _____    ______ ____

>  <TORSDO>
F 4

$$$$
=
 OpenBabel10262423543D

 34 39  0  0  1  0  0  0  0  0999 V2000
  182.2080  177.3770  135.5540 C   0  0  0  0  0  0  0  0  0  0  0  0
  181.8370  176.2610  137.6870 C   0  0  0  0  0  0  0  0  0  0  0  0
  184.2000  176.3760  136.7900 C   0  0  1  0  0  3  0  0  0  0  0  0
  186.2010  177.6360  137.6170 N   0  0  0  0  0  0  0  0  0  0  0  0
  179.9840  177.2950  136.5190 C   0  0  0  0  0  3  0  0  0  0  0  0
  180.4790  176.5830  137.6110 C   0  0  0  0  0  3  0  0  0  0  0  0
  184.4090  177.7530  138.9690 C   0  0  0  0  0  3  0  0  0  0  0  0
  182.7200  176.6700  136.6680 C   0  0  0  0  0  0  0  0  0  0  0  0
  186.5640  178.3660  138.6830 C   0  0  0  0  0  3  0  0  0  0  0  0
  180.8440  177.6780  135.4880 C   0  0  0  0  0  3  0  0  0  0  0  0
  184.9090  176.3890  135.4190 C   0  0  2  0  0  3  0  0  0  0  0  0
  183.0560  177.6890  134.3530 C   0  0  0  0  0  2  0  0  0  0  0  0
  182.2990  175.5320  138.7780 O   0  0  0  0  0  1  0  0  0  0  0  0
  187.0410  177.3660  136.4540 C   0  0  0  0  0  2  0  0  0  0  0  0
  186.4360  176.2720  135.5600 C   0  0  1  0  0  3  0  0  0  0  0  0
  185.4730  178.4380  139.5280 C   0  0  0  0  0  0  0  0  0  0  0  0
  184.9060  177.2900  137.7620 C   0  0  0  0  0  0  0  0  0  0  0  0
  184.5490  177.6600  134.6570 C   0  0  0  0  0  2  0  0  0  0  0  0
  188.5320  173.3550  136.8410 C   0  0  0  0  0  0  0  0  0  0  0  0
  187.6250  172.3000  136.7110 C   0  0  0  0  0  3  0  0  0  0  0  0
  186.8720  174.8920  135.9570 C   0  0  0  0  0  0  0  0  0  0  0  0
  186.3420  172.5370  136.2100 C   0  0  0  0  0  3  0  0  0  0  0  0
  188.1570  174.6470  136.4660 C   0  0  0  0  0  3  0  0  0  0  0  0
  185.9660  173.8320  135.8370 C   0  0  0  0  0  3  0  0  0  0  0  0
  189.7750  173.1250  137.3300 F   0  0  0  0  0  0  0  0  0  0  0  0
  185.4390  179.1540  140.8310 C   0  0  0  0  0  2  0  0  0  0  0  0
  185.0910  178.2460  141.8660 O   0  0  0  0  0  0  0  0  0  0  0  0
  188.2510  177.6620  142.0810 S   0  0  0  0  0  0  0  0  0  0  0  0
  185.7400  178.1670  143.1070 C   0  0  0  0  0  0  0  0  0  0  0  0
  187.1530  177.7230  143.2950 C   0  0  0  0  0  0  0  0  0  0  0  0
  186.8510  177.6640  145.7080 C   0  0  0  0  0  3  0  0  0  0  0  0
  185.6000  178.4910  145.5820 C   0  0  0  0  0  2  0  0  0  0  0  0
  185.0210  178.4790  144.1900 C   0  0  0  0  0  3  0  0  0  0  0  0
  187.5960  177.3530  144.6470 C   0  0  0  0  0  3  0  0  0  0  0  0
  1  8  1  0  0  0  0
  2 13  1  0  0  0  0
  3  8  1  6  0  0  0
  3 17  1  0  0  0  0
  4 17  1  0  0  0  0
  4  9  1  0  0  0  0
  5  6  2  0  0  0  0
  6  2  1  0  0  0  0
  7 16  1  0  0  0  0
  8  2  2  0  0  0  0
  9 16  2  0  0  0  0
 10  1  2  0  0  0  0
 10  5  1  0  0  0  0
 11 18  1  1  0  0  0
 11 15  1  0  0  0  0
 11  3  1  0  0  0  0
 12 18  1  0  0  0  0
 12  1  1  0  0  0  0
 14  4  1  0  0  0  0
 15 21  1  1  0  0  0
 15 14  1  0  0  0  0
 16 26  1  0  0  0  0
 17  7  2  0  0  0  0
 19 25  1  0  0  0  0
 20 19  1  0  0  0  0
 21 23  1  0  0  0  0
 22 20  2  0  0  0  0
 23 19  2  0  0  0  0
 24 21  2  0  0  0  0
 24 22  1  0  0  0  0
 26 27  1  0  0  0  0
 27 29  1  0  0  0  0
 28 30  2  0  0  0  0
 29 30  1  0  0  0  0
 29 33  2  0  0  0  0
 30 34  1  0  0  0  0
 32 31  1  0  0  0  0
 33 32  1  0  0  0  0
 34 31  2  0  0  0  0
M  END
>  <MODEL>
7

>  <REMARK>
 VINA RESULT:      -6.4      3.211      5.973
  Name = 
  4 active torsions:
  status: ('A' for Active; 'I' for Inactive)
    1  A    between atoms: O_3  and  C_13
    2  A    between atoms: O_3  and  C_17
    3  A    between atoms: C_12  and  C_28
    4  A    between atoms: C_17  and  C_29
                            x       y       z     vdW  Elec       q    Type
                         _______ _______ _______ _____ _____    ______ ____

>  <TORSDO>
F 4

$$$$
=
 OpenBabel10262423543D

 34 39  0  0  1  0  0  0  0  0999 V2000
  190.6390  174.2100  135.9920 C   0  0  0  0  0  0  0  0  0  0  0  0
  188.4890  173.2640  136.6360 C   0  0  0  0  0  0  0  0  0  0  0  0
  189.0870  175.5700  137.4890 C   0  0  1  0  0  3  0  0  0  0  0  0
  188.1150  177.8150  136.9440 N   0  0  0  0  0  0  0  0  0  0  0  0
  189.9590  172.0390  135.1520 C   0  0  0  0  0  3  0  0  0  0  0  0
  188.7600  172.1360  135.8590 C   0  0  0  0  0  3  0  0  0  0  0  0
  187.0140  176.0820  136.0300 C   0  0  0  0  0  3  0  0  0  0  0  0
  189.4170  174.3220  136.6980 C   0  0  0  0  0  0  0  0  0  0  0  0
  187.0720  178.3270  136.2720 C   0  0  0  0  0  3  0  0  0  0  0  0
  190.9000  173.0670  135.2300 C   0  0  0  0  0  3  0  0  0  0  0  0
  190.3530  176.3520  137.8950 C   0  0  2  0  0  3  0  0  0  0  0  0
  191.7440  175.2160  136.1520 C   0  0  0  0  0  2  0  0  0  0  0  0
  187.2950  173.3240  137.3480 O   0  0  0  0  0  1  0  0  0  0  0  0
  189.1370  178.5940  137.6360 C   0  0  0  0  0  2  0  0  0  0  0  0
  190.0130  177.7070  138.5360 C   0  0  1  0  0  3  0  0  0  0  0  0
  186.3800  177.2700  135.7120 C   0  0  0  0  0  0  0  0  0  0  0  0
  188.1080  176.4770  136.7810 C   0  0  0  0  0  0  0  0  0  0  0  0
  191.2530  176.5590  136.6800 C   0  0  0  0  0  2  0  0  0  0  0  0
  187.7720  178.0510  141.6030 C   0  0  0  0  0  0  0  0  0  0  0  0
  188.4470  177.2360  142.5160 C   0  0  0  0  0  3  0  0  0  0  0  0
  189.4570  177.5630  139.9230 C   0  0  0  0  0  0  0  0  0  0  0  0
  189.6220  176.5820  142.1360 C   0  0  0  0  0  3  0  0  0  0  0  0
  188.2750  178.2140  140.3100 C   0  0  0  0  0  3  0  0  0  0  0  0
  190.1230  176.7440  140.8400 C   0  0  0  0  0  3  0  0  0  0  0  0
  186.6310  178.6820  141.9710 F   0  0  0  0  0  0  0  0  0  0  0  0
  185.1510  177.3890  134.8830 C   0  0  0  0  0  2  0  0  0  0  0  0
  184.0440  176.8460  135.5860 O   0  0  0  0  0  0  0  0  0  0  0  0
  183.0540  175.5880  138.3800 S   0  0  0  0  0  0  0  0  0  0  0  0
  183.7820  175.4750  135.7220 C   0  0  0  0  0  0  0  0  0  0  0  0
  183.4980  174.7930  137.0190 C   0  0  0  0  0  0  0  0  0  0  0  0
  183.6470  172.6140  135.9470 C   0  0  0  0  0  3  0  0  0  0  0  0
  183.5170  173.2600  134.5940 C   0  0  0  0  0  2  0  0  0  0  0  0
  183.8280  174.7350  134.6100 C   0  0  0  0  0  3  0  0  0  0  0  0
  183.5870  173.3270  137.0730 C   0  0  0  0  0  3  0  0  0  0  0  0
  1 12  1  0  0  0  0
  1  8  1  0  0  0  0
  2  8  2  0  0  0  0
  2 13  1  0  0  0  0
  3  8  1  6  0  0  0
  3 11  1  0  0  0  0
  4 14  1  0  0  0  0
  5 10  1  0  0  0  0
  5  6  2  0  0  0  0
  6  2  1  0  0  0  0
  7 17  2  0  0  0  0
  9  4  1  0  0  0  0
 10  1  2  0  0  0  0
 11 18  1  6  0  0  0
 11 15  1  0  0  0  0
 12 18  1  0  0  0  0
 14 15  1  0  0  0  0
 15 21  1  1  0  0  0
 16  7  1  0  0  0  0
 16  9  2  0  0  0  0
 17  4  1  0  0  0  0
 17  3  1  0  0  0  0
 19 25  1  0  0  0  0
 19 20  1  0  0  0  0
 21 23  1  0  0  0  0
 21 24  2  0  0  0  0
 22 20  2  0  0  0  0
 23 19  2  0  0  0  0
 24 22  1  0  0  0  0
 26 27  1  0  0  0  0
 26 16  1  0  0  0  0
 27 29  1  0  0  0  0
 29 30  1  0  0  0  0
 30 34  1  0  0  0  0
 30 28  2  0  0  0  0
 31 34  2  0  0  0  0
 32 33  1  0  0  0  0
 32 31  1  0  0  0  0
 33 29  2  0  0  0  0
M  END
>  <MODEL>
8

>  <REMARK>
 VINA RESULT:      -6.4      4.644      8.479
  Name = 
  4 active torsions:
  status: ('A' for Active; 'I' for Inactive)
    1  A    between atoms: O_3  and  C_13
    2  A    between atoms: O_3  and  C_17
    3  A    between atoms: C_12  and  C_28
    4  A    between atoms: C_17  and  C_29
                            x       y       z     vdW  Elec       q    Type
                         _______ _______ _______ _____ _____    ______ ____

>  <TORSDO>
F 4

$$$$
=
 OpenBabel10262423543D

 34 39  0  0  1  0  0  0  0  0999 V2000
  187.6080  177.1110  135.3980 C   0  0  0  0  0  0  0  0  0  0  0  0
  186.9910  175.5150  137.1310 C   0  0  0  0  0  0  0  0  0  0  0  0
  189.3960  175.5610  136.3460 C   0  0  1  0  0  3  0  0  0  0  0  0
  191.4860  176.2780  137.5290 N   0  0  0  0  0  0  0  0  0  0  0  0
  185.3420  177.0600  136.2590 C   0  0  0  0  0  3  0  0  0  0  0  0
  185.6880  176.0200  137.1210 C   0  0  0  0  0  3  0  0  0  0  0  0
  189.6500  176.2540  138.8250 C   0  0  0  0  0  3  0  0  0  0  0  0
  187.9710  176.0670  136.2820 C   0  0  0  0  0  0  0  0  0  0  0  0
  191.8750  176.6360  138.7620 C   0  0  0  0  0  3  0  0  0  0  0  0
  186.2970  177.5930  135.3910 C   0  0  0  0  0  3  0  0  0  0  0  0
  190.1750  175.8540  135.0470 C   0  0  2  0  0  3  0  0  0  0  0  0
  188.5520  177.6250  134.3470 C   0  0  0  0  0  2  0  0  0  0  0  0
  187.3030  174.4630  137.9860 O   0  0  0  0  0  1  0  0  0  0  0  0
  192.3500  176.2260  136.3530 C   0  0  0  0  0  2  0  0  0  0  0  0
  191.6670  175.5060  135.1790 C   0  0  1  0  0  3  0  0  0  0  0  0
  190.7560  176.6170  139.5730 C   0  0  0  0  0  0  0  0  0  0  0  0
  190.1530  176.0760  137.5470 C   0  0  0  0  0  0  0  0  0  0  0  0
  190.0130  177.3200  134.6590 C   0  0  0  0  0  2  0  0  0  0  0  0
  193.1770  172.0800  135.9080 C   0  0  0  0  0  0  0  0  0  0  0  0
  192.3080  171.2510  135.1930 C   0  0  0  0  0  3  0  0  0  0  0  0
  191.9130  174.0250  135.1870 C   0  0  0  0  0  0  0  0  0  0  0  0
  191.2410  171.8030  134.4790 C   0  0  0  0  0  3  0  0  0  0  0  0
  192.9790  173.4630  135.9070 C   0  0  0  0  0  3  0  0  0  0  0  0
  191.0440  173.1880  134.4790 C   0  0  0  0  0  3  0  0  0  0  0  0
  194.2090  171.5430  136.6030 F   0  0  0  0  0  0  0  0  0  0  0  0
  190.7380  176.9490  141.0220 C   0  0  0  0  0  2  0  0  0  0  0  0
  189.5950  177.7390  141.3170 O   0  0  0  0  0  0  0  0  0  0  0  0
  191.1680  178.7950  143.9210 S   0  0  0  0  0  0  0  0  0  0  0  0
  188.9750  177.8040  142.5730 C   0  0  0  0  0  0  0  0  0  0  0  0
  189.6840  178.1060  143.8510 C   0  0  0  0  0  0  0  0  0  0  0  0
  187.6970  177.5290  145.1310 C   0  0  0  0  0  3  0  0  0  0  0  0
  186.8560  177.6230  143.8870 C   0  0  0  0  0  2  0  0  0  0  0  0
  187.6650  177.5400  142.6180 C   0  0  0  0  0  3  0  0  0  0  0  0
  189.0020  177.8040  145.1180 C   0  0  0  0  0  3  0  0  0  0  0  0
  1  8  1  0  0  0  0
  2 13  1  0  0  0  0
  3  8  1  6  0  0  0
  3 17  1  0  0  0  0
  4 17  1  0  0  0  0
  4  9  1  0  0  0  0
  5  6  2  0  0  0  0
  6  2  1  0  0  0  0
  7 16  1  0  0  0  0
  8  2  2  0  0  0  0
  9 16  2  0  0  0  0
 10  1  2  0  0  0  0
 10  5  1  0  0  0  0
 11 18  1  1  0  0  0
 11 15  1  0  0  0  0
 11  3  1  0  0  0  0
 12 18  1  0  0  0  0
 12  1  1  0  0  0  0
 14  4  1  0  0  0  0
 15 21  1  1  0  0  0
 15 14  1  0  0  0  0
 16 26  1  0  0  0  0
 17  7  2  0  0  0  0
 19 25  1  0  0  0  0
 20 19  2  0  0  0  0
 21 23  2  0  0  0  0
 22 24  2  0  0  0  0
 22 20  1  0  0  0  0
 23 19  1  0  0  0  0
 24 21  1  0  0  0  0
 26 27  1  0  0  0  0
 27 29  1  0  0  0  0
 29 33  2  0  0  0  0
 29 30  1  0  0  0  0
 30 28  2  0  0  0  0
 30 34  1  0  0  0  0
 32 31  1  0  0  0  0
 33 32  1  0  0  0  0
 34 31  2  0  0  0  0
M  END
>  <MODEL>
9

>  <REMARK>
 VINA RESULT:      -6.3      5.130      8.710
  Name = 
  4 active torsions:
  status: ('A' for Active; 'I' for Inactive)
    1  A    between atoms: O_3  and  C_13
    2  A    between atoms: O_3  and  C_17
    3  A    between atoms: C_12  and  C_28
    4  A    between atoms: C_17  and  C_29
                            x       y       z     vdW  Elec       q    Type
                         _______ _______ _______ _____ _____    ______ ____

>  <TORSDO>
F 4

$$$$
