=
 OpenBabel10262423403D

 34 39  0  0  1  0  0  0  0  0999 V2000
  189.9210  177.3060  146.4790 C   0  0  0  0  0  0  0  0  0  0  0  0
  191.4420  175.9340  145.2270 C   0  0  0  0  0  0  0  0  0  0  0  0
  189.3770  176.8990  144.0180 C   0  0  1  0  0  3  0  0  0  0  0  0
  189.0480  177.3780  141.6400 C   0  0  2  0  0  3  0  0  0  0  0  0
  191.9160  176.5240  147.4680 C   0  0  0  0  0  3  0  0  0  0  0  0
  192.2360  175.8660  146.3270 N   0  0  0  0  0  0  0  0  0  0  0  0
  191.6460  177.3140  142.2390 S   0  0  0  0  0  0  0  0  0  0  0  0
  190.3050  176.7680  145.2310 C   0  0  0  0  0  0  0  0  0  0  0  0
  189.6850  178.0400  140.4450 C   0  0  0  0  0  2  0  0  0  0  0  0
  190.7510  177.2120  147.5490 N   0  0  0  0  0  0  0  0  0  0  0  0
  188.1180  177.6150  144.3320 N   0  0  1  0  0  0  0  0  0  0  0  0
  188.5490  177.8670  146.6780 C   0  0  0  0  0  2  0  0  0  0  0  0
  191.7070  175.0570  144.1370 N   0  0  0  0  0  1  0  0  0  0  0  0
  187.6450  177.9040  141.9230 C   0  0  0  0  0  2  0  0  0  0  0  0
  187.1290  177.3520  143.2660 C   0  0  2  0  0  3  0  0  0  0  0  0
  191.1790  177.7350  140.5180 C   0  0  2  0  0  3  0  0  0  0  0  0
  189.9580  177.6550  142.8110 C   0  0  2  0  0  3  0  0  0  0  0  0
  187.6140  177.2450  145.6520 C   0  0  0  0  0  2  0  0  0  0  0  0
  183.6000  178.6610  142.7870 C   0  0  0  0  0  0  0  0  0  0  0  0
  183.2980  179.1450  144.0640 C   0  0  0  0  0  3  0  0  0  0  0  0
  185.7950  177.9780  143.5600 C   0  0  0  0  0  0  0  0  0  0  0  0
  184.2420  179.0480  145.0910 C   0  0  0  0  0  3  0  0  0  0  0  0
  184.8470  178.0800  142.5360 C   0  0  0  0  0  3  0  0  0  0  0  0
  185.4890  178.4670  144.8390 C   0  0  0  0  0  3  0  0  0  0  0  0
  182.6400  178.7610  141.7430 N   0  0  0  0  0  1  0  0  0  0  0  0
  192.7530  176.5950  138.9690 C   0  0  0  0  0  3  0  0  0  0  0  0
  191.5600  176.6330  139.5750 C   0  0  0  0  0  3  0  0  0  0  0  0
  191.1810  174.1990  137.6900 O   0  0  0  0  0  0  0  0  0  0  0  0
  193.1390  175.4920  138.0210 C   0  0  1  0  0  3  0  0  0  0  0  0
  191.9830  174.9740  137.1960 C   0  0  0  0  0  0  0  0  0  0  0  0
  193.1030  175.8700  135.1630 C   0  0  0  0  0  2  0  0  0  0  0  0
  193.9470  176.6390  136.1730 C   0  0  0  0  0  2  0  0  0  0  0  0
  194.2930  175.7990  137.2540 O   0  0  0  0  0  0  0  0  0  0  0  0
  191.7760  175.4720  135.7970 C   0  0  0  0  0  2  0  0  0  0  0  0
  1 12  1  0  0  0  0
  1 10  1  0  0  0  0
  2  8  1  0  0  0  0
  2  6  2  0  0  0  0
  3 11  1  0  0  0  0
  3  8  1  1  0  0  0
  4  9  1  6  0  0  0
  4 14  1  0  0  0  0
  4 17  1  0  0  0  0
  5 10  2  0  0  0  0
  6  5  1  0  0  0  0
  8  1  2  0  0  0  0
  9 16  1  0  0  0  0
 11 18  1  1  0  0  0
 13  2  1  0  0  0  0
 14 15  1  0  0  0  0
 15 21  1  1  0  0  0
 15 11  1  0  0  0  0
 16 27  1  6  0  0  0
 16  7  1  0  0  0  0
 17  7  1  6  0  0  0
 17  3  1  0  0  0  0
 18 12  1  0  0  0  0
 19 20  1  0  0  0  0
 20 22  2  0  0  0  0
 21 24  2  0  0  0  0
 23 19  2  0  0  0  0
 23 21  1  0  0  0  0
 24 22  1  0  0  0  0
 25 19  1  0  0  0  0
 26 27  2  0  0  0  0
 29 26  1  6  0  0  0
 30 28  2  0  0  0  0
 30 29  1  0  0  0  0
 31 34  1  0  0  0  0
 31 32  1  0  0  0  0
 32 33  1  0  0  0  0
 33 29  1  0  0  0  0
 34 30  1  0  0  0  0
M  END
>  <MODEL>
1

>  <REMARK>
 VINA RESULT:     -10.5      0.000      0.000
  Name = 
  3 active torsions:
  status: ('A' for Active; 'I' for Inactive)
    1  A    between atoms: C_3  and  C_13
    2  A    between atoms: C_12  and  C_28
    3  A    between atoms: C_17  and  C_29
                            x       y       z     vdW  Elec       q    Type
                         _______ _______ _______ _____ _____    ______ ____

>  <TORSDO>
F 3

$$$$
=
 OpenBabel10262423403D

 34 39  0  0  1  0  0  0  0  0999 V2000
  189.7290  177.3840  146.1150 C   0  0  0  0  0  0  0  0  0  0  0  0
  191.2210  176.0010  144.8420 C   0  0  0  0  0  0  0  0  0  0  0  0
  189.1390  176.9690  143.6650 C   0  0  1  0  0  3  0  0  0  0  0  0
  188.7690  177.4400  141.2920 C   0  0  2  0  0  3  0  0  0  0  0  0
  191.7380  176.5990  147.0720 C   0  0  0  0  0  3  0  0  0  0  0  0
  192.0350  175.9350  145.9280 N   0  0  0  0  0  0  0  0  0  0  0  0
  191.3770  177.3690  141.8450 S   0  0  0  0  0  0  0  0  0  0  0  0
  190.0880  176.8400  144.8630 C   0  0  0  0  0  0  0  0  0  0  0  0
  189.3880  178.0940  140.0830 C   0  0  0  0  0  2  0  0  0  0  0  0
  190.5760  177.2910  147.1710 N   0  0  0  0  0  0  0  0  0  0  0  0
  187.8880  177.6910  143.9990 N   0  0  1  0  0  0  0  0  0  0  0  0
  188.3620  177.9510  146.3360 C   0  0  0  0  0  2  0  0  0  0  0  0
  191.4640  175.1190  143.7510 N   0  0  0  0  0  1  0  0  0  0  0  0
  187.3740  177.9720  141.5980 C   0  0  0  0  0  2  0  0  0  0  0  0
  186.8800  177.4270  142.9520 C   0  0  2  0  0  3  0  0  0  0  0  0
  190.8810  177.7840  140.1310 C   0  0  2  0  0  3  0  0  0  0  0  0
  189.7010  177.7180  142.4450 C   0  0  2  0  0  3  0  0  0  0  0  0
  187.4070  177.3290  145.3300 C   0  0  0  0  0  2  0  0  0  0  0  0
  183.3350  178.7170  142.5400 C   0  0  0  0  0  0  0  0  0  0  0  0
  183.0700  179.2360  143.8110 C   0  0  0  0  0  3  0  0  0  0  0  0
  185.5530  178.0590  143.2670 C   0  0  0  0  0  0  0  0  0  0  0  0
  184.0430  179.1690  144.8120 C   0  0  0  0  0  3  0  0  0  0  0  0
  184.5750  178.1310  142.2680 C   0  0  0  0  0  3  0  0  0  0  0  0
  185.2840  178.5840  144.5410 C   0  0  0  0  0  3  0  0  0  0  0  0
  182.3450  178.7860  141.5220 N   0  0  0  0  0  1  0  0  0  0  0  0
  190.8750  176.6910  137.8990 C   0  0  0  0  0  3  0  0  0  0  0  0
  191.2420  176.6770  139.1860 C   0  0  0  0  0  3  0  0  0  0  0  0
  190.0010  173.6870  137.6590 O   0  0  0  0  0  0  0  0  0  0  0  0
  191.2330  175.5820  136.9470 C   0  0  1  0  0  3  0  0  0  0  0  0
  190.1470  174.5410  136.8000 C   0  0  0  0  0  0  0  0  0  0  0  0
  189.8680  175.2470  134.4310 C   0  0  0  0  0  2  0  0  0  0  0  0
  190.6750  176.4610  134.8740 C   0  0  0  0  0  2  0  0  0  0  0  0
  191.7390  176.0560  135.7090 O   0  0  0  0  0  0  0  0  0  0  0  0
  189.2000  174.6020  135.6390 C   0  0  0  0  0  2  0  0  0  0  0  0
  1 12  1  0  0  0  0
  1 10  1  0  0  0  0
  2  8  1  0  0  0  0
  2  6  2  0  0  0  0
  3 11  1  0  0  0  0
  3  8  1  1  0  0  0
  4  9  1  6  0  0  0
  4 14  1  0  0  0  0
  4 17  1  0  0  0  0
  5 10  2  0  0  0  0
  6  5  1  0  0  0  0
  8  1  2  0  0  0  0
  9 16  1  0  0  0  0
 11 18  1  1  0  0  0
 13  2  1  0  0  0  0
 14 15  1  0  0  0  0
 15 21  1  1  0  0  0
 15 11  1  0  0  0  0
 16 27  1  6  0  0  0
 16  7  1  0  0  0  0
 17  7  1  6  0  0  0
 17  3  1  0  0  0  0
 18 12  1  0  0  0  0
 19 20  1  0  0  0  0
 20 22  2  0  0  0  0
 21 24  2  0  0  0  0
 23 19  2  0  0  0  0
 23 21  1  0  0  0  0
 24 22  1  0  0  0  0
 25 19  1  0  0  0  0
 26 27  2  0  0  0  0
 29 26  1  6  0  0  0
 30 29  1  0  0  0  0
 30 28  2  0  0  0  0
 31 32  1  0  0  0  0
 31 34  1  0  0  0  0
 32 33  1  0  0  0  0
 33 29  1  0  0  0  0
 34 30  1  0  0  0  0
M  END
>  <MODEL>
2

>  <REMARK>
 VINA RESULT:     -10.3      1.091      1.326
  Name = 
  3 active torsions:
  status: ('A' for Active; 'I' for Inactive)
    1  A    between atoms: C_3  and  C_13
    2  A    between atoms: C_12  and  C_28
    3  A    between atoms: C_17  and  C_29
                            x       y       z     vdW  Elec       q    Type
                         _______ _______ _______ _____ _____    ______ ____

>  <TORSDO>
F 3

$$$$
=
 OpenBabel10262423403D

 34 39  0  0  1  0  0  0  0  0999 V2000
  191.4540  177.4780  141.3490 C   0  0  0  0  0  0  0  0  0  0  0  0
  190.0620  176.7380  139.5390 C   0  0  0  0  0  0  0  0  0  0  0  0
  188.9560  177.2300  141.8170 C   0  0  1  0  0  3  0  0  0  0  0  0
  186.6500  177.8770  142.3220 C   0  0  2  0  0  3  0  0  0  0  0  0
  192.3630  177.1670  139.1930 C   0  0  0  0  0  3  0  0  0  0  0  0
  191.1540  176.7630  138.7310 N   0  0  0  0  0  0  0  0  0  0  0  0
  187.2640  178.4640  139.7940 S   0  0  0  0  0  0  0  0  0  0  0  0
  190.1550  177.2180  140.8610 C   0  0  0  0  0  0  0  0  0  0  0  0
  185.5500  178.8260  141.9200 C   0  0  0  0  0  2  0  0  0  0  0  0
  192.5140  177.4910  140.5010 N   0  0  0  0  0  0  0  0  0  0  0  0
  189.3410  177.5270  143.2170 N   0  0  1  0  0  0  0  0  0  0  0  0
  191.7050  177.6090  142.8180 C   0  0  0  0  0  2  0  0  0  0  0  0
  188.8770  176.1050  139.0670 N   0  0  0  0  0  1  0  0  0  0  0  0
  186.9790  177.9570  143.8080 C   0  0  0  0  0  2  0  0  0  0  0  0
  188.2410  177.1290  144.1200 C   0  0  2  0  0  3  0  0  0  0  0  0
  185.6010  178.9400  140.3990 C   0  0  2  0  0  3  0  0  0  0  0  0
  187.8550  178.2550  141.4960 C   0  0  2  0  0  3  0  0  0  0  0  0
  190.6020  176.8790  143.5680 C   0  0  0  0  0  2  0  0  0  0  0  0
  190.2370  177.1800  147.3470 C   0  0  0  0  0  0  0  0  0  0  0  0
  189.2920  177.6580  148.2600 C   0  0  0  0  0  3  0  0  0  0  0  0
  188.5940  177.3210  145.5670 C   0  0  0  0  0  0  0  0  0  0  0  0
  187.9980  177.9670  147.8310 C   0  0  0  0  0  3  0  0  0  0  0  0
  189.8880  177.0110  146.0040 C   0  0  0  0  0  3  0  0  0  0  0  0
  187.6490  177.7980  146.4880 C   0  0  0  0  0  3  0  0  0  0  0  0
  191.5530  176.8650  147.7840 N   0  0  0  0  0  1  0  0  0  0  0  0
  184.0190  178.4150  138.5550 C   0  0  0  0  0  3  0  0  0  0  0  0
  184.5370  178.1060  139.7500 C   0  0  0  0  0  3  0  0  0  0  0  0
  183.6360  175.3270  138.1480 O   0  0  0  0  0  0  0  0  0  0  0  0
  182.9500  177.5820  137.9010 C   0  0  1  0  0  3  0  0  0  0  0  0
  182.8370  176.1890  138.4750 C   0  0  0  0  0  0  0  0  0  0  0  0
  180.5740  176.7820  139.3220 C   0  0  0  0  0  2  0  0  0  0  0  0
  181.0240  178.2090  139.0320 C   0  0  0  0  0  2  0  0  0  0  0  0
  181.7070  178.2590  137.7970 O   0  0  0  0  0  0  0  0  0  0  0  0
  181.7920  175.8840  139.5060 C   0  0  0  0  0  2  0  0  0  0  0  0
  1 12  1  0  0  0  0
  2  8  2  0  0  0  0
  3  8  1  6  0  0  0
  3 11  1  0  0  0  0
  4  9  1  1  0  0  0
  4 14  1  0  0  0  0
  5 10  1  0  0  0  0
  6  5  2  0  0  0  0
  6  2  1  0  0  0  0
  7 16  1  0  0  0  0
  8  1  1  0  0  0  0
 10  1  2  0  0  0  0
 11 18  1  1  0  0  0
 11 15  1  0  0  0  0
 12 18  1  0  0  0  0
 13  2  1  0  0  0  0
 14 15  1  0  0  0  0
 15 21  1  1  0  0  0
 16 27  1  6  0  0  0
 16  9  1  0  0  0  0
 17  7  1  6  0  0  0
 17  3  1  0  0  0  0
 17  4  1  0  0  0  0
 19 25  1  0  0  0  0
 19 20  1  0  0  0  0
 21 23  1  0  0  0  0
 21 24  2  0  0  0  0
 22 20  2  0  0  0  0
 23 19  2  0  0  0  0
 24 22  1  0  0  0  0
 26 27  2  0  0  0  0
 28 30  2  0  0  0  0
 29 30  1  0  0  0  0
 29 26  1  1  0  0  0
 30 34  1  0  0  0  0
 31 34  1  0  0  0  0
 32 31  1  0  0  0  0
 33 29  1  0  0  0  0
 33 32  1  0  0  0  0
M  END
>  <MODEL>
3

>  <REMARK>
 VINA RESULT:      -9.6      3.625      7.242
  Name = 
  3 active torsions:
  status: ('A' for Active; 'I' for Inactive)
    1  A    between atoms: C_3  and  C_13
    2  A    between atoms: C_12  and  C_28
    3  A    between atoms: C_17  and  C_29
                            x       y       z     vdW  Elec       q    Type
                         _______ _______ _______ _____ _____    ______ ____

>  <TORSDO>
F 3

$$$$
=
 OpenBabel10262423403D

 34 39  0  0  1  0  0  0  0  0999 V2000
  191.5800  177.5090  141.3620 C   0  0  0  0  0  0  0  0  0  0  0  0
  190.7730  176.6240  139.2820 C   0  0  0  0  0  0  0  0  0  0  0  0
  189.0560  177.2130  141.1160 C   0  0  1  0  0  3  0  0  0  0  0  0
  186.6940  177.8170  140.9010 C   0  0  2  0  0  3  0  0  0  0  0  0
  193.0710  177.1020  139.5780 C   0  0  0  0  0  3  0  0  0  0  0  0
  192.0500  176.6350  138.8180 N   0  0  0  0  0  0  0  0  0  0  0  0
  187.9970  178.2760  138.6200 S   0  0  0  0  0  0  0  0  0  0  0  0
  190.4780  177.1820  140.5430 C   0  0  0  0  0  0  0  0  0  0  0  0
  185.7430  178.7070  140.1430 C   0  0  0  0  0  2  0  0  0  0  0  0
  192.8380  177.5060  140.8510 N   0  0  0  0  0  0  0  0  0  0  0  0
  189.0220  177.6010  142.5450 N   0  0  1  0  0  0  0  0  0  0  0  0
  191.4000  177.7320  142.8300 C   0  0  0  0  0  2  0  0  0  0  0  0
  189.7810  175.9280  138.5350 N   0  0  0  0  0  1  0  0  0  0  0  0
  186.5840  177.9920  142.4110 C   0  0  0  0  0  2  0  0  0  0  0  0
  187.7150  177.2230  143.1220 C   0  0  2  0  0  3  0  0  0  0  0  0
  186.2250  178.7340  138.6960 C   0  0  2  0  0  3  0  0  0  0  0  0
  188.0800  178.1830  140.4300 C   0  0  2  0  0  3  0  0  0  0  0  0
  190.1380  177.0140  143.2810 C   0  0  0  0  0  2  0  0  0  0  0  0
  186.3680  178.3260  146.4930 C   0  0  0  0  0  0  0  0  0  0  0  0
  187.4540  178.0660  147.3340 C   0  0  0  0  0  3  0  0  0  0  0  0
  187.6370  177.5090  144.5940 C   0  0  0  0  0  0  0  0  0  0  0  0
  188.6330  177.5290  146.8100 C   0  0  0  0  0  3  0  0  0  0  0  0
  186.4600  178.0490  145.1260 C   0  0  0  0  0  3  0  0  0  0  0  0
  188.7260  177.2520  145.4420 C   0  0  0  0  0  3  0  0  0  0  0  0
  185.1690  178.8730  147.0270 N   0  0  0  0  0  1  0  0  0  0  0  0
  185.9080  176.7320  137.2580 C   0  0  0  0  0  3  0  0  0  0  0  0
  185.4010  177.8320  137.8260 C   0  0  0  0  0  3  0  0  0  0  0  0
  186.6310  174.6500  135.0240 O   0  0  0  0  0  0  0  0  0  0  0  0
  185.0850  175.8240  136.3840 C   0  0  1  0  0  3  0  0  0  0  0  0
  185.8260  174.5840  135.9380 C   0  0  0  0  0  0  0  0  0  0  0  0
  184.2350  173.2200  137.2800 C   0  0  0  0  0  2  0  0  0  0  0  0
  183.8830  174.5610  137.9130 C   0  0  0  0  0  2  0  0  0  0  0  0
  183.7980  175.5580  136.9180 O   0  0  0  0  0  0  0  0  0  0  0  0
  185.6300  173.2890  136.6690 C   0  0  0  0  0  2  0  0  0  0  0  0
  1 12  1  0  0  0  0
  2  8  1  0  0  0  0
  3  8  1  6  0  0  0
  3 11  1  0  0  0  0
  4  9  1  6  0  0  0
  4 14  1  0  0  0  0
  5 10  2  0  0  0  0
  6  2  2  0  0  0  0
  6  5  1  0  0  0  0
  7 16  1  0  0  0  0
  8  1  2  0  0  0  0
 10  1  1  0  0  0  0
 11 15  1  0  0  0  0
 11 18  1  1  0  0  0
 12 18  1  0  0  0  0
 13  2  1  0  0  0  0
 14 15  1  0  0  0  0
 15 21  1  1  0  0  0
 16 27  1  6  0  0  0
 16  9  1  0  0  0  0
 17  7  1  6  0  0  0
 17  4  1  0  0  0  0
 17  3  1  0  0  0  0
 19 25  1  0  0  0  0
 19 20  1  0  0  0  0
 21 23  1  0  0  0  0
 21 24  2  0  0  0  0
 22 20  2  0  0  0  0
 23 19  2  0  0  0  0
 24 22  1  0  0  0  0
 26 27  2  0  0  0  0
 28 30  2  0  0  0  0
 29 33  1  0  0  0  0
 29 26  1  1  0  0  0
 30 29  1  0  0  0  0
 30 34  1  0  0  0  0
 31 32  1  0  0  0  0
 33 32  1  0  0  0  0
 34 31  1  0  0  0  0
M  END
>  <MODEL>
4

>  <REMARK>
 VINA RESULT:      -9.3      3.893      5.807
  Name = 
  3 active torsions:
  status: ('A' for Active; 'I' for Inactive)
    1  A    between atoms: C_3  and  C_13
    2  A    between atoms: C_12  and  C_28
    3  A    between atoms: C_17  and  C_29
                            x       y       z     vdW  Elec       q    Type
                         _______ _______ _______ _____ _____    ______ ____

>  <TORSDO>
F 3

$$$$
=
 OpenBabel10262423403D

 34 39  0  0  1  0  0  0  0  0999 V2000
  191.5650  177.3160  141.1510 C   0  0  0  0  0  0  0  0  0  0  0  0
  190.1760  176.6010  139.3290 C   0  0  0  0  0  0  0  0  0  0  0  0
  189.0550  177.1490  141.5880 C   0  0  1  0  0  3  0  0  0  0  0  0
  186.7630  177.8700  142.0550 C   0  0  2  0  0  3  0  0  0  0  0  0
  192.4920  176.9560  139.0110 C   0  0  0  0  0  3  0  0  0  0  0  0
  191.2780  176.5840  138.5360 N   0  0  0  0  0  0  0  0  0  0  0  0
  187.4280  178.4130  139.5300 S   0  0  0  0  0  0  0  0  0  0  0  0
  190.2650  177.0910  140.6480 C   0  0  0  0  0  0  0  0  0  0  0  0
  185.6980  178.8480  141.6290 C   0  0  0  0  0  2  0  0  0  0  0  0
  192.6360  177.2890  140.3180 N   0  0  0  0  0  0  0  0  0  0  0  0
  189.4300  177.4480  142.9900 N   0  0  1  0  0  0  0  0  0  0  0  0
  191.8010  177.4540  142.6220 C   0  0  0  0  0  2  0  0  0  0  0  0
  188.9780  175.9990  138.8480 N   0  0  0  0  0  1  0  0  0  0  0  0
  187.0750  177.9550  143.5450 C   0  0  0  0  0  2  0  0  0  0  0  0
  188.3070  177.0920  143.8820 C   0  0  2  0  0  3  0  0  0  0  0  0
  185.7730  178.9450  140.1080 C   0  0  2  0  0  3  0  0  0  0  0  0
  187.9900  178.2030  141.2420 C   0  0  2  0  0  3  0  0  0  0  0  0
  190.6660  176.7660  143.3650 C   0  0  0  0  0  2  0  0  0  0  0  0
  190.2840  177.1900  147.1190 C   0  0  0  0  0  0  0  0  0  0  0  0
  189.3200  177.6330  148.0300 C   0  0  0  0  0  3  0  0  0  0  0  0
  188.6470  177.2880  145.3320 C   0  0  0  0  0  0  0  0  0  0  0  0
  188.0190  177.9040  147.5960 C   0  0  0  0  0  3  0  0  0  0  0  0
  189.9470  177.0160  145.7730 C   0  0  0  0  0  3  0  0  0  0  0  0
  187.6820  177.7310  146.2500 C   0  0  0  0  0  3  0  0  0  0  0  0
  191.6070  176.9130  147.5610 N   0  0  0  0  0  1  0  0  0  0  0  0
  183.4360  178.1220  139.9150 C   0  0  0  0  0  3  0  0  0  0  0  0
  184.6920  178.1380  139.4530 C   0  0  0  0  0  3  0  0  0  0  0  0
  180.5410  177.2890  140.7950 O   0  0  0  0  0  0  0  0  0  0  0  0
  182.3480  177.3120  139.2620 C   0  0  1  0  0  3  0  0  0  0  0  0
  180.9580  177.6900  139.7210 C   0  0  0  0  0  0  0  0  0  0  0  0
  180.4780  178.4990  137.4170 C   0  0  0  0  0  2  0  0  0  0  0  0
  181.9910  178.4230  137.2570 C   0  0  0  0  0  2  0  0  0  0  0  0
  182.4820  177.2400  137.8510 O   0  0  0  0  0  0  0  0  0  0  0  0
  180.1210  178.6200  138.8940 C   0  0  0  0  0  2  0  0  0  0  0  0
  1 12  1  0  0  0  0
  2  8  2  0  0  0  0
  3  8  1  6  0  0  0
  3 11  1  0  0  0  0
  4  9  1  6  0  0  0
  4 14  1  0  0  0  0
  5 10  1  0  0  0  0
  6  5  2  0  0  0  0
  6  2  1  0  0  0  0
  7 16  1  0  0  0  0
  8  1  1  0  0  0  0
 10  1  2  0  0  0  0
 11 18  1  1  0  0  0
 11 15  1  0  0  0  0
 12 18  1  0  0  0  0
 13  2  1  0  0  0  0
 14 15  1  0  0  0  0
 15 21  1  1  0  0  0
 16 27  1  6  0  0  0
 16  9  1  0  0  0  0
 17  7  1  6  0  0  0
 17  3  1  0  0  0  0
 17  4  1  0  0  0  0
 19 25  1  0  0  0  0
 19 20  1  0  0  0  0
 21 23  1  0  0  0  0
 21 24  2  0  0  0  0
 22 20  2  0  0  0  0
 23 19  2  0  0  0  0
 24 22  1  0  0  0  0
 27 26  2  0  0  0  0
 29 30  1  0  0  0  0
 29 26  1  6  0  0  0
 30 28  2  0  0  0  0
 31 34  1  0  0  0  0
 32 31  1  0  0  0  0
 32 33  1  0  0  0  0
 33 29  1  0  0  0  0
 34 30  1  0  0  0  0
M  END
>  <MODEL>
5

>  <REMARK>
 VINA RESULT:      -9.2      3.890      7.514
  Name = 
  3 active torsions:
  status: ('A' for Active; 'I' for Inactive)
    1  A    between atoms: C_3  and  C_13
    2  A    between atoms: C_12  and  C_28
    3  A    between atoms: C_17  and  C_29
                            x       y       z     vdW  Elec       q    Type
                         _______ _______ _______ _____ _____    ______ ____

>  <TORSDO>
F 3

$$$$
=
 OpenBabel10262423403D

 34 39  0  0  1  0  0  0  0  0999 V2000
  184.9170  179.0720  144.7110 C   0  0  0  0  0  0  0  0  0  0  0  0
  186.8060  177.5970  144.5690 C   0  0  0  0  0  0  0  0  0  0  0  0
  185.4830  178.1110  142.4140 C   0  0  1  0  0  3  0  0  0  0  0  0
  186.2220  178.0490  140.0810 C   0  0  2  0  0  3  0  0  0  0  0  0
  186.2750  178.6830  146.6020 C   0  0  0  0  0  3  0  0  0  0  0  0
  187.0450  177.8280  145.8860 N   0  0  0  0  0  0  0  0  0  0  0  0
  188.3050  178.3280  141.7240 S   0  0  0  0  0  0  0  0  0  0  0  0
  185.7930  178.3160  143.9020 C   0  0  0  0  0  0  0  0  0  0  0  0
  187.3250  178.4950  139.1550 C   0  0  0  0  0  2  0  0  0  0  0  0
  185.2010  179.2740  146.0230 N   0  0  0  0  0  0  0  0  0  0  0  0
  184.2240  178.7700  141.9940 N   0  0  1  0  0  0  0  0  0  0  0  0
  183.6030  179.5460  144.1770 C   0  0  0  0  0  2  0  0  0  0  0  0
  187.5010  176.5350  143.9240 N   0  0  0  0  0  1  0  0  0  0  0  0
  184.8440  178.5050  139.6150 C   0  0  0  0  0  2  0  0  0  0  0  0
  183.7890  178.2080  140.6980 C   0  0  2  0  0  3  0  0  0  0  0  0
  188.6340  178.3370  139.9220 C   0  0  2  0  0  3  0  0  0  0  0  0
  186.5410  178.6410  141.4320 C   0  0  2  0  0  3  0  0  0  0  0  0
  183.1930  178.6470  143.0210 C   0  0  0  0  0  2  0  0  0  0  0  0
  181.2340  180.4630  139.0300 C   0  0  0  0  0  0  0  0  0  0  0  0
  180.0310  179.8510  139.3950 C   0  0  0  0  0  3  0  0  0  0  0  0
  182.4700  178.7680  140.2490 C   0  0  0  0  0  0  0  0  0  0  0  0
  180.0430  178.6990  140.1860 C   0  0  0  0  0  3  0  0  0  0  0  0
  182.4510  179.9230  139.4580 C   0  0  0  0  0  3  0  0  0  0  0  0
  181.2600  178.1590  140.6140 C   0  0  0  0  0  3  0  0  0  0  0  0
  181.2210  181.6360  138.2260 N   0  0  0  0  0  1  0  0  0  0  0  0
  189.6280  176.8200  138.2230 C   0  0  0  0  0  3  0  0  0  0  0  0
  189.3670  177.0960  139.5060 C   0  0  0  0  0  3  0  0  0  0  0  0
  189.4980  174.9990  135.6700 O   0  0  0  0  0  0  0  0  0  0  0  0
  190.3620  175.5750  137.8000 C   0  0  1  0  0  3  0  0  0  0  0  0
  190.4570  175.4130  136.3000 C   0  0  0  0  0  0  0  0  0  0  0  0
  192.9220  175.7020  136.4810 C   0  0  0  0  0  2  0  0  0  0  0  0
  192.5890  176.2220  137.8750 C   0  0  0  0  0  2  0  0  0  0  0  0
  191.6010  175.4080  138.4710 O   0  0  0  0  0  0  0  0  0  0  0  0
  191.7020  175.8320  135.5770 C   0  0  0  0  0  2  0  0  0  0  0  0
  1 10  1  0  0  0  0
  2  6  2  0  0  0  0
  3  8  1  1  0  0  0
  4  9  1  6  0  0  0
  4 17  1  0  0  0  0
  6  5  1  0  0  0  0
  8  2  1  0  0  0  0
  8  1  2  0  0  0  0
  9 16  1  0  0  0  0
 10  5  2  0  0  0  0
 11  3  1  0  0  0  0
 11 18  1  1  0  0  0
 12  1  1  0  0  0  0
 13  2  1  0  0  0  0
 14  4  1  0  0  0  0
 14 15  1  0  0  0  0
 15 21  1  6  0  0  0
 15 11  1  0  0  0  0
 16 27  1  6  0  0  0
 16  7  1  0  0  0  0
 17  7  1  1  0  0  0
 17  3  1  0  0  0  0
 18 12  1  0  0  0  0
 19 20  2  0  0  0  0
 19 23  1  0  0  0  0
 20 22  1  0  0  0  0
 21 24  1  0  0  0  0
 22 24  2  0  0  0  0
 23 21  2  0  0  0  0
 25 19  1  0  0  0  0
 26 27  2  0  0  0  0
 28 30  2  0  0  0  0
 29 26  1  6  0  0  0
 29 33  1  0  0  0  0
 30 29  1  0  0  0  0
 31 32  1  0  0  0  0
 32 33  1  0  0  0  0
 34 30  1  0  0  0  0
 34 31  1  0  0  0  0
M  END
>  <MODEL>
6

>  <REMARK>
 VINA RESULT:      -9.1      2.629      4.342
  Name = 
  3 active torsions:
  status: ('A' for Active; 'I' for Inactive)
    1  A    between atoms: C_3  and  C_13
    2  A    between atoms: C_12  and  C_28
    3  A    between atoms: C_17  and  C_29
                            x       y       z     vdW  Elec       q    Type
                         _______ _______ _______ _____ _____    ______ ____

>  <TORSDO>
F 3

$$$$
=
 OpenBabel10262423403D

 34 39  0  0  1  0  0  0  0  0999 V2000
  188.4630  177.2700  135.1640 C   0  0  0  0  0  0  0  0  0  0  0  0
  186.8320  176.9330  136.8930 C   0  0  0  0  0  0  0  0  0  0  0  0
  189.3170  176.5110  137.4480 C   0  0  1  0  0  3  0  0  0  0  0  0
  190.4690  176.6080  139.6060 C   0  0  2  0  0  3  0  0  0  0  0  0
  186.1930  177.7930  134.7840 C   0  0  0  0  0  3  0  0  0  0  0  0
  185.8770  177.3750  136.0350 N   0  0  0  0  0  0  0  0  0  0  0  0
  188.2230  178.0450  139.6690 S   0  0  0  0  0  0  0  0  0  0  0  0
  188.1910  176.9820  136.5190 C   0  0  0  0  0  0  0  0  0  0  0  0
  190.6460  177.4560  140.8390 C   0  0  0  0  0  2  0  0  0  0  0  0
  187.4730  177.7090  134.3460 N   0  0  0  0  0  0  0  0  0  0  0  0
  190.6250  176.4080  136.7590 N   0  0  1  0  0  0  0  0  0  0  0  0
  189.8050  176.9700  134.5750 C   0  0  0  0  0  2  0  0  0  0  0  0
  186.4250  176.3060  138.1050 N   0  0  0  0  0  1  0  0  0  0  0  0
  191.7930  176.2670  138.9320 C   0  0  0  0  0  2  0  0  0  0  0  0
  191.5420  175.5850  137.5730 C   0  0  2  0  0  3  0  0  0  0  0  0
  189.2780  178.0480  141.1660 C   0  0  2  0  0  3  0  0  0  0  0  0
  189.5950  177.4040  138.6680 C   0  0  2  0  0  3  0  0  0  0  0  0
  190.4700  175.8830  135.4040 C   0  0  0  0  0  2  0  0  0  0  0  0
  194.8450  176.2910  135.8450 C   0  0  0  0  0  0  0  0  0  0  0  0
  195.3320  174.9990  135.6200 C   0  0  0  0  0  3  0  0  0  0  0  0
  192.8640  175.3650  136.8950 C   0  0  0  0  0  0  0  0  0  0  0  0
  194.5880  173.8890  136.0310 C   0  0  0  0  0  3  0  0  0  0  0  0
  193.6130  176.4720  136.4800 C   0  0  0  0  0  3  0  0  0  0  0  0
  193.3560  174.0710  136.6660 C   0  0  0  0  0  3  0  0  0  0  0  0
  195.6020  177.4190  135.4260 N   0  0  0  0  0  1  0  0  0  0  0  0
  188.7930  177.6520  143.5710 C   0  0  0  0  0  3  0  0  0  0  0  0
  188.6160  177.3080  142.2900 C   0  0  0  0  0  3  0  0  0  0  0  0
  189.7160  176.8590  146.4640 O   0  0  0  0  0  0  0  0  0  0  0  0
  188.1310  176.9110  144.7020 C   0  0  1  0  0  3  0  0  0  0  0  0
  188.6520  177.3050  146.0660 C   0  0  0  0  0  0  0  0  0  0  0  0
  186.4110  178.2520  146.5880 C   0  0  0  0  0  2  0  0  0  0  0  0
  186.2000  178.1400  145.0820 C   0  0  0  0  0  2  0  0  0  0  0  0
  186.7150  176.9120  144.6120 O   0  0  0  0  0  0  0  0  0  0  0  0
  187.9020  178.3030  146.8970 C   0  0  0  0  0  2  0  0  0  0  0  0
  1  8  1  0  0  0  0
  2 13  1  0  0  0  0
  3  8  1  6  0  0  0
  3 17  1  0  0  0  0
  4 14  1  6  0  0  0
  4  9  1  0  0  0  0
  5  6  2  0  0  0  0
  6  2  1  0  0  0  0
  7 16  1  0  0  0  0
  8  2  2  0  0  0  0
  9 16  1  0  0  0  0
 10  5  1  0  0  0  0
 10  1  2  0  0  0  0
 11 18  1  6  0  0  0
 11  3  1  0  0  0  0
 11 15  1  0  0  0  0
 12  1  1  0  0  0  0
 12 18  1  0  0  0  0
 15 21  1  6  0  0  0
 15 14  1  0  0  0  0
 16 27  1  1  0  0  0
 17  4  1  0  0  0  0
 17  7  1  1  0  0  0
 19 23  1  0  0  0  0
 20 19  2  0  0  0  0
 20 22  1  0  0  0  0
 22 24  2  0  0  0  0
 23 21  2  0  0  0  0
 24 21  1  0  0  0  0
 25 19  1  0  0  0  0
 27 26  2  0  0  0  0
 29 26  1  6  0  0  0
 29 30  1  0  0  0  0
 30 28  2  0  0  0  0
 30 34  1  0  0  0  0
 31 34  1  0  0  0  0
 32 31  1  0  0  0  0
 33 29  1  0  0  0  0
 33 32  1  0  0  0  0
M  END
>  <MODEL>
7

>  <REMARK>
 VINA RESULT:      -8.8      4.317     10.140
  Name = 
  3 active torsions:
  status: ('A' for Active; 'I' for Inactive)
    1  A    between atoms: C_3  and  C_13
    2  A    between atoms: C_12  and  C_28
    3  A    between atoms: C_17  and  C_29
                            x       y       z     vdW  Elec       q    Type
                         _______ _______ _______ _____ _____    ______ ____

>  <TORSDO>
F 3

$$$$
=
 OpenBabel10262423403D

 34 39  0  0  1  0  0  0  0  0999 V2000
  191.5400  177.2770  140.6880 C   0  0  0  0  0  0  0  0  0  0  0  0
  189.9030  176.6400  139.0520 C   0  0  0  0  0  0  0  0  0  0  0  0
  189.1160  177.0860  141.4680 C   0  0  1  0  0  3  0  0  0  0  0  0
  186.9160  177.7820  142.2870 C   0  0  2  0  0  3  0  0  0  0  0  0
  192.1530  177.0140  138.4240 C   0  0  0  0  0  3  0  0  0  0  0  0
  190.8820  176.6610  138.1100 N   0  0  0  0  0  0  0  0  0  0  0  0
  187.2190  178.4370  139.7190 S   0  0  0  0  0  0  0  0  0  0  0  0
  190.1810  177.0720  140.3650 C   0  0  0  0  0  0  0  0  0  0  0  0
  185.8060  178.7760  142.0600 C   0  0  0  0  0  2  0  0  0  0  0  0
  192.4810  177.2880  139.7100 N   0  0  0  0  0  0  0  0  0  0  0  0
  189.6880  177.3230  142.8150 N   0  0  1  0  0  0  0  0  0  0  0  0
  191.9820  177.3500  142.1150 C   0  0  0  0  0  2  0  0  0  0  0  0
  188.6460  176.0580  138.7190 N   0  0  0  0  0  1  0  0  0  0  0  0
  187.4370  177.8010  143.7190 C   0  0  0  0  0  2  0  0  0  0  0  0
  188.7010  176.9270  143.8400 C   0  0  2  0  0  3  0  0  0  0  0  0
  185.6650  178.9400  140.5490 C   0  0  2  0  0  3  0  0  0  0  0  0
  188.0170  178.1520  141.3240 C   0  0  2  0  0  3  0  0  0  0  0  0
  190.9610  176.6280  142.9800 C   0  0  0  0  0  2  0  0  0  0  0  0
  188.8780  177.6130  147.5680 C   0  0  0  0  0  0  0  0  0  0  0  0
  190.2170  177.3270  147.8480 C   0  0  0  0  0  3  0  0  0  0  0  0
  189.2430  177.0590  145.2350 C   0  0  0  0  0  0  0  0  0  0  0  0
  191.0730  176.9080  146.8250 C   0  0  0  0  0  3  0  0  0  0  0  0
  188.3930  177.4810  146.2630 C   0  0  0  0  0  3  0  0  0  0  0  0
  190.5880  176.7750  145.5200 C   0  0  0  0  0  3  0  0  0  0  0  0
  188.0080  178.0410  148.6080 N   0  0  0  0  0  1  0  0  0  0  0  0
  184.0650  178.2950  138.7600 C   0  0  0  0  0  3  0  0  0  0  0  0
  184.4990  178.1600  140.0190 C   0  0  0  0  0  3  0  0  0  0  0  0
  180.9660  178.7870  138.7550 O   0  0  0  0  0  0  0  0  0  0  0  0
  182.8940  177.5160  138.2240 C   0  0  1  0  0  3  0  0  0  0  0  0
  181.7050  178.3810  137.8740 C   0  0  0  0  0  0  0  0  0  0  0  0
  182.0340  177.7680  135.4850 C   0  0  0  0  0  2  0  0  0  0  0  0
  183.3960  177.2870  135.9710 C   0  0  0  0  0  2  0  0  0  0  0  0
  183.2580  176.6040  137.1990 O   0  0  0  0  0  0  0  0  0  0  0  0
  181.4770  178.8050  136.4540 C   0  0  0  0  0  2  0  0  0  0  0  0
  1 12  1  0  0  0  0
  2  8  2  0  0  0  0
  3  8  1  6  0  0  0
  3 11  1  0  0  0  0
  4  9  1  1  0  0  0
  4 14  1  0  0  0  0
  5 10  1  0  0  0  0
  6  5  2  0  0  0  0
  6  2  1  0  0  0  0
  7 16  1  0  0  0  0
  8  1  1  0  0  0  0
 10  1  2  0  0  0  0
 11 18  1  1  0  0  0
 11 15  1  0  0  0  0
 12 18  1  0  0  0  0
 13  2  1  0  0  0  0
 14 15  1  0  0  0  0
 15 21  1  1  0  0  0
 16 27  1  6  0  0  0
 16  9  1  0  0  0  0
 17  7  1  6  0  0  0
 17  3  1  0  0  0  0
 17  4  1  0  0  0  0
 19 20  1  0  0  0  0
 19 25  1  0  0  0  0
 21 24  2  0  0  0  0
 21 23  1  0  0  0  0
 22 20  2  0  0  0  0
 23 19  2  0  0  0  0
 24 22  1  0  0  0  0
 26 27  2  0  0  0  0
 29 26  1  6  0  0  0
 30 29  1  0  0  0  0
 30 28  2  0  0  0  0
 31 32  1  0  0  0  0
 31 34  1  0  0  0  0
 32 33  1  0  0  0  0
 33 29  1  0  0  0  0
 34 30  1  0  0  0  0
M  END
>  <MODEL>
8

>  <REMARK>
 VINA RESULT:      -8.7      4.132      7.270
  Name = 
  3 active torsions:
  status: ('A' for Active; 'I' for Inactive)
    1  A    between atoms: C_3  and  C_13
    2  A    between atoms: C_12  and  C_28
    3  A    between atoms: C_17  and  C_29
                            x       y       z     vdW  Elec       q    Type
                         _______ _______ _______ _____ _____    ______ ____

>  <TORSDO>
F 3

$$$$
=
 OpenBabel10262423403D

 34 39  0  0  1  0  0  0  0  0999 V2000
  186.8660  178.4060  138.6860 C   0  0  0  0  0  0  0  0  0  0  0  0
  186.2220  178.2600  140.9940 C   0  0  0  0  0  0  0  0  0  0  0  0
  188.5680  177.4260  140.3180 C   0  0  1  0  0  3  0  0  0  0  0  0
  190.6050  177.2480  141.6640 C   0  0  2  0  0  3  0  0  0  0  0  0
  184.8050  179.2990  139.4100 C   0  0  0  0  0  3  0  0  0  0  0  0
  185.0580  178.8850  140.6760 N   0  0  0  0  0  0  0  0  0  0  0  0
  188.9210  179.0200  142.7300 S   0  0  0  0  0  0  0  0  0  0  0  0
  187.2280  178.1090  140.0180 C   0  0  0  0  0  0  0  0  0  0  0  0
  191.4800  178.0050  142.6300 C   0  0  0  0  0  2  0  0  0  0  0  0
  185.6910  179.0310  138.4200 N   0  0  0  0  0  0  0  0  0  0  0  0
  189.3560  177.1460  139.0950 N   0  0  1  0  0  0  0  0  0  0  0  0
  187.7000  177.9220  137.5430 C   0  0  0  0  0  2  0  0  0  0  0  0
  186.3450  177.6560  142.2780 N   0  0  0  0  0  1  0  0  0  0  0  0
  191.3770  176.7290  140.4560 C   0  0  0  0  0  2  0  0  0  0  0  0
  190.4060  176.1540  139.4080 C   0  0  2  0  0  3  0  0  0  0  0  0
  190.5460  178.7920  143.5450 C   0  0  2  0  0  3  0  0  0  0  0  0
  189.5310  178.2120  141.2240 C   0  0  2  0  0  3  0  0  0  0  0  0
  188.4960  176.7090  137.9990 C   0  0  0  0  0  2  0  0  0  0  0  0
  193.1040  176.1090  136.7410 C   0  0  0  0  0  0  0  0  0  0  0  0
  192.6870  175.0490  135.9300 C   0  0  0  0  0  3  0  0  0  0  0  0
  191.1930  175.7550  138.1920 C   0  0  0  0  0  0  0  0  0  0  0  0
  191.5240  174.3410  136.2460 C   0  0  0  0  0  3  0  0  0  0  0  0
  192.3570  176.4620  137.8690 C   0  0  0  0  0  3  0  0  0  0  0  0
  190.7770  174.6940  137.3740 C   0  0  0  0  0  3  0  0  0  0  0  0
  194.2870  176.8290  136.4190 N   0  0  0  0  0  1  0  0  0  0  0  0
  189.2550  177.5030  145.2330 C   0  0  0  0  0  3  0  0  0  0  0  0
  190.3880  178.1210  144.8770 C   0  0  0  0  0  3  0  0  0  0  0  0
  191.2120  176.9390  147.6200 O   0  0  0  0  0  0  0  0  0  0  0  0
  189.0910  176.8290  146.5690 C   0  0  1  0  0  3  0  0  0  0  0  0
  190.0570  177.3300  147.6180 C   0  0  0  0  0  0  0  0  0  0  0  0
  188.1210  178.2580  148.8770 C   0  0  0  0  0  2  0  0  0  0  0  0
  187.3780  178.0350  147.5650 C   0  0  0  0  0  2  0  0  0  0  0  0
  187.7420  176.7900  147.0080 O   0  0  0  0  0  0  0  0  0  0  0  0
  189.6180  178.3660  148.6090 C   0  0  0  0  0  2  0  0  0  0  0  0
  1  8  1  0  0  0  0
  2 13  1  0  0  0  0
  3  8  1  6  0  0  0
  3 17  1  0  0  0  0
  4 14  1  6  0  0  0
  4  9  1  0  0  0  0
  5  6  2  0  0  0  0
  6  2  1  0  0  0  0
  7 16  1  0  0  0  0
  8  2  2  0  0  0  0
  9 16  1  0  0  0  0
 10  1  2  0  0  0  0
 10  5  1  0  0  0  0
 11 18  1  6  0  0  0
 11 15  1  0  0  0  0
 11  3  1  0  0  0  0
 12 18  1  0  0  0  0
 12  1  1  0  0  0  0
 15 21  1  6  0  0  0
 15 14  1  0  0  0  0
 16 27  1  1  0  0  0
 17  4  1  0  0  0  0
 17  7  1  1  0  0  0
 19 23  1  0  0  0  0
 20 22  1  0  0  0  0
 20 19  2  0  0  0  0
 22 24  2  0  0  0  0
 23 21  2  0  0  0  0
 24 21  1  0  0  0  0
 25 19  1  0  0  0  0
 27 26  2  0  0  0  0
 29 26  1  6  0  0  0
 29 33  1  0  0  0  0
 29 30  1  0  0  0  0
 30 28  2  0  0  0  0
 30 34  1  0  0  0  0
 32 31  1  0  0  0  0
 33 32  1  0  0  0  0
 34 31  1  0  0  0  0
M  END
>  <MODEL>
9

>  <REMARK>
 VINA RESULT:      -8.5      3.821      9.027
  Name = 
  3 active torsions:
  status: ('A' for Active; 'I' for Inactive)
    1  A    between atoms: C_3  and  C_13
    2  A    between atoms: C_12  and  C_28
    3  A    between atoms: C_17  and  C_29
                            x       y       z     vdW  Elec       q    Type
                         _______ _______ _______ _____ _____    ______ ____

>  <TORSDO>
F 3

$$$$
