=
 OpenBabel10272413273D

 32 37  0  0  1  0  0  0  0  0999 V2000
  187.5870  177.6150  143.0890 C   0  0  1  0  0  3  0  0  0  0  0  0
  187.9540  177.1850  145.5650 C   0  0  2  0  0  3  0  0  0  0  0  0
  189.3720  177.7380  145.4470 C   0  0  1  0  0  3  0  0  0  0  0  0
  188.3490  177.3590  148.1620 C   0  0  1  0  0  3  0  0  0  0  0  0
  186.6910  178.1960  141.9720 C   0  0  0  0  0  2  0  0  0  0  0  0
  185.6160  179.1720  142.4530 C   0  0  2  0  0  3  0  0  0  0  0  0
  185.7380  177.2730  144.6100 O   0  0  0  0  0  0  0  0  0  0  0  0
  189.8530  177.4670  147.8470 C   0  0  0  0  0  2  0  0  0  0  0  0
  190.2360  177.0120  146.4490 C   0  0  0  0  0  2  0  0  0  0  0  0
  184.5610  178.4600  143.0420 O   0  0  0  0  0  0  0  0  0  0  0  0
  184.8780  178.3590  144.4030 C   0  0  0  0  0  2  0  0  0  0  0  0
  186.9940  178.6590  147.4300 C   0  0  0  0  0  2  0  0  0  0  0  0
  189.0240  178.1560  142.9920 C   0  0  1  0  0  3  0  0  0  0  0  0
  189.9170  177.4940  144.0470 C   0  0  0  0  0  2  0  0  0  0  0  0
  187.8890  178.6400  148.5150 O   0  0  0  0  0  0  0  0  0  0  0  0
  187.0270  177.8130  144.5150 C   0  0  2  0  0  3  0  0  0  0  0  0
  187.3690  177.2650  146.9950 C   0  0  1  0  0  3  0  0  0  0  0  0
  190.5600  176.4410  139.2610 C   0  0  0  0  0  2  0  0  0  0  0  0
  189.6150  177.9930  141.5790 C   0  0  1  0  0  3  0  0  0  0  0  0
  191.9750  178.0430  142.4480 C   0  0  0  0  0  1  0  0  0  0  0  0
  191.5380  177.1710  140.1820 C   0  0  0  0  0  2  0  0  0  0  0  0
  190.9770  177.2790  141.5970 C   0  0  2  0  0  3  0  0  0  0  0  0
  188.6330  177.2820  140.6370 C   0  0  0  0  0  2  0  0  0  0  0  0
  189.2020  177.1420  139.2230 C   0  0  1  0  0  3  0  0  0  0  0  0
  189.3010  178.4910  138.5120 C   0  0  0  0  0  2  0  0  0  0  0  0
  188.9930  178.3630  137.0280 C   0  0  0  0  0  2  0  0  0  0  0  0
  187.5680  178.7970  136.7410 C   0  0  1  0  0  3  0  0  0  0  0  0
  187.0410  178.0490  135.5790 C   0  0  0  0  0  2  0  0  0  0  0  0
  186.7150  177.6880  136.8970 O   0  0  0  0  0  0  0  0  0  0  0  0
  185.1300  179.8990  141.3660 O   0  0  0  0  0  0  0  0  0  0  0  0
  185.0210  178.9670  140.3340 C   0  0  0  0  0  2  0  0  0  0  0  0
  184.8600  179.6350  139.1200 O   0  0  0  0  0  1  0  0  0  0  0  0
  1  5  1  6  0  0  0
  1 16  1  0  0  0  0
  2 17  1  0  0  0  0
  3  2  1  0  0  0  0
  3  9  1  0  0  0  0
  4 15  1  0  0  0  0
  5  6  1  0  0  0  0
  6 10  1  0  0  0  0
  8  4  1  0  0  0  0
  9  8  1  0  0  0  0
 10 11  1  0  0  0  0
 11  7  1  0  0  0  0
 12 15  1  0  0  0  0
 13  1  1  0  0  0  0
 13 14  1  0  0  0  0
 14  3  1  0  0  0  0
 16  7  1  0  0  0  0
 16  2  1  0  0  0  0
 17 12  1  0  0  0  0
 17  4  1  0  0  0  0
 18 21  1  0  0  0  0
 19 22  1  0  0  0  0
 19 13  1  0  0  0  0
 21 22  1  0  0  0  0
 22 20  1  0  0  0  0
 23 19  1  0  0  0  0
 24 18  1  0  0  0  0
 24 23  1  0  0  0  0
 25 24  1  0  0  0  0
 26 25  1  0  0  0  0
 27 29  1  0  0  0  0
 27 26  1  0  0  0  0
 28 27  1  0  0  0  0
 28 29  1  0  0  0  0
 30  6  1  0  0  0  0
 31 30  1  0  0  0  0
 32 31  1  0  0  0  0
M  END
>  <MODEL>
1

>  <REMARK>
 VINA RESULT:      -8.9      0.000      0.000
  Name = 
  6 active torsions:
  status: ('A' for Active; 'I' for Inactive)
    1  A    between atoms: C_1  and  C_10
    2  A    between atoms: C_4  and  O_13
    3  A    between atoms: C_8  and  C_28
    4  A    between atoms: C_10  and  C_19
    5  A    between atoms: O_13  and  C_15
    6  A    between atoms: C_19  and  C_24
                            x       y       z     vdW  Elec       q    Type
                         _______ _______ _______ _____ _____    ______ ____

>  <TORSDO>
F 6

$$$$
=
 OpenBabel10272413273D

 32 37  0  0  1  0  0  0  0  0999 V2000
  188.4570  178.0950  143.3870 C   0  0  1  0  0  3  0  0  0  0  0  0
  190.2280  177.5680  145.1290 C   0  0  2  0  0  3  0  0  0  0  0  0
  189.1780  176.8470  145.9710 C   0  0  1  0  0  3  0  0  0  0  0  0
  191.9690  176.4360  146.7460 C   0  0  1  0  0  3  0  0  0  0  0  0
  188.0340  178.1060  141.9000 C   0  0  0  0  0  2  0  0  0  0  0  0
  188.8890  177.2300  140.9820 C   0  0  2  0  0  3  0  0  0  0  0  0
  190.8190  178.2100  142.8780 O   0  0  0  0  0  0  0  0  0  0  0  0
  190.7930  176.1800  147.7070 C   0  0  0  0  0  2  0  0  0  0  0  0
  189.5570  177.0150  147.4230 C   0  0  0  0  0  2  0  0  0  0  0  0
  190.1110  177.8690  140.7240 O   0  0  0  0  0  0  0  0  0  0  0  0
  190.9900  177.4340  141.7240 C   0  0  0  0  0  2  0  0  0  0  0  0
  191.9980  175.7340  144.8580 C   0  0  0  0  0  2  0  0  0  0  0  0
  187.4140  177.3760  144.2600 C   0  0  1  0  0  3  0  0  0  0  0  0
  187.8050  177.4610  145.7390 C   0  0  0  0  0  2  0  0  0  0  0  0
  192.2980  175.2160  146.1310 O   0  0  0  0  0  0  0  0  0  0  0  0
  189.8670  177.5170  143.6370 C   0  0  2  0  0  3  0  0  0  0  0  0
  191.6770  177.1010  145.4040 C   0  0  1  0  0  3  0  0  0  0  0  0
  183.9510  180.0270  143.8130 C   0  0  0  0  0  2  0  0  0  0  0  0
  185.9890  177.9110  144.0270 C   0  0  1  0  0  3  0  0  0  0  0  0
  185.3780  177.6340  146.4520 C   0  0  0  0  0  1  0  0  0  0  0  0
  183.9910  179.0790  145.0110 C   0  0  0  0  0  2  0  0  0  0  0  0
  185.4140  178.5960  145.2780 C   0  0  2  0  0  3  0  0  0  0  0  0
  185.9310  178.8470  142.8110 C   0  0  0  0  0  2  0  0  0  0  0  0
  184.5110  179.3600  142.5570 C   0  0  1  0  0  3  0  0  0  0  0  0
  183.5830  178.2500  142.0650 C   0  0  0  0  0  2  0  0  0  0  0  0
  183.2750  178.3960  140.5820 C   0  0  0  0  0  2  0  0  0  0  0  0
  184.5430  178.6840  139.8010 C   0  0  1  0  0  3  0  0  0  0  0  0
  184.2280  178.8010  138.3610 C   0  0  0  0  0  2  0  0  0  0  0  0
  184.4130  179.9350  139.1690 O   0  0  0  0  0  0  0  0  0  0  0  0
  188.2140  177.0250  139.7780 O   0  0  0  0  0  0  0  0  0  0  0  0
  188.7960  177.9240  138.8840 C   0  0  0  0  0  2  0  0  0  0  0  0
  187.8180  178.7900  138.3950 O   0  0  0  0  0  1  0  0  0  0  0  0
  1  5  1  6  0  0  0
  1 16  1  0  0  0  0
  1 13  1  0  0  0  0
  2 17  1  0  0  0  0
  2  3  1  0  0  0  0
  3  9  1  0  0  0  0
  4  8  1  0  0  0  0
  6  5  1  0  0  0  0
  7 16  1  0  0  0  0
  9  8  1  0  0  0  0
 10  6  1  0  0  0  0
 10 11  1  0  0  0  0
 11  7  1  0  0  0  0
 12 17  1  0  0  0  0
 12 15  1  0  0  0  0
 13 14  1  0  0  0  0
 14  3  1  0  0  0  0
 15  4  1  0  0  0  0
 16  2  1  0  0  0  0
 17  4  1  0  0  0  0
 18 21  1  0  0  0  0
 19 13  1  0  0  0  0
 19 22  1  0  0  0  0
 21 22  1  0  0  0  0
 22 20  1  0  0  0  0
 23 19  1  0  0  0  0
 24 23  1  0  0  0  0
 24 18  1  0  0  0  0
 25 24  1  0  0  0  0
 26 25  1  0  0  0  0
 27 26  1  0  0  0  0
 28 29  1  0  0  0  0
 28 27  1  0  0  0  0
 29 27  1  0  0  0  0
 30  6  1  0  0  0  0
 31 30  1  0  0  0  0
 32 31  1  0  0  0  0
M  END
>  <MODEL>
2

>  <REMARK>
 VINA RESULT:      -8.8      2.231      5.014
  Name = 
  6 active torsions:
  status: ('A' for Active; 'I' for Inactive)
    1  A    between atoms: C_1  and  C_10
    2  A    between atoms: C_4  and  O_13
    3  A    between atoms: C_8  and  C_28
    4  A    between atoms: C_10  and  C_19
    5  A    between atoms: O_13  and  C_15
    6  A    between atoms: C_19  and  C_24
                            x       y       z     vdW  Elec       q    Type
                         _______ _______ _______ _____ _____    ______ ____

>  <TORSDO>
F 6

$$$$
=
 OpenBabel10272413273D

 32 37  0  0  1  0  0  0  0  0999 V2000
  188.4620  178.0580  142.1620 C   0  0  1  0  0  3  0  0  0  0  0  0
  189.3520  177.9990  139.7840 C   0  0  2  0  0  3  0  0  0  0  0  0
  190.1870  176.7690  140.1310 C   0  0  1  0  0  3  0  0  0  0  0  0
  189.9450  177.4130  137.2870 C   0  0  1  0  0  3  0  0  0  0  0  0
  187.2470  178.1650  143.1110 C   0  0  0  0  0  2  0  0  0  0  0  0
  185.8910  177.9040  142.4520 C   0  0  2  0  0  3  0  0  0  0  0  0
  187.3540  179.2280  140.3590 O   0  0  0  0  0  0  0  0  0  0  0  0
  191.0710  176.5230  137.8470 C   0  0  0  0  0  2  0  0  0  0  0  0
  191.4400  176.8100  139.2910 C   0  0  0  0  0  2  0  0  0  0  0  0
  185.5070  179.0250  141.7020 O   0  0  0  0  0  0  0  0  0  0  0  0
  186.0160  178.8170  140.4130 C   0  0  0  0  0  2  0  0  0  0  0  0
  188.0090  177.1430  137.7760 C   0  0  0  0  0  2  0  0  0  0  0  0
  189.3230  176.8260  142.4920 C   0  0  1  0  0  3  0  0  0  0  0  0
  190.5710  176.7930  141.6040 C   0  0  0  0  0  2  0  0  0  0  0  0
  188.9050  176.5720  136.8540 O   0  0  0  0  0  0  0  0  0  0  0  0
  188.0940  178.0780  140.6620 C   0  0  2  0  0  3  0  0  0  0  0  0
  189.0300  178.1310  138.2770 C   0  0  1  0  0  3  0  0  0  0  0  0
  191.2310  177.5420  146.3740 C   0  0  0  0  0  2  0  0  0  0  0  0
  189.6980  176.7580  143.9840 C   0  0  1  0  0  3  0  0  0  0  0  0
  191.3490  174.9020  143.5910 C   0  0  0  0  0  1  0  0  0  0  0  0
  191.4560  176.1930  145.6910 C   0  0  0  0  0  2  0  0  0  0  0  0
  191.1420  176.2770  144.2000 C   0  0  2  0  0  3  0  0  0  0  0  0
  189.4530  178.1010  144.6880 C   0  0  0  0  0  2  0  0  0  0  0  0
  189.7970  178.0330  146.1780 C   0  0  1  0  0  3  0  0  0  0  0  0
  188.8090  177.1610  146.9510 C   0  0  0  0  0  2  0  0  0  0  0  0
  187.6240  177.9720  147.4540 C   0  0  0  0  0  2  0  0  0  0  0  0
  186.4590  177.8690  146.4880 C   0  0  1  0  0  3  0  0  0  0  0  0
  185.2320  178.3920  147.1250 C   0  0  0  0  0  2  0  0  0  0  0  0
  185.9770  179.1640  146.2180 O   0  0  0  0  0  0  0  0  0  0  0  0
  184.9350  177.6610  143.4390 O   0  0  0  0  0  0  0  0  0  0  0  0
  184.0210  178.7070  143.3150 C   0  0  0  0  0  2  0  0  0  0  0  0
  183.1050  178.6500  144.3660 O   0  0  0  0  0  1  0  0  0  0  0  0
  1 13  1  0  0  0  0
  1  5  1  1  0  0  0
  2  3  1  0  0  0  0
  2 16  1  0  0  0  0
  3 14  1  0  0  0  0
  4  8  1  0  0  0  0
  4 17  1  0  0  0  0
  6  5  1  0  0  0  0
  6 30  1  0  0  0  0
  7 11  1  0  0  0  0
  7 16  1  0  0  0  0
  8  9  1  0  0  0  0
  9  3  1  0  0  0  0
 10  6  1  0  0  0  0
 11 10  1  0  0  0  0
 12 17  1  0  0  0  0
 13 19  1  0  0  0  0
 14 13  1  0  0  0  0
 15  4  1  0  0  0  0
 15 12  1  0  0  0  0
 16  1  1  0  0  0  0
 17  2  1  0  0  0  0
 19 22  1  0  0  0  0
 19 23  1  0  0  0  0
 20 22  1  0  0  0  0
 21 18  1  0  0  0  0
 22 21  1  0  0  0  0
 23 24  1  0  0  0  0
 24 18  1  0  0  0  0
 24 25  1  0  0  0  0
 25 26  1  0  0  0  0
 27 28  1  0  0  0  0
 27 26  1  0  0  0  0
 29 27  1  0  0  0  0
 29 28  1  0  0  0  0
 31 30  1  0  0  0  0
 31 32  1  0  0  0  0
M  END
>  <MODEL>
3

>  <REMARK>
 VINA RESULT:      -8.6      1.470      6.778
  Name = 
  6 active torsions:
  status: ('A' for Active; 'I' for Inactive)
    1  A    between atoms: C_1  and  C_10
    2  A    between atoms: C_4  and  O_13
    3  A    between atoms: C_8  and  C_28
    4  A    between atoms: C_10  and  C_19
    5  A    between atoms: O_13  and  C_15
    6  A    between atoms: C_19  and  C_24
                            x       y       z     vdW  Elec       q    Type
                         _______ _______ _______ _____ _____    ______ ____

>  <TORSDO>
F 6

$$$$
=
 OpenBabel10272413273D

 32 37  0  0  1  0  0  0  0  0999 V2000
  184.9820  179.0320  140.5050 C   0  0  1  0  0  3  0  0  0  0  0  0
  185.3220  179.1200  143.0200 C   0  0  2  0  0  3  0  0  0  0  0  0
  183.9810  178.4170  143.2220 C   0  0  1  0  0  3  0  0  0  0  0  0
  185.7190  178.5940  145.5690 C   0  0  1  0  0  3  0  0  0  0  0  0
  185.5570  178.6990  139.1100 C   0  0  0  0  0  2  0  0  0  0  0  0
  186.8010  177.8090  139.1220 C   0  0  2  0  0  3  0  0  0  0  0  0
  187.1610  179.4120  141.4840 O   0  0  0  0  0  0  0  0  0  0  0  0
  184.2020  178.3440  145.6730 C   0  0  0  0  0  2  0  0  0  0  0  0
  183.3920  178.9100  144.5210 C   0  0  0  0  0  2  0  0  0  0  0  0
  187.9210  178.5690  139.4920 O   0  0  0  0  0  0  0  0  0  0  0  0
  188.0080  178.4700  140.8870 C   0  0  0  0  0  2  0  0  0  0  0  0
  186.9020  177.5630  144.3050 C   0  0  0  0  0  2  0  0  0  0  0  0
  183.6280  178.3370  140.7340 C   0  0  1  0  0  3  0  0  0  0  0  0
  183.0320  178.7570  142.0820 C   0  0  0  0  0  2  0  0  0  0  0  0
  186.3650  177.3460  145.5870 O   0  0  0  0  0  0  0  0  0  0  0  0
  185.9490  178.7360  141.6720 C   0  0  2  0  0  3  0  0  0  0  0  0
  186.3030  178.9430  144.2030 C   0  0  1  0  0  3  0  0  0  0  0  0
  179.9820  178.5620  138.3100 C   0  0  0  0  0  2  0  0  0  0  0  0
  182.6390  178.5920  139.5820 C   0  0  1  0  0  3  0  0  0  0  0  0
  183.1090  176.3500  138.5430 C   0  0  0  0  0  1  0  0  0  0  0  0
  181.0800  177.5890  137.8820 C   0  0  0  0  0  2  0  0  0  0  0  0
  182.0260  177.2890  139.0420 C   0  0  2  0  0  3  0  0  0  0  0  0
  181.5430  179.5880  139.9910 C   0  0  0  0  0  2  0  0  0  0  0  0
  180.5720  179.8680  138.8420 C   0  0  1  0  0  3  0  0  0  0  0  0
  181.2330  180.6680  137.7200 C   0  0  0  0  0  2  0  0  0  0  0  0
  181.4880  182.1090  138.1370 C   0  0  0  0  0  2  0  0  0  0  0  0
  180.5420  183.0480  137.4130 C   0  0  1  0  0  3  0  0  0  0  0  0
  181.2600  184.2820  137.0280 C   0  0  0  0  0  2  0  0  0  0  0  0
  181.0190  183.2520  136.1040 O   0  0  0  0  0  0  0  0  0  0  0  0
  187.0050  177.2790  137.8480 O   0  0  0  0  0  0  0  0  0  0  0  0
  186.2180  178.0640  137.0050 C   0  0  0  0  0  2  0  0  0  0  0  0
  186.7070  177.9790  135.7010 O   0  0  0  0  0  1  0  0  0  0  0  0
  1  5  1  6  0  0  0
  1 13  1  0  0  0  0
  1 16  1  0  0  0  0
  2  3  1  0  0  0  0
  2 17  1  0  0  0  0
  3  9  1  0  0  0  0
  4 15  1  0  0  0  0
  4  8  1  0  0  0  0
  5  6  1  0  0  0  0
  6 10  1  0  0  0  0
  7 16  1  0  0  0  0
  9  8  1  0  0  0  0
 10 11  1  0  0  0  0
 11  7  1  0  0  0  0
 12 15  1  0  0  0  0
 13 14  1  0  0  0  0
 14  3  1  0  0  0  0
 16  2  1  0  0  0  0
 17 12  1  0  0  0  0
 17  4  1  0  0  0  0
 18 24  1  0  0  0  0
 19 23  1  0  0  0  0
 19 13  1  0  0  0  0
 20 22  1  0  0  0  0
 21 18  1  0  0  0  0
 21 22  1  0  0  0  0
 22 19  1  0  0  0  0
 24 23  1  0  0  0  0
 25 26  1  0  0  0  0
 25 24  1  0  0  0  0
 27 26  1  0  0  0  0
 28 27  1  0  0  0  0
 29 28  1  0  0  0  0
 29 27  1  0  0  0  0
 30  6  1  0  0  0  0
 31 30  1  0  0  0  0
 32 31  1  0  0  0  0
M  END
>  <MODEL>
4

>  <REMARK>
 VINA RESULT:      -8.4      3.354      6.618
  Name = 
  6 active torsions:
  status: ('A' for Active; 'I' for Inactive)
    1  A    between atoms: C_1  and  C_10
    2  A    between atoms: C_4  and  O_13
    3  A    between atoms: C_8  and  C_28
    4  A    between atoms: C_10  and  C_19
    5  A    between atoms: O_13  and  C_15
    6  A    between atoms: C_19  and  C_24
                            x       y       z     vdW  Elec       q    Type
                         _______ _______ _______ _____ _____    ______ ____

>  <TORSDO>
F 6

$$$$
=
 OpenBabel10272413273D

 32 37  0  0  1  0  0  0  0  0999 V2000
  186.0900  178.4690  140.8500 C   0  0  1  0  0  3  0  0  0  0  0  0
  188.3900  178.2250  139.8020 C   0  0  2  0  0  3  0  0  0  0  0  0
  188.8520  177.4180  141.0120 C   0  0  1  0  0  3  0  0  0  0  0  0
  190.6120  177.3750  138.6760 C   0  0  1  0  0  3  0  0  0  0  0  0
  184.5550  178.3710  140.6960 C   0  0  0  0  0  2  0  0  0  0  0  0
  184.0810  177.5690  139.4820 C   0  0  2  0  0  3  0  0  0  0  0  0
  186.4600  178.8460  138.4900 O   0  0  0  0  0  0  0  0  0  0  0  0
  191.1000  177.0160  140.0920 C   0  0  0  0  0  2  0  0  0  0  0  0
  190.3240  177.6860  141.2120 C   0  0  0  0  0  2  0  0  0  0  0  0
  184.2310  178.3390  138.3200 O   0  0  0  0  0  0  0  0  0  0  0  0
  185.5130  178.0520  137.8320 C   0  0  0  0  0  2  0  0  0  0  0  0
  188.9240  176.6080  137.8860 C   0  0  0  0  0  2  0  0  0  0  0  0
  186.5830  177.6640  142.0660 C   0  0  1  0  0  3  0  0  0  0  0  0
  188.0910  177.8520  142.2570 C   0  0  0  0  0  2  0  0  0  0  0  0
  190.2570  176.1800  138.0260 O   0  0  0  0  0  0  0  0  0  0  0  0
  186.8780  178.0740  139.5820 C   0  0  2  0  0  3  0  0  0  0  0  0
  189.2060  177.9470  138.5170 C   0  0  1  0  0  3  0  0  0  0  0  0
  185.2350  179.6330  145.7440 C   0  0  0  0  0  2  0  0  0  0  0  0
  185.8090  178.0140  143.3510 C   0  0  1  0  0  3  0  0  0  0  0  0
  187.2750  176.5340  144.7610 C   0  0  0  0  0  1  0  0  0  0  0  0
  185.8790  178.2510  145.8540 C   0  0  0  0  0  2  0  0  0  0  0  0
  186.6950  177.9290  144.6040 C   0  0  2  0  0  3  0  0  0  0  0  0
  185.1370  179.3910  143.2450 C   0  0  0  0  0  2  0  0  0  0  0  0
  184.3430  179.7340  144.5080 C   0  0  1  0  0  3  0  0  0  0  0  0
  183.1000  178.8580  144.6550 C   0  0  0  0  0  2  0  0  0  0  0  0
  182.2330  178.9050  143.4050 C   0  0  0  0  0  2  0  0  0  0  0  0
  180.7650  178.7890  143.7710 C   0  0  1  0  0  3  0  0  0  0  0  0
  179.9820  179.7970  143.0260 C   0  0  0  0  0  2  0  0  0  0  0  0
  180.0340  178.4540  142.6150 O   0  0  0  0  0  0  0  0  0  0  0  0
  182.7360  177.2370  139.6440 O   0  0  0  0  0  0  0  0  0  0  0  0
  182.6030  175.9830  139.0470 C   0  0  0  0  0  2  0  0  0  0  0  0
  181.3400  175.4640  139.3330 O   0  0  0  0  0  1  0  0  0  0  0  0
  1  5  1  6  0  0  0
  1 13  1  0  0  0  0
  2  3  1  0  0  0  0
  3  9  1  0  0  0  0
  3 14  1  0  0  0  0
  4  8  1  0  0  0  0
  6 30  1  0  0  0  0
  6  5  1  0  0  0  0
  7 16  1  0  0  0  0
  8  9  1  0  0  0  0
 10  6  1  0  0  0  0
 11 10  1  0  0  0  0
 11  7  1  0  0  0  0
 12 15  1  0  0  0  0
 12 17  1  0  0  0  0
 13 14  1  0  0  0  0
 13 19  1  0  0  0  0
 15  4  1  0  0  0  0
 16  2  1  0  0  0  0
 16  1  1  0  0  0  0
 17  4  1  0  0  0  0
 17  2  1  0  0  0  0
 18 21  1  0  0  0  0
 19 22  1  0  0  0  0
 22 20  1  0  0  0  0
 22 21  1  0  0  0  0
 23 19  1  0  0  0  0
 23 24  1  0  0  0  0
 24 25  1  0  0  0  0
 24 18  1  0  0  0  0
 26 27  1  0  0  0  0
 26 25  1  0  0  0  0
 28 27  1  0  0  0  0
 29 28  1  0  0  0  0
 29 27  1  0  0  0  0
 31 32  1  0  0  0  0
 31 30  1  0  0  0  0
M  END
>  <MODEL>
5

>  <REMARK>
 VINA RESULT:      -7.9      2.849      6.888
  Name = 
  6 active torsions:
  status: ('A' for Active; 'I' for Inactive)
    1  A    between atoms: C_1  and  C_10
    2  A    between atoms: C_4  and  O_13
    3  A    between atoms: C_8  and  C_28
    4  A    between atoms: C_10  and  C_19
    5  A    between atoms: O_13  and  C_15
    6  A    between atoms: C_19  and  C_24
                            x       y       z     vdW  Elec       q    Type
                         _______ _______ _______ _____ _____    ______ ____

>  <TORSDO>
F 6

$$$$
=
 OpenBabel10272413273D

 32 37  0  0  1  0  0  0  0  0999 V2000
  187.5150  178.5160  141.3950 C   0  0  1  0  0  3  0  0  0  0  0  0
  187.2150  178.4060  138.8760 C   0  0  2  0  0  3  0  0  0  0  0  0
  188.2490  177.2840  138.8060 C   0  0  1  0  0  3  0  0  0  0  0  0
  186.6590  177.7350  136.3920 C   0  0  1  0  0  3  0  0  0  0  0  0
  186.8670  178.5600  142.7980 C   0  0  0  0  0  2  0  0  0  0  0  0
  185.3990  178.1310  142.8420 C   0  0  2  0  0  3  0  0  0  0  0  0
  185.5800  179.4670  140.3000 O   0  0  0  0  0  0  0  0  0  0  0  0
  188.0080  176.9920  136.3730 C   0  0  0  0  0  2  0  0  0  0  0  0
  188.9640  177.3970  137.4810 C   0  0  0  0  0  2  0  0  0  0  0  0
  184.5910  179.1650  142.3470 O   0  0  0  0  0  0  0  0  0  0  0  0
  184.4720  178.9320  140.9700 C   0  0  0  0  0  2  0  0  0  0  0  0
  185.2070  177.3080  137.7220 C   0  0  0  0  0  2  0  0  0  0  0  0
  188.5640  177.3940  141.2980 C   0  0  1  0  0  3  0  0  0  0  0  0
  189.2610  177.4300  139.9340 C   0  0  0  0  0  2  0  0  0  0  0  0
  185.6380  176.7740  136.4940 O   0  0  0  0  0  0  0  0  0  0  0  0
  186.5010  178.4130  140.2350 C   0  0  2  0  0  3  0  0  0  0  0  0
  186.2260  178.4180  137.6870 C   0  0  1  0  0  3  0  0  0  0  0  0
  191.4960  178.7990  144.2390 C   0  0  0  0  0  2  0  0  0  0  0  0
  189.5860  177.4490  142.4480 C   0  0  1  0  0  3  0  0  0  0  0  0
  191.4980  176.8810  140.9150 C   0  0  0  0  0  1  0  0  0  0  0  0
  191.9720  177.8630  143.1290 C   0  0  0  0  0  2  0  0  0  0  0  0
  190.9870  177.8550  141.9630 C   0  0  2  0  0  3  0  0  0  0  0  0
  189.1080  178.3690  143.5820 C   0  0  0  0  0  2  0  0  0  0  0  0
  190.1070  178.4060  144.7420 C   0  0  1  0  0  3  0  0  0  0  0  0
  190.1520  177.0790  145.4970 C   0  0  0  0  0  2  0  0  0  0  0  0
  190.0400  177.2880  147.0000 C   0  0  0  0  0  2  0  0  0  0  0  0
  188.6530  176.9140  147.4880 C   0  0  1  0  0  3  0  0  0  0  0  0
  188.2320  177.8420  148.5590 C   0  0  0  0  0  2  0  0  0  0  0  0
  187.7780  177.9870  147.2370 O   0  0  0  0  0  0  0  0  0  0  0  0
  185.0370  177.8550  144.1600 O   0  0  0  0  0  0  0  0  0  0  0  0
  184.9690  179.1030  144.7800 C   0  0  0  0  0  2  0  0  0  0  0  0
  183.8380  179.1550  145.5960 O   0  0  0  0  0  1  0  0  0  0  0  0
  1  5  1  1  0  0  0
  2 16  1  0  0  0  0
  3  2  1  0  0  0  0
  3 14  1  0  0  0  0
  4 15  1  0  0  0  0
  4 17  1  0  0  0  0
  5  6  1  0  0  0  0
  6 30  1  0  0  0  0
  7 11  1  0  0  0  0
  8  4  1  0  0  0  0
  8  9  1  0  0  0  0
  9  3  1  0  0  0  0
 10  6  1  0  0  0  0
 11 10  1  0  0  0  0
 13  1  1  0  0  0  0
 13 19  1  0  0  0  0
 14 13  1  0  0  0  0
 15 12  1  0  0  0  0
 16  7  1  0  0  0  0
 16  1  1  0  0  0  0
 17 12  1  0  0  0  0
 17  2  1  0  0  0  0
 18 24  1  0  0  0  0
 19 23  1  0  0  0  0
 20 22  1  0  0  0  0
 21 18  1  0  0  0  0
 22 19  1  0  0  0  0
 22 21  1  0  0  0  0
 23 24  1  0  0  0  0
 24 25  1  0  0  0  0
 25 26  1  0  0  0  0
 26 27  1  0  0  0  0
 27 28  1  0  0  0  0
 29 27  1  0  0  0  0
 29 28  1  0  0  0  0
 30 31  1  0  0  0  0
 31 32  1  0  0  0  0
M  END
>  <MODEL>
6

>  <REMARK>
 VINA RESULT:      -7.7      1.323      7.051
  Name = 
  6 active torsions:
  status: ('A' for Active; 'I' for Inactive)
    1  A    between atoms: C_1  and  C_10
    2  A    between atoms: C_4  and  O_13
    3  A    between atoms: C_8  and  C_28
    4  A    between atoms: C_10  and  C_19
    5  A    between atoms: O_13  and  C_15
    6  A    between atoms: C_19  and  C_24
                            x       y       z     vdW  Elec       q    Type
                         _______ _______ _______ _____ _____    ______ ____

>  <TORSDO>
F 6

$$$$
=
 OpenBabel10272413273D

 32 37  0  0  1  0  0  0  0  0999 V2000
  188.7260  176.9310  143.2940 C   0  0  1  0  0  3  0  0  0  0  0  0
  189.3660  176.6700  140.8500 C   0  0  2  0  0  3  0  0  0  0  0  0
  188.6220  177.9610  140.5210 C   0  0  1  0  0  3  0  0  0  0  0  0
  190.3730  176.9040  138.4290 C   0  0  1  0  0  3  0  0  0  0  0  0
  189.1620  176.9280  144.7770 C   0  0  0  0  0  2  0  0  0  0  0  0
  190.6700  177.0500  145.0040 C   0  0  2  0  0  3  0  0  0  0  0  0
  190.5310  175.4790  142.5980 O   0  0  0  0  0  0  0  0  0  0  0  0
  189.2330  177.8990  138.1370 C   0  0  0  0  0  2  0  0  0  0  0  0
  188.0770  177.8360  139.1190 C   0  0  0  0  0  2  0  0  0  0  0  0
  191.2890  175.8210  144.7350 O   0  0  0  0  0  0  0  0  0  0  0  0
  191.6330  175.8540  143.3770 C   0  0  0  0  0  2  0  0  0  0  0  0
  191.6990  177.1850  139.9200 C   0  0  0  0  0  2  0  0  0  0  0  0
  187.9710  178.2230  142.9350 C   0  0  1  0  0  3  0  0  0  0  0  0
  187.4660  178.1640  141.4900 C   0  0  0  0  0  2  0  0  0  0  0  0
  191.5580  177.6410  138.5970 O   0  0  0  0  0  0  0  0  0  0  0  0
  189.8800  176.6820  142.2970 C   0  0  2  0  0  3  0  0  0  0  0  0
  190.4740  176.3110  139.8320 C   0  0  1  0  0  3  0  0  0  0  0  0
  184.2490  177.9580  145.2370 C   0  0  0  0  0  2  0  0  0  0  0  0
  186.8220  178.5190  143.9170 C   0  0  1  0  0  3  0  0  0  0  0  0
  185.5940  179.9130  142.2210 C   0  0  0  0  0  1  0  0  0  0  0  0
  184.3850  179.0740  144.2020 C   0  0  0  0  0  2  0  0  0  0  0  0
  185.4850  178.7520  143.1940 C   0  0  2  0  0  3  0  0  0  0  0  0
  186.6890  177.4150  144.9770 C   0  0  0  0  0  2  0  0  0  0  0  0
  185.5660  177.7160  145.9730 C   0  0  1  0  0  3  0  0  0  0  0  0
  185.9110  178.8960  146.8800 C   0  0  0  0  0  2  0  0  0  0  0  0
  187.3810  178.8870  147.2730 C   0  0  0  0  0  2  0  0  0  0  0  0
  187.5700  178.2030  148.6140 C   0  0  1  0  0  3  0  0  0  0  0  0
  188.2440  176.9010  148.4210 C   0  0  0  0  0  2  0  0  0  0  0  0
  188.9480  178.0390  148.8500 O   0  0  0  0  0  0  0  0  0  0  0  0
  190.9100  177.4050  146.3320 O   0  0  0  0  0  0  0  0  0  0  0  0
  191.5790  176.3090  146.8790 C   0  0  0  0  0  2  0  0  0  0  0  0
  192.2920  176.7170  148.0070 O   0  0  0  0  0  1  0  0  0  0  0  0
  1  5  1  1  0  0  0
  2 16  1  0  0  0  0
  3  2  1  0  0  0  0
  3 14  1  0  0  0  0
  4 15  1  0  0  0  0
  4 17  1  0  0  0  0
  5  6  1  0  0  0  0
  6 30  1  0  0  0  0
  7 11  1  0  0  0  0
  8  4  1  0  0  0  0
  8  9  1  0  0  0  0
  9  3  1  0  0  0  0
 10  6  1  0  0  0  0
 11 10  1  0  0  0  0
 13  1  1  0  0  0  0
 13 19  1  0  0  0  0
 14 13  1  0  0  0  0
 15 12  1  0  0  0  0
 16  7  1  0  0  0  0
 16  1  1  0  0  0  0
 17 12  1  0  0  0  0
 17  2  1  0  0  0  0
 18 24  1  0  0  0  0
 19 23  1  0  0  0  0
 20 22  1  0  0  0  0
 21 18  1  0  0  0  0
 22 19  1  0  0  0  0
 22 21  1  0  0  0  0
 23 24  1  0  0  0  0
 24 25  1  0  0  0  0
 25 26  1  0  0  0  0
 26 27  1  0  0  0  0
 27 29  1  0  0  0  0
 28 27  1  0  0  0  0
 28 29  1  0  0  0  0
 30 31  1  0  0  0  0
 31 32  1  0  0  0  0
M  END
>  <MODEL>
7

>  <REMARK>
 VINA RESULT:      -7.4      2.822      8.000
  Name = 
  6 active torsions:
  status: ('A' for Active; 'I' for Inactive)
    1  A    between atoms: C_1  and  C_10
    2  A    between atoms: C_4  and  O_13
    3  A    between atoms: C_8  and  C_28
    4  A    between atoms: C_10  and  C_19
    5  A    between atoms: O_13  and  C_15
    6  A    between atoms: C_19  and  C_24
                            x       y       z     vdW  Elec       q    Type
                         _______ _______ _______ _____ _____    ______ ____

>  <TORSDO>
F 6

$$$$
=
 OpenBabel10272413273D

 32 37  0  0  1  0  0  0  0  0999 V2000
  188.3410  178.1850  141.1170 C   0  0  1  0  0  3  0  0  0  0  0  0
  189.1160  177.8780  138.7180 C   0  0  2  0  0  3  0  0  0  0  0  0
  189.9870  176.7020  139.1540 C   0  0  1  0  0  3  0  0  0  0  0  0
  189.5970  177.0300  136.2720 C   0  0  1  0  0  3  0  0  0  0  0  0
  187.1710  178.3810  142.1080 C   0  0  0  0  0  2  0  0  0  0  0  0
  185.7900  178.0340  141.5490 C   0  0  2  0  0  3  0  0  0  0  0  0
  187.1280  179.1390  139.2540 O   0  0  0  0  0  0  0  0  0  0  0  0
  190.7640  176.2180  136.8680 C   0  0  0  0  0  2  0  0  0  0  0  0
  191.1980  176.6650  138.2530 C   0  0  0  0  0  2  0  0  0  0  0  0
  185.3520  179.0630  140.7020 O   0  0  0  0  0  0  0  0  0  0  0  0
  185.8010  178.7220  139.4190 C   0  0  0  0  0  2  0  0  0  0  0  0
  187.6920  176.7930  136.8830 C   0  0  0  0  0  2  0  0  0  0  0  0
  189.2370  177.0050  141.5340 C   0  0  1  0  0  3  0  0  0  0  0  0
  190.4410  176.8900  140.5940 C   0  0  0  0  0  2  0  0  0  0  0  0
  188.5520  176.1360  135.9850 O   0  0  0  0  0  0  0  0  0  0  0  0
  187.9010  178.0380  139.6430 C   0  0  2  0  0  3  0  0  0  0  0  0
  188.7200  177.8410  137.2230 C   0  0  1  0  0  3  0  0  0  0  0  0
  191.5960  177.7090  145.1620 C   0  0  0  0  0  2  0  0  0  0  0  0
  189.6840  177.1040  143.0050 C   0  0  1  0  0  3  0  0  0  0  0  0
  190.4830  174.7190  143.0300 C   0  0  0  0  0  1  0  0  0  0  0  0
  191.2420  176.2690  144.7930 C   0  0  0  0  0  2  0  0  0  0  0  0
  190.8570  176.1620  143.3200 C   0  0  2  0  0  3  0  0  0  0  0  0
  190.0190  178.5510  143.3950 C   0  0  0  0  0  2  0  0  0  0  0  0
  190.4380  178.6610  144.8630 C   0  0  1  0  0  3  0  0  0  0  0  0
  189.2650  178.4110  145.8100 C   0  0  0  0  0  2  0  0  0  0  0  0
  189.7060  177.6660  147.0610 C   0  0  0  0  0  2  0  0  0  0  0  0
  188.5020  177.1530  147.8280 C   0  0  1  0  0  3  0  0  0  0  0  0
  188.2290  178.0380  148.9810 C   0  0  0  0  0  2  0  0  0  0  0  0
  187.4900  178.1300  147.7900 O   0  0  0  0  0  0  0  0  0  0  0  0
  184.8870  177.8900  142.6020 O   0  0  0  0  0  0  0  0  0  0  0  0
  185.4380  178.6310  143.6480 C   0  0  0  0  0  2  0  0  0  0  0  0
  184.5360  179.6200  144.0410 O   0  0  0  0  0  1  0  0  0  0  0  0
  1 13  1  0  0  0  0
  1  5  1  1  0  0  0
  2  3  1  0  0  0  0
  2 16  1  0  0  0  0
  3 14  1  0  0  0  0
  4  8  1  0  0  0  0
  4 17  1  0  0  0  0
  6  5  1  0  0  0  0
  6 30  1  0  0  0  0
  7 11  1  0  0  0  0
  7 16  1  0  0  0  0
  8  9  1  0  0  0  0
  9  3  1  0  0  0  0
 10  6  1  0  0  0  0
 11 10  1  0  0  0  0
 12 17  1  0  0  0  0
 13 19  1  0  0  0  0
 14 13  1  0  0  0  0
 15  4  1  0  0  0  0
 15 12  1  0  0  0  0
 16  1  1  0  0  0  0
 17  2  1  0  0  0  0
 19 22  1  0  0  0  0
 19 23  1  0  0  0  0
 20 22  1  0  0  0  0
 21 18  1  0  0  0  0
 22 21  1  0  0  0  0
 23 24  1  0  0  0  0
 24 18  1  0  0  0  0
 24 25  1  0  0  0  0
 25 26  1  0  0  0  0
 26 27  1  0  0  0  0
 27 28  1  0  0  0  0
 29 27  1  0  0  0  0
 29 28  1  0  0  0  0
 30 31  1  0  0  0  0
 31 32  1  0  0  0  0
M  END
>  <MODEL>
8

>  <REMARK>
 VINA RESULT:      -7.4      1.468      7.213
  Name = 
  6 active torsions:
  status: ('A' for Active; 'I' for Inactive)
    1  A    between atoms: C_1  and  C_10
    2  A    between atoms: C_4  and  O_13
    3  A    between atoms: C_8  and  C_28
    4  A    between atoms: C_10  and  C_19
    5  A    between atoms: O_13  and  C_15
    6  A    between atoms: C_19  and  C_24
                            x       y       z     vdW  Elec       q    Type
                         _______ _______ _______ _____ _____    ______ ____

>  <TORSDO>
F 6

$$$$
=
 OpenBabel10272413273D

 32 37  0  0  1  0  0  0  0  0999 V2000
  189.0610  176.9670  140.4530 C   0  0  1  0  0  3  0  0  0  0  0  0
  188.1690  176.8100  138.0810 C   0  0  2  0  0  3  0  0  0  0  0  0
  187.1470  177.8990  138.3970 C   0  0  1  0  0  3  0  0  0  0  0  0
  187.4840  177.2170  135.5720 C   0  0  1  0  0  3  0  0  0  0  0  0
  190.2800  177.0860  141.3960 C   0  0  0  0  0  2  0  0  0  0  0  0
  191.5740  177.5420  140.7210 C   0  0  2  0  0  3  0  0  0  0  0  0
  190.3400  175.9370  138.6770 O   0  0  0  0  0  0  0  0  0  0  0  0
  186.2300  177.9310  136.1120 C   0  0  0  0  0  2  0  0  0  0  0  0
  185.9150  177.6310  137.5670 C   0  0  0  0  0  2  0  0  0  0  0  0
  192.1320  176.4760  140.0010 O   0  0  0  0  0  0  0  0  0  0  0  0
  191.5940  176.5600  138.7100 C   0  0  0  0  0  2  0  0  0  0  0  0
  189.3520  177.8110  136.0390 C   0  0  0  0  0  2  0  0  0  0  0  0
  188.0130  178.0530  140.7520 C   0  0  1  0  0  3  0  0  0  0  0  0
  186.7740  177.8580  139.8720 C   0  0  0  0  0  2  0  0  0  0  0  0
  188.3740  178.2010  135.1070 O   0  0  0  0  0  0  0  0  0  0  0  0
  189.4240  176.9610  138.9520 C   0  0  2  0  0  3  0  0  0  0  0  0
  188.5040  176.6860  136.5750 C   0  0  1  0  0  3  0  0  0  0  0  0
  186.3140  177.1140  144.6830 C   0  0  0  0  0  2  0  0  0  0  0  0
  187.6360  178.1050  142.2440 C   0  0  1  0  0  3  0  0  0  0  0  0
  185.6190  179.5380  141.7900 C   0  0  0  0  0  1  0  0  0  0  0  0
  185.8000  178.3500  143.9460 C   0  0  0  0  0  2  0  0  0  0  0  0
  186.1220  178.2690  142.4560 C   0  0  2  0  0  3  0  0  0  0  0  0
  188.1680  176.8800  143.0020 C   0  0  0  0  0  2  0  0  0  0  0  0
  187.8210  176.9390  144.4920 C   0  0  1  0  0  3  0  0  0  0  0  0
  188.5970  178.0390  145.2150 C   0  0  0  0  0  2  0  0  0  0  0  0
  189.3130  177.5010  146.4450 C   0  0  0  0  0  2  0  0  0  0  0  0
  188.3170  177.1890  147.5460 C   0  0  1  0  0  3  0  0  0  0  0  0
  188.5910  178.0390  148.7240 C   0  0  0  0  0  2  0  0  0  0  0  0
  187.5630  178.3460  147.8180 O   0  0  0  0  0  0  0  0  0  0  0  0
  192.4800  177.9650  141.6930 O   0  0  0  0  0  0  0  0  0  0  0  0
  191.8650  177.6650  142.9090 C   0  0  0  0  0  2  0  0  0  0  0  0
  191.8550  178.8030  143.7170 O   0  0  0  0  0  1  0  0  0  0  0  0
  1 13  1  0  0  0  0
  1  5  1  1  0  0  0
  2  3  1  0  0  0  0
  2 16  1  0  0  0  0
  3 14  1  0  0  0  0
  4  8  1  0  0  0  0
  4 17  1  0  0  0  0
  6  5  1  0  0  0  0
  6 30  1  0  0  0  0
  7 11  1  0  0  0  0
  7 16  1  0  0  0  0
  8  9  1  0  0  0  0
  9  3  1  0  0  0  0
 10  6  1  0  0  0  0
 11 10  1  0  0  0  0
 12 17  1  0  0  0  0
 13 19  1  0  0  0  0
 14 13  1  0  0  0  0
 15  4  1  0  0  0  0
 15 12  1  0  0  0  0
 16  1  1  0  0  0  0
 17  2  1  0  0  0  0
 19 22  1  0  0  0  0
 19 23  1  0  0  0  0
 20 22  1  0  0  0  0
 21 18  1  0  0  0  0
 22 21  1  0  0  0  0
 23 24  1  0  0  0  0
 24 18  1  0  0  0  0
 24 25  1  0  0  0  0
 25 26  1  0  0  0  0
 26 27  1  0  0  0  0
 27 29  1  0  0  0  0
 27 28  1  0  0  0  0
 29 28  1  0  0  0  0
 30 31  1  0  0  0  0
 31 32  1  0  0  0  0
M  END
>  <MODEL>
9

>  <REMARK>
 VINA RESULT:      -7.4      2.471      8.349
  Name = 
  6 active torsions:
  status: ('A' for Active; 'I' for Inactive)
    1  A    between atoms: C_1  and  C_10
    2  A    between atoms: C_4  and  O_13
    3  A    between atoms: C_8  and  C_28
    4  A    between atoms: C_10  and  C_19
    5  A    between atoms: O_13  and  C_15
    6  A    between atoms: C_19  and  C_24
                            x       y       z     vdW  Elec       q    Type
                         _______ _______ _______ _____ _____    ______ ____

>  <TORSDO>
F 6

$$$$
