=
 OpenBabel10272400513D

 25 28  0  0  1  0  0  0  0  0999 V2000
  187.2440  177.9500  145.6910 C   0  0  0  0  0  0  0  0  0  0  0  0
  188.5320  177.2460  145.3920 C   0  0  1  0  0  3  0  0  0  0  0  0
  187.5910  177.9870  148.0950 C   0  0  0  0  0  3  0  0  0  0  0  0
  186.1760  178.1900  144.9530 C   0  0  0  0  0  0  0  0  0  0  0  0
  183.6960  178.8020  143.8760 C   0  0  0  0  0  3  0  0  0  0  0  0
  188.9770  177.5120  147.8580 C   0  0  0  0  0  3  0  0  0  0  0  0
  185.1460  178.6240  145.7820 C   0  0  0  0  0  0  0  0  0  0  0  0
  183.8930  178.9420  145.2610 C   0  0  0  0  0  3  0  0  0  0  0  0
  190.8560  176.8870  146.3950 C   0  0  0  0  0  0  0  0  0  0  0  0
  191.8800  176.2910  147.6910 Cl  0  0  0  0  0  0  0  0  0  0  0  0
  189.2560  177.8050  144.1990 C   0  0  0  0  0  3  0  0  0  0  0  0
  184.7380  178.3450  143.0430 C   0  0  0  0  0  3  0  0  0  0  0  0
  186.8110  178.2090  147.0390 C   0  0  0  0  0  0  0  0  0  0  0  0
  185.4580  178.6540  147.0440 N   0  0  0  0  0  0  0  0  0  0  0  0
  191.3900  177.1110  145.1890 C   0  0  0  0  0  3  0  0  0  0  0  0
  185.9960  178.0270  143.5810 C   0  0  0  0  0  3  0  0  0  0  0  0
  190.5870  177.6740  144.0790 C   0  0  0  0  0  0  0  0  0  0  0  0
  189.4350  177.2140  146.6210 C   0  0  0  0  0  0  0  0  0  0  0  0
  191.2610  178.1340  142.9040 N   0  0  0  0  0  2  0  0  0  0  0  0
  191.9520  177.2610  142.0450 N   0  0  0  0  0  2  0  0  0  0  0  0
  191.3770  177.3430  140.6990 C   0  0  2  0  0  3  0  0  0  0  0  0
  190.2380  176.4480  140.5540 N   0  0  0  0  0  1  0  0  0  0  0  0
  192.4040  177.0960  139.6370 C   0  0  0  0  0  0  0  0  0  0  0  0
  193.7480  177.2820  139.9270 O   0  0  0  0  0  1  0  0  0  0  0  0
  192.0620  176.6880  138.4950 O   0  0  0  0  0  0  0  0  0  0  0  0
  1 13  1  0  0  0  0
  2 11  1  6  0  0  0
  2  1  1  0  0  0  0
  2 18  1  0  0  0  0
  4  1  2  0  0  0  0
  4  7  1  0  0  0  0
  5  8  2  0  0  0  0
  6  3  1  0  0  0  0
  7 14  2  0  0  0  0
  8  7  1  0  0  0  0
  9 18  1  0  0  0  0
  9 10  1  0  0  0  0
 12 16  2  0  0  0  0
 12  5  1  0  0  0  0
 13 14  1  0  0  0  0
 13  3  2  0  0  0  0
 15  9  2  0  0  0  0
 16  4  1  0  0  0  0
 17 11  2  0  0  0  0
 17 15  1  0  0  0  0
 18  6  2  0  0  0  0
 19 17  1  0  0  0  0
 20 19  1  0  0  0  0
 21 22  1  1  0  0  0
 21 20  1  0  0  0  0
 23 24  1  0  0  0  0
 23 21  1  0  0  0  0
 25 23  2  0  0  0  0
M  END
>  <MODEL>
1

>  <REMARK>
 VINA RESULT:     -10.9      0.000      0.000
  Name = 
  4 active torsions:
  status: ('A' for Active; 'I' for Inactive)
    1  A    between atoms: C_2  and  C_21
    2  A    between atoms: N_6  and  N_15
    3  A    between atoms: N_6  and  C_23
    4  A    between atoms: N_15  and  C_21
                            x       y       z     vdW  Elec       q    Type
                         _______ _______ _______ _____ _____    ______ ____

>  <TORSDO>
F 4

$$$$
=
 OpenBabel10272400513D

 25 28  0  0  1  0  0  0  0  0999 V2000
  187.0760  177.9810  145.6720 C   0  0  0  0  0  0  0  0  0  0  0  0
  188.3340  177.2250  145.3720 C   0  0  1  0  0  3  0  0  0  0  0  0
  187.5160  178.1620  148.0540 C   0  0  0  0  0  3  0  0  0  0  0  0
  185.9870  178.2020  144.9600 C   0  0  0  0  0  0  0  0  0  0  0  0
  183.4830  178.8110  143.9370 C   0  0  0  0  0  3  0  0  0  0  0  0
  188.8800  177.6350  147.7980 C   0  0  0  0  0  3  0  0  0  0  0  0
  185.0010  178.7160  145.7970 C   0  0  0  0  0  0  0  0  0  0  0  0
  183.7360  179.0330  145.3020 C   0  0  0  0  0  3  0  0  0  0  0  0
  190.6850  176.8680  146.3110 C   0  0  0  0  0  0  0  0  0  0  0  0
  191.7430  176.3290  147.6050 Cl  0  0  0  0  0  0  0  0  0  0  0  0
  189.0250  177.6860  144.1200 C   0  0  0  0  0  3  0  0  0  0  0  0
  184.4810  178.2730  143.0980 C   0  0  0  0  0  3  0  0  0  0  0  0
  186.7020  178.3370  147.0160 C   0  0  0  0  0  0  0  0  0  0  0  0
  185.3610  178.8180  147.0410 N   0  0  0  0  0  0  0  0  0  0  0  0
  191.1780  177.0000  145.0750 C   0  0  0  0  0  3  0  0  0  0  0  0
  185.7510  177.9560  143.6090 C   0  0  0  0  0  3  0  0  0  0  0  0
  190.3470  177.5120  143.9600 C   0  0  0  0  0  0  0  0  0  0  0  0
  189.2820  177.2470  146.5670 C   0  0  0  0  0  0  0  0  0  0  0  0
  190.9870  177.8780  142.7340 N   0  0  0  0  0  2  0  0  0  0  0  0
  190.3570  177.7310  141.4860 N   0  0  0  0  0  2  0  0  0  0  0  0
  191.2160  176.9480  140.5930 C   0  0  2  0  0  3  0  0  0  0  0  0
  192.5210  177.5730  140.4340 N   0  0  0  0  0  1  0  0  0  0  0  0
  190.5650  176.7000  139.2670 C   0  0  0  0  0  0  0  0  0  0  0  0
  189.8830  177.7300  138.6350 O   0  0  0  0  0  0  0  0  0  0  0  0
  190.6600  175.5770  138.7050 O   0  0  0  0  0  1  0  0  0  0  0  0
  1 13  1  0  0  0  0
  2 11  1  6  0  0  0
  2  1  1  0  0  0  0
  2 18  1  0  0  0  0
  4  1  2  0  0  0  0
  4  7  1  0  0  0  0
  5  8  2  0  0  0  0
  6  3  1  0  0  0  0
  7 14  2  0  0  0  0
  8  7  1  0  0  0  0
  9 18  1  0  0  0  0
  9 10  1  0  0  0  0
 12 16  2  0  0  0  0
 12  5  1  0  0  0  0
 13 14  1  0  0  0  0
 13  3  2  0  0  0  0
 15  9  2  0  0  0  0
 16  4  1  0  0  0  0
 17 11  2  0  0  0  0
 17 15  1  0  0  0  0
 18  6  2  0  0  0  0
 19 17  1  0  0  0  0
 20 19  1  0  0  0  0
 21 22  1  6  0  0  0
 21 20  1  0  0  0  0
 23 21  1  0  0  0  0
 24 23  2  0  0  0  0
 25 23  1  0  0  0  0
M  END
>  <MODEL>
2

>  <REMARK>
 VINA RESULT:     -10.6      1.001      1.175
  Name = 
  4 active torsions:
  status: ('A' for Active; 'I' for Inactive)
    1  A    between atoms: C_2  and  C_21
    2  A    between atoms: N_6  and  N_15
    3  A    between atoms: N_6  and  C_23
    4  A    between atoms: N_15  and  C_21
                            x       y       z     vdW  Elec       q    Type
                         _______ _______ _______ _____ _____    ______ ____

>  <TORSDO>
F 4

$$$$
=
 OpenBabel10272400513D

 25 28  0  0  1  0  0  0  0  0999 V2000
  186.9800  177.7620  144.3360 C   0  0  0  0  0  0  0  0  0  0  0  0
  187.9670  176.9790  143.5260 C   0  0  0  0  0  0  0  0  0  0  0  0
  188.2550  177.6190  146.3990 C   0  0  0  0  0  3  0  0  0  0  0  0
  185.7360  178.1320  144.0960 C   0  0  0  0  0  0  0  0  0  0  0  0
  183.1050  179.0060  144.1210 C   0  0  0  0  0  3  0  0  0  0  0  0
  189.3790  177.0510  145.6130 C   0  0  0  0  0  3  0  0  0  0  0  0
  185.1680  178.5920  145.2790 C   0  0  0  0  0  0  0  0  0  0  0  0
  183.8480  179.0410  145.3140 C   0  0  0  0  0  3  0  0  0  0  0  0
  190.4510  176.3750  143.5030 C   0  0  0  0  0  0  0  0  0  0  0  0
  191.8420  175.6190  144.2630 Cl  0  0  0  0  0  0  0  0  0  0  0  0
  188.2090  177.5530  142.1580 C   0  0  0  0  0  2  0  0  0  0  0  0
  183.6800  178.5210  142.9280 C   0  0  0  0  0  3  0  0  0  0  0  0
  187.1460  177.9690  145.7510 C   0  0  0  0  0  0  0  0  0  0  0  0
  185.9560  178.5170  146.3100 N   0  0  0  0  0  0  0  0  0  0  0  0
  190.4820  176.6320  142.1900 C   0  0  0  0  0  3  0  0  0  0  0  0
  185.0110  178.0710  142.9070 C   0  0  0  0  0  3  0  0  0  0  0  0
  189.3630  177.3260  141.5110 C   0  0  0  0  0  0  0  0  0  0  0  0
  189.2760  176.7980  144.2890 C   0  0  0  0  0  0  0  0  0  0  0  0
  189.5570  177.8050  140.1780 N   0  0  0  0  0  2  0  0  0  0  0  0
  188.6690  178.7100  139.5690 N   0  0  0  0  0  2  0  0  0  0  0  0
  188.4770  178.3360  138.1640 C   0  0  2  0  0  3  0  0  0  0  0  0
  188.8680  179.4180  137.2710 N   0  0  0  0  0  1  0  0  0  0  0  0
  187.0750  177.8860  137.8930 C   0  0  0  0  0  0  0  0  0  0  0  0
  186.0180  178.7560  138.1220 O   0  0  0  0  0  1  0  0  0  0  0  0
  186.8470  176.7370  137.4280 O   0  0  0  0  0  0  0  0  0  0  0  0
  1 13  1  0  0  0  0
  2 18  1  0  0  0  0
  2  1  2  0  0  0  0
  4  1  1  0  0  0  0
  4  7  1  0  0  0  0
  5  8  1  0  0  0  0
  6  3  2  0  0  0  0
  7  8  2  0  0  0  0
  7 14  1  0  0  0  0
  9 10  1  0  0  0  0
  9 18  2  0  0  0  0
 11  2  1  0  0  0  0
 12  5  2  0  0  0  0
 13 14  2  0  0  0  0
 13  3  1  0  0  0  0
 15  9  1  0  0  0  0
 16 12  1  0  0  0  0
 16  4  2  0  0  0  0
 17 11  1  0  0  0  0
 17 15  2  0  0  0  0
 18  6  1  0  0  0  0
 19 17  1  0  0  0  0
 20 19  1  0  0  0  0
 21 22  1  6  0  0  0
 21 20  1  0  0  0  0
 23 24  1  0  0  0  0
 23 21  1  0  0  0  0
 25 23  2  0  0  0  0
M  END
>  <MODEL>
3

>  <REMARK>
 VINA RESULT:     -10.1      2.699      3.250
  Name = 
  4 active torsions:
  status: ('A' for Active; 'I' for Inactive)
    1  A    between atoms: C_2  and  C_21
    2  A    between atoms: N_6  and  N_15
    3  A    between atoms: N_6  and  C_23
    4  A    between atoms: N_15  and  C_21
                            x       y       z     vdW  Elec       q    Type
                         _______ _______ _______ _____ _____    ______ ____

>  <TORSDO>
F 4

$$$$
=
 OpenBabel10272400513D

 25 28  0  0  1  0  0  0  0  0999 V2000
  185.5060  178.2200  144.3510 C   0  0  0  0  0  0  0  0  0  0  0  0
  186.7720  177.4410  144.1660 C   0  0  1  0  0  3  0  0  0  0  0  0
  185.8420  178.5860  146.7290 C   0  0  0  0  0  3  0  0  0  0  0  0
  184.4500  178.3870  143.5760 C   0  0  0  0  0  0  0  0  0  0  0  0
  181.9970  178.9170  142.3990 C   0  0  0  0  0  3  0  0  0  0  0  0
  187.2130  178.0390  146.5750 C   0  0  0  0  0  3  0  0  0  0  0  0
  183.4310  178.9650  144.3250 C   0  0  0  0  0  0  0  0  0  0  0  0
  182.1910  179.2440  143.7520 C   0  0  0  0  0  3  0  0  0  0  0  0
  189.0780  177.1570  145.2330 C   0  0  0  0  0  0  0  0  0  0  0  0
  190.0760  176.7180  146.6110 Cl  0  0  0  0  0  0  0  0  0  0  0  0
  187.5210  177.8040  142.9140 C   0  0  0  0  0  3  0  0  0  0  0  0
  183.0280  178.3150  141.6490 C   0  0  0  0  0  3  0  0  0  0  0  0
  185.0750  178.6810  145.6450 C   0  0  0  0  0  0  0  0  0  0  0  0
  183.7370  179.1630  145.5730 N   0  0  0  0  0  0  0  0  0  0  0  0
  189.6260  177.1910  144.0130 C   0  0  0  0  0  3  0  0  0  0  0  0
  184.2730  178.0370  142.2380 C   0  0  0  0  0  3  0  0  0  0  0  0
  188.8480  177.6160  142.8270 C   0  0  0  0  0  0  0  0  0  0  0  0
  187.6670  177.5560  145.3960 C   0  0  0  0  0  0  0  0  0  0  0  0
  189.5420  177.8850  141.6060 N   0  0  0  0  0  2  0  0  0  0  0  0
  188.9870  177.5950  140.3470 N   0  0  0  0  0  2  0  0  0  0  0  0
  189.9240  177.9980  139.2940 C   0  0  2  0  0  3  0  0  0  0  0  0
  189.2540  178.7700  138.2570 N   0  0  0  0  0  1  0  0  0  0  0  0
  190.6530  176.8250  138.7160 C   0  0  0  0  0  0  0  0  0  0  0  0
  190.1190  175.5510  138.8530 O   0  0  0  0  0  1  0  0  0  0  0  0
  191.7270  176.9870  138.0780 O   0  0  0  0  0  0  0  0  0  0  0  0
  1 13  1  0  0  0  0
  2 11  1  6  0  0  0
  2  1  1  0  0  0  0
  2 18  1  0  0  0  0
  4  7  1  0  0  0  0
  4  1  2  0  0  0  0
  5  8  2  0  0  0  0
  6  3  1  0  0  0  0
  7 14  2  0  0  0  0
  8  7  1  0  0  0  0
  9 18  1  0  0  0  0
  9 10  1  0  0  0  0
 12 16  2  0  0  0  0
 12  5  1  0  0  0  0
 13  3  2  0  0  0  0
 14 13  1  0  0  0  0
 15  9  2  0  0  0  0
 16  4  1  0  0  0  0
 17 11  2  0  0  0  0
 17 15  1  0  0  0  0
 18  6  2  0  0  0  0
 19 17  1  0  0  0  0
 20 19  1  0  0  0  0
 21 22  1  6  0  0  0
 21 20  1  0  0  0  0
 23 24  1  0  0  0  0
 23 21  1  0  0  0  0
 25 23  2  0  0  0  0
M  END
>  <MODEL>
4

>  <REMARK>
 VINA RESULT:      -9.5      1.628      2.387
  Name = 
  4 active torsions:
  status: ('A' for Active; 'I' for Inactive)
    1  A    between atoms: C_2  and  C_21
    2  A    between atoms: N_6  and  N_15
    3  A    between atoms: N_6  and  C_23
    4  A    between atoms: N_15  and  C_21
                            x       y       z     vdW  Elec       q    Type
                         _______ _______ _______ _____ _____    ______ ____

>  <TORSDO>
F 4

$$$$
=
 OpenBabel10272400513D

 25 28  0  0  1  0  0  0  0  0999 V2000
  187.5750  177.9720  142.3080 C   0  0  0  0  0  0  0  0  0  0  0  0
  187.2650  177.4920  143.6920 C   0  0  1  0  0  3  0  0  0  0  0  0
  185.4470  179.1030  142.0070 C   0  0  0  0  0  3  0  0  0  0  0  0
  188.5270  177.6460  141.4520 C   0  0  0  0  0  0  0  0  0  0  0  0
  190.2110  177.2100  139.2940 C   0  0  0  0  0  3  0  0  0  0  0  0
  185.1700  178.8710  143.4470 C   0  0  0  0  0  3  0  0  0  0  0  0
  188.2040  178.1680  140.2040 C   0  0  0  0  0  0  0  0  0  0  0  0
  189.0390  177.9650  139.1060 C   0  0  0  0  0  3  0  0  0  0  0  0
  185.7930  178.0870  145.6960 C   0  0  0  0  0  0  0  0  0  0  0  0
  184.2010  178.3290  146.3980 Cl  0  0  0  0  0  0  0  0  0  0  0  0
  188.4210  177.6250  144.6450 C   0  0  0  0  0  3  0  0  0  0  0  0
  190.5230  176.6690  140.5570 C   0  0  0  0  0  3  0  0  0  0  0  0
  186.6100  178.6860  141.5130 C   0  0  0  0  0  0  0  0  0  0  0  0
  187.0680  178.7980  140.1690 N   0  0  0  0  0  0  0  0  0  0  0  0
  186.8390  177.8800  146.5030 C   0  0  0  0  0  3  0  0  0  0  0  0
  189.6730  176.8800  141.6560 C   0  0  0  0  0  3  0  0  0  0  0  0
  188.2130  177.7350  145.9670 C   0  0  0  0  0  0  0  0  0  0  0  0
  186.0170  178.1770  144.2400 C   0  0  0  0  0  0  0  0  0  0  0  0
  189.3160  177.7790  146.8760 N   0  0  0  0  0  2  0  0  0  0  0  0
  190.0740  176.6370  147.1910 N   0  0  0  0  0  2  0  0  0  0  0  0
  191.4960  176.9180  146.9690 C   0  0  2  0  0  3  0  0  0  0  0  0
  191.7400  177.3580  145.6030 N   0  0  0  0  0  1  0  0  0  0  0  0
  192.3590  175.7480  147.3270 C   0  0  0  0  0  0  0  0  0  0  0  0
  192.9330  175.6800  148.5890 O   0  0  0  0  0  1  0  0  0  0  0  0
  192.5400  174.8080  146.5080 O   0  0  0  0  0  0  0  0  0  0  0  0
  1  2  1  0  0  0  0
  2 18  1  0  0  0  0
  2 11  1  1  0  0  0
  3  6  1  0  0  0  0
  4 16  1  0  0  0  0
  4  1  2  0  0  0  0
  5 12  1  0  0  0  0
  6 18  2  0  0  0  0
  7  4  1  0  0  0  0
  8  5  2  0  0  0  0
  8  7  1  0  0  0  0
  9 10  1  0  0  0  0
  9 15  2  0  0  0  0
 11 17  2  0  0  0  0
 12 16  2  0  0  0  0
 13  3  2  0  0  0  0
 13  1  1  0  0  0  0
 14  7  2  0  0  0  0
 14 13  1  0  0  0  0
 17 15  1  0  0  0  0
 17 19  1  0  0  0  0
 18  9  1  0  0  0  0
 19 20  1  0  0  0  0
 21 22  1  6  0  0  0
 21 20  1  0  0  0  0
 21 23  1  0  0  0  0
 23 24  1  0  0  0  0
 25 23  2  0  0  0  0
M  END
>  <MODEL>
5

>  <REMARK>
 VINA RESULT:      -9.4      3.541      5.986
  Name = 
  4 active torsions:
  status: ('A' for Active; 'I' for Inactive)
    1  A    between atoms: C_2  and  C_21
    2  A    between atoms: N_6  and  N_15
    3  A    between atoms: N_6  and  C_23
    4  A    between atoms: N_15  and  C_21
                            x       y       z     vdW  Elec       q    Type
                         _______ _______ _______ _____ _____    ______ ____

>  <TORSDO>
F 4

$$$$
=
 OpenBabel10272400513D

 25 28  0  0  1  0  0  0  0  0999 V2000
  189.2960  177.4390  144.0090 C   0  0  0  0  0  0  0  0  0  0  0  0
  189.0080  177.0650  142.5870 C   0  0  0  0  0  0  0  0  0  0  0  0
  191.7060  177.2430  143.7820 C   0  0  0  0  0  3  0  0  0  0  0  0
  188.5180  177.5400  145.0710 C   0  0  0  0  0  0  0  0  0  0  0  0
  187.3480  177.7480  147.5750 C   0  0  0  0  0  3  0  0  0  0  0  0
  191.5140  177.1040  142.3170 C   0  0  0  0  0  3  0  0  0  0  0  0
  189.3170  177.6390  146.2050 C   0  0  0  0  0  0  0  0  0  0  0  0
  188.7500  177.7490  147.4730 C   0  0  0  0  0  3  0  0  0  0  0  0
  190.1230  177.0800  140.2860 C   0  0  0  0  0  0  0  0  0  0  0  0
  191.4110  176.5540  139.2140 Cl  0  0  0  0  0  0  0  0  0  0  0  0
  187.9400  177.9110  141.9500 C   0  0  0  0  0  3  0  0  0  0  0  0
  186.5430  177.6300  146.4240 C   0  0  0  0  0  3  0  0  0  0  0  0
  190.6320  177.4280  144.5450 C   0  0  0  0  0  0  0  0  0  0  0  0
  190.5930  177.5730  145.9620 N   0  0  0  0  0  0  0  0  0  0  0  0
  188.9910  177.5620  139.7610 C   0  0  0  0  0  3  0  0  0  0  0  0
  187.1260  177.5180  145.1510 C   0  0  0  0  0  3  0  0  0  0  0  0
  187.8990  178.0800  140.6190 C   0  0  0  0  0  0  0  0  0  0  0  0
  190.2850  177.0690  141.7530 C   0  0  2  0  0  3  0  0  0  0  0  0
  186.8350  178.8170  140.0110 N   0  0  0  0  0  2  0  0  0  0  0  0
  185.7360  179.2940  140.7470 N   0  0  0  0  0  2  0  0  0  0  0  0
  184.4980  179.0180  140.0130 C   0  0  2  0  0  3  0  0  0  0  0  0
  184.1420  180.1290  139.1410 N   0  0  0  0  0  1  0  0  0  0  0  0
  183.3710  178.6640  140.9330 C   0  0  0  0  0  0  0  0  0  0  0  0
  183.5880  178.6310  142.3030 O   0  0  0  0  0  1  0  0  0  0  0  0
  182.2190  178.4300  140.4770 O   0  0  0  0  0  0  0  0  0  0  0  0
  1 13  1  0  0  0  0
  1  4  1  0  0  0  0
  2  1  2  0  0  0  0
  3 13  1  0  0  0  0
  4 16  2  0  0  0  0
  4  7  1  0  0  0  0
  6  3  2  0  0  0  0
  7  8  2  0  0  0  0
  8  5  1  0  0  0  0
  9 18  1  0  0  0  0
 10  9  1  0  0  0  0
 11  2  1  0  0  0  0
 12  5  2  0  0  0  0
 13 14  2  0  0  0  0
 14  7  1  0  0  0  0
 15  9  2  0  0  0  0
 15 17  1  0  0  0  0
 16 12  1  0  0  0  0
 17 11  2  0  0  0  0
 18  6  1  1  0  0  0
 18  2  1  0  0  0  0
 19 17  1  0  0  0  0
 19 20  1  0  0  0  0
 21 22  1  1  0  0  0
 21 20  1  0  0  0  0
 21 23  1  0  0  0  0
 23 24  1  0  0  0  0
 25 23  2  0  0  0  0
M  END
>  <MODEL>
6

>  <REMARK>
 VINA RESULT:      -9.3      4.152      6.044
  Name = 
  4 active torsions:
  status: ('A' for Active; 'I' for Inactive)
    1  A    between atoms: C_2  and  C_21
    2  A    between atoms: N_6  and  N_15
    3  A    between atoms: N_6  and  C_23
    4  A    between atoms: N_15  and  C_21
                            x       y       z     vdW  Elec       q    Type
                         _______ _______ _______ _____ _____    ______ ____

>  <TORSDO>
F 4

$$$$
=
 OpenBabel10272400513D

 25 28  0  0  1  0  0  0  0  0999 V2000
  187.2940  177.9760  142.1640 C   0  0  0  0  0  0  0  0  0  0  0  0
  186.4920  177.6270  143.3800 C   0  0  1  0  0  3  0  0  0  0  0  0
  185.4940  179.1950  141.0800 C   0  0  0  0  0  3  0  0  0  0  0  0
  188.4520  177.5310  141.7120 C   0  0  0  0  0  0  0  0  0  0  0  0
  190.7330  176.8310  140.3000 C   0  0  0  0  0  3  0  0  0  0  0  0
  184.7240  179.0950  142.3450 C   0  0  0  0  0  3  0  0  0  0  0  0
  188.6190  177.9680  140.4020 C   0  0  0  0  0  0  0  0  0  0  0  0
  189.7610  177.6310  139.6750 C   0  0  0  0  0  3  0  0  0  0  0  0
  184.4750  178.4620  144.7100 C   0  0  0  0  0  0  0  0  0  0  0  0
  182.7640  178.8460  144.8020 Cl  0  0  0  0  0  0  0  0  0  0  0  0
  187.2580  177.7730  144.6650 C   0  0  0  0  0  3  0  0  0  0  0  0
  190.5500  176.3760  141.6220 C   0  0  0  0  0  3  0  0  0  0  0  0
  186.7200  178.6760  141.0450 C   0  0  0  0  0  0  0  0  0  0  0  0
  187.6170  178.6540  139.9390 N   0  0  0  0  0  0  0  0  0  0  0  0
  185.1620  178.2630  145.8410 C   0  0  0  0  0  3  0  0  0  0  0  0
  189.3950  176.7210  142.3440 C   0  0  0  0  0  3  0  0  0  0  0  0
  186.6200  178.0000  145.8250 C   0  0  0  0  0  0  0  0  0  0  0  0
  185.1900  178.4210  143.4200 C   0  0  0  0  0  0  0  0  0  0  0  0
  187.3450  178.0560  147.0560 N   0  0  0  0  0  2  0  0  0  0  0  0
  188.0160  176.9390  147.5830 N   0  0  0  0  0  2  0  0  0  0  0  0
  189.3170  177.3560  148.1160 C   0  0  2  0  0  3  0  0  0  0  0  0
  189.3140  178.7670  148.4730 N   0  0  0  0  0  1  0  0  0  0  0  0
  190.4350  177.0330  147.1750 C   0  0  0  0  0  0  0  0  0  0  0  0
  191.7330  176.9420  147.6570 O   0  0  0  0  0  1  0  0  0  0  0  0
  190.2050  176.8090  145.9560 O   0  0  0  0  0  0  0  0  0  0  0  0
  1  2  1  0  0  0  0
  2 18  1  0  0  0  0
  2 11  1  1  0  0  0
  3  6  1  0  0  0  0
  4  1  2  0  0  0  0
  4 16  1  0  0  0  0
  5 12  1  0  0  0  0
  6 18  2  0  0  0  0
  7  4  1  0  0  0  0
  8  5  2  0  0  0  0
  8  7  1  0  0  0  0
  9 10  1  0  0  0  0
  9 15  2  0  0  0  0
 11 17  2  0  0  0  0
 12 16  2  0  0  0  0
 13  3  2  0  0  0  0
 13  1  1  0  0  0  0
 14  7  2  0  0  0  0
 14 13  1  0  0  0  0
 17 15  1  0  0  0  0
 17 19  1  0  0  0  0
 18  9  1  0  0  0  0
 19 20  1  0  0  0  0
 20 21  1  0  0  0  0
 21 22  1  6  0  0  0
 23 24  1  0  0  0  0
 23 21  1  0  0  0  0
 25 23  2  0  0  0  0
M  END
>  <MODEL>
7

>  <REMARK>
 VINA RESULT:      -8.9      3.479      6.609
  Name = 
  4 active torsions:
  status: ('A' for Active; 'I' for Inactive)
    1  A    between atoms: C_2  and  C_21
    2  A    between atoms: N_6  and  N_15
    3  A    between atoms: N_6  and  C_23
    4  A    between atoms: N_15  and  C_21
                            x       y       z     vdW  Elec       q    Type
                         _______ _______ _______ _____ _____    ______ ____

>  <TORSDO>
F 4

$$$$
=
 OpenBabel10272400513D

 25 28  0  0  1  0  0  0  0  0999 V2000
  188.4390  177.5690  144.1480 C   0  0  0  0  0  0  0  0  0  0  0  0
  188.4370  178.1180  142.7540 C   0  0  0  0  0  0  0  0  0  0  0  0
  186.0500  177.8560  144.4790 C   0  0  0  0  0  3  0  0  0  0  0  0
  189.4190  177.3090  144.9940 C   0  0  0  0  0  0  0  0  0  0  0  0
  191.0830  176.7440  147.1380 C   0  0  0  0  0  3  0  0  0  0  0  0
  185.9330  178.1800  143.0360 C   0  0  0  0  0  3  0  0  0  0  0  0
  188.8750  177.0840  146.2540 C   0  0  0  0  0  0  0  0  0  0  0  0
  189.6930  176.7940  147.3450 C   0  0  0  0  0  3  0  0  0  0  0  0
  186.8580  178.4330  140.7690 C   0  0  0  0  0  0  0  0  0  0  0  0
  185.4010  179.1290  140.0760 Cl  0  0  0  0  0  0  0  0  0  0  0  0
  189.2970  177.3350  141.8020 C   0  0  0  0  0  2  0  0  0  0  0  0
  191.6300  176.9910  145.8620 C   0  0  0  0  0  3  0  0  0  0  0  0
  187.2510  177.5440  144.9610 C   0  0  0  0  0  0  0  0  0  0  0  0
  187.5830  177.2140  146.3060 N   0  0  0  0  0  0  0  0  0  0  0  0
  187.8240  177.9950  139.9540 C   0  0  0  0  0  3  0  0  0  0  0  0
  190.7950  177.2840  144.7700 C   0  0  0  0  0  3  0  0  0  0  0  0
  189.0440  177.3410  140.4830 C   0  0  0  0  0  0  0  0  0  0  0  0
  187.0130  178.2560  142.2250 C   0  0  0  0  0  0  0  0  0  0  0  0
  189.9130  176.6630  139.5720 N   0  0  0  0  0  2  0  0  0  0  0  0
  190.6910  177.3500  138.6230 N   0  0  0  0  0  2  0  0  0  0  0  0
  191.5310  176.3960  137.8940 C   0  0  2  0  0  3  0  0  0  0  0  0
  191.1860  175.0220  138.2320 N   0  0  0  0  0  1  0  0  0  0  0  0
  192.9890  176.6590  138.1070 C   0  0  0  0  0  0  0  0  0  0  0  0
  193.8560  176.6310  137.0230 O   0  0  0  0  0  0  0  0  0  0  0  0
  193.4310  176.9410  139.2520 O   0  0  0  0  0  1  0  0  0  0  0  0
  1 13  1  0  0  0  0
  1  4  1  0  0  0  0
  2  1  2  0  0  0  0
  3 13  1  0  0  0  0
  4  7  1  0  0  0  0
  5  8  1  0  0  0  0
  6  3  2  0  0  0  0
  7 14  1  0  0  0  0
  7  8  2  0  0  0  0
  9 18  2  0  0  0  0
 10  9  1  0  0  0  0
 11  2  1  0  0  0  0
 12  5  2  0  0  0  0
 13 14  2  0  0  0  0
 15 17  2  0  0  0  0
 15  9  1  0  0  0  0
 16  4  2  0  0  0  0
 16 12  1  0  0  0  0
 17 11  1  0  0  0  0
 18  2  1  0  0  0  0
 18  6  1  0  0  0  0
 19 17  1  0  0  0  0
 20 19  1  0  0  0  0
 21 23  1  0  0  0  0
 21 22  1  1  0  0  0
 21 20  1  0  0  0  0
 23 25  1  0  0  0  0
 24 23  2  0  0  0  0
M  END
>  <MODEL>
8

>  <REMARK>
 VINA RESULT:      -8.9      2.742      4.902
  Name = 
  4 active torsions:
  status: ('A' for Active; 'I' for Inactive)
    1  A    between atoms: C_2  and  C_21
    2  A    between atoms: N_6  and  N_15
    3  A    between atoms: N_6  and  C_23
    4  A    between atoms: N_15  and  C_21
                            x       y       z     vdW  Elec       q    Type
                         _______ _______ _______ _____ _____    ______ ____

>  <TORSDO>
F 4

$$$$
=
 OpenBabel10272400513D

 25 28  0  0  1  0  0  0  0  0999 V2000
  186.0010  178.4000  142.2570 C   0  0  0  0  0  0  0  0  0  0  0  0
  187.4440  178.3990  141.8560 C   0  0  0  0  0  0  0  0  0  0  0  0
  185.1670  178.7360  140.0000 C   0  0  0  0  0  3  0  0  0  0  0  0
  185.4110  178.4900  143.4350 C   0  0  0  0  0  0  0  0  0  0  0  0
  183.7310  178.7870  145.6190 C   0  0  0  0  0  3  0  0  0  0  0  0
  186.5460  178.5060  139.5030 C   0  0  0  0  0  3  0  0  0  0  0  0
  184.0550  178.7310  143.2400 C   0  0  1  0  0  3  0  0  0  0  0  0
  183.1910  178.8790  144.3240 C   0  0  0  0  0  3  0  0  0  0  0  0
  188.9180  177.9300  139.8200 C   0  0  0  0  0  0  0  0  0  0  0  0
  189.3950  178.2910  138.1690 Cl  0  0  0  0  0  0  0  0  0  0  0  0
  188.2570  177.3410  142.5480 C   0  0  0  0  0  3  0  0  0  0  0  0
  185.1090  178.5610  145.8100 C   0  0  0  0  0  3  0  0  0  0  0  0
  184.9460  178.6490  141.3100 C   0  0  0  0  0  0  0  0  0  0  0  0
  183.7100  178.8420  141.9920 N   0  0  0  0  0  0  0  0  0  0  0  0
  189.7550  177.2450  140.6070 C   0  0  0  0  0  3  0  0  0  0  0  0
  185.9700  178.4140  144.7090 C   0  0  0  0  0  3  0  0  0  0  0  0
  189.3770  176.8570  141.9870 C   0  0  0  0  0  0  0  0  0  0  0  0
  187.5890  178.3030  140.3400 C   0  0  0  0  0  0  0  0  0  0  0  0
  190.1910  175.9110  142.6850 N   0  0  0  0  0  2  0  0  0  0  0  0
  191.3300  176.2950  143.4150 N   0  0  0  0  0  2  0  0  0  0  0  0
  191.0050  177.4480  144.2590 C   0  0  2  0  0  3  0  0  0  0  0  0
  191.9820  178.5150  144.0960 N   0  0  0  0  0  1  0  0  0  0  0  0
  190.8530  177.0620  145.6980 C   0  0  0  0  0  0  0  0  0  0  0  0
  191.9820  176.9150  146.4910 O   0  0  0  0  0  1  0  0  0  0  0  0
  189.7100  176.9040  146.2030 O   0  0  0  0  0  0  0  0  0  0  0  0
  1  4  2  0  0  0  0
  2  1  1  0  0  0  0
  2 11  1  0  0  0  0
  3 13  1  0  0  0  0
  4 16  1  0  0  0  0
  5 12  1  0  0  0  0
  6  3  2  0  0  0  0
  6 18  1  0  0  0  0
  7  4  1  0  0  0  0
  7  8  1  1  0  0  0
  8  5  2  0  0  0  0
  9 18  1  0  0  0  0
  9 15  2  0  0  0  0
 10  9  1  0  0  0  0
 13 14  2  0  0  0  0
 13  1  1  0  0  0  0
 14  7  1  0  0  0  0
 15 17  1  0  0  0  0
 16 12  2  0  0  0  0
 17 11  2  0  0  0  0
 17 19  1  0  0  0  0
 18  2  2  0  0  0  0
 19 20  1  0  0  0  0
 20 21  1  0  0  0  0
 21 22  1  1  0  0  0
 21 23  1  0  0  0  0
 23 25  2  0  0  0  0
 23 24  1  0  0  0  0
M  END
>  <MODEL>
9

>  <REMARK>
 VINA RESULT:      -8.8      3.537      5.239
  Name = 
  4 active torsions:
  status: ('A' for Active; 'I' for Inactive)
    1  A    between atoms: C_2  and  C_21
    2  A    between atoms: N_6  and  N_15
    3  A    between atoms: N_6  and  C_23
    4  A    between atoms: N_15  and  C_21
                            x       y       z     vdW  Elec       q    Type
                         _______ _______ _______ _____ _____    ______ ____

>  <TORSDO>
F 4

$$$$
