=
 OpenBabel10272414333D

 43 49  0  0  1  0  0  0  0  0999 V2000
  191.0910  176.8470  146.8750 C   0  0  0  0  0  0  0  0  0  0  0  0
  189.0340  178.0350  142.3950 C   0  0  0  0  0  0  0  0  0  0  0  0
  186.2430  178.1750  142.7950 C   0  0  0  0  0  0  0  0  0  0  0  0
  190.7200  177.4130  144.5210 C   0  0  2  0  0  3  0  0  0  0  0  0
  189.7890  176.8910  147.1600 C   0  0  0  0  0  3  0  0  0  0  0  0
  192.0060  176.5460  147.8740 O   0  0  0  0  0  1  0  0  0  0  0  0
  189.3260  177.4770  144.7440 C   0  0  0  0  0  0  0  0  0  0  0  0
  191.5680  177.1190  145.5090 C   0  0  0  0  0  3  0  0  0  0  0  0
  188.7500  177.2120  146.1190 C   0  0  0  0  0  3  0  0  0  0  0  0
  187.0130  177.8720  143.8440 C   0  0  0  0  0  3  0  0  0  0  0  0
  188.4770  177.7910  143.6680 C   0  0  0  0  0  0  0  0  0  0  0  0
  190.3830  177.9640  142.2210 N   0  0  0  0  0  0  0  0  0  0  0  0
  188.2330  178.3370  141.3610 C   0  0  0  0  0  0  0  0  0  0  0  0
  186.8400  178.4080  141.5480 O   0  0  0  0  0  0  0  0  0  0  0  0
  191.2230  177.6620  143.2440 C   0  0  0  0  0  3  0  0  0  0  0  0
  184.7810  178.2670  142.9230 C   0  0  0  0  0  0  0  0  0  0  0  0
  184.0450  178.5610  141.8910 N   0  0  0  0  0  0  0  0  0  0  0  0
  184.2190  178.0370  144.1390 F   0  0  0  0  0  0  0  0  0  0  0  0
  182.6160  178.6750  141.8930 C   0  0  0  0  0  0  0  0  0  0  0  0
  181.9750  178.8550  142.9630 O   0  0  0  0  0  0  0  0  0  0  0  0
  181.8740  178.5380  140.6120 C   0  0  0  0  0  2  0  0  0  0  0  0
  182.5290  179.3260  139.5750 N   0  0  0  0  0  0  0  0  0  0  0  0
  181.9240  178.7160  137.2540 C   0  0  0  0  0  2  0  0  0  0  0  0
  183.6970  177.2280  138.6390 C   0  0  2  0  0  3  0  0  0  0  0  0
  181.5220  180.2650  139.0800 C   0  0  0  0  0  2  0  0  0  0  0  0
  182.8070  178.4540  138.4430 C   0  0  2  0  0  0  0  0  0  0  0  0
  184.2700  178.5170  138.0620 C   0  0  0  0  0  2  0  0  0  0  0  0
  181.3360  180.0670  137.5780 C   0  0  0  0  0  2  0  0  0  0  0  0
  183.4750  176.2550  137.5760 N   0  0  2  0  0  0  0  0  0  0  0  0
  184.9290  174.5620  136.8480 C   0  0  0  0  0  0  0  0  0  0  0  0
  183.8930  173.8560  137.6110 C   0  0  0  0  0  2  0  0  0  0  0  0
  186.0450  174.0160  136.5390 N   0  0  0  0  0  2  0  0  0  0  0  0
  183.0860  174.9910  138.2160 C   0  0  0  0  0  2  0  0  0  0  0  0
  184.7600  176.0250  136.9190 C   0  0  0  0  0  2  0  0  0  0  0  0
  188.7800  178.5800  140.0990 O   0  0  0  0  0  0  0  0  0  0  0  0
  188.2090  177.4030  136.5530 C   0  0  0  0  0  2  0  0  0  0  0  0
  188.9100  176.0520  136.7520 C   0  0  2  0  0  3  0  0  0  0  0  0
  189.8980  176.7610  138.9720 C   0  0  0  0  0  2  0  0  0  0  0  0
  188.4350  178.3880  137.7070 C   0  0  0  0  0  2  0  0  0  0  0  0
  188.6500  177.6530  139.0300 C   0  0  2  0  0  3  0  0  0  0  0  0
  190.1930  176.2100  137.5700 C   0  0  0  0  0  2  0  0  0  0  0  0
  188.4960  176.1460  134.3550 N   0  0  0  0  0  1  0  0  0  0  0  0
  189.2110  175.4340  135.3990 C   0  0  0  0  0  2  0  0  0  0  0  0
  1  5  1  0  0  0  0
  1  6  1  0  0  0  0
  2 11  1  0  0  0  0
  3 16  1  0  0  0  0
  3 10  2  0  0  0  0
  4 15  1  1  0  0  0
  4  7  1  0  0  0  0
  4  8  1  0  0  0  0
  7  9  1  0  0  0  0
  8  1  2  0  0  0  0
  9  5  2  0  0  0  0
 11 10  1  0  0  0  0
 11  7  2  0  0  0  0
 12  2  1  0  0  0  0
 12 15  2  0  0  0  0
 13 14  1  0  0  0  0
 13  2  2  0  0  0  0
 14  3  1  0  0  0  0
 16 18  1  0  0  0  0
 17 19  1  0  0  0  0
 17 16  2  0  0  0  0
 19 20  2  0  0  0  0
 21 19  1  0  0  0  0
 22 21  1  0  0  0  0
 23 28  1  0  0  0  0
 24 27  1  6  0  0  0
 25 22  1  0  0  0  0
 26 23  1  6  0  0  0
 26 24  1  0  0  0  0
 26 22  1  0  0  0  0
 27 26  1  0  0  0  0
 28 25  1  0  0  0  0
 29 34  1  1  0  0  0
 29 33  1  0  0  0  0
 29 24  1  0  0  0  0
 30 34  1  0  0  0  0
 30 31  1  0  0  0  0
 31 33  1  0  0  0  0
 32 30  2  0  0  0  0
 35 13  1  0  0  0  0
 36 37  1  0  0  0  0
 36 39  1  0  0  0  0
 37 43  1  6  0  0  0
 37 41  1  0  0  0  0
 38 40  1  0  0  0  0
 39 40  1  0  0  0  0
 40 35  1  1  0  0  0
 41 38  1  0  0  0  0
 42 43  1  0  0  0  0
M  END
>  <MODEL>
1

>  <REMARK>
 VINA RESULT:      -9.5      0.000      0.000
  Name = 
  8 active torsions:
  status: ('A' for Active; 'I' for Inactive)
    1  A    between atoms: O_1  and  C_34
    2  A    between atoms: O_1  and  C_35
    3  A    between atoms: C_2  and  C_13
    4  A    between atoms: C_3  and  N_4
    5  A    between atoms: C_3  and  C_12
    6  A    between atoms: N_6  and  C_12
    7  A    between atoms: N_11  and  C_14
    8  A    between atoms: C_19  and  C_37
                            x       y       z     vdW  Elec       q    Type
                         _______ _______ _______ _____ _____    ______ ____

>  <TORSDO>
F 8

$$$$
=
 OpenBabel10272414333D

 43 49  0  0  1  0  0  0  0  0999 V2000
  188.0630  177.2870  146.9590 C   0  0  0  0  0  0  0  0  0  0  0  0
  186.2410  178.5670  142.4040 C   0  0  0  0  0  0  0  0  0  0  0  0
  188.3470  178.2110  140.5580 C   0  0  0  0  0  0  0  0  0  0  0  0
  186.6420  178.0170  145.1030 C   0  0  0  0  0  0  0  0  0  0  0  0
  189.1150  177.0880  146.1640 C   0  0  0  0  0  3  0  0  0  0  0  0
  188.1710  177.0370  148.3200 O   0  0  0  0  0  1  0  0  0  0  0  0
  187.7100  177.8320  144.1970 C   0  0  0  0  0  0  0  0  0  0  0  0
  186.7870  177.7670  146.4060 C   0  0  0  0  0  3  0  0  0  0  0  0
  189.0590  177.3410  144.6800 C   0  0  0  0  0  2  0  0  0  0  0  0
  188.5860  177.9350  141.8440 C   0  0  0  0  0  3  0  0  0  0  0  0
  187.5050  178.1110  142.8340 C   0  0  0  0  0  0  0  0  0  0  0  0
  185.2370  178.7320  143.3080 N   0  0  0  0  0  0  0  0  0  0  0  0
  186.0340  178.8350  141.1050 C   0  0  0  0  0  0  0  0  0  0  0  0
  187.0760  178.6620  140.1760 O   0  0  0  0  0  0  0  0  0  0  0  0
  185.4110  178.4710  144.6300 C   0  0  0  0  0  3  0  0  0  0  0  0
  189.3920  178.0490  139.5360 C   0  0  0  0  0  0  0  0  0  0  0  0
  190.2160  177.0440  139.5870 N   0  0  0  0  0  0  0  0  0  0  0  0
  189.4750  178.9710  138.5410 F   0  0  0  0  0  0  0  0  0  0  0  0
  191.2680  176.7820  138.6500 C   0  0  0  0  0  0  0  0  0  0  0  0
  192.4680  176.6840  139.0210 O   0  0  0  0  0  0  0  0  0  0  0  0
  190.9390  176.6630  137.2040 C   0  0  0  0  0  2  0  0  0  0  0  0
  190.9910  175.2640  136.7980 N   0  0  0  0  0  0  0  0  0  0  0  0
  189.6790  174.7080  134.7750 C   0  0  0  0  0  2  0  0  0  0  0  0
  188.4530  175.0070  137.1600 C   0  0  2  0  0  3  0  0  0  0  0  0
  191.8900  175.2070  135.6440 C   0  0  0  0  0  2  0  0  0  0  0  0
  189.6880  174.8920  136.2680 C   0  0  2  0  0  0  0  0  0  0  0  0
  189.1510  173.6660  136.9730 C   0  0  0  0  0  2  0  0  0  0  0  0
  191.1480  174.6110  134.4510 C   0  0  0  0  0  2  0  0  0  0  0  0
  187.2390  175.0600  136.3540 N   0  0  2  0  0  0  0  0  0  0  0  0
  185.0320  174.6610  137.0470 C   0  0  0  0  0  0  0  0  0  0  0  0
  185.1120  176.1180  136.8920 C   0  0  0  0  0  2  0  0  0  0  0  0
  184.0790  174.0920  137.6860 N   0  0  0  0  0  2  0  0  0  0  0  0
  186.5900  176.3490  136.6270 C   0  0  0  0  0  2  0  0  0  0  0  0
  186.3420  174.0160  136.8460 C   0  0  0  0  0  2  0  0  0  0  0  0
  184.7830  179.2860  140.6740 O   0  0  0  0  0  0  0  0  0  0  0  0
  182.3520  176.6420  139.5000 C   0  0  0  0  0  2  0  0  0  0  0  0
  181.9870  177.3710  138.2000 C   0  0  2  0  0  3  0  0  0  0  0  0
  183.1070  179.5130  138.9510 C   0  0  0  0  0  2  0  0  0  0  0  0
  183.1500  177.5050  140.4850 C   0  0  0  0  0  2  0  0  0  0  0  0
  183.9930  178.5490  139.7520 C   0  0  2  0  0  3  0  0  0  0  0  0
  181.8100  178.8720  138.4390 C   0  0  0  0  0  2  0  0  0  0  0  0
  180.4190  175.5110  138.2790 N   0  0  0  0  0  1  0  0  0  0  0  0
  180.7200  176.7690  137.6200 C   0  0  0  0  0  2  0  0  0  0  0  0
  1  6  1  0  0  0  0
  2 11  1  0  0  0  0
  2 12  1  0  0  0  0
  3 10  2  0  0  0  0
  4  8  2  0  0  0  0
  5  1  2  0  0  0  0
  7  9  1  0  0  0  0
  7  4  1  0  0  0  0
  8  1  1  0  0  0  0
  9  5  1  0  0  0  0
 10 11  1  0  0  0  0
 11  7  2  0  0  0  0
 12 15  2  0  0  0  0
 13  2  2  0  0  0  0
 14  3  1  0  0  0  0
 14 13  1  0  0  0  0
 15  4  1  0  0  0  0
 16 17  2  0  0  0  0
 16  3  1  0  0  0  0
 18 16  1  0  0  0  0
 19 20  2  0  0  0  0
 19 17  1  0  0  0  0
 21 19  1  0  0  0  0
 22 21  1  0  0  0  0
 24 27  1  1  0  0  0
 25 22  1  0  0  0  0
 26 23  1  6  0  0  0
 26 22  1  0  0  0  0
 26 27  1  0  0  0  0
 26 24  1  0  0  0  0
 28 23  1  0  0  0  0
 28 25  1  0  0  0  0
 29 33  1  1  0  0  0
 29 34  1  0  0  0  0
 29 24  1  0  0  0  0
 30 32  2  0  0  0  0
 31 30  1  0  0  0  0
 33 31  1  0  0  0  0
 34 30  1  0  0  0  0
 35 13  1  0  0  0  0
 36 39  1  0  0  0  0
 37 43  1  1  0  0  0
 37 41  1  0  0  0  0
 37 36  1  0  0  0  0
 38 40  1  0  0  0  0
 40 39  1  0  0  0  0
 40 35  1  1  0  0  0
 41 38  1  0  0  0  0
 43 42  1  0  0  0  0
M  END
>  <MODEL>
2

>  <REMARK>
 VINA RESULT:      -9.4      2.217      6.366
  Name = 
  8 active torsions:
  status: ('A' for Active; 'I' for Inactive)
    1  A    between atoms: O_1  and  C_34
    2  A    between atoms: O_1  and  C_35
    3  A    between atoms: C_2  and  C_13
    4  A    between atoms: C_3  and  N_4
    5  A    between atoms: C_3  and  C_12
    6  A    between atoms: N_6  and  C_12
    7  A    between atoms: N_11  and  C_14
    8  A    between atoms: C_19  and  C_37
                            x       y       z     vdW  Elec       q    Type
                         _______ _______ _______ _____ _____    ______ ____

>  <TORSDO>
F 8

$$$$
=
 OpenBabel10272414333D

 43 49  0  0  1  0  0  0  0  0999 V2000
  187.9340  177.4570  147.0770 C   0  0  0  0  0  0  0  0  0  0  0  0
  188.4480  178.1440  142.0800 C   0  0  0  0  0  0  0  0  0  0  0  0
  185.8520  178.5470  141.0450 C   0  0  0  0  0  0  0  0  0  0  0  0
  188.8130  177.7070  144.8050 C   0  0  2  0  0  3  0  0  0  0  0  0
  186.6740  177.6370  146.6820 C   0  0  0  0  0  3  0  0  0  0  0  0
  188.2110  177.2340  148.4190 O   0  0  0  0  0  1  0  0  0  0  0  0
  187.5050  177.9060  144.3090 C   0  0  0  0  0  0  0  0  0  0  0  0
  189.0370  177.4940  146.1030 C   0  0  0  0  0  3  0  0  0  0  0  0
  186.3120  177.8840  145.2410 C   0  0  0  0  0  3  0  0  0  0  0  0
  185.9790  178.3400  142.3590 C   0  0  0  0  0  3  0  0  0  0  0  0
  187.3230  178.1260  142.9320 C   0  0  0  0  0  0  0  0  0  0  0  0
  189.6930  177.9490  142.5970 N   0  0  0  0  0  0  0  0  0  0  0  0
  188.2870  178.3550  140.7640 C   0  0  0  0  0  0  0  0  0  0  0  0
  186.9980  178.5550  140.2370 O   0  0  0  0  0  0  0  0  0  0  0  0
  189.8930  177.7340  143.9230 C   0  0  0  0  0  3  0  0  0  0  0  0
  184.5340  178.7650  140.4310 C   0  0  0  0  0  0  0  0  0  0  0  0
  183.5470  177.9560  140.6810 N   0  0  0  0  0  0  0  0  0  0  0  0
  184.3730  179.8290  139.6010 F   0  0  0  0  0  0  0  0  0  0  0  0
  182.2220  178.0700  140.1460 C   0  0  0  0  0  0  0  0  0  0  0  0
  181.3230  178.7100  140.7530 O   0  0  0  0  0  0  0  0  0  0  0  0
  181.8940  177.3840  138.8670 C   0  0  0  0  0  2  0  0  0  0  0  0
  182.5320  178.0790  137.7560 N   0  0  0  0  0  0  0  0  0  0  0  0
  182.5920  176.8190  135.6260 C   0  0  0  0  0  2  0  0  0  0  0  0
  184.3530  176.2620  137.5940 C   0  0  2  0  0  3  0  0  0  0  0  0
  181.4490  178.5470  136.8910 C   0  0  0  0  0  2  0  0  0  0  0  0
  183.2460  177.0970  136.9520 C   0  0  2  0  0  0  0  0  0  0  0  0
  184.6940  177.4990  136.7740 C   0  0  0  0  0  2  0  0  0  0  0  0
  181.6340  177.9750  135.4880 C   0  0  0  0  0  2  0  0  0  0  0  0
  184.6040  175.0560  136.8140 N   0  0  2  0  0  0  0  0  0  0  0  0
  186.5160  173.6940  136.8460 C   0  0  0  0  0  0  0  0  0  0  0  0
  185.5020  172.9240  137.5750 C   0  0  0  0  0  2  0  0  0  0  0  0
  187.7630  173.4100  136.9020 N   0  0  0  0  0  2  0  0  0  0  0  0
  184.3510  173.9070  137.6940 C   0  0  0  0  0  2  0  0  0  0  0  0
  186.0280  175.0370  136.4850 C   0  0  0  0  0  2  0  0  0  0  0  0
  189.3980  178.3740  139.9170 O   0  0  0  0  0  0  0  0  0  0  0  0
  189.3520  177.2890  136.2970 C   0  0  0  0  0  2  0  0  0  0  0  0
  190.2400  176.0580  136.5210 C   0  0  2  0  0  3  0  0  0  0  0  0
  190.8920  176.8070  138.8480 C   0  0  0  0  0  2  0  0  0  0  0  0
  189.3100  178.2420  137.4980 C   0  0  0  0  0  2  0  0  0  0  0  0
  189.5170  177.4890  138.8120 C   0  0  2  0  0  3  0  0  0  0  0  0
  191.4000  176.3760  137.4660 C   0  0  0  0  0  2  0  0  0  0  0  0
  189.6530  175.1320  134.3470 N   0  0  0  0  0  1  0  0  0  0  0  0
  190.7600  175.5580  135.1850 C   0  0  0  0  0  2  0  0  0  0  0  0
  1  6  1  0  0  0  0
  2 12  1  0  0  0  0
  2 11  1  0  0  0  0
  3 10  2  0  0  0  0
  4 15  1  1  0  0  0
  4  8  1  0  0  0  0
  5  1  1  0  0  0  0
  7  4  1  0  0  0  0
  7  9  1  0  0  0  0
  8  1  2  0  0  0  0
  9  5  2  0  0  0  0
 10 11  1  0  0  0  0
 11  7  2  0  0  0  0
 12 15  2  0  0  0  0
 13  2  2  0  0  0  0
 14 13  1  0  0  0  0
 14  3  1  0  0  0  0
 16 17  2  0  0  0  0
 16  3  1  0  0  0  0
 18 16  1  0  0  0  0
 19 17  1  0  0  0  0
 19 20  2  0  0  0  0
 21 19  1  0  0  0  0
 22 21  1  0  0  0  0
 24 27  1  6  0  0  0
 25 22  1  0  0  0  0
 26 23  1  6  0  0  0
 26 24  1  0  0  0  0
 26 22  1  0  0  0  0
 27 26  1  0  0  0  0
 28 23  1  0  0  0  0
 28 25  1  0  0  0  0
 29 34  1  1  0  0  0
 29 24  1  0  0  0  0
 29 33  1  0  0  0  0
 30 32  2  0  0  0  0
 30 31  1  0  0  0  0
 31 33  1  0  0  0  0
 34 30  1  0  0  0  0
 35 13  1  0  0  0  0
 36 37  1  0  0  0  0
 36 39  1  0  0  0  0
 37 43  1  6  0  0  0
 37 41  1  0  0  0  0
 39 40  1  0  0  0  0
 40 38  1  0  0  0  0
 40 35  1  1  0  0  0
 41 38  1  0  0  0  0
 42 43  1  0  0  0  0
M  END
>  <MODEL>
3

>  <REMARK>
 VINA RESULT:      -9.3      1.682      2.087
  Name = 
  8 active torsions:
  status: ('A' for Active; 'I' for Inactive)
    1  A    between atoms: O_1  and  C_34
    2  A    between atoms: O_1  and  C_35
    3  A    between atoms: C_2  and  C_13
    4  A    between atoms: C_3  and  N_4
    5  A    between atoms: C_3  and  C_12
    6  A    between atoms: N_6  and  C_12
    7  A    between atoms: N_11  and  C_14
    8  A    between atoms: C_19  and  C_37
                            x       y       z     vdW  Elec       q    Type
                         _______ _______ _______ _____ _____    ______ ____

>  <TORSDO>
F 8

$$$$
=
 OpenBabel10272414333D

 43 49  0  0  1  0  0  0  0  0999 V2000
  191.1760  176.8130  146.9010 C   0  0  0  0  0  0  0  0  0  0  0  0
  187.0300  177.8480  144.1720 C   0  0  0  0  0  0  0  0  0  0  0  0
  187.8530  178.0100  141.4750 C   0  0  0  0  0  0  0  0  0  0  0  0
  188.8900  177.2960  146.1680 C   0  0  0  0  0  0  0  0  0  0  0  0
  191.6570  176.8690  145.6590 C   0  0  0  0  0  3  0  0  0  0  0  0
  192.0310  176.5410  147.9600 O   0  0  0  0  0  1  0  0  0  0  0  0
  189.3240  177.3730  144.8260 C   0  0  0  0  0  0  0  0  0  0  0  0
  189.7440  177.0330  147.1590 C   0  0  0  0  0  3  0  0  0  0  0  0
  190.7800  177.1580  144.4700 C   0  0  0  0  0  2  0  0  0  0  0  0
  188.7810  177.7430  142.4000 C   0  0  0  0  0  3  0  0  0  0  0  0
  188.3830  177.6520  143.8190 C   0  0  0  0  0  0  0  0  0  0  0  0
  186.6510  177.7650  145.4770 N   0  0  0  0  0  0  0  0  0  0  0  0
  186.1230  178.1140  143.2180 C   0  0  0  0  0  0  0  0  0  0  0  0
  186.5220  178.1980  141.8720 O   0  0  0  0  0  0  0  0  0  0  0  0
  187.5420  177.4970  146.4660 C   0  0  0  0  0  3  0  0  0  0  0  0
  188.2030  178.1100  140.0510 C   0  0  0  0  0  0  0  0  0  0  0  0
  187.2780  178.3020  139.1560 N   0  0  0  0  0  0  0  0  0  0  0  0
  189.5090  178.0000  139.6930 F   0  0  0  0  0  0  0  0  0  0  0  0
  187.4980  178.4190  137.7440 C   0  0  0  0  0  0  0  0  0  0  0  0
  188.1900  179.3560  137.2650 O   0  0  0  0  0  0  0  0  0  0  0  0
  186.8620  177.4370  136.8260 C   0  0  0  0  0  2  0  0  0  0  0  0
  187.5910  176.1750  136.8710 N   0  0  0  0  0  0  0  0  0  0  0  0
  187.2130  174.6750  134.9380 C   0  0  0  0  0  2  0  0  0  0  0  0
  185.3870  174.8400  136.9190 C   0  0  2  0  0  3  0  0  0  0  0  0
  188.7040  176.3130  135.9310 C   0  0  0  0  0  2  0  0  0  0  0  0
  186.7480  175.1390  136.2920 C   0  0  2  0  0  0  0  0  0  0  0  0
  186.5970  173.9740  137.2460 C   0  0  0  0  0  2  0  0  0  0  0  0
  188.6200  175.2130  134.8770 C   0  0  0  0  0  2  0  0  0  0  0  0
  184.5210  174.1560  135.9650 N   0  0  2  0  0  0  0  0  0  0  0  0
  182.7770  172.6530  136.4250 C   0  0  0  0  0  0  0  0  0  0  0  0
  182.1010  173.8960  136.0380 C   0  0  0  0  0  2  0  0  0  0  0  0
  182.1670  171.6990  137.0230 N   0  0  0  0  0  2  0  0  0  0  0  0
  183.2470  174.8870  135.9310 C   0  0  0  0  0  2  0  0  0  0  0  0
  184.2380  172.8280  136.5060 C   0  0  0  0  0  2  0  0  0  0  0  0
  184.7830  178.3080  143.5620 O   0  0  0  0  0  0  0  0  0  0  0  0
  182.6940  178.2790  140.4130 C   0  0  0  0  0  2  0  0  0  0  0  0
  181.6150  179.2200  140.9660 C   0  0  2  0  0  3  0  0  0  0  0  0
  182.4850  179.0140  143.3340 C   0  0  0  0  0  2  0  0  0  0  0  0
  183.6640  177.7620  141.4820 C   0  0  0  0  0  2  0  0  0  0  0  0
  183.8230  178.7690  142.6220 C   0  0  2  0  0  3  0  0  0  0  0  0
  181.2650  178.8710  142.4140 C   0  0  0  0  0  2  0  0  0  0  0  0
  180.0910  177.7670  139.7450 N   0  0  0  0  0  1  0  0  0  0  0  0
  180.3810  179.1480  140.0860 C   0  0  0  0  0  2  0  0  0  0  0  0
  1  8  1  0  0  0  0
  1  6  1  0  0  0  0
  2 12  1  0  0  0  0
  3 14  1  0  0  0  0
  3 10  2  0  0  0  0
  4 15  1  0  0  0  0
  4  8  2  0  0  0  0
  5  1  2  0  0  0  0
  7  4  1  0  0  0  0
  9  7  1  0  0  0  0
  9  5  1  0  0  0  0
 10 11  1  0  0  0  0
 11  2  1  0  0  0  0
 11  7  2  0  0  0  0
 12 15  2  0  0  0  0
 13 35  1  0  0  0  0
 13  2  2  0  0  0  0
 14 13  1  0  0  0  0
 16  3  1  0  0  0  0
 17 16  2  0  0  0  0
 18 16  1  0  0  0  0
 19 17  1  0  0  0  0
 20 19  2  0  0  0  0
 21 22  1  0  0  0  0
 21 19  1  0  0  0  0
 24 27  1  1  0  0  0
 25 22  1  0  0  0  0
 26 23  1  6  0  0  0
 26 22  1  0  0  0  0
 26 24  1  0  0  0  0
 26 27  1  0  0  0  0
 28 23  1  0  0  0  0
 28 25  1  0  0  0  0
 29 33  1  1  0  0  0
 29 34  1  0  0  0  0
 29 24  1  0  0  0  0
 30 34  1  0  0  0  0
 30 32  2  0  0  0  0
 31 30  1  0  0  0  0
 33 31  1  0  0  0  0
 36 37  1  0  0  0  0
 36 39  1  0  0  0  0
 37 43  1  6  0  0  0
 37 41  1  0  0  0  0
 39 40  1  0  0  0  0
 40 38  1  0  0  0  0
 40 35  1  1  0  0  0
 41 38  1  0  0  0  0
 42 43  1  0  0  0  0
M  END
>  <MODEL>
4

>  <REMARK>
 VINA RESULT:      -9.3      2.161      5.611
  Name = 
  8 active torsions:
  status: ('A' for Active; 'I' for Inactive)
    1  A    between atoms: O_1  and  C_34
    2  A    between atoms: O_1  and  C_35
    3  A    between atoms: C_2  and  C_13
    4  A    between atoms: C_3  and  N_4
    5  A    between atoms: C_3  and  C_12
    6  A    between atoms: N_6  and  C_12
    7  A    between atoms: N_11  and  C_14
    8  A    between atoms: C_19  and  C_37
                            x       y       z     vdW  Elec       q    Type
                         _______ _______ _______ _____ _____    ______ ____

>  <TORSDO>
F 8

$$$$
=
 OpenBabel10272414333D

 43 49  0  0  1  0  0  0  0  0999 V2000
  191.2180  176.6230  147.0240 C   0  0  0  0  0  0  0  0  0  0  0  0
  186.9200  177.9110  144.6640 C   0  0  0  0  0  0  0  0  0  0  0  0
  187.5400  178.1460  141.9190 C   0  0  0  0  0  0  0  0  0  0  0  0
  188.9030  177.2160  146.4890 C   0  0  0  0  0  0  0  0  0  0  0  0
  191.6060  176.7090  145.7510 C   0  0  0  0  0  3  0  0  0  0  0  0
  192.1410  176.2810  148.0040 O   0  0  0  0  0  1  0  0  0  0  0  0
  189.2370  177.3290  145.1210 C   0  0  0  0  0  0  0  0  0  0  0  0
  189.8200  176.8850  147.4010 C   0  0  0  0  0  3  0  0  0  0  0  0
  190.6520  177.0750  144.6450 C   0  0  0  0  0  2  0  0  0  0  0  0
  188.5250  177.8110  142.7590 C   0  0  0  0  0  3  0  0  0  0  0  0
  188.2330  177.6800  144.2000 C   0  0  0  0  0  0  0  0  0  0  0  0
  186.6390  177.7920  145.9910 N   0  0  0  0  0  0  0  0  0  0  0  0
  185.9540  178.2460  143.7940 C   0  0  0  0  0  0  0  0  0  0  0  0
  186.2520  178.3670  142.4240 O   0  0  0  0  0  0  0  0  0  0  0  0
  187.5920  177.4540  146.8980 C   0  0  0  0  0  3  0  0  0  0  0  0
  187.7840  178.2870  140.4760 C   0  0  0  0  0  0  0  0  0  0  0  0
  188.9980  178.2920  140.0090 N   0  0  0  0  0  0  0  0  0  0  0  0
  186.7150  178.4100  139.6460 F   0  0  0  0  0  0  0  0  0  0  0  0
  189.3560  178.4190  138.6270 C   0  0  0  0  0  0  0  0  0  0  0  0
  188.9820  179.4080  137.9400 O   0  0  0  0  0  0  0  0  0  0  0  0
  190.1530  177.3420  137.9810 C   0  0  0  0  0  2  0  0  0  0  0  0
  189.4520  176.8470  136.8030 N   0  0  0  0  0  0  0  0  0  0  0  0
  189.3700  174.3820  136.5880 C   0  0  0  0  0  2  0  0  0  0  0  0
  191.6040  175.7400  135.9180 C   0  0  2  0  0  3  0  0  0  0  0  0
  188.1520  176.3670  137.2740 C   0  0  0  0  0  2  0  0  0  0  0  0
  190.1360  175.6520  136.3310 C   0  0  2  0  0  0  0  0  0  0  0  0
  190.5010  175.7830  134.8690 C   0  0  0  0  0  2  0  0  0  0  0  0
  187.9880  174.8960  136.9040 C   0  0  0  0  0  2  0  0  0  0  0  0
  192.2250  174.4210  135.9420 N   0  0  2  0  0  0  0  0  0  0  0  0
  194.4700  173.8790  135.5210 C   0  0  0  0  0  0  0  0  0  0  0  0
  194.3280  173.7580  136.9770 C   0  0  0  0  0  2  0  0  0  0  0  0
  195.6130  173.9430  134.9470 N   0  0  0  0  0  2  0  0  0  0  0  0
  192.9280  174.2930  137.2250 C   0  0  0  0  0  2  0  0  0  0  0  0
  193.2420  174.3970  134.8920 C   0  0  0  0  0  2  0  0  0  0  0  0
  184.6520  178.4750  144.2480 O   0  0  0  0  0  0  0  0  0  0  0  0
  182.5050  178.5510  141.1390 C   0  0  0  0  0  2  0  0  0  0  0  0
  181.3300  179.2740  141.8120 C   0  0  2  0  0  3  0  0  0  0  0  0
  182.2790  178.9040  144.1290 C   0  0  0  0  0  2  0  0  0  0  0  0
  183.5590  178.0400  142.1290 C   0  0  0  0  0  2  0  0  0  0  0  0
  183.6180  178.9170  143.3790 C   0  0  2  0  0  3  0  0  0  0  0  0
  181.0640  178.7150  143.2110 C   0  0  0  0  0  2  0  0  0  0  0  0
  180.4360  178.5330  139.6720 N   0  0  0  0  0  1  0  0  0  0  0  0
  180.0930  179.1500  140.9420 C   0  0  0  0  0  2  0  0  0  0  0  0
  1  8  1  0  0  0  0
  1  6  1  0  0  0  0
  2 12  1  0  0  0  0
  3 14  1  0  0  0  0
  3 10  2  0  0  0  0
  4 15  1  0  0  0  0
  4  8  2  0  0  0  0
  5  1  2  0  0  0  0
  7  4  1  0  0  0  0
  9  7  1  0  0  0  0
  9  5  1  0  0  0  0
 10 11  1  0  0  0  0
 11  2  1  0  0  0  0
 11  7  2  0  0  0  0
 12 15  2  0  0  0  0
 13 35  1  0  0  0  0
 13  2  2  0  0  0  0
 14 13  1  0  0  0  0
 16  3  1  0  0  0  0
 17 16  2  0  0  0  0
 18 16  1  0  0  0  0
 19 17  1  0  0  0  0
 20 19  2  0  0  0  0
 21 19  1  0  0  0  0
 22 25  1  0  0  0  0
 22 21  1  0  0  0  0
 23 28  1  0  0  0  0
 24 27  1  6  0  0  0
 24 29  1  0  0  0  0
 24 26  1  0  0  0  0
 26 27  1  6  0  0  0
 26 23  1  0  0  0  0
 26 22  1  0  0  0  0
 28 25  1  0  0  0  0
 29 34  1  6  0  0  0
 29 33  1  0  0  0  0
 30 31  1  0  0  0  0
 31 33  1  0  0  0  0
 32 30  2  0  0  0  0
 34 30  1  0  0  0  0
 36 37  1  0  0  0  0
 36 39  1  0  0  0  0
 37 43  1  6  0  0  0
 37 41  1  0  0  0  0
 39 40  1  0  0  0  0
 40 38  1  0  0  0  0
 40 35  1  1  0  0  0
 41 38  1  0  0  0  0
 42 43  1  0  0  0  0
M  END
>  <MODEL>
5

>  <REMARK>
 VINA RESULT:      -9.3      2.571      7.015
  Name = 
  8 active torsions:
  status: ('A' for Active; 'I' for Inactive)
    1  A    between atoms: O_1  and  C_34
    2  A    between atoms: O_1  and  C_35
    3  A    between atoms: C_2  and  C_13
    4  A    between atoms: C_3  and  N_4
    5  A    between atoms: C_3  and  C_12
    6  A    between atoms: N_6  and  C_12
    7  A    between atoms: N_11  and  C_14
    8  A    between atoms: C_19  and  C_37
                            x       y       z     vdW  Elec       q    Type
                         _______ _______ _______ _____ _____    ______ ____

>  <TORSDO>
F 8

$$$$
=
 OpenBabel10272414333D

 43 49  0  0  1  0  0  0  0  0999 V2000
  191.5540  176.4300  147.1810 C   0  0  0  0  0  0  0  0  0  0  0  0
  187.4730  177.8540  144.5290 C   0  0  0  0  0  0  0  0  0  0  0  0
  188.1850  177.7040  141.8010 C   0  0  0  0  0  0  0  0  0  0  0  0
  189.3260  177.1840  146.4950 C   0  0  0  0  0  0  0  0  0  0  0  0
  191.9800  176.3280  145.9220 C   0  0  0  0  0  3  0  0  0  0  0  0
  192.4100  176.1150  148.2270 O   0  0  0  0  0  1  0  0  0  0  0  0
  189.7050  177.1020  145.1360 C   0  0  0  0  0  0  0  0  0  0  0  0
  190.1810  176.8720  147.4720 C   0  0  0  0  0  3  0  0  0  0  0  0
  191.0980  176.6550  144.7460 C   0  0  0  0  0  2  0  0  0  0  0  0
  189.1080  177.3730  142.7100 C   0  0  0  0  0  3  0  0  0  0  0  0
  188.7670  177.4410  144.1450 C   0  0  0  0  0  0  0  0  0  0  0  0
  187.1470  177.9190  145.8500 N   0  0  0  0  0  0  0  0  0  0  0  0
  186.5690  178.1780  143.5910 C   0  0  0  0  0  0  0  0  0  0  0  0
  186.9130  178.1090  142.2290 O   0  0  0  0  0  0  0  0  0  0  0  0
  188.0360  177.5970  146.8250 C   0  0  0  0  0  3  0  0  0  0  0  0
  188.4790  177.6510  140.3610 C   0  0  0  0  0  0  0  0  0  0  0  0
  189.6220  177.1960  139.9370 N   0  0  0  0  0  0  0  0  0  0  0  0
  187.5320  178.0840  139.4890 F   0  0  0  0  0  0  0  0  0  0  0  0
  190.0180  177.0930  138.5630 C   0  0  0  0  0  0  0  0  0  0  0  0
  189.8800  178.0610  137.7680 O   0  0  0  0  0  0  0  0  0  0  0  0
  190.5640  175.8050  138.0590 C   0  0  0  0  0  2  0  0  0  0  0  0
  190.8430  175.9110  136.6330 N   0  0  0  0  0  0  0  0  0  0  0  0
  191.8810  173.9080  135.6150 C   0  0  0  0  0  2  0  0  0  0  0  0
  193.3720  175.6410  137.0490 C   0  0  2  0  0  3  0  0  0  0  0  0
  189.8090  175.1260  135.9560 C   0  0  0  0  0  2  0  0  0  0  0  0
  192.0840  175.2020  136.3540 C   0  0  2  0  0  0  0  0  0  0  0  0
  193.0630  176.0990  135.6290 C   0  0  0  0  0  2  0  0  0  0  0  0
  190.4670  174.0420  135.1080 C   0  0  0  0  0  2  0  0  0  0  0  0
  194.3580  174.5670  137.0290 N   0  0  2  0  0  0  0  0  0  0  0  0
  196.6930  174.7550  137.1830 C   0  0  0  0  0  0  0  0  0  0  0  0
  196.2760  174.2490  138.4960 C   0  0  0  0  0  2  0  0  0  0  0  0
  197.8540  175.2550  136.9790 N   0  0  0  0  0  2  0  0  0  0  0  0
  194.7600  174.3190  138.4200 C   0  0  0  0  0  2  0  0  0  0  0  0
  195.5360  175.0700  136.3260 C   0  0  0  0  0  2  0  0  0  0  0  0
  185.2870  178.5870  143.9670 O   0  0  0  0  0  0  0  0  0  0  0  0
  183.1810  178.1840  140.8550 C   0  0  0  0  0  2  0  0  0  0  0  0
  182.0400  179.0800  141.3550 C   0  0  2  0  0  3  0  0  0  0  0  0
  182.9420  179.1070  143.7190 C   0  0  0  0  0  2  0  0  0  0  0  0
  184.1950  177.8160  141.9450 C   0  0  0  0  0  2  0  0  0  0  0  0
  184.2880  178.9090  143.0090 C   0  0  2  0  0  3  0  0  0  0  0  0
  181.7290  178.8100  142.8280 C   0  0  0  0  0  2  0  0  0  0  0  0
  180.6420  177.4410  140.2220 N   0  0  0  0  0  1  0  0  0  0  0  0
  180.8080  178.8580  140.4980 C   0  0  0  0  0  2  0  0  0  0  0  0
  1  8  1  0  0  0  0
  1  6  1  0  0  0  0
  2 12  1  0  0  0  0
  3 14  1  0  0  0  0
  3 10  2  0  0  0  0
  4 15  1  0  0  0  0
  4  8  2  0  0  0  0
  5  1  2  0  0  0  0
  7  4  1  0  0  0  0
  9  7  1  0  0  0  0
  9  5  1  0  0  0  0
 10 11  1  0  0  0  0
 11  2  1  0  0  0  0
 11  7  2  0  0  0  0
 12 15  2  0  0  0  0
 13 35  1  0  0  0  0
 13  2  2  0  0  0  0
 14 13  1  0  0  0  0
 16  3  1  0  0  0  0
 17 16  2  0  0  0  0
 18 16  1  0  0  0  0
 19 17  1  0  0  0  0
 20 19  2  0  0  0  0
 21 19  1  0  0  0  0
 22 21  1  0  0  0  0
 24 27  1  6  0  0  0
 25 22  1  0  0  0  0
 26 23  1  6  0  0  0
 26 22  1  0  0  0  0
 26 24  1  0  0  0  0
 27 26  1  0  0  0  0
 28 23  1  0  0  0  0
 28 25  1  0  0  0  0
 29 34  1  6  0  0  0
 29 24  1  0  0  0  0
 29 33  1  0  0  0  0
 30 31  1  0  0  0  0
 32 30  2  0  0  0  0
 33 31  1  0  0  0  0
 34 30  1  0  0  0  0
 36 37  1  0  0  0  0
 36 39  1  0  0  0  0
 37 43  1  6  0  0  0
 37 41  1  0  0  0  0
 39 40  1  0  0  0  0
 40 38  1  0  0  0  0
 40 35  1  1  0  0  0
 41 38  1  0  0  0  0
 42 43  1  0  0  0  0
M  END
>  <MODEL>
6

>  <REMARK>
 VINA RESULT:      -9.1      3.191      7.765
  Name = 
  8 active torsions:
  status: ('A' for Active; 'I' for Inactive)
    1  A    between atoms: O_1  and  C_34
    2  A    between atoms: O_1  and  C_35
    3  A    between atoms: C_2  and  C_13
    4  A    between atoms: C_3  and  N_4
    5  A    between atoms: C_3  and  C_12
    6  A    between atoms: N_6  and  C_12
    7  A    between atoms: N_11  and  C_14
    8  A    between atoms: C_19  and  C_37
                            x       y       z     vdW  Elec       q    Type
                         _______ _______ _______ _____ _____    ______ ____

>  <TORSDO>
F 8

$$$$
=
 OpenBabel10272414333D

 43 49  0  0  1  0  0  0  0  0999 V2000
  181.5070  178.9040  141.8680 C   0  0  0  0  0  0  0  0  0  0  0  0
  186.0820  178.2960  143.9660 C   0  0  0  0  0  0  0  0  0  0  0  0
  187.9280  178.0870  141.8400 C   0  0  0  0  0  0  0  0  0  0  0  0
  183.3730  178.6480  143.4330 C   0  0  0  0  0  0  0  0  0  0  0  0
  182.3010  178.8160  140.8010 C   0  0  0  0  0  3  0  0  0  0  0  0
  180.1400  179.0810  141.6970 O   0  0  0  0  0  1  0  0  0  0  0  0
  184.2790  178.5450  142.3530 C   0  0  0  0  0  0  0  0  0  0  0  0
  182.0650  178.8170  143.2270 C   0  0  0  0  0  3  0  0  0  0  0  0
  183.7900  178.6250  140.9220 C   0  0  0  0  0  2  0  0  0  0  0  0
  186.6370  178.2540  141.5360 C   0  0  0  0  0  3  0  0  0  0  0  0
  185.6470  178.3670  142.6250 C   0  0  0  0  0  0  0  0  0  0  0  0
  185.1780  178.4000  144.9780 N   0  0  0  0  0  0  0  0  0  0  0  0
  187.3860  178.1290  144.2370 C   0  0  0  0  0  0  0  0  0  0  0  0
  188.3150  178.0210  143.1850 O   0  0  0  0  0  0  0  0  0  0  0  0
  183.8510  178.5720  144.7400 C   0  0  0  0  0  3  0  0  0  0  0  0
  188.9500  177.9710  140.7890 C   0  0  0  0  0  0  0  0  0  0  0  0
  190.0030  177.2290  140.9720 N   0  0  0  0  0  0  0  0  0  0  0  0
  188.7680  178.6510  139.6270 F   0  0  0  0  0  0  0  0  0  0  0  0
  191.0600  177.0360  140.0230 C   0  0  0  0  0  0  0  0  0  0  0  0
  192.1490  177.6610  140.1190 O   0  0  0  0  0  0  0  0  0  0  0  0
  190.8490  176.1080  138.8790 C   0  0  0  0  0  2  0  0  0  0  0  0
  191.2650  176.7500  137.6390 N   0  0  0  0  0  0  0  0  0  0  0  0
  191.6870  175.2090  135.7490 C   0  0  0  0  0  2  0  0  0  0  0  0
  193.5290  175.5200  137.6960 C   0  0  2  0  0  3  0  0  0  0  0  0
  190.0950  176.7380  136.7600 C   0  0  0  0  0  2  0  0  0  0  0  0
  192.2310  175.8850  136.9770 C   0  0  2  0  0  0  0  0  0  0  0  0
  193.5040  176.6410  136.6650 C   0  0  0  0  0  2  0  0  0  0  0  0
  190.4380  176.0060  135.4650 C   0  0  0  0  0  2  0  0  0  0  0  0
  194.1150  174.3170  137.1170 N   0  0  2  0  0  0  0  0  0  0  0  0
  196.3880  173.8540  136.7570 C   0  0  0  0  0  0  0  0  0  0  0  0
  196.0240  173.0310  137.9160 C   0  0  0  0  0  2  0  0  0  0  0  0
  197.6070  174.0920  136.4420 N   0  0  0  0  0  2  0  0  0  0  0  0
  194.6120  173.4960  138.2300 C   0  0  0  0  0  2  0  0  0  0  0  0
  195.2800  174.7300  136.3370 C   0  0  0  0  0  2  0  0  0  0  0  0
  187.8220  178.0590  145.5630 O   0  0  0  0  0  0  0  0  0  0  0  0
  191.3160  176.6190  145.5360 C   0  0  0  0  0  2  0  0  0  0  0  0
  191.2360  176.0600  146.9620 C   0  0  2  0  0  3  0  0  0  0  0  0
  189.1180  177.3480  147.4720 C   0  0  0  0  0  2  0  0  0  0  0  0
  190.1660  177.5710  145.1840 C   0  0  0  0  0  2  0  0  0  0  0  0
  188.8960  177.2170  145.9590 C   0  0  2  0  0  3  0  0  0  0  0  0
  190.5590  177.0520  147.9090 C   0  0  0  0  0  2  0  0  0  0  0  0
  192.9090  176.4230  148.6920 N   0  0  0  0  0  1  0  0  0  0  0  0
  192.6310  175.7190  147.4530 C   0  0  0  0  0  2  0  0  0  0  0  0
  1  8  1  0  0  0  0
  2 13  2  0  0  0  0
  2 12  1  0  0  0  0
  3 14  1  0  0  0  0
  4 15  1  0  0  0  0
  5  9  1  0  0  0  0
  5  1  2  0  0  0  0
  6  1  1  0  0  0  0
  7 11  2  0  0  0  0
  7  4  1  0  0  0  0
  8  4  2  0  0  0  0
  9  7  1  0  0  0  0
 10  3  2  0  0  0  0
 10 11  1  0  0  0  0
 11  2  1  0  0  0  0
 13 35  1  0  0  0  0
 14 13  1  0  0  0  0
 15 12  2  0  0  0  0
 16 17  2  0  0  0  0
 16  3  1  0  0  0  0
 18 16  1  0  0  0  0
 19 20  2  0  0  0  0
 19 17  1  0  0  0  0
 21 19  1  0  0  0  0
 22 21  1  0  0  0  0
 24 27  1  6  0  0  0
 25 22  1  0  0  0  0
 26 23  1  6  0  0  0
 26 22  1  0  0  0  0
 26 24  1  0  0  0  0
 27 26  1  0  0  0  0
 28 23  1  0  0  0  0
 28 25  1  0  0  0  0
 29 34  1  6  0  0  0
 29 24  1  0  0  0  0
 29 33  1  0  0  0  0
 30 31  1  0  0  0  0
 31 33  1  0  0  0  0
 32 30  2  0  0  0  0
 34 30  1  0  0  0  0
 36 37  1  0  0  0  0
 37 43  1  1  0  0  0
 37 41  1  0  0  0  0
 38 41  1  0  0  0  0
 39 36  1  0  0  0  0
 39 40  1  0  0  0  0
 40 35  1  6  0  0  0
 40 38  1  0  0  0  0
 43 42  1  0  0  0  0
M  END
>  <MODEL>
7

>  <REMARK>
 VINA RESULT:      -9.0      3.445      9.057
  Name = 
  8 active torsions:
  status: ('A' for Active; 'I' for Inactive)
    1  A    between atoms: O_1  and  C_34
    2  A    between atoms: O_1  and  C_35
    3  A    between atoms: C_2  and  C_13
    4  A    between atoms: C_3  and  N_4
    5  A    between atoms: C_3  and  C_12
    6  A    between atoms: N_6  and  C_12
    7  A    between atoms: N_11  and  C_14
    8  A    between atoms: C_19  and  C_37
                            x       y       z     vdW  Elec       q    Type
                         _______ _______ _______ _____ _____    ______ ____

>  <TORSDO>
F 8

$$$$
=
 OpenBabel10272414333D

 43 49  0  0  1  0  0  0  0  0999 V2000
  187.9860  177.3410  147.2210 C   0  0  0  0  0  0  0  0  0  0  0  0
  186.2770  178.5620  142.6060 C   0  0  0  0  0  0  0  0  0  0  0  0
  188.3530  177.9630  140.7880 C   0  0  0  0  0  0  0  0  0  0  0  0
  186.6300  178.0990  145.3280 C   0  0  0  0  0  0  0  0  0  0  0  0
  189.0210  177.0270  146.4400 C   0  0  0  0  0  3  0  0  0  0  0  0
  188.0720  177.1420  148.5920 O   0  0  0  0  0  1  0  0  0  0  0  0
  187.6820  177.7930  144.4360 C   0  0  0  0  0  0  0  0  0  0  0  0
  186.7520  177.8940  146.6420 C   0  0  0  0  0  3  0  0  0  0  0  0
  188.9870  177.2190  144.9470 C   0  0  0  0  0  2  0  0  0  0  0  0
  188.5670  177.7250  142.0850 C   0  0  0  0  0  3  0  0  0  0  0  0
  187.5020  178.0270  143.0620 C   0  0  0  0  0  0  0  0  0  0  0  0
  185.2870  178.8430  143.4970 N   0  0  0  0  0  0  0  0  0  0  0  0
  186.0940  178.7880  141.2950 C   0  0  0  0  0  0  0  0  0  0  0  0
  187.1210  178.4960  140.3810 O   0  0  0  0  0  0  0  0  0  0  0  0
  185.4380  178.6250  144.8290 C   0  0  0  0  0  3  0  0  0  0  0  0
  189.3840  177.6770  139.7790 C   0  0  0  0  0  0  0  0  0  0  0  0
  189.0600  177.1530  138.6340 N   0  0  0  0  0  0  0  0  0  0  0  0
  190.6770  177.9760  140.0700 F   0  0  0  0  0  0  0  0  0  0  0  0
  189.9730  176.8350  137.5760 C   0  0  0  0  0  0  0  0  0  0  0  0
  190.1900  177.6420  136.6330 O   0  0  0  0  0  0  0  0  0  0  0  0
  190.6480  175.5090  137.5720 C   0  0  0  0  0  2  0  0  0  0  0  0
  190.9250  175.1000  136.2010 N   0  0  0  0  0  0  0  0  0  0  0  0
  192.0630  172.9140  135.9680 C   0  0  0  0  0  2  0  0  0  0  0  0
  193.4630  175.1180  136.6510 C   0  0  2  0  0  3  0  0  0  0  0  0
  189.9330  174.0750  135.8720 C   0  0  0  0  0  2  0  0  0  0  0  0
  192.2000  174.3970  136.1820 C   0  0  2  0  0  0  0  0  0  0  0  0
  193.1380  175.0120  135.1670 C   0  0  0  0  0  2  0  0  0  0  0  0
  190.6460  172.7880  135.4680 C   0  0  0  0  0  2  0  0  0  0  0  0
  194.5000  174.1570  137.0100 N   0  0  2  0  0  0  0  0  0  0  0  0
  196.7470  174.5930  137.5320 C   0  0  0  0  0  0  0  0  0  0  0  0
  196.1200  174.2890  138.8240 C   0  0  0  0  0  2  0  0  0  0  0  0
  197.8920  175.1590  137.4430 N   0  0  0  0  0  2  0  0  0  0  0  0
  194.6460  174.1980  138.4710 C   0  0  0  0  0  2  0  0  0  0  0  0
  195.7570  174.6390  136.4410 C   0  0  0  0  0  2  0  0  0  0  0  0
  184.8830  179.3170  140.8400 O   0  0  0  0  0  0  0  0  0  0  0  0
  182.0290  177.0710  139.7930 C   0  0  0  0  0  2  0  0  0  0  0  0
  181.9710  177.6000  138.3540 C   0  0  2  0  0  3  0  0  0  0  0  0
  183.4800  179.5600  138.8900 C   0  0  0  0  0  2  0  0  0  0  0  0
  182.9070  177.9180  140.7230 C   0  0  0  0  0  2  0  0  0  0  0  0
  184.0360  178.6010  139.9510 C   0  0  2  0  0  3  0  0  0  0  0  0
  182.1260  179.1220  138.3170 C   0  0  0  0  0  2  0  0  0  0  0  0
  180.8320  175.9200  137.0100 N   0  0  0  0  0  1  0  0  0  0  0  0
  180.6610  177.1800  137.7120 C   0  0  0  0  0  2  0  0  0  0  0  0
  1  6  1  0  0  0  0
  2 11  1  0  0  0  0
  2 12  1  0  0  0  0
  3 10  2  0  0  0  0
  4  8  2  0  0  0  0
  5  1  2  0  0  0  0
  7  9  1  0  0  0  0
  7  4  1  0  0  0  0
  8  1  1  0  0  0  0
  9  5  1  0  0  0  0
 10 11  1  0  0  0  0
 11  7  2  0  0  0  0
 12 15  2  0  0  0  0
 13  2  2  0  0  0  0
 14  3  1  0  0  0  0
 14 13  1  0  0  0  0
 15  4  1  0  0  0  0
 16 18  1  0  0  0  0
 16  3  1  0  0  0  0
 17 16  2  0  0  0  0
 19 17  1  0  0  0  0
 20 19  2  0  0  0  0
 21 19  1  0  0  0  0
 22 21  1  0  0  0  0
 23 26  1  0  0  0  0
 24 27  1  6  0  0  0
 24 29  1  0  0  0  0
 25 22  1  0  0  0  0
 26 27  1  6  0  0  0
 26 22  1  0  0  0  0
 26 24  1  0  0  0  0
 28 25  1  0  0  0  0
 28 23  1  0  0  0  0
 29 34  1  6  0  0  0
 29 33  1  0  0  0  0
 30 31  1  0  0  0  0
 32 30  2  0  0  0  0
 33 31  1  0  0  0  0
 34 30  1  0  0  0  0
 35 13  1  0  0  0  0
 36 39  1  0  0  0  0
 37 43  1  1  0  0  0
 37 36  1  0  0  0  0
 38 40  1  0  0  0  0
 40 39  1  0  0  0  0
 40 35  1  1  0  0  0
 41 37  1  0  0  0  0
 41 38  1  0  0  0  0
 42 43  1  0  0  0  0
M  END
>  <MODEL>
8

>  <REMARK>
 VINA RESULT:      -8.8      3.458      7.866
  Name = 
  8 active torsions:
  status: ('A' for Active; 'I' for Inactive)
    1  A    between atoms: O_1  and  C_34
    2  A    between atoms: O_1  and  C_35
    3  A    between atoms: C_2  and  C_13
    4  A    between atoms: C_3  and  N_4
    5  A    between atoms: C_3  and  C_12
    6  A    between atoms: N_6  and  C_12
    7  A    between atoms: N_11  and  C_14
    8  A    between atoms: C_19  and  C_37
                            x       y       z     vdW  Elec       q    Type
                         _______ _______ _______ _____ _____    ______ ____

>  <TORSDO>
F 8

$$$$
=
 OpenBabel10272414333D

 43 49  0  0  1  0  0  0  0  0999 V2000
  181.2170  178.9870  143.3890 C   0  0  0  0  0  0  0  0  0  0  0  0
  184.7890  178.7770  139.7960 C   0  0  0  0  0  0  0  0  0  0  0  0
  187.2490  178.3700  141.1210 C   0  0  0  0  0  0  0  0  0  0  0  0
  182.4310  178.9780  141.2620 C   0  0  2  0  0  3  0  0  0  0  0  0
  182.3280  178.7950  144.1000 C   0  0  0  0  0  3  0  0  0  0  0  0
  179.9940  179.0970  144.0360 O   0  0  0  0  0  1  0  0  0  0  0  0
  183.6500  178.7750  141.9450 C   0  0  0  0  0  0  0  0  0  0  0  0
  181.2750  179.0800  141.9210 C   0  0  0  0  0  3  0  0  0  0  0  0
  183.6820  178.6660  143.4560 C   0  0  0  0  0  3  0  0  0  0  0  0
  186.1430  178.4610  141.8660 C   0  0  0  0  0  3  0  0  0  0  0  0
  184.8410  178.6740  141.2030 C   0  0  0  0  0  0  0  0  0  0  0  0
  183.5940  178.9720  139.1750 N   0  0  0  0  0  0  0  0  0  0  0  0
  185.9190  178.6810  139.0780 C   0  0  0  0  0  0  0  0  0  0  0  0
  187.1510  178.4800  139.7270 O   0  0  0  0  0  0  0  0  0  0  0  0
  182.4310  179.0730  139.8700 C   0  0  0  0  0  3  0  0  0  0  0  0
  188.5670  178.1580  141.7370 C   0  0  0  0  0  0  0  0  0  0  0  0
  189.1560  177.0010  141.6540 N   0  0  0  0  0  0  0  0  0  0  0  0
  189.1540  179.1960  142.3890 F   0  0  0  0  0  0  0  0  0  0  0  0
  190.4380  176.6790  142.2090 C   0  0  0  0  0  0  0  0  0  0  0  0
  191.5060  177.0010  141.6220 O   0  0  0  0  0  0  0  0  0  0  0  0
  190.5070  175.9130  143.4820 C   0  0  0  0  0  2  0  0  0  0  0  0
  191.0850  176.7450  144.5290 N   0  0  0  0  0  0  0  0  0  0  0  0
  190.3670  176.1890  146.8310 C   0  0  0  0  0  2  0  0  0  0  0  0
  188.7550  177.6150  145.2030 C   0  0  2  0  0  3  0  0  0  0  0  0
  192.1200  175.9340  145.1710 C   0  0  0  0  0  2  0  0  0  0  0  0
  190.0800  176.9460  145.5630 C   0  0  2  0  0  0  0  0  0  0  0  0
  189.8810  178.4200  145.8390 C   0  0  0  0  0  2  0  0  0  0  0  0
  191.8160  175.8080  146.6610 C   0  0  0  0  0  2  0  0  0  0  0  0
  187.7350  177.3020  146.1970 N   0  0  2  0  0  0  0  0  0  0  0  0
  186.2930  178.7920  147.2980 C   0  0  0  0  0  0  0  0  0  0  0  0
  185.4410  178.1130  146.3150 C   0  0  0  0  0  2  0  0  0  0  0  0
  185.9350  179.8720  147.8850 N   0  0  0  0  0  2  0  0  0  0  0  0
  186.4380  177.3020  145.5060 C   0  0  0  0  0  2  0  0  0  0  0  0
  187.7080  178.4040  147.1570 C   0  0  0  0  0  2  0  0  0  0  0  0
  185.8730  178.7810  137.6850 O   0  0  0  0  0  0  0  0  0  0  0  0
  189.0540  177.6900  135.9610 C   0  0  0  0  0  2  0  0  0  0  0  0
  188.5740  176.2560  135.7020 C   0  0  2  0  0  3  0  0  0  0  0  0
  186.5880  176.5170  137.2490 C   0  0  0  0  0  2  0  0  0  0  0  0
  188.1530  178.4740  136.9240 C   0  0  0  0  0  2  0  0  0  0  0  0
  186.7050  177.9930  136.8450 C   0  0  2  0  0  3  0  0  0  0  0  0
  187.8380  175.6900  136.9170 C   0  0  0  0  0  2  0  0  0  0  0  0
  190.8820  175.6770  136.2150 N   0  0  0  0  0  1  0  0  0  0  0  0
  189.7610  175.3810  135.3400 C   0  0  0  0  0  2  0  0  0  0  0  0
  1  6  1  0  0  0  0
  1  5  1  0  0  0  0
  2 11  1  0  0  0  0
  3 16  1  0  0  0  0
  3 10  2  0  0  0  0
  4 15  1  6  0  0  0
  4  8  1  0  0  0  0
  4  7  1  0  0  0  0
  7  9  1  0  0  0  0
  8  1  2  0  0  0  0
  9  5  2  0  0  0  0
 11 10  1  0  0  0  0
 11  7  2  0  0  0  0
 12  2  1  0  0  0  0
 12 15  2  0  0  0  0
 13 14  1  0  0  0  0
 13  2  2  0  0  0  0
 14  3  1  0  0  0  0
 16 18  1  0  0  0  0
 17 16  2  0  0  0  0
 17 19  1  0  0  0  0
 19 21  1  0  0  0  0
 20 19  2  0  0  0  0
 21 22  1  0  0  0  0
 22 25  1  0  0  0  0
 22 26  1  0  0  0  0
 24 26  1  0  0  0  0
 24 27  1  1  0  0  0
 24 29  1  0  0  0  0
 25 28  1  0  0  0  0
 26 27  1  1  0  0  0
 26 23  1  0  0  0  0
 28 23  1  0  0  0  0
 29 33  1  6  0  0  0
 29 34  1  0  0  0  0
 30 32  2  0  0  0  0
 31 30  1  0  0  0  0
 33 31  1  0  0  0  0
 34 30  1  0  0  0  0
 35 13  1  0  0  0  0
 36 39  1  0  0  0  0
 37 43  1  1  0  0  0
 37 36  1  0  0  0  0
 37 41  1  0  0  0  0
 40 39  1  0  0  0  0
 40 38  1  0  0  0  0
 40 35  1  1  0  0  0
 41 38  1  0  0  0  0
 43 42  1  0  0  0  0
M  END
>  <MODEL>
9

>  <REMARK>
 VINA RESULT:      -8.7      2.415      8.091
  Name = 
  8 active torsions:
  status: ('A' for Active; 'I' for Inactive)
    1  A    between atoms: O_1  and  C_34
    2  A    between atoms: O_1  and  C_35
    3  A    between atoms: C_2  and  C_13
    4  A    between atoms: C_3  and  N_4
    5  A    between atoms: C_3  and  C_12
    6  A    between atoms: N_6  and  C_12
    7  A    between atoms: N_11  and  C_14
    8  A    between atoms: C_19  and  C_37
                            x       y       z     vdW  Elec       q    Type
                         _______ _______ _______ _____ _____    ______ ____

>  <TORSDO>
F 8

$$$$
