=
 OpenBabel10272413333D

 32 37  0  0  1  0  0  0  0  0999 V2000
  183.7110  179.2130  139.1610 C   0  0  0  0  0  0  0  0  0  0  0  0
  187.1410  177.9360  142.6340 C   0  0  0  0  0  0  0  0  0  0  0  0
  185.0800  178.6140  147.0720 C   0  0  0  0  0  3  0  0  0  0  0  0
  186.3310  178.4020  147.6550 C   0  0  0  0  0  3  0  0  0  0  0  0
  185.9950  178.4580  140.6000 C   0  0  0  0  0  0  0  0  0  0  0  0
  184.8980  179.0650  142.7700 C   0  0  0  0  0  2  0  0  0  0  0  0
  183.7170  179.2960  140.5620 C   0  0  0  0  0  3  0  0  0  0  0  0
  184.9260  178.5070  145.6890 C   0  0  0  0  0  3  0  0  0  0  0  0
  185.8270  178.0110  143.3880 C   0  0  2  0  0  3  0  0  0  0  0  0
  186.0250  178.2060  144.8700 C   0  0  0  0  0  0  0  0  0  0  0  0
  188.4480  177.6110  144.6210 C   0  0  0  0  0  0  0  0  0  0  0  0
  184.8520  178.7630  138.4880 C   0  0  0  0  0  3  0  0  0  0  0  0
  184.8510  178.9090  141.2800 C   0  0  0  0  0  0  0  0  0  0  0  0
  185.9950  178.3900  139.2040 C   0  0  0  0  0  3  0  0  0  0  0  0
  187.4270  178.0770  146.8530 C   0  0  0  0  0  3  0  0  0  0  0  0
  187.2840  177.9690  145.4620 C   0  0  0  0  0  0  0  0  0  0  0  0
  189.6970  177.2880  145.2440 N   0  0  0  0  0  2  0  0  0  0  0  0
  187.1650  178.0850  141.3410 N   0  0  0  0  0  0  0  0  0  0  0  0
  188.3530  177.6190  143.3240 N   0  0  0  0  0  0  0  0  0  0  0  0
  181.9030  180.7070  138.6160 N   0  0  0  0  0  0  0  0  0  0  0  0
  182.5320  179.6020  138.3810 C   0  0  0  0  0  3  0  0  0  0  0  0
  180.7390  181.0640  137.8250 C   0  0  2  0  0  3  0  0  0  0  0  0
  181.0920  182.0840  136.9230 O   0  0  0  0  0  0  0  0  0  0  0  0
  180.3830  182.4760  138.0720 C   0  0  0  0  0  2  0  0  0  0  0  0
  190.8850  176.9010  144.4940 C   0  0  1  0  0  3  0  0  0  0  0  0
  191.4490  178.1030  143.7360 C   0  0  0  0  0  2  0  0  0  0  0  0
  191.8980  177.7390  142.3290 C   0  0  0  0  0  2  0  0  0  0  0  0
  191.0280  176.7910  141.7950 O   0  0  0  0  0  1  0  0  0  0  0  0
  191.9240  176.2830  145.4260 C   0  0  0  0  0  2  0  0  0  0  0  0
  191.6410  176.9100  147.7940 C   0  0  0  0  0  2  0  0  0  0  0  0
  192.3730  175.5870  147.7520 C   0  0  0  0  0  2  0  0  0  0  0  0
  191.2840  175.8820  146.7410 C   0  0  0  0  0  3  0  0  0  0  0  0
  1  7  1  0  0  0  0
  2 19  1  0  0  0  0
  2  9  1  0  0  0  0
  3  4  1  0  0  0  0
  5 13  1  0  0  0  0
  5 18  1  0  0  0  0
  7 13  2  0  0  0  0
  8  3  2  0  0  0  0
  9  6  1  6  0  0  0
  9 10  1  0  0  0  0
 10 16  2  0  0  0  0
 10  8  1  0  0  0  0
 11 17  1  0  0  0  0
 11 16  1  0  0  0  0
 12  1  2  0  0  0  0
 12 14  1  0  0  0  0
 13  6  1  0  0  0  0
 14  5  2  0  0  0  0
 15  4  2  0  0  0  0
 16 15  1  0  0  0  0
 18  2  2  0  0  0  0
 19 11  2  0  0  0  0
 21 20  2  0  0  0  0
 21  1  1  0  0  0  0
 22 24  1  0  0  0  0
 22 20  1  1  0  0  0
 23 22  1  0  0  0  0
 23 24  1  0  0  0  0
 25 26  1  1  0  0  0
 25 17  1  0  0  0  0
 25 29  1  0  0  0  0
 27 26  1  0  0  0  0
 28 27  1  0  0  0  0
 29 32  1  0  0  0  0
 31 30  1  0  0  0  0
 32 31  1  0  0  0  0
 32 30  1  0  0  0  0
M  END
>  <MODEL>
1

>  <REMARK>
 VINA RESULT:      -8.5      0.000      0.000
  Name = 
  7 active torsions:
  status: ('A' for Active; 'I' for Inactive)
    1  A    between atoms: C_1  and  N_10
    2  A    between atoms: C_2  and  C_24
    3  A    between atoms: C_6  and  C_7
    4  A    between atoms: C_7  and  C_32
    5  A    between atoms: C_22  and  C_30
    6  A    between atoms: C_22  and  C_32
    7  A    between atoms: N_27  and  C_32
                            x       y       z     vdW  Elec       q    Type
                         _______ _______ _______ _____ _____    ______ ____

>  <TORSDO>
F 7

$$$$
=
 OpenBabel10272413333D

 32 37  0  0  1  0  0  0  0  0999 V2000
  191.2310  176.5140  137.4260 C   0  0  0  0  0  0  0  0  0  0  0  0
  188.5650  177.5090  141.5930 C   0  0  0  0  0  0  0  0  0  0  0  0
  191.5660  176.8570  145.4630 C   0  0  0  0  0  3  0  0  0  0  0  0
  190.4600  176.9820  146.3060 C   0  0  0  0  0  3  0  0  0  0  0  0
  189.2730  177.1010  139.3440 C   0  0  0  0  0  0  0  0  0  0  0  0
  190.8420  176.5120  141.2080 C   0  0  0  0  0  2  0  0  0  0  0  0
  191.5310  176.4010  138.7920 C   0  0  0  0  0  3  0  0  0  0  0  0
  191.4130  177.0040  144.0830 C   0  0  0  0  0  3  0  0  0  0  0  0
  190.0130  177.4960  142.0460 C   0  0  2  0  0  3  0  0  0  0  0  0
  190.1490  177.2570  143.5290 C   0  0  0  0  0  0  0  0  0  0  0  0
  187.7020  177.7120  143.8240 C   0  0  0  0  0  0  0  0  0  0  0  0
  189.9490  176.9100  137.0280 C   0  0  0  0  0  3  0  0  0  0  0  0
  190.5590  176.7030  139.7480 C   0  0  0  0  0  0  0  0  0  0  0  0
  188.9700  177.1990  137.9840 C   0  0  0  0  0  3  0  0  0  0  0  0
  189.2020  177.2590  145.7680 C   0  0  0  0  0  3  0  0  0  0  0  0
  189.0370  177.4060  144.3830 C   0  0  0  0  0  0  0  0  0  0  0  0
  186.6000  177.9480  144.7090 N   0  0  0  0  0  2  0  0  0  0  0  0
  188.2720  177.3870  140.3310 N   0  0  0  0  0  0  0  0  0  0  0  0
  187.5150  177.7390  142.5360 N   0  0  0  0  0  0  0  0  0  0  0  0
  193.4870  176.4660  136.5860 N   0  0  0  0  0  0  0  0  0  0  0  0
  192.2330  176.2130  136.3990 C   0  0  0  0  0  3  0  0  0  0  0  0
  194.4540  176.1550  135.5500 C   0  0  2  0  0  3  0  0  0  0  0  0
  195.7520  176.3280  136.0660 O   0  0  0  0  0  0  0  0  0  0  0  0
  195.2590  177.3560  135.2440 C   0  0  0  0  0  2  0  0  0  0  0  0
  185.2590  178.2790  144.2440 C   0  0  1  0  0  3  0  0  0  0  0  0
  184.3850  178.7220  145.4170 C   0  0  0  0  0  2  0  0  0  0  0  0
  185.0240  178.4100  146.7620 C   0  0  0  0  0  2  0  0  0  0  0  0
  185.6140  179.5630  147.2750 O   0  0  0  0  0  1  0  0  0  0  0  0
  185.3240  179.3450  143.1540 C   0  0  0  0  0  2  0  0  0  0  0  0
  184.1440  177.8530  141.5830 C   0  0  0  0  0  2  0  0  0  0  0  0
  184.6270  179.0560  140.8020 C   0  0  0  0  0  2  0  0  0  0  0  0
  184.1320  179.2250  142.2240 C   0  0  0  0  0  3  0  0  0  0  0  0
  1  7  1  0  0  0  0
  2  9  1  0  0  0  0
  2 19  1  0  0  0  0
  3  4  1  0  0  0  0
  5 13  1  0  0  0  0
  5 18  1  0  0  0  0
  7 13  2  0  0  0  0
  8  3  2  0  0  0  0
  9  6  1  6  0  0  0
  9 10  1  0  0  0  0
 10  8  1  0  0  0  0
 10 16  2  0  0  0  0
 11 16  1  0  0  0  0
 11 17  1  0  0  0  0
 12  1  2  0  0  0  0
 12 14  1  0  0  0  0
 13  6  1  0  0  0  0
 14  5  2  0  0  0  0
 15  4  2  0  0  0  0
 16 15  1  0  0  0  0
 18  2  2  0  0  0  0
 19 11  2  0  0  0  0
 21 20  2  0  0  0  0
 21  1  1  0  0  0  0
 22 23  1  0  0  0  0
 22 20  1  1  0  0  0
 24 22  1  0  0  0  0
 24 23  1  0  0  0  0
 25 29  1  6  0  0  0
 25 17  1  0  0  0  0
 25 26  1  0  0  0  0
 26 27  1  0  0  0  0
 27 28  1  0  0  0  0
 30 32  1  0  0  0  0
 31 30  1  0  0  0  0
 31 32  1  0  0  0  0
 32 29  1  0  0  0  0
M  END
>  <MODEL>
2

>  <REMARK>
 VINA RESULT:      -8.4      3.839      7.964
  Name = 
  7 active torsions:
  status: ('A' for Active; 'I' for Inactive)
    1  A    between atoms: C_1  and  N_10
    2  A    between atoms: C_2  and  C_24
    3  A    between atoms: C_6  and  C_7
    4  A    between atoms: C_7  and  C_32
    5  A    between atoms: C_22  and  C_30
    6  A    between atoms: C_22  and  C_32
    7  A    between atoms: N_27  and  C_32
                            x       y       z     vdW  Elec       q    Type
                         _______ _______ _______ _____ _____    ______ ____

>  <TORSDO>
F 7

$$$$
=
 OpenBabel10272413333D

 32 37  0  0  1  0  0  0  0  0999 V2000
  191.5640  176.9140  139.0370 C   0  0  0  0  0  0  0  0  0  0  0  0
  187.6230  178.0670  141.9700 C   0  0  0  0  0  0  0  0  0  0  0  0
  188.9410  177.1640  146.6450 C   0  0  0  0  0  3  0  0  0  0  0  0
  187.6130  177.3620  147.0280 C   0  0  0  0  0  3  0  0  0  0  0  0
  189.0810  177.6270  140.1240 C   0  0  0  0  0  0  0  0  0  0  0  0
  189.8120  176.9090  142.4120 C   0  0  0  0  0  2  0  0  0  0  0  0
  191.3330  176.7670  140.4140 C   0  0  0  0  0  3  0  0  0  0  0  0
  189.3160  177.3330  145.3110 C   0  0  0  0  0  3  0  0  0  0  0  0
  188.7990  177.9440  142.9210 C   0  0  2  0  0  3  0  0  0  0  0  0
  188.3640  177.6830  144.3420 C   0  0  0  0  0  0  0  0  0  0  0  0
  186.0150  178.3150  143.7350 C   0  0  0  0  0  0  0  0  0  0  0  0
  190.5480  177.4070  138.2120 C   0  0  0  0  0  3  0  0  0  0  0  0
  190.0990  177.1320  140.9580 C   0  0  0  0  0  0  0  0  0  0  0  0
  189.3060  177.7590  138.7520 C   0  0  0  0  0  3  0  0  0  0  0  0
  186.6610  177.7360  146.0770 C   0  0  0  0  0  3  0  0  0  0  0  0
  187.0270  177.9060  144.7340 C   0  0  0  0  0  0  0  0  0  0  0  0
  184.6830  178.6230  144.1630 N   0  0  0  0  0  2  0  0  0  0  0  0
  187.8080  177.9780  140.6850 N   0  0  0  0  0  0  0  0  0  0  0  0
  186.3170  178.3660  142.4710 N   0  0  0  0  0  0  0  0  0  0  0  0
  192.9420  176.1800  137.2040 N   0  0  0  0  0  0  0  0  0  0  0  0
  192.8520  176.5480  138.4400 C   0  0  0  0  0  3  0  0  0  0  0  0
  194.2320  175.8250  136.6420 C   0  0  2  0  0  3  0  0  0  0  0  0
  194.7420  176.9270  135.9320 O   0  0  0  0  0  0  0  0  0  0  0  0
  194.1690  175.8960  135.1680 C   0  0  0  0  0  2  0  0  0  0  0  0
  183.6320  179.0560  143.2510 C   0  0  1  0  0  3  0  0  0  0  0  0
  183.5250  178.0920  142.0690 C   0  0  0  0  0  2  0  0  0  0  0  0
  183.2970  178.8190  140.7510 C   0  0  0  0  0  2  0  0  0  0  0  0
  184.4400  179.5400  140.4150 O   0  0  0  0  0  1  0  0  0  0  0  0
  182.3060  179.1890  143.9930 C   0  0  0  0  0  2  0  0  0  0  0  0
  179.9900  179.5510  143.2250 C   0  0  0  0  0  2  0  0  0  0  0  0
  180.0030  178.3020  144.0780 C   0  0  0  0  0  2  0  0  0  0  0  0
  181.1750  178.6080  143.1670 C   0  0  0  0  0  3  0  0  0  0  0  0
  1  7  1  0  0  0  0
  2 19  1  0  0  0  0
  2  9  1  0  0  0  0
  3  4  1  0  0  0  0
  5 18  1  0  0  0  0
  5 13  1  0  0  0  0
  7 13  2  0  0  0  0
  8  3  2  0  0  0  0
  9  6  1  6  0  0  0
  9 10  1  0  0  0  0
 10 16  2  0  0  0  0
 10  8  1  0  0  0  0
 11 17  1  0  0  0  0
 11 16  1  0  0  0  0
 12 14  1  0  0  0  0
 12  1  2  0  0  0  0
 13  6  1  0  0  0  0
 14  5  2  0  0  0  0
 15  4  2  0  0  0  0
 16 15  1  0  0  0  0
 18  2  2  0  0  0  0
 19 11  2  0  0  0  0
 20 21  2  0  0  0  0
 21  1  1  0  0  0  0
 22 20  1  1  0  0  0
 23 22  1  0  0  0  0
 24 23  1  0  0  0  0
 24 22  1  0  0  0  0
 25 26  1  6  0  0  0
 25 29  1  0  0  0  0
 25 17  1  0  0  0  0
 27 26  1  0  0  0  0
 28 27  1  0  0  0  0
 30 31  1  0  0  0  0
 32 30  1  0  0  0  0
 32 29  1  0  0  0  0
 32 31  1  0  0  0  0
M  END
>  <MODEL>
3

>  <REMARK>
 VINA RESULT:      -8.3      3.627      8.086
  Name = 
  7 active torsions:
  status: ('A' for Active; 'I' for Inactive)
    1  A    between atoms: C_1  and  N_10
    2  A    between atoms: C_2  and  C_24
    3  A    between atoms: C_6  and  C_7
    4  A    between atoms: C_7  and  C_32
    5  A    between atoms: C_22  and  C_30
    6  A    between atoms: C_22  and  C_32
    7  A    between atoms: N_27  and  C_32
                            x       y       z     vdW  Elec       q    Type
                         _______ _______ _______ _____ _____    ______ ____

>  <TORSDO>
F 7

$$$$
=
 OpenBabel10272413333D

 32 37  0  0  1  0  0  0  0  0999 V2000
  182.3910  179.0590  141.6550 C   0  0  0  0  0  0  0  0  0  0  0  0
  187.0520  177.9610  143.2470 C   0  0  0  0  0  0  0  0  0  0  0  0
  189.9820  177.8250  139.2710 C   0  0  0  0  0  3  0  0  0  0  0  0
  190.9980  177.2990  140.0730 C   0  0  0  0  0  3  0  0  0  0  0  0
  184.6990  178.3640  143.0860 C   0  0  0  0  0  0  0  0  0  0  0  0
  186.0070  178.1070  140.9630 C   0  0  0  0  0  2  0  0  0  0  0  0
  183.5890  178.7980  140.9710 C   0  0  0  0  0  3  0  0  0  0  0  0
  188.7570  178.1790  139.8390 C   0  0  0  0  0  3  0  0  0  0  0  0
  187.2290  178.4570  141.8240 C   0  0  2  0  0  3  0  0  0  0  0  0
  188.5260  177.9930  141.2100 C   0  0  0  0  0  0  0  0  0  0  0  0
  189.3530  177.3170  143.4780 C   0  0  0  0  0  0  0  0  0  0  0  0
  182.3530  178.9600  143.0500 C   0  0  0  0  0  3  0  0  0  0  0  0
  184.7420  178.4630  141.6850 C   0  0  0  0  0  0  0  0  0  0  0  0
  183.5030  178.6090  143.7660 C   0  0  0  0  0  3  0  0  0  0  0  0
  190.7890  177.1330  141.4430 C   0  0  0  0  0  3  0  0  0  0  0  0
  189.5610  177.4840  142.0230 C   0  0  0  0  0  0  0  0  0  0  0  0
  190.4400  176.8820  144.3030 N   0  0  0  0  0  2  0  0  0  0  0  0
  185.8800  177.9950  143.8120 N   0  0  0  0  0  0  0  0  0  0  0  0
  188.1840  177.5310  144.0080 N   0  0  0  0  0  0  0  0  0  0  0  0
  181.2110  179.9300  139.7450 N   0  0  0  0  0  0  0  0  0  0  0  0
  181.1680  179.4240  140.9340 C   0  0  0  0  0  3  0  0  0  0  0  0
  179.9820  180.2790  139.0580 C   0  0  2  0  0  3  0  0  0  0  0  0
  180.2070  180.2490  137.6700 O   0  0  0  0  0  0  0  0  0  0  0  0
  180.1830  181.5170  138.2760 C   0  0  0  0  0  2  0  0  0  0  0  0
  190.3300  176.7150  145.7470 C   0  0  1  0  0  3  0  0  0  0  0  0
  191.7160  176.7330  146.3910 C   0  0  0  0  0  2  0  0  0  0  0  0
  191.8450  175.7110  147.5110 C   0  0  0  0  0  2  0  0  0  0  0  0
  192.9490  176.0240  148.3000 O   0  0  0  0  0  1  0  0  0  0  0  0
  189.4190  177.7870  146.3370 C   0  0  0  0  0  2  0  0  0  0  0  0
  187.3480  178.1520  147.6270 C   0  0  0  0  0  2  0  0  0  0  0  0
  188.4890  178.0280  148.6120 C   0  0  0  0  0  2  0  0  0  0  0  0
  188.4770  177.1790  147.3580 C   0  0  0  0  0  3  0  0  0  0  0  0
  1 12  1  0  0  0  0
  2 18  2  0  0  0  0
  2 19  1  0  0  0  0
  3  8  2  0  0  0  0
  3  4  1  0  0  0  0
  4 15  2  0  0  0  0
  5 14  1  0  0  0  0
  5 18  1  0  0  0  0
  6 13  1  0  0  0  0
  7  1  2  0  0  0  0
  7 13  1  0  0  0  0
  8 10  1  0  0  0  0
  9  6  1  6  0  0  0
  9  2  1  0  0  0  0
 10  9  1  0  0  0  0
 10 16  2  0  0  0  0
 11 19  2  0  0  0  0
 11 17  1  0  0  0  0
 12 14  2  0  0  0  0
 13  5  2  0  0  0  0
 15 16  1  0  0  0  0
 16 11  1  0  0  0  0
 17 25  1  0  0  0  0
 20 21  2  0  0  0  0
 21  1  1  0  0  0  0
 22 20  1  1  0  0  0
 23 24  1  0  0  0  0
 23 22  1  0  0  0  0
 24 22  1  0  0  0  0
 25 29  1  1  0  0  0
 25 26  1  0  0  0  0
 26 27  1  0  0  0  0
 27 28  1  0  0  0  0
 29 32  1  0  0  0  0
 30 31  1  0  0  0  0
 32 30  1  0  0  0  0
 32 31  1  0  0  0  0
M  END
>  <MODEL>
4

>  <REMARK>
 VINA RESULT:      -8.3      2.119      4.166
  Name = 
  7 active torsions:
  status: ('A' for Active; 'I' for Inactive)
    1  A    between atoms: C_1  and  N_10
    2  A    between atoms: C_2  and  C_24
    3  A    between atoms: C_6  and  C_7
    4  A    between atoms: C_7  and  C_32
    5  A    between atoms: C_22  and  C_30
    6  A    between atoms: C_22  and  C_32
    7  A    between atoms: N_27  and  C_32
                            x       y       z     vdW  Elec       q    Type
                         _______ _______ _______ _____ _____    ______ ____

>  <TORSDO>
F 7

$$$$
=
 OpenBabel10272413333D

 32 37  0  0  1  0  0  0  0  0999 V2000
  191.8620  176.6270  138.4250 C   0  0  0  0  0  0  0  0  0  0  0  0
  188.1460  177.6830  141.6700 C   0  0  0  0  0  0  0  0  0  0  0  0
  190.0240  177.3620  146.2290 C   0  0  0  0  0  3  0  0  0  0  0  0
  188.7290  177.4710  146.7390 C   0  0  0  0  0  3  0  0  0  0  0  0
  189.4430  177.2050  139.7170 C   0  0  0  0  0  0  0  0  0  0  0  0
  190.4760  176.7830  141.9620 C   0  0  0  0  0  2  0  0  0  0  0  0
  191.7900  176.5920  139.8260 C   0  0  0  0  0  3  0  0  0  0  0  0
  190.2400  177.4360  144.8510 C   0  0  0  0  0  3  0  0  0  0  0  0
  189.4200  177.7630  142.4910 C   0  0  2  0  0  3  0  0  0  0  0  0
  189.1630  177.6000  143.9680 C   0  0  0  0  0  0  0  0  0  0  0  0
  186.7110  177.9480  143.5760 C   0  0  0  0  0  0  0  0  0  0  0  0
  190.7200  176.9400  137.6790 C   0  0  0  0  0  3  0  0  0  0  0  0
  190.5880  176.8910  140.4710 C   0  0  0  0  0  0  0  0  0  0  0  0
  189.5110  177.2250  138.3220 C   0  0  0  0  0  3  0  0  0  0  0  0
  187.6510  177.6610  145.8720 C   0  0  0  0  0  3  0  0  0  0  0  0
  187.8570  177.7340  144.4870 C   0  0  0  0  0  0  0  0  0  0  0  0
  185.4050  178.1700  144.1230 N   0  0  0  0  0  2  0  0  0  0  0  0
  188.2060  177.4880  140.3850 N   0  0  0  0  0  0  0  0  0  0  0  0
  186.8740  177.9050  142.2860 N   0  0  0  0  0  0  0  0  0  0  0  0
  193.8330  175.3010  138.0320 N   0  0  0  0  0  0  0  0  0  0  0  0
  193.1120  176.3270  137.7200 C   0  0  0  0  0  3  0  0  0  0  0  0
  195.0650  175.0320  137.3150 C   0  0  2  0  0  3  0  0  0  0  0  0
  195.1650  173.6490  137.0750 O   0  0  0  0  0  0  0  0  0  0  0  0
  195.9370  174.1620  138.1310 C   0  0  0  0  0  2  0  0  0  0  0  0
  184.2270  178.4130  143.3000 C   0  0  1  0  0  3  0  0  0  0  0  0
  183.1770  179.1920  144.0930 C   0  0  0  0  0  2  0  0  0  0  0  0
  181.7580  178.7910  143.7210 C   0  0  0  0  0  2  0  0  0  0  0  0
  181.1600  179.8180  142.9940 O   0  0  0  0  0  1  0  0  0  0  0  0
  184.6160  179.1370  142.0150 C   0  0  0  0  0  2  0  0  0  0  0  0
  184.7480  178.9180  139.5620 C   0  0  0  0  0  2  0  0  0  0  0  0
  183.3650  179.4250  139.9050 C   0  0  0  0  0  2  0  0  0  0  0  0
  184.0470  178.4170  140.8070 C   0  0  0  0  0  3  0  0  0  0  0  0
  1  7  1  0  0  0  0
  2 19  1  0  0  0  0
  2  9  1  0  0  0  0
  3  4  1  0  0  0  0
  5 18  1  0  0  0  0
  5 13  1  0  0  0  0
  7 13  2  0  0  0  0
  8  3  2  0  0  0  0
  9  6  1  6  0  0  0
  9 10  1  0  0  0  0
 10 16  2  0  0  0  0
 10  8  1  0  0  0  0
 11 17  1  0  0  0  0
 11 16  1  0  0  0  0
 12 14  1  0  0  0  0
 12  1  2  0  0  0  0
 13  6  1  0  0  0  0
 14  5  2  0  0  0  0
 15  4  2  0  0  0  0
 16 15  1  0  0  0  0
 18  2  2  0  0  0  0
 19 11  2  0  0  0  0
 21 20  2  0  0  0  0
 21  1  1  0  0  0  0
 22 20  1  1  0  0  0
 22 24  1  0  0  0  0
 23 22  1  0  0  0  0
 23 24  1  0  0  0  0
 25 29  1  6  0  0  0
 25 26  1  0  0  0  0
 25 17  1  0  0  0  0
 27 26  1  0  0  0  0
 28 27  1  0  0  0  0
 30 31  1  0  0  0  0
 30 32  1  0  0  0  0
 31 32  1  0  0  0  0
 32 29  1  0  0  0  0
M  END
>  <MODEL>
5

>  <REMARK>
 VINA RESULT:      -7.8      3.546      8.487
  Name = 
  7 active torsions:
  status: ('A' for Active; 'I' for Inactive)
    1  A    between atoms: C_1  and  N_10
    2  A    between atoms: C_2  and  C_24
    3  A    between atoms: C_6  and  C_7
    4  A    between atoms: C_7  and  C_32
    5  A    between atoms: C_22  and  C_30
    6  A    between atoms: C_22  and  C_32
    7  A    between atoms: N_27  and  C_32
                            x       y       z     vdW  Elec       q    Type
                         _______ _______ _______ _____ _____    ______ ____

>  <TORSDO>
F 7

$$$$
=
 OpenBabel10272413333D

 32 37  0  0  1  0  0  0  0  0999 V2000
  189.3840  177.7380  142.9350 C   0  0  0  0  0  0  0  0  0  0  0  0
  184.9430  178.8420  140.8100 C   0  0  0  0  0  0  0  0  0  0  0  0
  181.5150  178.6650  144.3630 C   0  0  0  0  0  3  0  0  0  0  0  0
  180.5300  178.7750  143.3790 C   0  0  0  0  0  3  0  0  0  0  0  0
  187.2420  178.3250  141.2250 C   0  0  0  0  0  0  0  0  0  0  0  0
  185.5920  177.9760  143.0800 C   0  0  0  0  0  2  0  0  0  0  0  0
  188.0720  177.7410  143.4310 C   0  0  0  0  0  3  0  0  0  0  0  0
  182.8650  178.7050  144.0070 C   0  0  0  0  0  3  0  0  0  0  0  0
  184.7040  178.9580  142.3040 C   0  0  2  0  0  3  0  0  0  0  0  0
  183.2450  178.8330  142.6630 C   0  0  0  0  0  0  0  0  0  0  0  0
  182.6280  179.1430  140.2530 C   0  0  0  0  0  0  0  0  0  0  0  0
  189.6160  178.0190  141.5840 C   0  0  0  0  0  3  0  0  0  0  0  0
  187.0050  178.0440  142.5820 C   0  0  0  0  0  0  0  0  0  0  0  0
  188.5470  178.3080  140.7290 C   0  0  0  0  0  3  0  0  0  0  0  0
  180.8960  178.9280  142.0400 C   0  0  0  0  0  3  0  0  0  0  0  0
  182.2490  178.9660  141.6730 C   0  0  0  0  0  0  0  0  0  0  0  0
  181.6080  179.3650  139.2720 N   0  0  0  0  0  2  0  0  0  0  0  0
  186.1400  178.6130  140.3540 N   0  0  0  0  0  0  0  0  0  0  0  0
  183.8740  179.0670  139.8870 N   0  0  0  0  0  0  0  0  0  0  0  0
  190.3970  177.3770  145.0900 N   0  0  0  0  0  0  0  0  0  0  0  0
  190.5250  177.4330  143.8050 C   0  0  0  0  0  3  0  0  0  0  0  0
  191.5460  177.0730  145.9220 C   0  0  2  0  0  3  0  0  0  0  0  0
  191.3660  175.8060  146.5080 O   0  0  0  0  0  0  0  0  0  0  0  0
  191.1160  176.9200  147.3270 C   0  0  0  0  0  2  0  0  0  0  0  0
  181.8940  179.5730  137.8570 C   0  0  1  0  0  3  0  0  0  0  0  0
  181.6600  178.2810  137.0740 C   0  0  0  0  0  2  0  0  0  0  0  0
  182.9540  177.5300  136.8000 C   0  0  0  0  0  2  0  0  0  0  0  0
  183.0720  176.4670  137.6930 O   0  0  0  0  0  1  0  0  0  0  0  0
  181.0570  180.7250  137.3100 C   0  0  0  0  0  2  0  0  0  0  0  0
  179.9820  182.8040  138.0900 C   0  0  0  0  0  2  0  0  0  0  0  0
  181.1940  183.1910  137.2720 C   0  0  0  0  0  2  0  0  0  0  0  0
  181.2420  181.9660  138.1630 C   0  0  0  0  0  3  0  0  0  0  0  0
  1  7  1  0  0  0  0
  1 21  1  0  0  0  0
  2  9  1  0  0  0  0
  4  3  2  0  0  0  0
  5 13  1  0  0  0  0
  8  3  1  0  0  0  0
  9 10  1  0  0  0  0
  9  6  1  1  0  0  0
 10  8  2  0  0  0  0
 11 16  1  0  0  0  0
 12  1  2  0  0  0  0
 13  6  1  0  0  0  0
 13  7  2  0  0  0  0
 14  5  2  0  0  0  0
 14 12  1  0  0  0  0
 15  4  1  0  0  0  0
 16 15  2  0  0  0  0
 16 10  1  0  0  0  0
 17 11  1  0  0  0  0
 18  2  2  0  0  0  0
 18  5  1  0  0  0  0
 19 11  2  0  0  0  0
 19  2  1  0  0  0  0
 21 20  2  0  0  0  0
 22 20  1  6  0  0  0
 22 23  1  0  0  0  0
 22 24  1  0  0  0  0
 23 24  1  0  0  0  0
 25 26  1  6  0  0  0
 25 17  1  0  0  0  0
 27 26  1  0  0  0  0
 27 28  1  0  0  0  0
 29 25  1  0  0  0  0
 29 32  1  0  0  0  0
 30 32  1  0  0  0  0
 31 30  1  0  0  0  0
 31 32  1  0  0  0  0
M  END
>  <MODEL>
6

>  <REMARK>
 VINA RESULT:      -7.8      2.277      9.462
  Name = 
  7 active torsions:
  status: ('A' for Active; 'I' for Inactive)
    1  A    between atoms: C_1  and  N_10
    2  A    between atoms: C_2  and  C_24
    3  A    between atoms: C_6  and  C_7
    4  A    between atoms: C_7  and  C_32
    5  A    between atoms: C_22  and  C_30
    6  A    between atoms: C_22  and  C_32
    7  A    between atoms: N_27  and  C_32
                            x       y       z     vdW  Elec       q    Type
                         _______ _______ _______ _____ _____    ______ ____

>  <TORSDO>
F 7

$$$$
=
 OpenBabel10272413333D

 32 37  0  0  1  0  0  0  0  0999 V2000
  182.9090  179.3770  139.2110 C   0  0  0  0  0  0  0  0  0  0  0  0
  186.6040  178.1250  142.4110 C   0  0  0  0  0  0  0  0  0  0  0  0
  184.7770  178.4600  146.9890 C   0  0  0  0  0  3  0  0  0  0  0  0
  186.0700  178.2900  147.4870 C   0  0  0  0  0  3  0  0  0  0  0  0
  185.3120  178.6820  140.4760 C   0  0  0  0  0  0  0  0  0  0  0  0
  184.3150  179.1150  142.7350 C   0  0  0  0  0  2  0  0  0  0  0  0
  182.9940  179.3890  140.6120 C   0  0  0  0  0  3  0  0  0  0  0  0
  184.5470  178.4140  145.6130 C   0  0  0  0  0  3  0  0  0  0  0  0
  185.3340  178.0860  143.2410 C   0  0  2  0  0  3  0  0  0  0  0  0
  185.6100  178.2170  144.7180 C   0  0  0  0  0  0  0  0  0  0  0  0
  188.0420  177.7740  144.3010 C   0  0  0  0  0  0  0  0  0  0  0  0
  184.0310  179.0270  138.4520 C   0  0  0  0  0  3  0  0  0  0  0  0
  184.1870  179.0330  141.2430 C   0  0  0  0  0  0  0  0  0  0  0  0
  185.2320  178.6840  139.0810 C   0  0  0  0  0  3  0  0  0  0  0  0
  187.1320  178.0690  146.6080 C   0  0  0  0  0  3  0  0  0  0  0  0
  186.9120  178.0230  145.2240 C   0  0  0  0  0  0  0  0  0  0  0  0
  189.3410  177.4910  144.8330 N   0  0  0  0  0  2  0  0  0  0  0  0
  186.5420  178.3390  141.1290 N   0  0  0  0  0  0  0  0  0  0  0  0
  187.8700  177.8420  143.0130 N   0  0  0  0  0  0  0  0  0  0  0  0
  181.5620  180.8380  137.8500 N   0  0  0  0  0  0  0  0  0  0  0  0
  181.6660  179.7380  138.5220 C   0  0  0  0  0  3  0  0  0  0  0  0
  180.3180  181.1640  137.1780 C   0  0  2  0  0  3  0  0  0  0  0  0
  180.5980  181.5360  135.8500 O   0  0  0  0  0  0  0  0  0  0  0  0
  180.3380  182.5800  136.7550 C   0  0  0  0  0  2  0  0  0  0  0  0
  190.5020  177.2110  143.9980 C   0  0  1  0  0  3  0  0  0  0  0  0
  191.7240  176.9160  144.8680 C   0  0  0  0  0  2  0  0  0  0  0  0
  191.3400  176.5430  146.2920 C   0  0  0  0  0  2  0  0  0  0  0  0
  192.3560  175.7780  146.8610 O   0  0  0  0  0  1  0  0  0  0  0  0
  190.2010  176.0640  143.0380 C   0  0  0  0  0  2  0  0  0  0  0  0
  191.1090  177.6630  141.3930 C   0  0  0  0  0  2  0  0  0  0  0  0
  190.1530  176.7460  140.6650 C   0  0  0  0  0  2  0  0  0  0  0  0
  191.0280  176.2000  141.7740 C   0  0  0  0  0  3  0  0  0  0  0  0
  1  7  1  0  0  0  0
  2 19  1  0  0  0  0
  2  9  1  0  0  0  0
  3  4  1  0  0  0  0
  5 18  1  0  0  0  0
  5 13  1  0  0  0  0
  7 13  2  0  0  0  0
  8  3  2  0  0  0  0
  9  6  1  6  0  0  0
  9 10  1  0  0  0  0
 10 16  2  0  0  0  0
 10  8  1  0  0  0  0
 11 17  1  0  0  0  0
 11 16  1  0  0  0  0
 12 14  1  0  0  0  0
 12  1  2  0  0  0  0
 13  6  1  0  0  0  0
 14  5  2  0  0  0  0
 15  4  2  0  0  0  0
 16 15  1  0  0  0  0
 18  2  2  0  0  0  0
 19 11  2  0  0  0  0
 20 21  2  0  0  0  0
 21  1  1  0  0  0  0
 22 20  1  1  0  0  0
 23 24  1  0  0  0  0
 23 22  1  0  0  0  0
 24 22  1  0  0  0  0
 25 29  1  6  0  0  0
 25 17  1  0  0  0  0
 25 26  1  0  0  0  0
 26 27  1  0  0  0  0
 27 28  1  0  0  0  0
 30 32  1  0  0  0  0
 31 30  1  0  0  0  0
 31 32  1  0  0  0  0
 32 29  1  0  0  0  0
M  END
>  <MODEL>
7

>  <REMARK>
 VINA RESULT:      -7.6      1.343      2.460
  Name = 
  7 active torsions:
  status: ('A' for Active; 'I' for Inactive)
    1  A    between atoms: C_1  and  N_10
    2  A    between atoms: C_2  and  C_24
    3  A    between atoms: C_6  and  C_7
    4  A    between atoms: C_7  and  C_32
    5  A    between atoms: C_22  and  C_30
    6  A    between atoms: C_22  and  C_32
    7  A    between atoms: N_27  and  C_32
                            x       y       z     vdW  Elec       q    Type
                         _______ _______ _______ _____ _____    ______ ____

>  <TORSDO>
F 7

$$$$
=
 OpenBabel10272413333D

 32 37  0  0  1  0  0  0  0  0999 V2000
  191.2450  176.4030  146.7950 C   0  0  0  0  0  0  0  0  0  0  0  0
  187.9780  177.6700  143.1650 C   0  0  0  0  0  0  0  0  0  0  0  0
  190.4010  177.4910  138.8630 C   0  0  0  0  0  3  0  0  0  0  0  0
  189.2990  178.0910  138.2490 C   0  0  0  0  0  3  0  0  0  0  0  0
  189.0550  177.2360  145.2570 C   0  0  0  0  0  0  0  0  0  0  0  0
  190.4690  177.3220  143.1880 C   0  0  0  0  0  2  0  0  0  0  0  0
  191.3960  176.6140  145.4160 C   0  0  0  0  0  3  0  0  0  0  0  0
  190.3580  177.1770  140.2220 C   0  0  0  0  0  3  0  0  0  0  0  0
  189.1580  177.0560  142.4350 C   0  0  2  0  0  3  0  0  0  0  0  0
  189.2220  177.4770  140.9880 C   0  0  0  0  0  0  0  0  0  0  0  0
  186.8770  178.3500  141.1430 C   0  0  0  0  0  0  0  0  0  0  0  0
  190.0000  176.6200  147.3980 C   0  0  0  0  0  3  0  0  0  0  0  0
  190.3030  177.0190  144.6470 C   0  0  0  0  0  0  0  0  0  0  0  0
  188.9070  177.0400  146.6320 C   0  0  0  0  0  3  0  0  0  0  0  0
  188.1530  178.3710  138.9960 C   0  0  0  0  0  3  0  0  0  0  0  0
  188.1000  178.0620  140.3630 C   0  0  0  0  0  0  0  0  0  0  0  0
  185.7170  178.8620  140.4760 N   0  0  0  0  0  2  0  0  0  0  0  0
  187.9420  177.6740  144.4650 N   0  0  0  0  0  0  0  0  0  0  0  0
  186.8570  178.1720  142.4310 N   0  0  0  0  0  0  0  0  0  0  0  0
  192.7330  176.6350  148.6740 N   0  0  0  0  0  0  0  0  0  0  0  0
  192.3710  175.9690  147.6270 C   0  0  0  0  0  3  0  0  0  0  0  0
  193.8530  176.1780  149.4760 C   0  0  2  0  0  3  0  0  0  0  0  0
  193.4470  176.0840  150.8200 O   0  0  0  0  0  0  0  0  0  0  0  0
  194.2080  177.2120  150.4690 C   0  0  0  0  0  2  0  0  0  0  0  0
  184.4640  179.1510  141.1620 C   0  0  1  0  0  3  0  0  0  0  0  0
  183.2970  179.1160  140.1740 C   0  0  0  0  0  2  0  0  0  0  0  0
  183.6810  179.6700  138.8100 C   0  0  0  0  0  2  0  0  0  0  0  0
  183.6390  181.0620  138.8460 O   0  0  0  0  0  1  0  0  0  0  0  0
  184.2550  178.1770  142.3180 C   0  0  0  0  0  2  0  0  0  0  0  0
  184.3750  179.8920  144.0860 C   0  0  0  0  0  2  0  0  0  0  0  0
  184.1830  178.5510  144.7580 C   0  0  0  0  0  2  0  0  0  0  0  0
  183.4890  178.8450  143.4430 C   0  0  0  0  0  3  0  0  0  0  0  0
  1 12  1  0  0  0  0
  1 21  1  0  0  0  0
  2 18  2  0  0  0  0
  3  8  1  0  0  0  0
  4  3  2  0  0  0  0
  4 15  1  0  0  0  0
  5 14  1  0  0  0  0
  6 13  1  0  0  0  0
  7  1  2  0  0  0  0
  8 10  2  0  0  0  0
  9  2  1  0  0  0  0
  9  6  1  1  0  0  0
 10  9  1  0  0  0  0
 11 19  2  0  0  0  0
 13  5  2  0  0  0  0
 13  7  1  0  0  0  0
 14 12  2  0  0  0  0
 15 16  2  0  0  0  0
 16 10  1  0  0  0  0
 16 11  1  0  0  0  0
 17 11  1  0  0  0  0
 17 25  1  0  0  0  0
 18  5  1  0  0  0  0
 19  2  1  0  0  0  0
 21 20  2  0  0  0  0
 22 20  1  6  0  0  0
 22 24  1  0  0  0  0
 22 23  1  0  0  0  0
 24 23  1  0  0  0  0
 25 26  1  6  0  0  0
 25 29  1  0  0  0  0
 27 28  1  0  0  0  0
 27 26  1  0  0  0  0
 29 32  1  0  0  0  0
 30 31  1  0  0  0  0
 32 30  1  0  0  0  0
 32 31  1  0  0  0  0
M  END
>  <MODEL>
8

>  <REMARK>
 VINA RESULT:      -7.5      2.630      9.821
  Name = 
  7 active torsions:
  status: ('A' for Active; 'I' for Inactive)
    1  A    between atoms: C_1  and  N_10
    2  A    between atoms: C_2  and  C_24
    3  A    between atoms: C_6  and  C_7
    4  A    between atoms: C_7  and  C_32
    5  A    between atoms: C_22  and  C_30
    6  A    between atoms: C_22  and  C_32
    7  A    between atoms: N_27  and  C_32
                            x       y       z     vdW  Elec       q    Type
                         _______ _______ _______ _____ _____    ______ ____

>  <TORSDO>
F 7

$$$$
=
 OpenBabel10272413333D

 32 37  0  0  1  0  0  0  0  0999 V2000
  188.3670  177.6530  145.9930 C   0  0  0  0  0  0  0  0  0  0  0  0
  185.7090  178.3390  141.7590 C   0  0  0  0  0  0  0  0  0  0  0  0
  188.8460  177.9520  137.9620 C   0  0  0  0  0  3  0  0  0  0  0  0
  187.8350  178.4110  137.1160 C   0  0  0  0  0  3  0  0  0  0  0  0
  186.4310  178.1780  144.0340 C   0  0  0  0  0  0  0  0  0  0  0  0
  188.1740  178.1810  142.2320 C   0  0  0  0  0  2  0  0  0  0  0  0
  188.7420  177.7490  144.6440 C   0  0  0  0  0  3  0  0  0  0  0  0
  188.5870  177.7600  139.3200 C   0  0  0  0  0  3  0  0  0  0  0  0
  187.0320  177.7510  141.3030 C   0  0  2  0  0  3  0  0  0  0  0  0
  187.3200  178.0430  139.8520 C   0  0  0  0  0  0  0  0  0  0  0  0
  184.9370  178.7500  139.5230 C   0  0  0  0  0  0  0  0  0  0  0  0
  187.0260  177.8310  146.3540 C   0  0  0  0  0  3  0  0  0  0  0  0
  187.7770  178.0000  143.6670 C   0  0  0  0  0  0  0  0  0  0  0  0
  186.0600  178.0970  145.3780 C   0  0  0  0  0  3  0  0  0  0  0  0
  186.5620  178.6710  137.6280 C   0  0  0  0  0  3  0  0  0  0  0  0
  186.2920  178.4830  138.9910 C   0  0  0  0  0  0  0  0  0  0  0  0
  183.8830  179.1110  138.6230 N   0  0  0  0  0  2  0  0  0  0  0  0
  185.4480  178.4590  143.0280 N   0  0  0  0  0  0  0  0  0  0  0  0
  184.7050  178.6880  140.8020 N   0  0  0  0  0  0  0  0  0  0  0  0
  190.4550  176.7510  146.7830 N   0  0  0  0  0  0  0  0  0  0  0  0
  189.3560  177.3810  147.0400 C   0  0  0  0  0  3  0  0  0  0  0  0
  191.4140  176.4980  147.8420 C   0  0  2  0  0  3  0  0  0  0  0  0
  192.7130  176.5400  147.3040 O   0  0  0  0  0  0  0  0  0  0  0  0
  192.1710  175.2650  147.5430 C   0  0  0  0  0  2  0  0  0  0  0  0
  182.5150  179.3660  139.0580 C   0  0  1  0  0  3  0  0  0  0  0  0
  182.0080  180.6840  138.4710 C   0  0  0  0  0  2  0  0  0  0  0  0
  180.5500  180.9450  138.8150 C   0  0  0  0  0  2  0  0  0  0  0  0
  180.4080  181.0370  140.1980 O   0  0  0  0  0  1  0  0  0  0  0  0
  181.6110  178.1960  138.6830 C   0  0  0  0  0  2  0  0  0  0  0  0
  182.3380  176.0220  139.5960 C   0  0  0  0  0  2  0  0  0  0  0  0
  180.8460  175.9480  139.3620 C   0  0  0  0  0  2  0  0  0  0  0  0
  181.4720  177.2380  139.8510 C   0  0  0  0  0  3  0  0  0  0  0  0
  1 12  1  0  0  0  0
  1 21  1  0  0  0  0
  2 18  2  0  0  0  0
  3  8  1  0  0  0  0
  4 15  1  0  0  0  0
  4  3  2  0  0  0  0
  5 14  1  0  0  0  0
  6 13  1  0  0  0  0
  7  1  2  0  0  0  0
  8 10  2  0  0  0  0
  9  2  1  0  0  0  0
  9  6  1  1  0  0  0
 10  9  1  0  0  0  0
 11 19  2  0  0  0  0
 13  5  2  0  0  0  0
 13  7  1  0  0  0  0
 14 12  2  0  0  0  0
 15 16  2  0  0  0  0
 16 11  1  0  0  0  0
 16 10  1  0  0  0  0
 17 25  1  0  0  0  0
 17 11  1  0  0  0  0
 18  5  1  0  0  0  0
 19  2  1  0  0  0  0
 20 21  2  0  0  0  0
 22 20  1  6  0  0  0
 23 24  1  0  0  0  0
 23 22  1  0  0  0  0
 24 22  1  0  0  0  0
 25 26  1  6  0  0  0
 26 27  1  0  0  0  0
 27 28  1  0  0  0  0
 29 25  1  0  0  0  0
 29 32  1  0  0  0  0
 30 32  1  0  0  0  0
 31 30  1  0  0  0  0
 31 32  1  0  0  0  0
M  END
>  <MODEL>
9

>  <REMARK>
 VINA RESULT:      -7.1      2.215      9.814
  Name = 
  7 active torsions:
  status: ('A' for Active; 'I' for Inactive)
    1  A    between atoms: C_1  and  N_10
    2  A    between atoms: C_2  and  C_24
    3  A    between atoms: C_6  and  C_7
    4  A    between atoms: C_7  and  C_32
    5  A    between atoms: C_22  and  C_30
    6  A    between atoms: C_22  and  C_32
    7  A    between atoms: N_27  and  C_32
                            x       y       z     vdW  Elec       q    Type
                         _______ _______ _______ _____ _____    ______ ____

>  <TORSDO>
F 7

$$$$
