=
 OpenBabel10272414173D

 43 50  0  0  1  0  0  0  0  0999 V2000
  184.4040  179.0470  140.8320 N   0  0  0  0  0  2  0  0  0  0  0  0
  187.7670  177.4760  147.3570 C   0  0  0  0  0  0  0  0  0  0  0  0
  185.9360  178.6210  142.7870 C   0  0  0  0  0  0  0  0  0  0  0  0
  188.1230  178.6210  140.9890 C   0  0  2  0  0  3  0  0  0  0  0  0
  186.3580  178.2110  145.5280 C   0  0  0  0  0  0  0  0  0  0  0  0
  188.7780  177.1460  146.4510 C   0  0  0  0  0  3  0  0  0  0  0  0
  187.9630  177.2760  148.7170 O   0  0  0  0  0  1  0  0  0  0  0  0
  187.3790  177.8800  144.6050 C   0  0  0  0  0  0  0  0  0  0  0  0
  186.5580  178.0060  146.8970 C   0  0  0  0  0  3  0  0  0  0  0  0
  188.5860  177.3460  145.0820 C   0  0  0  0  0  3  0  0  0  0  0  0
  188.1900  177.6860  142.2020 C   0  0  0  0  0  2  0  0  0  0  0  0
  187.1650  178.0940  143.2300 C   0  0  0  0  0  0  0  0  0  0  0  0
  184.9340  178.9380  143.7110 C   0  0  0  0  0  3  0  0  0  0  0  0
  185.7260  178.8280  141.3390 C   0  0  0  0  0  0  0  0  0  0  0  0
  186.7390  178.7640  140.5230 N   0  0  0  0  0  0  0  0  0  0  0  0
  185.1450  178.7350  145.0760 C   0  0  0  0  0  3  0  0  0  0  0  0
  183.2430  177.7300  137.6470 C   0  0  2  0  0  3  0  0  0  0  0  0
  181.9120  177.3400  138.2640 C   0  0  1  0  0  3  0  0  0  0  0  0
  182.6560  179.5100  139.2130 C   0  0  0  0  0  2  0  0  0  0  0  0
  184.3070  177.8260  138.7260 C   0  0  0  0  0  2  0  0  0  0  0  0
  184.1120  179.1620  139.4110 C   0  0  2  0  0  3  0  0  0  0  0  0
  182.2030  178.7940  137.9530 C   0  0  1  0  0  3  0  0  0  0  0  0
  181.7950  176.3000  136.1330 O   0  0  0  0  0  1  0  0  0  0  0  0
  181.0130  176.7690  137.1870 C   0  0  0  0  0  2  0  0  0  0  0  0
  189.0220  178.1160  139.8620 C   0  0  1  0  0  3  0  0  0  0  0  0
  189.9200  176.9960  140.3580 C   0  0  0  0  0  1  0  0  0  0  0  0
  188.2040  177.6220  138.7620 N   0  0  0  0  0  2  0  0  0  0  0  0
  188.1260  178.2890  137.5030 C   0  0  0  0  0  0  0  0  0  0  0  0
  188.7380  179.3740  137.3090 O   0  0  0  0  0  0  0  0  0  0  0  0
  187.2720  177.7210  136.4240 C   0  0  0  0  0  2  0  0  0  0  0  0
  187.7500  176.3950  136.0630 N   0  0  0  0  0  0  0  0  0  0  0  0
  186.4610  174.4180  136.5290 C   0  0  2  0  0  3  0  0  0  0  0  0
  186.5820  175.6210  135.6710 C   0  0  2  0  0  3  0  0  0  0  0  0
  186.9900  174.3450  135.2280 O   0  0  0  0  0  0  0  0  0  0  0  0
  185.0300  173.8830  136.5480 C   0  0  1  0  0  0  0  0  0  0  0  0
  184.2050  174.2000  137.7740 C   0  0  0  0  0  2  0  0  0  0  0  0
  183.8290  172.0520  135.5130 C   0  0  0  0  0  2  0  0  0  0  0  0
  183.8050  171.8560  137.0160 C   0  0  0  0  0  2  0  0  0  0  0  0
  184.2770  173.4790  135.2890 C   0  0  0  0  0  2  0  0  0  0  0  0
  184.8230  172.8180  137.6020 C   0  0  1  0  0  3  0  0  0  0  0  0
  188.5770  176.5490  134.8730 C   0  0  0  0  0  2  0  0  0  0  0  0
  190.3260  175.2070  136.5150 S   0  0  0  0  0  1  0  0  0  0  0  0
  190.0510  176.4700  135.2370 C   0  0  0  0  0  2  0  0  0  0  0  0
  1 14  1  0  0  0  0
  2  7  1  0  0  0  0
  3 12  2  0  0  0  0
  3 13  1  0  0  0  0
  4 25  1  6  0  0  0
  4 11  1  0  0  0  0
  5  9  2  0  0  0  0
  6  2  2  0  0  0  0
  8 10  2  0  0  0  0
  8  5  1  0  0  0  0
  9  2  1  0  0  0  0
 10  6  1  0  0  0  0
 11 12  1  0  0  0  0
 12  8  1  0  0  0  0
 13 16  2  0  0  0  0
 14  3  1  0  0  0  0
 15  4  1  0  0  0  0
 15 14  2  0  0  0  0
 16  5  1  0  0  0  0
 17 22  1  0  0  0  0
 17 18  1  0  0  0  0
 17 20  1  1  0  0  0
 18 24  1  6  0  0  0
 19 21  1  0  0  0  0
 20 21  1  0  0  0  0
 21  1  1  1  0  0  0
 22 18  1  0  0  0  0
 22 19  1  1  0  0  0
 23 24  1  0  0  0  0
 25 26  1  1  0  0  0
 27 25  1  0  0  0  0
 28 27  1  0  0  0  0
 29 28  2  0  0  0  0
 30 28  1  0  0  0  0
 31 30  1  0  0  0  0
 32 34  1  6  0  0  0
 32 35  1  0  0  0  0
 33 31  1  1  0  0  0
 33 32  1  0  0  0  0
 34 33  1  0  0  0  0
 35 39  1  6  0  0  0
 35 40  1  0  0  0  0
 35 36  1  0  0  0  0
 37 38  1  0  0  0  0
 39 37  1  0  0  0  0
 40 38  1  6  0  0  0
 40 36  1  0  0  0  0
 41 43  1  0  0  0  0
 41 31  1  0  0  0  0
 43 42  1  0  0  0  0
M  END
>  <MODEL>
1

>  <REMARK>
 VINA RESULT:      -9.2      0.000      0.000
  Name = 
  10 active torsions:
  status: ('A' for Active; 'I' for Inactive)
    1  A    between atoms: N_1  and  C_35
    2  A    between atoms: C_2  and  N_6
    3  A    between atoms: C_2  and  C_13
    4  A    between atoms: C_3  and  N_4
    5  A    between atoms: C_3  and  C_12
    6  A    between atoms: N_4  and  C_15
    7  A    between atoms: N_4  and  C_22
    8  A    between atoms: C_11  and  C_14
    9  A    between atoms: C_15  and  C_42
   10  A    between atoms: C_19  and  C_37
                            x       y       z     vdW  Elec       q    Type
                         _______ _______ _______ _____ _____    ______ ____

>  <TORSDO>
F 10

$$$$
=
 OpenBabel10272414173D

 43 50  0  0  1  0  0  0  0  0999 V2000
  184.4290  178.9500  140.9030 N   0  0  0  0  0  2  0  0  0  0  0  0
  187.6900  177.5950  147.5270 C   0  0  0  0  0  0  0  0  0  0  0  0
  185.9290  178.6020  142.8980 C   0  0  0  0  0  0  0  0  0  0  0  0
  188.1530  178.6200  141.1460 C   0  0  2  0  0  3  0  0  0  0  0  0
  186.3020  178.2570  145.6550 C   0  0  0  0  0  0  0  0  0  0  0  0
  188.7280  177.2710  146.6490 C   0  0  0  0  0  3  0  0  0  0  0  0
  187.8610  177.4270  148.8950 O   0  0  0  0  0  1  0  0  0  0  0  0
  187.3510  177.9330  144.7600 C   0  0  0  0  0  0  0  0  0  0  0  0
  186.4790  178.0850  147.0310 C   0  0  0  0  0  3  0  0  0  0  0  0
  188.5600  177.4390  145.2730 C   0  0  0  0  0  3  0  0  0  0  0  0
  188.2170  177.7110  142.3790 C   0  0  0  0  0  2  0  0  0  0  0  0
  187.1610  178.1140  143.3760 C   0  0  0  0  0  0  0  0  0  0  0  0
  184.9000  178.9120  143.7940 C   0  0  0  0  0  3  0  0  0  0  0  0
  185.7450  178.7740  141.4410 C   0  0  0  0  0  0  0  0  0  0  0  0
  186.7760  178.7190  140.6480 N   0  0  0  0  0  0  0  0  0  0  0  0
  185.0880  178.7420  145.1670 C   0  0  0  0  0  3  0  0  0  0  0  0
  182.7640  177.8770  137.8530 C   0  0  2  0  0  3  0  0  0  0  0  0
  181.4030  178.0910  138.4890 C   0  0  1  0  0  3  0  0  0  0  0  0
  182.9480  179.8900  139.2240 C   0  0  0  0  0  2  0  0  0  0  0  0
  183.8130  177.6610  138.9290 C   0  0  0  0  0  2  0  0  0  0  0  0
  184.1650  179.0290  139.4730 C   0  0  2  0  0  3  0  0  0  0  0  0
  182.2220  179.2840  138.0370 C   0  0  1  0  0  3  0  0  0  0  0  0
  180.5880  178.5320  136.3030 O   0  0  0  0  0  1  0  0  0  0  0  0
  180.3250  177.8070  137.4640 C   0  0  0  0  0  2  0  0  0  0  0  0
  189.0870  178.1150  140.0480 C   0  0  1  0  0  3  0  0  0  0  0  0
  189.9370  176.9630  140.5600 C   0  0  0  0  0  1  0  0  0  0  0  0
  188.3070  177.6610  138.9050 N   0  0  0  0  0  2  0  0  0  0  0  0
  188.3000  178.3530  137.6560 C   0  0  0  0  0  0  0  0  0  0  0  0
  188.9460  179.4260  137.5100 O   0  0  0  0  0  0  0  0  0  0  0  0
  187.4800  177.8270  136.5310 C   0  0  0  0  0  2  0  0  0  0  0  0
  188.3500  177.4000  135.4460 N   0  0  0  0  0  0  0  0  0  0  0  0
  190.5100  176.3830  135.7410 C   0  0  2  0  0  3  0  0  0  0  0  0
  189.0470  176.2100  135.9120 C   0  0  2  0  0  3  0  0  0  0  0  0
  189.7470  175.6230  134.8370 O   0  0  0  0  0  0  0  0  0  0  0  0
  191.2970  175.4620  136.6720 C   0  0  1  0  0  0  0  0  0  0  0  0
  192.0070  176.1180  137.8330 C   0  0  0  0  0  2  0  0  0  0  0  0
  192.3730  173.2980  136.4980 C   0  0  0  0  0  2  0  0  0  0  0  0
  193.4290  174.3380  136.8150 C   0  0  0  0  0  2  0  0  0  0  0  0
  191.0420  173.9640  136.7700 C   0  0  0  0  0  2  0  0  0  0  0  0
  192.7890  175.6970  136.5960 C   0  0  1  0  0  3  0  0  0  0  0  0
  187.4870  176.9830  134.3470 C   0  0  0  0  0  2  0  0  0  0  0  0
  185.6890  174.9210  134.6070 S   0  0  0  0  0  1  0  0  0  0  0  0
  186.0880  176.6760  134.8580 C   0  0  0  0  0  2  0  0  0  0  0  0
  1 14  1  0  0  0  0
  2  7  1  0  0  0  0
  3 12  2  0  0  0  0
  3 13  1  0  0  0  0
  4 25  1  6  0  0  0
  4 11  1  0  0  0  0
  5  9  2  0  0  0  0
  6  2  2  0  0  0  0
  8 10  2  0  0  0  0
  8  5  1  0  0  0  0
  9  2  1  0  0  0  0
 10  6  1  0  0  0  0
 11 12  1  0  0  0  0
 12  8  1  0  0  0  0
 13 16  2  0  0  0  0
 14  3  1  0  0  0  0
 15  4  1  0  0  0  0
 15 14  2  0  0  0  0
 16  5  1  0  0  0  0
 17 22  1  0  0  0  0
 17 18  1  0  0  0  0
 17 20  1  1  0  0  0
 18 24  1  6  0  0  0
 19 21  1  0  0  0  0
 20 21  1  0  0  0  0
 21  1  1  1  0  0  0
 22 18  1  0  0  0  0
 22 19  1  1  0  0  0
 23 24  1  0  0  0  0
 25 26  1  1  0  0  0
 27 25  1  0  0  0  0
 28 27  1  0  0  0  0
 29 28  2  0  0  0  0
 30 28  1  0  0  0  0
 31 30  1  0  0  0  0
 32 34  1  6  0  0  0
 32 33  1  0  0  0  0
 32 35  1  0  0  0  0
 33 31  1  6  0  0  0
 34 33  1  0  0  0  0
 35 39  1  1  0  0  0
 35 36  1  0  0  0  0
 37 39  1  0  0  0  0
 37 38  1  0  0  0  0
 40 35  1  0  0  0  0
 40 38  1  1  0  0  0
 40 36  1  0  0  0  0
 41 43  1  0  0  0  0
 41 31  1  0  0  0  0
 42 43  1  0  0  0  0
M  END
>  <MODEL>
2

>  <REMARK>
 VINA RESULT:      -8.7      2.058      3.389
  Name = 
  10 active torsions:
  status: ('A' for Active; 'I' for Inactive)
    1  A    between atoms: N_1  and  C_35
    2  A    between atoms: C_2  and  N_6
    3  A    between atoms: C_2  and  C_13
    4  A    between atoms: C_3  and  N_4
    5  A    between atoms: C_3  and  C_12
    6  A    between atoms: N_4  and  C_15
    7  A    between atoms: N_4  and  C_22
    8  A    between atoms: C_11  and  C_14
    9  A    between atoms: C_15  and  C_42
   10  A    between atoms: C_19  and  C_37
                            x       y       z     vdW  Elec       q    Type
                         _______ _______ _______ _____ _____    ______ ____

>  <TORSDO>
F 10

$$$$
=
 OpenBabel10272414173D

 43 50  0  0  1  0  0  0  0  0999 V2000
  186.4400  178.1760  146.7490 N   0  0  0  0  0  2  0  0  0  0  0  0
  182.0000  179.1250  140.7700 C   0  0  0  0  0  0  0  0  0  0  0  0
  185.2580  178.2030  144.5230 C   0  0  0  0  0  0  0  0  0  0  0  0
  187.5650  177.0450  143.3580 C   0  0  2  0  0  3  0  0  0  0  0  0
  183.0170  178.7870  142.9430 C   0  0  0  0  0  0  0  0  0  0  0  0
  183.2290  178.8760  140.1520 C   0  0  0  0  0  3  0  0  0  0  0  0
  180.8830  179.4170  139.9990 O   0  0  0  0  0  1  0  0  0  0  0  0
  184.2640  178.5320  142.3230 C   0  0  0  0  0  0  0  0  0  0  0  0
  181.8950  179.0820  142.1630 C   0  0  0  0  0  3  0  0  0  0  0  0
  184.3550  178.5820  140.9240 C   0  0  0  0  0  3  0  0  0  0  0  0
  186.7510  178.0310  142.5130 C   0  0  0  0  0  2  0  0  0  0  0  0
  185.3860  178.2330  143.1200 C   0  0  0  0  0  0  0  0  0  0  0  0
  184.0210  178.4630  145.1210 C   0  0  0  0  0  3  0  0  0  0  0  0
  186.4490  177.8980  145.3430 C   0  0  0  0  0  0  0  0  0  0  0  0
  187.5200  177.4220  144.7760 N   0  0  0  0  0  0  0  0  0  0  0  0
  182.9050  178.7520  144.3340 C   0  0  0  0  0  3  0  0  0  0  0  0
  189.6130  176.6160  147.5970 C   0  0  2  0  0  3  0  0  0  0  0  0
  190.1970  177.0110  146.2530 C   0  0  1  0  0  3  0  0  0  0  0  0
  188.7480  178.8440  147.0940 C   0  0  0  0  0  2  0  0  0  0  0  0
  188.0980  176.5630  147.5100 C   0  0  0  0  0  2  0  0  0  0  0  0
  187.6070  177.9920  147.5980 C   0  0  2  0  0  3  0  0  0  0  0  0
  190.0220  178.0560  147.3380 C   0  0  1  0  0  3  0  0  0  0  0  0
  192.1700  176.5490  147.4900 O   0  0  0  0  0  1  0  0  0  0  0  0
  191.6490  176.5870  146.1970 C   0  0  0  0  0  2  0  0  0  0  0  0
  189.0090  176.9690  142.8660 C   0  0  1  0  0  3  0  0  0  0  0  0
  189.6170  175.6180  143.2060 C   0  0  0  0  0  1  0  0  0  0  0  0
  189.0500  177.1620  141.4230 N   0  0  0  0  0  2  0  0  0  0  0  0
  190.2720  177.3310  140.7050 C   0  0  0  0  0  0  0  0  0  0  0  0
  191.3770  177.3630  141.3120 O   0  0  0  0  0  0  0  0  0  0  0  0
  190.2360  177.5200  139.2290 C   0  0  0  0  0  2  0  0  0  0  0  0
  189.6620  176.3420  138.5960 N   0  0  0  0  0  0  0  0  0  0  0  0
  187.4780  176.2520  137.5910 C   0  0  2  0  0  3  0  0  0  0  0  0
  188.8450  176.8180  137.4890 C   0  0  2  0  0  3  0  0  0  0  0  0
  188.4320  175.7220  136.7040 O   0  0  0  0  0  0  0  0  0  0  0  0
  186.4610  177.0990  136.8280 C   0  0  1  0  0  0  0  0  0  0  0  0
  185.8720  178.2790  137.5670 C   0  0  0  0  0  2  0  0  0  0  0  0
  184.9240  176.7590  134.9860 C   0  0  0  0  0  2  0  0  0  0  0  0
  184.1230  177.1100  136.2250 C   0  0  0  0  0  2  0  0  0  0  0  0
  186.3600  177.1100  135.3100 C   0  0  0  0  0  2  0  0  0  0  0  0
  185.0670  176.9960  137.4080 C   0  0  1  0  0  3  0  0  0  0  0  0
  190.7660  175.5900  138.0150 C   0  0  0  0  0  2  0  0  0  0  0  0
  193.4470  175.7710  137.4320 S   0  0  0  0  0  1  0  0  0  0  0  0
  191.7980  176.5350  137.4190 C   0  0  0  0  0  2  0  0  0  0  0  0
  2  9  1  0  0  0  0
  3 13  1  0  0  0  0
  3 14  1  0  0  0  0
  4 25  1  6  0  0  0
  4 15  1  0  0  0  0
  5 16  1  0  0  0  0
  6  2  2  0  0  0  0
  6 10  1  0  0  0  0
  7  2  1  0  0  0  0
  8  5  1  0  0  0  0
  8 12  1  0  0  0  0
  9  5  2  0  0  0  0
 10  8  2  0  0  0  0
 11 12  1  0  0  0  0
 11  4  1  0  0  0  0
 12  3  2  0  0  0  0
 14  1  1  0  0  0  0
 15 14  2  0  0  0  0
 16 13  2  0  0  0  0
 17 20  1  6  0  0  0
 18 24  1  1  0  0  0
 18 22  1  0  0  0  0
 18 17  1  0  0  0  0
 19 21  1  0  0  0  0
 20 21  1  0  0  0  0
 21  1  1  6  0  0  0
 22 19  1  6  0  0  0
 22 17  1  0  0  0  0
 24 23  1  0  0  0  0
 25 26  1  6  0  0  0
 27 25  1  0  0  0  0
 28 29  2  0  0  0  0
 28 27  1  0  0  0  0
 30 28  1  0  0  0  0
 31 30  1  0  0  0  0
 32 34  1  6  0  0  0
 33 32  1  0  0  0  0
 33 31  1  1  0  0  0
 34 33  1  0  0  0  0
 35 39  1  6  0  0  0
 35 40  1  0  0  0  0
 35 36  1  0  0  0  0
 35 32  1  0  0  0  0
 37 39  1  0  0  0  0
 37 38  1  0  0  0  0
 40 38  1  6  0  0  0
 40 36  1  0  0  0  0
 41 31  1  0  0  0  0
 43 42  1  0  0  0  0
 43 41  1  0  0  0  0
M  END
>  <MODEL>
3

>  <REMARK>
 VINA RESULT:      -8.2      2.661      6.653
  Name = 
  10 active torsions:
  status: ('A' for Active; 'I' for Inactive)
    1  A    between atoms: N_1  and  C_35
    2  A    between atoms: C_2  and  N_6
    3  A    between atoms: C_2  and  C_13
    4  A    between atoms: C_3  and  N_4
    5  A    between atoms: C_3  and  C_12
    6  A    between atoms: N_4  and  C_15
    7  A    between atoms: N_4  and  C_22
    8  A    between atoms: C_11  and  C_14
    9  A    between atoms: C_15  and  C_42
   10  A    between atoms: C_19  and  C_37
                            x       y       z     vdW  Elec       q    Type
                         _______ _______ _______ _____ _____    ______ ____

>  <TORSDO>
F 10

$$$$
=
 OpenBabel10272414173D

 43 50  0  0  1  0  0  0  0  0999 V2000
  188.4180  178.0470  143.8060 N   0  0  0  0  0  2  0  0  0  0  0  0
  181.3560  179.1750  141.5230 C   0  0  0  0  0  0  0  0  0  0  0  0
  186.2010  178.2470  142.6240 C   0  0  0  0  0  0  0  0  0  0  0  0
  187.5440  177.8070  140.1700 C   0  0  2  0  0  3  0  0  0  0  0  0
  183.4280  178.6530  142.6660 C   0  0  0  0  0  0  0  0  0  0  0  0
  182.0480  179.2950  140.3150 C   0  0  0  0  0  3  0  0  0  0  0  0
  179.9830  179.3750  141.5580 O   0  0  0  0  0  1  0  0  0  0  0  0
  184.1350  178.7700  141.4450 C   0  0  0  0  0  0  0  0  0  0  0  0
  182.0450  178.8570  142.6970 C   0  0  0  0  0  3  0  0  0  0  0  0
  183.4300  179.0940  140.2750 C   0  0  0  0  0  3  0  0  0  0  0  0
  186.3350  178.7490  140.1690 C   0  0  0  0  0  2  0  0  0  0  0  0
  185.5260  178.5590  141.4270 C   0  0  0  0  0  0  0  0  0  0  0  0
  185.4900  178.1410  143.8240 C   0  0  0  0  0  3  0  0  0  0  0  0
  187.6640  178.0400  142.5870 C   0  0  0  0  0  0  0  0  0  0  0  0
  188.2690  177.9000  141.4430 N   0  0  0  0  0  0  0  0  0  0  0  0
  184.1090  178.3410  143.8440 C   0  0  0  0  0  3  0  0  0  0  0  0
  191.5990  177.6240  145.5170 C   0  0  2  0  0  3  0  0  0  0  0  0
  191.1270  176.3160  146.1260 C   0  0  1  0  0  3  0  0  0  0  0  0
  190.2830  176.4930  143.7970 C   0  0  0  0  0  2  0  0  0  0  0  0
  190.4050  178.4850  145.1450 C   0  0  0  0  0  2  0  0  0  0  0  0
  189.8700  177.9460  143.8370 C   0  0  2  0  0  3  0  0  0  0  0  0
  191.5240  176.3690  144.6640 C   0  0  1  0  0  3  0  0  0  0  0  0
  192.4020  176.4010  148.1270 O   0  0  0  0  0  1  0  0  0  0  0  0
  192.2570  175.7050  146.9280 C   0  0  0  0  0  2  0  0  0  0  0  0
  188.4730  178.1120  138.9970 C   0  0  1  0  0  3  0  0  0  0  0  0
  189.8450  177.5020  139.2320 C   0  0  0  0  0  1  0  0  0  0  0  0
  187.9120  177.5670  137.7680 N   0  0  0  0  0  2  0  0  0  0  0  0
  187.4850  178.3940  136.6850 C   0  0  0  0  0  0  0  0  0  0  0  0
  187.5380  179.6510  136.7750 O   0  0  0  0  0  0  0  0  0  0  0  0
  186.9250  177.7650  135.4580 C   0  0  0  0  0  2  0  0  0  0  0  0
  186.6240  176.3650  135.7160 N   0  0  0  0  0  0  0  0  0  0  0  0
  184.8410  175.9590  137.2790 C   0  0  2  0  0  3  0  0  0  0  0  0
  185.1800  176.2680  135.8690 C   0  0  2  0  0  3  0  0  0  0  0  0
  184.8370  174.9650  136.2840 O   0  0  0  0  0  0  0  0  0  0  0  0
  183.4100  176.3740  137.6160 C   0  0  1  0  0  0  0  0  0  0  0  0
  182.8390  175.8460  138.9120 C   0  0  0  0  0  2  0  0  0  0  0  0
  181.4500  177.0760  136.3770 C   0  0  0  0  0  2  0  0  0  0  0  0
  181.1280  175.7820  137.0970 C   0  0  0  0  0  2  0  0  0  0  0  0
  182.7290  177.5880  137.0010 C   0  0  0  0  0  2  0  0  0  0  0  0
  182.4460  175.2080  137.5850 C   0  0  1  0  0  3  0  0  0  0  0  0
  186.9740  175.6260  134.5100 C   0  0  0  0  0  2  0  0  0  0  0  0
  188.3700  174.2990  136.4720 S   0  0  0  0  0  1  0  0  0  0  0  0
  188.2400  174.8130  134.7340 C   0  0  0  0  0  2  0  0  0  0  0  0
  2  7  1  0  0  0  0
  2  9  1  0  0  0  0
  3 13  1  0  0  0  0
  4 25  1  6  0  0  0
  4 15  1  0  0  0  0
  5  9  2  0  0  0  0
  5 16  1  0  0  0  0
  6  2  2  0  0  0  0
  8  5  1  0  0  0  0
 10  6  1  0  0  0  0
 10  8  2  0  0  0  0
 11  4  1  0  0  0  0
 11 12  1  0  0  0  0
 12  8  1  0  0  0  0
 12  3  2  0  0  0  0
 13 16  2  0  0  0  0
 14  3  1  0  0  0  0
 14  1  1  0  0  0  0
 15 14  2  0  0  0  0
 17 20  1  6  0  0  0
 17 18  1  0  0  0  0
 18 24  1  1  0  0  0
 19 21  1  0  0  0  0
 21  1  1  1  0  0  0
 21 20  1  0  0  0  0
 22 19  1  6  0  0  0
 22 17  1  0  0  0  0
 22 18  1  0  0  0  0
 24 23  1  0  0  0  0
 25 26  1  1  0  0  0
 27 25  1  0  0  0  0
 28 29  2  0  0  0  0
 28 27  1  0  0  0  0
 30 31  1  0  0  0  0
 30 28  1  0  0  0  0
 32 34  1  6  0  0  0
 32 35  1  0  0  0  0
 33 31  1  1  0  0  0
 33 34  1  0  0  0  0
 33 32  1  0  0  0  0
 35 39  1  6  0  0  0
 35 36  1  0  0  0  0
 37 39  1  0  0  0  0
 37 38  1  0  0  0  0
 40 38  1  6  0  0  0
 40 35  1  0  0  0  0
 40 36  1  0  0  0  0
 41 43  1  0  0  0  0
 41 31  1  0  0  0  0
 43 42  1  0  0  0  0
M  END
>  <MODEL>
4

>  <REMARK>
 VINA RESULT:      -7.8      2.199      6.342
  Name = 
  10 active torsions:
  status: ('A' for Active; 'I' for Inactive)
    1  A    between atoms: N_1  and  C_35
    2  A    between atoms: C_2  and  N_6
    3  A    between atoms: C_2  and  C_13
    4  A    between atoms: C_3  and  N_4
    5  A    between atoms: C_3  and  C_12
    6  A    between atoms: N_4  and  C_15
    7  A    between atoms: N_4  and  C_22
    8  A    between atoms: C_11  and  C_14
    9  A    between atoms: C_15  and  C_42
   10  A    between atoms: C_19  and  C_37
                            x       y       z     vdW  Elec       q    Type
                         _______ _______ _______ _____ _____    ______ ____

>  <TORSDO>
F 10

$$$$
=
 OpenBabel10272414173D

 43 50  0  0  1  0  0  0  0  0999 V2000
  188.2090  178.2700  145.9080 N   0  0  0  0  0  2  0  0  0  0  0  0
  181.4340  179.0140  142.7620 C   0  0  0  0  0  0  0  0  0  0  0  0
  186.1280  178.2810  144.4870 C   0  0  0  0  0  0  0  0  0  0  0  0
  187.7110  177.4780  142.2800 C   0  0  2  0  0  3  0  0  0  0  0  0
  183.3700  178.6780  144.1790 C   0  0  0  0  0  0  0  0  0  0  0  0
  182.2480  178.9510  141.6280 C   0  0  0  0  0  3  0  0  0  0  0  0
  180.0670  179.2120  142.6230 O   0  0  0  0  0  1  0  0  0  0  0  0
  184.2010  178.6110  143.0340 C   0  0  0  0  0  0  0  0  0  0  0  0
  181.9940  178.8790  144.0350 C   0  0  0  0  0  3  0  0  0  0  0  0
  183.6240  178.7510  141.7620 C   0  0  0  0  0  3  0  0  0  0  0  0
  186.5200  178.4050  142.0110 C   0  0  0  0  0  2  0  0  0  0  0  0
  185.5840  178.4050  143.1930 C   0  0  0  0  0  0  0  0  0  0  0  0
  185.2960  178.3550  145.6080 C   0  0  0  0  0  3  0  0  0  0  0  0
  187.5850  178.0760  144.6330 C   0  0  0  0  0  0  0  0  0  0  0  0
  188.3020  177.7660  143.5920 N   0  0  0  0  0  0  0  0  0  0  0  0
  183.9220  178.5510  145.4550 C   0  0  0  0  0  3  0  0  0  0  0  0
  191.3600  176.4550  145.9820 C   0  0  2  0  0  3  0  0  0  0  0  0
  191.1550  175.9890  144.5520 C   0  0  1  0  0  3  0  0  0  0  0  0
  190.3570  178.3300  144.7780 C   0  0  0  0  0  2  0  0  0  0  0  0
  190.0230  176.8040  146.6110 C   0  0  0  0  0  2  0  0  0  0  0  0
  189.6490  178.1800  146.1040 C   0  0  2  0  0  3  0  0  0  0  0  0
  191.5720  177.4200  144.8280 C   0  0  1  0  0  3  0  0  0  0  0  0
  192.3800  173.9680  144.7740 O   0  0  0  0  0  1  0  0  0  0  0  0
  192.3650  175.1930  144.1100 C   0  0  0  0  0  2  0  0  0  0  0  0
  188.7600  177.6050  141.1770 C   0  0  1  0  0  3  0  0  0  0  0  0
  189.9460  176.6990  141.4630 C   0  0  0  0  0  1  0  0  0  0  0  0
  188.1750  177.2370  139.8940 N   0  0  0  0  0  2  0  0  0  0  0  0
  188.3250  178.0390  138.7230 C   0  0  0  0  0  0  0  0  0  0  0  0
  188.9420  179.1380  138.7690 O   0  0  0  0  0  0  0  0  0  0  0  0
  187.7020  177.5960  137.4460 C   0  0  0  0  0  2  0  0  0  0  0  0
  188.3310  176.3650  136.9920 N   0  0  0  0  0  0  0  0  0  0  0  0
  186.8910  174.4440  137.1460 C   0  0  2  0  0  3  0  0  0  0  0  0
  187.3010  175.5970  136.3080 C   0  0  2  0  0  3  0  0  0  0  0  0
  187.7740  174.2910  136.0610 O   0  0  0  0  0  0  0  0  0  0  0  0
  185.4990  173.9410  136.7670 C   0  0  1  0  0  0  0  0  0  0  0  0
  184.3720  174.2960  137.7090 C   0  0  0  0  0  2  0  0  0  0  0  0
  184.5890  172.1210  135.4520 C   0  0  0  0  0  2  0  0  0  0  0  0
  184.1400  171.9500  136.8900 C   0  0  0  0  0  2  0  0  0  0  0  0
  185.1190  173.5340  135.3510 C   0  0  0  0  0  2  0  0  0  0  0  0
  184.9770  172.8980  137.7300 C   0  0  1  0  0  3  0  0  0  0  0  0
  189.3200  176.7370  135.9890 C   0  0  0  0  0  2  0  0  0  0  0  0
  190.8130  175.2530  137.7560 S   0  0  0  0  0  1  0  0  0  0  0  0
  190.7250  176.6170  136.5580 C   0  0  0  0  0  2  0  0  0  0  0  0
  2  9  1  0  0  0  0
  3 14  1  0  0  0  0
  3 13  1  0  0  0  0
  4 25  1  6  0  0  0
  4 15  1  0  0  0  0
  5 16  1  0  0  0  0
  6 10  1  0  0  0  0
  6  2  2  0  0  0  0
  7  2  1  0  0  0  0
  8 12  1  0  0  0  0
  8  5  1  0  0  0  0
  9  5  2  0  0  0  0
 10  8  2  0  0  0  0
 11  4  1  0  0  0  0
 11 12  1  0  0  0  0
 12  3  2  0  0  0  0
 14  1  1  0  0  0  0
 15 14  2  0  0  0  0
 16 13  2  0  0  0  0
 17 20  1  1  0  0  0
 18 24  1  6  0  0  0
 18 22  1  0  0  0  0
 18 17  1  0  0  0  0
 19 21  1  0  0  0  0
 21  1  1  6  0  0  0
 21 20  1  0  0  0  0
 22 19  1  1  0  0  0
 22 17  1  0  0  0  0
 24 23  1  0  0  0  0
 25 26  1  1  0  0  0
 27 25  1  0  0  0  0
 28 29  2  0  0  0  0
 28 27  1  0  0  0  0
 30 28  1  0  0  0  0
 31 30  1  0  0  0  0
 32 34  1  6  0  0  0
 33 31  1  1  0  0  0
 33 32  1  0  0  0  0
 34 33  1  0  0  0  0
 35 39  1  6  0  0  0
 35 32  1  0  0  0  0
 35 36  1  0  0  0  0
 35 40  1  0  0  0  0
 36 40  1  0  0  0  0
 37 38  1  0  0  0  0
 39 37  1  0  0  0  0
 40 38  1  6  0  0  0
 41 43  1  0  0  0  0
 41 31  1  0  0  0  0
 43 42  1  0  0  0  0
M  END
>  <MODEL>
5

>  <REMARK>
 VINA RESULT:      -7.8      2.449      5.850
  Name = 
  10 active torsions:
  status: ('A' for Active; 'I' for Inactive)
    1  A    between atoms: N_1  and  C_35
    2  A    between atoms: C_2  and  N_6
    3  A    between atoms: C_2  and  C_13
    4  A    between atoms: C_3  and  N_4
    5  A    between atoms: C_3  and  C_12
    6  A    between atoms: N_4  and  C_15
    7  A    between atoms: N_4  and  C_22
    8  A    between atoms: C_11  and  C_14
    9  A    between atoms: C_15  and  C_42
   10  A    between atoms: C_19  and  C_37
                            x       y       z     vdW  Elec       q    Type
                         _______ _______ _______ _____ _____    ______ ____

>  <TORSDO>
F 10

$$$$
=
 OpenBabel10272414173D

 43 50  0  0  1  0  0  0  0  0999 V2000
  185.1170  178.4120  142.2680 N   0  0  0  0  0  2  0  0  0  0  0  0
  190.8130  176.5680  146.7970 C   0  0  0  0  0  0  0  0  0  0  0  0
  187.3020  177.9920  143.4510 C   0  0  0  0  0  0  0  0  0  0  0  0
  188.6510  178.6020  141.0370 C   0  0  2  0  0  3  0  0  0  0  0  0
  188.7540  177.2940  145.7450 C   0  0  0  0  0  0  0  0  0  0  0  0
  191.4440  176.5370  145.5510 C   0  0  0  0  0  3  0  0  0  0  0  0
  191.5200  176.2230  147.9400 O   0  0  0  0  0  1  0  0  0  0  0  0
  189.3880  177.2670  144.4790 C   0  0  0  0  0  0  0  0  0  0  0  0
  189.4700  176.9440  146.8940 C   0  0  0  0  0  3  0  0  0  0  0  0
  190.7360  176.8850  144.3980 C   0  0  0  0  0  3  0  0  0  0  0  0
  189.2640  177.5370  141.9530 C   0  0  0  0  0  2  0  0  0  0  0  0
  188.6570  177.6250  143.3310 C   0  0  0  0  0  0  0  0  0  0  0  0
  186.6880  178.0080  144.7080 C   0  0  0  0  0  3  0  0  0  0  0  0
  186.5480  178.3540  142.2330 C   0  0  0  0  0  0  0  0  0  0  0  0
  187.1860  178.5710  141.1180 N   0  0  0  0  0  0  0  0  0  0  0  0
  187.4120  177.6620  145.8500 C   0  0  0  0  0  3  0  0  0  0  0  0
  182.4370  177.6100  139.9450 C   0  0  2  0  0  3  0  0  0  0  0  0
  181.4290  177.5750  141.0790 C   0  0  1  0  0  3  0  0  0  0  0  0
  183.0520  179.4120  141.4750 C   0  0  0  0  0  2  0  0  0  0  0  0
  183.8340  177.3610  140.4840 C   0  0  0  0  0  2  0  0  0  0  0  0
  184.3070  178.6670  141.0860 C   0  0  2  0  0  3  0  0  0  0  0  0
  181.9450  178.9050  140.5670 C   0  0  1  0  0  3  0  0  0  0  0  0
  179.9820  176.0210  140.0170 O   0  0  0  0  0  1  0  0  0  0  0  0
  180.0490  177.3230  140.5090 C   0  0  0  0  0  2  0  0  0  0  0  0
  189.1150  178.4120  139.5950 C   0  0  1  0  0  3  0  0  0  0  0  0
  189.9690  177.1610  139.4700 C   0  0  0  0  0  1  0  0  0  0  0  0
  187.9590  178.2910  138.7160 N   0  0  0  0  0  2  0  0  0  0  0  0
  187.9300  178.8510  137.4030 C   0  0  0  0  0  0  0  0  0  0  0  0
  188.9050  179.5220  136.9670 O   0  0  0  0  0  0  0  0  0  0  0  0
  186.7150  178.6840  136.5610 C   0  0  0  0  0  2  0  0  0  0  0  0
  186.7410  177.3820  135.9120 N   0  0  0  0  0  0  0  0  0  0  0  0
  185.1390  175.6890  136.5120 C   0  0  2  0  0  3  0  0  0  0  0  0
  185.3560  176.9560  135.7710 C   0  0  2  0  0  3  0  0  0  0  0  0
  185.3110  175.7080  135.1160 O   0  0  0  0  0  0  0  0  0  0  0  0
  183.6650  175.4870  136.8590 C   0  0  1  0  0  0  0  0  0  0  0  0
  183.3660  174.6570  138.0860 C   0  0  0  0  0  2  0  0  0  0  0  0
  181.5630  175.4980  135.6550 C   0  0  0  0  0  2  0  0  0  0  0  0
  181.7770  174.1160  136.2400 C   0  0  0  0  0  2  0  0  0  0  0  0
  182.5580  176.4000  136.3510 C   0  0  0  0  0  2  0  0  0  0  0  0
  183.2230  174.0490  136.6970 C   0  0  1  0  0  3  0  0  0  0  0  0
  187.2600  177.5870  134.5660 C   0  0  0  0  0  2  0  0  0  0  0  0
  188.9110  175.7960  135.8410 S   0  0  0  0  0  1  0  0  0  0  0  0
  188.5100  176.7490  134.3460 C   0  0  0  0  0  2  0  0  0  0  0  0
  2  9  1  0  0  0  0
  2  7  1  0  0  0  0
  3 13  1  0  0  0  0
  4 25  1  6  0  0  0
  4 15  1  0  0  0  0
  4 11  1  0  0  0  0
  5 16  1  0  0  0  0
  5  9  2  0  0  0  0
  6  2  2  0  0  0  0
  8  5  1  0  0  0  0
 10  8  2  0  0  0  0
 10  6  1  0  0  0  0
 11 12  1  0  0  0  0
 12  3  2  0  0  0  0
 12  8  1  0  0  0  0
 13 16  2  0  0  0  0
 14  1  1  0  0  0  0
 14  3  1  0  0  0  0
 15 14  2  0  0  0  0
 17 20  1  1  0  0  0
 17 22  1  0  0  0  0
 17 18  1  0  0  0  0
 18 24  1  6  0  0  0
 20 21  1  0  0  0  0
 21 19  1  0  0  0  0
 21  1  1  1  0  0  0
 22 18  1  0  0  0  0
 22 19  1  1  0  0  0
 23 24  1  0  0  0  0
 25 26  1  1  0  0  0
 27 25  1  0  0  0  0
 28 27  1  0  0  0  0
 29 28  2  0  0  0  0
 30 28  1  0  0  0  0
 31 30  1  0  0  0  0
 32 34  1  6  0  0  0
 32 35  1  0  0  0  0
 33 31  1  1  0  0  0
 33 32  1  0  0  0  0
 34 33  1  0  0  0  0
 35 39  1  6  0  0  0
 35 36  1  0  0  0  0
 37 38  1  0  0  0  0
 37 39  1  0  0  0  0
 40 38  1  6  0  0  0
 40 35  1  0  0  0  0
 40 36  1  0  0  0  0
 41 31  1  0  0  0  0
 43 41  1  0  0  0  0
 43 42  1  0  0  0  0
M  END
>  <MODEL>
6

>  <REMARK>
 VINA RESULT:      -7.5      1.800      2.272
  Name = 
  10 active torsions:
  status: ('A' for Active; 'I' for Inactive)
    1  A    between atoms: N_1  and  C_35
    2  A    between atoms: C_2  and  N_6
    3  A    between atoms: C_2  and  C_13
    4  A    between atoms: C_3  and  N_4
    5  A    between atoms: C_3  and  C_12
    6  A    between atoms: N_4  and  C_15
    7  A    between atoms: N_4  and  C_22
    8  A    between atoms: C_11  and  C_14
    9  A    between atoms: C_15  and  C_42
   10  A    between atoms: C_19  and  C_37
                            x       y       z     vdW  Elec       q    Type
                         _______ _______ _______ _____ _____    ______ ____

>  <TORSDO>
F 10

$$$$
=
 OpenBabel10272414173D

 43 50  0  0  1  0  0  0  0  0999 V2000
  190.9880  176.5460  139.6640 N   0  0  0  0  0  2  0  0  0  0  0  0
  186.3960  177.9680  145.4300 C   0  0  0  0  0  0  0  0  0  0  0  0
  189.1050  177.0330  141.2660 C   0  0  0  0  0  0  0  0  0  0  0  0
  187.4720  177.6840  139.0460 C   0  0  2  0  0  3  0  0  0  0  0  0
  188.0790  177.1900  143.8700 C   0  0  0  0  0  0  0  0  0  0  0  0
  185.7140  178.6000  144.3860 C   0  0  0  0  0  3  0  0  0  0  0  0
  185.8990  178.0400  146.7240 O   0  0  0  0  0  1  0  0  0  0  0  0
  187.3930  177.8260  142.8080 C   0  0  0  0  0  0  0  0  0  0  0  0
  187.5770  177.2670  145.1730 C   0  0  0  0  0  3  0  0  0  0  0  0
  186.2100  178.5290  143.0810 C   0  0  0  0  0  3  0  0  0  0  0  0
  187.2570  178.4620  140.3490 C   0  0  0  0  0  2  0  0  0  0  0  0
  187.9080  177.7390  141.5000 C   0  0  0  0  0  0  0  0  0  0  0  0
  189.7750  176.4150  142.3280 C   0  0  0  0  0  3  0  0  0  0  0  0
  189.6360  176.9620  139.8890 C   0  0  0  0  0  0  0  0  0  0  0  0
  188.8860  177.3240  138.8870 N   0  0  0  0  0  0  0  0  0  0  0  0
  189.2630  176.4920  143.6240 C   0  0  0  0  0  3  0  0  0  0  0  0
  193.6840  175.7660  137.3520 C   0  0  2  0  0  3  0  0  0  0  0  0
  193.6140  174.2960  137.7240 C   0  0  1  0  0  3  0  0  0  0  0  0
  191.3170  175.2370  137.6470 C   0  0  0  0  0  2  0  0  0  0  0  0
  193.1120  176.6140  138.4730 C   0  0  0  0  0  2  0  0  0  0  0  0
  191.6060  176.5450  138.3460 C   0  0  2  0  0  3  0  0  0  0  0  0
  192.5510  174.9000  136.8280 C   0  0  1  0  0  3  0  0  0  0  0  0
  195.7800  174.2530  136.7530 O   0  0  0  0  0  1  0  0  0  0  0  0
  194.6000  173.5210  136.8770 C   0  0  0  0  0  2  0  0  0  0  0  0
  186.9830  178.4880  137.8440 C   0  0  1  0  0  3  0  0  0  0  0  0
  187.9910  178.4170  136.7090 C   0  0  0  0  0  1  0  0  0  0  0  0
  185.7060  177.9600  137.3820 N   0  0  0  0  0  2  0  0  0  0  0  0
  185.5570  176.6280  136.8920 C   0  0  0  0  0  0  0  0  0  0  0  0
  186.5530  175.8600  136.7990 O   0  0  0  0  0  0  0  0  0  0  0  0
  184.2190  176.1580  136.4410 C   0  0  0  0  0  2  0  0  0  0  0  0
  183.5670  175.4230  137.5150 N   0  0  0  0  0  0  0  0  0  0  0  0
  182.9770  176.4760  139.5960 C   0  0  2  0  0  3  0  0  0  0  0  0
  182.6450  176.3490  138.1560 C   0  0  2  0  0  3  0  0  0  0  0  0
  181.9130  175.6710  139.1520 O   0  0  0  0  0  0  0  0  0  0  0  0
  182.4420  177.7810  140.1830 C   0  0  1  0  0  0  0  0  0  0  0  0
  183.3800  178.9660  140.1660 C   0  0  0  0  0  2  0  0  0  0  0  0
  180.7580  178.4130  141.8060 C   0  0  0  0  0  2  0  0  0  0  0  0
  182.1120  178.8690  142.3130 C   0  0  0  0  0  2  0  0  0  0  0  0
  180.9570  178.0720  140.3460 C   0  0  0  0  0  2  0  0  0  0  0  0
  183.1590  178.1830  141.4530 C   0  0  1  0  0  3  0  0  0  0  0  0
  182.7580  174.3840  136.8900 C   0  0  0  0  0  2  0  0  0  0  0  0
  184.8530  172.8060  137.7150 S   0  0  0  0  0  1  0  0  0  0  0  0
  183.6370  173.2310  136.4320 C   0  0  0  0  0  2  0  0  0  0  0  0
  1 14  1  0  0  0  0
  2  7  1  0  0  0  0
  3 12  2  0  0  0  0
  3 13  1  0  0  0  0
  4 25  1  6  0  0  0
  4 11  1  0  0  0  0
  5  9  2  0  0  0  0
  6  2  2  0  0  0  0
  8 10  2  0  0  0  0
  8  5  1  0  0  0  0
  9  2  1  0  0  0  0
 10  6  1  0  0  0  0
 11 12  1  0  0  0  0
 12  8  1  0  0  0  0
 13 16  2  0  0  0  0
 14  3  1  0  0  0  0
 15  4  1  0  0  0  0
 15 14  2  0  0  0  0
 16  5  1  0  0  0  0
 17 18  1  0  0  0  0
 17 20  1  1  0  0  0
 18 24  1  6  0  0  0
 19 21  1  0  0  0  0
 21 20  1  0  0  0  0
 21  1  1  1  0  0  0
 22 17  1  0  0  0  0
 22 19  1  1  0  0  0
 22 18  1  0  0  0  0
 23 24  1  0  0  0  0
 25 26  1  6  0  0  0
 27 25  1  0  0  0  0
 28 27  1  0  0  0  0
 29 28  2  0  0  0  0
 30 28  1  0  0  0  0
 30 31  1  0  0  0  0
 32 34  1  1  0  0  0
 32 35  1  0  0  0  0
 33 31  1  6  0  0  0
 33 34  1  0  0  0  0
 33 32  1  0  0  0  0
 35 36  1  6  0  0  0
 35 39  1  0  0  0  0
 35 40  1  0  0  0  0
 37 38  1  0  0  0  0
 39 37  1  0  0  0  0
 40 36  1  6  0  0  0
 40 38  1  0  0  0  0
 41 31  1  0  0  0  0
 43 41  1  0  0  0  0
 43 42  1  0  0  0  0
M  END
>  <MODEL>
7

>  <REMARK>
 VINA RESULT:      -7.5      2.923      6.640
  Name = 
  10 active torsions:
  status: ('A' for Active; 'I' for Inactive)
    1  A    between atoms: N_1  and  C_35
    2  A    between atoms: C_2  and  N_6
    3  A    between atoms: C_2  and  C_13
    4  A    between atoms: C_3  and  N_4
    5  A    between atoms: C_3  and  C_12
    6  A    between atoms: N_4  and  C_15
    7  A    between atoms: N_4  and  C_22
    8  A    between atoms: C_11  and  C_14
    9  A    between atoms: C_15  and  C_42
   10  A    between atoms: C_19  and  C_37
                            x       y       z     vdW  Elec       q    Type
                         _______ _______ _______ _____ _____    ______ ____

>  <TORSDO>
F 10

$$$$
=
 OpenBabel10272414173D

 43 50  0  0  1  0  0  0  0  0999 V2000
  188.0120  178.1520  146.1360 N   0  0  0  0  0  2  0  0  0  0  0  0
  181.3470  179.0270  142.7940 C   0  0  0  0  0  0  0  0  0  0  0  0
  185.9840  178.2320  144.6420 C   0  0  0  0  0  0  0  0  0  0  0  0
  187.6550  177.5860  142.4490 C   0  0  2  0  0  3  0  0  0  0  0  0
  183.2340  178.6210  144.2580 C   0  0  0  0  0  0  0  0  0  0  0  0
  182.2020  179.0440  141.6890 C   0  0  0  0  0  3  0  0  0  0  0  0
  179.9830  179.2200  142.6180 O   0  0  0  0  0  1  0  0  0  0  0  0
  184.1060  178.6350  143.1430 C   0  0  0  0  0  0  0  0  0  0  0  0
  181.8620  178.8180  144.0760 C   0  0  0  0  0  3  0  0  0  0  0  0
  183.5740  178.8500  141.8620 C   0  0  0  0  0  3  0  0  0  0  0  0
  186.4630  178.5160  142.1950 C   0  0  0  0  0  2  0  0  0  0  0  0
  185.4850  178.4330  143.3390 C   0  0  0  0  0  0  0  0  0  0  0  0
  185.1100  178.2270  145.7340 C   0  0  0  0  0  3  0  0  0  0  0  0
  187.4360  178.0320  144.8290 C   0  0  0  0  0  0  0  0  0  0  0  0
  188.1950  177.7960  143.7970 N   0  0  0  0  0  0  0  0  0  0  0  0
  183.7410  178.4190  145.5430 C   0  0  0  0  0  3  0  0  0  0  0  0
  191.1900  176.3850  146.1510 C   0  0  2  0  0  3  0  0  0  0  0  0
  191.0490  176.0630  144.6750 C   0  0  1  0  0  3  0  0  0  0  0  0
  190.1990  178.3570  145.1030 C   0  0  0  0  0  2  0  0  0  0  0  0
  189.8250  176.6490  146.7590 C   0  0  0  0  0  2  0  0  0  0  0  0
  189.4440  178.0630  146.3790 C   0  0  2  0  0  3  0  0  0  0  0  0
  191.4280  177.4650  145.1100 C   0  0  1  0  0  3  0  0  0  0  0  0
  192.5770  174.2930  145.0860 O   0  0  0  0  0  1  0  0  0  0  0  0
  192.2890  175.3340  144.2040 C   0  0  0  0  0  2  0  0  0  0  0  0
  188.7410  177.7930  141.3950 C   0  0  1  0  0  3  0  0  0  0  0  0
  189.5780  176.5330  141.2380 C   0  0  0  0  0  1  0  0  0  0  0  0
  188.1320  178.1240  140.1150 N   0  0  0  0  0  2  0  0  0  0  0  0
  188.8980  178.3220  138.9260 C   0  0  0  0  0  0  0  0  0  0  0  0
  190.1570  178.2590  138.9540 O   0  0  0  0  0  0  0  0  0  0  0  0
  188.2040  178.6550  137.6530 C   0  0  0  0  0  2  0  0  0  0  0  0
  187.7670  177.4330  136.9960 N   0  0  0  0  0  0  0  0  0  0  0  0
  185.4950  176.7200  137.3440 C   0  0  2  0  0  3  0  0  0  0  0  0
  186.3830  177.6440  136.5970 C   0  0  2  0  0  3  0  0  0  0  0  0
  185.8750  176.4640  136.0150 O   0  0  0  0  0  0  0  0  0  0  0  0
  184.0580  177.2380  137.3920 C   0  0  1  0  0  0  0  0  0  0  0  0
  183.7940  178.4210  138.2940 C   0  0  0  0  0  2  0  0  0  0  0  0
  181.8510  176.3220  136.9950 C   0  0  0  0  0  2  0  0  0  0  0  0
  181.9390  176.7580  138.4440 C   0  0  0  0  0  2  0  0  0  0  0  0
  183.0360  176.9540  136.3000 C   0  0  0  0  0  2  0  0  0  0  0  0
  183.4060  177.0160  138.7390 C   0  0  1  0  0  3  0  0  0  0  0  0
  188.5460  177.3040  135.7720 C   0  0  0  0  0  2  0  0  0  0  0  0
  188.9970  174.8790  136.9860 S   0  0  0  0  0  1  0  0  0  0  0  0
  189.6070  176.2260  135.9290 C   0  0  0  0  0  2  0  0  0  0  0  0
  2  9  1  0  0  0  0
  3 14  1  0  0  0  0
  3 13  1  0  0  0  0
  4 25  1  6  0  0  0
  4 15  1  0  0  0  0
  5 16  1  0  0  0  0
  6 10  1  0  0  0  0
  6  2  2  0  0  0  0
  7  2  1  0  0  0  0
  8 12  1  0  0  0  0
  8  5  1  0  0  0  0
  9  5  2  0  0  0  0
 10  8  2  0  0  0  0
 11  4  1  0  0  0  0
 11 12  1  0  0  0  0
 12  3  2  0  0  0  0
 14  1  1  0  0  0  0
 15 14  2  0  0  0  0
 16 13  2  0  0  0  0
 17 20  1  1  0  0  0
 18 24  1  6  0  0  0
 18 22  1  0  0  0  0
 18 17  1  0  0  0  0
 19 21  1  0  0  0  0
 21  1  1  6  0  0  0
 21 20  1  0  0  0  0
 22 19  1  1  0  0  0
 22 17  1  0  0  0  0
 24 23  1  0  0  0  0
 25 26  1  6  0  0  0
 27 25  1  0  0  0  0
 28 29  2  0  0  0  0
 28 27  1  0  0  0  0
 30 28  1  0  0  0  0
 31 30  1  0  0  0  0
 32 34  1  6  0  0  0
 32 35  1  0  0  0  0
 33 31  1  1  0  0  0
 33 32  1  0  0  0  0
 34 33  1  0  0  0  0
 35 39  1  6  0  0  0
 35 36  1  0  0  0  0
 35 40  1  0  0  0  0
 37 38  1  0  0  0  0
 38 40  1  0  0  0  0
 39 37  1  0  0  0  0
 40 36  1  1  0  0  0
 41 43  1  0  0  0  0
 41 31  1  0  0  0  0
 43 42  1  0  0  0  0
M  END
>  <MODEL>
8

>  <REMARK>
 VINA RESULT:      -7.4      2.518      6.165
  Name = 
  10 active torsions:
  status: ('A' for Active; 'I' for Inactive)
    1  A    between atoms: N_1  and  C_35
    2  A    between atoms: C_2  and  N_6
    3  A    between atoms: C_2  and  C_13
    4  A    between atoms: C_3  and  N_4
    5  A    between atoms: C_3  and  C_12
    6  A    between atoms: N_4  and  C_15
    7  A    between atoms: N_4  and  C_22
    8  A    between atoms: C_11  and  C_14
    9  A    between atoms: C_15  and  C_42
   10  A    between atoms: C_19  and  C_37
                            x       y       z     vdW  Elec       q    Type
                         _______ _______ _______ _____ _____    ______ ____

>  <TORSDO>
F 10

$$$$
=
 OpenBabel10272414173D

 43 50  0  0  1  0  0  0  0  0999 V2000
  184.4050  178.4350  142.1140 N   0  0  0  0  0  2  0  0  0  0  0  0
  190.7930  176.9190  145.7540 C   0  0  0  0  0  0  0  0  0  0  0  0
  186.7600  178.1180  142.9520 C   0  0  0  0  0  0  0  0  0  0  0  0
  187.6940  178.6590  140.3350 C   0  0  2  0  0  3  0  0  0  0  0  0
  188.5740  177.5510  145.0130 C   0  0  0  0  0  0  0  0  0  0  0  0
  191.2220  176.8520  144.4250 C   0  0  0  0  0  3  0  0  0  0  0  0
  191.6810  176.6390  146.7830 O   0  0  0  0  0  1  0  0  0  0  0  0
  189.0020  177.4870  143.6650 C   0  0  0  0  0  0  0  0  0  0  0  0
  189.4710  177.2660  146.0470 C   0  0  0  0  0  3  0  0  0  0  0  0
  190.3320  177.1340  143.3860 C   0  0  0  0  0  3  0  0  0  0  0  0
  188.4750  177.6490  141.1820 C   0  0  0  0  0  2  0  0  0  0  0  0
  188.0900  177.7780  142.6330 C   0  0  0  0  0  0  0  0  0  0  0  0
  186.3500  178.1710  144.2890 C   0  0  0  0  0  3  0  0  0  0  0  0
  185.8130  178.4100  141.8550 C   0  0  0  0  0  0  0  0  0  0  0  0
  186.2620  178.5960  140.6470 N   0  0  0  0  0  0  0  0  0  0  0  0
  187.2540  177.8910  145.3150 C   0  0  0  0  0  3  0  0  0  0  0  0
  183.3810  178.7040  138.6350 C   0  0  2  0  0  3  0  0  0  0  0  0
  183.9960  177.3510  138.3230 C   0  0  1  0  0  3  0  0  0  0  0  0
  182.9360  177.2770  140.5670 C   0  0  0  0  0  2  0  0  0  0  0  0
  184.0370  179.3010  139.8670 C   0  0  0  0  0  2  0  0  0  0  0  0
  183.4120  178.6210  141.0660 C   0  0  2  0  0  3  0  0  0  0  0  0
  182.6840  177.4290  139.0780 C   0  0  1  0  0  3  0  0  0  0  0  0
  182.5430  177.6270  136.4660 O   0  0  0  0  0  1  0  0  0  0  0  0
  183.7200  177.0020  136.8760 C   0  0  0  0  0  2  0  0  0  0  0  0
  187.9320  178.4200  138.8450 C   0  0  1  0  0  3  0  0  0  0  0  0
  189.3570  178.7880  138.4670 C   0  0  0  0  0  1  0  0  0  0  0  0
  187.6990  177.0180  138.5260 N   0  0  0  0  0  2  0  0  0  0  0  0
  187.3240  176.5790  137.2210 C   0  0  0  0  0  0  0  0  0  0  0  0
  187.1340  177.4090  136.2910 O   0  0  0  0  0  0  0  0  0  0  0  0
  187.1070  175.1280  136.9690 C   0  0  0  0  0  2  0  0  0  0  0  0
  188.0270  174.6630  135.9420 N   0  0  0  0  0  0  0  0  0  0  0  0
  190.3820  175.0750  136.2150 C   0  0  2  0  0  3  0  0  0  0  0  0
  189.2350  174.2290  136.6270 C   0  0  2  0  0  3  0  0  0  0  0  0
  190.1830  173.7900  135.6790 O   0  0  0  0  0  0  0  0  0  0  0  0
  191.5030  175.0450  137.2530 C   0  0  1  0  0  0  0  0  0  0  0  0
  191.2760  175.8420  138.5180 C   0  0  0  0  0  2  0  0  0  0  0  0
  193.8970  174.6720  137.2380 C   0  0  0  0  0  2  0  0  0  0  0  0
  193.6310  176.0820  137.7270 C   0  0  0  0  0  2  0  0  0  0  0  0
  192.5650  173.9570  137.2990 C   0  0  0  0  0  2  0  0  0  0  0  0
  192.1770  176.3900  137.4180 C   0  0  1  0  0  3  0  0  0  0  0  0
  187.4310  173.4780  135.3400 C   0  0  0  0  0  2  0  0  0  0  0  0
  185.1480  172.0980  136.0040 S   0  0  0  0  0  1  0  0  0  0  0  0
  186.8540  172.5700  136.4150 C   0  0  0  0  0  2  0  0  0  0  0  0
  2  9  1  0  0  0  0
  2  7  1  0  0  0  0
  3 13  1  0  0  0  0
  4 25  1  6  0  0  0
  4 15  1  0  0  0  0
  4 11  1  0  0  0  0
  5 16  1  0  0  0  0
  5  9  2  0  0  0  0
  6  2  2  0  0  0  0
  8  5  1  0  0  0  0
 10  8  2  0  0  0  0
 10  6  1  0  0  0  0
 11 12  1  0  0  0  0
 12  3  2  0  0  0  0
 12  8  1  0  0  0  0
 13 16  2  0  0  0  0
 14  1  1  0  0  0  0
 14  3  1  0  0  0  0
 15 14  2  0  0  0  0
 17 22  1  0  0  0  0
 17 20  1  1  0  0  0
 18 24  1  6  0  0  0
 18 17  1  0  0  0  0
 18 22  1  0  0  0  0
 19 21  1  0  0  0  0
 20 21  1  0  0  0  0
 21  1  1  1  0  0  0
 22 19  1  1  0  0  0
 23 24  1  0  0  0  0
 25 26  1  1  0  0  0
 27 25  1  0  0  0  0
 28 27  1  0  0  0  0
 29 28  2  0  0  0  0
 30 28  1  0  0  0  0
 31 30  1  0  0  0  0
 32 34  1  6  0  0  0
 32 33  1  0  0  0  0
 32 35  1  0  0  0  0
 33 31  1  6  0  0  0
 34 33  1  0  0  0  0
 35 39  1  1  0  0  0
 35 40  1  0  0  0  0
 35 36  1  0  0  0  0
 37 39  1  0  0  0  0
 37 38  1  0  0  0  0
 40 38  1  1  0  0  0
 40 36  1  0  0  0  0
 41 31  1  0  0  0  0
 41 43  1  0  0  0  0
 42 43  1  0  0  0  0
M  END
>  <MODEL>
9

>  <REMARK>
 VINA RESULT:      -7.3      2.301      4.089
  Name = 
  10 active torsions:
  status: ('A' for Active; 'I' for Inactive)
    1  A    between atoms: N_1  and  C_35
    2  A    between atoms: C_2  and  N_6
    3  A    between atoms: C_2  and  C_13
    4  A    between atoms: C_3  and  N_4
    5  A    between atoms: C_3  and  C_12
    6  A    between atoms: N_4  and  C_15
    7  A    between atoms: N_4  and  C_22
    8  A    between atoms: C_11  and  C_14
    9  A    between atoms: C_15  and  C_42
   10  A    between atoms: C_19  and  C_37
                            x       y       z     vdW  Elec       q    Type
                         _______ _______ _______ _____ _____    ______ ____

>  <TORSDO>
F 10

$$$$
