=
 OpenBabel10272413233D

 32 36  0  0  1  0  0  0  0  0999 V2000
  187.0160  177.8410  144.0630 C   0  0  0  0  0  0  0  0  0  0  0  0
  187.3640  178.1540  148.8950 C   0  0  0  0  0  2  0  0  0  0  0  0
  188.8810  178.0530  148.8480 C   0  0  0  0  0  2  0  0  0  0  0  0
  189.2380  177.6580  142.8470 C   0  0  1  0  0  3  0  0  0  0  0  0
  188.9830  176.5970  141.7670 C   0  0  0  0  0  2  0  0  0  0  0  0
  184.9110  178.2100  142.8420 C   0  0  0  0  0  0  0  0  0  0  0  0
  185.0720  178.6790  145.3780 C   0  0  0  0  0  2  0  0  0  0  0  0
  191.6670  176.7900  142.5760 C   0  0  0  0  0  2  0  0  0  0  0  0
  182.9950  178.5390  144.2270 O   0  0  0  0  0  0  0  0  0  0  0  0
  186.8620  178.8610  147.6440 C   0  0  0  0  0  2  0  0  0  0  0  0
  186.5000  178.1900  145.2600 C   0  0  0  0  0  0  0  0  0  0  0  0
  187.3430  178.1820  146.4380 N   0  0  0  0  0  0  0  0  0  0  0  0
  189.0990  176.9740  145.1690 C   0  0  2  0  0  3  0  0  0  0  0  0
  191.9560  177.3070  141.1580 C   0  0  0  0  0  2  0  0  0  0  0  0
  184.2500  178.4730  144.1400 C   0  0  0  0  0  0  0  0  0  0  0  0
  190.7500  177.9170  140.4390 C   0  0  0  0  0  2  0  0  0  0  0  0
  189.2940  177.2420  147.6290 C   0  0  0  0  0  2  0  0  0  0  0  0
  188.7910  177.9010  146.3420 C   0  0  2  0  0  3  0  0  0  0  0  0
  190.5760  177.0230  144.8000 C   0  0  0  0  0  2  0  0  0  0  0  0
  186.2070  177.9080  142.8300 C   0  0  0  0  0  3  0  0  0  0  0  0
  189.5280  176.9960  140.3900 C   0  0  0  0  0  2  0  0  0  0  0  0
  191.1850  179.0570  143.5480 C   0  0  0  0  0  1  0  0  0  0  0  0
  188.3790  177.4040  143.9880 N   0  0  0  0  0  0  0  0  0  0  0  0
  190.6770  177.6310  143.4040 C   0  0  2  0  0  0  0  0  0  0  0  0
  184.2330  178.2410  141.6160 O   0  0  0  0  0  0  0  0  0  0  0  0
  184.6220  179.0440  140.5070 C   0  0  0  0  0  2  0  0  0  0  0  0
  186.2170  178.2010  138.0070 C   0  0  0  0  0  0  0  0  0  0  0  0
  182.7520  178.4120  139.1910 O   0  0  0  0  0  0  0  0  0  0  0  0
  184.7880  178.1770  138.1020 N   0  0  0  0  0  2  0  0  0  0  0  0
  186.9350  178.5040  138.9960 O   0  0  0  0  0  0  0  0  0  0  0  0
  186.8660  177.8510  136.7160 C   0  0  0  0  0  1  0  0  0  0  0  0
  184.0030  178.5210  139.2510 C   0  0  0  0  0  0  0  0  0  0  0  0
  1 11  2  0  0  0  0
  3  2  1  0  0  0  0
  4  5  1  6  0  0  0
  4 24  1  0  0  0  0
  4 23  1  0  0  0  0
  6 15  1  0  0  0  0
  8 24  1  0  0  0  0
 10  2  1  0  0  0  0
 11  7  1  0  0  0  0
 11 12  1  0  0  0  0
 12 10  1  0  0  0  0
 13 19  1  6  0  0  0
 13 18  1  0  0  0  0
 14  8  1  0  0  0  0
 15  9  2  0  0  0  0
 15  7  1  0  0  0  0
 16 14  1  0  0  0  0
 17  3  1  0  0  0  0
 18 12  1  0  0  0  0
 18 17  1  1  0  0  0
 20  6  2  0  0  0  0
 20  1  1  0  0  0  0
 21 16  1  0  0  0  0
 21  5  1  0  0  0  0
 23  1  1  0  0  0  0
 23 13  1  0  0  0  0
 24 22  1  1  0  0  0
 24 19  1  0  0  0  0
 25  6  1  0  0  0  0
 26 25  1  0  0  0  0
 27 29  1  0  0  0  0
 27 30  2  0  0  0  0
 28 32  2  0  0  0  0
 29 32  1  0  0  0  0
 31 27  1  0  0  0  0
 32 26  1  0  0  0  0
M  END
>  <MODEL>
1

>  <REMARK>
 VINA RESULT:      -9.8      0.000      0.000
  Name = 
  3 active torsions:
  status: ('A' for Active; 'I' for Inactive)
    1  A    between atoms: C_8  and  O_23
    2  A    between atoms: C_19  and  O_23
    3  A    between atoms: C_19  and  C_24
                            x       y       z     vdW  Elec       q    Type
                         _______ _______ _______ _____ _____    ______ ____

>  <TORSDO>
F 3

$$$$
=
 OpenBabel10272413233D

 32 36  0  0  1  0  0  0  0  0999 V2000
  186.8930  177.9710  144.2320 C   0  0  0  0  0  0  0  0  0  0  0  0
  187.7380  178.0200  149.0130 C   0  0  0  0  0  2  0  0  0  0  0  0
  189.2370  177.8600  148.8050 C   0  0  0  0  0  2  0  0  0  0  0  0
  188.9700  177.7630  142.7870 C   0  0  1  0  0  3  0  0  0  0  0  0
  188.5610  176.7710  141.6900 C   0  0  0  0  0  2  0  0  0  0  0  0
  184.6940  178.4870  143.2520 C   0  0  0  0  0  0  0  0  0  0  0  0
  185.1300  178.8170  145.7780 C   0  0  0  0  0  2  0  0  0  0  0  0
  191.3190  176.8150  142.2280 C   0  0  0  0  0  2  0  0  0  0  0  0
  182.9440  178.8200  144.8410 O   0  0  0  0  0  0  0  0  0  0  0  0
  187.1450  178.8090  147.8540 C   0  0  0  0  0  2  0  0  0  0  0  0
  186.5160  178.2780  145.4910 C   0  0  0  0  0  0  0  0  0  0  0  0
  187.4720  178.1750  146.5740 N   0  0  0  0  0  0  0  0  0  0  0  0
  189.0360  176.9660  145.0760 C   0  0  2  0  0  3  0  0  0  0  0  0
  191.4860  177.3930  140.8130 C   0  0  0  0  0  2  0  0  0  0  0  0
  184.1790  178.7080  144.6220 C   0  0  0  0  0  0  0  0  0  0  0  0
  190.2430  178.0870  140.2510 C   0  0  0  0  0  2  0  0  0  0  0  0
  189.4880  177.0980  147.5130 C   0  0  0  0  0  2  0  0  0  0  0  0
  188.8880  177.8420  146.3170 C   0  0  2  0  0  3  0  0  0  0  0  0
  190.4680  176.9750  144.5600 C   0  0  0  0  0  2  0  0  0  0  0  0
  185.9670  178.1340  143.0930 C   0  0  0  0  0  3  0  0  0  0  0  0
  188.9820  177.2190  140.2840 C   0  0  0  0  0  2  0  0  0  0  0  0
  191.0390  179.0460  143.3510 C   0  0  0  0  0  1  0  0  0  0  0  0
  188.2210  177.4850  143.9970 N   0  0  0  0  0  0  0  0  0  0  0  0
  190.4560  177.6500  143.1920 C   0  0  2  0  0  0  0  0  0  0  0  0
  183.8980  178.6080  142.1050 O   0  0  0  0  0  0  0  0  0  0  0  0
  184.1990  177.9970  140.8550 C   0  0  0  0  0  2  0  0  0  0  0  0
  182.5680  180.0080  139.1810 C   0  0  0  0  0  0  0  0  0  0  0  0
  186.0510  179.0410  139.8020 O   0  0  0  0  0  0  0  0  0  0  0  0
  183.9950  179.8890  139.1400 N   0  0  0  0  0  2  0  0  0  0  0  0
  181.8770  179.3290  139.9860 O   0  0  0  0  0  0  0  0  0  0  0  0
  181.8900  180.9580  138.2610 C   0  0  0  0  0  1  0  0  0  0  0  0
  184.8000  179.0000  139.9240 C   0  0  0  0  0  0  0  0  0  0  0  0
  1 11  2  0  0  0  0
  3  2  1  0  0  0  0
  4  5  1  6  0  0  0
  4 24  1  0  0  0  0
  4 23  1  0  0  0  0
  6 15  1  0  0  0  0
  8 24  1  0  0  0  0
 10  2  1  0  0  0  0
 11  7  1  0  0  0  0
 11 12  1  0  0  0  0
 12 10  1  0  0  0  0
 13 19  1  6  0  0  0
 13 18  1  0  0  0  0
 14  8  1  0  0  0  0
 15  9  2  0  0  0  0
 15  7  1  0  0  0  0
 16 21  1  0  0  0  0
 16 14  1  0  0  0  0
 17  3  1  0  0  0  0
 18 12  1  0  0  0  0
 18 17  1  1  0  0  0
 20  6  2  0  0  0  0
 20  1  1  0  0  0  0
 21  5  1  0  0  0  0
 23  1  1  0  0  0  0
 23 13  1  0  0  0  0
 24 22  1  1  0  0  0
 24 19  1  0  0  0  0
 25  6  1  0  0  0  0
 26 25  1  0  0  0  0
 27 30  2  0  0  0  0
 28 32  2  0  0  0  0
 29 27  1  0  0  0  0
 29 32  1  0  0  0  0
 31 27  1  0  0  0  0
 32 26  1  0  0  0  0
M  END
>  <MODEL>
2

>  <REMARK>
 VINA RESULT:      -9.7      1.074      1.815
  Name = 
  3 active torsions:
  status: ('A' for Active; 'I' for Inactive)
    1  A    between atoms: C_8  and  O_23
    2  A    between atoms: C_19  and  O_23
    3  A    between atoms: C_19  and  C_24
                            x       y       z     vdW  Elec       q    Type
                         _______ _______ _______ _____ _____    ______ ____

>  <TORSDO>
F 3

$$$$
=
 OpenBabel10272413233D

 32 36  0  0  1  0  0  0  0  0999 V2000
  188.3380  178.0140  141.2030 C   0  0  0  0  0  0  0  0  0  0  0  0
  190.5480  176.8520  137.0400 C   0  0  0  0  0  2  0  0  0  0  0  0
  191.7440  176.2640  137.7750 C   0  0  0  0  0  2  0  0  0  0  0  0
  189.6080  177.3560  143.3020 C   0  0  1  0  0  3  0  0  0  0  0  0
  189.4430  178.5670  144.2300 C   0  0  0  0  0  2  0  0  0  0  0  0
  186.0150  178.8240  141.3100 C   0  0  0  0  0  0  0  0  0  0  0  0
  187.0160  177.9560  139.0910 C   0  0  0  0  0  2  0  0  0  0  0  0
  191.7690  177.0640  144.7070 C   0  0  0  0  0  2  0  0  0  0  0  0
  184.9850  179.1890  139.1880 O   0  0  0  0  0  0  0  0  0  0  0  0
  189.2890  176.6460  137.8710 C   0  0  0  0  0  2  0  0  0  0  0  0
  188.2950  177.7590  139.8790 C   0  0  0  0  0  0  0  0  0  0  0  0
  189.4570  177.2080  139.2130 N   0  0  0  0  0  0  0  0  0  0  0  0
  190.8270  177.6700  141.2290 C   0  0  2  0  0  3  0  0  0  0  0  0
  191.1340  176.6930  146.0570 C   0  0  0  0  0  2  0  0  0  0  0  0
  185.9450  178.6950  139.8370 C   0  0  0  0  0  0  0  0  0  0  0  0
  189.6090  176.8090  146.1040 C   0  0  0  0  0  2  0  0  0  0  0  0
  191.9140  176.9750  139.1090 C   0  0  0  0  0  2  0  0  0  0  0  0
  190.6610  176.8170  139.9740 C   0  0  2  0  0  3  0  0  0  0  0  0
  191.7810  177.0160  142.2190 C   0  0  0  0  0  2  0  0  0  0  0  0
  187.1500  178.5070  141.9290 C   0  0  0  0  0  3  0  0  0  0  0  0
  189.0790  178.1790  145.6690 C   0  0  0  0  0  2  0  0  0  0  0  0
  190.7540  175.1410  143.4470 C   0  0  0  0  0  1  0  0  0  0  0  0
  189.5600  177.7940  141.9200 N   0  0  0  0  0  0  0  0  0  0  0  0
  190.9700  176.6460  143.4580 C   0  0  2  0  0  0  0  0  0  0  0  0
  184.9490  179.2880  142.0910 O   0  0  0  0  0  0  0  0  0  0  0  0
  184.0270  178.4420  142.7690 C   0  0  0  0  0  2  0  0  0  0  0  0
  185.0440  178.5250  145.6790 C   0  0  0  0  0  0  0  0  0  0  0  0
  182.3070  179.8370  143.6190 O   0  0  0  0  0  0  0  0  0  0  0  0
  183.8500  179.1690  145.2190 N   0  0  0  0  0  2  0  0  0  0  0  0
  185.8170  177.9320  144.8820 O   0  0  0  0  0  0  0  0  0  0  0  0
  185.3830  178.5680  147.1250 C   0  0  0  0  0  1  0  0  0  0  0  0
  183.3560  179.1920  143.8740 C   0  0  0  0  0  0  0  0  0  0  0  0
  1 23  1  0  0  0  0
  1 20  1  0  0  0  0
  2  3  1  0  0  0  0
  2 10  1  0  0  0  0
  3 17  1  0  0  0  0
  4 24  1  0  0  0  0
  4  5  1  1  0  0  0
  5 21  1  0  0  0  0
  6 20  2  0  0  0  0
  6 25  1  0  0  0  0
  7 15  1  0  0  0  0
  7 11  1  0  0  0  0
  8 14  1  0  0  0  0
  9 15  2  0  0  0  0
 10 12  1  0  0  0  0
 11  1  2  0  0  0  0
 12 11  1  0  0  0  0
 12 18  1  0  0  0  0
 13 23  1  0  0  0  0
 13 19  1  1  0  0  0
 14 16  1  0  0  0  0
 15  6  1  0  0  0  0
 18 17  1  6  0  0  0
 18 13  1  0  0  0  0
 19 24  1  0  0  0  0
 21 16  1  0  0  0  0
 23  4  1  0  0  0  0
 24 22  1  1  0  0  0
 24  8  1  0  0  0  0
 25 26  1  0  0  0  0
 26 32  1  0  0  0  0
 27 31  1  0  0  0  0
 28 32  2  0  0  0  0
 29 27  1  0  0  0  0
 30 27  2  0  0  0  0
 32 29  1  0  0  0  0
M  END
>  <MODEL>
3

>  <REMARK>
 VINA RESULT:      -9.7      2.020      6.083
  Name = 
  3 active torsions:
  status: ('A' for Active; 'I' for Inactive)
    1  A    between atoms: C_8  and  O_23
    2  A    between atoms: C_19  and  O_23
    3  A    between atoms: C_19  and  C_24
                            x       y       z     vdW  Elec       q    Type
                         _______ _______ _______ _____ _____    ______ ____

>  <TORSDO>
F 3

$$$$
=
 OpenBabel10272413233D

 32 36  0  0  1  0  0  0  0  0999 V2000
  186.6570  178.1790  141.9360 C   0  0  0  0  0  0  0  0  0  0  0  0
  184.3070  178.5820  146.1640 C   0  0  0  0  0  2  0  0  0  0  0  0
  185.5760  178.3130  146.9590 C   0  0  0  0  0  2  0  0  0  0  0  0
  189.1470  177.7210  142.1420 C   0  0  1  0  0  3  0  0  0  0  0  0
  189.4210  176.6660  141.0610 C   0  0  0  0  0  2  0  0  0  0  0  0
  185.6310  178.7440  139.7700 C   0  0  0  0  0  0  0  0  0  0  0  0
  184.4120  179.2600  141.9900 C   0  0  0  0  0  2  0  0  0  0  0  0
  191.2120  176.5850  143.2250 C   0  0  0  0  0  2  0  0  0  0  0  0
  183.3180  179.3180  139.8790 O   0  0  0  0  0  0  0  0  0  0  0  0
  184.6590  179.3050  144.8720 C   0  0  0  0  0  2  0  0  0  0  0  0
  185.6070  178.6140  142.6610 C   0  0  0  0  0  0  0  0  0  0  0  0
  185.6510  178.5450  144.1070 N   0  0  0  0  0  0  0  0  0  0  0  0
  187.6760  177.1190  143.9730 C   0  0  2  0  0  3  0  0  0  0  0  0
  192.2900  177.0290  142.2220 C   0  0  0  0  0  2  0  0  0  0  0  0
  184.3960  179.1120  140.4970 C   0  0  0  0  0  0  0  0  0  0  0  0
  191.7550  177.7480  140.9810 C   0  0  0  0  0  2  0  0  0  0  0  0
  186.5060  177.4300  146.1400 C   0  0  0  0  0  2  0  0  0  0  0  0
  186.8710  178.1050  144.8160 C   0  0  2  0  0  3  0  0  0  0  0  0
  189.1050  176.9950  144.4830 C   0  0  0  0  0  2  0  0  0  0  0  0
  186.6770  178.3010  140.4650 C   0  0  0  0  0  3  0  0  0  0  0  0
  190.6750  176.9650  140.2300 C   0  0  0  0  0  2  0  0  0  0  0  0
  190.5170  178.9160  143.8560 C   0  0  0  0  0  1  0  0  0  0  0  0
  187.7800  177.5940  142.6090 N   0  0  0  0  0  0  0  0  0  0  0  0
  190.0250  177.5510  143.4000 C   0  0  2  0  0  0  0  0  0  0  0  0
  185.7520  178.8150  138.3760 O   0  0  0  0  0  0  0  0  0  0  0  0
  186.3370  177.7980  137.5710 C   0  0  0  0  0  2  0  0  0  0  0  0
  188.6320  175.7630  137.2520 C   0  0  0  0  0  0  0  0  0  0  0  0
  188.0300  179.3750  137.0440 O   0  0  0  0  0  0  0  0  0  0  0  0
  188.7830  177.1810  137.1220 N   0  0  0  0  0  2  0  0  0  0  0  0
  187.5010  175.2380  137.4340 O   0  0  0  0  0  0  0  0  0  0  0  0
  189.8320  174.8920  137.1610 C   0  0  0  0  0  1  0  0  0  0  0  0
  187.7440  178.1630  137.2220 C   0  0  0  0  0  0  0  0  0  0  0  0
  1 23  1  0  0  0  0
  1 11  2  0  0  0  0
  2  3  1  0  0  0  0
  4  5  1  6  0  0  0
  4 23  1  0  0  0  0
  4 24  1  0  0  0  0
  6 20  2  0  0  0  0
  6 15  1  0  0  0  0
  7 11  1  0  0  0  0
  8 24  1  0  0  0  0
  9 15  2  0  0  0  0
 10  2  1  0  0  0  0
 11 12  1  0  0  0  0
 12 18  1  0  0  0  0
 12 10  1  0  0  0  0
 13 19  1  1  0  0  0
 13 18  1  0  0  0  0
 14  8  1  0  0  0  0
 15  7  1  0  0  0  0
 16 14  1  0  0  0  0
 17  3  1  0  0  0  0
 18 17  1  1  0  0  0
 20  1  1  0  0  0  0
 21 16  1  0  0  0  0
 21  5  1  0  0  0  0
 23 13  1  0  0  0  0
 24 22  1  1  0  0  0
 24 19  1  0  0  0  0
 25  6  1  0  0  0  0
 26 25  1  0  0  0  0
 27 30  2  0  0  0  0
 28 32  2  0  0  0  0
 29 32  1  0  0  0  0
 29 27  1  0  0  0  0
 31 27  1  0  0  0  0
 32 26  1  0  0  0  0
M  END
>  <MODEL>
4

>  <REMARK>
 VINA RESULT:      -9.5      1.849      3.048
  Name = 
  3 active torsions:
  status: ('A' for Active; 'I' for Inactive)
    1  A    between atoms: C_8  and  O_23
    2  A    between atoms: C_19  and  O_23
    3  A    between atoms: C_19  and  C_24
                            x       y       z     vdW  Elec       q    Type
                         _______ _______ _______ _____ _____    ______ ____

>  <TORSDO>
F 3

$$$$
=
 OpenBabel10272413233D

 32 36  0  0  1  0  0  0  0  0999 V2000
  187.3250  178.0040  141.9040 C   0  0  0  0  0  0  0  0  0  0  0  0
  184.0480  178.6940  138.3900 C   0  0  0  0  0  2  0  0  0  0  0  0
  182.9560  179.0240  139.3970 C   0  0  0  0  0  2  0  0  0  0  0  0
  186.4550  178.3850  144.2600 C   0  0  1  0  0  3  0  0  0  0  0  0
  187.0630  177.2320  145.0710 C   0  0  0  0  0  2  0  0  0  0  0  0
  189.7250  177.6870  141.4590 C   0  0  0  0  0  0  0  0  0  0  0  0
  188.0980  178.3340  139.5580 C   0  0  0  0  0  2  0  0  0  0  0  0
  184.6520  178.2270  146.1180 C   0  0  0  0  0  2  0  0  0  0  0  0
  190.3020  177.5420  139.1480 O   0  0  0  0  0  0  0  0  0  0  0  0
  185.3940  179.1520  138.9320 C   0  0  0  0  0  2  0  0  0  0  0  0
  187.0170  178.2640  140.6170 C   0  0  0  0  0  0  0  0  0  0  0  0
  185.6490  178.5660  140.2500 N   0  0  0  0  0  0  0  0  0  0  0  0
  184.8880  177.8310  142.4940 C   0  0  2  0  0  3  0  0  0  0  0  0
  185.4870  178.7180  147.3120 C   0  0  0  0  0  2  0  0  0  0  0  0
  189.4350  177.8300  140.0140 C   0  0  0  0  0  0  0  0  0  0  0  0
  186.9760  178.9170  147.0160 C   0  0  0  0  0  2  0  0  0  0  0  0
  183.2350  178.2910  140.7010 C   0  0  0  0  0  2  0  0  0  0  0  0
  184.5930  178.7020  141.2750 C   0  0  2  0  0  3  0  0  0  0  0  0
  184.0710  178.2740  143.7000 C   0  0  0  0  0  2  0  0  0  0  0  0
  188.7190  177.7640  142.3270 C   0  0  0  0  0  3  0  0  0  0  0  0
  187.6560  177.6860  146.4110 C   0  0  0  0  0  2  0  0  0  0  0  0
  184.9530  180.3190  144.7580 C   0  0  0  0  0  1  0  0  0  0  0  0
  186.2770  177.9680  142.8820 N   0  0  0  0  0  0  0  0  0  0  0  0
  185.0500  178.8010  144.7450 C   0  0  2  0  0  0  0  0  0  0  0  0
  191.0110  177.4500  141.9630 O   0  0  0  0  0  0  0  0  0  0  0  0
  191.2760  176.8040  143.2030 C   0  0  0  0  0  2  0  0  0  0  0  0
  191.9420  176.1190  146.1350 C   0  0  0  0  0  0  0  0  0  0  0  0
  191.4330  179.0410  143.9780 O   0  0  0  0  0  0  0  0  0  0  0  0
  191.7800  177.4500  145.6310 N   0  0  0  0  0  2  0  0  0  0  0  0
  191.8970  175.1190  145.3720 O   0  0  0  0  0  0  0  0  0  0  0  0
  192.1770  175.9150  147.5880 C   0  0  0  0  0  1  0  0  0  0  0  0
  191.5100  177.8210  144.2740 C   0  0  0  0  0  0  0  0  0  0  0  0
  1 20  1  0  0  0  0
  1 23  1  0  0  0  0
  2 10  1  0  0  0  0
  2  3  1  0  0  0  0
  3 17  1  0  0  0  0
  4 24  1  0  0  0  0
  4  5  1  1  0  0  0
  5 21  1  0  0  0  0
  6 25  1  0  0  0  0
  6 20  2  0  0  0  0
  7 15  1  0  0  0  0
  7 11  1  0  0  0  0
  8 14  1  0  0  0  0
  9 15  2  0  0  0  0
 10 12  1  0  0  0  0
 11  1  2  0  0  0  0
 12 11  1  0  0  0  0
 12 18  1  0  0  0  0
 13 23  1  0  0  0  0
 13 19  1  1  0  0  0
 15  6  1  0  0  0  0
 16 14  1  0  0  0  0
 18 17  1  6  0  0  0
 18 13  1  0  0  0  0
 19 24  1  0  0  0  0
 21 16  1  0  0  0  0
 23  4  1  0  0  0  0
 24 22  1  1  0  0  0
 24  8  1  0  0  0  0
 25 26  1  0  0  0  0
 26 32  1  0  0  0  0
 27 31  1  0  0  0  0
 28 32  2  0  0  0  0
 29 27  1  0  0  0  0
 30 27  2  0  0  0  0
 32 29  1  0  0  0  0
M  END
>  <MODEL>
5

>  <REMARK>
 VINA RESULT:      -9.0      2.873      7.635
  Name = 
  3 active torsions:
  status: ('A' for Active; 'I' for Inactive)
    1  A    between atoms: C_8  and  O_23
    2  A    between atoms: C_19  and  O_23
    3  A    between atoms: C_19  and  C_24
                            x       y       z     vdW  Elec       q    Type
                         _______ _______ _______ _____ _____    ______ ____

>  <TORSDO>
F 3

$$$$
=
 OpenBabel10272413233D

 32 36  0  0  1  0  0  0  0  0999 V2000
  186.8750  177.9930  143.9600 C   0  0  0  0  0  0  0  0  0  0  0  0
  187.2730  178.0180  148.7980 C   0  0  0  0  0  2  0  0  0  0  0  0
  188.7820  177.8330  148.7300 C   0  0  0  0  0  2  0  0  0  0  0  0
  189.0740  177.7520  142.7130 C   0  0  1  0  0  3  0  0  0  0  0  0
  188.7520  176.7690  141.5790 C   0  0  0  0  0  2  0  0  0  0  0  0
  184.7860  178.5480  142.7820 C   0  0  0  0  0  0  0  0  0  0  0  0
  184.9910  178.8660  145.3380 C   0  0  0  0  0  2  0  0  0  0  0  0
  191.4480  176.7650  142.3710 C   0  0  0  0  0  2  0  0  0  0  0  0
  182.9020  178.9080  144.2020 O   0  0  0  0  0  0  0  0  0  0  0  0
  186.8040  178.8190  147.5920 C   0  0  0  0  0  2  0  0  0  0  0  0
  186.3880  178.3040  145.1790 C   0  0  0  0  0  0  0  0  0  0  0  0
  187.2370  178.1820  146.3460 N   0  0  0  0  0  0  0  0  0  0  0  0
  188.9130  176.9490  144.9950 C   0  0  2  0  0  3  0  0  0  0  0  0
  191.7560  177.3430  140.9800 C   0  0  0  0  0  2  0  0  0  0  0  0
  184.1500  178.7760  144.0990 C   0  0  0  0  0  0  0  0  0  0  0  0
  190.5820  178.0590  140.3080 C   0  0  0  0  0  2  0  0  0  0  0  0
  189.1390  177.0690  147.4640 C   0  0  0  0  0  2  0  0  0  0  0  0
  188.6660  177.8260  146.2200 C   0  0  2  0  0  3  0  0  0  0  0  0
  190.3870  176.9350  144.6140 C   0  0  0  0  0  2  0  0  0  0  0  0
  186.0620  178.1740  142.7400 C   0  0  0  0  0  3  0  0  0  0  0  0
  189.3090  177.2120  140.2200 C   0  0  0  0  0  2  0  0  0  0  0  0
  191.1030  178.9980  143.4710 C   0  0  0  0  0  1  0  0  0  0  0  0
  188.2110  177.4850  143.8470 N   0  0  0  0  0  0  0  0  0  0  0  0
  190.5130  177.6130  143.2530 C   0  0  2  0  0  0  0  0  0  0  0  0
  184.1020  178.6850  141.5660 O   0  0  0  0  0  0  0  0  0  0  0  0
  183.4730  177.6100  140.8770 C   0  0  0  0  0  2  0  0  0  0  0  0
  181.6760  176.0300  138.9320 C   0  0  0  0  0  0  0  0  0  0  0  0
  181.5340  178.9500  141.1470 O   0  0  0  0  0  0  0  0  0  0  0  0
  181.2670  177.2080  139.6370 N   0  0  0  0  0  2  0  0  0  0  0  0
  182.8050  175.5070  139.1290 O   0  0  0  0  0  0  0  0  0  0  0  0
  180.7450  175.4060  137.9560 C   0  0  0  0  0  1  0  0  0  0  0  0
  182.0490  177.9540  140.5780 C   0  0  0  0  0  0  0  0  0  0  0  0
  1 11  2  0  0  0  0
  3  2  1  0  0  0  0
  4  5  1  6  0  0  0
  4 24  1  0  0  0  0
  4 23  1  0  0  0  0
  6 15  1  0  0  0  0
  8 24  1  0  0  0  0
 10  2  1  0  0  0  0
 11  7  1  0  0  0  0
 11 12  1  0  0  0  0
 12 10  1  0  0  0  0
 13 19  1  6  0  0  0
 13 18  1  0  0  0  0
 14  8  1  0  0  0  0
 15  9  2  0  0  0  0
 15  7  1  0  0  0  0
 16 14  1  0  0  0  0
 17  3  1  0  0  0  0
 18 12  1  0  0  0  0
 18 17  1  1  0  0  0
 20  6  2  0  0  0  0
 20  1  1  0  0  0  0
 21 16  1  0  0  0  0
 21  5  1  0  0  0  0
 23  1  1  0  0  0  0
 23 13  1  0  0  0  0
 24 22  1  1  0  0  0
 24 19  1  0  0  0  0
 25  6  1  0  0  0  0
 26 25  1  0  0  0  0
 27 30  2  0  0  0  0
 27 29  1  0  0  0  0
 29 32  1  0  0  0  0
 31 27  1  0  0  0  0
 32 26  1  0  0  0  0
 32 28  2  0  0  0  0
M  END
>  <MODEL>
6

>  <REMARK>
 VINA RESULT:      -9.0      1.573      2.014
  Name = 
  3 active torsions:
  status: ('A' for Active; 'I' for Inactive)
    1  A    between atoms: C_8  and  O_23
    2  A    between atoms: C_19  and  O_23
    3  A    between atoms: C_19  and  C_24
                            x       y       z     vdW  Elec       q    Type
                         _______ _______ _______ _____ _____    ______ ____

>  <TORSDO>
F 3

$$$$
=
 OpenBabel10272413233D

 32 36  0  0  1  0  0  0  0  0999 V2000
  187.7200  177.7360  142.5260 C   0  0  0  0  0  0  0  0  0  0  0  0
  183.1900  179.0730  143.6470 C   0  0  0  0  0  2  0  0  0  0  0  0
  183.4710  178.9750  145.1390 C   0  0  0  0  0  2  0  0  0  0  0  0
  189.2300  177.3140  144.5240 C   0  0  1  0  0  3  0  0  0  0  0  0
  190.0060  176.0460  144.1420 C   0  0  0  0  0  2  0  0  0  0  0  0
  188.6170  177.8220  140.2350 C   0  0  0  0  0  0  0  0  0  0  0  0
  186.3000  178.8210  140.7900 C   0  0  0  0  0  2  0  0  0  0  0  0
  189.7210  176.4260  146.9120 C   0  0  0  0  0  2  0  0  0  0  0  0
  187.0280  178.4250  138.5610 O   0  0  0  0  0  0  0  0  0  0  0  0
  184.4580  179.4940  142.9180 C   0  0  0  0  0  2  0  0  0  0  0  0
  186.5530  178.3280  142.1990 C   0  0  0  0  0  0  0  0  0  0  0  0
  185.5600  178.5770  143.2230 N   0  0  0  0  0  0  0  0  0  0  0  0
  186.8270  177.1390  144.7980 C   0  0  2  0  0  3  0  0  0  0  0  0
  191.2440  176.6320  146.9410 C   0  0  0  0  0  2  0  0  0  0  0  0
  187.3100  178.3500  139.7860 C   0  0  0  0  0  0  0  0  0  0  0  0
  191.8600  177.0660  145.6090 C   0  0  0  0  0  2  0  0  0  0  0  0
  184.5470  177.9260  145.3810 C   0  0  0  0  0  2  0  0  0  0  0  0
  185.8380  178.2920  144.6460 C   0  0  2  0  0  3  0  0  0  0  0  0
  187.4430  177.1190  146.1900 C   0  0  0  0  0  2  0  0  0  0  0  0
  188.7850  177.5330  141.5240 C   0  0  0  0  0  3  0  0  0  0  0  0
  191.5080  176.1470  144.4360 C   0  0  0  0  0  2  0  0  0  0  0  0
  189.1760  178.8450  146.4990 C   0  0  0  0  0  1  0  0  0  0  0  0
  187.9330  177.3030  143.8760 N   0  0  0  0  0  0  0  0  0  0  0  0
  188.9310  177.4170  146.0350 C   0  0  2  0  0  0  0  0  0  0  0  0
  189.6900  177.5860  139.3650 O   0  0  0  0  0  0  0  0  0  0  0  0
  190.6090  176.5080  139.5020 C   0  0  0  0  0  2  0  0  0  0  0  0
  192.7970  176.3050  137.3390 C   0  0  0  0  0  0  0  0  0  0  0  0
  192.3160  177.5970  140.7380 O   0  0  0  0  0  0  0  0  0  0  0  0
  192.9910  176.8810  138.6360 N   0  0  0  0  0  2  0  0  0  0  0  0
  191.6640  175.9040  136.9630 O   0  0  0  0  0  0  0  0  0  0  0  0
  193.9550  176.1890  136.4140 C   0  0  0  0  0  1  0  0  0  0  0  0
  192.0000  177.0330  139.6600 C   0  0  0  0  0  0  0  0  0  0  0  0
  1 23  1  0  0  0  0
  2  3  1  0  0  0  0
  3 17  1  0  0  0  0
  4  5  1  1  0  0  0
  4 24  1  0  0  0  0
  5 21  1  0  0  0  0
  6 20  2  0  0  0  0
  7 11  1  0  0  0  0
  8 14  1  0  0  0  0
  9 15  2  0  0  0  0
 10 12  1  0  0  0  0
 10  2  1  0  0  0  0
 11  1  2  0  0  0  0
 11 12  1  0  0  0  0
 12 18  1  0  0  0  0
 13 19  1  1  0  0  0
 15  6  1  0  0  0  0
 15  7  1  0  0  0  0
 16 14  1  0  0  0  0
 18 13  1  0  0  0  0
 18 17  1  1  0  0  0
 20  1  1  0  0  0  0
 21 16  1  0  0  0  0
 23  4  1  0  0  0  0
 23 13  1  0  0  0  0
 24 19  1  0  0  0  0
 24 22  1  1  0  0  0
 24  8  1  0  0  0  0
 25 26  1  0  0  0  0
 25  6  1  0  0  0  0
 26 32  1  0  0  0  0
 27 29  1  0  0  0  0
 29 32  1  0  0  0  0
 30 27  2  0  0  0  0
 31 27  1  0  0  0  0
 32 28  2  0  0  0  0
M  END
>  <MODEL>
7

>  <REMARK>
 VINA RESULT:      -8.9      2.628      5.337
  Name = 
  3 active torsions:
  status: ('A' for Active; 'I' for Inactive)
    1  A    between atoms: C_8  and  O_23
    2  A    between atoms: C_19  and  O_23
    3  A    between atoms: C_19  and  C_24
                            x       y       z     vdW  Elec       q    Type
                         _______ _______ _______ _____ _____    ______ ____

>  <TORSDO>
F 3

$$$$
=
 OpenBabel10272413233D

 32 36  0  0  1  0  0  0  0  0999 V2000
  186.7620  178.1910  141.8320 C   0  0  0  0  0  0  0  0  0  0  0  0
  184.1290  178.6980  145.8790 C   0  0  0  0  0  2  0  0  0  0  0  0
  185.3350  178.4200  146.7640 C   0  0  0  0  0  2  0  0  0  0  0  0
  189.2230  177.6960  142.2190 C   0  0  1  0  0  3  0  0  0  0  0  0
  189.5530  176.6200  141.1750 C   0  0  0  0  0  2  0  0  0  0  0  0
  185.9010  178.7400  139.5920 C   0  0  0  0  0  0  0  0  0  0  0  0
  184.5380  179.3100  141.7130 C   0  0  0  0  0  2  0  0  0  0  0  0
  191.1880  176.5430  143.4600 C   0  0  0  0  0  2  0  0  0  0  0  0
  183.5950  179.3530  139.5300 O   0  0  0  0  0  0  0  0  0  0  0  0
  184.5840  179.3950  144.6050 C   0  0  0  0  0  2  0  0  0  0  0  0
  185.6710  178.6550  142.4760 C   0  0  0  0  0  0  0  0  0  0  0  0
  185.6140  178.6070  143.9220 N   0  0  0  0  0  0  0  0  0  0  0  0
  187.6180  177.1460  143.9510 C   0  0  2  0  0  3  0  0  0  0  0  0
  192.3400  176.9540  142.5290 C   0  0  0  0  0  2  0  0  0  0  0  0
  184.6240  179.1400  140.2250 C   0  0  0  0  0  0  0  0  0  0  0  0
  191.9060  177.6630  141.2440 C   0  0  0  0  0  2  0  0  0  0  0  0
  186.3040  177.5090  146.0250 C   0  0  0  0  0  2  0  0  0  0  0  0
  186.7730  178.1580  144.7210 C   0  0  2  0  0  3  0  0  0  0  0  0
  189.0050  177.0070  144.5610 C   0  0  0  0  0  2  0  0  0  0  0  0
  186.8870  178.2900  140.3640 C   0  0  0  0  0  3  0  0  0  0  0  0
  190.8670  176.8860  140.4300 C   0  0  0  0  0  2  0  0  0  0  0  0
  190.4910  178.8950  144.0070 C   0  0  0  0  0  1  0  0  0  0  0  0
  187.8240  177.5980  142.5900 N   0  0  0  0  0  0  0  0  0  0  0  0
  190.0080  177.5310  143.5370 C   0  0  2  0  0  0  0  0  0  0  0  0
  186.1200  178.7880  138.2090 O   0  0  0  0  0  0  0  0  0  0  0  0
  185.8210  177.7220  137.3140 C   0  0  0  0  0  2  0  0  0  0  0  0
  185.8270  174.6390  137.2830 C   0  0  0  0  0  0  0  0  0  0  0  0
  188.1410  177.4570  136.8970 O   0  0  0  0  0  0  0  0  0  0  0  0
  186.9940  175.4520  137.1190 N   0  0  0  0  0  2  0  0  0  0  0  0
  184.6790  175.1490  137.3750 O   0  0  0  0  0  0  0  0  0  0  0  0
  185.9720  173.1610  137.3350 C   0  0  0  0  0  1  0  0  0  0  0  0
  187.0390  176.8840  137.0880 C   0  0  0  0  0  0  0  0  0  0  0  0
  1 11  2  0  0  0  0
  1 23  1  0  0  0  0
  2  3  1  0  0  0  0
  4  5  1  6  0  0  0
  4 23  1  0  0  0  0
  4 24  1  0  0  0  0
  6 15  1  0  0  0  0
  6 20  2  0  0  0  0
  7 11  1  0  0  0  0
  8 24  1  0  0  0  0
  9 15  2  0  0  0  0
 10  2  1  0  0  0  0
 11 12  1  0  0  0  0
 12 10  1  0  0  0  0
 12 18  1  0  0  0  0
 13 19  1  1  0  0  0
 13 18  1  0  0  0  0
 14  8  1  0  0  0  0
 15  7  1  0  0  0  0
 16 14  1  0  0  0  0
 17  3  1  0  0  0  0
 18 17  1  1  0  0  0
 20  1  1  0  0  0  0
 21  5  1  0  0  0  0
 21 16  1  0  0  0  0
 23 13  1  0  0  0  0
 24 22  1  1  0  0  0
 24 19  1  0  0  0  0
 25  6  1  0  0  0  0
 26 25  1  0  0  0  0
 27 31  1  0  0  0  0
 27 30  2  0  0  0  0
 28 32  2  0  0  0  0
 29 27  1  0  0  0  0
 32 29  1  0  0  0  0
 32 26  1  0  0  0  0
M  END
>  <MODEL>
8

>  <REMARK>
 VINA RESULT:      -8.9      1.887      3.222
  Name = 
  3 active torsions:
  status: ('A' for Active; 'I' for Inactive)
    1  A    between atoms: C_8  and  O_23
    2  A    between atoms: C_19  and  O_23
    3  A    between atoms: C_19  and  C_24
                            x       y       z     vdW  Elec       q    Type
                         _______ _______ _______ _____ _____    ______ ____

>  <TORSDO>
F 3

$$$$
=
 OpenBabel10272413233D

 32 36  0  0  1  0  0  0  0  0999 V2000
  188.5480  177.9610  141.4560 C   0  0  0  0  0  0  0  0  0  0  0  0
  190.8340  176.9190  137.3020 C   0  0  0  0  0  2  0  0  0  0  0  0
  192.0260  176.3290  138.0410 C   0  0  0  0  0  2  0  0  0  0  0  0
  189.7940  177.2710  143.5580 C   0  0  1  0  0  3  0  0  0  0  0  0
  189.6000  178.4590  144.5110 C   0  0  0  0  0  2  0  0  0  0  0  0
  186.2140  178.7400  141.5450 C   0  0  0  0  0  0  0  0  0  0  0  0
  187.2590  177.9340  139.3220 C   0  0  0  0  0  2  0  0  0  0  0  0
  191.9370  176.9730  144.9890 C   0  0  0  0  0  2  0  0  0  0  0  0
  185.2120  179.1410  139.4160 O   0  0  0  0  0  0  0  0  0  0  0  0
  189.5660  176.6800  138.1080 C   0  0  0  0  0  2  0  0  0  0  0  0
  188.5270  177.7350  140.1250 C   0  0  0  0  0  0  0  0  0  0  0  0
  189.7060  177.2140  139.4650 N   0  0  0  0  0  0  0  0  0  0  0  0
  191.0400  177.6460  141.5120 C   0  0  2  0  0  3  0  0  0  0  0  0
  191.2870  176.5640  146.3210 C   0  0  0  0  0  2  0  0  0  0  0  0
  186.1670  178.6430  140.0680 C   0  0  0  0  0  0  0  0  0  0  0  0
  189.7600  176.6610  146.3470 C   0  0  0  0  0  2  0  0  0  0  0  0
  192.1680  177.0120  139.3930 C   0  0  0  0  0  2  0  0  0  0  0  0
  190.9040  176.8190  140.2350 C   0  0  2  0  0  3  0  0  0  0  0  0
  191.9870  176.9810  142.5010 C   0  0  0  0  0  2  0  0  0  0  0  0
  187.3430  178.4230  142.1740 C   0  0  0  0  0  3  0  0  0  0  0  0
  189.2200  178.0330  145.9350 C   0  0  0  0  0  2  0  0  0  0  0  0
  190.9650  175.0670  143.6700 C   0  0  0  0  0  1  0  0  0  0  0  0
  189.7610  177.7390  142.1860 N   0  0  0  0  0  0  0  0  0  0  0  0
  191.1620  176.5740  143.7190 C   0  0  2  0  0  0  0  0  0  0  0  0
  185.1300  179.1740  142.3200 O   0  0  0  0  0  0  0  0  0  0  0  0
  184.3040  178.3100  143.0930 C   0  0  0  0  0  2  0  0  0  0  0  0
  181.4970  179.0460  142.0490 C   0  0  0  0  0  0  0  0  0  0  0  0
  183.6070  179.5170  145.0120 O   0  0  0  0  0  0  0  0  0  0  0  0
  182.0230  179.4560  143.3170 N   0  0  0  0  0  2  0  0  0  0  0  0
  182.1400  178.2720  141.2920 O   0  0  0  0  0  0  0  0  0  0  0  0
  180.1610  179.5380  141.6230 C   0  0  0  0  0  1  0  0  0  0  0  0
  183.3020  179.1090  143.8630 C   0  0  0  0  0  0  0  0  0  0  0  0
  1 20  1  0  0  0  0
  1 23  1  0  0  0  0
  2  3  1  0  0  0  0
  2 10  1  0  0  0  0
  3 17  1  0  0  0  0
  4 24  1  0  0  0  0
  4  5  1  1  0  0  0
  5 21  1  0  0  0  0
  6 20  2  0  0  0  0
  6 25  1  0  0  0  0
  7 15  1  0  0  0  0
  7 11  1  0  0  0  0
  8 14  1  0  0  0  0
  9 15  2  0  0  0  0
 10 12  1  0  0  0  0
 11  1  2  0  0  0  0
 12 11  1  0  0  0  0
 12 18  1  0  0  0  0
 13 23  1  0  0  0  0
 13 19  1  1  0  0  0
 14 16  1  0  0  0  0
 15  6  1  0  0  0  0
 18 17  1  6  0  0  0
 18 13  1  0  0  0  0
 19 24  1  0  0  0  0
 21 16  1  0  0  0  0
 23  4  1  0  0  0  0
 24 22  1  6  0  0  0
 24  8  1  0  0  0  0
 25 26  1  0  0  0  0
 26 32  1  0  0  0  0
 27 29  1  0  0  0  0
 29 32  1  0  0  0  0
 30 27  2  0  0  0  0
 31 27  1  0  0  0  0
 32 28  2  0  0  0  0
M  END
>  <MODEL>
9

>  <REMARK>
 VINA RESULT:      -8.7      2.333      5.856
  Name = 
  3 active torsions:
  status: ('A' for Active; 'I' for Inactive)
    1  A    between atoms: C_8  and  O_23
    2  A    between atoms: C_19  and  O_23
    3  A    between atoms: C_19  and  C_24
                            x       y       z     vdW  Elec       q    Type
                         _______ _______ _______ _____ _____    ______ ____

>  <TORSDO>
F 3

$$$$
