=
 OpenBabel10272415263D

 34 39  0  0  1  0  0  0  0  0999 V2000
  186.9550  178.1110  143.9970 N   0  0  0  0  0  0  0  0  0  0  0  0
  183.3310  178.9310  144.8510 C   0  0  0  0  0  3  0  0  0  0  0  0
  185.2660  178.4040  146.2280 C   0  0  0  0  0  3  0  0  0  0  0  0
  189.6030  177.2990  144.4300 N   0  0  0  0  0  0  0  0  0  0  0  0
  187.8540  177.9310  142.8900 C   0  0  0  0  0  3  0  0  0  0  0  0
  188.8610  177.4630  145.4840 C   0  0  0  0  0  0  0  0  0  0  0  0
  188.4270  177.4390  147.9490 C   0  0  0  0  0  3  0  0  0  0  0  0
  189.4340  177.2170  146.8490 C   0  0  0  0  0  3  0  0  0  0  0  0
  189.1210  177.5280  143.0890 C   0  0  0  0  0  0  0  0  0  0  0  0
  186.6830  178.0530  146.4010 C   0  0  0  0  0  0  0  0  0  0  0  0
  187.4650  177.8910  145.3250 C   0  0  2  0  0  3  0  0  0  0  0  0
  187.2010  177.8130  147.7180 N   0  0  0  0  0  0  0  0  0  0  0  0
  182.7900  178.8400  143.6310 C   0  0  0  0  0  0  0  0  0  0  0  0
  183.6120  178.4240  142.4710 C   0  0  0  0  0  3  0  0  0  0  0  0
  184.7710  178.6900  145.0230 C   0  0  0  0  0  0  0  0  0  0  0  0
  184.9460  178.3500  142.5570 C   0  0  0  0  0  3  0  0  0  0  0  0
  185.6670  178.7930  143.8060 C   0  0  2  0  0  3  0  0  0  0  0  0
  192.2780  177.3610  140.9840 C   0  0  0  0  0  3  0  0  0  0  0  0
  189.5220  176.9290  140.7020 C   0  0  0  0  0  3  0  0  0  0  0  0
  192.0900  176.3660  137.4190 C   0  0  0  0  0  0  0  0  0  0  0  0
  192.6090  176.7700  138.6590 C   0  0  0  0  0  3  0  0  0  0  0  0
  191.7590  176.9580  139.7520 C   0  0  0  0  0  0  0  0  0  0  0  0
  189.8530  176.3390  138.3770 C   0  0  0  0  0  3  0  0  0  0  0  0
  190.3710  176.7410  139.6090 C   0  0  0  0  0  0  0  0  0  0  0  0
  190.7090  176.1520  137.2870 C   0  0  0  0  0  3  0  0  0  0  0  0
  190.0370  177.3330  141.9430 C   0  0  0  0  0  0  0  0  0  0  0  0
  191.4210  177.5470  142.0730 C   0  0  0  0  0  3  0  0  0  0  0  0
  192.9870  176.1680  136.2660 C   0  0  0  0  0  0  0  0  0  0  0  0
  194.3480  176.5830  136.3310 N   0  0  0  0  0  1  0  0  0  0  0  0
  192.5580  175.6290  135.2120 O   0  0  0  0  0  0  0  0  0  0  0  0
  181.3280  179.0770  143.4550 C   0  0  0  0  0  2  0  0  0  0  0  0
  180.9610  179.1220  141.9800 C   0  0  1  0  0  3  0  0  0  0  0  0
  179.9940  177.9990  141.6710 C   0  0  0  0  0  1  0  0  0  0  0  0
  180.3600  180.3450  141.6750 O   0  0  0  0  0  1  0  0  0  0  0  0
  1 11  1  0  0  0  0
  2 15  1  0  0  0  0
  3 10  1  0  0  0  0
  4  6  2  0  0  0  0
  5  9  2  0  0  0  0
  5  1  1  0  0  0  0
  6  8  1  0  0  0  0
  8  7  2  0  0  0  0
  9  4  1  0  0  0  0
 10 12  2  0  0  0  0
 11  6  1  6  0  0  0
 11 10  1  0  0  0  0
 12  7  1  0  0  0  0
 13  2  2  0  0  0  0
 14 16  2  0  0  0  0
 14 13  1  0  0  0  0
 15  3  2  0  0  0  0
 17 16  1  6  0  0  0
 17  1  1  0  0  0  0
 17 15  1  0  0  0  0
 18 27  1  0  0  0  0
 19 26  1  0  0  0  0
 20 21  2  0  0  0  0
 21 22  1  0  0  0  0
 22 18  2  0  0  0  0
 23 24  1  0  0  0  0
 24 22  1  0  0  0  0
 24 19  2  0  0  0  0
 25 20  1  0  0  0  0
 25 23  2  0  0  0  0
 26 27  2  0  0  0  0
 26  9  1  0  0  0  0
 28 29  1  0  0  0  0
 28 20  1  0  0  0  0
 30 28  2  0  0  0  0
 31 13  1  0  0  0  0
 32 33  1  1  0  0  0
 32 31  1  0  0  0  0
 34 32  1  0  0  0  0
M  END
>  <MODEL>
1

>  <REMARK>
 VINA RESULT:     -10.8      0.000      0.000
  Name = 
  4 active torsions:
  status: ('A' for Active; 'I' for Inactive)
    1  A    between atoms: C_3  and  C_25
    2  A    between atoms: C_7  and  C_11
    3  A    between atoms: C_18  and  C_30
    4  A    between atoms: C_23  and  C_25
                            x       y       z     vdW  Elec       q    Type
                         _______ _______ _______ _____ _____    ______ ____

>  <TORSDO>
F 4

$$$$
=
 OpenBabel10272415263D

 34 39  0  0  1  0  0  0  0  0999 V2000
  191.2910  176.5290  138.2000 N   0  0  0  0  0  0  0  0  0  0  0  0
  193.6490  175.5620  135.3660 C   0  0  0  0  0  2  0  0  0  0  0  0
  191.2920  176.1590  135.4100 C   0  0  0  0  0  3  0  0  0  0  0  0
  188.8630  177.1420  139.4600 N   0  0  0  0  0  0  0  0  0  0  0  0
  191.2330  176.7110  139.6250 C   0  0  0  0  0  3  0  0  0  0  0  0
  188.8360  177.0170  138.1670 C   0  0  0  0  0  0  0  0  0  0  0  0
  187.7000  177.0000  135.9370 C   0  0  0  0  0  3  0  0  0  0  0  0
  187.5460  177.1990  137.4230 C   0  0  0  0  0  2  0  0  0  0  0  0
  190.0690  176.9920  140.2380 C   0  0  0  0  0  0  0  0  0  0  0  0
  190.0630  176.5550  136.1150 C   0  0  0  0  0  0  0  0  0  0  0  0
  190.0770  176.7000  137.4470 C   0  0  0  0  0  0  0  0  0  0  0  0
  188.8420  176.7120  135.3790 N   0  0  0  0  0  0  0  0  0  0  0  0
  194.6860  175.1140  136.0830 C   0  0  0  0  0  0  0  0  0  0  0  0
  194.6080  175.0490  137.5610 C   0  0  0  0  0  3  0  0  0  0  0  0
  192.4540  176.0640  136.0580 C   0  0  0  0  0  0  0  0  0  0  0  0
  193.6090  175.6380  138.2290 C   0  0  0  0  0  3  0  0  0  0  0  0
  192.5870  176.4820  137.5080 C   0  0  0  0  0  0  0  0  0  0  0  0
  191.1300  177.4920  143.8500 C   0  0  0  0  0  3  0  0  0  0  0  0
  188.7760  177.1710  142.3620 C   0  0  0  0  0  3  0  0  0  0  0  0
  188.5800  177.6630  146.5340 C   0  0  0  0  0  0  0  0  0  0  0  0
  189.8230  177.6590  145.8820 C   0  0  0  0  0  3  0  0  0  0  0  0
  189.8920  177.4960  144.4970 C   0  0  0  0  0  0  0  0  0  0  0  0
  187.4690  177.3380  144.3940 C   0  0  0  0  0  3  0  0  0  0  0  0
  188.7060  177.3340  143.7470 C   0  0  0  0  0  0  0  0  0  0  0  0
  187.4070  177.5020  145.7810 C   0  0  0  0  0  3  0  0  0  0  0  0
  190.0160  177.1660  141.7060 C   0  0  0  0  0  0  0  0  0  0  0  0
  191.1910  177.3280  142.4630 C   0  0  0  0  0  3  0  0  0  0  0  0
  188.5070  177.8350  147.9960 C   0  0  0  0  0  0  0  0  0  0  0  0
  189.5970  178.4140  148.7090 N   0  0  0  0  0  1  0  0  0  0  0  0
  187.4810  177.4730  148.6290 O   0  0  0  0  0  0  0  0  0  0  0  0
  195.8980  174.5970  135.3820 C   0  0  0  0  0  2  0  0  0  0  0  0
  197.1650  175.1420  136.0210 C   0  0  1  0  0  3  0  0  0  0  0  0
  198.3700  174.5000  135.3690 C   0  0  0  0  0  1  0  0  0  0  0  0
  197.2300  176.5260  135.8460 O   0  0  0  0  0  1  0  0  0  0  0  0
  1  5  1  0  0  0  0
  2 15  1  0  0  0  0
  2 13  1  0  0  0  0
  3 15  2  0  0  0  0
  3 10  1  0  0  0  0
  4  9  1  0  0  0  0
  5  9  2  0  0  0  0
  6  4  2  0  0  0  0
  7  8  1  0  0  0  0
  8  6  1  0  0  0  0
  9 26  1  0  0  0  0
 10 11  2  0  0  0  0
 11  6  1  0  0  0  0
 11  1  1  0  0  0  0
 12  7  2  0  0  0  0
 12 10  1  0  0  0  0
 13 14  2  0  0  0  0
 14 16  1  0  0  0  0
 15 17  1  0  0  0  0
 17  1  1  0  0  0  0
 17 16  2  0  0  0  0
 18 22  1  0  0  0  0
 19 24  1  0  0  0  0
 20 28  1  0  0  0  0
 21 20  1  0  0  0  0
 22 21  2  0  0  0  0
 23 25  1  0  0  0  0
 24 23  2  0  0  0  0
 24 22  1  0  0  0  0
 25 20  2  0  0  0  0
 26 19  2  0  0  0  0
 26 27  1  0  0  0  0
 27 18  2  0  0  0  0
 28 30  2  0  0  0  0
 28 29  1  0  0  0  0
 31 32  1  0  0  0  0
 31 13  1  0  0  0  0
 32 33  1  6  0  0  0
 34 32  1  0  0  0  0
M  END
>  <MODEL>
2

>  <REMARK>
 VINA RESULT:      -9.5      3.686     10.919
  Name = 
  4 active torsions:
  status: ('A' for Active; 'I' for Inactive)
    1  A    between atoms: C_3  and  C_25
    2  A    between atoms: C_7  and  C_11
    3  A    between atoms: C_18  and  C_30
    4  A    between atoms: C_23  and  C_25
                            x       y       z     vdW  Elec       q    Type
                         _______ _______ _______ _____ _____    ______ ____

>  <TORSDO>
F 4

$$$$
=
 OpenBabel10272415263D

 34 39  0  0  1  0  0  0  0  0999 V2000
  183.5650  178.4700  141.0510 N   0  0  0  0  0  0  0  0  0  0  0  0
  181.7060  178.6200  137.7270 C   0  0  0  0  0  2  0  0  0  0  0  0
  181.0020  179.0090  140.0220 C   0  0  0  0  0  3  0  0  0  0  0  0
  183.9130  178.4830  143.8330 N   0  0  0  0  0  0  0  0  0  0  0  0
  184.8510  178.1850  141.6280 C   0  0  0  0  0  3  0  0  0  0  0  0
  182.7260  178.7740  143.3890 C   0  0  0  0  0  0  0  0  0  0  0  0
  180.3160  179.3910  143.6640 C   0  0  0  0  0  3  0  0  0  0  0  0
  181.6230  179.0950  144.3550 C   0  0  0  0  0  3  0  0  0  0  0  0
  185.0220  178.1750  142.9620 C   0  0  0  0  0  0  0  0  0  0  0  0
  181.2600  179.0750  141.4690 C   0  0  0  0  0  0  0  0  0  0  0  0
  182.4800  178.7880  141.9410 C   0  0  2  0  0  3  0  0  0  0  0  0
  180.1830  179.3740  142.3690 N   0  0  0  0  0  0  0  0  0  0  0  0
  182.6160  178.0390  136.9370 C   0  0  0  0  0  0  0  0  0  0  0  0
  183.8740  177.5020  137.5050 C   0  0  0  0  0  3  0  0  0  0  0  0
  181.9940  178.7920  139.1570 C   0  0  0  0  0  0  0  0  0  0  0  0
  184.2400  177.7770  138.7630 C   0  0  0  0  0  3  0  0  0  0  0  0
  183.4390  178.7350  139.6110 C   0  0  0  0  0  0  0  0  0  0  0  0
  188.7180  177.3740  143.2970 C   0  0  0  0  0  3  0  0  0  0  0  0
  186.4850  177.7820  144.9410 C   0  0  0  0  0  3  0  0  0  0  0  0
  190.2290  176.9130  146.6490 C   0  0  0  0  0  0  0  0  0  0  0  0
  190.0930  177.0000  145.2550 C   0  0  0  0  0  3  0  0  0  0  0  0
  188.8510  177.2880  144.6840 C   0  0  0  0  0  0  0  0  0  0  0  0
  187.8600  177.4080  146.9000 C   0  0  0  0  0  3  0  0  0  0  0  0
  187.7270  177.4940  145.5130 C   0  0  0  0  0  0  0  0  0  0  0  0
  189.1060  177.1190  147.4650 C   0  0  0  0  0  3  0  0  0  0  0  0
  186.3450  177.8690  143.5480 C   0  0  0  0  0  0  0  0  0  0  0  0
  187.4720  177.6620  142.7320 C   0  0  0  0  0  3  0  0  0  0  0  0
  191.5400  176.6090  147.2510 C   0  0  0  0  0  0  0  0  0  0  0  0
  192.3370  175.5430  146.7430 N   0  0  0  0  0  1  0  0  0  0  0  0
  191.9680  177.2890  148.2210 O   0  0  0  0  0  0  0  0  0  0  0  0
  182.3230  177.8560  135.4860 C   0  0  0  0  0  2  0  0  0  0  0  0
  181.9920  176.4040  135.1790 C   0  0  1  0  0  3  0  0  0  0  0  0
  180.6670  176.3350  134.4530 C   0  0  0  0  0  1  0  0  0  0  0  0
  182.9880  175.8480  134.3740 O   0  0  0  0  0  1  0  0  0  0  0  0
  1  5  1  0  0  0  0
  1 11  1  0  0  0  0
  2 15  1  0  0  0  0
  3 10  1  0  0  0  0
  5  9  2  0  0  0  0
  6  4  2  0  0  0  0
  6  8  1  0  0  0  0
  7  8  2  0  0  0  0
  9 26  1  0  0  0  0
  9  4  1  0  0  0  0
 10 12  2  0  0  0  0
 11 10  1  1  0  0  0
 11  6  1  0  0  0  0
 12  7  1  0  0  0  0
 13 14  2  0  0  0  0
 13  2  1  0  0  0  0
 14 16  1  0  0  0  0
 15 17  1  0  0  0  0
 15  3  2  0  0  0  0
 16 17  2  0  0  0  0
 17  1  1  0  0  0  0
 18 22  1  0  0  0  0
 19 24  1  0  0  0  0
 20 28  1  0  0  0  0
 20 25  1  0  0  0  0
 21 20  2  0  0  0  0
 22 21  1  0  0  0  0
 22 24  2  0  0  0  0
 23 25  2  0  0  0  0
 24 23  1  0  0  0  0
 26 19  2  0  0  0  0
 27 18  2  0  0  0  0
 27 26  1  0  0  0  0
 28 30  2  0  0  0  0
 29 28  1  0  0  0  0
 31 13  1  0  0  0  0
 32 33  1  6  0  0  0
 32 31  1  0  0  0  0
 34 32  1  0  0  0  0
M  END
>  <MODEL>
3

>  <REMARK>
 VINA RESULT:      -9.5      4.398      7.399
  Name = 
  4 active torsions:
  status: ('A' for Active; 'I' for Inactive)
    1  A    between atoms: C_3  and  C_25
    2  A    between atoms: C_7  and  C_11
    3  A    between atoms: C_18  and  C_30
    4  A    between atoms: C_23  and  C_25
                            x       y       z     vdW  Elec       q    Type
                         _______ _______ _______ _____ _____    ______ ____

>  <TORSDO>
F 4

$$$$
=
 OpenBabel10272415263D

 34 39  0  0  1  0  0  0  0  0999 V2000
  185.5560  178.4160  141.4240 N   0  0  0  0  0  0  0  0  0  0  0  0
  185.1590  178.5380  137.6350 C   0  0  0  0  0  2  0  0  0  0  0  0
  183.5750  178.7980  139.4620 C   0  0  0  0  0  3  0  0  0  0  0  0
  184.7710  178.3630  144.1150 N   0  0  0  0  0  0  0  0  0  0  0  0
  186.5260  178.2080  142.4640 C   0  0  0  0  0  3  0  0  0  0  0  0
  183.8380  178.5800  143.2370 C   0  0  0  0  0  0  0  0  0  0  0  0
  181.4750  179.0080  142.5330 C   0  0  0  0  0  3  0  0  0  0  0  0
  182.4210  178.7870  143.6860 C   0  0  0  0  0  3  0  0  0  0  0  0
  186.1550  178.1670  143.7560 C   0  0  0  0  0  0  0  0  0  0  0  0
  183.2330  178.8350  140.8920 C   0  0  0  0  0  0  0  0  0  0  0  0
  184.1850  178.6240  141.8100 C   0  0  2  0  0  3  0  0  0  0  0  0
  181.8670  179.0240  141.2910 N   0  0  0  0  0  0  0  0  0  0  0  0
  186.3510  178.0520  137.2710 C   0  0  0  0  0  0  0  0  0  0  0  0
  187.3200  177.5910  138.2920 C   0  0  0  0  0  3  0  0  0  0  0  0
  184.8420  178.6840  139.0620 C   0  0  0  0  0  0  0  0  0  0  0  0
  187.1350  177.8510  139.5920 C   0  0  0  0  0  3  0  0  0  0  0  0
  185.9890  178.7190  140.0530 C   0  0  0  0  0  0  0  0  0  0  0  0
  187.7870  177.8930  147.1740 C   0  0  0  0  0  3  0  0  0  0  0  0
  188.4610  177.5500  144.4750 C   0  0  0  0  0  3  0  0  0  0  0  0
  191.3450  176.8960  147.4670 C   0  0  0  0  0  0  0  0  0  0  0  0
  190.0420  177.2870  147.8150 C   0  0  0  0  0  3  0  0  0  0  0  0
  189.0820  177.5050  146.8250 C   0  0  0  0  0  0  0  0  0  0  0  0
  190.7170  176.9440  145.1160 C   0  0  0  0  0  3  0  0  0  0  0  0
  189.4220  177.3320  145.4650 C   0  0  0  0  0  0  0  0  0  0  0  0
  191.6730  176.7270  146.1130 C   0  0  0  0  0  3  0  0  0  0  0  0
  187.1590  177.9400  144.8190 C   0  0  0  0  0  0  0  0  0  0  0  0
  186.8320  178.1100  146.1770 C   0  0  0  0  0  3  0  0  0  0  0  0
  192.3580  176.6670  148.5120 C   0  0  0  0  0  0  0  0  0  0  0  0
  193.0370  175.4170  148.5970 N   0  0  0  0  0  1  0  0  0  0  0  0
  192.6330  177.5730  149.3410 O   0  0  0  0  0  0  0  0  0  0  0  0
  186.6720  177.8960  135.8230 C   0  0  0  0  0  2  0  0  0  0  0  0
  187.8970  177.0160  135.6320 C   0  0  1  0  0  3  0  0  0  0  0  0
  187.5830  175.9320  134.6240 C   0  0  0  0  0  1  0  0  0  0  0  0
  188.9670  177.7830  135.1650 O   0  0  0  0  0  1  0  0  0  0  0  0
  1 11  1  0  0  0  0
  1  5  1  0  0  0  0
  2 15  1  0  0  0  0
  3 10  1  0  0  0  0
  5  9  2  0  0  0  0
  6  8  1  0  0  0  0
  6  4  2  0  0  0  0
  7  8  2  0  0  0  0
  9  4  1  0  0  0  0
  9 26  1  0  0  0  0
 10 12  2  0  0  0  0
 11 10  1  6  0  0  0
 11  6  1  0  0  0  0
 12  7  1  0  0  0  0
 13  2  1  0  0  0  0
 13 14  2  0  0  0  0
 14 16  1  0  0  0  0
 15  3  2  0  0  0  0
 15 17  1  0  0  0  0
 16 17  2  0  0  0  0
 17  1  1  0  0  0  0
 19 26  2  0  0  0  0
 19 24  1  0  0  0  0
 20 21  1  0  0  0  0
 20 28  1  0  0  0  0
 22 18  1  0  0  0  0
 22 21  2  0  0  0  0
 23 24  2  0  0  0  0
 23 25  1  0  0  0  0
 24 22  1  0  0  0  0
 25 20  2  0  0  0  0
 26 27  1  0  0  0  0
 27 18  2  0  0  0  0
 28 29  1  0  0  0  0
 28 30  2  0  0  0  0
 31 13  1  0  0  0  0
 32 33  1  6  0  0  0
 32 31  1  0  0  0  0
 34 32  1  0  0  0  0
M  END
>  <MODEL>
4

>  <REMARK>
 VINA RESULT:      -9.3      3.818      7.809
  Name = 
  4 active torsions:
  status: ('A' for Active; 'I' for Inactive)
    1  A    between atoms: C_3  and  C_25
    2  A    between atoms: C_7  and  C_11
    3  A    between atoms: C_18  and  C_30
    4  A    between atoms: C_23  and  C_25
                            x       y       z     vdW  Elec       q    Type
                         _______ _______ _______ _____ _____    ______ ____

>  <TORSDO>
F 4

$$$$
=
 OpenBabel10272415263D

 34 39  0  0  1  0  0  0  0  0999 V2000
  185.3950  178.3530  142.8400 N   0  0  0  0  0  0  0  0  0  0  0  0
  181.6330  178.7940  142.4060 C   0  0  0  0  0  3  0  0  0  0  0  0
  183.0720  178.7880  144.3670 C   0  0  0  0  0  3  0  0  0  0  0  0
  187.8280  178.0060  144.1870 N   0  0  0  0  0  0  0  0  0  0  0  0
  186.6070  178.1110  142.1070 C   0  0  0  0  0  3  0  0  0  0  0  0
  186.7820  178.2440  144.9200 C   0  0  0  0  0  0  0  0  0  0  0  0
  185.5980  178.5870  147.0990 C   0  0  0  0  0  3  0  0  0  0  0  0
  186.9150  178.3210  146.4130 C   0  0  0  0  0  3  0  0  0  0  0  0
  187.7760  177.9290  142.7470 C   0  0  0  0  0  0  0  0  0  0  0  0
  184.3870  178.6740  145.0160 C   0  0  0  0  0  0  0  0  0  0  0  0
  185.4770  178.4390  144.2740 C   0  0  2  0  0  3  0  0  0  0  0  0
  184.4820  178.7410  146.4460 N   0  0  0  0  0  0  0  0  0  0  0  0
  181.5110  178.4180  141.1280 C   0  0  0  0  0  0  0  0  0  0  0  0
  182.6870  177.9270  140.3720 C   0  0  0  0  0  3  0  0  0  0  0  0
  182.9600  178.7890  143.0380 C   0  0  0  0  0  0  0  0  0  0  0  0
  183.9270  178.0550  140.8580 C   0  0  0  0  0  3  0  0  0  0  0  0
  184.1820  178.8050  142.1430 C   0  0  2  0  0  3  0  0  0  0  0  0
  191.4500  177.5630  141.8570 C   0  0  0  0  0  3  0  0  0  0  0  0
  188.9400  177.2750  140.6420 C   0  0  0  0  0  3  0  0  0  0  0  0
  192.4450  176.5270  138.4400 C   0  0  0  0  0  0  0  0  0  0  0  0
  192.5270  176.9210  139.7850 C   0  0  0  0  0  3  0  0  0  0  0  0
  191.3660  177.1710  140.5200 C   0  0  0  0  0  0  0  0  0  0  0  0
  190.0170  176.6330  138.5700 C   0  0  0  0  0  3  0  0  0  0  0  0
  190.1010  177.0250  139.9070 C   0  0  0  0  0  0  0  0  0  0  0  0
  191.1850  176.3850  137.8410 C   0  0  0  0  0  3  0  0  0  0  0  0
  189.0180  177.6700  141.9860 C   0  0  0  0  0  0  0  0  0  0  0  0
  190.2830  177.8110  142.5850 C   0  0  0  0  0  3  0  0  0  0  0  0
  193.6710  176.2640  137.6660 C   0  0  0  0  0  0  0  0  0  0  0  0
  194.5990  175.2730  138.0990 N   0  0  0  0  0  1  0  0  0  0  0  0
  193.9110  176.9130  136.6140 O   0  0  0  0  0  0  0  0  0  0  0  0
  180.1650  178.4150  140.4870 C   0  0  0  0  0  2  0  0  0  0  0  0
  180.1170  179.3940  139.3240 C   0  0  1  0  0  3  0  0  0  0  0  0
  180.6920  180.7220  139.7640 C   0  0  0  0  0  1  0  0  0  0  0  0
  180.8660  178.8990  138.2540 O   0  0  0  0  0  1  0  0  0  0  0  0
  1 11  1  0  0  0  0
  2 15  1  0  0  0  0
  3 10  1  0  0  0  0
  4  6  2  0  0  0  0
  5  9  2  0  0  0  0
  5  1  1  0  0  0  0
  6  8  1  0  0  0  0
  8  7  2  0  0  0  0
  9  4  1  0  0  0  0
 10 12  2  0  0  0  0
 11  6  1  1  0  0  0
 11 10  1  0  0  0  0
 12  7  1  0  0  0  0
 13  2  2  0  0  0  0
 14 16  2  0  0  0  0
 14 13  1  0  0  0  0
 15  3  2  0  0  0  0
 17 16  1  6  0  0  0
 17  1  1  0  0  0  0
 17 15  1  0  0  0  0
 18 27  1  0  0  0  0
 19 26  1  0  0  0  0
 20 21  2  0  0  0  0
 21 22  1  0  0  0  0
 22 18  2  0  0  0  0
 23 24  1  0  0  0  0
 24 22  1  0  0  0  0
 24 19  2  0  0  0  0
 25 20  1  0  0  0  0
 25 23  2  0  0  0  0
 26 27  2  0  0  0  0
 26  9  1  0  0  0  0
 28 29  1  0  0  0  0
 28 20  1  0  0  0  0
 30 28  2  0  0  0  0
 31 13  1  0  0  0  0
 32 33  1  1  0  0  0
 32 31  1  0  0  0  0
 34 32  1  0  0  0  0
M  END
>  <MODEL>
5

>  <REMARK>
 VINA RESULT:      -9.2      1.526      2.240
  Name = 
  4 active torsions:
  status: ('A' for Active; 'I' for Inactive)
    1  A    between atoms: C_3  and  C_25
    2  A    between atoms: C_7  and  C_11
    3  A    between atoms: C_18  and  C_30
    4  A    between atoms: C_23  and  C_25
                            x       y       z     vdW  Elec       q    Type
                         _______ _______ _______ _____ _____    ______ ____

>  <TORSDO>
F 4

$$$$
=
 OpenBabel10272415263D

 34 39  0  0  1  0  0  0  0  0999 V2000
  190.4110  176.7420  138.2170 N   0  0  0  0  0  0  0  0  0  0  0  0
  192.3950  175.4900  135.2130 C   0  0  0  0  0  2  0  0  0  0  0  0
  190.2040  176.5260  135.4190 C   0  0  0  0  0  3  0  0  0  0  0  0
  188.2140  177.7430  139.6420 N   0  0  0  0  0  0  0  0  0  0  0  0
  190.4600  176.8570  139.6500 C   0  0  0  0  0  3  0  0  0  0  0  0
  188.1000  177.6930  138.3480 C   0  0  0  0  0  0  0  0  0  0  0  0
  186.8750  178.0110  136.1890 C   0  0  0  0  0  3  0  0  0  0  0  0
  186.8340  178.1570  137.6890 C   0  0  0  0  0  3  0  0  0  0  0  0
  189.4050  177.3230  140.3410 C   0  0  0  0  0  0  0  0  0  0  0  0
  189.1120  177.1130  136.2110 C   0  0  0  0  0  0  0  0  0  0  0  0
  189.2180  177.1820  137.5440 C   0  0  2  0  0  3  0  0  0  0  0  0
  187.9090  177.5390  135.5540 N   0  0  0  0  0  0  0  0  0  0  0  0
  193.3590  174.8150  135.8490 C   0  0  0  0  0  0  0  0  0  0  0  0
  193.3430  174.6890  137.3240 C   0  0  0  0  0  3  0  0  0  0  0  0
  191.3560  176.1750  135.9940 C   0  0  0  0  0  0  0  0  0  0  0  0
  192.5110  175.4220  138.0740 C   0  0  0  0  0  3  0  0  0  0  0  0
  191.6380  176.4840  137.4500 C   0  0  0  0  0  0  0  0  0  0  0  0
  190.7230  177.6750  143.8840 C   0  0  0  0  0  3  0  0  0  0  0  0
  188.2710  177.3740  142.5600 C   0  0  0  0  0  3  0  0  0  0  0  0
  188.3780  177.6660  146.7550 C   0  0  0  0  0  0  0  0  0  0  0  0
  189.5690  177.7190  146.0130 C   0  0  0  0  0  3  0  0  0  0  0  0
  189.5380  177.6220  144.6200 C   0  0  0  0  0  0  0  0  0  0  0  0
  187.1170  177.4180  144.6890 C   0  0  0  0  0  3  0  0  0  0  0  0
  188.3020  177.4700  143.9530 C   0  0  0  0  0  0  0  0  0  0  0  0
  187.1560  177.5150  146.0840 C   0  0  0  0  0  3  0  0  0  0  0  0
  189.4580  177.4270  141.8150 C   0  0  0  0  0  0  0  0  0  0  0  0
  190.6830  177.5780  142.4910 C   0  0  0  0  0  3  0  0  0  0  0  0
  188.4130  177.7670  148.2250 C   0  0  0  0  0  0  0  0  0  0  0  0
  189.5000  178.4160  148.8780 N   0  0  0  0  0  1  0  0  0  0  0  0
  187.4810  177.2810  148.9180 O   0  0  0  0  0  0  0  0  0  0  0  0
  194.4110  174.1130  135.0580 C   0  0  0  0  0  2  0  0  0  0  0  0
  195.4000  173.4120  135.9750 C   0  0  1  0  0  3  0  0  0  0  0  0
  195.3440  171.9200  135.7260 C   0  0  0  0  0  1  0  0  0  0  0  0
  196.6940  173.8730  135.7240 O   0  0  0  0  0  1  0  0  0  0  0  0
  1  5  1  0  0  0  0
  2 13  1  0  0  0  0
  2 15  1  0  0  0  0
  3 15  2  0  0  0  0
  3 10  1  0  0  0  0
  4  9  1  0  0  0  0
  5  9  2  0  0  0  0
  6  4  2  0  0  0  0
  7  8  2  0  0  0  0
  8  6  1  0  0  0  0
  9 26  1  0  0  0  0
 11 10  1  1  0  0  0
 11  1  1  0  0  0  0
 11  6  1  0  0  0  0
 12  7  1  0  0  0  0
 12 10  2  0  0  0  0
 13 14  2  0  0  0  0
 14 16  1  0  0  0  0
 15 17  1  0  0  0  0
 17 16  2  0  0  0  0
 17  1  1  0  0  0  0
 18 22  1  0  0  0  0
 19 24  1  0  0  0  0
 20 28  1  0  0  0  0
 21 20  2  0  0  0  0
 22 21  1  0  0  0  0
 23 25  2  0  0  0  0
 24 22  2  0  0  0  0
 24 23  1  0  0  0  0
 25 20  1  0  0  0  0
 26 27  1  0  0  0  0
 26 19  2  0  0  0  0
 27 18  2  0  0  0  0
 28 29  1  0  0  0  0
 28 30  2  0  0  0  0
 31 13  1  0  0  0  0
 31 32  1  0  0  0  0
 32 33  1  6  0  0  0
 34 32  1  0  0  0  0
M  END
>  <MODEL>
6

>  <REMARK>
 VINA RESULT:      -9.1      3.639     10.571
  Name = 
  4 active torsions:
  status: ('A' for Active; 'I' for Inactive)
    1  A    between atoms: C_3  and  C_25
    2  A    between atoms: C_7  and  C_11
    3  A    between atoms: C_18  and  C_30
    4  A    between atoms: C_23  and  C_25
                            x       y       z     vdW  Elec       q    Type
                         _______ _______ _______ _____ _____    ______ ____

>  <TORSDO>
F 4

$$$$
=
 OpenBabel10272415263D

 34 39  0  0  1  0  0  0  0  0999 V2000
  191.2010  176.4260  137.9490 N   0  0  0  0  0  0  0  0  0  0  0  0
  194.0540  175.4410  135.6210 C   0  0  0  0  0  2  0  0  0  0  0  0
  191.7250  176.0120  135.2160 C   0  0  0  0  0  3  0  0  0  0  0  0
  188.5760  177.0320  138.7240 N   0  0  0  0  0  0  0  0  0  0  0  0
  190.8770  176.6310  139.3350 C   0  0  0  0  0  3  0  0  0  0  0  0
  188.7910  176.8860  137.4510 C   0  0  0  0  0  0  0  0  0  0  0  0
  188.0920  176.8210  135.0490 C   0  0  0  0  0  3  0  0  0  0  0  0
  187.6610  177.0410  136.4770 C   0  0  0  0  0  2  0  0  0  0  0  0
  189.6170  176.9070  139.7160 C   0  0  0  0  0  0  0  0  0  0  0  0
  190.3830  176.4060  135.6720 C   0  0  0  0  0  0  0  0  0  0  0  0
  190.1470  176.5710  136.9800 C   0  0  0  0  0  0  0  0  0  0  0  0
  189.3190  176.5370  134.7180 N   0  0  0  0  0  0  0  0  0  0  0  0
  194.9430  175.0160  136.5270 C   0  0  0  0  0  0  0  0  0  0  0  0
  194.5910  174.9740  137.9650 C   0  0  0  0  0  3  0  0  0  0  0  0
  192.7470  175.9400  136.0700 C   0  0  0  0  0  0  0  0  0  0  0  0
  193.4800  175.5620  138.4250 C   0  0  0  0  0  3  0  0  0  0  0  0
  192.6030  176.3830  137.5120 C   0  0  0  0  0  0  0  0  0  0  0  0
  189.9430  177.1170  143.4930 C   0  0  0  0  0  3  0  0  0  0  0  0
  187.9890  177.4740  141.5160 C   0  0  0  0  0  3  0  0  0  0  0  0
  187.0150  178.0450  145.5680 C   0  0  0  0  0  0  0  0  0  0  0  0
  188.3190  177.6750  145.2010 C   0  0  0  0  0  3  0  0  0  0  0  0
  188.6460  177.4840  143.8560 C   0  0  0  0  0  0  0  0  0  0  0  0
  186.3640  178.0330  143.2230 C   0  0  0  0  0  3  0  0  0  0  0  0
  187.6610  177.6650  142.8600 C   0  0  0  0  0  0  0  0  0  0  0  0
  186.0440  178.2220  144.5710 C   0  0  0  0  0  3  0  0  0  0  0  0
  189.2900  177.1050  141.1450 C   0  0  0  0  0  0  0  0  0  0  0  0
  190.2630  176.9280  142.1460 C   0  0  0  0  0  3  0  0  0  0  0  0
  186.6710  178.2450  146.9870 C   0  0  0  0  0  0  0  0  0  0  0  0
  185.3810  178.7250  147.3550 N   0  0  0  0  0  1  0  0  0  0  0  0
  187.5140  177.9930  147.8870 O   0  0  0  0  0  0  0  0  0  0  0  0
  196.2680  174.5020  136.0730 C   0  0  0  0  0  2  0  0  0  0  0  0
  197.1960  174.2800  137.2570 C   0  0  1  0  0  3  0  0  0  0  0  0
  198.0970  173.0980  136.9730 C   0  0  0  0  0  1  0  0  0  0  0  0
  197.9790  175.4170  137.4670 O   0  0  0  0  0  1  0  0  0  0  0  0
  1  5  1  0  0  0  0
  2 15  1  0  0  0  0
  2 13  1  0  0  0  0
  3 10  1  0  0  0  0
  3 15  2  0  0  0  0
  4  9  1  0  0  0  0
  5  9  2  0  0  0  0
  6  4  2  0  0  0  0
  7  8  1  0  0  0  0
  8  6  1  0  0  0  0
  9 26  1  0  0  0  0
 10 11  2  0  0  0  0
 11  6  1  0  0  0  0
 11  1  1  0  0  0  0
 12  7  2  0  0  0  0
 12 10  1  0  0  0  0
 13 14  2  0  0  0  0
 14 16  1  0  0  0  0
 15 17  1  0  0  0  0
 17  1  1  0  0  0  0
 17 16  2  0  0  0  0
 18 22  1  0  0  0  0
 19 24  1  0  0  0  0
 20 28  1  0  0  0  0
 21 20  1  0  0  0  0
 22 21  2  0  0  0  0
 23 25  1  0  0  0  0
 24 23  2  0  0  0  0
 24 22  1  0  0  0  0
 25 20  2  0  0  0  0
 26 19  2  0  0  0  0
 26 27  1  0  0  0  0
 27 18  2  0  0  0  0
 28 29  1  0  0  0  0
 28 30  2  0  0  0  0
 31 13  1  0  0  0  0
 31 32  1  0  0  0  0
 32 33  1  6  0  0  0
 32 34  1  0  0  0  0
M  END
>  <MODEL>
7

>  <REMARK>
 VINA RESULT:      -9.1      3.203     11.079
  Name = 
  4 active torsions:
  status: ('A' for Active; 'I' for Inactive)
    1  A    between atoms: C_3  and  C_25
    2  A    between atoms: C_7  and  C_11
    3  A    between atoms: C_18  and  C_30
    4  A    between atoms: C_23  and  C_25
                            x       y       z     vdW  Elec       q    Type
                         _______ _______ _______ _____ _____    ______ ____

>  <TORSDO>
F 4

$$$$
=
 OpenBabel10272415263D

 34 39  0  0  1  0  0  0  0  0999 V2000
  189.2610  176.7120  138.0750 N   0  0  0  0  0  0  0  0  0  0  0  0
  187.0860  176.6360  134.9450 C   0  0  0  0  0  2  0  0  0  0  0  0
  189.4790  176.3640  135.2910 C   0  0  0  0  0  3  0  0  0  0  0  0
  191.6130  176.7400  139.6010 N   0  0  0  0  0  0  0  0  0  0  0  0
  189.2060  176.9030  139.4990 C   0  0  0  0  0  3  0  0  0  0  0  0
  191.7450  176.5380  138.3240 C   0  0  0  0  0  0  0  0  0  0  0  0
  193.0740  176.1320  136.2420 C   0  0  0  0  0  3  0  0  0  0  0  0
  193.1110  176.3360  137.7350 C   0  0  0  0  0  3  0  0  0  0  0  0
  190.3310  176.9320  140.2350 C   0  0  0  0  0  0  0  0  0  0  0  0
  190.6710  176.3130  136.1500 C   0  0  0  0  0  0  0  0  0  0  0  0
  190.5510  176.5080  137.4700 C   0  0  2  0  0  3  0  0  0  0  0  0
  191.9650  176.1280  135.5580 N   0  0  0  0  0  0  0  0  0  0  0  0
  185.9470  177.1180  135.4540 C   0  0  0  0  0  0  0  0  0  0  0  0
  185.8820  177.5620  136.8660 C   0  0  0  0  0  3  0  0  0  0  0  0
  188.2580  176.4750  135.8170 C   0  0  0  0  0  0  0  0  0  0  0  0
  186.8700  177.2890  137.7260 C   0  0  0  0  0  3  0  0  0  0  0  0
  188.0360  176.4230  137.3150 C   0  0  0  0  0  0  0  0  0  0  0  0
  191.3620  177.5230  143.8420 C   0  0  0  0  0  3  0  0  0  0  0  0
  189.0210  177.1550  142.3450 C   0  0  0  0  0  3  0  0  0  0  0  0
  188.7920  177.7450  146.5030 C   0  0  0  0  0  0  0  0  0  0  0  0
  190.0400  177.7320  145.8600 C   0  0  0  0  0  3  0  0  0  0  0  0
  190.1200  177.5360  144.4790 C   0  0  0  0  0  0  0  0  0  0  0  0
  187.6990  177.3640  144.3630 C   0  0  0  0  0  3  0  0  0  0  0  0
  188.9410  177.3510  143.7250 C   0  0  0  0  0  0  0  0  0  0  0  0
  187.6260  177.5600  145.7460 C   0  0  0  0  0  3  0  0  0  0  0  0
  190.2660  177.1410  141.6980 C   0  0  0  0  0  0  0  0  0  0  0  0
  191.4340  177.3260  142.4600 C   0  0  0  0  0  3  0  0  0  0  0  0
  188.7080  177.9510  147.9600 C   0  0  0  0  0  0  0  0  0  0  0  0
  187.5130  177.6310  148.6660 N   0  0  0  0  0  1  0  0  0  0  0  0
  189.6930  178.4120  148.5950 O   0  0  0  0  0  0  0  0  0  0  0  0
  184.7590  177.2880  134.5690 C   0  0  0  0  0  2  0  0  0  0  0  0
  183.4740  176.9970  135.3270 C   0  0  1  0  0  3  0  0  0  0  0  0
  182.3030  177.5950  134.5770 C   0  0  0  0  0  1  0  0  0  0  0  0
  183.2900  175.6180  135.4420 O   0  0  0  0  0  1  0  0  0  0  0  0
  1  5  1  0  0  0  0
  2 13  1  0  0  0  0
  2 15  1  0  0  0  0
  3 15  2  0  0  0  0
  3 10  1  0  0  0  0
  4  9  1  0  0  0  0
  5  9  2  0  0  0  0
  6  4  2  0  0  0  0
  7  8  2  0  0  0  0
  8  6  1  0  0  0  0
  9 26  1  0  0  0  0
 11 10  1  6  0  0  0
 11  1  1  0  0  0  0
 11  6  1  0  0  0  0
 12 10  2  0  0  0  0
 12  7  1  0  0  0  0
 13 14  2  0  0  0  0
 14 16  1  0  0  0  0
 15 17  1  0  0  0  0
 17 16  2  0  0  0  0
 17  1  1  0  0  0  0
 18 22  1  0  0  0  0
 19 24  1  0  0  0  0
 20 28  1  0  0  0  0
 21 20  1  0  0  0  0
 22 21  2  0  0  0  0
 23 25  1  0  0  0  0
 24 23  2  0  0  0  0
 24 22  1  0  0  0  0
 25 20  2  0  0  0  0
 26 19  2  0  0  0  0
 26 27  1  0  0  0  0
 27 18  2  0  0  0  0
 28 30  2  0  0  0  0
 28 29  1  0  0  0  0
 31 32  1  0  0  0  0
 31 13  1  0  0  0  0
 32 33  1  6  0  0  0
 32 34  1  0  0  0  0
M  END
>  <MODEL>
8

>  <REMARK>
 VINA RESULT:      -9.0      3.907      8.587
  Name = 
  4 active torsions:
  status: ('A' for Active; 'I' for Inactive)
    1  A    between atoms: C_3  and  C_25
    2  A    between atoms: C_7  and  C_11
    3  A    between atoms: C_18  and  C_30
    4  A    between atoms: C_23  and  C_25
                            x       y       z     vdW  Elec       q    Type
                         _______ _______ _______ _____ _____    ______ ____

>  <TORSDO>
F 4

$$$$
=
 OpenBabel10272415263D

 34 39  0  0  1  0  0  0  0  0999 V2000
  191.1440  176.4480  138.0260 N   0  0  0  0  0  0  0  0  0  0  0  0
  193.9240  175.4320  135.6240 C   0  0  0  0  0  2  0  0  0  0  0  0
  191.5940  176.0370  135.2790 C   0  0  0  0  0  3  0  0  0  0  0  0
  188.5480  177.0880  138.8700 N   0  0  0  0  0  0  0  0  0  0  0  0
  190.8580  176.6520  139.4210 C   0  0  0  0  0  3  0  0  0  0  0  0
  188.7300  176.9430  137.5910 C   0  0  0  0  0  0  0  0  0  0  0  0
  187.9690  176.8970  135.2070 C   0  0  0  0  0  3  0  0  0  0  0  0
  187.5770  177.1180  136.6460 C   0  0  0  0  0  2  0  0  0  0  0  0
  189.6130  176.9450  139.8340 C   0  0  0  0  0  0  0  0  0  0  0  0
  190.2690  176.4470  135.7710 C   0  0  0  0  0  0  0  0  0  0  0  0
  190.0680  176.6110  137.0850 C   0  0  0  0  0  0  0  0  0  0  0  0
  189.1830  176.5970  134.8440 N   0  0  0  0  0  0  0  0  0  0  0  0
  194.8290  174.9910  136.5060 C   0  0  0  0  0  0  0  0  0  0  0  0
  194.5130  174.9490  137.9520 C   0  0  0  0  0  3  0  0  0  0  0  0
  192.6360  175.9480  136.1070 C   0  0  0  0  0  0  0  0  0  0  0  0
  193.4230  175.5510  138.4420 C   0  0  0  0  0  3  0  0  0  0  0  0
  192.5350  176.3880  137.5540 C   0  0  0  0  0  0  0  0  0  0  0  0
  187.8010  177.7700  143.0680 C   0  0  0  0  0  3  0  0  0  0  0  0
  190.3220  176.8820  142.2230 C   0  0  0  0  0  3  0  0  0  0  0  0
  189.5450  177.4280  146.3200 C   0  0  0  0  0  0  0  0  0  0  0  0
  188.5440  177.6900  145.3710 C   0  0  0  0  0  3  0  0  0  0  0  0
  188.7980  177.5100  144.0100 C   0  0  0  0  0  0  0  0  0  0  0  0
  191.0650  176.8010  144.5270 C   0  0  0  0  0  3  0  0  0  0  0  0
  190.0680  177.0620  143.5850 C   0  0  0  0  0  0  0  0  0  0  0  0
  190.8030  176.9840  145.8880 C   0  0  0  0  0  3  0  0  0  0  0  0
  189.3240  177.1420  141.2710 C   0  0  0  0  0  0  0  0  0  0  0  0
  188.0630  177.5870  141.7070 C   0  0  0  0  0  3  0  0  0  0  0  0
  189.2760  177.6190  147.7570 C   0  0  0  0  0  0  0  0  0  0  0  0
  187.9760  177.3760  148.2860 N   0  0  0  0  0  1  0  0  0  0  0  0
  190.1930  178.0000  148.5300 O   0  0  0  0  0  0  0  0  0  0  0  0
  196.1350  174.4610  136.0170 C   0  0  0  0  0  2  0  0  0  0  0  0
  197.1420  174.3730  137.1530 C   0  0  1  0  0  3  0  0  0  0  0  0
  198.0130  173.1510  136.9570 C   0  0  0  0  0  1  0  0  0  0  0  0
  197.9460  175.5150  137.1660 O   0  0  0  0  0  1  0  0  0  0  0  0
  1  5  1  0  0  0  0
  2 15  1  0  0  0  0
  2 13  1  0  0  0  0
  3 10  1  0  0  0  0
  3 15  2  0  0  0  0
  4  9  1  0  0  0  0
  5  9  2  0  0  0  0
  6  4  2  0  0  0  0
  7  8  1  0  0  0  0
  8  6  1  0  0  0  0
  9 26  1  0  0  0  0
 10 11  2  0  0  0  0
 11  6  1  0  0  0  0
 11  1  1  0  0  0  0
 12  7  2  0  0  0  0
 12 10  1  0  0  0  0
 13 14  2  0  0  0  0
 14 16  1  0  0  0  0
 15 17  1  0  0  0  0
 17  1  1  0  0  0  0
 17 16  2  0  0  0  0
 18 22  1  0  0  0  0
 19 24  1  0  0  0  0
 20 28  1  0  0  0  0
 21 20  2  0  0  0  0
 22 21  1  0  0  0  0
 23 25  2  0  0  0  0
 24 22  2  0  0  0  0
 24 23  1  0  0  0  0
 25 20  1  0  0  0  0
 26 27  1  0  0  0  0
 26 19  2  0  0  0  0
 27 18  2  0  0  0  0
 28 29  1  0  0  0  0
 28 30  2  0  0  0  0
 31 13  1  0  0  0  0
 31 32  1  0  0  0  0
 32 33  1  6  0  0  0
 32 34  1  0  0  0  0
M  END
>  <MODEL>
9

>  <REMARK>
 VINA RESULT:      -8.9      3.917     10.980
  Name = 
  4 active torsions:
  status: ('A' for Active; 'I' for Inactive)
    1  A    between atoms: C_3  and  C_25
    2  A    between atoms: C_7  and  C_11
    3  A    between atoms: C_18  and  C_30
    4  A    between atoms: C_23  and  C_25
                            x       y       z     vdW  Elec       q    Type
                         _______ _______ _______ _____ _____    ______ ____

>  <TORSDO>
F 4

$$$$
