=
 OpenBabel10272400283D

 31 35  0  0  1  0  0  0  0  0999 V2000
  184.1700  178.8150  144.9620 C   0  0  0  0  0  0  0  0  0  0  0  0
  187.7980  177.6020  144.7200 C   0  0  0  0  0  0  0  0  0  0  0  0
  188.3010  177.5390  145.9850 C   0  0  1  0  0  3  0  0  0  0  0  0
  188.1460  178.1040  148.3650 C   0  0  0  0  0  0  0  0  0  0  0  0
  186.4020  178.0250  144.3780 C   0  0  0  0  0  0  0  0  0  0  0  0
  183.7890  178.7520  143.6220 C   0  0  0  0  0  3  0  0  0  0  0  0
  187.5430  177.9690  147.1810 C   0  0  0  0  0  3  0  0  0  0  0  0
  188.2390  177.2380  142.3170 C   0  0  0  0  0  0  0  0  0  0  0  0
  183.2840  179.2240  145.9010 F   0  0  0  0  0  0  0  0  0  0  0  0
  190.5900  176.9040  145.0840 C   0  0  0  0  0  3  0  0  0  0  0  0
  187.4280  178.5200  149.4360 F   0  0  0  0  0  0  0  0  0  0  0  0
  186.9030  177.5580  142.0430 O   0  0  0  0  0  0  0  0  0  0  0  0
  188.7010  177.2510  143.5810 C   0  0  0  0  0  0  0  0  0  0  0  0
  185.4650  178.4510  145.3360 C   0  0  0  0  0  3  0  0  0  0  0  0
  189.6000  177.8930  148.5000 C   0  0  0  0  0  3  0  0  0  0  0  0
  186.0040  177.9700  143.0290 C   0  0  2  0  0  3  0  0  0  0  0  0
  184.7050  178.3310  142.6570 C   0  0  0  0  0  3  0  0  0  0  0  0
  190.1360  177.0270  143.8420 C   0  0  0  0  0  3  0  0  0  0  0  0
  189.6480  176.8790  146.2460 C   0  0  1  0  0  3  0  0  0  0  0  0
  190.3140  177.3640  147.5030 C   0  0  0  0  0  3  0  0  0  0  0  0
  188.6350  178.7280  139.8650 O   0  0  0  0  0  0  0  0  0  0  0  0
  189.2950  177.6670  140.0340 C   0  0  0  0  0  0  0  0  0  0  0  0
  189.1230  176.9030  141.2370 N   0  0  0  0  0  2  0  0  0  0  0  0
  191.9510  176.2790  136.9490 C   0  0  0  0  0  0  0  0  0  0  0  0
  189.7400  176.8460  137.7400 C   0  0  0  0  0  3  0  0  0  0  0  0
  192.2970  177.4140  140.5230 C   0  0  0  0  0  1  0  0  0  0  0  0
  192.7880  175.8290  135.9370 O   0  0  0  0  0  1  0  0  0  0  0  0
  190.5800  176.3930  136.7220 C   0  0  0  0  0  3  0  0  0  0  0  0
  191.6490  177.0730  139.2230 C   0  0  0  0  0  0  0  0  0  0  0  0
  190.2520  177.1930  139.0020 C   0  0  0  0  0  0  0  0  0  0  0  0
  192.4800  176.6180  138.1940 C   0  0  0  0  0  3  0  0  0  0  0  0
  1 14  2  0  0  0  0
  1  9  1  0  0  0  0
  2  3  1  0  0  0  0
  3 19  1  0  0  0  0
  3  7  1  1  0  0  0
  4 15  1  0  0  0  0
  4 11  1  0  0  0  0
  5  2  2  0  0  0  0
  5 14  1  0  0  0  0
  6  1  1  0  0  0  0
  7  4  2  0  0  0  0
  8 13  2  0  0  0  0
 12  8  1  0  0  0  0
 12 16  1  0  0  0  0
 13 18  1  0  0  0  0
 13  2  1  0  0  0  0
 16 17  1  6  0  0  0
 16  5  1  0  0  0  0
 17  6  2  0  0  0  0
 18 10  2  0  0  0  0
 19 10  1  6  0  0  0
 19 20  1  0  0  0  0
 20 15  2  0  0  0  0
 21 22  2  0  0  0  0
 22 23  1  0  0  0  0
 23  8  1  0  0  0  0
 24 31  1  0  0  0  0
 25 30  2  0  0  0  0
 27 24  1  0  0  0  0
 28 24  2  0  0  0  0
 28 25  1  0  0  0  0
 29 26  1  0  0  0  0
 30 29  1  0  0  0  0
 30 22  1  0  0  0  0
 31 29  2  0  0  0  0
M  END
>  <MODEL>
1

>  <REMARK>
 VINA RESULT:     -11.7      0.000      0.000
  Name = 
  2 active torsions:
  status: ('A' for Active; 'I' for Inactive)
    1  A    between atoms: C_9  and  C_22
    2  A    between atoms: C_15  and  N_23
                            x       y       z     vdW  Elec       q    Type
                         _______ _______ _______ _____ _____    ______ ____

>  <TORSDO>
F 2

$$$$
=
 OpenBabel10272400283D

 31 35  0  0  1  0  0  0  0  0999 V2000
  184.2380  178.7890  145.0230 C   0  0  0  0  0  0  0  0  0  0  0  0
  187.8630  177.5750  144.7480 C   0  0  0  0  0  0  0  0  0  0  0  0
  188.3740  177.4990  146.0090 C   0  0  1  0  0  3  0  0  0  0  0  0
  188.2320  178.0380  148.3970 C   0  0  0  0  0  0  0  0  0  0  0  0
  186.4660  178.0040  144.4190 C   0  0  0  0  0  0  0  0  0  0  0  0
  183.8490  178.7410  143.6850 C   0  0  0  0  0  3  0  0  0  0  0  0
  187.6230  177.9160  147.2140 C   0  0  0  0  0  3  0  0  0  0  0  0
  188.2910  177.2370  142.3390 C   0  0  0  0  0  0  0  0  0  0  0  0
  183.3570  179.1880  145.9710 F   0  0  0  0  0  0  0  0  0  0  0  0
  190.6570  176.8710  145.0880 C   0  0  0  0  0  3  0  0  0  0  0  0
  187.5210  178.4430  149.4760 F   0  0  0  0  0  0  0  0  0  0  0  0
  186.9530  177.5610  142.0760 O   0  0  0  0  0  0  0  0  0  0  0  0
  188.7590  177.2360  143.6000 C   0  0  0  0  0  0  0  0  0  0  0  0
  185.5350  178.4200  145.3860 C   0  0  0  0  0  3  0  0  0  0  0  0
  189.6860  177.8240  148.5210 C   0  0  0  0  0  3  0  0  0  0  0  0
  186.0600  177.9630  143.0710 C   0  0  2  0  0  3  0  0  0  0  0  0
  184.7600  178.3290  142.7100 C   0  0  0  0  0  3  0  0  0  0  0  0
  190.1960  177.0080  143.8500 C   0  0  0  0  0  3  0  0  0  0  0  0
  189.7210  176.8340  146.2560 C   0  0  1  0  0  3  0  0  0  0  0  0
  190.3940  177.3050  147.5140 C   0  0  0  0  0  3  0  0  0  0  0  0
  188.6060  178.7030  139.8610 O   0  0  0  0  0  0  0  0  0  0  0  0
  189.2990  177.6640  140.0350 C   0  0  0  0  0  0  0  0  0  0  0  0
  189.1690  176.9130  141.2500 N   0  0  0  0  0  2  0  0  0  0  0  0
  192.1750  176.3310  137.1270 C   0  0  0  0  0  0  0  0  0  0  0  0
  191.5850  176.9710  139.3800 C   0  0  0  0  0  3  0  0  0  0  0  0
  188.5130  177.2090  137.1210 C   0  0  0  0  0  1  0  0  0  0  0  0
  193.1210  175.9000  136.2070 O   0  0  0  0  0  1  0  0  0  0  0  0
  192.5380  176.5380  138.4570 C   0  0  0  0  0  3  0  0  0  0  0  0
  189.8960  176.9920  137.6380 C   0  0  0  0  0  0  0  0  0  0  0  0
  190.2550  177.2050  138.9950 C   0  0  0  0  0  0  0  0  0  0  0  0
  190.8590  176.5570  136.7220 C   0  0  0  0  0  3  0  0  0  0  0  0
  1 14  2  0  0  0  0
  1  9  1  0  0  0  0
  2  3  1  0  0  0  0
  3 19  1  0  0  0  0
  3  7  1  1  0  0  0
  4 15  1  0  0  0  0
  4 11  1  0  0  0  0
  5  2  2  0  0  0  0
  5 14  1  0  0  0  0
  6  1  1  0  0  0  0
  7  4  2  0  0  0  0
  8 13  2  0  0  0  0
 12  8  1  0  0  0  0
 12 16  1  0  0  0  0
 13 18  1  0  0  0  0
 13  2  1  0  0  0  0
 16 17  1  6  0  0  0
 16  5  1  0  0  0  0
 17  6  2  0  0  0  0
 18 10  2  0  0  0  0
 19 10  1  6  0  0  0
 19 20  1  0  0  0  0
 20 15  2  0  0  0  0
 21 22  2  0  0  0  0
 22 23  1  0  0  0  0
 23  8  1  0  0  0  0
 24 28  1  0  0  0  0
 26 29  1  0  0  0  0
 27 24  1  0  0  0  0
 28 25  2  0  0  0  0
 29 30  2  0  0  0  0
 30 25  1  0  0  0  0
 30 22  1  0  0  0  0
 31 24  2  0  0  0  0
 31 29  1  0  0  0  0
M  END
>  <MODEL>
2

>  <REMARK>
 VINA RESULT:     -11.6      0.297      1.267
  Name = 
  2 active torsions:
  status: ('A' for Active; 'I' for Inactive)
    1  A    between atoms: C_9  and  C_22
    2  A    between atoms: C_15  and  N_23
                            x       y       z     vdW  Elec       q    Type
                         _______ _______ _______ _____ _____    ______ ____

>  <TORSDO>
F 2

$$$$
=
 OpenBabel10272400283D

 31 35  0  0  1  0  0  0  0  0999 V2000
  190.4090  177.0290  147.1170 C   0  0  0  0  0  0  0  0  0  0  0  0
  188.0980  177.6390  144.1210 C   0  0  0  0  0  0  0  0  0  0  0  0
  186.9230  178.1390  144.5960 C   0  0  1  0  0  3  0  0  0  0  0  0
  185.4030  178.5810  146.4680 C   0  0  0  0  0  0  0  0  0  0  0  0
  189.2750  177.2710  144.9730 C   0  0  0  0  0  0  0  0  0  0  0  0
  191.5650  176.5990  146.4660 C   0  0  0  0  0  3  0  0  0  0  0  0
  186.6370  178.3030  146.0390 C   0  0  0  0  0  3  0  0  0  0  0  0
  189.3830  176.9730  142.1190 C   0  0  0  0  0  0  0  0  0  0  0  0
  190.3870  177.1240  148.4680 F   0  0  0  0  0  0  0  0  0  0  0  0
  185.9220  178.1100  142.2620 C   0  0  0  0  0  3  0  0  0  0  0  0
  185.1690  178.7040  147.7960 F   0  0  0  0  0  0  0  0  0  0  0  0
  190.4910  176.7210  142.9380 O   0  0  0  0  0  0  0  0  0  0  0  0
  188.2250  177.4090  142.6490 C   0  0  0  0  0  0  0  0  0  0  0  0
  189.2750  177.3650  146.3750 C   0  0  0  0  0  3  0  0  0  0  0  0
  184.2760  178.6660  145.5200 C   0  0  0  0  0  3  0  0  0  0  0  0
  190.4480  176.8340  144.3300 C   0  0  2  0  0  3  0  0  0  0  0  0
  191.5840  176.5010  145.0740 C   0  0  0  0  0  3  0  0  0  0  0  0
  187.0340  177.5570  141.7910 C   0  0  0  0  0  3  0  0  0  0  0  0
  185.8790  178.6960  143.6380 C   0  0  1  0  0  3  0  0  0  0  0  0
  184.4860  178.6760  144.2010 C   0  0  0  0  0  3  0  0  0  0  0  0
  191.6390  177.6000  140.4150 O   0  0  0  0  0  0  0  0  0  0  0  0
  190.6190  177.0770  139.8900 C   0  0  0  0  0  0  0  0  0  0  0  0
  189.4830  176.7540  140.7040 N   0  0  0  0  0  2  0  0  0  0  0  0
  190.5880  176.1280  135.6950 C   0  0  0  0  0  0  0  0  0  0  0  0
  191.3140  175.6930  137.9580 C   0  0  0  0  0  3  0  0  0  0  0  0
  189.0170  178.7460  137.8980 C   0  0  0  0  0  1  0  0  0  0  0  0
  190.5940  175.8010  134.3460 O   0  0  0  0  0  1  0  0  0  0  0  0
  191.3220  175.3630  136.6020 C   0  0  0  0  0  3  0  0  0  0  0  0
  189.8340  177.5620  137.5020 C   0  0  0  0  0  0  0  0  0  0  0  0
  190.5770  176.7900  138.4340 C   0  0  0  0  0  0  0  0  0  0  0  0
  189.8490  177.2220  136.1460 C   0  0  0  0  0  3  0  0  0  0  0  0
  1  9  1  0  0  0  0
  2  3  1  0  0  0  0
  2  5  2  0  0  0  0
  3  7  1  1  0  0  0
  4 11  1  0  0  0  0
  5 14  1  0  0  0  0
  6  1  1  0  0  0  0
  7  4  2  0  0  0  0
  8 13  2  0  0  0  0
  8 12  1  0  0  0  0
 12 16  1  0  0  0  0
 13  2  1  0  0  0  0
 14  1  2  0  0  0  0
 15  4  1  0  0  0  0
 16  5  1  0  0  0  0
 16 17  1  1  0  0  0
 17  6  2  0  0  0  0
 18 10  2  0  0  0  0
 18 13  1  0  0  0  0
 19 10  1  6  0  0  0
 19 20  1  0  0  0  0
 19  3  1  0  0  0  0
 20 15  2  0  0  0  0
 22 21  2  0  0  0  0
 22 23  1  0  0  0  0
 23  8  1  0  0  0  0
 24 31  2  0  0  0  0
 24 28  1  0  0  0  0
 25 30  1  0  0  0  0
 27 24  1  0  0  0  0
 28 25  2  0  0  0  0
 29 26  1  0  0  0  0
 29 30  2  0  0  0  0
 30 22  1  0  0  0  0
 31 29  1  0  0  0  0
M  END
>  <MODEL>
3

>  <REMARK>
 VINA RESULT:     -10.7      1.621      4.216
  Name = 
  2 active torsions:
  status: ('A' for Active; 'I' for Inactive)
    1  A    between atoms: C_9  and  C_22
    2  A    between atoms: C_15  and  N_23
                            x       y       z     vdW  Elec       q    Type
                         _______ _______ _______ _____ _____    ______ ____

>  <TORSDO>
F 2

$$$$
=
 OpenBabel10272400283D

 31 35  0  0  1  0  0  0  0  0999 V2000
  183.4320  178.8350  138.6320 C   0  0  0  0  0  0  0  0  0  0  0  0
  187.1790  178.2710  139.2070 C   0  0  0  0  0  0  0  0  0  0  0  0
  187.7740  178.1540  137.9880 C   0  0  1  0  0  3  0  0  0  0  0  0
  187.6100  177.8230  135.5640 C   0  0  0  0  0  0  0  0  0  0  0  0
  185.7150  178.5080  139.4220 C   0  0  0  0  0  0  0  0  0  0  0  0
  182.9930  179.0050  139.9440 C   0  0  0  0  0  3  0  0  0  0  0  0
  187.0220  178.1640  136.7130 C   0  0  0  0  0  3  0  0  0  0  0  0
  187.5060  178.2930  141.6560 C   0  0  0  0  0  0  0  0  0  0  0  0
  182.5490  178.9110  137.6070 F   0  0  0  0  0  0  0  0  0  0  0  0
  190.0100  177.6500  139.0850 C   0  0  0  0  0  3  0  0  0  0  0  0
  186.8880  177.8220  134.4180 F   0  0  0  0  0  0  0  0  0  0  0  0
  186.1470  178.5990  141.8150 O   0  0  0  0  0  0  0  0  0  0  0  0
  188.0300  178.1280  140.4280 C   0  0  0  0  0  0  0  0  0  0  0  0
  184.7820  178.5920  138.3740 C   0  0  0  0  0  2  0  0  0  0  0  0
  189.0110  177.3620  135.5420 C   0  0  0  0  0  3  0  0  0  0  0  0
  185.2570  178.6790  140.7420 C   0  0  0  0  0  0  0  0  0  0  0  0
  183.9050  178.9260  140.9980 C   0  0  0  0  0  3  0  0  0  0  0  0
  189.4330  177.6910  140.2810 C   0  0  0  0  0  3  0  0  0  0  0  0
  189.2920  178.1470  137.8690 C   0  0  1  0  0  3  0  0  0  0  0  0
  189.7880  177.4690  136.6230 C   0  0  0  0  0  3  0  0  0  0  0  0
  187.8780  175.8980  143.2420 O   0  0  0  0  0  0  0  0  0  0  0  0
  188.5000  176.9420  143.5780 C   0  0  0  0  0  0  0  0  0  0  0  0
  188.3390  178.1470  142.8150 N   0  0  0  0  0  2  0  0  0  0  0  0
  191.2280  176.9040  146.9030 C   0  0  0  0  0  0  0  0  0  0  0  0
  190.7540  176.6190  144.5520 C   0  0  0  0  0  3  0  0  0  0  0  0
  187.5620  177.6070  146.4050 C   0  0  0  0  0  1  0  0  0  0  0  0
  192.1270  176.8850  147.9600 O   0  0  0  0  0  1  0  0  0  0  0  0
  191.6600  176.5990  145.6130 C   0  0  0  0  0  3  0  0  0  0  0  0
  188.9730  177.2500  146.0750 C   0  0  0  0  0  0  0  0  0  0  0  0
  189.4030  176.9430  144.7570 C   0  0  0  0  0  0  0  0  0  0  0  0
  189.8900  177.2270  147.1300 C   0  0  0  0  0  3  0  0  0  0  0  0
  1  6  2  0  0  0  0
  2  5  2  0  0  0  0
  2 13  1  0  0  0  0
  3  7  1  6  0  0  0
  3  2  1  0  0  0  0
  4  7  2  0  0  0  0
  5 16  1  0  0  0  0
  6 17  1  0  0  0  0
  8 12  1  0  0  0  0
  8 23  1  0  0  0  0
  9  1  1  0  0  0  0
 10 18  2  0  0  0  0
 11  4  1  0  0  0  0
 13  8  2  0  0  0  0
 14  1  1  0  0  0  0
 14  5  1  0  0  0  0
 15  4  1  0  0  0  0
 15 20  2  0  0  0  0
 16 17  2  0  0  0  0
 16 12  1  0  0  0  0
 18 13  1  0  0  0  0
 19 20  1  6  0  0  0
 19  3  1  0  0  0  0
 19 10  1  0  0  0  0
 21 22  2  0  0  0  0
 22 30  1  0  0  0  0
 23 22  1  0  0  0  0
 24 31  1  0  0  0  0
 24 27  1  0  0  0  0
 25 30  2  0  0  0  0
 25 28  1  0  0  0  0
 28 24  2  0  0  0  0
 29 26  1  0  0  0  0
 29 31  2  0  0  0  0
 30 29  1  0  0  0  0
M  END
>  <MODEL>
4

>  <REMARK>
 VINA RESULT:     -10.6      3.646      7.774
  Name = 
  2 active torsions:
  status: ('A' for Active; 'I' for Inactive)
    1  A    between atoms: C_9  and  C_22
    2  A    between atoms: C_15  and  N_23
                            x       y       z     vdW  Elec       q    Type
                         _______ _______ _______ _____ _____    ______ ____

>  <TORSDO>
F 2

$$$$
=
 OpenBabel10272400283D

 31 35  0  0  1  0  0  0  0  0999 V2000
  187.4570  178.5840  136.4130 C   0  0  0  0  0  0  0  0  0  0  0  0
  186.2390  178.3590  140.0400 C   0  0  0  0  0  0  0  0  0  0  0  0
  184.8800  178.4400  140.0280 C   0  0  1  0  0  3  0  0  0  0  0  0
  182.7900  178.9630  138.8560 C   0  0  0  0  0  0  0  0  0  0  0  0
  187.1060  178.4010  138.8190 C   0  0  0  0  0  0  0  0  0  0  0  0
  188.8300  178.4140  136.5920 C   0  0  0  0  0  3  0  0  0  0  0  0
  184.0910  178.6660  138.7960 C   0  0  0  0  0  3  0  0  0  0  0  0
  188.2670  178.1050  141.4280 C   0  0  0  0  0  0  0  0  0  0  0  0
  186.9520  178.7540  135.1680 F   0  0  0  0  0  0  0  0  0  0  0  0
  184.8180  178.4180  142.5680 C   0  0  0  0  0  3  0  0  0  0  0  0
  182.1020  179.1850  137.7110 F   0  0  0  0  0  0  0  0  0  0  0  0
  189.0380  178.0630  140.2590 O   0  0  0  0  0  0  0  0  0  0  0  0
  186.9300  178.2480  141.3610 C   0  0  0  0  0  0  0  0  0  0  0  0
  186.6030  178.5740  137.5170 C   0  0  0  0  0  2  0  0  0  0  0  0
  182.1170  179.1400  140.1570 C   0  0  0  0  0  3  0  0  0  0  0  0
  188.4940  178.2330  138.9840 C   0  0  0  0  0  0  0  0  0  0  0  0
  189.3470  178.2390  137.8760 C   0  0  0  0  0  3  0  0  0  0  0  0
  186.1460  178.4090  142.6010 C   0  0  0  0  0  3  0  0  0  0  0  0
  184.0800  178.1570  141.2930 C   0  0  1  0  0  3  0  0  0  0  0  0
  182.7250  178.8080  141.2980 C   0  0  0  0  0  3  0  0  0  0  0  0
  188.6250  175.7090  143.0150 O   0  0  0  0  0  0  0  0  0  0  0  0
  189.0720  176.7980  143.4660 C   0  0  0  0  0  0  0  0  0  0  0  0
  188.9110  178.0050  142.7060 N   0  0  0  0  0  2  0  0  0  0  0  0
  191.2060  176.9040  147.1990 C   0  0  0  0  0  0  0  0  0  0  0  0
  191.1240  176.4960  144.8190 C   0  0  0  0  0  3  0  0  0  0  0  0
  187.6920  177.6340  146.0580 C   0  0  0  0  0  1  0  0  0  0  0  0
  191.9170  176.9310  148.3910 O   0  0  0  0  0  1  0  0  0  0  0  0
  191.8400  176.5220  146.0170 C   0  0  0  0  0  3  0  0  0  0  0  0
  189.1290  177.2380  145.9870 C   0  0  0  0  0  0  0  0  0  0  0  0
  189.7650  176.8510  144.7780 C   0  0  0  0  0  0  0  0  0  0  0  0
  189.8570  177.2600  147.1810 C   0  0  0  0  0  3  0  0  0  0  0  0
  1  6  2  0  0  0  0
  1 14  1  0  0  0  0
  2 13  1  0  0  0  0
  3  7  1  6  0  0  0
  3  2  1  0  0  0  0
  3 19  1  0  0  0  0
  4 15  1  0  0  0  0
  5 16  1  0  0  0  0
  5  2  2  0  0  0  0
  6 17  1  0  0  0  0
  7  4  2  0  0  0  0
  8 23  1  0  0  0  0
  9  1  1  0  0  0  0
 10 18  2  0  0  0  0
 11  4  1  0  0  0  0
 12  8  1  0  0  0  0
 13  8  2  0  0  0  0
 13 18  1  0  0  0  0
 14  5  1  0  0  0  0
 15 20  2  0  0  0  0
 16 12  1  0  0  0  0
 17 16  2  0  0  0  0
 19 20  1  1  0  0  0
 19 10  1  0  0  0  0
 21 22  2  0  0  0  0
 22 30  1  0  0  0  0
 23 22  1  0  0  0  0
 24 27  1  0  0  0  0
 25 28  1  0  0  0  0
 28 24  2  0  0  0  0
 29 26  1  0  0  0  0
 29 31  2  0  0  0  0
 30 25  2  0  0  0  0
 30 29  1  0  0  0  0
 31 24  1  0  0  0  0
M  END
>  <MODEL>
5

>  <REMARK>
 VINA RESULT:     -10.5      3.579      7.864
  Name = 
  2 active torsions:
  status: ('A' for Active; 'I' for Inactive)
    1  A    between atoms: C_9  and  C_22
    2  A    between atoms: C_15  and  N_23
                            x       y       z     vdW  Elec       q    Type
                         _______ _______ _______ _____ _____    ______ ____

>  <TORSDO>
F 2

$$$$
=
 OpenBabel10272400283D

 31 35  0  0  1  0  0  0  0  0999 V2000
  190.2010  176.7820  142.6700 C   0  0  0  0  0  0  0  0  0  0  0  0
  186.7090  178.3010  143.0980 C   0  0  0  0  0  0  0  0  0  0  0  0
  186.4370  178.3500  144.4320 C   0  0  1  0  0  3  0  0  0  0  0  0
  186.9460  177.6710  146.7330 C   0  0  0  0  0  0  0  0  0  0  0  0
  187.9820  177.7780  142.5060 C   0  0  0  0  0  0  0  0  0  0  0  0
  190.3520  176.8700  141.2860 C   0  0  0  0  0  3  0  0  0  0  0  0
  187.3470  177.8070  145.4660 C   0  0  0  0  0  3  0  0  0  0  0  0
  185.8970  178.8040  140.8200 C   0  0  0  0  0  0  0  0  0  0  0  0
  191.1960  176.2600  143.4280 F   0  0  0  0  0  0  0  0  0  0  0  0
  184.0940  179.2110  143.9620 C   0  0  0  0  0  3  0  0  0  0  0  0
  187.7960  177.1520  147.6500 F   0  0  0  0  0  0  0  0  0  0  0  0
  187.1330  178.3860  140.3090 O   0  0  0  0  0  0  0  0  0  0  0  0
  185.6590  178.7740  142.1440 C   0  0  0  0  0  0  0  0  0  0  0  0
  189.0270  177.2350  143.2740 C   0  0  0  0  0  3  0  0  0  0  0  0
  185.5620  177.9960  147.1240 C   0  0  0  0  0  3  0  0  0  0  0  0
  188.1470  177.8590  141.1110 C   0  0  2  0  0  3  0  0  0  0  0  0
  189.3250  177.4080  140.5080 C   0  0  0  0  0  3  0  0  0  0  0  0
  184.3150  179.1050  142.6570 C   0  0  0  0  0  3  0  0  0  0  0  0
  185.2190  179.1080  144.9430 C   0  0  1  0  0  3  0  0  0  0  0  0
  184.7380  178.6250  146.2830 C   0  0  0  0  0  3  0  0  0  0  0  0
  183.6450  177.2750  139.8310 O   0  0  0  0  0  0  0  0  0  0  0  0
  183.7710  178.4700  139.4510 C   0  0  0  0  0  0  0  0  0  0  0  0
  184.8750  179.2570  139.9200 N   0  0  0  0  0  2  0  0  0  0  0  0
  180.9080  180.3500  136.8480 C   0  0  0  0  0  0  0  0  0  0  0  0
  182.2210  180.3150  138.8750 C   0  0  0  0  0  3  0  0  0  0  0  0
  182.9280  177.1720  136.8190 C   0  0  0  0  0  1  0  0  0  0  0  0
  179.9820  180.9760  136.0250 O   0  0  0  0  0  1  0  0  0  0  0  0
  181.2900  180.9460  138.0490 C   0  0  0  0  0  3  0  0  0  0  0  0
  182.3910  178.4800  137.2940 C   0  0  0  0  0  0  0  0  0  0  0  0
  182.7880  179.0790  138.5190 C   0  0  0  0  0  0  0  0  0  0  0  0
  181.4570  179.1230  136.4750 C   0  0  0  0  0  3  0  0  0  0  0  0
  1 14  2  0  0  0  0
  1  9  1  0  0  0  0
  2  3  1  0  0  0  0
  3 19  1  0  0  0  0
  3  7  1  1  0  0  0
  4 15  1  0  0  0  0
  4 11  1  0  0  0  0
  5  2  2  0  0  0  0
  5 14  1  0  0  0  0
  6  1  1  0  0  0  0
  7  4  2  0  0  0  0
  8 13  2  0  0  0  0
 12  8  1  0  0  0  0
 12 16  1  0  0  0  0
 13 18  1  0  0  0  0
 13  2  1  0  0  0  0
 16 17  1  6  0  0  0
 16  5  1  0  0  0  0
 17  6  2  0  0  0  0
 18 10  2  0  0  0  0
 19 10  1  6  0  0  0
 19 20  1  0  0  0  0
 20 15  2  0  0  0  0
 22 21  2  0  0  0  0
 22 23  1  0  0  0  0
 23  8  1  0  0  0  0
 24 28  1  0  0  0  0
 26 29  1  0  0  0  0
 27 24  1  0  0  0  0
 28 25  2  0  0  0  0
 29 30  2  0  0  0  0
 30 25  1  0  0  0  0
 30 22  1  0  0  0  0
 31 24  2  0  0  0  0
 31 29  1  0  0  0  0
M  END
>  <MODEL>
6

>  <REMARK>
 VINA RESULT:     -10.1      3.986      6.786
  Name = 
  2 active torsions:
  status: ('A' for Active; 'I' for Inactive)
    1  A    between atoms: C_9  and  C_22
    2  A    between atoms: C_15  and  N_23
                            x       y       z     vdW  Elec       q    Type
                         _______ _______ _______ _____ _____    ______ ____

>  <TORSDO>
F 2

$$$$
=
 OpenBabel10272400283D

 31 35  0  0  1  0  0  0  0  0999 V2000
  186.8150  178.0640  146.9660 C   0  0  0  0  0  0  0  0  0  0  0  0
  187.5160  177.9890  143.1980 C   0  0  0  0  0  0  0  0  0  0  0  0
  188.8050  177.5870  143.0220 C   0  0  1  0  0  3  0  0  0  0  0  0
  191.0420  177.1600  143.9310 C   0  0  0  0  0  0  0  0  0  0  0  0
  186.8440  178.1420  144.5290 C   0  0  0  0  0  0  0  0  0  0  0  0
  185.4650  178.4130  146.9690 C   0  0  0  0  0  3  0  0  0  0  0  0
  189.7350  177.3300  144.1450 C   0  0  0  0  0  3  0  0  0  0  0  0
  185.4130  178.6760  142.0980 C   0  0  0  0  0  0  0  0  0  0  0  0
  187.4640  177.8520  148.1360 F   0  0  0  0  0  0  0  0  0  0  0  0
  188.6120  177.9360  140.5130 C   0  0  0  0  0  3  0  0  0  0  0  0
  191.8690  176.9480  144.9820 F   0  0  0  0  0  0  0  0  0  0  0  0
  184.7950  178.7260  143.3540 O   0  0  0  0  0  0  0  0  0  0  0  0
  186.7090  178.3310  141.9870 C   0  0  0  0  0  0  0  0  0  0  0  0
  187.4970  177.9260  145.7550 C   0  0  0  0  0  3  0  0  0  0  0  0
  191.6070  177.2880  142.5740 C   0  0  0  0  0  3  0  0  0  0  0  0
  185.4820  178.4970  144.5480 C   0  0  2  0  0  3  0  0  0  0  0  0
  184.8000  178.6300  145.7620 C   0  0  0  0  0  3  0  0  0  0  0  0
  187.3770  178.3970  140.6720 C   0  0  0  0  0  3  0  0  0  0  0  0
  189.3210  177.2400  141.6330 C   0  0  1  0  0  3  0  0  0  0  0  0
  190.8130  177.3700  141.5030 C   0  0  0  0  0  3  0  0  0  0  0  0
  183.0850  177.2880  141.0780 O   0  0  0  0  0  0  0  0  0  0  0  0
  183.5070  178.2940  140.4460 C   0  0  0  0  0  0  0  0  0  0  0  0
  184.6580  179.0050  140.9230 N   0  0  0  0  0  2  0  0  0  0  0  0
  181.4800  179.7500  136.9430 C   0  0  0  0  0  0  0  0  0  0  0  0
  182.0710  179.9390  139.2780 C   0  0  0  0  0  3  0  0  0  0  0  0
  183.6690  176.8050  137.7870 C   0  0  0  0  0  1  0  0  0  0  0  0
  180.8180  180.2410  135.8260 O   0  0  0  0  0  1  0  0  0  0  0  0
  181.4030  180.4340  138.1560 C   0  0  0  0  0  3  0  0  0  0  0  0
  182.8970  178.0680  137.9700 C   0  0  0  0  0  0  0  0  0  0  0  0
  182.8260  178.7560  139.2100 C   0  0  0  0  0  0  0  0  0  0  0  0
  182.2240  178.5740  136.8530 C   0  0  0  0  0  3  0  0  0  0  0  0
  1  6  1  0  0  0  0
  1  9  1  0  0  0  0
  2  5  2  0  0  0  0
  3  2  1  0  0  0  0
  3  7  1  1  0  0  0
  4  7  2  0  0  0  0
  4 11  1  0  0  0  0
  5 16  1  0  0  0  0
  5 14  1  0  0  0  0
  8 12  1  0  0  0  0
 10 18  2  0  0  0  0
 12 16  1  0  0  0  0
 13  8  2  0  0  0  0
 13  2  1  0  0  0  0
 14  1  2  0  0  0  0
 15  4  1  0  0  0  0
 16 17  1  1  0  0  0
 17  6  2  0  0  0  0
 18 13  1  0  0  0  0
 19 10  1  6  0  0  0
 19  3  1  0  0  0  0
 20 19  1  0  0  0  0
 20 15  2  0  0  0  0
 22 23  1  0  0  0  0
 22 21  2  0  0  0  0
 23  8  1  0  0  0  0
 24 28  1  0  0  0  0
 26 29  1  0  0  0  0
 27 24  1  0  0  0  0
 28 25  2  0  0  0  0
 29 30  2  0  0  0  0
 30 25  1  0  0  0  0
 30 22  1  0  0  0  0
 31 24  2  0  0  0  0
 31 29  1  0  0  0  0
M  END
>  <MODEL>
7

>  <REMARK>
 VINA RESULT:     -10.1      3.650      6.255
  Name = 
  2 active torsions:
  status: ('A' for Active; 'I' for Inactive)
    1  A    between atoms: C_9  and  C_22
    2  A    between atoms: C_15  and  N_23
                            x       y       z     vdW  Elec       q    Type
                         _______ _______ _______ _____ _____    ______ ____

>  <TORSDO>
F 2

$$$$
=
 OpenBabel10272400283D

 31 35  0  0  1  0  0  0  0  0999 V2000
  184.9270  178.4870  146.2990 C   0  0  0  0  0  0  0  0  0  0  0  0
  188.1340  177.5070  144.4440 C   0  0  0  0  0  0  0  0  0  0  0  0
  189.0940  177.2530  145.3770 C   0  0  1  0  0  3  0  0  0  0  0  0
  189.9040  177.3940  147.6870 C   0  0  0  0  0  0  0  0  0  0  0  0
  186.7270  177.9160  144.7580 C   0  0  0  0  0  0  0  0  0  0  0  0
  184.0460  178.6370  145.2280 C   0  0  0  0  0  3  0  0  0  0  0  0
  188.8800  177.4350  146.8310 C   0  0  0  0  0  3  0  0  0  0  0  0
  187.5830  177.5820  142.0370 C   0  0  0  0  0  0  0  0  0  0  0  0
  184.4920  178.6870  147.5660 F   0  0  0  0  0  0  0  0  0  0  0  0
  190.8250  176.8910  143.5540 C   0  0  0  0  0  3  0  0  0  0  0  0
  189.6770  177.5850  149.0090 F   0  0  0  0  0  0  0  0  0  0  0  0
  186.2550  177.8800  142.3710 O   0  0  0  0  0  0  0  0  0  0  0  0
  188.5060  177.4000  143.0000 C   0  0  0  0  0  0  0  0  0  0  0  0
  186.2550  178.1270  146.0650 C   0  0  0  0  0  3  0  0  0  0  0  0
  191.2870  177.2320  147.2010 C   0  0  0  0  0  3  0  0  0  0  0  0
  185.8280  178.0740  143.6860 C   0  0  2  0  0  3  0  0  0  0  0  0
  184.4970  178.4310  143.9230 C   0  0  0  0  0  3  0  0  0  0  0  0
  189.9220  177.2030  142.6320 C   0  0  0  0  0  3  0  0  0  0  0  0
  190.4180  176.6220  144.9690 C   0  0  1  0  0  3  0  0  0  0  0  0
  191.5370  176.9160  145.9280 C   0  0  0  0  0  3  0  0  0  0  0  0
  186.4050  178.9940  139.8000 O   0  0  0  0  0  0  0  0  0  0  0  0
  187.3540  178.1960  139.5720 C   0  0  0  0  0  0  0  0  0  0  0  0
  187.9610  177.4800  140.6570 N   0  0  0  0  0  2  0  0  0  0  0  0
  188.9440  177.6370  135.6150 C   0  0  0  0  0  0  0  0  0  0  0  0
  189.2060  178.2760  137.9290 C   0  0  0  0  0  3  0  0  0  0  0  0
  185.6030  177.1760  137.2890 C   0  0  0  0  0  1  0  0  0  0  0  0
  189.4800  177.4640  134.3460 O   0  0  0  0  0  1  0  0  0  0  0  0
  189.7470  178.1030  136.6540 C   0  0  0  0  0  3  0  0  0  0  0  0
  187.0470  177.5130  137.1240 C   0  0  0  0  0  0  0  0  0  0  0  0
  187.8560  177.9860  138.1900 C   0  0  0  0  0  0  0  0  0  0  0  0
  187.6000  177.3440  135.8510 C   0  0  0  0  0  3  0  0  0  0  0  0
  1  9  1  0  0  0  0
  2  5  2  0  0  0  0
  2  3  1  0  0  0  0
  3  7  1  1  0  0  0
  4 11  1  0  0  0  0
  5 14  1  0  0  0  0
  6  1  1  0  0  0  0
  7  4  2  0  0  0  0
  8 12  1  0  0  0  0
  8 13  2  0  0  0  0
 12 16  1  0  0  0  0
 13  2  1  0  0  0  0
 14  1  2  0  0  0  0
 15  4  1  0  0  0  0
 16 17  1  6  0  0  0
 16  5  1  0  0  0  0
 17  6  2  0  0  0  0
 18 13  1  0  0  0  0
 18 10  2  0  0  0  0
 19 10  1  6  0  0  0
 19  3  1  0  0  0  0
 19 20  1  0  0  0  0
 20 15  2  0  0  0  0
 22 21  2  0  0  0  0
 22 23  1  0  0  0  0
 23  8  1  0  0  0  0
 24 31  2  0  0  0  0
 24 28  1  0  0  0  0
 25 30  1  0  0  0  0
 27 24  1  0  0  0  0
 28 25  2  0  0  0  0
 29 26  1  0  0  0  0
 29 30  2  0  0  0  0
 30 22  1  0  0  0  0
 31 29  1  0  0  0  0
M  END
>  <MODEL>
8

>  <REMARK>
 VINA RESULT:     -10.0      1.823      2.591
  Name = 
  2 active torsions:
  status: ('A' for Active; 'I' for Inactive)
    1  A    between atoms: C_9  and  C_22
    2  A    between atoms: C_15  and  N_23
                            x       y       z     vdW  Elec       q    Type
                         _______ _______ _______ _____ _____    ______ ____

>  <TORSDO>
F 2

$$$$
=
 OpenBabel10272400283D

 31 35  0  0  1  0  0  0  0  0999 V2000
  186.6010  177.6630  136.5840 C   0  0  0  0  0  0  0  0  0  0  0  0
  189.3800  177.4970  139.2180 C   0  0  0  0  0  0  0  0  0  0  0  0
  190.5440  177.1980  138.5770 C   0  0  1  0  0  3  0  0  0  0  0  0
  191.7310  176.4070  136.5820 C   0  0  0  0  0  0  0  0  0  0  0  0
  188.0530  177.6600  138.5430 C   0  0  0  0  0  0  0  0  0  0  0  0
  185.5180  178.0430  137.3770 C   0  0  0  0  0  3  0  0  0  0  0  0
  190.6210  176.9130  137.1260 C   0  0  0  0  0  3  0  0  0  0  0  0
  188.3020  178.0010  141.3830 C   0  0  0  0  0  0  0  0  0  0  0  0
  186.4350  177.4800  135.2520 F   0  0  0  0  0  0  0  0  0  0  0  0
  191.7790  177.0760  140.7940 C   0  0  0  0  0  3  0  0  0  0  0  0
  191.7620  176.1380  135.2560 F   0  0  0  0  0  0  0  0  0  0  0  0
  187.0960  178.2290  140.7070 O   0  0  0  0  0  0  0  0  0  0  0  0
  189.4100  177.6480  140.7060 C   0  0  0  0  0  0  0  0  0  0  0  0
  187.8580  177.4770  137.1630 C   0  0  0  0  0  2  0  0  0  0  0  0
  192.8910  176.0550  137.4240 C   0  0  0  0  0  3  0  0  0  0  0  0
  186.9500  178.0410  139.3310 C   0  0  0  0  0  0  0  0  0  0  0  0
  185.6930  178.2310  138.7490 C   0  0  0  0  0  3  0  0  0  0  0  0
  190.6410  177.2970  141.4410 C   0  0  0  0  0  3  0  0  0  0  0  0
  191.8740  177.2810  139.3150 C   0  0  1  0  0  3  0  0  0  0  0  0
  192.9460  176.4200  138.7080 C   0  0  0  0  0  3  0  0  0  0  0  0
  187.8570  175.9180  143.3460 O   0  0  0  0  0  0  0  0  0  0  0  0
  188.1250  177.0800  143.7560 C   0  0  0  0  0  0  0  0  0  0  0  0
  188.3510  178.1360  142.8110 N   0  0  0  0  0  2  0  0  0  0  0  0
  188.2250  177.9570  147.9650 C   0  0  0  0  0  0  0  0  0  0  0  0
  187.0310  177.7450  145.8760 C   0  0  0  0  0  3  0  0  0  0  0  0
  190.7240  176.9130  145.3480 C   0  0  0  0  0  1  0  0  0  0  0  0
  188.2320  178.2450  149.3230 O   0  0  0  0  0  1  0  0  0  0  0  0
  187.0360  178.0350  147.2410 C   0  0  0  0  0  3  0  0  0  0  0  0
  189.4160  177.2980  145.9550 C   0  0  0  0  0  0  0  0  0  0  0  0
  188.2100  177.3730  145.2090 C   0  0  0  0  0  0  0  0  0  0  0  0
  189.4080  177.5900  147.3230 C   0  0  0  0  0  3  0  0  0  0  0  0
  1 14  1  0  0  0  0
  1  6  2  0  0  0  0
  2 13  1  0  0  0  0
  3  7  1  6  0  0  0
  3  2  1  0  0  0  0
  3 19  1  0  0  0  0
  4  7  2  0  0  0  0
  4 15  1  0  0  0  0
  5  2  2  0  0  0  0
  5 16  1  0  0  0  0
  6 17  1  0  0  0  0
  8 23  1  0  0  0  0
  9  1  1  0  0  0  0
 10 18  2  0  0  0  0
 11  4  1  0  0  0  0
 12  8  1  0  0  0  0
 13  8  2  0  0  0  0
 13 18  1  0  0  0  0
 14  5  1  0  0  0  0
 15 20  2  0  0  0  0
 16 12  1  0  0  0  0
 17 16  2  0  0  0  0
 19 20  1  6  0  0  0
 19 10  1  0  0  0  0
 21 22  2  0  0  0  0
 22 30  1  0  0  0  0
 23 22  1  0  0  0  0
 24 27  1  0  0  0  0
 25 28  1  0  0  0  0
 26 29  1  0  0  0  0
 28 24  2  0  0  0  0
 29 31  2  0  0  0  0
 30 25  2  0  0  0  0
 30 29  1  0  0  0  0
 31 24  1  0  0  0  0
M  END
>  <MODEL>
9

>  <REMARK>
 VINA RESULT:      -9.9      3.878      8.198
  Name = 
  2 active torsions:
  status: ('A' for Active; 'I' for Inactive)
    1  A    between atoms: C_9  and  C_22
    2  A    between atoms: C_15  and  N_23
                            x       y       z     vdW  Elec       q    Type
                         _______ _______ _______ _____ _____    ______ ____

>  <TORSDO>
F 2

$$$$
