=
 OpenBabel10272400523D

 25 27  0  0  1  0  0  0  0  0999 V2000
  189.0750  177.0980  145.1510 C   0  0  0  0  0  0  0  0  0  0  0  0
  187.7430  177.5300  144.9790 C   0  0  0  0  0  0  0  0  0  0  0  0
  188.7640  177.1090  147.5070 C   0  0  0  0  0  3  0  0  0  0  0  0
  189.9580  176.8720  144.0340 N   0  0  0  0  0  0  0  0  0  0  0  0
  187.4760  177.5110  147.3600 N   0  0  0  0  0  0  0  0  0  0  0  0
  185.6220  178.1680  145.9770 C   0  0  0  0  0  0  0  0  0  0  0  0
  184.7460  178.3910  147.1630 C   0  0  0  0  0  1  0  0  0  0  0  0
  187.1980  177.7970  143.7180 C   0  0  0  0  0  3  0  0  0  0  0  0
  189.5460  176.9110  146.4160 N   0  0  0  0  0  0  0  0  0  0  0  0
  185.1260  178.4080  144.7340 N   0  0  0  0  0  0  0  0  0  0  0  0
  185.8770  178.2300  143.6140 C   0  0  0  0  0  0  0  0  0  0  0  0
  186.9490  177.7290  146.1270 C   0  0  0  0  0  0  0  0  0  0  0  0
  190.7330  179.5110  143.7940 C   0  0  0  0  0  1  0  0  0  0  0  0
  191.4020  177.0540  144.2270 C   0  0  2  0  0  3  0  0  0  0  0  0
  191.8370  178.5270  144.1530 C   0  0  1  0  0  3  0  0  0  0  0  0
  192.0660  177.6040  142.9750 C   0  0  0  0  0  2  0  0  0  0  0  0
  189.5170  176.0240  142.9310 C   0  0  0  0  0  2  0  0  0  0  0  0
  190.2520  174.8390  142.9190 O   0  0  0  0  0  1  0  0  0  0  0  0
  185.2980  178.5330  142.2760 C   0  0  0  0  0  2  0  0  0  0  0  0
  186.4030  178.6140  141.2400 C   0  0  0  0  0  2  0  0  0  0  0  0
  185.8190  178.9070  139.9040 C   0  0  0  0  0  0  0  0  0  0  0  0
  184.7680  179.5980  139.8220 O   0  0  0  0  0  0  0  0  0  0  0  0
  186.4590  178.4380  138.7560 O   0  0  0  0  0  0  0  0  0  0  0  0
  187.8100  178.0030  138.7780 C   0  0  0  0  0  2  0  0  0  0  0  0
  188.6580  179.0320  138.2090 N   0  0  0  0  0  1  0  0  0  0  0  0
  1  9  1  0  0  0  0
  2  1  2  0  0  0  0
  2 12  1  0  0  0  0
  4  1  1  0  0  0  0
  5  3  1  0  0  0  0
  6 12  1  0  0  0  0
  6  7  1  0  0  0  0
  8  2  1  0  0  0  0
  9  3  2  0  0  0  0
 10  6  2  0  0  0  0
 11  8  2  0  0  0  0
 11 10  1  0  0  0  0
 12  5  2  0  0  0  0
 14  4  1  6  0  0  0
 15 13  1  6  0  0  0
 15 14  1  0  0  0  0
 16 15  1  0  0  0  0
 16 14  1  0  0  0  0
 17  4  1  0  0  0  0
 18 17  1  0  0  0  0
 19 11  1  0  0  0  0
 20 19  1  0  0  0  0
 21 20  1  0  0  0  0
 22 21  2  0  0  0  0
 23 24  1  0  0  0  0
 23 21  1  0  0  0  0
 25 24  1  0  0  0  0
M  END
>  <MODEL>
1

>  <REMARK>
 VINA RESULT:      -7.6      0.000      0.000
  Name = 
  7 active torsions:
  status: ('A' for Active; 'I' for Inactive)
    1  A    between atoms: O_2  and  C_7
    2  A    between atoms: O_2  and  C_21
    3  A    between atoms: N_5  and  C_10
    4  A    between atoms: N_5  and  C_17
    5  A    between atoms: C_6  and  C_15
    6  A    between atoms: C_6  and  C_23
    7  A    between atoms: C_15  and  C_21
                            x       y       z     vdW  Elec       q    Type
                         _______ _______ _______ _____ _____    ______ ____

>  <TORSDO>
F 7

$$$$
=
 OpenBabel10272400523D

 25 27  0  0  1  0  0  0  0  0999 V2000
  190.1410  176.8060  145.1190 C   0  0  0  0  0  0  0  0  0  0  0  0
  188.9870  177.2980  145.7670 C   0  0  0  0  0  0  0  0  0  0  0  0
  191.2300  176.6190  147.2230 C   0  0  0  0  0  3  0  0  0  0  0  0
  190.2080  176.6490  143.6880 N   0  0  0  0  0  0  0  0  0  0  0  0
  190.1260  177.0780  147.8650 N   0  0  0  0  0  0  0  0  0  0  0  0
  187.8740  177.9200  147.8350 C   0  0  0  0  0  0  0  0  0  0  0  0
  187.8510  178.0660  149.3190 C   0  0  0  0  0  1  0  0  0  0  0  0
  187.8440  177.6940  145.0650 C   0  0  0  0  0  3  0  0  0  0  0  0
  191.2320  176.4910  145.8720 N   0  0  0  0  0  0  0  0  0  0  0  0
  186.7780  178.2860  147.1170 N   0  0  0  0  0  0  0  0  0  0  0  0
  186.7390  178.1810  145.7620 C   0  0  0  0  0  0  0  0  0  0  0  0
  189.0090  177.4230  147.1720 C   0  0  0  0  0  0  0  0  0  0  0  0
  191.0540  179.2680  143.4610 C   0  0  0  0  0  1  0  0  0  0  0  0
  191.5120  176.7630  143.0250 C   0  0  2  0  0  3  0  0  0  0  0  0
  192.0220  178.2120  142.9450 C   0  0  1  0  0  3  0  0  0  0  0  0
  191.4120  177.5490  141.7290 C   0  0  0  0  0  2  0  0  0  0  0  0
  189.1500  175.9180  142.9960 C   0  0  0  0  0  2  0  0  0  0  0  0
  188.4750  176.7720  142.1230 O   0  0  0  0  0  1  0  0  0  0  0  0
  185.5270  178.6210  145.0180 C   0  0  0  0  0  2  0  0  0  0  0  0
  185.5220  178.0110  143.6290 C   0  0  0  0  0  2  0  0  0  0  0  0
  184.6960  178.8470  142.7160 C   0  0  0  0  0  0  0  0  0  0  0  0
  183.4610  178.9700  142.9320 O   0  0  0  0  0  0  0  0  0  0  0  0
  185.3070  179.5070  141.6490 O   0  0  0  0  0  0  0  0  0  0  0  0
  185.3010  178.9710  140.3350 C   0  0  0  0  0  2  0  0  0  0  0  0
  184.5220  179.8310  139.4660 N   0  0  0  0  0  1  0  0  0  0  0  0
  1  2  2  0  0  0  0
  1  9  1  0  0  0  0
  2 12  1  0  0  0  0
  3  5  1  0  0  0  0
  4  1  1  0  0  0  0
  6  7  1  0  0  0  0
  8 11  2  0  0  0  0
  8  2  1  0  0  0  0
  9  3  2  0  0  0  0
 10  6  2  0  0  0  0
 11 10  1  0  0  0  0
 12  6  1  0  0  0  0
 12  5  2  0  0  0  0
 14  4  1  1  0  0  0
 15 14  1  0  0  0  0
 15 13  1  1  0  0  0
 16 15  1  0  0  0  0
 16 14  1  0  0  0  0
 17  4  1  0  0  0  0
 18 17  1  0  0  0  0
 19 11  1  0  0  0  0
 20 19  1  0  0  0  0
 21 22  2  0  0  0  0
 21 20  1  0  0  0  0
 23 21  1  0  0  0  0
 24 23  1  0  0  0  0
 25 24  1  0  0  0  0
M  END
>  <MODEL>
2

>  <REMARK>
 VINA RESULT:      -7.5      1.793      2.478
  Name = 
  7 active torsions:
  status: ('A' for Active; 'I' for Inactive)
    1  A    between atoms: O_2  and  C_7
    2  A    between atoms: O_2  and  C_21
    3  A    between atoms: N_5  and  C_10
    4  A    between atoms: N_5  and  C_17
    5  A    between atoms: C_6  and  C_15
    6  A    between atoms: C_6  and  C_23
    7  A    between atoms: C_15  and  C_21
                            x       y       z     vdW  Elec       q    Type
                         _______ _______ _______ _____ _____    ______ ____

>  <TORSDO>
F 7

$$$$
=
 OpenBabel10272400523D

 25 27  0  0  1  0  0  0  0  0999 V2000
  189.1120  177.1060  145.1330 C   0  0  0  0  0  0  0  0  0  0  0  0
  187.7720  177.5140  144.9630 C   0  0  0  0  0  0  0  0  0  0  0  0
  188.8220  177.1700  147.4920 C   0  0  0  0  0  3  0  0  0  0  0  0
  189.9880  176.8660  144.0130 N   0  0  0  0  0  0  0  0  0  0  0  0
  187.5280  177.5500  147.3480 N   0  0  0  0  0  0  0  0  0  0  0  0
  185.6510  178.1450  145.9670 C   0  0  0  0  0  0  0  0  0  0  0  0
  184.7830  178.3830  147.1550 C   0  0  0  0  0  1  0  0  0  0  0  0
  187.2110  177.7410  143.7020 C   0  0  0  0  0  3  0  0  0  0  0  0
  189.5970  176.9570  146.3980 N   0  0  0  0  0  0  0  0  0  0  0  0
  185.1400  178.3460  144.7230 N   0  0  0  0  0  0  0  0  0  0  0  0
  185.8820  178.1520  143.6000 C   0  0  0  0  0  0  0  0  0  0  0  0
  186.9850  177.7290  146.1140 C   0  0  0  0  0  0  0  0  0  0  0  0
  190.7120  179.5180  143.7590 C   0  0  0  0  0  1  0  0  0  0  0  0
  191.4300  177.0750  144.1880 C   0  0  2  0  0  3  0  0  0  0  0  0
  191.8380  178.5550  144.1060 C   0  0  1  0  0  3  0  0  0  0  0  0
  192.0680  177.6340  142.9270 C   0  0  0  0  0  2  0  0  0  0  0  0
  189.5490  175.9840  142.9360 C   0  0  0  0  0  2  0  0  0  0  0  0
  190.2900  174.8030  142.9580 O   0  0  0  0  0  1  0  0  0  0  0  0
  185.2860  178.4120  142.2610 C   0  0  0  0  0  2  0  0  0  0  0  0
  183.7850  178.5870  142.3880 C   0  0  0  0  0  2  0  0  0  0  0  0
  183.1440  178.4160  141.0560 C   0  0  0  0  0  0  0  0  0  0  0  0
  181.9180  178.6720  140.9180 O   0  0  0  0  0  0  0  0  0  0  0  0
  183.9180  178.0040  139.9710 O   0  0  0  0  0  0  0  0  0  0  0  0
  184.0040  178.7700  138.7790 C   0  0  0  0  0  2  0  0  0  0  0  0
  184.4260  180.1200  139.1030 N   0  0  0  0  0  1  0  0  0  0  0  0
  1  9  1  0  0  0  0
  2  1  2  0  0  0  0
  2 12  1  0  0  0  0
  4  1  1  0  0  0  0
  5  3  1  0  0  0  0
  6 12  1  0  0  0  0
  6  7  1  0  0  0  0
  8  2  1  0  0  0  0
  9  3  2  0  0  0  0
 10  6  2  0  0  0  0
 11  8  2  0  0  0  0
 11 10  1  0  0  0  0
 12  5  2  0  0  0  0
 14  4  1  6  0  0  0
 15 13  1  6  0  0  0
 15 14  1  0  0  0  0
 16 15  1  0  0  0  0
 16 14  1  0  0  0  0
 17 18  1  0  0  0  0
 17  4  1  0  0  0  0
 19 20  1  0  0  0  0
 19 11  1  0  0  0  0
 21 20  1  0  0  0  0
 22 21  2  0  0  0  0
 23 21  1  0  0  0  0
 24 25  1  0  0  0  0
 24 23  1  0  0  0  0
M  END
>  <MODEL>
3

>  <REMARK>
 VINA RESULT:      -7.3      1.461      1.676
  Name = 
  7 active torsions:
  status: ('A' for Active; 'I' for Inactive)
    1  A    between atoms: O_2  and  C_7
    2  A    between atoms: O_2  and  C_21
    3  A    between atoms: N_5  and  C_10
    4  A    between atoms: N_5  and  C_17
    5  A    between atoms: C_6  and  C_15
    6  A    between atoms: C_6  and  C_23
    7  A    between atoms: C_15  and  C_21
                            x       y       z     vdW  Elec       q    Type
                         _______ _______ _______ _____ _____    ______ ____

>  <TORSDO>
F 7

$$$$
=
 OpenBabel10272400523D

 25 27  0  0  1  0  0  0  0  0999 V2000
  187.9170  177.3580  144.8740 C   0  0  0  0  0  0  0  0  0  0  0  0
  186.9150  177.8810  144.0280 C   0  0  0  0  0  0  0  0  0  0  0  0
  186.5500  177.8230  146.7620 C   0  0  0  0  0  3  0  0  0  0  0  0
  189.1650  176.8500  144.3610 N   0  0  0  0  0  0  0  0  0  0  0  0
  185.5710  178.3160  145.9630 N   0  0  0  0  0  0  0  0  0  0  0  0
  184.7200  178.8930  143.7900 C   0  0  0  0  0  0  0  0  0  0  0  0
  183.4450  179.4100  144.3660 C   0  0  0  0  0  1  0  0  0  0  0  0
  187.0760  177.9690  142.6410 C   0  0  0  0  0  3  0  0  0  0  0  0
  187.7030  177.3560  146.2200 N   0  0  0  0  0  0  0  0  0  0  0  0
  184.9100  178.9530  142.4450 N   0  0  0  0  0  0  0  0  0  0  0  0
  186.0530  178.5040  141.8590 C   0  0  0  0  0  0  0  0  0  0  0  0
  185.7250  178.3600  144.6140 C   0  0  0  0  0  0  0  0  0  0  0  0
  190.7740  179.0080  143.7470 C   0  0  0  0  0  1  0  0  0  0  0  0
  190.3590  176.9210  145.2110 C   0  0  2  0  0  3  0  0  0  0  0  0
  191.2340  178.1510  144.9170 C   0  0  1  0  0  3  0  0  0  0  0  0
  191.6330  176.7890  144.3940 C   0  0  0  0  0  2  0  0  0  0  0  0
  189.1490  175.8650  143.2830 C   0  0  0  0  0  2  0  0  0  0  0  0
  189.6960  176.4190  142.1260 O   0  0  0  0  0  1  0  0  0  0  0  0
  186.2260  178.6170  140.3850 C   0  0  0  0  0  2  0  0  0  0  0  0
  187.6730  178.3540  140.0120 C   0  0  0  0  0  2  0  0  0  0  0  0
  187.7570  177.9460  138.5840 C   0  0  0  0  0  0  0  0  0  0  0  0
  187.1910  178.6470  137.7020 O   0  0  0  0  0  0  0  0  0  0  0  0
  188.4880  176.8100  138.2360 O   0  0  0  0  0  0  0  0  0  0  0  0
  189.8840  176.8650  137.9870 C   0  0  0  0  0  2  0  0  0  0  0  0
  190.5610  175.8830  138.8120 N   0  0  0  0  0  1  0  0  0  0  0  0
  1  9  1  0  0  0  0
  2 12  1  0  0  0  0
  2  1  2  0  0  0  0
  4  1  1  0  0  0  0
  5  3  1  0  0  0  0
  6  7  1  0  0  0  0
  6 12  1  0  0  0  0
  8  2  1  0  0  0  0
  9  3  2  0  0  0  0
 10  6  2  0  0  0  0
 11 10  1  0  0  0  0
 11  8  2  0  0  0  0
 12  5  2  0  0  0  0
 14  4  1  6  0  0  0
 15 13  1  6  0  0  0
 15 14  1  0  0  0  0
 16 15  1  0  0  0  0
 16 14  1  0  0  0  0
 17  4  1  0  0  0  0
 18 17  1  0  0  0  0
 19 11  1  0  0  0  0
 20 19  1  0  0  0  0
 21 20  1  0  0  0  0
 22 21  2  0  0  0  0
 23 21  1  0  0  0  0
 24 23  1  0  0  0  0
 24 25  1  0  0  0  0
M  END
>  <MODEL>
4

>  <REMARK>
 VINA RESULT:      -6.9      1.557      2.127
  Name = 
  7 active torsions:
  status: ('A' for Active; 'I' for Inactive)
    1  A    between atoms: O_2  and  C_7
    2  A    between atoms: O_2  and  C_21
    3  A    between atoms: N_5  and  C_10
    4  A    between atoms: N_5  and  C_17
    5  A    between atoms: C_6  and  C_15
    6  A    between atoms: C_6  and  C_23
    7  A    between atoms: C_15  and  C_21
                            x       y       z     vdW  Elec       q    Type
                         _______ _______ _______ _____ _____    ______ ____

>  <TORSDO>
F 7

$$$$
=
 OpenBabel10272400523D

 25 27  0  0  1  0  0  0  0  0999 V2000
  188.1290  177.2720  143.6980 C   0  0  0  0  0  0  0  0  0  0  0  0
  187.6670  177.7490  142.4530 C   0  0  0  0  0  0  0  0  0  0  0  0
  185.9950  177.7170  144.6480 C   0  0  0  0  0  3  0  0  0  0  0  0
  189.4780  176.8000  143.8860 N   0  0  0  0  0  0  0  0  0  0  0  0
  185.5300  178.1660  143.4550 N   0  0  0  0  0  0  0  0  0  0  0  0
  185.8560  178.6830  141.1300 C   0  0  0  0  0  0  0  0  0  0  0  0
  184.4530  179.1640  140.9830 C   0  0  0  0  0  1  0  0  0  0  0  0
  188.4920  177.8240  141.3260 C   0  0  0  0  0  3  0  0  0  0  0  0
  187.2760  177.2820  144.7610 N   0  0  0  0  0  0  0  0  0  0  0  0
  186.6870  178.7310  140.0540 N   0  0  0  0  0  0  0  0  0  0  0  0
  187.9800  178.3130  140.1250 C   0  0  0  0  0  0  0  0  0  0  0  0
  186.3330  178.1960  142.3590 C   0  0  0  0  0  0  0  0  0  0  0  0
  191.1080  179.0190  144.0960 C   0  0  0  0  0  1  0  0  0  0  0  0
  190.0910  176.9230  145.2130 C   0  0  2  0  0  3  0  0  0  0  0  0
  190.9560  178.1870  145.3610 C   0  0  1  0  0  3  0  0  0  0  0  0
  191.6070  176.8390  145.1370 C   0  0  0  0  0  2  0  0  0  0  0  0
  190.0210  175.8000  142.9710 C   0  0  0  0  0  2  0  0  0  0  0  0
  191.0150  176.3730  142.1770 O   0  0  0  0  0  1  0  0  0  0  0  0
  188.8580  178.4110  138.9270 C   0  0  0  0  0  2  0  0  0  0  0  0
  190.1010  177.5640  139.1260 C   0  0  0  0  0  2  0  0  0  0  0  0
  189.9810  176.3030  138.3460 C   0  0  0  0  0  0  0  0  0  0  0  0
  190.8570  175.4070  138.4720 O   0  0  0  0  0  0  0  0  0  0  0  0
  188.8820  176.1180  137.5070 O   0  0  0  0  0  0  0  0  0  0  0  0
  189.0350  175.8690  136.1170 C   0  0  0  0  0  2  0  0  0  0  0  0
  189.5440  177.0610  135.4660 N   0  0  0  0  0  1  0  0  0  0  0  0
  1  4  1  0  0  0  0
  1  9  1  0  0  0  0
  2  1  2  0  0  0  0
  3  9  2  0  0  0  0
  5  3  1  0  0  0  0
  6 12  1  0  0  0  0
  7  6  1  0  0  0  0
  8  2  1  0  0  0  0
 10 11  1  0  0  0  0
 10  6  2  0  0  0  0
 11  8  2  0  0  0  0
 12  2  1  0  0  0  0
 12  5  2  0  0  0  0
 14  4  1  6  0  0  0
 14 15  1  0  0  0  0
 15 13  1  6  0  0  0
 16 14  1  0  0  0  0
 16 15  1  0  0  0  0
 17  4  1  0  0  0  0
 18 17  1  0  0  0  0
 19 20  1  0  0  0  0
 19 11  1  0  0  0  0
 21 22  2  0  0  0  0
 21 20  1  0  0  0  0
 23 21  1  0  0  0  0
 24 23  1  0  0  0  0
 25 24  1  0  0  0  0
M  END
>  <MODEL>
5

>  <REMARK>
 VINA RESULT:      -6.5      2.124      3.787
  Name = 
  7 active torsions:
  status: ('A' for Active; 'I' for Inactive)
    1  A    between atoms: O_2  and  C_7
    2  A    between atoms: O_2  and  C_21
    3  A    between atoms: N_5  and  C_10
    4  A    between atoms: N_5  and  C_17
    5  A    between atoms: C_6  and  C_15
    6  A    between atoms: C_6  and  C_23
    7  A    between atoms: C_15  and  C_21
                            x       y       z     vdW  Elec       q    Type
                         _______ _______ _______ _____ _____    ______ ____

>  <TORSDO>
F 7

$$$$
=
 OpenBabel10272400523D

 25 27  0  0  1  0  0  0  0  0999 V2000
  182.8300  178.7910  141.3630 C   0  0  0  0  0  0  0  0  0  0  0  0
  183.9230  178.5900  142.2330 C   0  0  0  0  0  0  0  0  0  0  0  0
  181.4260  179.1960  143.2390 C   0  0  0  0  0  3  0  0  0  0  0  0
  182.9580  178.6780  139.9320 N   0  0  0  0  0  0  0  0  0  0  0  0
  182.4690  179.0190  144.0890 N   0  0  0  0  0  0  0  0  0  0  0  0
  184.7820  178.5110  144.5040 C   0  0  0  0  0  0  0  0  0  0  0  0
  184.6010  178.6370  145.9790 C   0  0  0  0  0  1  0  0  0  0  0  0
  185.1950  178.2400  141.7690 C   0  0  0  0  0  3  0  0  0  0  0  0
  181.6100  179.0780  141.8990 N   0  0  0  0  0  0  0  0  0  0  0  0
  186.0070  178.1810  144.0140 N   0  0  0  0  0  0  0  0  0  0  0  0
  186.2340  178.0460  142.6790 C   0  0  0  0  0  0  0  0  0  0  0  0
  183.7090  178.7170  143.6210 C   0  0  0  0  0  0  0  0  0  0  0  0
  182.9820  175.9820  139.3360 C   0  0  0  0  0  1  0  0  0  0  0  0
  181.7880  178.2650  139.1490 C   0  0  2  0  0  3  0  0  0  0  0  0
  181.7600  176.7550  138.8590 C   0  0  1  0  0  3  0  0  0  0  0  0
  182.1920  177.7290  137.7850 C   0  0  0  0  0  2  0  0  0  0  0  0
  184.0160  179.4150  139.2460 C   0  0  0  0  0  2  0  0  0  0  0  0
  183.5420  180.6670  138.8510 O   0  0  0  0  0  1  0  0  0  0  0  0
  187.5850  177.6550  142.1930 C   0  0  0  0  0  2  0  0  0  0  0  0
  188.1310  178.7250  141.2650 C   0  0  0  0  0  2  0  0  0  0  0  0
  188.4330  178.1310  139.9350 C   0  0  0  0  0  0  0  0  0  0  0  0
  189.4330  177.3760  139.8040 O   0  0  0  0  0  0  0  0  0  0  0  0
  187.5870  178.3950  138.8580 O   0  0  0  0  0  0  0  0  0  0  0  0
  188.0620  178.4080  137.5200 C   0  0  0  0  0  2  0  0  0  0  0  0
  188.9680  179.5260  137.3400 N   0  0  0  0  0  1  0  0  0  0  0  0
  1  9  2  0  0  0  0
  1  2  1  0  0  0  0
  2 12  1  0  0  0  0
  3  5  2  0  0  0  0
  4  1  1  0  0  0  0
  6  7  1  0  0  0  0
  8  2  2  0  0  0  0
  8 11  1  0  0  0  0
  9  3  1  0  0  0  0
 10  6  1  0  0  0  0
 11 10  2  0  0  0  0
 12  5  1  0  0  0  0
 12  6  2  0  0  0  0
 14  4  1  1  0  0  0
 15 14  1  0  0  0  0
 15 13  1  1  0  0  0
 16 15  1  0  0  0  0
 16 14  1  0  0  0  0
 17  4  1  0  0  0  0
 18 17  1  0  0  0  0
 19 11  1  0  0  0  0
 20 19  1  0  0  0  0
 21 20  1  0  0  0  0
 22 21  2  0  0  0  0
 23 21  1  0  0  0  0
 24 23  1  0  0  0  0
 25 24  1  0  0  0  0
M  END
>  <MODEL>
6

>  <REMARK>
 VINA RESULT:      -6.5      2.953      6.484
  Name = 
  7 active torsions:
  status: ('A' for Active; 'I' for Inactive)
    1  A    between atoms: O_2  and  C_7
    2  A    between atoms: O_2  and  C_21
    3  A    between atoms: N_5  and  C_10
    4  A    between atoms: N_5  and  C_17
    5  A    between atoms: C_6  and  C_15
    6  A    between atoms: C_6  and  C_23
    7  A    between atoms: C_15  and  C_21
                            x       y       z     vdW  Elec       q    Type
                         _______ _______ _______ _____ _____    ______ ____

>  <TORSDO>
F 7

$$$$
=
 OpenBabel10272400523D

 25 27  0  0  1  0  0  0  0  0999 V2000
  182.7010  178.8410  141.2990 C   0  0  0  0  0  0  0  0  0  0  0  0
  183.8040  178.6840  142.1660 C   0  0  0  0  0  0  0  0  0  0  0  0
  181.2820  179.1630  143.1780 C   0  0  0  0  0  3  0  0  0  0  0  0
  182.8340  178.7460  139.8660 N   0  0  0  0  0  0  0  0  0  0  0  0
  182.3320  179.0280  144.0270 N   0  0  0  0  0  0  0  0  0  0  0  0
  184.6670  178.6270  144.4360 C   0  0  0  0  0  0  0  0  0  0  0  0
  184.4820  178.7310  145.9120 C   0  0  0  0  0  1  0  0  0  0  0  0
  185.0910  178.3980  141.6990 C   0  0  0  0  0  3  0  0  0  0  0  0
  181.4700  179.0650  141.8380 N   0  0  0  0  0  0  0  0  0  0  0  0
  185.9060  178.3580  143.9420 N   0  0  0  0  0  0  0  0  0  0  0  0
  186.1380  178.2450  142.6070 C   0  0  0  0  0  0  0  0  0  0  0  0
  183.5850  178.7890  143.5550 C   0  0  0  0  0  0  0  0  0  0  0  0
  182.9820  176.0590  139.2500 C   0  0  0  0  0  1  0  0  0  0  0  0
  181.6840  178.2850  139.0800 C   0  0  2  0  0  3  0  0  0  0  0  0
  181.7250  176.7770  138.7800 C   0  0  1  0  0  3  0  0  0  0  0  0
  182.1110  177.7790  137.7120 C   0  0  0  0  0  2  0  0  0  0  0  0
  183.8550  179.5380  139.1870 C   0  0  0  0  0  2  0  0  0  0  0  0
  183.3370  180.7880  138.8460 O   0  0  0  0  0  1  0  0  0  0  0  0
  187.5060  177.9230  142.1160 C   0  0  0  0  0  2  0  0  0  0  0  0
  188.1990  176.9880  143.0900 C   0  0  0  0  0  2  0  0  0  0  0  0
  189.3880  177.6640  143.6750 C   0  0  0  0  0  0  0  0  0  0  0  0
  190.4120  177.8460  142.9650 O   0  0  0  0  0  0  0  0  0  0  0  0
  189.3420  178.1140  144.9950 O   0  0  0  0  0  0  0  0  0  0  0  0
  189.0860  177.2320  146.0770 C   0  0  0  0  0  2  0  0  0  0  0  0
  187.8950  177.6640  146.7820 N   0  0  0  0  0  1  0  0  0  0  0  0
  1  9  2  0  0  0  0
  1  2  1  0  0  0  0
  2 12  1  0  0  0  0
  3  5  2  0  0  0  0
  4  1  1  0  0  0  0
  6  7  1  0  0  0  0
  8  2  2  0  0  0  0
  8 11  1  0  0  0  0
  9  3  1  0  0  0  0
 10  6  1  0  0  0  0
 11 10  2  0  0  0  0
 12  5  1  0  0  0  0
 12  6  2  0  0  0  0
 14  4  1  1  0  0  0
 15 14  1  0  0  0  0
 15 13  1  1  0  0  0
 16 15  1  0  0  0  0
 16 14  1  0  0  0  0
 17  4  1  0  0  0  0
 18 17  1  0  0  0  0
 19 11  1  0  0  0  0
 19 20  1  0  0  0  0
 20 21  1  0  0  0  0
 21 23  1  0  0  0  0
 22 21  2  0  0  0  0
 23 24  1  0  0  0  0
 24 25  1  0  0  0  0
M  END
>  <MODEL>
7

>  <REMARK>
 VINA RESULT:      -6.5      2.954      7.214
  Name = 
  7 active torsions:
  status: ('A' for Active; 'I' for Inactive)
    1  A    between atoms: O_2  and  C_7
    2  A    between atoms: O_2  and  C_21
    3  A    between atoms: N_5  and  C_10
    4  A    between atoms: N_5  and  C_17
    5  A    between atoms: C_6  and  C_15
    6  A    between atoms: C_6  and  C_23
    7  A    between atoms: C_15  and  C_21
                            x       y       z     vdW  Elec       q    Type
                         _______ _______ _______ _____ _____    ______ ____

>  <TORSDO>
F 7

$$$$
=
 OpenBabel10272400523D

 25 27  0  0  1  0  0  0  0  0999 V2000
  188.8210  178.2280  141.6050 C   0  0  0  0  0  0  0  0  0  0  0  0
  187.4460  178.4010  141.8720 C   0  0  0  0  0  0  0  0  0  0  0  0
  188.3820  178.4120  139.2760 C   0  0  0  0  0  3  0  0  0  0  0  0
  189.7870  178.0260  142.6560 N   0  0  0  0  0  0  0  0  0  0  0  0
  187.0580  178.5930  139.5140 N   0  0  0  0  0  0  0  0  0  0  0  0
  185.1960  178.7530  141.0270 C   0  0  0  0  0  0  0  0  0  0  0  0
  184.2330  178.9570  139.9060 C   0  0  0  0  0  1  0  0  0  0  0  0
  186.9230  178.3590  143.1680 C   0  0  0  0  0  3  0  0  0  0  0  0
  189.2430  178.2290  140.3090 N   0  0  0  0  0  0  0  0  0  0  0  0
  184.7270  178.7160  142.3030 N   0  0  0  0  0  0  0  0  0  0  0  0
  185.5530  178.5280  143.3670 C   0  0  0  0  0  0  0  0  0  0  0  0
  186.5700  178.5890  140.7830 C   0  0  0  0  0  0  0  0  0  0  0  0
  189.5320  175.3650  143.3460 C   0  0  0  0  0  1  0  0  0  0  0  0
  190.9980  177.2520  142.3640 C   0  0  2  0  0  3  0  0  0  0  0  0
  190.8490  175.7560  142.6900 C   0  0  1  0  0  3  0  0  0  0  0  0
  191.6060  176.6690  143.6290 C   0  0  0  0  0  2  0  0  0  0  0  0
  189.8220  178.9530  143.7840 C   0  0  0  0  0  2  0  0  0  0  0  0
  191.0030  179.6950  143.7510 O   0  0  0  0  0  1  0  0  0  0  0  0
  184.9890  178.4660  144.7430 C   0  0  0  0  0  2  0  0  0  0  0  0
  185.9190  177.6820  145.6490 C   0  0  0  0  0  2  0  0  0  0  0  0
  186.2890  178.5110  146.8280 C   0  0  0  0  0  0  0  0  0  0  0  0
  185.6070  179.5320  147.1090 O   0  0  0  0  0  0  0  0  0  0  0  0
  187.3700  178.1280  147.6240 O   0  0  0  0  0  0  0  0  0  0  0  0
  188.4420  177.3540  147.1080 C   0  0  0  0  0  2  0  0  0  0  0  0
  189.6550  177.6600  147.8410 N   0  0  0  0  0  1  0  0  0  0  0  0
  1  2  1  0  0  0  0
  1  4  1  0  0  0  0
  2  8  1  0  0  0  0
  3  5  2  0  0  0  0
  3  9  1  0  0  0  0
  4 17  1  0  0  0  0
  5 12  1  0  0  0  0
  6 10  2  0  0  0  0
  7  6  1  0  0  0  0
  8 11  2  0  0  0  0
  9  1  2  0  0  0  0
 10 11  1  0  0  0  0
 11 19  1  0  0  0  0
 12  6  1  0  0  0  0
 12  2  2  0  0  0  0
 14  4  1  1  0  0  0
 14 15  1  0  0  0  0
 14 16  1  0  0  0  0
 15 13  1  1  0  0  0
 15 16  1  0  0  0  0
 18 17  1  0  0  0  0
 19 20  1  0  0  0  0
 20 21  1  0  0  0  0
 21 22  2  0  0  0  0
 21 23  1  0  0  0  0
 24 23  1  0  0  0  0
 24 25  1  0  0  0  0
M  END
>  <MODEL>
8

>  <REMARK>
 VINA RESULT:      -6.5      2.624      5.504
  Name = 
  7 active torsions:
  status: ('A' for Active; 'I' for Inactive)
    1  A    between atoms: O_2  and  C_7
    2  A    between atoms: O_2  and  C_21
    3  A    between atoms: N_5  and  C_10
    4  A    between atoms: N_5  and  C_17
    5  A    between atoms: C_6  and  C_15
    6  A    between atoms: C_6  and  C_23
    7  A    between atoms: C_15  and  C_21
                            x       y       z     vdW  Elec       q    Type
                         _______ _______ _______ _____ _____    ______ ____

>  <TORSDO>
F 7

$$$$
=
 OpenBabel10272400523D

 25 27  0  0  1  0  0  0  0  0999 V2000
  186.8940  178.3350  138.9300 C   0  0  0  0  0  0  0  0  0  0  0  0
  187.3590  178.1230  140.2450 C   0  0  0  0  0  0  0  0  0  0  0  0
  184.7980  179.0460  139.7970 C   0  0  0  0  0  3  0  0  0  0  0  0
  187.7140  178.0710  137.7750 N   0  0  0  0  0  0  0  0  0  0  0  0
  185.2330  178.8610  141.0690 N   0  0  0  0  0  0  0  0  0  0  0  0
  186.9300  178.1910  142.6360 C   0  0  0  0  0  0  0  0  0  0  0  0
  186.0440  178.4770  143.8010 C   0  0  0  0  0  1  0  0  0  0  0  0
  188.6340  177.6160  140.5170 C   0  0  0  0  0  3  0  0  0  0  0  0
  185.6190  178.7810  138.7500 N   0  0  0  0  0  0  0  0  0  0  0  0
  188.1810  177.7050  142.8590 N   0  0  0  0  0  0  0  0  0  0  0  0
  189.0340  177.4200  141.8390 C   0  0  0  0  0  0  0  0  0  0  0  0
  186.4890  178.4040  141.3190 C   0  0  0  0  0  0  0  0  0  0  0  0
  187.8510  175.3550  137.2930 C   0  0  0  0  0  1  0  0  0  0  0  0
  187.0610  177.6890  136.5170 C   0  0  2  0  0  3  0  0  0  0  0  0
  187.0800  176.1720  136.2650 C   0  0  1  0  0  3  0  0  0  0  0  0
  188.0510  177.0780  135.5390 C   0  0  0  0  0  2  0  0  0  0  0  0
  189.0570  178.6390  137.7040 C   0  0  0  0  0  2  0  0  0  0  0  0
  188.9800  180.0100  137.4570 O   0  0  0  0  0  1  0  0  0  0  0  0
  190.3830  176.8640  142.1320 C   0  0  0  0  0  2  0  0  0  0  0  0
  191.0490  177.6740  143.2290 C   0  0  0  0  0  2  0  0  0  0  0  0
  191.4620  176.7730  144.3390 C   0  0  0  0  0  0  0  0  0  0  0  0
  191.7210  175.5640  144.0950 O   0  0  0  0  0  0  0  0  0  0  0  0
  191.5860  177.2870  145.6300 O   0  0  0  0  0  0  0  0  0  0  0  0
  191.1850  176.5450  146.7720 C   0  0  0  0  0  2  0  0  0  0  0  0
  192.3570  176.1630  147.5360 N   0  0  0  0  0  1  0  0  0  0  0  0
  1  2  1  0  0  0  0
  2  8  2  0  0  0  0
  2 12  1  0  0  0  0
  3  5  2  0  0  0  0
  4  1  1  0  0  0  0
  5 12  1  0  0  0  0
  6 10  1  0  0  0  0
  6  7  1  0  0  0  0
  8 11  1  0  0  0  0
  9  1  2  0  0  0  0
  9  3  1  0  0  0  0
 11 19  1  0  0  0  0
 11 10  2  0  0  0  0
 12  6  2  0  0  0  0
 14  4  1  1  0  0  0
 15 14  1  0  0  0  0
 15 13  1  1  0  0  0
 16 15  1  0  0  0  0
 16 14  1  0  0  0  0
 17  4  1  0  0  0  0
 18 17  1  0  0  0  0
 19 20  1  0  0  0  0
 20 21  1  0  0  0  0
 21 23  1  0  0  0  0
 22 21  2  0  0  0  0
 23 24  1  0  0  0  0
 24 25  1  0  0  0  0
M  END
>  <MODEL>
9

>  <REMARK>
 VINA RESULT:      -6.4      2.430      7.105
  Name = 
  7 active torsions:
  status: ('A' for Active; 'I' for Inactive)
    1  A    between atoms: O_2  and  C_7
    2  A    between atoms: O_2  and  C_21
    3  A    between atoms: N_5  and  C_10
    4  A    between atoms: N_5  and  C_17
    5  A    between atoms: C_6  and  C_15
    6  A    between atoms: C_6  and  C_23
    7  A    between atoms: C_15  and  C_21
                            x       y       z     vdW  Elec       q    Type
                         _______ _______ _______ _____ _____    ______ ____

>  <TORSDO>
F 7

$$$$
