=
 OpenBabel10272414533D

 37 42  0  0  1  0  0  0  0  0999 V2000
  191.9460  175.0770  134.3470 C   0  0  0  0  0  2  0  0  0  0  0  0
  190.8010  176.5390  138.3430 N   0  0  0  0  0  0  0  0  0  0  0  0
  188.2410  177.9820  136.7290 C   0  0  0  0  0  2  0  0  0  0  0  0
  192.5800  175.8280  136.7190 C   0  0  2  0  0  3  0  0  0  0  0  0
  189.4190  176.2280  138.6690 C   0  0  1  0  0  3  0  0  0  0  0  0
  191.1070  176.2140  136.9600 C   0  0  1  0  0  3  0  0  0  0  0  0
  188.6900  177.4580  139.1530 C   0  0  0  0  0  0  0  0  0  0  0  0
  193.5080  176.7880  137.4600 C   0  0  0  0  0  2  0  0  0  0  0  0
  190.0300  175.2040  136.5330 C   0  0  1  0  0  3  0  0  0  0  0  0
  191.9510  173.1520  136.0340 C   0  0  0  0  0  2  0  0  0  0  0  0
  191.5510  176.9070  140.5320 O   0  0  0  0  0  0  0  0  0  0  0  0
  193.1900  176.8100  138.8840 N   0  0  0  0  0  2  0  0  0  0  0  0
  190.3760  173.4360  136.9250 S   0  0  0  0  0  0  0  0  0  0  0  0
  188.0650  178.4270  138.1760 C   0  0  0  0  0  2  0  0  0  0  0  0
  191.8290  176.7770  139.3120 C   0  0  0  0  0  0  0  0  0  0  0  0
  188.8280  175.6000  137.3830 C   0  0  2  0  0  3  0  0  0  0  0  0
  192.9430  175.8420  135.2270 C   0  0  0  0  0  2  0  0  0  0  0  0
  191.9460  173.5630  134.5640 C   0  0  0  0  0  2  0  0  0  0  0  0
  187.8900  176.5050  136.5690 C   0  0  1  0  0  3  0  0  0  0  0  0
  188.6340  177.6660  140.4250 N   0  0  0  0  0  0  0  0  0  0  0  0
  186.5530  176.2710  136.9400 O   0  0  0  0  0  0  0  0  0  0  0  0
  185.8940  175.5970  135.8850 C   0  0  2  0  0  3  0  0  0  0  0  0
  184.4550  176.0710  135.6810 C   0  0  0  0  0  2  0  0  0  0  0  0
  182.9990  177.2200  137.3180 C   0  0  0  0  0  1  0  0  0  0  0  0
  184.2140  177.3690  136.4270 C   0  0  0  0  0  2  0  0  0  0  0  0
  185.9400  174.2070  136.0490 O   0  0  0  0  0  0  0  0  0  0  0  0
  184.7910  172.5280  137.2280 C   0  0  0  0  0  2  0  0  0  0  0  0
  185.1810  173.9540  137.1930 C   0  0  1  0  0  3  0  0  0  0  0  0
  185.8600  173.0190  137.9990 O   0  0  0  0  0  0  0  0  0  0  0  0
  187.9800  178.8110  141.0130 C   0  0  0  0  0  2  0  0  0  0  0  0
  185.8770  179.4010  142.0220 O   0  0  0  0  0  0  0  0  0  0  0  0
  186.8320  178.3720  141.9120 C   0  0  2  0  0  3  0  0  0  0  0  0
  187.3520  177.9770  143.2980 C   0  0  0  0  0  2  0  0  0  0  0  0
  186.5940  177.3470  145.4740 O   0  0  0  0  0  1  0  0  0  0  0  0
  185.0320  178.5120  144.0910 C   0  0  0  0  0  2  0  0  0  0  0  0
  186.1790  177.5070  144.1530 C   0  0  1  0  0  3  0  0  0  0  0  0
  184.7380  178.8390  142.6280 C   0  0  0  0  0  2  0  0  0  0  0  0
  1 18  1  0  0  0  0
  1 17  1  0  0  0  0
  2  5  1  0  0  0  0
  2 15  1  0  0  0  0
  3 14  1  0  0  0  0
  4 17  1  6  0  0  0
  4  6  1  0  0  0  0
  4  8  1  0  0  0  0
  5  7  1  6  0  0  0
  6  2  1  1  0  0  0
  7 20  2  0  0  0  0
  8 12  1  0  0  0  0
  9 13  1  1  0  0  0
  9  6  1  0  0  0  0
  9 16  1  0  0  0  0
 10 13  1  0  0  0  0
 12 15  1  0  0  0  0
 14  7  1  0  0  0  0
 15 11  2  0  0  0  0
 16  5  1  0  0  0  0
 18 10  1  0  0  0  0
 19  3  1  0  0  0  0
 19 21  1  0  0  0  0
 19 16  1  0  0  0  0
 20 30  1  0  0  0  0
 22 26  1  0  0  0  0
 22 21  1  0  0  0  0
 23 22  1  0  0  0  0
 23 25  1  0  0  0  0
 25 24  1  0  0  0  0
 26 28  1  0  0  0  0
 27 29  1  0  0  0  0
 28 27  1  0  0  0  0
 28 29  1  0  0  0  0
 30 32  1  0  0  0  0
 31 37  1  0  0  0  0
 32 31  1  0  0  0  0
 32 33  1  0  0  0  0
 33 36  1  0  0  0  0
 35 36  1  0  0  0  0
 36 34  1  0  0  0  0
 37 35  1  0  0  0  0
M  END
>  <MODEL>
1

>  <REMARK>
 VINA RESULT:      -6.1      0.000      0.000
  Name = 
  8 active torsions:
  status: ('A' for Active; 'I' for Inactive)
    1  A    between atoms: O_1  and  C_33
    2  A    between atoms: O_1  and  C_36
    3  A    between atoms: C_5  and  C_23
    4  A    between atoms: C_5  and  C_33
    5  A    between atoms: C_6  and  C_31
    6  A    between atoms: O_17  and  C_26
    7  A    between atoms: O_17  and  C_33
    8  A    between atoms: C_31  and  N_37
                            x       y       z     vdW  Elec       q    Type
                         _______ _______ _______ _____ _____    ______ ____

>  <TORSDO>
F 8

$$$$
=
 OpenBabel10272414533D

 37 42  0  0  1  0  0  0  0  0999 V2000
  189.2160  175.8590  137.5740 C   0  0  0  0  0  2  0  0  0  0  0  0
  186.2650  178.2450  139.8130 N   0  0  0  0  0  0  0  0  0  0  0  0
  187.5600  176.7280  142.5070 C   0  0  0  0  0  2  0  0  0  0  0  0
  186.9430  177.0460  137.7130 C   0  0  2  0  0  3  0  0  0  0  0  0
  186.8730  178.9990  140.8960 C   0  0  1  0  0  3  0  0  0  0  0  0
  187.2140  177.3300  139.2040 C   0  0  1  0  0  3  0  0  0  0  0  0
  186.1290  178.7790  142.1900 C   0  0  0  0  0  0  0  0  0  0  0  0
  185.4530  176.8050  137.4810 C   0  0  0  0  0  2  0  0  0  0  0  0
  188.6020  177.8730  139.5810 C   0  0  1  0  0  3  0  0  0  0  0  0
  189.3270  178.3140  136.8560 C   0  0  0  0  0  2  0  0  0  0  0  0
  184.2950  179.5020  139.6410 O   0  0  0  0  0  0  0  0  0  0  0  0
  184.6710  177.9400  137.9580 N   0  0  0  0  0  2  0  0  0  0  0  0
  189.2910  179.1750  138.4720 S   0  0  0  0  0  0  0  0  0  0  0  0
  186.4360  177.5890  143.0710 C   0  0  0  0  0  2  0  0  0  0  0  0
  185.0320  178.5960  139.1720 C   0  0  0  0  0  0  0  0  0  0  0  0
  188.3540  178.5490  140.9260 C   0  0  2  0  0  3  0  0  0  0  0  0
  187.7270  175.8270  137.2060 C   0  0  0  0  0  2  0  0  0  0  0  0
  190.0170  176.9530  136.8620 C   0  0  0  0  0  2  0  0  0  0  0  0
  188.7370  177.5940  142.0660 C   0  0  1  0  0  3  0  0  0  0  0  0
  185.2110  179.6250  142.5110 N   0  0  0  0  0  0  0  0  0  0  0  0
  189.2500  178.3240  143.1550 O   0  0  0  0  0  0  0  0  0  0  0  0
  190.4440  177.7110  143.6000 C   0  0  2  0  0  3  0  0  0  0  0  0
  191.1180  176.8630  142.5220 C   0  0  0  0  0  2  0  0  0  0  0  0
  192.1310  177.3090  140.3100 C   0  0  0  0  0  1  0  0  0  0  0  0
  192.1560  177.6800  141.7770 C   0  0  0  0  0  2  0  0  0  0  0  0
  190.2380  176.9610  144.7650 O   0  0  0  0  0  0  0  0  0  0  0  0
  191.1170  176.6650  146.9250 C   0  0  0  0  0  2  0  0  0  0  0  0
  191.3090  177.2870  145.5980 C   0  0  1  0  0  3  0  0  0  0  0  0
  191.9820  176.1060  145.9670 O   0  0  0  0  0  0  0  0  0  0  0  0
  184.4180  179.5170  143.7140 C   0  0  0  0  0  2  0  0  0  0  0  0
  182.2490  178.7310  144.3970 O   0  0  0  0  0  0  0  0  0  0  0  0
  182.9370  179.4120  143.3740 C   0  0  2  0  0  3  0  0  0  0  0  0
  182.7400  178.6990  142.0320 C   0  0  0  0  0  2  0  0  0  0  0  0
  181.0330  177.8240  140.6080 O   0  0  0  0  0  1  0  0  0  0  0  0
  180.4580  178.1290  142.9070 C   0  0  0  0  0  2  0  0  0  0  0  0
  181.2500  178.6490  141.7100 C   0  0  1  0  0  3  0  0  0  0  0  0
  180.8740  178.9100  144.1540 C   0  0  0  0  0  2  0  0  0  0  0  0
  2  5  1  0  0  0  0
  3 14  1  0  0  0  0
  4 17  1  1  0  0  0
  4  6  1  0  0  0  0
  5 16  1  0  0  0  0
  5  7  1  1  0  0  0
  6  9  1  0  0  0  0
  6  2  1  6  0  0  0
  7 20  2  0  0  0  0
  7 14  1  0  0  0  0
  8  4  1  0  0  0  0
  8 12  1  0  0  0  0
  9 13  1  6  0  0  0
  9 16  1  0  0  0  0
 10 18  1  0  0  0  0
 10 13  1  0  0  0  0
 12 15  1  0  0  0  0
 15 11  2  0  0  0  0
 15  2  1  0  0  0  0
 16 19  1  0  0  0  0
 17  1  1  0  0  0  0
 18  1  1  0  0  0  0
 19  3  1  0  0  0  0
 19 21  1  0  0  0  0
 20 30  1  0  0  0  0
 21 22  1  0  0  0  0
 22 26  1  0  0  0  0
 23 22  1  0  0  0  0
 24 25  1  0  0  0  0
 25 23  1  0  0  0  0
 26 28  1  0  0  0  0
 28 29  1  0  0  0  0
 28 27  1  0  0  0  0
 29 27  1  0  0  0  0
 32 30  1  0  0  0  0
 32 31  1  0  0  0  0
 33 32  1  0  0  0  0
 34 36  1  0  0  0  0
 35 37  1  0  0  0  0
 36 33  1  0  0  0  0
 36 35  1  0  0  0  0
 37 31  1  0  0  0  0
M  END
>  <MODEL>
2

>  <REMARK>
 VINA RESULT:      -6.0      3.347      6.905
  Name = 
  8 active torsions:
  status: ('A' for Active; 'I' for Inactive)
    1  A    between atoms: O_1  and  C_33
    2  A    between atoms: O_1  and  C_36
    3  A    between atoms: C_5  and  C_23
    4  A    between atoms: C_5  and  C_33
    5  A    between atoms: C_6  and  C_31
    6  A    between atoms: O_17  and  C_26
    7  A    between atoms: O_17  and  C_33
    8  A    between atoms: C_31  and  N_37
                            x       y       z     vdW  Elec       q    Type
                         _______ _______ _______ _____ _____    ______ ____

>  <TORSDO>
F 8

$$$$
=
 OpenBabel10272414533D

 37 42  0  0  1  0  0  0  0  0999 V2000
  192.5130  174.3010  138.1960 C   0  0  0  0  0  2  0  0  0  0  0  0
  189.2920  177.2100  138.9570 N   0  0  0  0  0  0  0  0  0  0  0  0
  189.3920  176.0180  142.0880 C   0  0  0  0  0  2  0  0  0  0  0  0
  190.4940  175.6640  137.3840 C   0  0  2  0  0  3  0  0  0  0  0  0
  189.5820  178.0690  140.0930 C   0  0  1  0  0  3  0  0  0  0  0  0
  190.2720  176.1450  138.8320 C   0  0  1  0  0  3  0  0  0  0  0  0
  188.4190  178.1010  141.0540 C   0  0  0  0  0  0  0  0  0  0  0  0
  189.1550  175.5040  136.6670 C   0  0  0  0  0  2  0  0  0  0  0  0
  191.5030  176.6320  139.6140 C   0  0  1  0  0  3  0  0  0  0  0  0
  193.1650  176.6060  137.2930 C   0  0  0  0  0  2  0  0  0  0  0  0
  187.6700  178.5730  137.9550 O   0  0  0  0  0  0  0  0  0  0  0  0
  188.4040  176.7540  136.7040 N   0  0  0  0  0  2  0  0  0  0  0  0
  192.6840  177.6980  138.6830 S   0  0  0  0  0  0  0  0  0  0  0  0
  188.2580  177.0350  142.1150 C   0  0  0  0  0  2  0  0  0  0  0  0
  188.4060  177.5540  137.8850 C   0  0  0  0  0  0  0  0  0  0  0  0
  190.8960  177.5180  140.6970 C   0  0  2  0  0  3  0  0  0  0  0  0
  191.2480  174.3270  137.3300 C   0  0  0  0  0  2  0  0  0  0  0  0
  193.6370  175.2130  137.6970 C   0  0  0  0  0  2  0  0  0  0  0  0
  190.7460  176.7170  142.0000 C   0  0  1  0  0  3  0  0  0  0  0  0
  187.5580  179.0530  140.9300 N   0  0  0  0  0  0  0  0  0  0  0  0
  190.9410  177.5600  143.1090 O   0  0  0  0  0  0  0  0  0  0  0  0
  190.4660  176.9100  144.2720 C   0  0  2  0  0  3  0  0  0  0  0  0
  189.7530  177.8580  145.2360 C   0  0  0  0  0  2  0  0  0  0  0  0
  187.8310  177.4760  146.7460 C   0  0  0  0  0  1  0  0  0  0  0  0
  188.2720  177.5340  145.2990 C   0  0  0  0  0  2  0  0  0  0  0  0
  191.4860  176.2100  144.9280 O   0  0  0  0  0  0  0  0  0  0  0  0
  191.3570  175.5840  147.1900 C   0  0  0  0  0  2  0  0  0  0  0  0
  191.4790  176.7040  146.2340 C   0  0  1  0  0  3  0  0  0  0  0  0
  192.5960  176.1950  146.9250 O   0  0  0  0  0  0  0  0  0  0  0  0
  186.3950  179.1850  141.7770 C   0  0  0  0  0  2  0  0  0  0  0  0
  184.9220  179.7150  139.9500 O   0  0  0  0  0  0  0  0  0  0  0  0
  185.1300  178.8170  141.0140 C   0  0  2  0  0  3  0  0  0  0  0  0
  183.9170  178.8100  141.9510 C   0  0  0  0  0  2  0  0  0  0  0  0
  181.5380  178.5930  141.9350 O   0  0  0  0  0  1  0  0  0  0  0  0
  182.5710  179.2120  139.8710 C   0  0  0  0  0  2  0  0  0  0  0  0
  182.6800  178.3990  141.1580 C   0  0  1  0  0  3  0  0  0  0  0  0
  183.9120  179.1630  139.1390 C   0  0  0  0  0  2  0  0  0  0  0  0
  2  5  1  0  0  0  0
  3 14  1  0  0  0  0
  4  8  1  1  0  0  0
  4  6  1  0  0  0  0
  5 16  1  0  0  0  0
  5  7  1  1  0  0  0
  6  2  1  6  0  0  0
  6  9  1  0  0  0  0
  7 14  1  0  0  0  0
  8 12  1  0  0  0  0
  9 13  1  6  0  0  0
  9 16  1  0  0  0  0
 10 18  1  0  0  0  0
 10 13  1  0  0  0  0
 12 15  1  0  0  0  0
 15 11  2  0  0  0  0
 15  2  1  0  0  0  0
 16 19  1  0  0  0  0
 17  4  1  0  0  0  0
 17  1  1  0  0  0  0
 18  1  1  0  0  0  0
 19  3  1  0  0  0  0
 19 21  1  0  0  0  0
 20  7  2  0  0  0  0
 20 30  1  0  0  0  0
 21 22  1  0  0  0  0
 22 26  1  0  0  0  0
 22 23  1  0  0  0  0
 23 25  1  0  0  0  0
 25 24  1  0  0  0  0
 26 28  1  0  0  0  0
 28 29  1  0  0  0  0
 28 27  1  0  0  0  0
 29 27  1  0  0  0  0
 31 32  1  0  0  0  0
 32 30  1  0  0  0  0
 32 33  1  0  0  0  0
 35 36  1  0  0  0  0
 36 34  1  0  0  0  0
 36 33  1  0  0  0  0
 37 35  1  0  0  0  0
 37 31  1  0  0  0  0
M  END
>  <MODEL>
3

>  <REMARK>
 VINA RESULT:      -5.8      2.898      6.268
  Name = 
  8 active torsions:
  status: ('A' for Active; 'I' for Inactive)
    1  A    between atoms: O_1  and  C_33
    2  A    between atoms: O_1  and  C_36
    3  A    between atoms: C_5  and  C_23
    4  A    between atoms: C_5  and  C_33
    5  A    between atoms: C_6  and  C_31
    6  A    between atoms: O_17  and  C_26
    7  A    between atoms: O_17  and  C_33
    8  A    between atoms: C_31  and  N_37
                            x       y       z     vdW  Elec       q    Type
                         _______ _______ _______ _____ _____    ______ ____

>  <TORSDO>
F 8

$$$$
=
 OpenBabel10272414533D

 37 42  0  0  1  0  0  0  0  0999 V2000
  193.2390  175.8710  135.4210 C   0  0  0  0  0  2  0  0  0  0  0  0
  190.5490  176.8190  138.7800 N   0  0  0  0  0  0  0  0  0  0  0  0
  188.7530  178.4440  136.4630 C   0  0  0  0  0  2  0  0  0  0  0  0
  192.8560  176.3220  137.9200 C   0  0  2  0  0  3  0  0  0  0  0  0
  189.1680  176.4660  138.4980 C   0  0  1  0  0  3  0  0  0  0  0  0
  191.3880  176.6700  137.6030 C   0  0  1  0  0  3  0  0  0  0  0  0
  188.2450  177.6230  138.7920 C   0  0  0  0  0  0  0  0  0  0  0  0
  193.3700  177.1850  139.0710 C   0  0  0  0  0  2  0  0  0  0  0  0
  190.6180  175.7180  136.6740 C   0  0  1  0  0  3  0  0  0  0  0  0
  192.6850  173.7500  136.7440 C   0  0  0  0  0  2  0  0  0  0  0  0
  190.3640  176.9140  141.1140 O   0  0  0  0  0  0  0  0  0  0  0  0
  192.5200  177.0280  140.2460 N   0  0  0  0  0  2  0  0  0  0  0  0
  190.8740  173.9160  136.9690 S   0  0  0  0  0  0  0  0  0  0  0  0
  188.0020  178.7040  137.7640 C   0  0  0  0  0  2  0  0  0  0  0  0
  191.1040  176.9380  140.0960 C   0  0  0  0  0  0  0  0  0  0  0  0
  189.1600  176.0000  137.0210 C   0  0  2  0  0  3  0  0  0  0  0  0
  193.7720  176.5230  136.7040 C   0  0  0  0  0  2  0  0  0  0  0  0
  193.2330  174.3410  135.4480 C   0  0  0  0  0  2  0  0  0  0  0  0
  188.5690  176.9970  136.0120 C   0  0  1  0  0  3  0  0  0  0  0  0
  187.6860  177.6700  139.9530 N   0  0  0  0  0  0  0  0  0  0  0  0
  187.2080  176.7140  135.7960 O   0  0  0  0  0  0  0  0  0  0  0  0
  186.9630  175.3580  136.1140 C   0  0  2  0  0  3  0  0  0  0  0  0
  186.8290  174.4700  134.8770 C   0  0  0  0  0  2  0  0  0  0  0  0
  186.6770  172.0730  135.4690 C   0  0  0  0  0  1  0  0  0  0  0  0
  187.6170  173.1860  135.0580 C   0  0  0  0  0  2  0  0  0  0  0  0
  185.8490  175.2140  136.9510 O   0  0  0  0  0  0  0  0  0  0  0  0
  183.7500  176.1860  137.3700 C   0  0  0  0  0  2  0  0  0  0  0  0
  185.0500  176.3270  136.6800 C   0  0  1  0  0  3  0  0  0  0  0  0
  184.7740  176.9990  137.8860 O   0  0  0  0  0  0  0  0  0  0  0  0
  186.7950  178.7310  140.3610 C   0  0  0  0  0  2  0  0  0  0  0  0
  187.2640  177.6190  142.4430 O   0  0  0  0  0  0  0  0  0  0  0  0
  186.6290  178.7400  141.8750 C   0  0  2  0  0  3  0  0  0  0  0  0
  185.1440  178.7610  142.2540 C   0  0  0  0  0  2  0  0  0  0  0  0
  183.6910  178.6130  144.1450 O   0  0  0  0  0  1  0  0  0  0  0  0
  185.8980  177.7390  144.4190 C   0  0  0  0  0  2  0  0  0  0  0  0
  185.0210  178.8090  143.7750 C   0  0  1  0  0  3  0  0  0  0  0  0
  187.3060  177.8340  143.8330 C   0  0  0  0  0  2  0  0  0  0  0  0
  1 18  1  0  0  0  0
  1 17  1  0  0  0  0
  2 15  1  0  0  0  0
  3 14  1  0  0  0  0
  4 17  1  6  0  0  0
  4  8  1  0  0  0  0
  5  2  1  0  0  0  0
  5  7  1  6  0  0  0
  6  4  1  0  0  0  0
  6  2  1  1  0  0  0
  7 20  2  0  0  0  0
  8 12  1  0  0  0  0
  9 13  1  1  0  0  0
  9 16  1  0  0  0  0
  9  6  1  0  0  0  0
 10 13  1  0  0  0  0
 14  7  1  0  0  0  0
 15 12  1  0  0  0  0
 15 11  2  0  0  0  0
 16  5  1  0  0  0  0
 18 10  1  0  0  0  0
 19  3  1  0  0  0  0
 19 16  1  0  0  0  0
 20 30  1  0  0  0  0
 21 19  1  0  0  0  0
 21 22  1  0  0  0  0
 22 26  1  0  0  0  0
 23 25  1  0  0  0  0
 23 22  1  0  0  0  0
 25 24  1  0  0  0  0
 27 29  1  0  0  0  0
 28 26  1  0  0  0  0
 28 27  1  0  0  0  0
 28 29  1  0  0  0  0
 30 32  1  0  0  0  0
 31 37  1  0  0  0  0
 32 33  1  0  0  0  0
 32 31  1  0  0  0  0
 33 36  1  0  0  0  0
 36 34  1  0  0  0  0
 36 35  1  0  0  0  0
 37 35  1  0  0  0  0
M  END
>  <MODEL>
4

>  <REMARK>
 VINA RESULT:      -5.7      1.370      2.278
  Name = 
  8 active torsions:
  status: ('A' for Active; 'I' for Inactive)
    1  A    between atoms: O_1  and  C_33
    2  A    between atoms: O_1  and  C_36
    3  A    between atoms: C_5  and  C_23
    4  A    between atoms: C_5  and  C_33
    5  A    between atoms: C_6  and  C_31
    6  A    between atoms: O_17  and  C_26
    7  A    between atoms: O_17  and  C_33
    8  A    between atoms: C_31  and  N_37
                            x       y       z     vdW  Elec       q    Type
                         _______ _______ _______ _____ _____    ______ ____

>  <TORSDO>
F 8

$$$$
=
 OpenBabel10272414533D

 37 42  0  0  1  0  0  0  0  0999 V2000
  186.9470  177.9290  134.6300 C   0  0  0  0  0  2  0  0  0  0  0  0
  189.6580  176.5170  137.8040 N   0  0  0  0  0  0  0  0  0  0  0  0
  188.5030  179.1540  139.5200 C   0  0  0  0  0  2  0  0  0  0  0  0
  189.0990  176.7370  135.3650 C   0  0  2  0  0  3  0  0  0  0  0  0
  188.9790  176.3600  139.0790 C   0  0  1  0  0  3  0  0  0  0  0  0
  188.7990  177.1520  136.8190 C   0  0  1  0  0  3  0  0  0  0  0  0
  189.7380  177.0590  140.1820 C   0  0  0  0  0  0  0  0  0  0  0  0
  190.6060  176.7300  135.1150 C   0  0  0  0  0  2  0  0  0  0  0  0
  187.3660  176.9430  137.3340 C   0  0  1  0  0  3  0  0  0  0  0  0
  186.6100  175.4250  135.0390 C   0  0  0  0  0  2  0  0  0  0  0  0
  191.5030  175.1510  138.2750 O   0  0  0  0  0  0  0  0  0  0  0  0
  191.2780  175.8530  136.0690 N   0  0  0  0  0  2  0  0  0  0  0  0
  186.5620  175.3510  136.8690 S   0  0  0  0  0  0  0  0  0  0  0  0
  189.5400  178.5340  140.4480 C   0  0  0  0  0  2  0  0  0  0  0  0
  190.8540  175.8220  137.4300 C   0  0  0  0  0  0  0  0  0  0  0  0
  187.5460  176.8990  138.8480 C   0  0  2  0  0  3  0  0  0  0  0  0
  188.4330  177.6760  134.3480 C   0  0  0  0  0  2  0  0  0  0  0  0
  186.0500  176.7060  134.4270 C   0  0  0  0  0  2  0  0  0  0  0  0
  187.2510  178.2840  139.4470 C   0  0  1  0  0  3  0  0  0  0  0  0
  190.5730  176.3630  140.8760 N   0  0  0  0  0  0  0  0  0  0  0  0
  186.6700  178.1430  140.7210 O   0  0  0  0  0  0  0  0  0  0  0  0
  185.6590  179.1190  140.8770 C   0  0  2  0  0  3  0  0  0  0  0  0
  184.5600  178.6910  141.8500 C   0  0  0  0  0  2  0  0  0  0  0  0
  183.7710  178.9090  144.1840 C   0  0  0  0  0  1  0  0  0  0  0  0
  184.9850  178.9590  143.2810 C   0  0  0  0  0  2  0  0  0  0  0  0
  185.1110  179.5000  139.6460 O   0  0  0  0  0  0  0  0  0  0  0  0
  182.9700  180.0540  138.8480 C   0  0  0  0  0  2  0  0  0  0  0  0
  183.7570  179.1730  139.7380 C   0  0  1  0  0  3  0  0  0  0  0  0
  183.3020  178.7380  138.4780 O   0  0  0  0  0  0  0  0  0  0  0  0
  191.3690  176.9160  141.9460 C   0  0  0  0  0  2  0  0  0  0  0  0
  189.8490  178.0240  143.4460 O   0  0  0  0  0  0  0  0  0  0  0  0
  190.6120  176.8550  143.2660 C   0  0  2  0  0  3  0  0  0  0  0  0
  191.5830  176.6660  144.4370 C   0  0  0  0  0  2  0  0  0  0  0  0
  191.6520  176.6130  146.8240 O   0  0  0  0  0  1  0  0  0  0  0  0
  189.7780  177.7130  145.8310 C   0  0  0  0  0  2  0  0  0  0  0  0
  190.7850  176.5700  145.7340 C   0  0  1  0  0  3  0  0  0  0  0  0
  188.9810  177.7830  144.5280 C   0  0  0  0  0  2  0  0  0  0  0  0
  2  5  1  0  0  0  0
  3 14  1  0  0  0  0
  4 17  1  6  0  0  0
  4  6  1  0  0  0  0
  5  7  1  1  0  0  0
  6  9  1  0  0  0  0
  6  2  1  1  0  0  0
  7 14  1  0  0  0  0
  7 20  2  0  0  0  0
  8  4  1  0  0  0  0
  8 12  1  0  0  0  0
  9 13  1  6  0  0  0
  9 16  1  0  0  0  0
 10 13  1  0  0  0  0
 12 15  1  0  0  0  0
 15  2  1  0  0  0  0
 15 11  2  0  0  0  0
 16  5  1  0  0  0  0
 16 19  1  0  0  0  0
 17  1  1  0  0  0  0
 18  1  1  0  0  0  0
 18 10  1  0  0  0  0
 19  3  1  0  0  0  0
 19 21  1  0  0  0  0
 20 30  1  0  0  0  0
 21 22  1  0  0  0  0
 22 23  1  0  0  0  0
 23 25  1  0  0  0  0
 25 24  1  0  0  0  0
 26 28  1  0  0  0  0
 26 22  1  0  0  0  0
 27 28  1  0  0  0  0
 29 27  1  0  0  0  0
 29 28  1  0  0  0  0
 30 32  1  0  0  0  0
 31 37  1  0  0  0  0
 32 31  1  0  0  0  0
 32 33  1  0  0  0  0
 33 36  1  0  0  0  0
 36 35  1  0  0  0  0
 36 34  1  0  0  0  0
 37 35  1  0  0  0  0
M  END
>  <MODEL>
5

>  <REMARK>
 VINA RESULT:      -5.6      2.728      4.729
  Name = 
  8 active torsions:
  status: ('A' for Active; 'I' for Inactive)
    1  A    between atoms: O_1  and  C_33
    2  A    between atoms: O_1  and  C_36
    3  A    between atoms: C_5  and  C_23
    4  A    between atoms: C_5  and  C_33
    5  A    between atoms: C_6  and  C_31
    6  A    between atoms: O_17  and  C_26
    7  A    between atoms: O_17  and  C_33
    8  A    between atoms: C_31  and  N_37
                            x       y       z     vdW  Elec       q    Type
                         _______ _______ _______ _____ _____    ______ ____

>  <TORSDO>
F 8

$$$$
=
 OpenBabel10272414533D

 37 42  0  0  1  0  0  0  0  0999 V2000
  191.7050  178.0270  143.7440 C   0  0  0  0  0  2  0  0  0  0  0  0
  187.3590  177.7680  144.4210 N   0  0  0  0  0  0  0  0  0  0  0  0
  187.1580  179.9570  141.8900 C   0  0  0  0  0  2  0  0  0  0  0  0
  189.7050  177.6610  145.3120 C   0  0  2  0  0  3  0  0  0  0  0  0
  186.6280  177.4620  143.2020 C   0  0  1  0  0  3  0  0  0  0  0  0
  188.7620  178.0290  144.1480 C   0  0  1  0  0  3  0  0  0  0  0  0
  185.4880  178.4310  143.0010 C   0  0  0  0  0  0  0  0  0  0  0  0
  189.1230  178.1430  146.6390 C   0  0  0  0  0  2  0  0  0  0  0  0
  189.0370  177.3820  142.7820 C   0  0  1  0  0  3  0  0  0  0  0  0
  190.9680  175.5790  143.8640 C   0  0  0  0  0  2  0  0  0  0  0  0
  185.6950  177.1230  145.9390 O   0  0  0  0  0  0  0  0  0  0  0  0
  187.7870  177.5920  146.8410 N   0  0  0  0  0  2  0  0  0  0  0  0
  189.4720  175.5900  142.8060 S   0  0  0  0  0  0  0  0  0  0  0  0
  185.7120  179.7670  142.3310 C   0  0  0  0  0  2  0  0  0  0  0  0
  186.8820  177.4940  145.7440 C   0  0  0  0  0  0  0  0  0  0  0  0
  187.6890  177.4800  142.0750 C   0  0  2  0  0  3  0  0  0  0  0  0
  191.1030  178.2690  145.1340 C   0  0  0  0  0  2  0  0  0  0  0  0
  192.0570  176.5660  143.4550 C   0  0  0  0  0  2  0  0  0  0  0  0
  187.6700  178.7160  141.1620 C   0  0  1  0  0  3  0  0  0  0  0  0
  184.3220  178.0900  143.4340 N   0  0  0  0  0  0  0  0  0  0  0  0
  186.8930  178.4580  140.0170 O   0  0  0  0  0  0  0  0  0  0  0  0
  187.7440  178.0430  138.9670 C   0  0  2  0  0  3  0  0  0  0  0  0
  189.1890  178.5070  139.1500 C   0  0  0  0  0  2  0  0  0  0  0  0
  191.1980  177.2510  139.8590 C   0  0  0  0  0  1  0  0  0  0  0  0
  190.1540  177.4000  138.7740 C   0  0  0  0  0  2  0  0  0  0  0  0
  187.2520  178.4350  137.7150 O   0  0  0  0  0  0  0  0  0  0  0  0
  185.7650  177.3670  136.2410 C   0  0  0  0  0  2  0  0  0  0  0  0
  185.9920  177.8420  137.6220 C   0  0  1  0  0  3  0  0  0  0  0  0
  186.1440  176.4870  137.2710 O   0  0  0  0  0  0  0  0  0  0  0  0
  183.1550  178.9330  143.3160 C   0  0  0  0  0  2  0  0  0  0  0  0
  181.1100  178.4140  142.1590 O   0  0  0  0  0  0  0  0  0  0  0  0
  182.4720  178.7200  141.9720 C   0  0  2  0  0  3  0  0  0  0  0  0
  183.1660  177.6040  141.1840 C   0  0  0  0  0  2  0  0  0  0  0  0
  182.9520  176.3050  139.1900 O   0  0  0  0  0  1  0  0  0  0  0  0
  180.9650  177.3520  140.0050 C   0  0  0  0  0  2  0  0  0  0  0  0
  182.4780  177.4490  139.8310 C   0  0  1  0  0  3  0  0  0  0  0  0
  180.4940  178.5010  140.8960 C   0  0  0  0  0  2  0  0  0  0  0  0
  1 17  1  0  0  0  0
  2 15  1  0  0  0  0
  3 14  1  0  0  0  0
  4 17  1  6  0  0  0
  4  8  1  0  0  0  0
  5  7  1  6  0  0  0
  5  2  1  0  0  0  0
  6  2  1  1  0  0  0
  6  4  1  0  0  0  0
  7 20  2  0  0  0  0
  8 12  1  0  0  0  0
  9 13  1  1  0  0  0
  9  6  1  0  0  0  0
 13 10  1  0  0  0  0
 14  7  1  0  0  0  0
 15 11  2  0  0  0  0
 15 12  1  0  0  0  0
 16  9  1  0  0  0  0
 16  5  1  0  0  0  0
 18  1  1  0  0  0  0
 18 10  1  0  0  0  0
 19  3  1  0  0  0  0
 19 16  1  0  0  0  0
 21 19  1  0  0  0  0
 22 23  1  0  0  0  0
 22 21  1  0  0  0  0
 25 23  1  0  0  0  0
 25 24  1  0  0  0  0
 26 22  1  0  0  0  0
 27 29  1  0  0  0  0
 27 28  1  0  0  0  0
 28 26  1  0  0  0  0
 29 28  1  0  0  0  0
 30 20  1  0  0  0  0
 32 31  1  0  0  0  0
 32 30  1  0  0  0  0
 33 32  1  0  0  0  0
 34 36  1  0  0  0  0
 35 37  1  0  0  0  0
 36 35  1  0  0  0  0
 36 33  1  0  0  0  0
 37 31  1  0  0  0  0
M  END
>  <MODEL>
6

>  <REMARK>
 VINA RESULT:      -5.5      3.533      6.704
  Name = 
  8 active torsions:
  status: ('A' for Active; 'I' for Inactive)
    1  A    between atoms: O_1  and  C_33
    2  A    between atoms: O_1  and  C_36
    3  A    between atoms: C_5  and  C_23
    4  A    between atoms: C_5  and  C_33
    5  A    between atoms: C_6  and  C_31
    6  A    between atoms: O_17  and  C_26
    7  A    between atoms: O_17  and  C_33
    8  A    between atoms: C_31  and  N_37
                            x       y       z     vdW  Elec       q    Type
                         _______ _______ _______ _____ _____    ______ ____

>  <TORSDO>
F 8

$$$$
=
 OpenBabel10272414533D

 37 42  0  0  1  0  0  0  0  0999 V2000
  188.6070  177.0540  140.8110 C   0  0  0  0  0  2  0  0  0  0  0  0
  191.7930  176.3340  137.8530 N   0  0  0  0  0  0  0  0  0  0  0  0
  190.0830  173.5330  137.1700 C   0  0  0  0  0  2  0  0  0  0  0  0
  191.0430  177.3150  140.0410 C   0  0  2  0  0  3  0  0  0  0  0  0
  191.2640  176.0670  136.5270 C   0  0  1  0  0  3  0  0  0  0  0  0
  190.7350  176.3890  138.8470 C   0  0  1  0  0  3  0  0  0  0  0  0
  191.8750  174.8150  135.9450 C   0  0  0  0  0  0  0  0  0  0  0  0
  192.4770  177.1040  140.5200 C   0  0  0  0  0  2  0  0  0  0  0  0
  189.4460  176.6590  138.0540 C   0  0  1  0  0  3  0  0  0  0  0  0
  188.9810  179.1430  139.3800 C   0  0  0  0  0  2  0  0  0  0  0  0
  193.9630  176.9270  137.1970 O   0  0  0  0  0  0  0  0  0  0  0  0
  193.4180  177.3140  139.4260 N   0  0  0  0  0  2  0  0  0  0  0  0
  189.0710  178.4280  137.6960 S   0  0  0  0  0  0  0  0  0  0  0  0
  191.3060  173.4510  136.2640 C   0  0  0  0  0  2  0  0  0  0  0  0
  193.1060  176.8450  138.1160 C   0  0  0  0  0  0  0  0  0  0  0  0
  189.7270  176.0040  136.7050 C   0  0  2  0  0  3  0  0  0  0  0  0
  190.0860  177.0770  141.2180 C   0  0  0  0  0  2  0  0  0  0  0  0
  188.0600  178.4070  140.3480 C   0  0  0  0  0  2  0  0  0  0  0  0
  189.1090  174.5970  136.6710 C   0  0  1  0  0  3  0  0  0  0  0  0
  192.9080  174.9440  135.1850 N   0  0  0  0  0  0  0  0  0  0  0  0
  188.6700  174.2960  135.3690 O   0  0  0  0  0  0  0  0  0  0  0  0
  187.2560  174.3270  135.3410 C   0  0  2  0  0  3  0  0  0  0  0  0
  186.7010  175.5120  134.5510 C   0  0  0  0  0  2  0  0  0  0  0  0
  186.5700  177.9690  134.8090 C   0  0  0  0  0  1  0  0  0  0  0  0
  186.3160  176.6400  135.4890 C   0  0  0  0  0  2  0  0  0  0  0  0
  186.7110  174.2910  136.6310 O   0  0  0  0  0  0  0  0  0  0  0  0
  184.9520  173.1730  137.7190 C   0  0  0  0  0  2  0  0  0  0  0  0
  186.0130  173.0840  136.6930 C   0  0  1  0  0  3  0  0  0  0  0  0
  184.6670  173.3120  136.3490 O   0  0  0  0  0  0  0  0  0  0  0  0
  193.5930  173.8250  134.5810 C   0  0  0  0  0  2  0  0  0  0  0  0
  194.9600  173.0060  136.3830 O   0  0  0  0  0  0  0  0  0  0  0  0
  194.9990  173.6840  135.1490 C   0  0  2  0  0  3  0  0  0  0  0  0
  195.6540  175.0590  135.3170 C   0  0  0  0  0  2  0  0  0  0  0  0
  197.6060  176.1080  136.2100 O   0  0  0  0  0  1  0  0  0  0  0  0
  197.0720  173.9390  137.0580 C   0  0  0  0  0  2  0  0  0  0  0  0
  197.0710  174.8720  135.8500 C   0  0  1  0  0  3  0  0  0  0  0  0
  196.2890  172.6740  136.7090 C   0  0  0  0  0  2  0  0  0  0  0  0
  1 17  1  0  0  0  0
  2 15  1  0  0  0  0
  4  8  1  1  0  0  0
  4 17  1  0  0  0  0
  5  7  1  1  0  0  0
  5 16  1  0  0  0  0
  5  2  1  0  0  0  0
  6  2  1  6  0  0  0
  6  4  1  0  0  0  0
  7 14  1  0  0  0  0
  9 13  1  6  0  0  0
  9  6  1  0  0  0  0
 10 18  1  0  0  0  0
 11 15  2  0  0  0  0
 12  8  1  0  0  0  0
 13 10  1  0  0  0  0
 14  3  1  0  0  0  0
 15 12  1  0  0  0  0
 16  9  1  0  0  0  0
 18  1  1  0  0  0  0
 19 16  1  0  0  0  0
 19  3  1  0  0  0  0
 20  7  2  0  0  0  0
 21 19  1  0  0  0  0
 22 21  1  0  0  0  0
 22 26  1  0  0  0  0
 23 22  1  0  0  0  0
 23 25  1  0  0  0  0
 24 25  1  0  0  0  0
 26 28  1  0  0  0  0
 28 27  1  0  0  0  0
 29 28  1  0  0  0  0
 29 27  1  0  0  0  0
 30 32  1  0  0  0  0
 30 20  1  0  0  0  0
 31 37  1  0  0  0  0
 32 33  1  0  0  0  0
 32 31  1  0  0  0  0
 33 36  1  0  0  0  0
 36 34  1  0  0  0  0
 36 35  1  0  0  0  0
 37 35  1  0  0  0  0
M  END
>  <MODEL>
7

>  <REMARK>
 VINA RESULT:      -5.5      3.048      7.127
  Name = 
  8 active torsions:
  status: ('A' for Active; 'I' for Inactive)
    1  A    between atoms: O_1  and  C_33
    2  A    between atoms: O_1  and  C_36
    3  A    between atoms: C_5  and  C_23
    4  A    between atoms: C_5  and  C_33
    5  A    between atoms: C_6  and  C_31
    6  A    between atoms: O_17  and  C_26
    7  A    between atoms: O_17  and  C_33
    8  A    between atoms: C_31  and  N_37
                            x       y       z     vdW  Elec       q    Type
                         _______ _______ _______ _____ _____    ______ ____

>  <TORSDO>
F 8

$$$$
=
 OpenBabel10272414533D

 37 42  0  0  1  0  0  0  0  0999 V2000
  189.0570  175.8590  137.5510 C   0  0  0  0  0  2  0  0  0  0  0  0
  186.2180  178.3530  139.8180 N   0  0  0  0  0  0  0  0  0  0  0  0
  187.4530  176.7590  142.4960 C   0  0  0  0  0  2  0  0  0  0  0  0
  186.8380  177.1420  137.7070 C   0  0  2  0  0  3  0  0  0  0  0  0
  186.8610  179.0710  140.9050 C   0  0  1  0  0  3  0  0  0  0  0  0
  187.1250  177.4020  139.1990 C   0  0  1  0  0  3  0  0  0  0  0  0
  186.1110  178.8730  142.2000 C   0  0  0  0  0  0  0  0  0  0  0  0
  185.3380  176.9670  137.4780 C   0  0  0  0  0  2  0  0  0  0  0  0
  188.5350  177.8810  139.5760 C   0  0  1  0  0  3  0  0  0  0  0  0
  189.2720  178.3120  136.8520 C   0  0  0  0  0  2  0  0  0  0  0  0
  184.3040  179.6950  139.6620 O   0  0  0  0  0  0  0  0  0  0  0  0
  184.6070  178.1310  137.9660 N   0  0  0  0  0  2  0  0  0  0  0  0
  189.2780  179.1610  138.4760 S   0  0  0  0  0  0  0  0  0  0  0  0
  186.3690  177.6640  143.0700 C   0  0  0  0  0  2  0  0  0  0  0  0
  184.9990  178.7610  139.1840 C   0  0  0  0  0  0  0  0  0  0  0  0
  188.3210  178.5570  140.9270 C   0  0  2  0  0  3  0  0  0  0  0  0
  187.5670  175.8940  137.1880 C   0  0  0  0  0  2  0  0  0  0  0  0
  189.9020  176.9220  136.8460 C   0  0  0  0  0  2  0  0  0  0  0  0
  188.6660  177.5770  142.0590 C   0  0  1  0  0  3  0  0  0  0  0  0
  185.2320  179.7550  142.5310 N   0  0  0  0  0  0  0  0  0  0  0  0
  189.2120  178.2760  143.1510 O   0  0  0  0  0  0  0  0  0  0  0  0
  190.3580  177.5870  143.6130 C   0  0  2  0  0  3  0  0  0  0  0  0
  190.5180  177.6460  145.1320 C   0  0  0  0  0  2  0  0  0  0  0  0
  189.3440  177.5810  147.3080 C   0  0  0  0  0  1  0  0  0  0  0  0
  189.1610  177.6670  145.8080 C   0  0  0  0  0  2  0  0  0  0  0  0
  191.5220  178.0300  142.9740 O   0  0  0  0  0  0  0  0  0  0  0  0
  191.9850  177.6630  140.6980 C   0  0  0  0  0  2  0  0  0  0  0  0
  191.8130  177.0430  142.0290 C   0  0  1  0  0  3  0  0  0  0  0  0
  193.0880  177.2880  141.4850 O   0  0  0  0  0  0  0  0  0  0  0  0
  184.4380  179.6720  143.7350 C   0  0  0  0  0  2  0  0  0  0  0  0
  182.3070  178.7880  144.4160 O   0  0  0  0  0  0  0  0  0  0  0  0
  182.9630  179.5030  143.3960 C   0  0  2  0  0  3  0  0  0  0  0  0
  182.7960  178.7880  142.0510 C   0  0  0  0  0  2  0  0  0  0  0  0
  181.1280  177.8430  140.6260 O   0  0  0  0  0  1  0  0  0  0  0  0
  180.5430  178.1140  142.9260 C   0  0  0  0  0  2  0  0  0  0  0  0
  181.3090  178.6730  141.7310 C   0  0  1  0  0  3  0  0  0  0  0  0
  180.9250  178.9070  144.1750 C   0  0  0  0  0  2  0  0  0  0  0  0
  2  5  1  0  0  0  0
  3 14  1  0  0  0  0
  4 17  1  1  0  0  0
  4  6  1  0  0  0  0
  5 16  1  0  0  0  0
  5  7  1  1  0  0  0
  6  9  1  0  0  0  0
  6  2  1  6  0  0  0
  7 20  2  0  0  0  0
  7 14  1  0  0  0  0
  8  4  1  0  0  0  0
  8 12  1  0  0  0  0
  9 13  1  6  0  0  0
  9 16  1  0  0  0  0
 10 13  1  0  0  0  0
 12 15  1  0  0  0  0
 15 11  2  0  0  0  0
 15  2  1  0  0  0  0
 16 19  1  0  0  0  0
 17  1  1  0  0  0  0
 18 10  1  0  0  0  0
 18  1  1  0  0  0  0
 19  3  1  0  0  0  0
 19 21  1  0  0  0  0
 20 30  1  0  0  0  0
 21 22  1  0  0  0  0
 22 23  1  0  0  0  0
 23 25  1  0  0  0  0
 25 24  1  0  0  0  0
 26 22  1  0  0  0  0
 27 29  1  0  0  0  0
 27 28  1  0  0  0  0
 28 26  1  0  0  0  0
 29 28  1  0  0  0  0
 32 30  1  0  0  0  0
 32 31  1  0  0  0  0
 33 32  1  0  0  0  0
 34 36  1  0  0  0  0
 35 37  1  0  0  0  0
 36 33  1  0  0  0  0
 36 35  1  0  0  0  0
 37 31  1  0  0  0  0
M  END
>  <MODEL>
8

>  <REMARK>
 VINA RESULT:      -5.5      3.368      6.853
  Name = 
  8 active torsions:
  status: ('A' for Active; 'I' for Inactive)
    1  A    between atoms: O_1  and  C_33
    2  A    between atoms: O_1  and  C_36
    3  A    between atoms: C_5  and  C_23
    4  A    between atoms: C_5  and  C_33
    5  A    between atoms: C_6  and  C_31
    6  A    between atoms: O_17  and  C_26
    7  A    between atoms: O_17  and  C_33
    8  A    between atoms: C_31  and  N_37
                            x       y       z     vdW  Elec       q    Type
                         _______ _______ _______ _____ _____    ______ ____

>  <TORSDO>
F 8

$$$$
=
 OpenBabel10272414533D

 37 42  0  0  1  0  0  0  0  0999 V2000
  181.1210  176.6640  139.4260 C   0  0  0  0  0  2  0  0  0  0  0  0
  185.0240  176.6570  137.3800 N   0  0  0  0  0  0  0  0  0  0  0  0
  184.9050  173.3410  137.8530 C   0  0  0  0  0  2  0  0  0  0  0  0
  183.3390  177.8180  138.8370 C   0  0  2  0  0  3  0  0  0  0  0  0
  185.0610  175.7250  136.2660 C   0  0  1  0  0  3  0  0  0  0  0  0
  183.8010  176.5160  138.1510 C   0  0  1  0  0  3  0  0  0  0  0  0
  186.2750  174.8320  136.3520 C   0  0  0  0  0  0  0  0  0  0  0  0
  184.5260  178.5280  139.4840 C   0  0  0  0  0  2  0  0  0  0  0  0
  182.8060  175.8180  137.2110 C   0  0  1  0  0  3  0  0  0  0  0  0
  180.9930  178.0230  137.2600 C   0  0  0  0  0  2  0  0  0  0  0  0
  186.8410  177.9830  136.7230 O   0  0  0  0  0  0  0  0  0  0  0  0
  185.5670  178.7870  138.4960 N   0  0  0  0  0  2  0  0  0  0  0  0
  181.8530  176.9180  136.0790 S   0  0  0  0  0  0  0  0  0  0  0  0
  186.2560  173.5720  137.1870 C   0  0  0  0  0  2  0  0  0  0  0  0
  185.8710  177.8070  137.5050 C   0  0  0  0  0  0  0  0  0  0  0  0
  183.7090  174.9730  136.3190 C   0  0  2  0  0  3  0  0  0  0  0  0
  182.2720  177.5570  139.9100 C   0  0  0  0  0  2  0  0  0  0  0  0
  180.2230  177.3110  138.3690 C   0  0  0  0  0  2  0  0  0  0  0  0
  183.7680  173.5330  136.8540 C   0  0  1  0  0  3  0  0  0  0  0  0
  187.3330  175.1870  135.7060 N   0  0  0  0  0  0  0  0  0  0  0  0
  183.8890  172.6260  135.7840 O   0  0  0  0  0  0  0  0  0  0  0  0
  182.7070  171.8540  135.6990 C   0  0  2  0  0  3  0  0  0  0  0  0
  182.0380  171.6340  137.0550 C   0  0  0  0  0  2  0  0  0  0  0  0
  180.1170  173.1620  137.3650 C   0  0  0  0  0  1  0  0  0  0  0  0
  180.5330  171.7720  136.9320 C   0  0  0  0  0  2  0  0  0  0  0  0
  182.9330  170.6320  135.0530 O   0  0  0  0  0  0  0  0  0  0  0  0
  183.4770  168.4120  135.6040 C   0  0  0  0  0  2  0  0  0  0  0  0
  183.5650  169.8320  136.0060 C   0  0  1  0  0  3  0  0  0  0  0  0
  184.6480  169.1650  135.4030 O   0  0  0  0  0  0  0  0  0  0  0  0
  188.5620  174.4280  135.7180 C   0  0  0  0  0  2  0  0  0  0  0  0
  189.8340  176.3700  136.3490 O   0  0  0  0  0  0  0  0  0  0  0  0
  189.5580  175.0340  136.6980 C   0  0  2  0  0  3  0  0  0  0  0  0
  190.8520  174.2130  136.7290 C   0  0  0  0  0  2  0  0  0  0  0  0
  193.0610  174.2310  137.6390 O   0  0  0  0  0  1  0  0  0  0  0  0
  191.9310  176.3340  137.5260 C   0  0  0  0  0  2  0  0  0  0  0  0
  191.8060  174.8290  137.7480 C   0  0  1  0  0  3  0  0  0  0  0  0
  190.5310  176.9400  137.4310 C   0  0  0  0  0  2  0  0  0  0  0  0
  1 17  1  0  0  0  0
  2 15  1  0  0  0  0
  4  8  1  1  0  0  0
  4 17  1  0  0  0  0
  5 16  1  0  0  0  0
  5  7  1  1  0  0  0
  5  2  1  0  0  0  0
  6  2  1  6  0  0  0
  6  4  1  0  0  0  0
  7 14  1  0  0  0  0
  9 13  1  6  0  0  0
  9  6  1  0  0  0  0
 10 18  1  0  0  0  0
 11 15  2  0  0  0  0
 12  8  1  0  0  0  0
 13 10  1  0  0  0  0
 14  3  1  0  0  0  0
 15 12  1  0  0  0  0
 16 19  1  0  0  0  0
 16  9  1  0  0  0  0
 18  1  1  0  0  0  0
 19  3  1  0  0  0  0
 20 30  1  0  0  0  0
 20  7  2  0  0  0  0
 21 19  1  0  0  0  0
 22 21  1  0  0  0  0
 22 23  1  0  0  0  0
 25 23  1  0  0  0  0
 25 24  1  0  0  0  0
 26 22  1  0  0  0  0
 26 28  1  0  0  0  0
 27 28  1  0  0  0  0
 29 27  1  0  0  0  0
 29 28  1  0  0  0  0
 30 32  1  0  0  0  0
 31 32  1  0  0  0  0
 31 37  1  0  0  0  0
 32 33  1  0  0  0  0
 33 36  1  0  0  0  0
 34 36  1  0  0  0  0
 35 36  1  0  0  0  0
 37 35  1  0  0  0  0
M  END
>  <MODEL>
9

>  <REMARK>
 VINA RESULT:      -5.2      3.628      7.604
  Name = 
  8 active torsions:
  status: ('A' for Active; 'I' for Inactive)
    1  A    between atoms: O_1  and  C_33
    2  A    between atoms: O_1  and  C_36
    3  A    between atoms: C_5  and  C_23
    4  A    between atoms: C_5  and  C_33
    5  A    between atoms: C_6  and  C_31
    6  A    between atoms: O_17  and  C_26
    7  A    between atoms: O_17  and  C_33
    8  A    between atoms: C_31  and  N_37
                            x       y       z     vdW  Elec       q    Type
                         _______ _______ _______ _____ _____    ______ ____

>  <TORSDO>
F 8

$$$$
