=
 OpenBabel10272400303D

 31 35  0  0  1  0  0  0  0  0999 V2000
  188.9410  177.5530  143.1410 C   0  0  0  0  0  0  0  0  0  0  0  0
  189.2200  177.0160  144.5280 C   0  0  2  0  0  3  0  0  0  0  0  0
  189.1860  177.7920  146.8830 C   0  0  0  0  0  0  0  0  0  0  0  0
  187.7410  178.0100  142.7670 C   0  0  0  0  0  0  0  0  0  0  0  0
  185.6390  178.4390  142.6960 C   0  0  0  0  0  0  0  0  0  0  0  0
  188.6690  177.8620  145.6500 C   0  0  0  0  0  3  0  0  0  0  0  0
  189.6150  177.6960  140.6420 C   0  0  0  0  0  0  0  0  0  0  0  0
  191.5560  176.5940  143.7580 C   0  0  0  0  0  3  0  0  0  0  0  0
  188.6220  178.5070  147.8860 F   0  0  0  0  0  0  0  0  0  0  0  0
  188.3880  178.1670  140.3610 C   0  0  0  0  0  3  0  0  0  0  0  0
  189.9610  177.3740  142.0610 C   0  0  0  0  0  0  0  0  0  0  0  0
  186.5540  178.0740  143.5490 N   0  0  0  0  0  0  0  0  0  0  0  0
  190.4110  177.0050  147.1500 C   0  0  0  0  0  3  0  0  0  0  0  0
  187.4700  178.3650  141.4350 N   0  0  0  0  0  0  0  0  0  0  0  0
  186.1060  178.6250  141.3520 N   0  0  0  0  0  2  0  0  0  0  0  0
  191.1740  176.9020  142.3690 C   0  0  0  0  0  3  0  0  0  0  0  0
  190.6830  176.6930  144.7620 C   0  0  0  0  0  0  0  0  0  0  0  0
  191.1330  176.4960  146.1480 C   0  0  0  0  0  3  0  0  0  0  0  0
  189.7740  175.4860  138.7060 O   0  0  0  0  0  0  0  0  0  0  0  0
  190.6490  176.3920  138.6750 C   0  0  0  0  0  0  0  0  0  0  0  0
  190.5920  177.4830  139.6080 N   0  0  0  0  0  2  0  0  0  0  0  0
  193.7030  176.2570  135.7310 C   0  0  0  0  0  0  0  0  0  0  0  0
  191.4360  176.0530  136.3950 N   0  0  0  0  0  0  0  0  0  0  0  0
  193.6670  177.0300  139.6160 Cl  0  0  0  0  0  0  0  0  0  0  0  0
  194.9350  176.1920  134.4910 Cl  0  0  0  0  0  0  0  0  0  0  0  0
  192.3740  175.9960  135.4160 C   0  0  0  0  0  3  0  0  0  0  0  0
  193.1060  176.6220  137.9990 C   0  0  0  0  0  0  0  0  0  0  0  0
  191.7500  176.3580  137.6850 C   0  0  0  0  0  0  0  0  0  0  0  0
  194.0370  176.5630  137.0110 N   0  0  0  0  0  0  0  0  0  0  0  0
  184.2650  178.6220  143.0730 C   0  0  0  0  0  0  0  0  0  0  0  0
  183.1590  178.7690  143.3760 N   0  0  0  0  0  0  0  0  0  0  0  0
  1  2  1  0  0  0  0
  2 17  1  0  0  0  0
  2  6  1  1  0  0  0
  3 13  1  0  0  0  0
  3  9  1  0  0  0  0
  4  1  2  0  0  0  0
  4 12  1  0  0  0  0
  5 30  1  0  0  0  0
  5 12  2  0  0  0  0
  6  3  2  0  0  0  0
  7 11  1  0  0  0  0
  8 17  2  0  0  0  0
 10  7  2  0  0  0  0
 10 14  1  0  0  0  0
 11 16  2  0  0  0  0
 11  1  1  0  0  0  0
 14  4  1  0  0  0  0
 15 14  1  0  0  0  0
 15  5  1  0  0  0  0
 16  8  1  0  0  0  0
 17 18  1  0  0  0  0
 18 13  2  0  0  0  0
 20 19  2  0  0  0  0
 20 21  1  0  0  0  0
 21  7  1  0  0  0  0
 22 29  1  0  0  0  0
 23 28  2  0  0  0  0
 25 22  1  0  0  0  0
 26 22  2  0  0  0  0
 26 23  1  0  0  0  0
 27 24  1  0  0  0  0
 28 27  1  0  0  0  0
 28 20  1  0  0  0  0
 29 27  2  0  0  0  0
 30 31  3  0  0  0  0
M  END
>  <MODEL>
1

>  <REMARK>
 VINA RESULT:      -9.7      0.000      0.000
  Name = 
  3 active torsions:
  status: ('A' for Active; 'I' for Inactive)
    1  A    between atoms: C_2  and  C_13
    2  A    between atoms: C_9  and  C_22
    3  A    between atoms: C_15  and  N_23
                            x       y       z     vdW  Elec       q    Type
                         _______ _______ _______ _____ _____    ______ ____

>  <TORSDO>
F 3

$$$$
=
 OpenBabel10272400303D

 31 35  0  0  1  0  0  0  0  0999 V2000
  186.8570  177.9310  143.7920 C   0  0  0  0  0  0  0  0  0  0  0  0
  186.9370  177.6350  145.2740 C   0  0  2  0  0  3  0  0  0  0  0  0
  186.6430  178.8040  147.4410 C   0  0  0  0  0  0  0  0  0  0  0  0
  185.7340  178.3440  143.1930 C   0  0  0  0  0  0  0  0  0  0  0  0
  183.6780  178.8010  142.7780 C   0  0  0  0  0  0  0  0  0  0  0  0
  186.2880  178.6720  146.1570 C   0  0  0  0  0  3  0  0  0  0  0  0
  187.8430  177.6290  141.4140 C   0  0  0  0  0  0  0  0  0  0  0  0
  189.3300  177.0350  144.8970 C   0  0  0  0  0  3  0  0  0  0  0  0
  185.9900  179.6930  148.2280 F   0  0  0  0  0  0  0  0  0  0  0  0
  186.6830  178.0710  140.9000 C   0  0  0  0  0  3  0  0  0  0  0  0
  187.9940  177.5480  142.9000 C   0  0  0  0  0  0  0  0  0  0  0  0
  184.4630  178.5670  143.7920 N   0  0  0  0  0  0  0  0  0  0  0  0
  187.7890  178.0470  147.9940 C   0  0  0  0  0  3  0  0  0  0  0  0
  185.6480  178.4710  141.7970 N   0  0  0  0  0  0  0  0  0  0  0  0
  184.3170  178.7420  141.4940 N   0  0  0  0  0  2  0  0  0  0  0  0
  189.1380  177.1090  143.4390 C   0  0  0  0  0  3  0  0  0  0  0  0
  188.3430  177.3240  145.7480 C   0  0  0  0  0  0  0  0  0  0  0  0
  188.6080  177.3570  147.1940 C   0  0  0  0  0  3  0  0  0  0  0  0
  188.9170  178.9870  139.0360 O   0  0  0  0  0  0  0  0  0  0  0  0
  189.4350  177.9010  139.4070 C   0  0  0  0  0  0  0  0  0  0  0  0
  188.9310  177.2200  140.5670 N   0  0  0  0  0  2  0  0  0  0  0  0
  192.5950  176.1720  137.1610 C   0  0  0  0  0  0  0  0  0  0  0  0
  190.3550  176.9220  137.3750 N   0  0  0  0  0  0  0  0  0  0  0  0
  192.2900  177.5430  140.8650 Cl  0  0  0  0  0  0  0  0  0  0  0  0
  193.8730  175.4560  136.2050 Cl  0  0  0  0  0  0  0  0  0  0  0  0
  191.3310  176.3650  136.6130 C   0  0  0  0  0  3  0  0  0  0  0  0
  191.8590  177.1030  139.2160 C   0  0  0  0  0  0  0  0  0  0  0  0
  190.5690  177.3030  138.6660 C   0  0  0  0  0  0  0  0  0  0  0  0
  192.8290  176.5440  138.4450 N   0  0  0  0  0  0  0  0  0  0  0  0
  182.2780  179.0750  142.9360 C   0  0  0  0  0  0  0  0  0  0  0  0
  181.1490  179.2960  143.0640 N   0  0  0  0  0  0  0  0  0  0  0  0
  1  2  1  0  0  0  0
  2 17  1  0  0  0  0
  2  6  1  1  0  0  0
  3 13  1  0  0  0  0
  3  9  1  0  0  0  0
  4  1  2  0  0  0  0
  4 12  1  0  0  0  0
  5 30  1  0  0  0  0
  5 12  2  0  0  0  0
  6  3  2  0  0  0  0
  7 11  1  0  0  0  0
  8 17  2  0  0  0  0
 10  7  2  0  0  0  0
 10 14  1  0  0  0  0
 11 16  2  0  0  0  0
 11  1  1  0  0  0  0
 14  4  1  0  0  0  0
 15 14  1  0  0  0  0
 15  5  1  0  0  0  0
 16  8  1  0  0  0  0
 17 18  1  0  0  0  0
 18 13  2  0  0  0  0
 19 20  2  0  0  0  0
 20 21  1  0  0  0  0
 21  7  1  0  0  0  0
 22 29  1  0  0  0  0
 23 28  2  0  0  0  0
 25 22  1  0  0  0  0
 26 22  2  0  0  0  0
 26 23  1  0  0  0  0
 27 24  1  0  0  0  0
 28 27  1  0  0  0  0
 28 20  1  0  0  0  0
 29 27  2  0  0  0  0
 30 31  3  0  0  0  0
M  END
>  <MODEL>
2

>  <REMARK>
 VINA RESULT:      -9.5      1.717      2.254
  Name = 
  3 active torsions:
  status: ('A' for Active; 'I' for Inactive)
    1  A    between atoms: C_2  and  C_13
    2  A    between atoms: C_9  and  C_22
    3  A    between atoms: C_15  and  N_23
                            x       y       z     vdW  Elec       q    Type
                         _______ _______ _______ _____ _____    ______ ____

>  <TORSDO>
F 3

$$$$
=
 OpenBabel10272400303D

 31 35  0  0  1  0  0  0  0  0999 V2000
  187.3380  177.8480  142.8310 C   0  0  0  0  0  0  0  0  0  0  0  0
  187.3230  177.3840  144.2720 C   0  0  2  0  0  3  0  0  0  0  0  0
  186.7700  178.2660  146.5220 C   0  0  0  0  0  0  0  0  0  0  0  0
  186.2380  178.2530  142.1870 C   0  0  0  0  0  0  0  0  0  0  0  0
  184.1930  178.6180  141.6470 C   0  0  0  0  0  0  0  0  0  0  0  0
  186.5290  178.2630  145.2060 C   0  0  0  0  0  3  0  0  0  0  0  0
  188.5300  177.8960  140.5300 C   0  0  0  0  0  0  0  0  0  0  0  0
  189.7770  176.9930  144.0400 C   0  0  0  0  0  3  0  0  0  0  0  0
  185.9910  179.0090  147.3440 F   0  0  0  0  0  0  0  0  0  0  0  0
  187.3840  178.3180  139.9690 C   0  0  0  0  0  3  0  0  0  0  0  0
  188.5690  177.6490  142.0050 C   0  0  0  0  0  0  0  0  0  0  0  0
  184.9100  178.3190  142.6940 N   0  0  0  0  0  0  0  0  0  0  0  0
  187.9230  177.5270  147.0840 C   0  0  0  0  0  3  0  0  0  0  0  0
  186.2530  178.5390  140.8110 N   0  0  0  0  0  0  0  0  0  0  0  0
  184.9340  178.7550  140.4250 N   0  0  0  0  0  2  0  0  0  0  0  0
  189.6960  177.2270  142.5880 C   0  0  0  0  0  3  0  0  0  0  0  0
  188.7060  177.1140  144.8280 C   0  0  0  0  0  0  0  0  0  0  0  0
  188.8530  176.9930  146.2860 C   0  0  0  0  0  3  0  0  0  0  0  0
  189.1220  175.6280  138.7520 O   0  0  0  0  0  0  0  0  0  0  0  0
  189.9760  176.5440  138.8800 C   0  0  0  0  0  0  0  0  0  0  0  0
  189.7090  177.6640  139.7400 N   0  0  0  0  0  2  0  0  0  0  0  0
  193.5990  176.3520  136.6770 C   0  0  0  0  0  0  0  0  0  0  0  0
  191.2480  176.0920  136.8520 N   0  0  0  0  0  0  0  0  0  0  0  0
  192.6990  177.3730  140.3970 Cl  0  0  0  0  0  0  0  0  0  0  0  0
  195.0720  176.2610  135.7380 Cl  0  0  0  0  0  0  0  0  0  0  0  0
  192.3770  176.0140  136.1040 C   0  0  0  0  0  3  0  0  0  0  0  0
  192.5140  176.8370  138.7310 C   0  0  0  0  0  0  0  0  0  0  0  0
  191.2660  176.4940  138.1550 C   0  0  0  0  0  0  0  0  0  0  0  0
  193.6380  176.7550  137.9730 N   0  0  0  0  0  0  0  0  0  0  0  0
  182.7670  178.7780  141.7120 C   0  0  0  0  0  0  0  0  0  0  0  0
  181.6190  178.9070  141.7640 N   0  0  0  0  0  0  0  0  0  0  0  0
  1  2  1  0  0  0  0
  2 17  1  0  0  0  0
  2  6  1  1  0  0  0
  3 13  1  0  0  0  0
  3  9  1  0  0  0  0
  4 12  1  0  0  0  0
  4  1  2  0  0  0  0
  5 30  1  0  0  0  0
  5 12  2  0  0  0  0
  6  3  2  0  0  0  0
  7 11  1  0  0  0  0
  8 17  2  0  0  0  0
 10  7  2  0  0  0  0
 10 14  1  0  0  0  0
 11 16  2  0  0  0  0
 11  1  1  0  0  0  0
 14  4  1  0  0  0  0
 15 14  1  0  0  0  0
 15  5  1  0  0  0  0
 16  8  1  0  0  0  0
 17 18  1  0  0  0  0
 18 13  2  0  0  0  0
 19 20  2  0  0  0  0
 20 21  1  0  0  0  0
 21  7  1  0  0  0  0
 22 29  1  0  0  0  0
 23 28  2  0  0  0  0
 25 22  1  0  0  0  0
 26 22  2  0  0  0  0
 26 23  1  0  0  0  0
 27 24  1  0  0  0  0
 28 27  1  0  0  0  0
 28 20  1  0  0  0  0
 29 27  2  0  0  0  0
 30 31  3  0  0  0  0
M  END
>  <MODEL>
3

>  <REMARK>
 VINA RESULT:      -9.5      1.316      1.638
  Name = 
  3 active torsions:
  status: ('A' for Active; 'I' for Inactive)
    1  A    between atoms: C_2  and  C_13
    2  A    between atoms: C_9  and  C_22
    3  A    between atoms: C_15  and  N_23
                            x       y       z     vdW  Elec       q    Type
                         _______ _______ _______ _____ _____    ______ ____

>  <TORSDO>
F 3

$$$$
=
 OpenBabel10272400303D

 31 35  0  0  0  0  0  0  0  0999 V2000
  188.7230  177.3110  144.5300 C   0  0  0  0  0  0  0  0  0  0  0  0
  187.6140  178.1710  145.0970 C   0  0  0  0  0  0  0  0  0  0  0  0
  185.9190  178.0970  146.9060 C   0  0  0  0  0  0  0  0  0  0  0  0
  189.7890  176.9350  145.2450 C   0  0  0  0  0  0  0  0  0  0  0  0
  191.2880  176.7930  146.7750 C   0  0  0  0  0  0  0  0  0  0  0  0
  187.1380  177.7570  146.4680 C   0  0  0  0  0  3  0  0  0  0  0  0
  189.9680  176.3840  142.4540 C   0  0  0  0  0  0  0  0  0  0  0  0
  186.5340  178.0390  142.8510 C   0  0  0  0  0  3  0  0  0  0  0  0
  185.5490  177.7750  148.1690 F   0  0  0  0  0  0  0  0  0  0  0  0
  190.9870  176.0240  143.2530 C   0  0  0  0  0  3  0  0  0  0  0  0
  188.7680  177.0390  143.0600 C   0  0  0  0  0  0  0  0  0  0  0  0
  190.0810  177.2540  146.6000 N   0  0  0  0  0  0  0  0  0  0  0  0
  184.9440  178.7530  146.0070 C   0  0  0  0  0  3  0  0  0  0  0  0
  190.8710  176.2610  144.6550 N   0  0  0  0  0  0  0  0  0  0  0  0
  191.8720  176.1780  145.6180 N   0  0  0  0  0  2  0  0  0  0  0  0
  187.7390  177.4090  142.2880 C   0  0  0  0  0  3  0  0  0  0  0  0
  186.4450  178.3440  144.1480 C   0  0  0  0  0  0  0  0  0  0  0  0
  185.1810  178.8590  144.6950 C   0  0  0  0  0  2  0  0  0  0  0  0
  191.7130  177.6670  140.4630 O   0  0  0  0  0  0  0  0  0  0  0  0
  190.8760  176.8070  140.0810 C   0  0  0  0  0  0  0  0  0  0  0  0
  190.0150  176.1640  141.0340 N   0  0  0  0  0  2  0  0  0  0  0  0
  190.6180  175.6200  136.0140 C   0  0  0  0  0  0  0  0  0  0  0  0
  191.3140  175.2580  138.2520 N   0  0  0  0  0  0  0  0  0  0  0  0
  189.3470  178.7780  138.0380 Cl  0  0  0  0  0  0  0  0  0  0  0  0
  190.5320  175.0980  134.3460 Cl  0  0  0  0  0  0  0  0  0  0  0  0
  191.2590  174.8320  136.9640 C   0  0  0  0  0  3  0  0  0  0  0  0
  190.1090  177.2340  137.6770 C   0  0  0  0  0  0  0  0  0  0  0  0
  190.7600  176.4370  138.6510 C   0  0  0  0  0  0  0  0  0  0  0  0
  190.0600  176.7980  136.3910 N   0  0  0  0  0  0  0  0  0  0  0  0
  191.9830  176.9130  148.0260 C   0  0  0  0  0  0  0  0  0  0  0  0
  192.5430  177.0090  149.0330 N   0  0  0  0  0  0  0  0  0  0  0  0
  1  2  1  0  0  0  0
  1  4  2  0  0  0  0
  2  6  2  0  0  0  0
  3  9  1  0  0  0  0
  4 12  1  0  0  0  0
  5 30  1  0  0  0  0
  6  3  1  0  0  0  0
  7 11  1  0  0  0  0
  7 10  2  0  0  0  0
  8 17  2  0  0  0  0
 10 14  1  0  0  0  0
 11  1  1  0  0  0  0
 12  5  2  0  0  0  0
 13  3  2  0  0  0  0
 14  4  1  0  0  0  0
 14 15  1  0  0  0  0
 15  5  1  0  0  0  0
 16  8  1  0  0  0  0
 16 11  2  0  0  0  0
 17 18  1  0  0  0  0
 17  2  1  0  0  0  0
 18 13  1  0  0  0  0
 20 19  2  0  0  0  0
 20 21  1  0  0  0  0
 21  7  1  0  0  0  0
 22 29  2  0  0  0  0
 22 26  1  0  0  0  0
 23 28  1  0  0  0  0
 25 22  1  0  0  0  0
 26 23  2  0  0  0  0
 27 24  1  0  0  0  0
 27 28  2  0  0  0  0
 28 20  1  0  0  0  0
 29 27  1  0  0  0  0
 30 31  3  0  0  0  0
M  END
>  <MODEL>
4

>  <REMARK>
 VINA RESULT:      -9.2      2.977      4.700
  Name = 
  3 active torsions:
  status: ('A' for Active; 'I' for Inactive)
    1  A    between atoms: C_2  and  C_13
    2  A    between atoms: C_9  and  C_22
    3  A    between atoms: C_15  and  N_23
                            x       y       z     vdW  Elec       q    Type
                         _______ _______ _______ _____ _____    ______ ____

>  <TORSDO>
F 3

$$$$
=
 OpenBabel10272400303D

 31 35  0  0  1  0  0  0  0  0999 V2000
  188.0520  177.6610  143.6940 C   0  0  0  0  0  0  0  0  0  0  0  0
  188.2390  177.1910  145.1210 C   0  0  2  0  0  3  0  0  0  0  0  0
  188.0860  178.0880  147.4280 C   0  0  0  0  0  0  0  0  0  0  0  0
  186.8860  178.1220  143.2280 C   0  0  0  0  0  0  0  0  0  0  0  0
  184.8020  178.5880  143.0120 C   0  0  0  0  0  0  0  0  0  0  0  0
  187.6430  178.1040  146.1650 C   0  0  0  0  0  3  0  0  0  0  0  0
  188.8720  177.6630  141.2350 C   0  0  0  0  0  0  0  0  0  0  0  0
  190.6050  176.6840  144.5110 C   0  0  0  0  0  3  0  0  0  0  0  0
  187.4810  178.8650  148.3580 F   0  0  0  0  0  0  0  0  0  0  0  0
  187.6750  178.1420  140.8590 C   0  0  0  0  0  3  0  0  0  0  0  0
  189.1280  177.4080  142.6870 C   0  0  0  0  0  0  0  0  0  0  0  0
  185.6580  178.2490  143.9350 N   0  0  0  0  0  0  0  0  0  0  0  0
  189.2750  177.2920  147.8060 C   0  0  0  0  0  3  0  0  0  0  0  0
  186.7010  178.4130  141.8660 N   0  0  0  0  0  0  0  0  0  0  0  0
  185.3500  178.6940  141.6900 N   0  0  0  0  0  2  0  0  0  0  0  0
  190.3110  176.9290  143.0890 C   0  0  0  0  0  3  0  0  0  0  0  0
  189.6770  176.8520  145.4560 C   0  0  0  0  0  0  0  0  0  0  0  0
  190.0430  176.7180  146.8740 C   0  0  0  0  0  3  0  0  0  0  0  0
  188.6070  176.3800  138.6010 O   0  0  0  0  0  0  0  0  0  0  0  0
  189.7470  176.7470  138.9910 C   0  0  0  0  0  0  0  0  0  0  0  0
  189.9020  177.3780  140.2720 N   0  0  0  0  0  2  0  0  0  0  0  0
  193.2710  176.1650  136.6990 C   0  0  0  0  0  0  0  0  0  0  0  0
  192.1630  176.5380  138.7620 N   0  0  0  0  0  0  0  0  0  0  0  0
  189.4140  176.3190  135.8120 Cl  0  0  0  0  0  0  0  0  0  0  0  0
  194.7460  175.9290  135.7870 Cl  0  0  0  0  0  0  0  0  0  0  0  0
  193.3200  176.3570  138.0760 C   0  0  0  0  0  3  0  0  0  0  0  0
  190.9050  176.3440  136.7450 C   0  0  0  0  0  0  0  0  0  0  0  0
  190.9460  176.5400  138.1480 C   0  0  0  0  0  0  0  0  0  0  0  0
  192.0700  176.1630  136.0680 N   0  0  0  0  0  0  0  0  0  0  0  0
  183.4130  178.8160  143.2980 C   0  0  0  0  0  0  0  0  0  0  0  0
  182.2950  179.0000  143.5280 N   0  0  0  0  0  0  0  0  0  0  0  0
  1  2  1  0  0  0  0
  2 17  1  0  0  0  0
  2  6  1  1  0  0  0
  3 13  1  0  0  0  0
  3  9  1  0  0  0  0
  4  1  2  0  0  0  0
  4 12  1  0  0  0  0
  5 30  1  0  0  0  0
  5 12  2  0  0  0  0
  6  3  2  0  0  0  0
  7 11  1  0  0  0  0
  8 17  2  0  0  0  0
 10  7  2  0  0  0  0
 10 14  1  0  0  0  0
 11 16  2  0  0  0  0
 11  1  1  0  0  0  0
 14  4  1  0  0  0  0
 15 14  1  0  0  0  0
 15  5  1  0  0  0  0
 16  8  1  0  0  0  0
 17 18  1  0  0  0  0
 18 13  2  0  0  0  0
 19 20  2  0  0  0  0
 20 21  1  0  0  0  0
 21  7  1  0  0  0  0
 22 26  1  0  0  0  0
 24 27  1  0  0  0  0
 25 22  1  0  0  0  0
 26 23  2  0  0  0  0
 27 28  2  0  0  0  0
 28 23  1  0  0  0  0
 28 20  1  0  0  0  0
 29 22  2  0  0  0  0
 29 27  1  0  0  0  0
 30 31  3  0  0  0  0
M  END
>  <MODEL>
5

>  <REMARK>
 VINA RESULT:      -9.2      1.432      1.708
  Name = 
  3 active torsions:
  status: ('A' for Active; 'I' for Inactive)
    1  A    between atoms: C_2  and  C_13
    2  A    between atoms: C_9  and  C_22
    3  A    between atoms: C_15  and  N_23
                            x       y       z     vdW  Elec       q    Type
                         _______ _______ _______ _____ _____    ______ ____

>  <TORSDO>
F 3

$$$$
=
 OpenBabel10272400303D

 31 35  0  0  0  0  0  0  0  0999 V2000
  187.1530  178.3110  139.2310 C   0  0  0  0  0  0  0  0  0  0  0  0
  187.7910  178.3360  137.8590 C   0  0  0  0  0  0  0  0  0  0  0  0
  187.4790  177.3060  135.6240 C   0  0  0  0  0  0  0  0  0  0  0  0
  185.8880  178.6860  139.4510 C   0  0  0  0  0  0  0  0  0  0  0  0
  183.9310  179.5380  139.2240 C   0  0  0  0  0  0  0  0  0  0  0  0
  186.9320  177.7630  136.7570 C   0  0  0  0  0  3  0  0  0  0  0  0
  187.4360  178.2640  141.8070 C   0  0  0  0  0  0  0  0  0  0  0  0
  189.8730  177.4970  138.9490 C   0  0  0  0  0  3  0  0  0  0  0  0
  186.6780  176.8670  134.6240 F   0  0  0  0  0  0  0  0  0  0  0  0
  186.1490  178.6270  141.9330 C   0  0  0  0  0  3  0  0  0  0  0  0
  188.0050  178.0730  140.4370 C   0  0  0  0  0  0  0  0  0  0  0  0
  184.9460  179.1630  138.4970 N   0  0  0  0  0  0  0  0  0  0  0  0
  188.9480  177.2010  135.4780 C   0  0  0  0  0  3  0  0  0  0  0  0
  185.3670  178.7920  140.7510 N   0  0  0  0  0  0  0  0  0  0  0  0
  184.1050  179.3680  140.6390 N   0  0  0  0  0  2  0  0  0  0  0  0
  189.2840  177.7140  140.2820 C   0  0  0  0  0  3  0  0  0  0  0  0
  189.1790  177.7290  137.8330 C   0  0  0  0  0  0  0  0  0  0  0  0
  189.7590  177.3850  136.5260 C   0  0  0  0  0  2  0  0  0  0  0  0
  187.8890  175.7980  143.3460 O   0  0  0  0  0  0  0  0  0  0  0  0
  188.4790  176.8550  143.6950 C   0  0  0  0  0  0  0  0  0  0  0  0
  188.2770  178.0710  142.9580 N   0  0  0  0  0  2  0  0  0  0  0  0
  191.2030  176.8600  146.9490 C   0  0  0  0  0  0  0  0  0  0  0  0
  190.6960  176.5390  144.6550 N   0  0  0  0  0  0  0  0  0  0  0  0
  187.3410  177.6630  146.6010 Cl  0  0  0  0  0  0  0  0  0  0  0  0
  192.3550  176.8510  148.2670 Cl  0  0  0  0  0  0  0  0  0  0  0  0
  191.6070  176.5250  145.6610 C   0  0  0  0  0  3  0  0  0  0  0  0
  188.9870  177.2120  146.1770 C   0  0  0  0  0  0  0  0  0  0  0  0
  189.3900  176.8710  144.8620 C   0  0  0  0  0  0  0  0  0  0  0  0
  189.9080  177.1940  147.1760 N   0  0  0  0  0  0  0  0  0  0  0  0
  182.7390  180.0980  138.6510 C   0  0  0  0  0  0  0  0  0  0  0  0
  181.7800  180.5490  138.1890 N   0  0  0  0  0  0  0  0  0  0  0  0
  1  4  2  0  0  0  0
  1 11  1  0  0  0  0
  2  1  1  0  0  0  0
  3  6  1  0  0  0  0
  4 14  1  0  0  0  0
  5 15  1  0  0  0  0
  6  2  2  0  0  0  0
  7 10  2  0  0  0  0
  7 21  1  0  0  0  0
  8 16  1  0  0  0  0
  9  3  1  0  0  0  0
 11  7  1  0  0  0  0
 12  5  2  0  0  0  0
 12  4  1  0  0  0  0
 13  3  2  0  0  0  0
 13 18  1  0  0  0  0
 14 10  1  0  0  0  0
 15 14  1  0  0  0  0
 16 11  2  0  0  0  0
 17  2  1  0  0  0  0
 17  8  2  0  0  0  0
 18 17  1  0  0  0  0
 19 20  2  0  0  0  0
 20 28  1  0  0  0  0
 21 20  1  0  0  0  0
 22 29  1  0  0  0  0
 22 25  1  0  0  0  0
 23 28  2  0  0  0  0
 23 26  1  0  0  0  0
 26 22  2  0  0  0  0
 27 24  1  0  0  0  0
 27 29  2  0  0  0  0
 28 27  1  0  0  0  0
 30  5  1  0  0  0  0
 31 30  3  0  0  0  0
M  END
>  <MODEL>
6

>  <REMARK>
 VINA RESULT:      -8.7      4.808      7.741
  Name = 
  3 active torsions:
  status: ('A' for Active; 'I' for Inactive)
    1  A    between atoms: C_2  and  C_13
    2  A    between atoms: C_9  and  C_22
    3  A    between atoms: C_15  and  N_23
                            x       y       z     vdW  Elec       q    Type
                         _______ _______ _______ _____ _____    ______ ____

>  <TORSDO>
F 3

$$$$
=
 OpenBabel10272400303D

 31 35  0  0  0  0  0  0  0  0999 V2000
  188.8120  177.2800  144.6130 C   0  0  0  0  0  0  0  0  0  0  0  0
  187.7180  178.1360  145.2160 C   0  0  0  0  0  0  0  0  0  0  0  0
  186.0640  178.0440  147.0610 C   0  0  0  0  0  0  0  0  0  0  0  0
  189.8930  176.8930  145.3000 C   0  0  0  0  0  0  0  0  0  0  0  0
  191.4240  176.7280  146.7950 C   0  0  0  0  0  0  0  0  0  0  0  0
  187.2710  177.7060  146.5910 C   0  0  0  0  0  3  0  0  0  0  0  0
  190.0080  176.3760  142.4990 C   0  0  0  0  0  0  0  0  0  0  0  0
  186.5880  178.0350  142.9930 C   0  0  0  0  0  3  0  0  0  0  0  0
  185.7200  177.7080  148.3270 F   0  0  0  0  0  0  0  0  0  0  0  0
  191.0440  176.0040  143.2710 C   0  0  0  0  0  3  0  0  0  0  0  0
  188.8240  177.0270  143.1390 C   0  0  0  0  0  0  0  0  0  0  0  0
  190.2150  177.1950  146.6520 N   0  0  0  0  0  0  0  0  0  0  0  0
  185.0710  178.7140  146.1910 C   0  0  0  0  0  3  0  0  0  0  0  0
  190.9600  176.2240  144.6780 N   0  0  0  0  0  0  0  0  0  0  0  0
  191.9820  176.1250  145.6180 N   0  0  0  0  0  2  0  0  0  0  0  0
  187.7800  177.4090  142.3950 C   0  0  0  0  0  3  0  0  0  0  0  0
  186.5300  178.3240  144.2940 C   0  0  0  0  0  0  0  0  0  0  0  0
  185.2790  178.8350  144.8760 C   0  0  0  0  0  2  0  0  0  0  0  0
  191.7280  177.6630  140.4890 O   0  0  0  0  0  0  0  0  0  0  0  0
  190.8730  176.8180  140.1130 C   0  0  0  0  0  0  0  0  0  0  0  0
  190.0240  176.1730  141.0750 N   0  0  0  0  0  2  0  0  0  0  0  0
  190.2920  175.8310  136.0260 C   0  0  0  0  0  0  0  0  0  0  0  0
  189.4630  176.4420  138.1620 N   0  0  0  0  0  0  0  0  0  0  0  0
  193.4870  176.1500  138.3450 Cl  0  0  0  0  0  0  0  0  0  0  0  0
  190.0130  175.4290  134.3460 Cl  0  0  0  0  0  0  0  0  0  0  0  0
  189.2220  176.1340  136.8630 C   0  0  0  0  0  3  0  0  0  0  0  0
  191.8070  176.1590  137.8230 C   0  0  0  0  0  0  0  0  0  0  0  0
  190.7230  176.4680  138.6820 C   0  0  0  0  0  0  0  0  0  0  0  0
  191.5540  175.8510  136.5240 N   0  0  0  0  0  0  0  0  0  0  0  0
  192.1470  176.8300  148.0310 C   0  0  0  0  0  0  0  0  0  0  0  0
  192.7300  176.9120  149.0270 N   0  0  0  0  0  0  0  0  0  0  0  0
  1  2  1  0  0  0  0
  1  4  2  0  0  0  0
  2  6  2  0  0  0  0
  3  9  1  0  0  0  0
  4 12  1  0  0  0  0
  5 30  1  0  0  0  0
  6  3  1  0  0  0  0
  7 11  1  0  0  0  0
  7 10  2  0  0  0  0
  8 17  2  0  0  0  0
 10 14  1  0  0  0  0
 11  1  1  0  0  0  0
 12  5  2  0  0  0  0
 13  3  2  0  0  0  0
 14  4  1  0  0  0  0
 14 15  1  0  0  0  0
 15  5  1  0  0  0  0
 16  8  1  0  0  0  0
 16 11  2  0  0  0  0
 17 18  1  0  0  0  0
 17  2  1  0  0  0  0
 18 13  1  0  0  0  0
 20 19  2  0  0  0  0
 20 21  1  0  0  0  0
 21  7  1  0  0  0  0
 22 29  2  0  0  0  0
 22 26  1  0  0  0  0
 23 28  1  0  0  0  0
 25 22  1  0  0  0  0
 26 23  2  0  0  0  0
 27 24  1  0  0  0  0
 27 28  2  0  0  0  0
 28 20  1  0  0  0  0
 29 27  1  0  0  0  0
 30 31  3  0  0  0  0
M  END
>  <MODEL>
7

>  <REMARK>
 VINA RESULT:      -8.6      2.923      4.646
  Name = 
  3 active torsions:
  status: ('A' for Active; 'I' for Inactive)
    1  A    between atoms: C_2  and  C_13
    2  A    between atoms: C_9  and  C_22
    3  A    between atoms: C_15  and  N_23
                            x       y       z     vdW  Elec       q    Type
                         _______ _______ _______ _____ _____    ______ ____

>  <TORSDO>
F 3

$$$$
=
 OpenBabel10272400303D

 31 35  0  0  1  0  0  0  0  0999 V2000
  189.7410  177.5290  143.3090 C   0  0  0  0  0  0  0  0  0  0  0  0
  190.3080  177.5890  144.7110 C   0  0  2  0  0  3  0  0  0  0  0  0
  191.6100  176.1690  146.2730 C   0  0  0  0  0  0  0  0  0  0  0  0
  190.5060  177.3760  142.2220 C   0  0  0  0  0  0  0  0  0  0  0  0
  192.1880  177.2880  140.8920 C   0  0  0  0  0  0  0  0  0  0  0  0
  191.3480  176.5390  145.0130 C   0  0  0  0  0  3  0  0  0  0  0  0
  187.7840  178.0310  141.6850 C   0  0  0  0  0  0  0  0  0  0  0  0
  187.9620  177.8840  145.5110 C   0  0  0  0  0  3  0  0  0  0  0  0
  192.6010  175.2790  146.5170 F   0  0  0  0  0  0  0  0  0  0  0  0
  188.6210  177.8420  140.6520 C   0  0  0  0  0  3  0  0  0  0  0  0
  188.3030  177.8690  143.0790 C   0  0  0  0  0  0  0  0  0  0  0  0
  191.9220  177.2530  142.1680 N   0  0  0  0  0  0  0  0  0  0  0  0
  190.7810  176.6620  147.3960 C   0  0  0  0  0  3  0  0  0  0  0  0
  189.9710  177.4690  140.9260 N   0  0  0  0  0  0  0  0  0  0  0  0
  191.0440  177.4420  140.0400 N   0  0  0  0  0  2  0  0  0  0  0  0
  187.4910  178.0540  144.1260 C   0  0  0  0  0  3  0  0  0  0  0  0
  189.2410  177.6190  145.7870 C   0  0  0  0  0  0  0  0  0  0  0  0
  189.6490  177.3350  147.1710 C   0  0  0  0  0  3  0  0  0  0  0  0
  186.4240  178.6720  139.1560 O   0  0  0  0  0  0  0  0  0  0  0  0
  185.7680  178.7080  140.2310 C   0  0  0  0  0  0  0  0  0  0  0  0
  186.4080  178.3970  141.4780 N   0  0  0  0  0  2  0  0  0  0  0  0
  181.6690  179.8010  140.1100 C   0  0  0  0  0  0  0  0  0  0  0  0
  183.8240  179.6790  139.1290 N   0  0  0  0  0  0  0  0  0  0  0  0
  183.9620  178.0430  142.8190 Cl  0  0  0  0  0  0  0  0  0  0  0  0
  179.9840  180.2650  140.0240 Cl  0  0  0  0  0  0  0  0  0  0  0  0
  182.5210  180.0490  139.0390 C   0  0  0  0  0  3  0  0  0  0  0  0
  183.4570  178.8210  141.3240 C   0  0  0  0  0  0  0  0  0  0  0  0
  184.3320  179.0700  140.2370 C   0  0  0  0  0  0  0  0  0  0  0  0
  182.1540  179.1950  141.2230 N   0  0  0  0  0  0  0  0  0  0  0  0
  193.5290  177.2000  140.3840 C   0  0  0  0  0  0  0  0  0  0  0  0
  194.6080  177.1290  139.9740 N   0  0  0  0  0  0  0  0  0  0  0  0
  1  2  1  0  0  0  0
  2  6  1  1  0  0  0
  2 17  1  0  0  0  0
  3  9  1  0  0  0  0
  3 13  1  0  0  0  0
  4  1  2  0  0  0  0
  5 12  2  0  0  0  0
  6  3  2  0  0  0  0
  7 11  1  0  0  0  0
  8 17  2  0  0  0  0
 10 14  1  0  0  0  0
 10  7  2  0  0  0  0
 11  1  1  0  0  0  0
 11 16  2  0  0  0  0
 12  4  1  0  0  0  0
 14  4  1  0  0  0  0
 15  5  1  0  0  0  0
 15 14  1  0  0  0  0
 16  8  1  0  0  0  0
 17 18  1  0  0  0  0
 18 13  2  0  0  0  0
 19 20  2  0  0  0  0
 20 28  1  0  0  0  0
 20 21  1  0  0  0  0
 21  7  1  0  0  0  0
 22 29  1  0  0  0  0
 23 28  2  0  0  0  0
 25 22  1  0  0  0  0
 26 23  1  0  0  0  0
 26 22  2  0  0  0  0
 27 24  1  0  0  0  0
 28 27  1  0  0  0  0
 29 27  2  0  0  0  0
 30  5  1  0  0  0  0
 31 30  3  0  0  0  0
M  END
>  <MODEL>
8

>  <REMARK>
 VINA RESULT:      -8.6      3.929      7.275
  Name = 
  3 active torsions:
  status: ('A' for Active; 'I' for Inactive)
    1  A    between atoms: C_2  and  C_13
    2  A    between atoms: C_9  and  C_22
    3  A    between atoms: C_15  and  N_23
                            x       y       z     vdW  Elec       q    Type
                         _______ _______ _______ _____ _____    ______ ____

>  <TORSDO>
F 3

$$$$
=
 OpenBabel10272400303D

 31 35  0  0  0  0  0  0  0  0999 V2000
  187.8640  177.7940  142.8790 C   0  0  0  0  0  0  0  0  0  0  0  0
  186.6080  178.6360  142.8310 C   0  0  0  0  0  0  0  0  0  0  0  0
  184.2970  178.6140  143.7320 C   0  0  0  0  0  0  0  0  0  0  0  0
  188.5200  177.5300  144.0150 C   0  0  0  0  0  0  0  0  0  0  0  0
  189.2080  177.5840  146.0470 C   0  0  0  0  0  0  0  0  0  0  0  0
  185.5900  178.3040  143.8950 C   0  0  0  0  0  3  0  0  0  0  0  0
  189.8990  176.7750  141.6370 C   0  0  0  0  0  0  0  0  0  0  0  0
  186.6100  178.2750  140.3620 C   0  0  0  0  0  3  0  0  0  0  0  0
  183.4200  178.3710  144.7350 F   0  0  0  0  0  0  0  0  0  0  0  0
  190.4750  176.5320  142.8260 C   0  0  0  0  0  3  0  0  0  0  0  0
  188.5460  177.4120  141.6040 C   0  0  0  0  0  0  0  0  0  0  0  0
  188.1910  177.9670  145.3280 N   0  0  0  0  0  0  0  0  0  0  0  0
  183.8010  179.1470  142.4440 C   0  0  0  0  0  3  0  0  0  0  0  0
  189.7600  176.8700  144.0140 N   0  0  0  0  0  0  0  0  0  0  0  0
  190.2450  176.9120  145.3170 N   0  0  0  0  0  2  0  0  0  0  0  0
  187.9500  177.6680  140.4330 C   0  0  0  0  0  3  0  0  0  0  0  0
  185.9640  178.6750  141.4600 C   0  0  0  0  0  0  0  0  0  0  0  0
  184.5810  179.1630  141.3590 C   0  0  0  0  0  2  0  0  0  0  0  0
  192.3350  177.9690  140.4990 O   0  0  0  0  0  0  0  0  0  0  0  0
  191.7500  177.0500  139.8660 C   0  0  0  0  0  0  0  0  0  0  0  0
  190.5610  176.4490  140.4020 N   0  0  0  0  0  2  0  0  0  0  0  0
  193.3690  175.6400  136.2050 C   0  0  0  0  0  0  0  0  0  0  0  0
  193.5570  176.1260  138.5180 N   0  0  0  0  0  0  0  0  0  0  0  0
  189.8340  177.0730  137.2730 Cl  0  0  0  0  0  0  0  0  0  0  0  0
  194.0700  175.0520  134.7140 Cl  0  0  0  0  0  0  0  0  0  0  0  0
  194.1230  175.6660  137.3740 C   0  0  0  0  0  3  0  0  0  0  0  0
  191.5070  176.5380  137.3710 C   0  0  0  0  0  0  0  0  0  0  0  0
  192.2690  176.5680  138.5660 C   0  0  0  0  0  0  0  0  0  0  0  0
  192.0840  176.0760  136.2310 N   0  0  0  0  0  0  0  0  0  0  0  0
  189.2910  177.8360  147.4590 C   0  0  0  0  0  0  0  0  0  0  0  0
  189.3570  178.0380  148.5950 N   0  0  0  0  0  0  0  0  0  0  0  0
  1  4  2  0  0  0  0
  2  1  1  0  0  0  0
  2  6  2  0  0  0  0
  3  6  1  0  0  0  0
  3  9  1  0  0  0  0
  4 12  1  0  0  0  0
  5 30  1  0  0  0  0
  7 10  2  0  0  0  0
  8 16  1  0  0  0  0
  8 17  2  0  0  0  0
 10 14  1  0  0  0  0
 11  7  1  0  0  0  0
 11  1  1  0  0  0  0
 12  5  2  0  0  0  0
 13  3  2  0  0  0  0
 14  4  1  0  0  0  0
 14 15  1  0  0  0  0
 15  5  1  0  0  0  0
 16 11  2  0  0  0  0
 17  2  1  0  0  0  0
 18 17  1  0  0  0  0
 18 13  1  0  0  0  0
 20 21  1  0  0  0  0
 20 19  2  0  0  0  0
 21  7  1  0  0  0  0
 22 29  2  0  0  0  0
 22 26  1  0  0  0  0
 23 28  1  0  0  0  0
 24 27  1  0  0  0  0
 25 22  1  0  0  0  0
 26 23  2  0  0  0  0
 27 28  2  0  0  0  0
 28 20  1  0  0  0  0
 29 27  1  0  0  0  0
 30 31  3  0  0  0  0
M  END
>  <MODEL>
9

>  <REMARK>
 VINA RESULT:      -8.5      2.392      4.442
  Name = 
  3 active torsions:
  status: ('A' for Active; 'I' for Inactive)
    1  A    between atoms: C_2  and  C_13
    2  A    between atoms: C_9  and  C_22
    3  A    between atoms: C_15  and  N_23
                            x       y       z     vdW  Elec       q    Type
                         _______ _______ _______ _____ _____    ______ ____

>  <TORSDO>
F 3

$$$$
