=
 OpenBabel10272402053D

 32 38  0  0  1  0  0  0  0  0999 V2000
  183.5420  178.2710  138.3170 C   0  0  2  0  0  3  0  0  0  0  0  0
  182.8530  177.5390  140.7610 C   0  0  2  0  0  3  0  0  0  0  0  0
  182.7270  179.3770  137.6670 C   0  0  0  0  0  2  0  0  0  0  0  0
  182.7060  177.3440  139.2420 C   0  0  1  0  0  3  0  0  0  0  0  0
  181.6950  178.2970  141.4010 C   0  0  2  0  0  0  0  0  0  0  0  0
  185.5210  178.7640  144.7280 C   0  0  0  0  0  3  0  0  0  0  0  0
  184.2160  178.0570  141.2310 C   0  0  1  0  0  3  0  0  0  0  0  0
  183.1070  178.9450  144.7840 C   0  0  0  0  0  3  0  0  0  0  0  0
  183.0450  178.6320  143.4240 C   0  0  0  0  0  0  0  0  0  0  0  0
  180.8460  179.2580  140.5790 C   0  0  2  0  0  3  0  0  0  0  0  0
  181.2270  177.1230  138.8160 C   0  0  1  0  0  3  0  0  0  0  0  0
  181.7960  178.5520  142.7980 O   0  0  0  0  0  0  0  0  0  0  0  0
  180.3670  176.8490  139.9160 O   0  0  0  0  0  0  0  0  0  0  0  0
  180.5940  178.1610  137.8720 C   0  0  0  0  0  2  0  0  0  0  0  0
  184.6570  179.2530  140.4050 C   0  0  0  0  0  2  0  0  0  0  0  0
  180.1480  180.2960  141.4410 C   0  0  0  0  0  1  0  0  0  0  0  0
  184.8170  178.8540  138.9410 C   0  0  1  0  0  3  0  0  0  0  0  0
  184.2360  178.3810  142.7040 C   0  0  0  0  0  0  0  0  0  0  0  0
  180.3150  177.8560  140.9420 C   0  0  1  0  0  3  0  0  0  0  0  0
  181.5910  178.7470  136.8900 C   0  0  0  0  0  2  0  0  0  0  0  0
  184.3410  179.0120  145.4350 C   0  0  0  0  0  3  0  0  0  0  0  0
  185.4680  178.4500  143.3680 C   0  0  0  0  0  3  0  0  0  0  0  0
  187.6900  177.0040  137.0090 C   0  0  2  0  0  3  0  0  0  0  0  0
  187.1060  175.8180  136.5630 O   0  0  0  0  0  1  0  0  0  0  0  0
  188.5930  177.9260  139.2180 C   0  0  0  0  0  2  0  0  0  0  0  0
  186.0950  178.0490  138.6660 C   0  0  2  0  0  3  0  0  0  0  0  0
  188.5270  176.7210  138.2740 C   0  0  2  0  0  3  0  0  0  0  0  0
  187.1980  178.3530  139.6910 C   0  0  0  0  0  2  0  0  0  0  0  0
  186.6030  178.0670  137.2140 C   0  0  1  0  0  3  0  0  0  0  0  0
  187.1200  179.3220  136.8830 O   0  0  0  0  0  1  0  0  0  0  0  0
  190.9210  176.4350  139.0450 C   0  0  0  0  0  1  0  0  0  0  0  0
  189.9200  176.2060  137.9220 C   0  0  0  0  0  2  0  0  0  0  0  0
  1  3  1  1  0  0  0
  1 17  1  0  0  0  0
  1  4  1  0  0  0  0
  2  7  1  0  0  0  0
  2  5  1  0  0  0  0
  4  2  1  0  0  0  0
  5 12  1  0  0  0  0
  6 21  1  0  0  0  0
  7 18  1  0  0  0  0
  8 21  2  0  0  0  0
  9  8  1  0  0  0  0
 10 19  1  0  0  0  0
 10  5  1  0  0  0  0
 10 16  1  0  0  0  0
 11  4  1  0  0  0  0
 11 13  1  0  0  0  0
 12  9  1  0  0  0  0
 13 19  1  0  0  0  0
 14 11  1  0  0  0  0
 15  7  1  0  0  0  0
 17 15  1  0  0  0  0
 18 22  1  0  0  0  0
 18  9  2  0  0  0  0
 19  5  1  0  0  0  0
 20  3  1  0  0  0  0
 20 14  1  0  0  0  0
 22  6  2  0  0  0  0
 23 29  1  0  0  0  0
 23 27  1  0  0  0  0
 24 23  1  0  0  0  0
 25 28  1  0  0  0  0
 26 17  1  0  0  0  0
 26 28  1  0  0  0  0
 27 25  1  0  0  0  0
 29 26  1  0  0  0  0
 30 29  1  0  0  0  0
 32 27  1  0  0  0  0
 32 31  1  0  0  0  0
M  END
>  <MODEL>
1

>  <REMARK>
 VINA RESULT:      -8.2      0.000      0.000
  Name = 
  2 active torsions:
  status: ('A' for Active; 'I' for Inactive)
    1  A    between atoms: C_16  and  C_27
    2  A    between atoms: C_19  and  C_26
                            x       y       z     vdW  Elec       q    Type
                         _______ _______ _______ _____ _____    ______ ____

>  <TORSDO>
F 2

$$$$
=
 OpenBabel10272402053D

 32 38  0  0  1  0  0  0  0  0999 V2000
  190.2770  176.3860  143.3300 C   0  0  2  0  0  3  0  0  0  0  0  0
  188.8890  178.1090  144.7750 C   0  0  2  0  0  3  0  0  0  0  0  0
  190.7310  175.1090  144.0190 C   0  0  0  0  0  2  0  0  0  0  0  0
  190.2590  177.6250  144.2680 C   0  0  1  0  0  3  0  0  0  0  0  0
  188.5870  177.7080  146.2150 C   0  0  2  0  0  0  0  0  0  0  0  0
  184.0280  178.7250  144.1890 C   0  0  0  0  0  3  0  0  0  0  0  0
  187.7060  177.8440  143.8380 C   0  0  1  0  0  3  0  0  0  0  0  0
  184.9760  178.5920  146.4130 C   0  0  0  0  0  3  0  0  0  0  0  0
  186.2260  178.2830  145.8690 C   0  0  0  0  0  0  0  0  0  0  0  0
  189.2520  176.4870  146.8370 C   0  0  2  0  0  3  0  0  0  0  0  0
  191.3410  177.6410  145.3840 C   0  0  1  0  0  3  0  0  0  0  0  0
  187.3140  178.0850  146.7270 O   0  0  0  0  0  0  0  0  0  0  0  0
  190.9370  178.3680  146.5390 O   0  0  0  0  0  0  0  0  0  0  0  0
  191.9790  176.2980  145.7790 C   0  0  0  0  0  2  0  0  0  0  0  0
  187.7140  176.4070  143.3470 C   0  0  0  0  0  2  0  0  0  0  0  0
  188.4580  175.9280  148.0060 C   0  0  0  0  0  1  0  0  0  0  0  0
  188.9830  176.1290  142.5460 C   0  0  1  0  0  3  0  0  0  0  0  0
  186.3800  178.1930  144.4660 C   0  0  0  0  0  0  0  0  0  0  0  0
  189.7380  177.9080  147.1870 C   0  0  1  0  0  3  0  0  0  0  0  0
  192.1060  175.3410  144.6090 C   0  0  0  0  0  2  0  0  0  0  0  0
  183.8800  178.8120  145.5760 C   0  0  0  0  0  3  0  0  0  0  0  0
  185.2740  178.4170  143.6370 C   0  0  0  0  0  3  0  0  0  0  0  0
  188.0210  178.4330  139.5170 C   0  0  2  0  0  3  0  0  0  0  0  0
  186.7690  177.9720  139.1100 O   0  0  0  0  0  1  0  0  0  0  0  0
  190.4540  177.6780  139.2850 C   0  0  0  0  0  2  0  0  0  0  0  0
  188.9560  176.7320  141.1350 C   0  0  2  0  0  3  0  0  0  0  0  0
  189.1070  177.8650  138.5800 C   0  0  2  0  0  3  0  0  0  0  0  0
  190.3430  176.7170  140.4750 C   0  0  0  0  0  2  0  0  0  0  0  0
  188.2410  178.0870  140.9950 C   0  0  1  0  0  3  0  0  0  0  0  0
  188.9800  179.1060  141.6000 O   0  0  0  0  0  1  0  0  0  0  0  0
  188.9390  177.9020  136.0550 C   0  0  0  0  0  1  0  0  0  0  0  0
  189.2480  178.7020  137.3120 C   0  0  0  0  0  2  0  0  0  0  0  0
  1  3  1  1  0  0  0
  1  4  1  0  0  0  0
  2  5  1  0  0  0  0
  3 20  1  0  0  0  0
  4  2  1  0  0  0  0
  4 11  1  0  0  0  0
  5 12  1  0  0  0  0
  5 10  1  0  0  0  0
  5 19  1  0  0  0  0
  6 21  1  0  0  0  0
  7 18  1  0  0  0  0
  7  2  1  0  0  0  0
  9  8  1  0  0  0  0
  9 12  1  0  0  0  0
 10 19  1  0  0  0  0
 10 16  1  0  0  0  0
 11 14  1  0  0  0  0
 11 13  1  0  0  0  0
 13 19  1  0  0  0  0
 15  7  1  0  0  0  0
 17  1  1  0  0  0  0
 17 15  1  0  0  0  0
 18  9  2  0  0  0  0
 20 14  1  0  0  0  0
 21  8  2  0  0  0  0
 22  6  2  0  0  0  0
 22 18  1  0  0  0  0
 23 29  1  0  0  0  0
 24 23  1  0  0  0  0
 25 28  1  0  0  0  0
 26 17  1  0  0  0  0
 27 25  1  0  0  0  0
 27 23  1  0  0  0  0
 28 26  1  0  0  0  0
 29 26  1  0  0  0  0
 29 30  1  0  0  0  0
 31 32  1  0  0  0  0
 32 27  1  0  0  0  0
M  END
>  <MODEL>
2

>  <REMARK>
 VINA RESULT:      -7.6      4.025      7.377
  Name = 
  2 active torsions:
  status: ('A' for Active; 'I' for Inactive)
    1  A    between atoms: C_16  and  C_27
    2  A    between atoms: C_19  and  C_26
                            x       y       z     vdW  Elec       q    Type
                         _______ _______ _______ _____ _____    ______ ____

>  <TORSDO>
F 2

$$$$
=
 OpenBabel10272402053D

 32 38  0  0  1  0  0  0  0  0999 V2000
  191.2070  177.1650  140.8660 C   0  0  2  0  0  3  0  0  0  0  0  0
  188.8300  176.6970  139.8090 C   0  0  2  0  0  3  0  0  0  0  0  0
  192.2110  177.9180  140.0110 C   0  0  0  0  0  2  0  0  0  0  0  0
  190.2750  176.2260  140.0500 C   0  0  1  0  0  3  0  0  0  0  0  0
  188.5850  177.2460  138.4080 C   0  0  2  0  0  0  0  0  0  0  0  0
  184.7920  179.1640  141.2100 C   0  0  0  0  0  3  0  0  0  0  0  0
  188.2390  177.6000  140.8970 C   0  0  1  0  0  3  0  0  0  0  0  0
  185.2150  178.7610  138.8610 C   0  0  0  0  0  3  0  0  0  0  0  0
  186.4670  178.2240  139.1710 C   0  0  0  0  0  0  0  0  0  0  0  0
  189.7320  177.8240  137.5880 C   0  0  2  0  0  3  0  0  0  0  0  0
  190.9070  175.5880  138.7810 C   0  0  1  0  0  3  0  0  0  0  0  0
  187.2790  177.7430  138.1380 O   0  0  0  0  0  0  0  0  0  0  0  0
  189.9490  175.2970  137.7700 O   0  0  0  0  0  0  0  0  0  0  0  0
  192.1470  176.2720  138.1800 C   0  0  0  0  0  2  0  0  0  0  0  0
  189.2050  178.7160  141.2600 C   0  0  0  0  0  2  0  0  0  0  0  0
  189.2490  178.7890  136.5180 C   0  0  0  0  0  1  0  0  0  0  0  0
  190.4980  178.1330  141.8230 C   0  0  1  0  0  3  0  0  0  0  0  0
  186.8890  178.1550  140.5190 C   0  0  0  0  0  0  0  0  0  0  0  0
  189.1840  176.4150  137.2850 C   0  0  1  0  0  3  0  0  0  0  0  0
  193.0320  176.9130  139.2310 C   0  0  0  0  0  2  0  0  0  0  0  0
  184.3790  179.2300  139.8770 C   0  0  0  0  0  3  0  0  0  0  0  0
  186.0420  178.6280  141.5300 C   0  0  0  0  0  3  0  0  0  0  0  0
  191.4440  176.9800  145.4540 C   0  0  2  0  0  3  0  0  0  0  0  0
  191.9820  175.7040  145.2880 O   0  0  0  0  0  1  0  0  0  0  0  0
  189.1160  178.0380  145.4660 C   0  0  0  0  0  2  0  0  0  0  0  0
  190.3600  177.6280  143.2660 C   0  0  2  0  0  3  0  0  0  0  0  0
  189.9820  176.8640  145.9320 C   0  0  2  0  0  3  0  0  0  0  0  0
  189.0790  178.1460  143.9370 C   0  0  0  0  0  2  0  0  0  0  0  0
  191.6070  177.7800  144.1550 C   0  0  1  0  0  3  0  0  0  0  0  0
  191.8360  179.1220  144.4660 O   0  0  0  0  0  1  0  0  0  0  0  0
  188.9850  177.6870  148.1080 C   0  0  0  0  0  1  0  0  0  0  0  0
  189.8990  176.6680  147.4420 C   0  0  0  0  0  2  0  0  0  0  0  0
  1  3  1  6  0  0  0
  1 17  1  0  0  0  0
  2  4  1  0  0  0  0
  2  7  1  0  0  0  0
  4  1  1  0  0  0  0
  5  2  1  0  0  0  0
  6 22  1  0  0  0  0
  7 15  1  0  0  0  0
  8  9  2  0  0  0  0
  8 21  1  0  0  0  0
  9 18  1  0  0  0  0
 10  5  1  0  0  0  0
 11  4  1  0  0  0  0
 12  5  1  0  0  0  0
 12  9  1  0  0  0  0
 13 11  1  0  0  0  0
 14 11  1  0  0  0  0
 14 20  1  0  0  0  0
 15 17  1  0  0  0  0
 16 10  1  0  0  0  0
 17 26  1  0  0  0  0
 18  7  1  0  0  0  0
 18 22  2  0  0  0  0
 19 10  1  0  0  0  0
 19 13  1  0  0  0  0
 19  5  1  0  0  0  0
 20  3  1  0  0  0  0
 21  6  2  0  0  0  0
 23 27  1  0  0  0  0
 24 23  1  0  0  0  0
 25 27  1  0  0  0  0
 26 28  1  0  0  0  0
 26 29  1  0  0  0  0
 27 32  1  0  0  0  0
 28 25  1  0  0  0  0
 29 30  1  0  0  0  0
 29 23  1  0  0  0  0
 32 31  1  0  0  0  0
M  END
>  <MODEL>
3

>  <REMARK>
 VINA RESULT:      -7.2      3.720      7.949
  Name = 
  2 active torsions:
  status: ('A' for Active; 'I' for Inactive)
    1  A    between atoms: C_16  and  C_27
    2  A    between atoms: C_19  and  C_26
                            x       y       z     vdW  Elec       q    Type
                         _______ _______ _______ _____ _____    ______ ____

>  <TORSDO>
F 2

$$$$
=
 OpenBabel10272402053D

 32 38  0  0  1  0  0  0  0  0999 V2000
  186.3380  178.3200  142.4340 C   0  0  2  0  0  3  0  0  0  0  0  0
  188.5690  176.9150  142.2560 C   0  0  2  0  0  3  0  0  0  0  0  0
  186.3450  179.5190  143.3680 C   0  0  0  0  0  2  0  0  0  0  0  0
  187.2080  177.1350  142.9380 C   0  0  1  0  0  3  0  0  0  0  0  0
  189.7570  177.4100  143.0740 C   0  0  2  0  0  0  0  0  0  0  0  0
  191.5170  177.1420  138.3040 C   0  0  0  0  0  3  0  0  0  0  0  0
  188.6520  177.3530  140.7900 C   0  0  1  0  0  3  0  0  0  0  0  0
  192.4660  177.1800  140.5310 C   0  0  0  0  0  3  0  0  0  0  0  0
  191.1840  177.2480  141.0840 C   0  0  0  0  0  0  0  0  0  0  0  0
  189.5810  178.5160  144.1080 C   0  0  2  0  0  3  0  0  0  0  0  0
  187.2860  176.9660  144.4820 C   0  0  1  0  0  3  0  0  0  0  0  0
  191.0410  177.2790  142.4760 O   0  0  0  0  0  0  0  0  0  0  0  0
  188.4990  176.3590  144.9120 O   0  0  0  0  0  0  0  0  0  0  0  0
  186.9470  178.1890  145.3520 C   0  0  0  0  0  2  0  0  0  0  0  0
  188.0830  178.7500  140.6070 C   0  0  0  0  0  2  0  0  0  0  0  0
  190.8820  179.2430  144.4040 C   0  0  0  0  0  1  0  0  0  0  0  0
  186.6070  178.7740  140.9930 C   0  0  1  0  0  3  0  0  0  0  0  0
  190.0520  177.2620  140.2360 C   0  0  0  0  0  0  0  0  0  0  0  0
  189.7120  177.0430  144.5480 C   0  0  1  0  0  3  0  0  0  0  0  0
  185.8770  179.0690  144.7360 C   0  0  0  0  0  2  0  0  0  0  0  0
  192.6330  177.1280  139.1460 C   0  0  0  0  0  3  0  0  0  0  0  0
  190.2310  177.2090  138.8480 C   0  0  0  0  0  3  0  0  0  0  0  0
  183.3760  177.8160  138.9810 C   0  0  2  0  0  3  0  0  0  0  0  0
  182.7190  176.8910  139.7930 O   0  0  0  0  0  1  0  0  0  0  0  0
  185.3960  177.8200  137.4130 C   0  0  0  0  0  2  0  0  0  0  0  0
  185.6920  178.1390  139.9370 C   0  0  2  0  0  3  0  0  0  0  0  0
  184.1400  177.0710  137.8670 C   0  0  2  0  0  3  0  0  0  0  0  0
  186.3820  178.0290  138.5690 C   0  0  0  0  0  2  0  0  0  0  0  0
  184.2690  178.7150  139.8460 C   0  0  1  0  0  3  0  0  0  0  0  0
  184.2860  180.0030  139.3030 O   0  0  0  0  0  1  0  0  0  0  0  0
  183.9430  176.8650  135.3520 C   0  0  0  0  0  1  0  0  0  0  0  0
  183.2300  176.7340  136.6900 C   0  0  0  0  0  2  0  0  0  0  0  0
  1  4  1  0  0  0  0
  1  3  1  1  0  0  0
  2  4  1  0  0  0  0
  2  5  1  0  0  0  0
  3 20  1  0  0  0  0
  4 11  1  0  0  0  0
  5 10  1  0  0  0  0
  5 19  1  0  0  0  0
  6 22  2  0  0  0  0
  6 21  1  0  0  0  0
  7  2  1  0  0  0  0
  8  9  1  0  0  0  0
  9 12  1  0  0  0  0
 10 16  1  0  0  0  0
 10 19  1  0  0  0  0
 11 13  1  0  0  0  0
 11 14  1  0  0  0  0
 12  5  1  0  0  0  0
 15  7  1  0  0  0  0
 15 17  1  0  0  0  0
 17  1  1  0  0  0  0
 18  7  1  0  0  0  0
 18  9  2  0  0  0  0
 19 13  1  0  0  0  0
 20 14  1  0  0  0  0
 21  8  2  0  0  0  0
 22 18  1  0  0  0  0
 23 24  1  0  0  0  0
 23 29  1  0  0  0  0
 25 27  1  0  0  0  0
 25 28  1  0  0  0  0
 26 17  1  0  0  0  0
 27 23  1  0  0  0  0
 28 26  1  0  0  0  0
 29 26  1  0  0  0  0
 30 29  1  0  0  0  0
 31 32  1  0  0  0  0
 32 27  1  0  0  0  0
M  END
>  <MODEL>
4

>  <REMARK>
 VINA RESULT:      -7.0      2.983      7.235
  Name = 
  2 active torsions:
  status: ('A' for Active; 'I' for Inactive)
    1  A    between atoms: C_16  and  C_27
    2  A    between atoms: C_19  and  C_26
                            x       y       z     vdW  Elec       q    Type
                         _______ _______ _______ _____ _____    ______ ____

>  <TORSDO>
F 2

$$$$
=
 OpenBabel10272402053D

 32 38  0  0  1  0  0  0  0  0999 V2000
  191.6530  176.2670  139.1850 C   0  0  2  0  0  3  0  0  0  0  0  0
  189.4940  175.5550  137.8380 C   0  0  2  0  0  3  0  0  0  0  0  0
  192.7940  176.8830  138.3940 C   0  0  0  0  0  2  0  0  0  0  0  0
  190.8730  175.1740  138.4030 C   0  0  1  0  0  3  0  0  0  0  0  0
  189.4970  175.8390  136.3400 C   0  0  2  0  0  0  0  0  0  0  0  0
  185.2850  178.1210  138.0610 C   0  0  0  0  0  3  0  0  0  0  0  0
  188.7270  176.6200  138.6290 C   0  0  1  0  0  3  0  0  0  0  0  0
  186.1070  177.3190  135.9300 C   0  0  0  0  0  3  0  0  0  0  0  0
  187.2840  176.8800  136.5410 C   0  0  0  0  0  0  0  0  0  0  0  0
  190.7710  176.2930  135.6390 C   0  0  2  0  0  3  0  0  0  0  0  0
  191.7130  174.3370  137.3970 C   0  0  1  0  0  3  0  0  0  0  0  0
  188.2600  176.2450  135.7660 O   0  0  0  0  0  0  0  0  0  0  0  0
  190.9430  173.8450  136.3060 O   0  0  0  0  0  0  0  0  0  0  0  0
  193.0410  174.9360  136.9040 C   0  0  0  0  0  2  0  0  0  0  0  0
  189.6200  177.8080  138.9450 C   0  0  0  0  0  2  0  0  0  0  0  0
  190.4860  177.0390  134.3460 C   0  0  0  0  0  1  0  0  0  0  0  0
  190.7940  177.3700  139.8170 C   0  0  1  0  0  3  0  0  0  0  0  0
  187.4650  177.0630  137.9320 C   0  0  0  0  0  0  0  0  0  0  0  0
  190.2790  174.8380  135.5040 C   0  0  1  0  0  3  0  0  0  0  0  0
  193.7330  175.7780  137.9590 C   0  0  0  0  0  2  0  0  0  0  0  0
  185.1100  177.9390  136.6860 C   0  0  0  0  0  3  0  0  0  0  0  0
  186.4580  177.6850  138.6810 C   0  0  0  0  0  3  0  0  0  0  0  0
  191.1040  176.6920  143.6710 C   0  0  2  0  0  3  0  0  0  0  0  0
  191.4480  175.3440  143.7630 O   0  0  0  0  0  1  0  0  0  0  0  0
  188.9880  178.0510  143.2030 C   0  0  0  0  0  2  0  0  0  0  0  0
  190.4060  177.1260  141.2810 C   0  0  2  0  0  3  0  0  0  0  0  0
  189.5950  176.8580  143.9470 C   0  0  2  0  0  3  0  0  0  0  0  0
  189.1520  177.9170  141.6840 C   0  0  0  0  0  2  0  0  0  0  0  0
  191.5450  177.2440  142.3090 C   0  0  1  0  0  3  0  0  0  0  0  0
  191.9450  178.5740  142.4590 O   0  0  0  0  0  1  0  0  0  0  0  0
  187.9650  177.5830  145.7420 C   0  0  0  0  0  1  0  0  0  0  0  0
  189.3010  176.9190  145.4430 C   0  0  0  0  0  2  0  0  0  0  0  0
  1  3  1  6  0  0  0
  1 17  1  0  0  0  0
  2  4  1  0  0  0  0
  2  7  1  0  0  0  0
  4  1  1  0  0  0  0
  5  2  1  0  0  0  0
  6 22  1  0  0  0  0
  7 15  1  0  0  0  0
  8  9  2  0  0  0  0
  8 21  1  0  0  0  0
  9 18  1  0  0  0  0
 10  5  1  0  0  0  0
 11  4  1  0  0  0  0
 12  5  1  0  0  0  0
 12  9  1  0  0  0  0
 13 11  1  0  0  0  0
 14 11  1  0  0  0  0
 14 20  1  0  0  0  0
 15 17  1  0  0  0  0
 16 10  1  0  0  0  0
 17 26  1  0  0  0  0
 18  7  1  0  0  0  0
 18 22  2  0  0  0  0
 19 10  1  0  0  0  0
 19 13  1  0  0  0  0
 19  5  1  0  0  0  0
 20  3  1  0  0  0  0
 21  6  2  0  0  0  0
 23 24  1  0  0  0  0
 23 27  1  0  0  0  0
 25 27  1  0  0  0  0
 26 28  1  0  0  0  0
 26 29  1  0  0  0  0
 27 32  1  0  0  0  0
 28 25  1  0  0  0  0
 29 30  1  0  0  0  0
 29 23  1  0  0  0  0
 32 31  1  0  0  0  0
M  END
>  <MODEL>
5

>  <REMARK>
 VINA RESULT:      -6.8      4.132      8.619
  Name = 
  2 active torsions:
  status: ('A' for Active; 'I' for Inactive)
    1  A    between atoms: C_16  and  C_27
    2  A    between atoms: C_19  and  C_26
                            x       y       z     vdW  Elec       q    Type
                         _______ _______ _______ _____ _____    ______ ____

>  <TORSDO>
F 2

$$$$
=
 OpenBabel10272402053D

 32 38  0  0  1  0  0  0  0  0999 V2000
  186.1920  177.1130  136.7890 C   0  0  2  0  0  3  0  0  0  0  0  0
  183.9100  176.3870  137.9070 C   0  0  2  0  0  3  0  0  0  0  0  0
  186.1130  177.8200  135.4460 C   0  0  0  0  0  2  0  0  0  0  0  0
  185.0930  176.0340  136.9880 C   0  0  1  0  0  3  0  0  0  0  0  0
  182.6340  176.7540  137.1580 C   0  0  2  0  0  0  0  0  0  0  0  0
  182.0110  178.7590  141.7960 C   0  0  0  0  0  3  0  0  0  0  0  0
  184.2240  177.3740  139.0360 C   0  0  1  0  0  3  0  0  0  0  0  0
  180.5820  178.1110  139.9520 C   0  0  0  0  0  3  0  0  0  0  0  0
  181.6990  177.6880  139.2260 C   0  0  0  0  0  0  0  0  0  0  0  0
  182.6970  177.2990  135.7370 C   0  0  2  0  0  3  0  0  0  0  0  0
  184.6380  175.2890  135.7010 C   0  0  1  0  0  3  0  0  0  0  0  0
  181.5180  177.1380  137.9520 O   0  0  0  0  0  0  0  0  0  0  0  0
  183.2940  174.8270  135.7730 O   0  0  0  0  0  0  0  0  0  0  0  0
  184.9110  175.9710  134.3490 C   0  0  0  0  0  2  0  0  0  0  0  0
  184.9840  178.5800  138.5090 C   0  0  0  0  0  2  0  0  0  0  0  0
  181.4600  178.1030  135.3710 C   0  0  0  0  0  1  0  0  0  0  0  0
  186.3220  178.1430  137.9190 C   0  0  1  0  0  3  0  0  0  0  0  0
  182.9900  177.8020  139.7920 C   0  0  0  0  0  0  0  0  0  0  0  0
  182.2910  175.8340  135.9970 C   0  0  1  0  0  3  0  0  0  0  0  0
  186.1930  176.7810  134.3480 C   0  0  0  0  0  2  0  0  0  0  0  0
  180.7370  178.6450  141.2330 C   0  0  0  0  0  3  0  0  0  0  0  0
  183.1330  178.3380  141.0770 C   0  0  0  0  0  3  0  0  0  0  0  0
  189.7860  177.3600  139.5900 C   0  0  2  0  0  3  0  0  0  0  0  0
  190.0800  176.0560  139.1920 O   0  0  0  0  0  1  0  0  0  0  0  0
  188.2460  178.4910  141.2910 C   0  0  0  0  0  2  0  0  0  0  0  0
  187.3740  177.8020  138.9830 C   0  0  2  0  0  3  0  0  0  0  0  0
  189.2290  177.3450  141.0280 C   0  0  2  0  0  3  0  0  0  0  0  0
  187.0410  178.4330  140.3430 C   0  0  0  0  0  2  0  0  0  0  0  0
  188.8410  178.0080  138.5700 C   0  0  1  0  0  3  0  0  0  0  0  0
  189.1430  179.3680  138.4630 O   0  0  0  0  0  1  0  0  0  0  0  0
  190.3520  176.0300  142.8770 C   0  0  0  0  0  1  0  0  0  0  0  0
  190.3480  177.3170  142.0650 C   0  0  0  0  0  2  0  0  0  0  0  0
  1  3  1  6  0  0  0
  1  4  1  0  0  0  0
  1 17  1  0  0  0  0
  2  7  1  0  0  0  0
  4  2  1  0  0  0  0
  5  2  1  0  0  0  0
  5 12  1  0  0  0  0
  7 18  1  0  0  0  0
  8 21  2  0  0  0  0
  9 18  2  0  0  0  0
  9  8  1  0  0  0  0
 10 19  1  0  0  0  0
 10  5  1  0  0  0  0
 11 13  1  0  0  0  0
 11  4  1  0  0  0  0
 12  9  1  0  0  0  0
 13 19  1  0  0  0  0
 14 11  1  0  0  0  0
 15  7  1  0  0  0  0
 16 10  1  0  0  0  0
 17 15  1  0  0  0  0
 17 26  1  0  0  0  0
 18 22  1  0  0  0  0
 19  5  1  0  0  0  0
 20 14  1  0  0  0  0
 20  3  1  0  0  0  0
 21  6  1  0  0  0  0
 22  6  2  0  0  0  0
 23 27  1  0  0  0  0
 24 23  1  0  0  0  0
 26 28  1  0  0  0  0
 27 25  1  0  0  0  0
 27 32  1  0  0  0  0
 28 25  1  0  0  0  0
 29 26  1  0  0  0  0
 29 23  1  0  0  0  0
 30 29  1  0  0  0  0
 32 31  1  0  0  0  0
M  END
>  <MODEL>
6

>  <REMARK>
 VINA RESULT:      -6.8      2.258      4.162
  Name = 
  2 active torsions:
  status: ('A' for Active; 'I' for Inactive)
    1  A    between atoms: C_16  and  C_27
    2  A    between atoms: C_19  and  C_26
                            x       y       z     vdW  Elec       q    Type
                         _______ _______ _______ _____ _____    ______ ____

>  <TORSDO>
F 2

$$$$
=
 OpenBabel10272402053D

 32 38  0  0  1  0  0  0  0  0999 V2000
  185.5960  178.5940  142.9910 C   0  0  2  0  0  3  0  0  0  0  0  0
  187.6830  177.0530  142.4890 C   0  0  2  0  0  3  0  0  0  0  0  0
  185.7930  179.7290  143.9820 C   0  0  0  0  0  2  0  0  0  0  0  0
  186.4230  177.3230  143.3290 C   0  0  1  0  0  3  0  0  0  0  0  0
  188.9850  177.4140  143.1950 C   0  0  2  0  0  0  0  0  0  0  0  0
  190.1980  177.3240  138.2520 C   0  0  0  0  0  3  0  0  0  0  0  0
  187.6410  177.5740  141.0490 C   0  0  1  0  0  3  0  0  0  0  0  0
  191.3810  177.1570  140.3580 C   0  0  0  0  0  3  0  0  0  0  0  0
  190.1750  177.2780  141.0530 C   0  0  0  0  0  0  0  0  0  0  0  0
  189.0050  178.4620  144.3010 C   0  0  2  0  0  3  0  0  0  0  0  0
  186.6540  177.0530  144.8430 C   0  0  1  0  0  3  0  0  0  0  0  0
  190.1850  177.2320  142.4510 O   0  0  0  0  0  0  0  0  0  0  0  0
  187.8570  176.3380  145.1020 O   0  0  0  0  0  0  0  0  0  0  0  0
  186.5020  178.2390  145.8110 C   0  0  0  0  0  2  0  0  0  0  0  0
  187.1620  179.0160  141.0070 C   0  0  0  0  0  2  0  0  0  0  0  0
  190.3810  179.0780  144.4890 C   0  0  0  0  0  1  0  0  0  0  0  0
  185.7410  179.1170  141.5560 C   0  0  1  0  0  3  0  0  0  0  0  0
  188.9630  177.4230  140.3380 C   0  0  0  0  0  0  0  0  0  0  0  0
  189.0710  176.9590  144.6430 C   0  0  1  0  0  3  0  0  0  0  0  0
  185.4420  179.2280  145.3670 C   0  0  0  0  0  2  0  0  0  0  0  0
  191.3940  177.1810  138.9610 C   0  0  0  0  0  3  0  0  0  0  0  0
  188.9880  177.4440  138.9380 C   0  0  0  0  0  3  0  0  0  0  0  0
  182.5420  177.3240  140.1590 C   0  0  2  0  0  3  0  0  0  0  0  0
  182.8720  175.9680  140.1570 O   0  0  0  0  0  1  0  0  0  0  0  0
  183.0710  179.3760  138.7280 C   0  0  0  0  0  2  0  0  0  0  0  0
  184.6740  178.6140  140.5750 C   0  0  2  0  0  3  0  0  0  0  0  0
  182.6940  177.8920  138.7330 C   0  0  2  0  0  3  0  0  0  0  0  0
  184.3990  179.6270  139.4540 C   0  0  0  0  0  2  0  0  0  0  0  0
  183.3870  178.0570  141.2080 C   0  0  1  0  0  3  0  0  0  0  0  0
  182.6260  179.0820  141.7760 O   0  0  0  0  0  1  0  0  0  0  0  0
  181.3190  178.6070  136.7320 C   0  0  0  0  0  1  0  0  0  0  0  0
  181.4530  177.6240  137.8860 C   0  0  0  0  0  2  0  0  0  0  0  0
  1  4  1  0  0  0  0
  1  3  1  1  0  0  0
  2  5  1  0  0  0  0
  2  4  1  0  0  0  0
  3 20  1  0  0  0  0
  4 11  1  0  0  0  0
  5 10  1  0  0  0  0
  5 19  1  0  0  0  0
  6 22  2  0  0  0  0
  6 21  1  0  0  0  0
  7  2  1  0  0  0  0
  8  9  1  0  0  0  0
  9 12  1  0  0  0  0
 10 16  1  0  0  0  0
 10 19  1  0  0  0  0
 11 13  1  0  0  0  0
 11 14  1  0  0  0  0
 12  5  1  0  0  0  0
 15  7  1  0  0  0  0
 15 17  1  0  0  0  0
 17  1  1  0  0  0  0
 18  7  1  0  0  0  0
 18  9  2  0  0  0  0
 19 13  1  0  0  0  0
 20 14  1  0  0  0  0
 21  8  2  0  0  0  0
 22 18  1  0  0  0  0
 23 29  1  0  0  0  0
 24 23  1  0  0  0  0
 25 27  1  0  0  0  0
 25 28  1  0  0  0  0
 26 29  1  0  0  0  0
 26 17  1  0  0  0  0
 27 23  1  0  0  0  0
 28 26  1  0  0  0  0
 29 30  1  0  0  0  0
 31 32  1  0  0  0  0
 32 27  1  0  0  0  0
M  END
>  <MODEL>
7

>  <REMARK>
 VINA RESULT:      -6.7      2.563      7.246
  Name = 
  2 active torsions:
  status: ('A' for Active; 'I' for Inactive)
    1  A    between atoms: C_16  and  C_27
    2  A    between atoms: C_19  and  C_26
                            x       y       z     vdW  Elec       q    Type
                         _______ _______ _______ _____ _____    ______ ____

>  <TORSDO>
F 2

$$$$
=
 OpenBabel10272402053D

 32 38  0  0  1  0  0  0  0  0999 V2000
  190.9380  176.6320  139.3690 C   0  0  2  0  0  3  0  0  0  0  0  0
  189.4250  175.4890  137.5280 C   0  0  2  0  0  3  0  0  0  0  0  0
  192.1610  177.3950  138.8870 C   0  0  0  0  0  2  0  0  0  0  0  0
  190.6070  175.3810  138.5080 C   0  0  1  0  0  3  0  0  0  0  0  0
  189.8440  175.6910  136.0760 C   0  0  2  0  0  0  0  0  0  0  0  0
  185.0150  177.2960  136.2480 C   0  0  0  0  0  3  0  0  0  0  0  0
  188.3040  176.4450  137.9470 C   0  0  1  0  0  3  0  0  0  0  0  0
  186.5590  176.5390  134.5430 C   0  0  0  0  0  3  0  0  0  0  0  0
  187.5450  176.3420  135.5140 C   0  0  0  0  0  0  0  0  0  0  0  0
  191.1880  176.3220  135.7360 C   0  0  2  0  0  3  0  0  0  0  0  0
  191.8290  174.6520  137.8820 C   0  0  1  0  0  3  0  0  0  0  0  0
  188.7950  175.8460  135.1270 O   0  0  0  0  0  0  0  0  0  0  0  0
  191.5110  173.9790  136.6690 O   0  0  0  0  0  0  0  0  0  0  0  0
  193.1390  175.4460  137.7400 C   0  0  0  0  0  2  0  0  0  0  0  0
  188.8690  177.7840  138.3890 C   0  0  0  0  0  2  0  0  0  0  0  0
  191.2020  176.9400  134.3470 C   0  0  0  0  0  1  0  0  0  0  0  0
  189.7720  177.6010  139.6060 C   0  0  1  0  0  3  0  0  0  0  0  0
  187.2630  176.6260  136.8710 C   0  0  0  0  0  0  0  0  0  0  0  0
  190.9830  174.7990  135.6110 C   0  0  1  0  0  3  0  0  0  0  0  0
  193.3420  176.4480  138.8610 C   0  0  0  0  0  2  0  0  0  0  0  0
  185.2980  177.0150  134.9080 C   0  0  0  0  0  3  0  0  0  0  0  0
  185.9950  177.1020  137.2250 C   0  0  0  0  0  3  0  0  0  0  0  0
  188.9920  176.6910  143.3430 C   0  0  2  0  0  3  0  0  0  0  0  0
  189.0510  175.2980  143.3840 O   0  0  0  0  0  1  0  0  0  0  0  0
  187.3410  178.4660  142.5270 C   0  0  0  0  0  2  0  0  0  0  0  0
  188.9970  177.3690  140.9090 C   0  0  2  0  0  3  0  0  0  0  0  0
  187.5180  177.1410  143.2750 C   0  0  2  0  0  3  0  0  0  0  0  0
  187.8490  178.3750  141.0830 C   0  0  0  0  0  2  0  0  0  0  0  0
  189.8490  177.2080  142.1800 C   0  0  1  0  0  3  0  0  0  0  0  0
  190.4350  178.4220  142.5450 O   0  0  0  0  0  1  0  0  0  0  0  0
  187.7250  177.9670  145.6590 C   0  0  0  0  0  1  0  0  0  0  0  0
  186.8800  177.1880  144.6600 C   0  0  0  0  0  2  0  0  0  0  0  0
  1  3  1  6  0  0  0
  1 17  1  0  0  0  0
  2  7  1  0  0  0  0
  2  4  1  0  0  0  0
  4  1  1  0  0  0  0
  5  2  1  0  0  0  0
  6 22  1  0  0  0  0
  7 15  1  0  0  0  0
  8 21  1  0  0  0  0
  8  9  2  0  0  0  0
  9 18  1  0  0  0  0
 10  5  1  0  0  0  0
 11  4  1  0  0  0  0
 12  9  1  0  0  0  0
 12  5  1  0  0  0  0
 13 11  1  0  0  0  0
 14 11  1  0  0  0  0
 14 20  1  0  0  0  0
 15 17  1  0  0  0  0
 16 10  1  0  0  0  0
 17 26  1  0  0  0  0
 18 22  2  0  0  0  0
 18  7  1  0  0  0  0
 19 10  1  0  0  0  0
 19  5  1  0  0  0  0
 19 13  1  0  0  0  0
 20  3  1  0  0  0  0
 21  6  2  0  0  0  0
 23 24  1  0  0  0  0
 25 27  1  0  0  0  0
 26 28  1  0  0  0  0
 26 29  1  0  0  0  0
 27 23  1  0  0  0  0
 27 32  1  0  0  0  0
 28 25  1  0  0  0  0
 29 30  1  0  0  0  0
 29 23  1  0  0  0  0
 32 31  1  0  0  0  0
M  END
>  <MODEL>
8

>  <REMARK>
 VINA RESULT:      -6.6      4.213      8.750
  Name = 
  2 active torsions:
  status: ('A' for Active; 'I' for Inactive)
    1  A    between atoms: C_16  and  C_27
    2  A    between atoms: C_19  and  C_26
                            x       y       z     vdW  Elec       q    Type
                         _______ _______ _______ _____ _____    ______ ____

>  <TORSDO>
F 2

$$$$
=
 OpenBabel10272402053D

 32 38  0  0  1  0  0  0  0  0999 V2000
  186.7040  178.4660  142.2570 C   0  0  2  0  0  3  0  0  0  0  0  0
  187.3150  177.0700  144.4160 C   0  0  2  0  0  3  0  0  0  0  0  0
  186.1340  179.8580  142.4690 C   0  0  0  0  0  2  0  0  0  0  0  0
  186.2740  177.4460  143.3480 C   0  0  1  0  0  3  0  0  0  0  0  0
  187.0970  177.7570  145.7600 C   0  0  2  0  0  0  0  0  0  0  0  0
  191.9820  176.3250  145.8380 C   0  0  0  0  0  3  0  0  0  0  0  0
  188.7780  177.1310  143.9640 C   0  0  1  0  0  3  0  0  0  0  0  0
  190.2940  176.9170  147.4710 C   0  0  0  0  0  3  0  0  0  0  0  0
  189.3640  177.1130  146.4470 C   0  0  0  0  0  0  0  0  0  0  0  0
  186.3510  179.0830  145.8420 C   0  0  2  0  0  3  0  0  0  0  0  0
  184.8590  177.6640  143.9530 C   0  0  1  0  0  3  0  0  0  0  0  0
  188.0560  177.4880  146.7760 O   0  0  0  0  0  0  0  0  0  0  0  0
  184.7480  177.1870  145.2900 O   0  0  0  0  0  0  0  0  0  0  0  0
  184.2320  179.0620  143.8160 C   0  0  0  0  0  2  0  0  0  0  0  0
  189.0690  178.4380  143.2440 C   0  0  0  0  0  2  0  0  0  0  0  0
  186.7000  179.8660  147.0960 C   0  0  0  0  0  1  0  0  0  0  0  0
  188.2120  178.5500  141.9860 C   0  0  1  0  0  3  0  0  0  0  0  0
  189.7460  176.9130  145.1000 C   0  0  0  0  0  0  0  0  0  0  0  0
  185.6560  177.7660  146.2430 C   0  0  1  0  0  3  0  0  0  0  0  0
  184.6250  179.7580  142.5280 C   0  0  0  0  0  2  0  0  0  0  0  0
  191.6000  176.5250  147.1680 C   0  0  0  0  0  3  0  0  0  0  0  0
  191.0570  176.5190  144.8090 C   0  0  0  0  0  3  0  0  0  0  0  0
  188.5970  177.0170  138.3930 C   0  0  2  0  0  3  0  0  0  0  0  0
  187.4670  176.2150  138.2320 O   0  0  0  0  0  1  0  0  0  0  0  0
  190.8280  176.8700  139.6350 C   0  0  0  0  0  2  0  0  0  0  0  0
  188.7100  177.6700  140.8310 C   0  0  2  0  0  3  0  0  0  0  0  0
  189.8060  176.1330  138.7650 C   0  0  2  0  0  3  0  0  0  0  0  0
  190.2090  177.3560  140.9510 C   0  0  0  0  0  2  0  0  0  0  0  0
  188.3020  178.1200  139.4180 C   0  0  1  0  0  3  0  0  0  0  0  0
  188.9820  179.2830  139.0500 O   0  0  0  0  0  1  0  0  0  0  0  0
  191.9460  175.2780  137.7190 C   0  0  0  0  0  1  0  0  0  0  0  0
  190.4570  175.5230  137.5270 C   0  0  0  0  0  2  0  0  0  0  0  0
  1  3  1  1  0  0  0
  1  4  1  0  0  0  0
  2  5  1  0  0  0  0
  3 20  1  0  0  0  0
  4 11  1  0  0  0  0
  4  2  1  0  0  0  0
  5 10  1  0  0  0  0
  5 19  1  0  0  0  0
  5 12  1  0  0  0  0
  6 21  1  0  0  0  0
  7  2  1  0  0  0  0
  7 18  1  0  0  0  0
  9 12  1  0  0  0  0
  9  8  1  0  0  0  0
 10 19  1  0  0  0  0
 10 16  1  0  0  0  0
 11 13  1  0  0  0  0
 13 19  1  0  0  0  0
 14 11  1  0  0  0  0
 15  7  1  0  0  0  0
 17  1  1  0  0  0  0
 17 15  1  0  0  0  0
 18  9  2  0  0  0  0
 20 14  1  0  0  0  0
 21  8  2  0  0  0  0
 22 18  1  0  0  0  0
 22  6  2  0  0  0  0
 23 27  1  0  0  0  0
 23 29  1  0  0  0  0
 24 23  1  0  0  0  0
 25 28  1  0  0  0  0
 26 28  1  0  0  0  0
 26 17  1  0  0  0  0
 27 25  1  0  0  0  0
 29 26  1  0  0  0  0
 30 29  1  0  0  0  0
 32 31  1  0  0  0  0
 32 27  1  0  0  0  0
M  END
>  <MODEL>
9

>  <REMARK>
 VINA RESULT:      -6.5      3.532      5.686
  Name = 
  2 active torsions:
  status: ('A' for Active; 'I' for Inactive)
    1  A    between atoms: C_16  and  C_27
    2  A    between atoms: C_19  and  C_26
                            x       y       z     vdW  Elec       q    Type
                         _______ _______ _______ _____ _____    ______ ____

>  <TORSDO>
F 2

$$$$
