=
 OpenBabel10272413583D

 30 34  0  0  1  0  0  0  0  0999 V2000
  192.9580  176.5280  137.1930 C   0  0  1  0  0  3  0  0  0  0  0  0
  194.9960  175.6440  135.9510 C   0  0  1  0  0  3  0  0  0  0  0  0
  192.1640  173.5200  135.3710 C   0  0  0  0  0  2  0  0  0  0  0  0
  191.4180  176.7960  137.1420 C   0  0  2  0  0  3  0  0  0  0  0  0
  193.4250  176.2270  138.4930 O   0  0  0  0  0  0  0  0  0  0  0  0
  188.9390  178.8090  137.5080 C   0  0  0  0  0  2  0  0  0  0  0  0
  191.5650  177.2190  139.6640 C   0  0  1  0  0  3  0  0  0  0  0  0
  188.9060  174.6600  136.9880 C   0  0  0  0  0  2  0  0  0  0  0  0
  190.6560  173.6140  135.6610 C   0  0  2  0  0  3  0  0  0  0  0  0
  193.0580  177.3020  139.3200 C   0  0  0  0  0  2  0  0  0  0  0  0
  190.7880  176.5350  138.5300 C   0  0  1  0  0  3  0  0  0  0  0  0
  195.4980  174.4890  135.0990 C   0  0  0  0  0  2  0  0  0  0  0  0
  188.3640  175.9710  137.6070 C   0  0  2  0  0  3  0  0  0  0  0  0
  187.9920  178.1820  136.5280 C   0  0  0  0  0  3  0  0  0  0  0  0
  195.2960  176.9480  135.2350 C   0  0  0  0  0  1  0  0  0  0  0  0
  193.0350  174.0530  136.5070 C   0  0  2  0  0  3  0  0  0  0  0  0
  195.3540  173.1480  135.8240 C   0  0  0  0  0  2  0  0  0  0  0  0
  193.4860  175.4990  136.1780 C   0  0  1  0  0  3  0  0  0  0  0  0
  190.6940  176.0150  136.0420 C   0  0  0  0  0  2  0  0  0  0  0  0
  189.8850  173.6920  134.3470 C   0  0  0  0  0  1  0  0  0  0  0  0
  190.3190  174.7090  136.5820 N   0  0  1  0  0  0  0  0  0  0  0  0
  187.7550  176.8670  136.5570 C   0  0  0  0  0  3  0  0  0  0  0  0
  188.8660  178.1260  138.7990 N   0  0  0  0  0  2  0  0  0  0  0  0
  194.1820  173.0800  136.8150 C   0  0  1  0  0  3  0  0  0  0  0  0
  194.6850  173.2860  138.2310 C   0  0  0  0  0  1  0  0  0  0  0  0
  189.2580  176.7180  138.6430 C   0  0  2  0  0  3  0  0  0  0  0  0
  191.3990  176.4950  140.8460 O   0  0  0  0  0  0  0  0  0  0  0  0
  191.5100  177.4440  141.8670 C   0  0  0  0  0  2  0  0  0  0  0  0
  191.2400  176.8180  143.1490 N   0  0  0  0  0  2  0  0  0  0  0  0
  190.2260  175.8030  142.9250 C   0  0  0  0  0  1  0  0  0  0  0  0
  1  5  1  1  0  0  0
  2 15  1  6  0  0  0
  2 18  1  0  0  0  0
  3  9  1  0  0  0  0
  3 16  1  0  0  0  0
  4 19  1  6  0  0  0
  4  1  1  0  0  0  0
  4 11  1  0  0  0  0
  5 10  1  0  0  0  0
  6 23  1  0  0  0  0
  7 27  1  1  0  0  0
  8 13  1  0  0  0  0
  9 20  1  6  0  0  0
  9 21  1  0  0  0  0
 10  7  1  0  0  0  0
 11 26  1  0  0  0  0
 11  7  1  0  0  0  0
 12 17  1  0  0  0  0
 12  2  1  0  0  0  0
 13 26  1  0  0  0  0
 14 22  2  0  0  0  0
 14  6  1  0  0  0  0
 16 24  1  0  0  0  0
 17 24  1  0  0  0  0
 18 16  1  0  0  0  0
 18  1  1  0  0  0  0
 19 21  1  0  0  0  0
 21  8  1  0  0  0  0
 22 13  1  0  0  0  0
 24 25  1  0  0  0  0
 26 23  1  0  0  0  0
 27 28  1  0  0  0  0
 28 29  1  0  0  0  0
 30 29  1  0  0  0  0
M  END
>  <MODEL>
1

>  <REMARK>
 VINA RESULT:      -5.7      0.000      0.000
  Name = 
  3 active torsions:
  status: ('A' for Active; 'I' for Inactive)
    1  A    between atoms: O_6  and  C_8
    2  A    between atoms: O_6  and  C_21
    3  A    between atoms: N_9  and  C_21
                            x       y       z     vdW  Elec       q    Type
                         _______ _______ _______ _____ _____    ______ ____

>  <TORSDO>
F 3

$$$$
=
 OpenBabel10272413583D

 30 34  0  0  1  0  0  0  0  0999 V2000
  187.4290  176.7620  136.2280 C   0  0  1  0  0  3  0  0  0  0  0  0
  189.9260  176.9220  135.7620 C   0  0  1  0  0  3  0  0  0  0  0  0
  189.0790  173.6280  136.9030 C   0  0  0  0  0  2  0  0  0  0  0  0
  186.1350  175.8910  136.1050 C   0  0  2  0  0  3  0  0  0  0  0  0
  187.4290  177.5940  137.3710 O   0  0  0  0  0  0  0  0  0  0  0  0
  183.0670  175.5960  135.1950 C   0  0  0  0  0  2  0  0  0  0  0  0
  185.0410  177.5690  137.7020 C   0  0  1  0  0  3  0  0  0  0  0  0
  185.3720  173.0240  137.5530 C   0  0  0  0  0  2  0  0  0  0  0  0
  187.7660  172.8650  137.1480 C   0  0  2  0  0  3  0  0  0  0  0  0
  186.2740  178.3890  137.2990 C   0  0  0  0  0  2  0  0  0  0  0  0
  185.2430  176.0870  137.3530 C   0  0  1  0  0  3  0  0  0  0  0  0
  191.2350  176.1560  135.8590 C   0  0  0  0  0  2  0  0  0  0  0  0
  184.0430  173.7250  137.1810 C   0  0  2  0  0  3  0  0  0  0  0  0
  183.0490  174.1190  134.9340 C   0  0  0  0  0  3  0  0  0  0  0  0
  189.7670  177.4440  134.3460 C   0  0  0  0  0  1  0  0  0  0  0  0
  189.0250  175.0890  137.3480 C   0  0  2  0  0  3  0  0  0  0  0  0
  191.5280  175.7170  137.2970 C   0  0  0  0  0  2  0  0  0  0  0  0
  188.7580  175.9940  136.1180 C   0  0  1  0  0  3  0  0  0  0  0  0
  186.4140  174.4090  135.8420 C   0  0  0  0  0  2  0  0  0  0  0  0
  187.6520  171.7080  136.1600 C   0  0  0  0  0  1  0  0  0  0  0  0
  186.5850  173.7430  137.1320 N   0  0  1  0  0  0  0  0  0  0  0  0
  183.5310  173.2620  135.8400 C   0  0  0  0  0  3  0  0  0  0  0  0
  182.8540  175.8670  136.6170 N   0  0  0  0  0  2  0  0  0  0  0  0
  190.2800  175.4580  138.1530 C   0  0  1  0  0  3  0  0  0  0  0  0
  190.0030  176.6530  139.0450 C   0  0  0  0  0  1  0  0  0  0  0  0
  183.9370  175.2650  137.4080 C   0  0  2  0  0  3  0  0  0  0  0  0
  184.8220  177.6990  139.0740 O   0  0  0  0  0  0  0  0  0  0  0  0
  184.3750  179.0130  139.2430 C   0  0  0  0  0  2  0  0  0  0  0  0
  184.9640  179.5820  140.4420 N   0  0  0  0  0  2  0  0  0  0  0  0
  184.6880  178.6610  141.5320 C   0  0  0  0  0  1  0  0  0  0  0  0
  1  5  1  1  0  0  0
  2 15  1  6  0  0  0
  2 12  1  0  0  0  0
  2 18  1  0  0  0  0
  3  9  1  0  0  0  0
  3 16  1  0  0  0  0
  4 19  1  1  0  0  0
  4  1  1  0  0  0  0
  4 11  1  0  0  0  0
  6 23  1  0  0  0  0
  7 27  1  1  0  0  0
  9 20  1  6  0  0  0
 10  5  1  0  0  0  0
 10  7  1  0  0  0  0
 11 26  1  0  0  0  0
 11  7  1  0  0  0  0
 12 17  1  0  0  0  0
 13 26  1  0  0  0  0
 13  8  1  0  0  0  0
 14  6  1  0  0  0  0
 14 22  2  0  0  0  0
 16 24  1  0  0  0  0
 17 24  1  0  0  0  0
 18  1  1  0  0  0  0
 18 16  1  0  0  0  0
 19 21  1  0  0  0  0
 21  9  1  0  0  0  0
 21  8  1  0  0  0  0
 22 13  1  0  0  0  0
 23 26  1  0  0  0  0
 24 25  1  0  0  0  0
 27 28  1  0  0  0  0
 28 29  1  0  0  0  0
 29 30  1  0  0  0  0
M  END
>  <MODEL>
2

>  <REMARK>
 VINA RESULT:      -5.2      3.744      5.623
  Name = 
  3 active torsions:
  status: ('A' for Active; 'I' for Inactive)
    1  A    between atoms: O_6  and  C_8
    2  A    between atoms: O_6  and  C_21
    3  A    between atoms: N_9  and  C_21
                            x       y       z     vdW  Elec       q    Type
                         _______ _______ _______ _____ _____    ______ ____

>  <TORSDO>
F 3

$$$$
=
 OpenBabel10272413583D

 30 34  0  0  1  0  0  0  0  0999 V2000
  183.1440  178.2090  139.1400 C   0  0  1  0  0  3  0  0  0  0  0  0
  181.3070  179.4460  140.3950 C   0  0  1  0  0  3  0  0  0  0  0  0
  180.4220  179.0720  136.9380 C   0  0  0  0  0  2  0  0  0  0  0  0
  183.4820  177.1250  138.0640 C   0  0  2  0  0  3  0  0  0  0  0  0
  184.1000  179.2480  139.1990 O   0  0  0  0  0  0  0  0  0  0  0  0
  185.0760  174.4670  137.2100 C   0  0  0  0  0  2  0  0  0  0  0  0
  185.8860  178.0060  138.1580 C   0  0  1  0  0  3  0  0  0  0  0  0
  182.9160  177.1260  134.8120 C   0  0  0  0  0  2  0  0  0  0  0  0
  180.9880  178.2760  135.7500 C   0  0  2  0  0  3  0  0  0  0  0  0
  185.3460  178.6460  139.4430 C   0  0  0  0  0  2  0  0  0  0  0  0
  184.7290  177.5520  137.2550 C   0  0  1  0  0  3  0  0  0  0  0  0
  179.9820  180.1690  140.2150 C   0  0  0  0  0  2  0  0  0  0  0  0
  184.1040  176.1700  135.0770 C   0  0  2  0  0  3  0  0  0  0  0  0
  184.1110  173.9430  136.1890 C   0  0  0  0  0  3  0  0  0  0  0  0
  181.1480  178.3930  141.4760 C   0  0  0  0  0  1  0  0  0  0  0  0
  181.5020  179.6870  137.8280 C   0  0  2  0  0  3  0  0  0  0  0  0
  180.1070  181.3400  139.2360 C   0  0  0  0  0  2  0  0  0  0  0  0
  181.7200  178.7890  139.0720 C   0  0  1  0  0  3  0  0  0  0  0  0
  182.3070  176.7830  137.1450 C   0  0  0  0  0  2  0  0  0  0  0  0
  179.9820  177.2140  135.3180 C   0  0  0  0  0  1  0  0  0  0  0  0
  182.3220  177.7180  136.0210 N   0  0  1  0  0  0  0  0  0  0  0  0
  183.6400  174.7420  135.2250 C   0  0  0  0  0  3  0  0  0  0  0  0
  185.9640  175.4630  136.6120 N   0  0  0  0  0  2  0  0  0  0  0  0
  181.1740  181.1520  138.1470 C   0  0  1  0  0  3  0  0  0  0  0  0
  182.4360  181.9080  138.5190 C   0  0  0  0  0  1  0  0  0  0  0  0
  185.1770  176.6040  136.1210 C   0  0  2  0  0  3  0  0  0  0  0  0
  186.6760  178.9310  137.4730 O   0  0  0  0  0  0  0  0  0  0  0  0
  187.9540  178.3670  137.4550 C   0  0  0  0  0  2  0  0  0  0  0  0
  188.8100  179.0600  138.4020 N   0  0  0  0  0  2  0  0  0  0  0  0
  189.4180  178.0490  139.2490 C   0  0  0  0  0  1  0  0  0  0  0  0
  1  5  1  6  0  0  0
  2 15  1  1  0  0  0
  3 16  1  0  0  0  0
  4 19  1  6  0  0  0
  4  1  1  0  0  0  0
  5 10  1  0  0  0  0
  7 27  1  6  0  0  0
  7 10  1  0  0  0  0
  8 13  1  0  0  0  0
  8 21  1  0  0  0  0
  9 20  1  1  0  0  0
  9 21  1  0  0  0  0
  9  3  1  0  0  0  0
 11  4  1  0  0  0  0
 11  7  1  0  0  0  0
 12  2  1  0  0  0  0
 13 22  1  0  0  0  0
 13 26  1  0  0  0  0
 14  6  1  0  0  0  0
 16 24  1  0  0  0  0
 16 18  1  0  0  0  0
 17 12  1  0  0  0  0
 18  1  1  0  0  0  0
 18  2  1  0  0  0  0
 21 19  1  0  0  0  0
 22 14  2  0  0  0  0
 23  6  1  0  0  0  0
 24 25  1  0  0  0  0
 24 17  1  0  0  0  0
 26 23  1  0  0  0  0
 26 11  1  0  0  0  0
 28 27  1  0  0  0  0
 28 29  1  0  0  0  0
 29 30  1  0  0  0  0
M  END
>  <MODEL>
3

>  <REMARK>
 VINA RESULT:      -5.2      5.941     10.215
  Name = 
  3 active torsions:
  status: ('A' for Active; 'I' for Inactive)
    1  A    between atoms: O_6  and  C_8
    2  A    between atoms: O_6  and  C_21
    3  A    between atoms: N_9  and  C_21
                            x       y       z     vdW  Elec       q    Type
                         _______ _______ _______ _____ _____    ______ ____

>  <TORSDO>
F 3

$$$$
=
 OpenBabel10272413583D

 30 34  0  0  1  0  0  0  0  0999 V2000
  185.3960  176.9290  136.3680 C   0  0  1  0  0  3  0  0  0  0  0  0
  187.6260  177.9480  135.6840 C   0  0  1  0  0  3  0  0  0  0  0  0
  188.0530  174.5000  136.5810 C   0  0  0  0  0  2  0  0  0  0  0  0
  184.4550  175.6810  136.2860 C   0  0  2  0  0  3  0  0  0  0  0  0
  185.2620  177.6440  137.5800 O   0  0  0  0  0  0  0  0  0  0  0  0
  181.5670  174.4230  135.6490 C   0  0  0  0  0  2  0  0  0  0  0  0
  183.0740  176.7970  138.1330 C   0  0  1  0  0  3  0  0  0  0  0  0
  184.8570  172.6460  137.5200 C   0  0  0  0  0  2  0  0  0  0  0  0
  187.1030  173.3270  136.8760 C   0  0  2  0  0  3  0  0  0  0  0  0
  183.9100  178.0060  137.6960 C   0  0  0  0  0  2  0  0  0  0  0  0
  183.7070  175.4930  137.6270 C   0  0  1  0  0  3  0  0  0  0  0  0
  189.1160  177.6630  135.5820 C   0  0  0  0  0  2  0  0  0  0  0  0
  183.3380  172.8790  137.3450 C   0  0  2  0  0  3  0  0  0  0  0  0
  182.0040  173.0450  135.2510 C   0  0  0  0  0  3  0  0  0  0  0  0
  187.1330  178.4670  134.3460 C   0  0  0  0  0  1  0  0  0  0  0  0
  187.5770  175.8290  137.1660 C   0  0  2  0  0  3  0  0  0  0  0  0
  189.7090  177.2660  136.9370 C   0  0  0  0  0  2  0  0  0  0  0  0
  186.8800  176.6610  136.0590 C   0  0  1  0  0  3  0  0  0  0  0  0
  185.1710  174.3980  135.8580 C   0  0  0  0  0  2  0  0  0  0  0  0
  187.2560  172.2590  135.7970 C   0  0  0  0  0  1  0  0  0  0  0  0
  185.7070  173.7540  137.0570 N   0  0  1  0  0  0  0  0  0  0  0  0
  182.8460  172.3490  136.0210 C   0  0  0  0  0  3  0  0  0  0  0  0
  181.4520  174.5240  137.1040 N   0  0  0  0  0  2  0  0  0  0  0  0
  188.7290  176.5510  137.8790 C   0  0  1  0  0  3  0  0  0  0  0  0
  188.1860  177.5300  138.9040 C   0  0  0  0  0  1  0  0  0  0  0  0
  182.7600  174.2770  137.7270 C   0  0  2  0  0  3  0  0  0  0  0  0
  182.9930  176.7660  139.5260 O   0  0  0  0  0  0  0  0  0  0  0  0
  182.8050  178.0980  139.9040 C   0  0  0  0  0  2  0  0  0  0  0  0
  183.2100  178.2780  141.2880 N   0  0  0  0  0  2  0  0  0  0  0  0
  184.5710  178.7850  141.2730 C   0  0  0  0  0  1  0  0  0  0  0  0
  1  5  1  1  0  0  0
  2 15  1  6  0  0  0
  2 18  1  0  0  0  0
  3  9  1  0  0  0  0
  3 16  1  0  0  0  0
  4 19  1  1  0  0  0
  4  1  1  0  0  0  0
  4 11  1  0  0  0  0
  5 10  1  0  0  0  0
  6 23  1  0  0  0  0
  7 27  1  1  0  0  0
  9 20  1  6  0  0  0
  9 21  1  0  0  0  0
 10  7  1  0  0  0  0
 11 26  1  0  0  0  0
 11  7  1  0  0  0  0
 12  2  1  0  0  0  0
 12 17  1  0  0  0  0
 13  8  1  0  0  0  0
 13 26  1  0  0  0  0
 14  6  1  0  0  0  0
 14 22  2  0  0  0  0
 16 24  1  0  0  0  0
 17 24  1  0  0  0  0
 18  1  1  0  0  0  0
 18 16  1  0  0  0  0
 19 21  1  0  0  0  0
 21  8  1  0  0  0  0
 22 13  1  0  0  0  0
 23 26  1  0  0  0  0
 24 25  1  0  0  0  0
 27 28  1  0  0  0  0
 28 29  1  0  0  0  0
 30 29  1  0  0  0  0
M  END
>  <MODEL>
4

>  <REMARK>
 VINA RESULT:      -4.8      4.740      7.145
  Name = 
  3 active torsions:
  status: ('A' for Active; 'I' for Inactive)
    1  A    between atoms: O_6  and  C_8
    2  A    between atoms: O_6  and  C_21
    3  A    between atoms: N_9  and  C_21
                            x       y       z     vdW  Elec       q    Type
                         _______ _______ _______ _____ _____    ______ ____

>  <TORSDO>
F 3

$$$$
=
 OpenBabel10272413583D

 30 34  0  0  1  0  0  0  0  0999 V2000
  185.5710  178.0860  137.6340 C   0  0  1  0  0  3  0  0  0  0  0  0
  187.9030  178.7680  136.8740 C   0  0  1  0  0  3  0  0  0  0  0  0
  187.5390  175.2010  136.7350 C   0  0  0  0  0  2  0  0  0  0  0  0
  184.3440  177.1480  137.3860 C   0  0  2  0  0  3  0  0  0  0  0  0
  185.7480  178.4180  138.9970 O   0  0  0  0  0  0  0  0  0  0  0  0
  181.1820  176.7770  136.9420 C   0  0  0  0  0  2  0  0  0  0  0  0
  183.4850  177.9270  139.6710 C   0  0  1  0  0  3  0  0  0  0  0  0
  184.0950  173.8700  137.6810 C   0  0  0  0  0  2  0  0  0  0  0  0
  186.3600  174.2220  136.8660 C   0  0  2  0  0  3  0  0  0  0  0  0
  184.5490  179.0060  139.4340 C   0  0  0  0  0  2  0  0  0  0  0  0
  183.7150  176.7310  138.7360 C   0  0  1  0  0  3  0  0  0  0  0  0
  189.2540  178.2190  136.4460 C   0  0  0  0  0  2  0  0  0  0  0  0
  182.6730  174.4600  137.8380 C   0  0  2  0  0  3  0  0  0  0  0  0
  181.2140  175.5210  136.1230 C   0  0  0  0  0  3  0  0  0  0  0  0
  187.4210  179.7560  135.8270 C   0  0  0  0  0  1  0  0  0  0  0  0
  187.4760  176.3640  137.7250 C   0  0  2  0  0  3  0  0  0  0  0  0
  189.8650  177.3200  137.5250 C   0  0  0  0  0  2  0  0  0  0  0  0
  186.9000  177.6160  137.0160 C   0  0  1  0  0  3  0  0  0  0  0  0
  184.6650  175.9310  136.5160 C   0  0  0  0  0  2  0  0  0  0  0  0
  186.1280  173.5180  135.5330 C   0  0  0  0  0  1  0  0  0  0  0  0
  185.1430  174.8610  137.3900 N   0  0  1  0  0  0  0  0  0  0  0  0
  181.9300  174.4660  136.5240 C   0  0  0  0  0  3  0  0  0  0  0  0
  181.2470  176.4610  138.3680 N   0  0  0  0  0  2  0  0  0  0  0  0
  188.8390  176.5800  138.3970 C   0  0  1  0  0  3  0  0  0  0  0  0
  188.6690  177.2990  139.7220 C   0  0  0  0  0  1  0  0  0  0  0  0
  182.5080  175.7690  138.6700 C   0  0  2  0  0  3  0  0  0  0  0  0
  183.5440  177.4990  140.9980 O   0  0  0  0  0  0  0  0  0  0  0  0
  183.5650  178.6740  141.7540 C   0  0  0  0  0  2  0  0  0  0  0  0
  184.0960  178.3980  143.0770 N   0  0  0  0  0  2  0  0  0  0  0  0
  183.4130  179.2820  144.0050 C   0  0  0  0  0  1  0  0  0  0  0  0
  1  5  1  1  0  0  0
  2 15  1  6  0  0  0
  2 18  1  0  0  0  0
  3  9  1  0  0  0  0
  3 16  1  0  0  0  0
  4 19  1  1  0  0  0
  4  1  1  0  0  0  0
  4 11  1  0  0  0  0
  5 10  1  0  0  0  0
  6 23  1  0  0  0  0
  7 27  1  1  0  0  0
  8 13  1  0  0  0  0
  9 20  1  6  0  0  0
  9 21  1  0  0  0  0
 10  7  1  0  0  0  0
 11  7  1  0  0  0  0
 12  2  1  0  0  0  0
 12 17  1  0  0  0  0
 13 26  1  0  0  0  0
 14 22  2  0  0  0  0
 14  6  1  0  0  0  0
 16 24  1  0  0  0  0
 17 24  1  0  0  0  0
 18  1  1  0  0  0  0
 18 16  1  0  0  0  0
 19 21  1  0  0  0  0
 21  8  1  0  0  0  0
 22 13  1  0  0  0  0
 23 26  1  0  0  0  0
 24 25  1  0  0  0  0
 26 11  1  0  0  0  0
 27 28  1  0  0  0  0
 28 29  1  0  0  0  0
 29 30  1  0  0  0  0
M  END
>  <MODEL>
5

>  <REMARK>
 VINA RESULT:      -4.6      4.781      7.009
  Name = 
  3 active torsions:
  status: ('A' for Active; 'I' for Inactive)
    1  A    between atoms: O_6  and  C_8
    2  A    between atoms: O_6  and  C_21
    3  A    between atoms: N_9  and  C_21
                            x       y       z     vdW  Elec       q    Type
                         _______ _______ _______ _____ _____    ______ ____

>  <TORSDO>
F 3

$$$$
=
 OpenBabel10272413583D

 30 34  0  0  1  0  0  0  0  0999 V2000
  191.4960  175.8840  137.9930 C   0  0  1  0  0  3  0  0  0  0  0  0
  189.8980  176.9910  139.6370 C   0  0  1  0  0  3  0  0  0  0  0  0
  188.0620  175.2650  137.0830 C   0  0  0  0  0  2  0  0  0  0  0  0
  191.8030  174.6160  137.1310 C   0  0  2  0  0  3  0  0  0  0  0  0
  191.9700  177.0800  137.4070 O   0  0  0  0  0  0  0  0  0  0  0  0
  193.8420  172.2950  136.2400 C   0  0  0  0  0  2  0  0  0  0  0  0
  193.5990  176.0300  135.9730 C   0  0  1  0  0  3  0  0  0  0  0  0
  190.1800  173.3780  134.5370 C   0  0  0  0  0  2  0  0  0  0  0  0
  188.4240  174.2760  135.9620 C   0  0  2  0  0  3  0  0  0  0  0  0
  193.3490  176.9160  137.2000 C   0  0  0  0  0  2  0  0  0  0  0  0
  192.4470  175.0320  135.7870 C   0  0  1  0  0  3  0  0  0  0  0  0
  188.4280  177.2660  139.9100 C   0  0  0  0  0  2  0  0  0  0  0  0
  191.6440  172.8860  134.4470 C   0  0  2  0  0  3  0  0  0  0  0  0
  192.8390  171.2390  135.8810 C   0  0  0  0  0  3  0  0  0  0  0  0
  190.5160  176.3600  140.8720 C   0  0  0  0  0  1  0  0  0  0  0  0
  189.0850  176.3870  137.2580 C   0  0  2  0  0  3  0  0  0  0  0  0
  187.7730  178.0300  138.7550 C   0  0  0  0  0  2  0  0  0  0  0  0
  190.0300  176.0440  138.4370 C   0  0  1  0  0  3  0  0  0  0  0  0
  190.5890  173.7090  136.9140 C   0  0  0  0  0  2  0  0  0  0  0  0
  187.7860  172.9200  136.2480 C   0  0  0  0  0  1  0  0  0  0  0  0
  189.8740  174.1830  135.7300 N   0  0  1  0  0  0  0  0  0  0  0  0
  191.8080  171.5250  135.0780 C   0  0  0  0  0  3  0  0  0  0  0  0
  194.0440  173.2130  135.1200 N   0  0  0  0  0  2  0  0  0  0  0  0
  188.3850  177.7480  137.3740 C   0  0  1  0  0  3  0  0  0  0  0  0
  189.3340  178.8660  136.9880 C   0  0  0  0  0  1  0  0  0  0  0  0
  192.7810  173.8940  134.7970 C   0  0  2  0  0  3  0  0  0  0  0  0
  193.7110  176.8300  134.8350 O   0  0  0  0  0  0  0  0  0  0  0  0
  195.0850  176.9150  134.5900 C   0  0  0  0  0  2  0  0  0  0  0  0
  195.6400  178.0520  135.3040 N   0  0  0  0  0  2  0  0  0  0  0  0
  196.4220  178.8160  134.3470 C   0  0  0  0  0  1  0  0  0  0  0  0
  1  5  1  6  0  0  0
  1 18  1  0  0  0  0
  2 12  1  0  0  0  0
  2 15  1  1  0  0  0
  3 16  1  0  0  0  0
  4 19  1  6  0  0  0
  4  1  1  0  0  0  0
  7 27  1  6  0  0  0
  7 10  1  0  0  0  0
  8 21  1  0  0  0  0
  9 20  1  1  0  0  0
  9  3  1  0  0  0  0
 10  5  1  0  0  0  0
 11  7  1  0  0  0  0
 11  4  1  0  0  0  0
 13  8  1  0  0  0  0
 13 26  1  0  0  0  0
 13 22  1  0  0  0  0
 14  6  1  0  0  0  0
 16 24  1  0  0  0  0
 16 18  1  0  0  0  0
 17 12  1  0  0  0  0
 18  2  1  0  0  0  0
 21  9  1  0  0  0  0
 21 19  1  0  0  0  0
 22 14  2  0  0  0  0
 23  6  1  0  0  0  0
 24 17  1  0  0  0  0
 25 24  1  0  0  0  0
 26 23  1  0  0  0  0
 26 11  1  0  0  0  0
 28 27  1  0  0  0  0
 28 29  1  0  0  0  0
 30 29  1  0  0  0  0
M  END
>  <MODEL>
6

>  <REMARK>
 VINA RESULT:      -4.3      2.306      6.201
  Name = 
  3 active torsions:
  status: ('A' for Active; 'I' for Inactive)
    1  A    between atoms: O_6  and  C_8
    2  A    between atoms: O_6  and  C_21
    3  A    between atoms: N_9  and  C_21
                            x       y       z     vdW  Elec       q    Type
                         _______ _______ _______ _____ _____    ______ ____

>  <TORSDO>
F 3

$$$$
=
 OpenBabel10272413583D

 30 34  0  0  1  0  0  0  0  0999 V2000
  183.9370  177.2660  138.9520 C   0  0  1  0  0  3  0  0  0  0  0  0
  182.4920  178.6040  140.5640 C   0  0  1  0  0  3  0  0  0  0  0  0
  180.4310  176.7660  138.2740 C   0  0  0  0  0  2  0  0  0  0  0  0
  184.1300  175.9100  138.1960 C   0  0  2  0  0  3  0  0  0  0  0  0
  184.4410  178.3750  138.2360 O   0  0  0  0  0  0  0  0  0  0  0  0
  185.9920  173.4060  137.4220 C   0  0  0  0  0  2  0  0  0  0  0  0
  185.9320  177.1100  136.8250 C   0  0  1  0  0  3  0  0  0  0  0  0
  182.3040  174.5410  135.8110 C   0  0  0  0  0  2  0  0  0  0  0  0
  180.6790  175.6620  137.2330 C   0  0  2  0  0  3  0  0  0  0  0  0
  185.7970  178.1150  137.9760 C   0  0  0  0  0  2  0  0  0  0  0  0
  184.7210  176.1670  136.7890 C   0  0  1  0  0  3  0  0  0  0  0  0
  181.0560  178.9870  140.8830 C   0  0  0  0  0  2  0  0  0  0  0  0
  183.7330  173.9590  135.6930 C   0  0  2  0  0  3  0  0  0  0  0  0
  184.9170  172.3820  137.2120 C   0  0  0  0  0  3  0  0  0  0  0  0
  183.1430  178.0520  141.8200 C   0  0  0  0  0  1  0  0  0  0  0  0
  181.5200  177.8380  138.2940 C   0  0  2  0  0  3  0  0  0  0  0  0
  180.3800  179.6810  139.6970 C   0  0  0  0  0  2  0  0  0  0  0  0
  182.5090  177.5480  139.4520 C   0  0  1  0  0  3  0  0  0  0  0  0
  182.8600  175.0590  138.1240 C   0  0  0  0  0  2  0  0  0  0  0  0
  179.9860  174.3760  137.6740 C   0  0  0  0  0  1  0  0  0  0  0  0
  182.1060  175.4650  136.9380 N   0  0  1  0  0  0  0  0  0  0  0  0
  183.8600  172.6530  136.4380 C   0  0  0  0  0  3  0  0  0  0  0  0
  186.1800  174.2070  136.2130 N   0  0  0  0  0  2  0  0  0  0  0  0
  180.9000  179.2420  138.3190 C   0  0  1  0  0  3  0  0  0  0  0  0
  181.8840  180.2650  137.7850 C   0  0  0  0  0  1  0  0  0  0  0  0
  184.9390  174.9280  135.8930 C   0  0  2  0  0  3  0  0  0  0  0  0
  186.0230  177.7970  135.6140 O   0  0  0  0  0  0  0  0  0  0  0  0
  187.2110  177.3450  135.0340 C   0  0  0  0  0  2  0  0  0  0  0  0
  188.3160  177.5480  135.9550 N   0  0  0  0  0  2  0  0  0  0  0  0
  189.3090  176.5290  135.6630 C   0  0  0  0  0  1  0  0  0  0  0  0
  1  5  1  6  0  0  0
  1 18  1  0  0  0  0
  2 12  1  0  0  0  0
  2 15  1  1  0  0  0
  3 16  1  0  0  0  0
  4 19  1  6  0  0  0
  4  1  1  0  0  0  0
  7 27  1  6  0  0  0
  7 10  1  0  0  0  0
  8 21  1  0  0  0  0
  9 20  1  1  0  0  0
  9  3  1  0  0  0  0
 10  5  1  0  0  0  0
 11  7  1  0  0  0  0
 11  4  1  0  0  0  0
 13  8  1  0  0  0  0
 13 26  1  0  0  0  0
 13 22  1  0  0  0  0
 14  6  1  0  0  0  0
 16 24  1  0  0  0  0
 16 18  1  0  0  0  0
 17 12  1  0  0  0  0
 18  2  1  0  0  0  0
 21  9  1  0  0  0  0
 21 19  1  0  0  0  0
 22 14  2  0  0  0  0
 23  6  1  0  0  0  0
 24 17  1  0  0  0  0
 25 24  1  0  0  0  0
 26 23  1  0  0  0  0
 26 11  1  0  0  0  0
 28 27  1  0  0  0  0
 28 29  1  0  0  0  0
 30 29  1  0  0  0  0
M  END
>  <MODEL>
7

>  <REMARK>
 VINA RESULT:      -3.9      5.811      9.984
  Name = 
  3 active torsions:
  status: ('A' for Active; 'I' for Inactive)
    1  A    between atoms: O_6  and  C_8
    2  A    between atoms: O_6  and  C_21
    3  A    between atoms: N_9  and  C_21
                            x       y       z     vdW  Elec       q    Type
                         _______ _______ _______ _____ _____    ______ ____

>  <TORSDO>
F 3

$$$$
=
 OpenBabel10272413583D

 30 34  0  0  1  0  0  0  0  0999 V2000
  183.9670  177.7190  137.3960 C   0  0  1  0  0  3  0  0  0  0  0  0
  181.6250  178.4370  138.0860 C   0  0  1  0  0  3  0  0  0  0  0  0
  183.8190  178.4430  140.9250 C   0  0  0  0  0  2  0  0  0  0  0  0
  185.5040  177.9650  137.5560 C   0  0  2  0  0  3  0  0  0  0  0  0
  183.6470  176.3660  137.1400 O   0  0  0  0  0  0  0  0  0  0  0  0
  188.3820  178.4860  136.2230 C   0  0  0  0  0  2  0  0  0  0  0  0
  185.8290  175.7390  136.3290 C   0  0  1  0  0  3  0  0  0  0  0  0
  187.4490  177.5460  140.1890 C   0  0  0  0  0  2  0  0  0  0  0  0
  185.3370  178.3070  141.1270 C   0  0  2  0  0  3  0  0  0  0  0  0
  184.3550  175.9880  135.9870 C   0  0  0  0  0  2  0  0  0  0  0  0
  186.2640  176.6180  137.5110 C   0  0  1  0  0  3  0  0  0  0  0  0
  180.7660  178.8020  139.2870 C   0  0  0  0  0  2  0  0  0  0  0  0
  188.3450  177.4550  138.9310 C   0  0  2  0  0  3  0  0  0  0  0  0
  189.0160  179.2530  137.3460 C   0  0  0  0  0  3  0  0  0  0  0  0
  181.5080  179.5370  137.0470 C   0  0  0  0  0  1  0  0  0  0  0  0
  183.2610  177.5020  139.8570 C   0  0  2  0  0  3  0  0  0  0  0  0
  180.7270  177.6710  140.3180 C   0  0  0  0  0  2  0  0  0  0  0  0
  183.0850  178.2780  138.5270 C   0  0  1  0  0  3  0  0  0  0  0  0
  185.8710  178.7750  138.8010 C   0  0  0  0  0  2  0  0  0  0  0  0
  185.9020  179.6170  141.6670 C   0  0  0  0  0  1  0  0  0  0  0  0
  186.0350  177.8450  139.9170 N   0  0  1  0  0  0  0  0  0  0  0  0
  188.9680  178.7890  138.5990 C   0  0  0  0  0  3  0  0  0  0  0  0
  188.5000  177.0470  136.4550 N   0  0  0  0  0  2  0  0  0  0  0  0
  181.9920  176.8010  140.3610 C   0  0  1  0  0  3  0  0  0  0  0  0
  181.7620  175.5110  139.5950 C   0  0  0  0  0  1  0  0  0  0  0  0
  187.7960  176.6810  137.6930 C   0  0  2  0  0  3  0  0  0  0  0  0
  186.0110  174.3950  136.6570 O   0  0  0  0  0  0  0  0  0  0  0  0
  185.4030  173.6870  135.6170 C   0  0  0  0  0  2  0  0  0  0  0  0
  185.1160  172.3300  136.0490 N   0  0  0  0  0  2  0  0  0  0  0  0
  184.4680  172.4220  137.3460 C   0  0  0  0  0  1  0  0  0  0  0  0
  1  5  1  1  0  0  0
  1  4  1  0  0  0  0
  1 18  1  0  0  0  0
  2 15  1  6  0  0  0
  2 18  1  0  0  0  0
  2 12  1  0  0  0  0
  3  9  1  0  0  0  0
  4 19  1  1  0  0  0
  6 23  1  0  0  0  0
  6 14  1  0  0  0  0
  7 27  1  1  0  0  0
  7 11  1  0  0  0  0
  9 20  1  6  0  0  0
 10  7  1  0  0  0  0
 10  5  1  0  0  0  0
 11  4  1  0  0  0  0
 11 26  1  0  0  0  0
 12 17  1  0  0  0  0
 13  8  1  0  0  0  0
 14 22  2  0  0  0  0
 16 24  1  0  0  0  0
 16  3  1  0  0  0  0
 17 24  1  0  0  0  0
 18 16  1  0  0  0  0
 19 21  1  0  0  0  0
 21  8  1  0  0  0  0
 21  9  1  0  0  0  0
 22 13  1  0  0  0  0
 23 26  1  0  0  0  0
 25 24  1  0  0  0  0
 26 13  1  0  0  0  0
 28 29  1  0  0  0  0
 28 27  1  0  0  0  0
 29 30  1  0  0  0  0
M  END
>  <MODEL>
8

>  <REMARK>
 VINA RESULT:      -3.6      5.161      9.348
  Name = 
  3 active torsions:
  status: ('A' for Active; 'I' for Inactive)
    1  A    between atoms: O_6  and  C_8
    2  A    between atoms: O_6  and  C_21
    3  A    between atoms: N_9  and  C_21
                            x       y       z     vdW  Elec       q    Type
                         _______ _______ _______ _____ _____    ______ ____

>  <TORSDO>
F 3

$$$$
=
 OpenBabel10272413583D

 30 34  0  0  1  0  0  0  0  0999 V2000
  191.9120  175.4470  137.1620 C   0  0  1  0  0  3  0  0  0  0  0  0
  189.7650  176.6420  137.8260 C   0  0  1  0  0  3  0  0  0  0  0  0
  189.0670  174.0590  135.4360 C   0  0  0  0  0  2  0  0  0  0  0  0
  192.5930  174.0750  136.8450 C   0  0  2  0  0  3  0  0  0  0  0  0
  192.4720  176.5240  136.4370 O   0  0  0  0  0  0  0  0  0  0  0  0
  194.9780  171.9810  137.3520 C   0  0  0  0  0  2  0  0  0  0  0  0
  194.5710  175.4390  135.9560 C   0  0  1  0  0  3  0  0  0  0  0  0
  192.0720  171.9830  134.3460 C   0  0  0  0  0  2  0  0  0  0  0  0
  189.8690  172.8980  134.8230 C   0  0  2  0  0  3  0  0  0  0  0  0
  193.8450  176.5470  136.7310 C   0  0  0  0  0  2  0  0  0  0  0  0
  193.6330  174.2480  135.7130 C   0  0  1  0  0  3  0  0  0  0  0  0
  188.2760  176.7270  137.5300 C   0  0  0  0  0  2  0  0  0  0  0  0
  193.5070  171.7350  134.8680 C   0  0  2  0  0  3  0  0  0  0  0  0
  194.2450  170.7170  137.0160 C   0  0  0  0  0  3  0  0  0  0  0  0
  189.9570  176.4480  139.3190 C   0  0  0  0  0  1  0  0  0  0  0  0
  189.8790  175.3430  135.5930 C   0  0  2  0  0  3  0  0  0  0  0  0
  188.0110  177.0620  136.0590 C   0  0  0  0  0  2  0  0  0  0  0  0
  190.3760  175.4650  137.0560 C   0  0  1  0  0  3  0  0  0  0  0  0
  191.6010  172.9540  136.5290 C   0  0  0  0  0  2  0  0  0  0  0  0
  189.2720  171.5680  135.2720 C   0  0  0  0  0  1  0  0  0  0  0  0
  191.3110  172.9940  135.0960 N   0  0  1  0  0  0  0  0  0  0  0  0
  193.5410  170.6190  135.8830 C   0  0  0  0  0  3  0  0  0  0  0  0
  195.4910  172.6150  136.1370 N   0  0  0  0  0  2  0  0  0  0  0  0
  189.0850  176.5540  135.0850 C   0  0  1  0  0  3  0  0  0  0  0  0
  190.0250  177.6850  134.7120 C   0  0  0  0  0  1  0  0  0  0  0  0
  194.3730  172.9740  135.2520 C   0  0  2  0  0  3  0  0  0  0  0  0
  195.0140  175.9410  134.7310 O   0  0  0  0  0  0  0  0  0  0  0  0
  196.3850  176.1530  134.9050 C   0  0  0  0  0  2  0  0  0  0  0  0
  196.6160  177.5060  135.3800 N   0  0  0  0  0  2  0  0  0  0  0  0
  196.1080  178.4090  134.3620 C   0  0  0  0  0  1  0  0  0  0  0  0
  1  5  1  6  0  0  0
  2 15  1  1  0  0  0
  3 16  1  0  0  0  0
  4 19  1  6  0  0  0
  4  1  1  0  0  0  0
  5 10  1  0  0  0  0
  7 27  1  6  0  0  0
  7 10  1  0  0  0  0
  8 13  1  0  0  0  0
  8 21  1  0  0  0  0
  9 21  1  0  0  0  0
  9 20  1  1  0  0  0
  9  3  1  0  0  0  0
 11  7  1  0  0  0  0
 11  4  1  0  0  0  0
 12  2  1  0  0  0  0
 13 26  1  0  0  0  0
 13 22  1  0  0  0  0
 14  6  1  0  0  0  0
 16 18  1  0  0  0  0
 17 12  1  0  0  0  0
 18  1  1  0  0  0  0
 18  2  1  0  0  0  0
 21 19  1  0  0  0  0
 22 14  2  0  0  0  0
 23  6  1  0  0  0  0
 24 16  1  0  0  0  0
 24 17  1  0  0  0  0
 25 24  1  0  0  0  0
 26 11  1  0  0  0  0
 26 23  1  0  0  0  0
 27 28  1  0  0  0  0
 28 29  1  0  0  0  0
 30 29  1  0  0  0  0
M  END
>  <MODEL>
9

>  <REMARK>
 VINA RESULT:      -3.6      2.742      6.382
  Name = 
  3 active torsions:
  status: ('A' for Active; 'I' for Inactive)
    1  A    between atoms: O_6  and  C_8
    2  A    between atoms: O_6  and  C_21
    3  A    between atoms: N_9  and  C_21
                            x       y       z     vdW  Elec       q    Type
                         _______ _______ _______ _____ _____    ______ ____

>  <TORSDO>
F 3

$$$$
