=
 OpenBabel10272413233D

 32 36  0  0  1  0  0  0  0  0999 V2000
  193.7260  177.2440  138.9830 C   0  0  0  0  0  3  0  0  0  0  0  0
  188.6030  177.1900  140.9550 C   0  0  0  0  0  3  0  0  0  0  0  0
  191.3530  176.9510  146.2750 C   0  0  0  0  0  3  0  0  0  0  0  0
  190.0220  176.8230  146.7290 C   0  0  0  0  0  3  0  0  0  0  0  0
  190.6950  176.7000  139.6590 C   0  0  0  0  0  0  0  0  0  0  0  0
  191.6280  177.4160  141.8140 N   0  0  0  0  0  0  0  0  0  0  0  0
  193.0050  177.7860  139.9590 C   0  0  0  0  0  3  0  0  0  0  0  0
  191.6350  177.0490  144.9000 C   0  0  0  0  0  3  0  0  0  0  0  0
  190.5110  177.0910  142.6450 C   0  0  0  0  0  0  0  0  0  0  0  0
  190.5570  177.0040  144.0190 C   0  0  0  0  0  0  0  0  0  0  0  0
  188.4060  176.9210  143.4150 N   0  0  0  0  0  0  0  0  0  0  0  0
  192.2500  175.4630  138.0880 C   0  0  0  0  0  3  0  0  0  0  0  0
  191.7580  177.2690  140.5290 C   0  0  0  0  0  0  0  0  0  0  0  0
  190.9560  175.9300  138.6030 C   0  0  0  0  0  3  0  0  0  0  0  0
  193.4660  175.9930  138.2570 C   0  0  0  0  0  0  0  0  0  0  0  0
  188.9530  176.7940  145.8140 C   0  0  0  0  0  3  0  0  0  0  0  0
  189.2610  176.8860  144.4560 C   0  0  0  0  0  0  0  0  0  0  0  0
  189.2710  177.0290  139.8180 C   0  0  0  0  0  3  0  0  0  0  0  0
  189.1660  177.0490  142.2990 C   0  0  0  0  0  0  0  0  0  0  0  0
  195.6560  174.6400  138.2290 C   0  0  0  0  0  0  0  0  0  0  0  0
  194.6020  175.3950  137.6150 N   0  0  0  0  0  2  0  0  0  0  0  0
  195.6950  174.4610  139.4750 O   0  0  0  0  0  0  0  0  0  0  0  0
  196.9460  173.9500  137.2060 S   0  0  0  0  0  1  0  0  0  0  0  0
  186.9480  176.8700  143.4810 C   0  0  0  0  0  2  0  0  0  0  0  0
  184.5070  178.0700  142.7860 O   0  0  0  0  0  1  0  0  0  0  0  0
  184.5730  179.6930  144.5900 C   0  0  2  0  0  3  0  0  0  0  0  0
  186.4080  178.0430  144.2920 C   0  0  2  0  0  3  0  0  0  0  0  0
  185.7810  178.7200  146.3670 C   0  0  0  0  0  2  0  0  0  0  0  0
  185.3470  179.9350  145.7500 O   0  0  0  0  0  0  0  0  0  0  0  0
  183.2020  179.1210  144.9480 C   0  0  0  0  0  1  0  0  0  0  0  0
  185.8580  177.5990  145.5000 O   0  0  0  0  0  0  0  0  0  0  0  0
  185.3620  178.8760  143.5480 C   0  0  1  0  0  3  0  0  0  0  0  0
  1  7  1  0  0  0  0
  2 19  2  0  0  0  0
  3  4  1  0  0  0  0
  5 18  2  0  0  0  0
  5 13  1  0  0  0  0
  6  9  2  0  0  0  0
  7 13  2  0  0  0  0
  8  3  2  0  0  0  0
  9 10  1  0  0  0  0
 10 17  2  0  0  0  0
 10  8  1  0  0  0  0
 11 24  1  0  0  0  0
 11 17  1  0  0  0  0
 12 15  1  0  0  0  0
 12 14  2  0  0  0  0
 13  6  1  0  0  0  0
 14  5  1  0  0  0  0
 15  1  2  0  0  0  0
 16  4  2  0  0  0  0
 17 16  1  0  0  0  0
 18  2  1  0  0  0  0
 19  9  1  0  0  0  0
 19 11  1  0  0  0  0
 20 22  2  0  0  0  0
 21 20  1  0  0  0  0
 21 15  1  0  0  0  0
 23 20  1  0  0  0  0
 26 30  1  1  0  0  0
 26 29  1  0  0  0  0
 27 24  1  6  0  0  0
 27 31  1  0  0  0  0
 29 28  1  0  0  0  0
 31 28  1  0  0  0  0
 32 25  1  1  0  0  0
 32 27  1  0  0  0  0
 32 26  1  0  0  0  0
M  END
>  <MODEL>
1

>  <REMARK>
 VINA RESULT:      -8.8      0.000      0.000
  Name = 
  3 active torsions:
  status: ('A' for Active; 'I' for Inactive)
    1  A    between atoms: N_10  and  C_24
    2  A    between atoms: C_11  and  C_27
    3  A    between atoms: N_16  and  C_27
                            x       y       z     vdW  Elec       q    Type
                         _______ _______ _______ _____ _____    ______ ____

>  <TORSDO>
F 3

$$$$
=
 OpenBabel10272413233D

 32 36  0  0  1  0  0  0  0  0999 V2000
  193.0920  176.5130  139.0880 C   0  0  0  0  0  3  0  0  0  0  0  0
  188.1560  178.8030  139.8160 C   0  0  0  0  0  3  0  0  0  0  0  0
  188.8420  176.9200  145.4640 C   0  0  0  0  0  3  0  0  0  0  0  0
  187.5250  177.4190  145.5760 C   0  0  0  0  0  3  0  0  0  0  0  0
  190.0860  177.4530  138.9500 C   0  0  0  0  0  0  0  0  0  0  0  0
  190.5720  177.4870  141.3560 N   0  0  0  0  0  0  0  0  0  0  0  0
  192.4400  177.2700  139.9650 C   0  0  0  0  0  3  0  0  0  0  0  0
  189.5220  176.9600  144.2330 C   0  0  0  0  0  3  0  0  0  0  0  0
  189.2410  177.6870  141.8370 C   0  0  0  0  0  0  0  0  0  0  0  0
  188.8430  177.4980  143.1420 C   0  0  0  0  0  0  0  0  0  0  0  0
  187.1580  178.5000  142.0680 N   0  0  0  0  0  0  0  0  0  0  0  0
  191.3090  175.7260  137.5560 C   0  0  0  0  0  3  0  0  0  0  0  0
  190.9890  177.3800  140.1290 C   0  0  0  0  0  0  0  0  0  0  0  0
  190.2700  176.7240  137.8500 C   0  0  0  0  0  3  0  0  0  0  0  0
  192.5260  175.5930  138.0920 C   0  0  0  0  0  0  0  0  0  0  0  0
  186.8710  177.9680  144.4570 C   0  0  0  0  0  3  0  0  0  0  0  0
  187.5660  177.9900  143.2470 C   0  0  0  0  0  0  0  0  0  0  0  0
  188.9800  178.4160  138.8480 C   0  0  0  0  0  3  0  0  0  0  0  0
  188.1820  178.3200  141.1970 C   0  0  0  0  0  0  0  0  0  0  0  0
  194.6040  174.7310  136.8410 C   0  0  0  0  0  0  0  0  0  0  0  0
  193.4080  174.5660  137.6160 N   0  0  0  0  0  2  0  0  0  0  0  0
  194.9840  175.8680  136.4550 O   0  0  0  0  0  0  0  0  0  0  0  0
  195.5680  173.2930  136.4070 S   0  0  0  0  0  1  0  0  0  0  0  0
  185.8810  179.1530  141.7960 C   0  0  0  0  0  2  0  0  0  0  0  0
  183.1160  178.7230  142.0190 O   0  0  0  0  0  1  0  0  0  0  0  0
  182.9320  177.5630  139.8940 C   0  0  2  0  0  3  0  0  0  0  0  0
  185.1250  178.4140  140.6970 C   0  0  2  0  0  3  0  0  0  0  0  0
  184.6210  178.4110  138.4830 C   0  0  0  0  0  2  0  0  0  0  0  0
  183.7500  177.3130  138.7650 O   0  0  0  0  0  0  0  0  0  0  0  0
  181.8710  178.6190  139.5850 C   0  0  0  0  0  1  0  0  0  0  0  0
  184.9180  179.2460  139.5910 O   0  0  0  0  0  0  0  0  0  0  0  0
  183.7780  177.8470  141.1500 C   0  0  1  0  0  3  0  0  0  0  0  0
  1  7  1  0  0  0  0
  2 19  2  0  0  0  0
  3  4  1  0  0  0  0
  5 13  1  0  0  0  0
  6  9  2  0  0  0  0
  7 13  2  0  0  0  0
  8  3  2  0  0  0  0
  9 10  1  0  0  0  0
 10 17  2  0  0  0  0
 10  8  1  0  0  0  0
 11 17  1  0  0  0  0
 12 14  2  0  0  0  0
 12 15  1  0  0  0  0
 13  6  1  0  0  0  0
 14  5  1  0  0  0  0
 15  1  2  0  0  0  0
 16  4  2  0  0  0  0
 17 16  1  0  0  0  0
 18  5  2  0  0  0  0
 18  2  1  0  0  0  0
 19  9  1  0  0  0  0
 19 11  1  0  0  0  0
 20 21  1  0  0  0  0
 21 15  1  0  0  0  0
 22 20  2  0  0  0  0
 23 20  1  0  0  0  0
 24 11  1  0  0  0  0
 26 30  1  6  0  0  0
 26 32  1  0  0  0  0
 27 32  1  0  0  0  0
 27 24  1  1  0  0  0
 28 29  1  0  0  0  0
 28 31  1  0  0  0  0
 29 26  1  0  0  0  0
 31 27  1  0  0  0  0
 32 25  1  1  0  0  0
M  END
>  <MODEL>
2

>  <REMARK>
 VINA RESULT:      -8.5      2.332      3.267
  Name = 
  3 active torsions:
  status: ('A' for Active; 'I' for Inactive)
    1  A    between atoms: N_10  and  C_24
    2  A    between atoms: C_11  and  C_27
    3  A    between atoms: N_16  and  C_27
                            x       y       z     vdW  Elec       q    Type
                         _______ _______ _______ _____ _____    ______ ____

>  <TORSDO>
F 3

$$$$
=
 OpenBabel10272413233D

 32 36  0  0  1  0  0  0  0  0999 V2000
  191.2920  176.8420  139.1920 C   0  0  0  0  0  3  0  0  0  0  0  0
  186.0950  178.6110  139.2170 C   0  0  0  0  0  3  0  0  0  0  0  0
  186.5730  177.9030  145.1500 C   0  0  0  0  0  3  0  0  0  0  0  0
  185.2060  178.2510  145.0970 C   0  0  0  0  0  3  0  0  0  0  0  0
  188.2190  177.3680  138.7260 C   0  0  0  0  0  0  0  0  0  0  0  0
  188.5230  177.9060  141.1010 N   0  0  0  0  0  0  0  0  0  0  0  0
  190.4990  177.6630  139.8730 C   0  0  0  0  0  3  0  0  0  0  0  0
  187.3320  177.7970  143.9700 C   0  0  0  0  0  3  0  0  0  0  0  0
  187.1470  178.0280  141.4670 C   0  0  0  0  0  0  0  0  0  0  0  0
  186.6790  178.0370  142.7630 C   0  0  0  0  0  0  0  0  0  0  0  0
  184.9760  178.6120  141.4330 N   0  0  0  0  0  0  0  0  0  0  0  0
  189.7210  175.5750  137.7530 C   0  0  0  0  0  3  0  0  0  0  0  0
  189.0360  177.6250  139.9400 C   0  0  0  0  0  0  0  0  0  0  0  0
  188.5610  176.4760  137.7970 C   0  0  0  0  0  3  0  0  0  0  0  0
  190.9040  175.6920  138.3650 C   0  0  0  0  0  0  0  0  0  0  0  0
  184.5780  178.5000  143.8630 C   0  0  0  0  0  3  0  0  0  0  0  0
  185.3520  178.3820  142.7070 C   0  0  0  0  0  0  0  0  0  0  0  0
  187.0240  178.1540  138.3850 C   0  0  0  0  0  3  0  0  0  0  0  0
  186.0740  178.3990  140.6650 C   0  0  0  0  0  0  0  0  0  0  0  0
  193.0800  174.8260  137.2970 C   0  0  0  0  0  0  0  0  0  0  0  0
  191.9250  174.7090  138.1400 N   0  0  0  0  0  2  0  0  0  0  0  0
  193.2860  175.8580  136.6060 O   0  0  0  0  0  0  0  0  0  0  0  0
  194.2430  173.4740  137.2170 S   0  0  0  0  0  1  0  0  0  0  0  0
  183.6580  179.0430  140.9760 C   0  0  0  0  0  2  0  0  0  0  0  0
  180.9920  179.4020  140.1730 O   0  0  0  0  0  1  0  0  0  0  0  0
  180.5480  177.0280  139.9240 C   0  0  2  0  0  3  0  0  0  0  0  0
  182.7810  177.8380  140.6570 C   0  0  2  0  0  3  0  0  0  0  0  0
  182.5870  175.9880  139.3540 C   0  0  0  0  0  2  0  0  0  0  0  0
  181.2880  175.8210  139.9260 O   0  0  0  0  0  0  0  0  0  0  0  0
  180.1220  177.4140  138.5070 C   0  0  0  0  0  1  0  0  0  0  0  0
  183.1000  177.3110  139.4000 O   0  0  0  0  0  0  0  0  0  0  0  0
  181.2810  178.1380  140.7020 C   0  0  1  0  0  3  0  0  0  0  0  0
  1  7  1  0  0  0  0
  2 19  2  0  0  0  0
  4  3  1  0  0  0  0
  5 13  1  0  0  0  0
  6  9  2  0  0  0  0
  7 13  2  0  0  0  0
  8  3  2  0  0  0  0
  9 10  1  0  0  0  0
 10  8  1  0  0  0  0
 11 17  1  0  0  0  0
 12 14  2  0  0  0  0
 12 15  1  0  0  0  0
 13  6  1  0  0  0  0
 14  5  1  0  0  0  0
 15  1  2  0  0  0  0
 16  4  2  0  0  0  0
 17 10  2  0  0  0  0
 17 16  1  0  0  0  0
 18  5  2  0  0  0  0
 18  2  1  0  0  0  0
 19 11  1  0  0  0  0
 19  9  1  0  0  0  0
 20 21  1  0  0  0  0
 21 15  1  0  0  0  0
 22 20  2  0  0  0  0
 23 20  1  0  0  0  0
 24 11  1  0  0  0  0
 26 30  1  6  0  0  0
 26 29  1  0  0  0  0
 26 32  1  0  0  0  0
 27 32  1  0  0  0  0
 27 24  1  6  0  0  0
 28 31  1  0  0  0  0
 28 29  1  0  0  0  0
 31 27  1  0  0  0  0
 32 25  1  6  0  0  0
M  END
>  <MODEL>
3

>  <REMARK>
 VINA RESULT:      -8.1      3.257      4.584
  Name = 
  3 active torsions:
  status: ('A' for Active; 'I' for Inactive)
    1  A    between atoms: N_10  and  C_24
    2  A    between atoms: C_11  and  C_27
    3  A    between atoms: N_16  and  C_27
                            x       y       z     vdW  Elec       q    Type
                         _______ _______ _______ _____ _____    ______ ____

>  <TORSDO>
F 3

$$$$
=
 OpenBabel10272413233D

 32 36  0  0  1  0  0  0  0  0999 V2000
  188.3770  178.2090  142.4160 C   0  0  0  0  0  3  0  0  0  0  0  0
  192.5930  177.0060  139.1130 C   0  0  0  0  0  3  0  0  0  0  0  0
  188.3780  174.3400  135.7890 C   0  0  0  0  0  3  0  0  0  0  0  0
  189.5060  173.9560  135.0310 C   0  0  0  0  0  3  0  0  0  0  0  0
  191.0900  177.2860  141.1020 C   0  0  0  0  0  0  0  0  0  0  0  0
  189.4490  176.9090  139.3160 N   0  0  0  0  0  0  0  0  0  0  0  0
  188.6820  178.1830  141.1230 C   0  0  0  0  0  3  0  0  0  0  0  0
  188.5280  175.1000  136.9630 C   0  0  0  0  0  3  0  0  0  0  0  0
  190.2830  176.1800  138.4140 C   0  0  0  0  0  0  0  0  0  0  0  0
  189.8230  175.4430  137.3450 C   0  0  0  0  0  0  0  0  0  0  0  0
  192.0480  175.5750  137.1590 N   0  0  0  0  0  0  0  0  0  0  0  0
  190.2740  177.0240  143.4860 C   0  0  0  0  0  3  0  0  0  0  0  0
  189.7450  177.4060  140.4810 C   0  0  0  0  0  0  0  0  0  0  0  0
  191.2720  177.1320  142.4130 C   0  0  0  0  0  3  0  0  0  0  0  0
  189.0080  177.4540  143.5080 C   0  0  0  0  0  0  0  0  0  0  0  0
  190.8010  174.3290  135.4370 C   0  0  0  0  0  3  0  0  0  0  0  0
  190.9220  175.0770  136.6090 C   0  0  0  0  0  0  0  0  0  0  0  0
  192.3390  177.4400  140.3420 C   0  0  0  0  0  3  0  0  0  0  0  0
  191.6630  176.2560  138.2670 C   0  0  0  0  0  0  0  0  0  0  0  0
  188.5860  177.5980  146.0430 C   0  0  0  0  0  0  0  0  0  0  0  0
  188.2160  177.2860  144.6930 N   0  0  0  0  0  2  0  0  0  0  0  0
  189.7320  178.0380  146.3240 O   0  0  0  0  0  0  0  0  0  0  0  0
  187.4010  177.3440  147.3540 S   0  0  0  0  0  1  0  0  0  0  0  0
  193.4060  175.4410  136.6410 C   0  0  0  0  0  2  0  0  0  0  0  0
  195.0000  173.5010  135.3850 O   0  0  0  0  0  1  0  0  0  0  0  0
  195.7740  172.5160  137.4640 C   0  0  2  0  0  3  0  0  0  0  0  0
  194.1990  174.4390  137.4730 C   0  0  2  0  0  3  0  0  0  0  0  0
  195.7770  174.2230  139.0920 C   0  0  0  0  0  2  0  0  0  0  0  0
  195.7180  172.8160  138.8470 O   0  0  0  0  0  0  0  0  0  0  0  0
  197.1660  172.7860  136.8950 C   0  0  0  0  0  1  0  0  0  0  0  0
  195.3400  175.0400  138.0170 O   0  0  0  0  0  0  0  0  0  0  0  0
  194.6200  173.1900  136.6960 C   0  0  1  0  0  3  0  0  0  0  0  0
  1 15  1  0  0  0  0
  2 18  2  0  0  0  0
  3  8  1  0  0  0  0
  4 16  1  0  0  0  0
  4  3  2  0  0  0  0
  5 14  2  0  0  0  0
  6 13  2  0  0  0  0
  7  1  2  0  0  0  0
  8 10  2  0  0  0  0
  9  6  1  0  0  0  0
 10  9  1  0  0  0  0
 11 19  1  0  0  0  0
 12 15  2  0  0  0  0
 13  5  1  0  0  0  0
 13  7  1  0  0  0  0
 14 12  1  0  0  0  0
 15 21  1  0  0  0  0
 16 17  2  0  0  0  0
 17 11  1  0  0  0  0
 17 10  1  0  0  0  0
 18  5  1  0  0  0  0
 19  9  2  0  0  0  0
 19  2  1  0  0  0  0
 20 22  2  0  0  0  0
 20 23  1  0  0  0  0
 21 20  1  0  0  0  0
 24 11  1  0  0  0  0
 26 30  1  6  0  0  0
 26 29  1  0  0  0  0
 27 24  1  6  0  0  0
 27 31  1  0  0  0  0
 29 28  1  0  0  0  0
 31 28  1  0  0  0  0
 32 25  1  6  0  0  0
 32 26  1  0  0  0  0
 32 27  1  0  0  0  0
M  END
>  <MODEL>
4

>  <REMARK>
 VINA RESULT:      -7.8      3.640      9.717
  Name = 
  3 active torsions:
  status: ('A' for Active; 'I' for Inactive)
    1  A    between atoms: N_10  and  C_24
    2  A    between atoms: C_11  and  C_27
    3  A    between atoms: N_16  and  C_27
                            x       y       z     vdW  Elec       q    Type
                         _______ _______ _______ _____ _____    ______ ____

>  <TORSDO>
F 3

$$$$
=
 OpenBabel10272413233D

 32 36  0  0  1  0  0  0  0  0999 V2000
  191.9900  175.0070  137.1490 C   0  0  0  0  0  3  0  0  0  0  0  0
  188.0570  178.3280  139.0570 C   0  0  0  0  0  3  0  0  0  0  0  0
  189.9090  176.3680  144.4090 C   0  0  0  0  0  3  0  0  0  0  0  0
  188.8130  177.1440  144.8470 C   0  0  0  0  0  3  0  0  0  0  0  0
  189.3350  176.5830  137.7850 C   0  0  0  0  0  0  0  0  0  0  0  0
  190.4800  176.5210  139.9550 N   0  0  0  0  0  0  0  0  0  0  0  0
  191.7880  175.8920  138.1200 C   0  0  0  0  0  3  0  0  0  0  0  0
  190.2040  176.2510  143.0390 C   0  0  0  0  0  3  0  0  0  0  0  0
  189.4130  177.0100  140.7700 C   0  0  0  0  0  0  0  0  0  0  0  0
  189.3720  176.9200  142.1440 C   0  0  0  0  0  0  0  0  0  0  0  0
  187.6990  178.2630  141.5130 N   0  0  0  0  0  0  0  0  0  0  0  0
  189.7220  174.6230  136.2260 C   0  0  0  0  0  3  0  0  0  0  0  0
  190.4990  176.3200  138.6710 C   0  0  0  0  0  0  0  0  0  0  0  0
  189.0420  175.8260  136.7280 C   0  0  0  0  0  3  0  0  0  0  0  0
  190.9850  174.2280  136.4130 C   0  0  0  0  0  0  0  0  0  0  0  0
  187.9990  177.8180  143.9180 C   0  0  0  0  0  3  0  0  0  0  0  0
  188.3100  177.6810  142.5640 C   0  0  0  0  0  0  0  0  0  0  0  0
  188.4720  177.7640  137.9280 C   0  0  0  0  0  3  0  0  0  0  0  0
  188.3730  177.8570  140.4070 C   0  0  0  0  0  0  0  0  0  0  0  0
  192.6940  172.3420  136.0310 C   0  0  0  0  0  0  0  0  0  0  0  0
  191.4600  173.0300  135.7820 N   0  0  0  0  0  2  0  0  0  0  0  0
  193.5380  172.7840  136.8540 O   0  0  0  0  0  0  0  0  0  0  0  0
  193.0450  170.8310  135.1480 S   0  0  0  0  0  1  0  0  0  0  0  0
  186.5640  179.1790  141.5600 C   0  0  0  0  0  2  0  0  0  0  0  0
  184.0930  178.6290  142.7740 O   0  0  0  0  0  1  0  0  0  0  0  0
  183.0340  177.8850  140.7200 C   0  0  2  0  0  3  0  0  0  0  0  0
  185.4030  178.6360  140.7330 C   0  0  2  0  0  3  0  0  0  0  0  0
  184.0700  179.0340  138.9390 C   0  0  0  0  0  2  0  0  0  0  0  0
  183.3300  177.8770  139.3350 O   0  0  0  0  0  0  0  0  0  0  0  0
  181.9870  178.9460  141.0560 C   0  0  0  0  0  1  0  0  0  0  0  0
  184.8160  179.6550  139.9740 O   0  0  0  0  0  0  0  0  0  0  0  0
  184.3190  177.9530  141.5690 C   0  0  1  0  0  3  0  0  0  0  0  0
  1  7  1  0  0  0  0
  2 19  2  0  0  0  0
  3  4  1  0  0  0  0
  5 18  2  0  0  0  0
  5 13  1  0  0  0  0
  6  9  2  0  0  0  0
  7 13  2  0  0  0  0
  8  3  2  0  0  0  0
  9 10  1  0  0  0  0
 10 17  2  0  0  0  0
 10  8  1  0  0  0  0
 11 24  1  0  0  0  0
 11 17  1  0  0  0  0
 12 15  1  0  0  0  0
 12 14  2  0  0  0  0
 13  6  1  0  0  0  0
 14  5  1  0  0  0  0
 15  1  2  0  0  0  0
 16  4  2  0  0  0  0
 17 16  1  0  0  0  0
 18  2  1  0  0  0  0
 19  9  1  0  0  0  0
 19 11  1  0  0  0  0
 20 22  2  0  0  0  0
 21 20  1  0  0  0  0
 21 15  1  0  0  0  0
 23 20  1  0  0  0  0
 26 30  1  6  0  0  0
 26 32  1  0  0  0  0
 27 24  1  1  0  0  0
 27 32  1  0  0  0  0
 28 29  1  0  0  0  0
 28 31  1  0  0  0  0
 29 26  1  0  0  0  0
 31 27  1  0  0  0  0
 32 25  1  1  0  0  0
M  END
>  <MODEL>
5

>  <REMARK>
 VINA RESULT:      -7.7      2.674      3.609
  Name = 
  3 active torsions:
  status: ('A' for Active; 'I' for Inactive)
    1  A    between atoms: N_10  and  C_24
    2  A    between atoms: C_11  and  C_27
    3  A    between atoms: N_16  and  C_27
                            x       y       z     vdW  Elec       q    Type
                         _______ _______ _______ _____ _____    ______ ____

>  <TORSDO>
F 3

$$$$
=
 OpenBabel10272413233D

 32 36  0  0  1  0  0  0  0  0999 V2000
  190.8460  178.2780  144.3610 C   0  0  0  0  0  3  0  0  0  0  0  0
  188.7570  178.2170  139.2850 C   0  0  0  0  0  3  0  0  0  0  0  0
  183.5220  178.8290  142.1380 C   0  0  0  0  0  3  0  0  0  0  0  0
  183.0220  178.6920  140.8250 C   0  0  0  0  0  3  0  0  0  0  0  0
  190.0300  177.6710  141.3780 C   0  0  0  0  0  0  0  0  0  0  0  0
  188.0110  178.7130  142.3080 N   0  0  0  0  0  0  0  0  0  0  0  0
  189.9320  178.9060  143.6290 C   0  0  0  0  0  3  0  0  0  0  0  0
  184.9040  178.7580  142.3890 C   0  0  0  0  0  3  0  0  0  0  0  0
  187.1170  178.4430  141.2250 C   0  0  0  0  0  0  0  0  0  0  0  0
  185.7450  178.5410  141.3000 C   0  0  0  0  0  0  0  0  0  0  0  0
  186.2790  178.2650  139.1470 N   0  0  0  0  0  0  0  0  0  0  0  0
  191.4630  176.3200  142.9710 C   0  0  0  0  0  3  0  0  0  0  0  0
  189.2690  178.4040  142.4230 C   0  0  0  0  0  0  0  0  0  0  0  0
  190.9820  176.7830  141.6620 C   0  0  0  0  0  3  0  0  0  0  0  0
  191.3960  176.9310  144.1590 C   0  0  0  0  0  0  0  0  0  0  0  0
  183.8980  178.4860  139.7430 C   0  0  0  0  0  3  0  0  0  0  0  0
  185.2640  178.4140  140.0210 C   0  0  0  0  0  0  0  0  0  0  0  0
  189.8800  177.9430  139.9410 C   0  0  0  0  0  3  0  0  0  0  0  0
  187.4210  178.2840  139.8790 C   0  0  0  0  0  0  0  0  0  0  0  0
  191.4650  176.2970  146.6530 C   0  0  0  0  0  0  0  0  0  0  0  0
  191.9820  176.3140  145.3150 N   0  0  0  0  0  2  0  0  0  0  0  0
  190.3990  176.8970  146.9530 O   0  0  0  0  0  0  0  0  0  0  0  0
  192.3570  175.4140  147.9220 S   0  0  0  0  0  1  0  0  0  0  0  0
  186.1710  178.1470  137.6960 C   0  0  0  0  0  2  0  0  0  0  0  0
  184.0320  176.9710  136.3090 O   0  0  0  0  0  1  0  0  0  0  0  0
  185.0990  174.7980  136.1220 C   0  0  2  0  0  3  0  0  0  0  0  0
  186.2400  176.6840  137.2710 C   0  0  2  0  0  3  0  0  0  0  0  0
  187.4300  175.1620  136.0780 C   0  0  0  0  0  2  0  0  0  0  0  0
  186.3770  174.2370  136.3620 O   0  0  0  0  0  0  0  0  0  0  0  0
  184.8450  174.9740  134.6250 C   0  0  0  0  0  1  0  0  0  0  0  0
  187.0650  176.5310  136.1510 O   0  0  0  0  0  0  0  0  0  0  0  0
  184.8730  176.0660  136.9690 C   0  0  1  0  0  3  0  0  0  0  0  0
  2 19  1  0  0  0  0
  2 18  2  0  0  0  0
  3  8  1  0  0  0  0
  4  3  2  0  0  0  0
  5 14  2  0  0  0  0
  5 13  1  0  0  0  0
  6 13  2  0  0  0  0
  7  1  2  0  0  0  0
  9 10  1  0  0  0  0
  9  6  1  0  0  0  0
 10  8  2  0  0  0  0
 11 19  1  0  0  0  0
 11 17  1  0  0  0  0
 12 15  2  0  0  0  0
 13  7  1  0  0  0  0
 14 12  1  0  0  0  0
 15  1  1  0  0  0  0
 15 21  1  0  0  0  0
 16 17  2  0  0  0  0
 16  4  1  0  0  0  0
 17 10  1  0  0  0  0
 18  5  1  0  0  0  0
 19  9  2  0  0  0  0
 20 22  2  0  0  0  0
 20 23  1  0  0  0  0
 21 20  1  0  0  0  0
 24 11  1  0  0  0  0
 26 30  1  6  0  0  0
 26 29  1  0  0  0  0
 26 32  1  0  0  0  0
 27 24  1  6  0  0  0
 28 31  1  0  0  0  0
 28 29  1  0  0  0  0
 31 27  1  0  0  0  0
 32 25  1  6  0  0  0
 32 27  1  0  0  0  0
M  END
>  <MODEL>
6

>  <REMARK>
 VINA RESULT:      -7.4      4.347      7.303
  Name = 
  3 active torsions:
  status: ('A' for Active; 'I' for Inactive)
    1  A    between atoms: N_10  and  C_24
    2  A    between atoms: C_11  and  C_27
    3  A    between atoms: N_16  and  C_27
                            x       y       z     vdW  Elec       q    Type
                         _______ _______ _______ _____ _____    ______ ____

>  <TORSDO>
F 3

$$$$
=
 OpenBabel10272413233D

 32 36  0  0  1  0  0  0  0  0999 V2000
  190.5590  175.8100  144.2050 C   0  0  0  0  0  3  0  0  0  0  0  0
  188.3170  178.4130  139.9230 C   0  0  0  0  0  3  0  0  0  0  0  0
  192.2130  175.1550  136.7400 C   0  0  0  0  0  3  0  0  0  0  0  0
  191.6880  175.9310  135.6840 C   0  0  0  0  0  3  0  0  0  0  0  0
  189.3990  177.8710  142.1220 C   0  0  0  0  0  0  0  0  0  0  0  0
  190.3000  176.0870  140.6980 N   0  0  0  0  0  0  0  0  0  0  0  0
  190.1330  175.5600  142.9710 C   0  0  0  0  0  3  0  0  0  0  0  0
  191.7730  175.3520  138.0610 C   0  0  0  0  0  3  0  0  0  0  0  0
  190.1880  176.7480  139.4350 C   0  0  0  0  0  0  0  0  0  0  0  0
  190.8160  176.3400  138.2790 C   0  0  0  0  0  0  0  0  0  0  0  0
  189.3550  177.9370  137.7180 N   0  0  0  0  0  0  0  0  0  0  0  0
  190.5750  178.2860  144.3270 C   0  0  0  0  0  3  0  0  0  0  0  0
  189.9760  176.5240  141.8790 C   0  0  0  0  0  0  0  0  0  0  0  0
  189.6780  178.5960  143.2040 C   0  0  0  0  0  3  0  0  0  0  0  0
  190.9950  177.0950  144.7670 C   0  0  0  0  0  0  0  0  0  0  0  0
  190.7120  176.9130  135.9340 C   0  0  0  0  0  3  0  0  0  0  0  0
  190.2970  177.0920  137.2550 C   0  0  0  0  0  0  0  0  0  0  0  0
  188.3820  178.4750  141.2480 C   0  0  0  0  0  3  0  0  0  0  0  0
  189.2800  177.7300  139.0570 C   0  0  0  0  0  0  0  0  0  0  0  0
  191.4870  176.5420  147.2320 C   0  0  0  0  0  0  0  0  0  0  0  0
  191.8390  177.0180  145.9250 N   0  0  0  0  0  2  0  0  0  0  0  0
  190.3160  176.1640  147.5000 O   0  0  0  0  0  0  0  0  0  0  0  0
  192.7330  176.4980  148.5100 S   0  0  0  0  0  1  0  0  0  0  0  0
  188.5470  178.8620  136.9290 C   0  0  0  0  0  2  0  0  0  0  0  0
  188.0660  177.8630  134.3500 O   0  0  0  0  0  1  0  0  0  0  0  0
  185.8030  177.1370  134.8470 C   0  0  2  0  0  3  0  0  0  0  0  0
  187.2000  178.2360  136.5840 C   0  0  2  0  0  3  0  0  0  0  0  0
  185.7250  176.6030  137.1430 C   0  0  0  0  0  2  0  0  0  0  0  0
  184.9780  176.9950  135.9890 O   0  0  0  0  0  0  0  0  0  0  0  0
  186.2940  175.7780  134.3460 C   0  0  0  0  0  1  0  0  0  0  0  0
  187.1020  176.9450  137.1140 O   0  0  0  0  0  0  0  0  0  0  0  0
  186.9150  178.1780  135.0810 C   0  0  1  0  0  3  0  0  0  0  0  0
  1 15  1  0  0  0  0
  2 18  2  0  0  0  0
  3  8  1  0  0  0  0
  4 16  1  0  0  0  0
  4  3  2  0  0  0  0
  5 14  2  0  0  0  0
  6 13  2  0  0  0  0
  7  1  2  0  0  0  0
  8 10  2  0  0  0  0
  9  6  1  0  0  0  0
 10  9  1  0  0  0  0
 11 19  1  0  0  0  0
 12 15  2  0  0  0  0
 13  5  1  0  0  0  0
 13  7  1  0  0  0  0
 14 12  1  0  0  0  0
 15 21  1  0  0  0  0
 16 17  2  0  0  0  0
 17 11  1  0  0  0  0
 17 10  1  0  0  0  0
 18  5  1  0  0  0  0
 19  9  2  0  0  0  0
 19  2  1  0  0  0  0
 20 22  2  0  0  0  0
 20 23  1  0  0  0  0
 21 20  1  0  0  0  0
 24 11  1  0  0  0  0
 26 30  1  1  0  0  0
 26 32  1  0  0  0  0
 26 29  1  0  0  0  0
 27 24  1  6  0  0  0
 27 31  1  0  0  0  0
 29 28  1  0  0  0  0
 31 28  1  0  0  0  0
 32 25  1  6  0  0  0
 32 27  1  0  0  0  0
M  END
>  <MODEL>
7

>  <REMARK>
 VINA RESULT:      -7.3      4.282      7.768
  Name = 
  3 active torsions:
  status: ('A' for Active; 'I' for Inactive)
    1  A    between atoms: N_10  and  C_24
    2  A    between atoms: C_11  and  C_27
    3  A    between atoms: N_16  and  C_27
                            x       y       z     vdW  Elec       q    Type
                         _______ _______ _______ _____ _____    ______ ____

>  <TORSDO>
F 3

$$$$
=
 OpenBabel10272413233D

 32 36  0  0  1  0  0  0  0  0999 V2000
  188.9490  178.4360  142.7380 C   0  0  0  0  0  3  0  0  0  0  0  0
  189.6900  177.3340  137.4110 C   0  0  0  0  0  3  0  0  0  0  0  0
  183.7100  177.6590  137.1840 C   0  0  0  0  0  3  0  0  0  0  0  0
  183.9420  177.2610  135.8490 C   0  0  0  0  0  3  0  0  0  0  0  0
  189.7630  177.2840  139.9190 C   0  0  0  0  0  0  0  0  0  0  0  0
  187.5090  178.1730  139.5270 N   0  0  0  0  0  0  0  0  0  0  0  0
  188.4990  178.8190  141.5470 C   0  0  0  0  0  3  0  0  0  0  0  0
  184.7820  177.8130  138.0820 C   0  0  0  0  0  3  0  0  0  0  0  0
  187.2910  177.6270  138.2250 C   0  0  0  0  0  0  0  0  0  0  0  0
  186.0630  177.5500  137.6050 C   0  0  0  0  0  0  0  0  0  0  0  0
  187.6160  177.0280  136.0820 N   0  0  0  0  0  0  0  0  0  0  0  0
  190.2600  176.3920  142.2380 C   0  0  0  0  0  3  0  0  0  0  0  0
  188.5520  178.0570  140.2960 C   0  0  0  0  0  0  0  0  0  0  0  0
  190.4810  176.5840  140.7970 C   0  0  0  0  0  3  0  0  0  0  0  0
  189.5810  177.1590  143.0970 C   0  0  0  0  0  0  0  0  0  0  0  0
  185.2500  177.0150  135.3930 C   0  0  0  0  0  3  0  0  0  0  0  0
  186.2940  177.1690  136.3060 C   0  0  0  0  0  0  0  0  0  0  0  0
  190.3430  177.3140  138.5680 C   0  0  0  0  0  3  0  0  0  0  0  0
  188.2350  177.3100  137.2560 C   0  0  0  0  0  0  0  0  0  0  0  0
  190.5210  177.0810  145.4920 C   0  0  0  0  0  0  0  0  0  0  0  0
  189.5340  176.8070  144.4870 N   0  0  0  0  0  2  0  0  0  0  0  0
  191.6020  177.6600  145.2090 O   0  0  0  0  0  0  0  0  0  0  0  0
  190.2120  176.5810  147.1780 S   0  0  0  0  0  1  0  0  0  0  0  0
  188.2540  176.6800  134.8170 C   0  0  0  0  0  2  0  0  0  0  0  0
  190.8650  175.6550  134.9490 O   0  0  0  0  0  1  0  0  0  0  0  0
  190.1680  173.3380  134.7540 C   0  0  2  0  0  3  0  0  0  0  0  0
  188.4970  175.1770  134.7340 C   0  0  2  0  0  3  0  0  0  0  0  0
  188.0060  173.1730  135.6830 C   0  0  0  0  0  2  0  0  0  0  0  0
  188.9570  172.6050  134.7790 O   0  0  0  0  0  0  0  0  0  0  0  0
  190.9530  173.1530  136.0520 C   0  0  0  0  0  1  0  0  0  0  0  0
  188.1790  174.5560  135.9480 O   0  0  0  0  0  0  0  0  0  0  0  0
  189.9300  174.8050  134.3470 C   0  0  1  0  0  3  0  0  0  0  0  0
  1 15  1  0  0  0  0
  2 18  2  0  0  0  0
  3  8  1  0  0  0  0
  4  3  2  0  0  0  0
  5 13  1  0  0  0  0
  5 14  2  0  0  0  0
  6 13  2  0  0  0  0
  7  1  2  0  0  0  0
  9  6  1  0  0  0  0
 10  8  2  0  0  0  0
 10  9  1  0  0  0  0
 11 17  1  0  0  0  0
 11 19  1  0  0  0  0
 12 15  2  0  0  0  0
 13  7  1  0  0  0  0
 14 12  1  0  0  0  0
 15 21  1  0  0  0  0
 16  4  1  0  0  0  0
 16 17  2  0  0  0  0
 17 10  1  0  0  0  0
 18  5  1  0  0  0  0
 19  2  1  0  0  0  0
 19  9  2  0  0  0  0
 20 23  1  0  0  0  0
 21 20  1  0  0  0  0
 22 20  2  0  0  0  0
 24 11  1  0  0  0  0
 26 29  1  0  0  0  0
 26 30  1  1  0  0  0
 27 24  1  1  0  0  0
 27 31  1  0  0  0  0
 28 31  1  0  0  0  0
 29 28  1  0  0  0  0
 32 27  1  0  0  0  0
 32 26  1  0  0  0  0
 32 25  1  1  0  0  0
M  END
>  <MODEL>
8

>  <REMARK>
 VINA RESULT:      -7.1      4.901      8.858
  Name = 
  3 active torsions:
  status: ('A' for Active; 'I' for Inactive)
    1  A    between atoms: N_10  and  C_24
    2  A    between atoms: C_11  and  C_27
    3  A    between atoms: N_16  and  C_27
                            x       y       z     vdW  Elec       q    Type
                         _______ _______ _______ _____ _____    ______ ____

>  <TORSDO>
F 3

$$$$
=
 OpenBabel10272413233D

 32 36  0  0  1  0  0  0  0  0999 V2000
  183.7790  175.5630  134.5960 C   0  0  0  0  0  3  0  0  0  0  0  0
  186.8460  178.0810  138.3900 C   0  0  0  0  0  3  0  0  0  0  0  0
  191.0530  174.1950  136.6230 C   0  0  0  0  0  3  0  0  0  0  0  0
  191.7640  174.7930  137.6860 C   0  0  0  0  0  3  0  0  0  0  0  0
  184.9960  176.8890  137.1850 C   0  0  0  0  0  0  0  0  0  0  0  0
  186.9690  175.9780  136.0440 N   0  0  0  0  0  0  0  0  0  0  0  0
  185.0120  176.0300  134.7630 C   0  0  0  0  0  3  0  0  0  0  0  0
  189.7340  174.5870  136.3320 C   0  0  0  0  0  3  0  0  0  0  0  0
  187.9240  176.1680  137.0910 C   0  0  0  0  0  0  0  0  0  0  0  0
  189.1650  175.5730  137.1360 C   0  0  0  0  0  0  0  0  0  0  0  0
  189.1050  177.1170  138.7510 N   0  0  0  0  0  0  0  0  0  0  0  0
  182.8130  175.6390  136.8780 C   0  0  0  0  0  3  0  0  0  0  0  0
  185.7020  176.2700  136.0330 C   0  0  0  0  0  0  0  0  0  0  0  0
  183.7370  176.5930  137.5080 C   0  0  0  0  0  3  0  0  0  0  0  0
  182.8200  175.1550  135.6320 C   0  0  0  0  0  0  0  0  0  0  0  0
  191.1660  175.7960  138.4720 C   0  0  0  0  0  3  0  0  0  0  0  0
  189.8540  176.1620  138.1660 C   0  0  0  0  0  0  0  0  0  0  0  0
  185.5820  177.9640  137.9980 C   0  0  0  0  0  3  0  0  0  0  0  0
  187.9180  177.1290  138.0950 C   0  0  0  0  0  0  0  0  0  0  0  0
  181.7260  172.8390  135.3820 C   0  0  0  0  0  0  0  0  0  0  0  0
  181.7810  174.2620  135.2060 N   0  0  0  0  0  2  0  0  0  0  0  0
  182.6690  172.2080  135.9270 O   0  0  0  0  0  0  0  0  0  0  0  0
  180.2940  171.9430  134.8040 S   0  0  0  0  0  1  0  0  0  0  0  0
  189.5080  177.9930  139.8480 C   0  0  0  0  0  2  0  0  0  0  0  0
  191.3840  177.6640  141.9110 O   0  0  0  0  0  1  0  0  0  0  0  0
  189.7810  176.7330  143.4790 C   0  0  2  0  0  3  0  0  0  0  0  0
  189.0840  177.4010  141.1880 C   0  0  2  0  0  3  0  0  0  0  0  0
  187.6700  177.6430  142.9490 C   0  0  0  0  0  2  0  0  0  0  0  0
  188.3780  176.5620  143.5610 O   0  0  0  0  0  0  0  0  0  0  0  0
  190.2550  177.8600  144.3960 C   0  0  0  0  0  1  0  0  0  0  0  0
  188.3930  178.3490  141.9520 O   0  0  0  0  0  0  0  0  0  0  0  0
  190.2480  176.8510  142.0150 C   0  0  1  0  0  3  0  0  0  0  0  0
  1  7  2  0  0  0  0
  1 15  1  0  0  0  0
  3  4  1  0  0  0  0
  4 16  2  0  0  0  0
  5 14  2  0  0  0  0
  5 18  1  0  0  0  0
  6  9  1  0  0  0  0
  7 13  1  0  0  0  0
  8  3  2  0  0  0  0
  8 10  1  0  0  0  0
  9 10  1  0  0  0  0
  9 19  2  0  0  0  0
 10 17  2  0  0  0  0
 11 24  1  0  0  0  0
 12 14  1  0  0  0  0
 13  6  2  0  0  0  0
 13  5  1  0  0  0  0
 15 12  2  0  0  0  0
 17 16  1  0  0  0  0
 17 11  1  0  0  0  0
 18  2  2  0  0  0  0
 19  2  1  0  0  0  0
 19 11  1  0  0  0  0
 20 22  2  0  0  0  0
 21 20  1  0  0  0  0
 21 15  1  0  0  0  0
 23 20  1  0  0  0  0
 26 29  1  0  0  0  0
 26 30  1  1  0  0  0
 27 24  1  6  0  0  0
 27 31  1  0  0  0  0
 27 32  1  0  0  0  0
 28 29  1  0  0  0  0
 31 28  1  0  0  0  0
 32 25  1  1  0  0  0
 32 26  1  0  0  0  0
M  END
>  <MODEL>
9

>  <REMARK>
 VINA RESULT:      -7.1      5.851      8.449
  Name = 
  3 active torsions:
  status: ('A' for Active; 'I' for Inactive)
    1  A    between atoms: N_10  and  C_24
    2  A    between atoms: C_11  and  C_27
    3  A    between atoms: N_16  and  C_27
                            x       y       z     vdW  Elec       q    Type
                         _______ _______ _______ _____ _____    ______ ____

>  <TORSDO>
F 3

$$$$
