=
 OpenBabel10272414463D

 37 42  0  0  1  0  0  0  0  0999 V2000
  188.6200  179.4050  137.8510 O   0  0  0  0  0  1  0  0  0  0  0  0
  186.1840  178.3440  138.1230 N   0  0  1  0  0  0  0  0  0  0  0  0
  183.6810  178.2220  140.8370 O   0  0  0  0  0  0  0  0  0  0  0  0
  188.5630  177.0600  138.2430 C   0  0  0  0  0  2  0  0  0  0  0  0
  185.6460  178.0240  139.4760 C   0  0  2  0  0  3  0  0  0  0  0  0
  187.2240  177.4330  137.6430 C   0  0  1  0  0  0  0  0  0  0  0  0
  184.3280  178.7950  139.7390 C   0  0  1  0  0  3  0  0  0  0  0  0
  186.8620  177.1750  135.1260 C   0  0  0  0  0  1  0  0  0  0  0  0
  184.1540  176.8720  137.4710 C   0  0  0  0  0  2  0  0  0  0  0  0
  186.4510  176.7730  136.5370 C   0  0  2  0  0  3  0  0  0  0  0  0
  184.3540  178.7090  141.9680 C   0  0  1  0  0  3  0  0  0  0  0  0
  185.3590  177.7230  137.0230 C   0  0  2  0  0  3  0  0  0  0  0  0
  186.5360  178.4700  140.6680 C   0  0  1  0  0  3  0  0  0  0  0  0
  188.5010  178.1700  137.2100 C   0  0  1  0  0  3  0  0  0  0  0  0
  183.3800  179.0110  138.5540 C   0  0  1  0  0  3  0  0  0  0  0  0
  183.5910  178.2800  143.2080 C   0  0  0  0  0  1  0  0  0  0  0  0
  185.8120  178.1990  142.0110 C   0  0  1  0  0  3  0  0  0  0  0  0
  182.9530  177.7290  137.8500 C   0  0  0  0  0  2  0  0  0  0  0  0
  181.2840  179.5430  139.8690 C   0  0  0  0  0  3  0  0  0  0  0  0
  182.2220  179.8990  138.8870 C   0  0  0  0  0  0  0  0  0  0  0  0
  182.0940  181.1230  138.2200 C   0  0  0  0  0  3  0  0  0  0  0  0
  180.8810  183.5120  137.6850 Cl  0  0  0  0  0  0  0  0  0  0  0  0
  180.0990  181.6220  139.5000 C   0  0  0  0  0  3  0  0  0  0  0  0
  181.0340  181.9810  138.5240 C   0  0  0  0  0  0  0  0  0  0  0  0
  180.2250  180.4020  140.1730 C   0  0  0  0  0  3  0  0  0  0  0  0
  186.5610  178.8740  143.1530 C   0  0  0  0  0  2  0  0  0  0  0  0
  187.0760  177.8240  144.1430 C   0  0  1  0  0  3  0  0  0  0  0  0
  188.9460  177.0310  145.6700 C   0  0  0  0  0  1  0  0  0  0  0  0
  188.5420  177.9860  144.5590 C   0  0  0  0  0  2  0  0  0  0  0  0
  186.1990  177.5260  145.2140 O   0  0  0  0  0  0  0  0  0  0  0  0
  186.0880  178.7040  147.2810 C   0  0  0  0  0  2  0  0  0  0  0  0
  185.7560  178.7200  145.8040 C   0  0  0  0  0  3  0  0  0  0  0  0
  184.6800  178.3980  146.8210 C   0  0  0  0  0  2  0  0  0  0  0  0
  187.7710  177.8220  140.6910 O   0  0  0  0  0  0  0  0  0  0  0  0
  188.6900  178.8220  141.0250 C   0  0  0  0  0  2  0  0  0  0  0  0
  189.9570  178.1950  141.5650 C   0  0  0  0  0  2  0  0  0  0  0  0
  189.8410  176.6890  141.4950 C   0  0  0  0  0  1  0  0  0  0  0  0
  2  5  1  0  0  0  0
  3 11  1  0  0  0  0
  5  7  1  0  0  0  0
  5 13  1  0  0  0  0
  6  2  1  0  0  0  0
  6  4  1  0  0  0  0
  7  3  1  0  0  0  0
  8 10  1  0  0  0  0
  9 18  1  0  0  0  0
 10 12  1  0  0  0  0
 10  6  1  0  0  0  0
 11 17  1  0  0  0  0
 11 16  1  0  0  0  0
 12  9  1  0  0  0  0
 12  2  1  0  0  0  0
 13 34  1  0  0  0  0
 13 17  1  0  0  0  0
 14  6  1  0  0  0  0
 14  1  1  0  0  0  0
 14  4  1  0  0  0  0
 15 20  1  0  0  0  0
 15  7  1  0  0  0  0
 17 26  1  0  0  0  0
 18 15  1  0  0  0  0
 19 25  1  0  0  0  0
 20 19  2  0  0  0  0
 21 24  2  0  0  0  0
 21 20  1  0  0  0  0
 22 24  1  0  0  0  0
 23 25  2  0  0  0  0
 24 23  1  0  0  0  0
 26 27  1  0  0  0  0
 27 29  1  0  0  0  0
 27 30  1  0  0  0  0
 29 28  1  0  0  0  0
 30 32  1  0  0  0  0
 32 33  1  0  0  0  0
 32 31  1  0  0  0  0
 33 31  1  0  0  0  0
 34 35  1  0  0  0  0
 35 36  1  0  0  0  0
 37 36  1  0  0  0  0
M  END
>  <MODEL>
1

>  <REMARK>
 VINA RESULT:      -6.6      0.000      0.000
  Name = 
  9 active torsions:
  status: ('A' for Active; 'I' for Inactive)
    1  A    between atoms: C_1  and  C_5
    2  A    between atoms: C_1  and  C_36
    3  A    between atoms: C_5  and  O_17
    4  A    between atoms: C_5  and  C_23
    5  A    between atoms: C_6  and  C_31
    6  A    between atoms: O_17  and  C_26
    7  A    between atoms: O_20  and  C_25
    8  A    between atoms: O_20  and  C_29
    9  A    between atoms: C_21  and  C_25
                            x       y       z     vdW  Elec       q    Type
                         _______ _______ _______ _____ _____    ______ ____

>  <TORSDO>
F 9

$$$$
=
 OpenBabel10272414463D

 37 42  0  0  1  0  0  0  0  0999 V2000
  189.1030  180.0090  137.3340 O   0  0  0  0  0  1  0  0  0  0  0  0
  186.9480  178.5230  137.8680 N   0  0  1  0  0  0  0  0  0  0  0  0
  184.9070  177.8760  140.8770 O   0  0  0  0  0  0  0  0  0  0  0  0
  189.5060  177.6810  137.6030 C   0  0  0  0  0  2  0  0  0  0  0  0
  186.6670  178.0720  139.2600 C   0  0  2  0  0  3  0  0  0  0  0  0
  188.0530  177.8280  137.2060 C   0  0  1  0  0  0  0  0  0  0  0  0
  185.2860  178.5880  139.7360 C   0  0  1  0  0  3  0  0  0  0  0  0
  187.3940  177.5850  134.7480 C   0  0  0  0  0  1  0  0  0  0  0  0
  185.1320  176.7340  137.4100 C   0  0  0  0  0  2  0  0  0  0  0  0
  187.2590  177.0730  136.1770 C   0  0  2  0  0  3  0  0  0  0  0  0
  185.6370  178.4410  141.9340 C   0  0  1  0  0  3  0  0  0  0  0  0
  186.0970  177.7990  136.8540 C   0  0  2  0  0  3  0  0  0  0  0  0
  187.6240  178.6340  140.3460 C   0  0  1  0  0  3  0  0  0  0  0  0
  189.1100  178.7920  136.6490 C   0  0  1  0  0  3  0  0  0  0  0  0
  184.1590  178.6680  138.7000 C   0  0  1  0  0  3  0  0  0  0  0  0
  185.1400  177.8460  143.2390 C   0  0  0  0  0  1  0  0  0  0  0  0
  187.1520  178.1970  141.7570 C   0  0  1  0  0  3  0  0  0  0  0  0
  183.8660  177.3520  137.9900 C   0  0  0  0  0  2  0  0  0  0  0  0
  182.4090  180.4950  138.6510 C   0  0  0  0  0  3  0  0  0  0  0  0
  182.9230  179.3250  139.2300 C   0  0  0  0  0  0  0  0  0  0  0  0
  182.2550  178.7370  140.3110 C   0  0  0  0  0  3  0  0  0  0  0  0
  180.2590  178.5760  142.1690 Cl  0  0  0  0  0  0  0  0  0  0  0  0
  180.5810  180.4860  140.2390 C   0  0  0  0  0  3  0  0  0  0  0  0
  181.0890  179.3180  140.8160 C   0  0  0  0  0  0  0  0  0  0  0  0
  181.2430  181.0760  139.1560 C   0  0  0  0  0  3  0  0  0  0  0  0
  187.9260  178.9610  142.8250 C   0  0  0  0  0  2  0  0  0  0  0  0
  188.8210  178.0030  143.6170 C   0  0  1  0  0  3  0  0  0  0  0  0
  191.1590  177.5020  144.4790 C   0  0  0  0  0  1  0  0  0  0  0  0
  190.1810  178.5760  144.0300 C   0  0  0  0  0  2  0  0  0  0  0  0
  188.1660  177.2710  144.6370 O   0  0  0  0  0  0  0  0  0  0  0  0
  188.1430  177.3950  147.0160 C   0  0  0  0  0  2  0  0  0  0  0  0
  187.8780  178.1240  145.7140 C   0  0  0  0  0  3  0  0  0  0  0  0
  186.7260  177.5420  146.5090 C   0  0  0  0  0  2  0  0  0  0  0  0
  188.9430  178.2160  140.1710 O   0  0  0  0  0  0  0  0  0  0  0  0
  188.9430  176.8710  140.5560 C   0  0  0  0  0  2  0  0  0  0  0  0
  190.3320  176.4620  140.9970 C   0  0  0  0  0  2  0  0  0  0  0  0
  191.3170  177.5450  140.6180 C   0  0  0  0  0  1  0  0  0  0  0  0
  2  5  1  0  0  0  0
  3 11  1  0  0  0  0
  5  7  1  0  0  0  0
  5 13  1  0  0  0  0
  6  4  1  0  0  0  0
  6  2  1  0  0  0  0
  7  3  1  0  0  0  0
  8 10  1  0  0  0  0
  9 18  1  0  0  0  0
 10 12  1  0  0  0  0
 10  6  1  0  0  0  0
 11 16  1  0  0  0  0
 12  9  1  0  0  0  0
 12  2  1  0  0  0  0
 13 17  1  0  0  0  0
 14  6  1  0  0  0  0
 14  1  1  0  0  0  0
 14  4  1  0  0  0  0
 15 20  1  0  0  0  0
 15  7  1  0  0  0  0
 17 11  1  0  0  0  0
 17 26  1  0  0  0  0
 18 15  1  0  0  0  0
 19 25  2  0  0  0  0
 19 20  1  0  0  0  0
 20 21  2  0  0  0  0
 21 24  1  0  0  0  0
 23 24  2  0  0  0  0
 24 22  1  0  0  0  0
 25 23  1  0  0  0  0
 26 27  1  0  0  0  0
 27 29  1  0  0  0  0
 27 30  1  0  0  0  0
 29 28  1  0  0  0  0
 30 32  1  0  0  0  0
 32 33  1  0  0  0  0
 32 31  1  0  0  0  0
 33 31  1  0  0  0  0
 34 13  1  0  0  0  0
 34 35  1  0  0  0  0
 35 36  1  0  0  0  0
 37 36  1  0  0  0  0
M  END
>  <MODEL>
2

>  <REMARK>
 VINA RESULT:      -6.3      1.630      1.987
  Name = 
  9 active torsions:
  status: ('A' for Active; 'I' for Inactive)
    1  A    between atoms: C_1  and  C_5
    2  A    between atoms: C_1  and  C_36
    3  A    between atoms: C_5  and  O_17
    4  A    between atoms: C_5  and  C_23
    5  A    between atoms: C_6  and  C_31
    6  A    between atoms: O_17  and  C_26
    7  A    between atoms: O_20  and  C_25
    8  A    between atoms: O_20  and  C_29
    9  A    between atoms: C_21  and  C_25
                            x       y       z     vdW  Elec       q    Type
                         _______ _______ _______ _____ _____    ______ ____

>  <TORSDO>
F 9

$$$$
=
 OpenBabel10272414463D

 37 42  0  0  1  0  0  0  0  0999 V2000
  185.4070  175.0630  136.2200 O   0  0  0  0  0  1  0  0  0  0  0  0
  186.8810  177.0210  137.2830 N   0  0  1  0  0  0  0  0  0  0  0  0
  186.8050  178.9160  140.4530 O   0  0  0  0  0  0  0  0  0  0  0  0
  184.9730  177.2450  135.3780 C   0  0  0  0  0  2  0  0  0  0  0  0
  186.3100  177.9140  138.3310 C   0  0  2  0  0  3  0  0  0  0  0  0
  186.3820  177.2640  135.9290 C   0  0  1  0  0  0  0  0  0  0  0  0
  187.1450  177.8360  139.6330 C   0  0  1  0  0  3  0  0  0  0  0  0
  188.3530  176.8790  134.3460 C   0  0  0  0  0  1  0  0  0  0  0  0
  188.6630  178.9020  137.3030 C   0  0  0  0  0  2  0  0  0  0  0  0
  187.6420  177.8110  135.3200 C   0  0  2  0  0  3  0  0  0  0  0  0
  185.5840  178.5660  141.0510 C   0  0  1  0  0  3  0  0  0  0  0  0
  188.1780  177.5560  136.7280 C   0  0  2  0  0  3  0  0  0  0  0  0
  184.8880  177.5330  138.8250 C   0  0  1  0  0  3  0  0  0  0  0  0
  185.8260  175.9950  135.2670 C   0  0  1  0  0  3  0  0  0  0  0  0
  188.6630  177.6650  139.4980 C   0  0  1  0  0  3  0  0  0  0  0  0
  185.2440  179.6070  142.1010 C   0  0  0  0  0  1  0  0  0  0  0  0
  184.4610  178.4530  139.9970 C   0  0  1  0  0  3  0  0  0  0  0  0
  189.3420  178.7380  138.6570 C   0  0  0  0  0  2  0  0  0  0  0  0
  190.7430  177.3670  140.9070 C   0  0  0  0  0  3  0  0  0  0  0  0
  189.3450  177.4430  140.8120 C   0  0  0  0  0  0  0  0  0  0  0  0
  188.5660  177.3400  141.9700 C   0  0  0  0  0  3  0  0  0  0  0  0
  188.1930  177.0230  144.6570 Cl  0  0  0  0  0  0  0  0  0  0  0  0
  190.5690  177.0720  143.3050 C   0  0  0  0  0  3  0  0  0  0  0  0
  189.1760  177.1520  143.2120 C   0  0  0  0  0  0  0  0  0  0  0  0
  191.3530  177.1800  142.1510 C   0  0  0  0  0  3  0  0  0  0  0  0
  183.1940  177.9120  140.6500 C   0  0  0  0  0  2  0  0  0  0  0  0
  182.0000  178.8120  140.3150 C   0  0  1  0  0  3  0  0  0  0  0  0
  181.7670  178.8820  142.8440 C   0  0  0  0  0  1  0  0  0  0  0  0
  181.1110  179.1840  141.5070 C   0  0  0  0  0  2  0  0  0  0  0  0
  182.2850  179.8920  139.4450 O   0  0  0  0  0  0  0  0  0  0  0  0
  181.1360  180.3110  137.4010 C   0  0  0  0  0  2  0  0  0  0  0  0
  181.0880  180.3940  138.9120 C   0  0  0  0  0  3  0  0  0  0  0  0
  181.3930  181.6310  138.0920 C   0  0  0  0  0  2  0  0  0  0  0  0
  183.9260  177.6210  137.8190 O   0  0  0  0  0  0  0  0  0  0  0  0
  183.1760  176.4460  137.9410 C   0  0  0  0  0  2  0  0  0  0  0  0
  181.8290  176.6250  137.2750 C   0  0  0  0  0  2  0  0  0  0  0  0
  181.0750  175.3150  137.3090 C   0  0  0  0  0  1  0  0  0  0  0  0
  2  5  1  0  0  0  0
  3 11  1  0  0  0  0
  4  6  1  0  0  0  0
  5 13  1  0  0  0  0
  5  7  1  0  0  0  0
  6  2  1  0  0  0  0
  7  3  1  0  0  0  0
  8 10  1  0  0  0  0
  9 18  1  0  0  0  0
 10  6  1  0  0  0  0
 10 12  1  0  0  0  0
 11 16  1  0  0  0  0
 12  2  1  0  0  0  0
 12  9  1  0  0  0  0
 13 17  1  0  0  0  0
 14  4  1  0  0  0  0
 14  6  1  0  0  0  0
 14  1  1  0  0  0  0
 15  7  1  0  0  0  0
 15 20  1  0  0  0  0
 17 26  1  0  0  0  0
 17 11  1  0  0  0  0
 18 15  1  0  0  0  0
 19 25  1  0  0  0  0
 20 19  2  0  0  0  0
 20 21  1  0  0  0  0
 21 24  2  0  0  0  0
 24 23  1  0  0  0  0
 24 22  1  0  0  0  0
 25 23  2  0  0  0  0
 27 26  1  0  0  0  0
 27 29  1  0  0  0  0
 29 28  1  0  0  0  0
 30 27  1  0  0  0  0
 31 33  1  0  0  0  0
 31 32  1  0  0  0  0
 32 30  1  0  0  0  0
 33 32  1  0  0  0  0
 34 35  1  0  0  0  0
 34 13  1  0  0  0  0
 36 37  1  0  0  0  0
 36 35  1  0  0  0  0
M  END
>  <MODEL>
3

>  <REMARK>
 VINA RESULT:      -6.0      2.916      6.943
  Name = 
  9 active torsions:
  status: ('A' for Active; 'I' for Inactive)
    1  A    between atoms: C_1  and  C_5
    2  A    between atoms: C_1  and  C_36
    3  A    between atoms: C_5  and  O_17
    4  A    between atoms: C_5  and  C_23
    5  A    between atoms: C_6  and  C_31
    6  A    between atoms: O_17  and  C_26
    7  A    between atoms: O_20  and  C_25
    8  A    between atoms: O_20  and  C_29
    9  A    between atoms: C_21  and  C_25
                            x       y       z     vdW  Elec       q    Type
                         _______ _______ _______ _____ _____    ______ ____

>  <TORSDO>
F 9

$$$$
=
 OpenBabel10272414463D

 37 42  0  0  1  0  0  0  0  0999 V2000
  187.8570  175.7740  143.4300 O   0  0  0  0  0  1  0  0  0  0  0  0
  186.6830  177.5780  141.8480 N   0  0  1  0  0  0  0  0  0  0  0  0
  187.2520  178.7910  138.4060 O   0  0  0  0  0  0  0  0  0  0  0  0
  188.4000  178.0450  143.8870 C   0  0  0  0  0  2  0  0  0  0  0  0
  187.4370  178.2010  140.7230 C   0  0  2  0  0  3  0  0  0  0  0  0
  187.0620  178.0510  143.1810 C   0  0  1  0  0  0  0  0  0  0  0  0
  186.7340  177.9230  139.3720 C   0  0  1  0  0  3  0  0  0  0  0  0
  184.9140  178.1270  144.5650 C   0  0  0  0  0  1  0  0  0  0  0  0
  185.0910  179.5350  141.2610 C   0  0  0  0  0  2  0  0  0  0  0  0
  185.8020  178.7950  143.5210 C   0  0  2  0  0  3  0  0  0  0  0  0
  188.4900  178.2450  138.0340 C   0  0  1  0  0  3  0  0  0  0  0  0
  185.3900  178.3010  142.1360 C   0  0  2  0  0  3  0  0  0  0  0  0
  188.8610  177.6310  140.4820 C   0  0  1  0  0  3  0  0  0  0  0  0
  187.4300  176.9040  144.1330 C   0  0  1  0  0  3  0  0  0  0  0  0
  185.2010  177.8880  139.3580 C   0  0  1  0  0  3  0  0  0  0  0  0
  189.0290  179.0290  136.8520 C   0  0  0  0  0  1  0  0  0  0  0  0
  189.4860  178.2670  139.2140 C   0  0  1  0  0  3  0  0  0  0  0  0
  184.5410  179.1510  139.8940 C   0  0  0  0  0  2  0  0  0  0  0  0
  185.2840  176.4950  137.2470 C   0  0  0  0  0  3  0  0  0  0  0  0
  184.6380  177.4560  138.0400 C   0  0  0  0  0  0  0  0  0  0  0  0
  183.4260  178.0080  137.6090 C   0  0  0  0  0  3  0  0  0  0  0  0
  181.3500  178.3060  135.8590 Cl  0  0  0  0  0  0  0  0  0  0  0  0
  183.5150  176.6560  135.6010 C   0  0  0  0  0  3  0  0  0  0  0  0
  182.8680  177.6110  136.3910 C   0  0  0  0  0  0  0  0  0  0  0  0
  184.7250  176.0980  136.0300 C   0  0  0  0  0  3  0  0  0  0  0  0
  190.7580  177.5210  138.8300 C   0  0  0  0  0  2  0  0  0  0  0  0
  190.4820  176.5690  137.6610 C   0  0  1  0  0  3  0  0  0  0  0  0
  193.0180  176.4410  137.5680 C   0  0  0  0  0  1  0  0  0  0  0  0
  191.7120  176.1800  136.8350 C   0  0  0  0  0  2  0  0  0  0  0  0
  189.6160  175.4890  137.9570 O   0  0  0  0  0  0  0  0  0  0  0  0
  188.4430  175.1960  135.9050 C   0  0  0  0  0  2  0  0  0  0  0  0
  189.5080  174.6530  136.8340 C   0  0  0  0  0  3  0  0  0  0  0  0
  188.1260  174.0310  136.8140 C   0  0  0  0  0  2  0  0  0  0  0  0
  189.7200  177.8520  141.5580 O   0  0  0  0  0  0  0  0  0  0  0  0
  190.4850  176.6840  141.6470 C   0  0  0  0  0  2  0  0  0  0  0  0
  191.6490  176.9030  142.5890 C   0  0  0  0  0  2  0  0  0  0  0  0
  191.5180  175.9700  143.7730 C   0  0  0  0  0  1  0  0  0  0  0  0
  1 14  1  0  0  0  0
  2 12  1  0  0  0  0
  2  6  1  0  0  0  0
  3  7  1  0  0  0  0
  4 14  1  0  0  0  0
  5  2  1  0  0  0  0
  6 10  1  0  0  0  0
  6  4  1  0  0  0  0
  6 14  1  0  0  0  0
  7  5  1  0  0  0  0
  9 12  1  0  0  0  0
 10  8  1  0  0  0  0
 11  3  1  0  0  0  0
 11 17  1  0  0  0  0
 12 10  1  0  0  0  0
 13  5  1  0  0  0  0
 13 34  1  0  0  0  0
 15  7  1  0  0  0  0
 15 18  1  0  0  0  0
 16 11  1  0  0  0  0
 17 13  1  0  0  0  0
 18  9  1  0  0  0  0
 19 20  1  0  0  0  0
 20 15  1  0  0  0  0
 21 20  2  0  0  0  0
 22 24  1  0  0  0  0
 23 25  1  0  0  0  0
 23 24  2  0  0  0  0
 24 21  1  0  0  0  0
 25 19  2  0  0  0  0
 26 17  1  0  0  0  0
 27 30  1  0  0  0  0
 27 26  1  0  0  0  0
 29 28  1  0  0  0  0
 29 27  1  0  0  0  0
 31 33  1  0  0  0  0
 31 32  1  0  0  0  0
 32 30  1  0  0  0  0
 33 32  1  0  0  0  0
 34 35  1  0  0  0  0
 35 36  1  0  0  0  0
 36 37  1  0  0  0  0
M  END
>  <MODEL>
4

>  <REMARK>
 VINA RESULT:      -5.7      2.497      6.369
  Name = 
  9 active torsions:
  status: ('A' for Active; 'I' for Inactive)
    1  A    between atoms: C_1  and  C_5
    2  A    between atoms: C_1  and  C_36
    3  A    between atoms: C_5  and  O_17
    4  A    between atoms: C_5  and  C_23
    5  A    between atoms: C_6  and  C_31
    6  A    between atoms: O_17  and  C_26
    7  A    between atoms: O_20  and  C_25
    8  A    between atoms: O_20  and  C_29
    9  A    between atoms: C_21  and  C_25
                            x       y       z     vdW  Elec       q    Type
                         _______ _______ _______ _____ _____    ______ ____

>  <TORSDO>
F 9

$$$$
=
 OpenBabel10272414463D

 37 42  0  0  1  0  0  0  0  0999 V2000
  183.0120  177.0730  140.5170 O   0  0  0  0  0  1  0  0  0  0  0  0
  184.5580  177.2510  138.3460 N   0  0  1  0  0  0  0  0  0  0  0  0
  188.2000  177.3120  137.7360 O   0  0  0  0  0  0  0  0  0  0  0  0
  183.2310  179.2530  139.5920 C   0  0  0  0  0  2  0  0  0  0  0  0
  185.9560  177.7580  138.4530 C   0  0  2  0  0  3  0  0  0  0  0  0
  183.5200  178.2750  138.4740 C   0  0  1  0  0  0  0  0  0  0  0  0
  186.9640  176.6950  137.9500 C   0  0  1  0  0  3  0  0  0  0  0  0
  181.6430  177.6170  136.8680 C   0  0  0  0  0  1  0  0  0  0  0  0
  185.0900  177.6550  135.8430 C   0  0  0  0  0  2  0  0  0  0  0  0
  183.0120  178.2580  137.0600 C   0  0  2  0  0  3  0  0  0  0  0  0
  188.7750  177.4560  139.0080 C   0  0  1  0  0  3  0  0  0  0  0  0
  184.0870  177.1820  136.9140 C   0  0  2  0  0  3  0  0  0  0  0  0
  186.4540  178.0310  139.8980 C   0  0  1  0  0  3  0  0  0  0  0  0
  182.4820  177.9340  139.5530 C   0  0  1  0  0  3  0  0  0  0  0  0
  186.5420  175.8150  136.7670 C   0  0  1  0  0  3  0  0  0  0  0  0
  190.2010  177.9460  138.8430 C   0  0  0  0  0  1  0  0  0  0  0  0
  187.9520  178.4270  139.8830 C   0  0  1  0  0  3  0  0  0  0  0  0
  186.1320  176.5920  135.5230 C   0  0  0  0  0  2  0  0  0  0  0  0
  187.3290  173.4160  136.9350 C   0  0  0  0  0  3  0  0  0  0  0  0
  187.5240  174.7250  136.4700 C   0  0  0  0  0  0  0  0  0  0  0  0
  188.6460  175.0210  135.6880 C   0  0  0  0  0  3  0  0  0  0  0  0
  190.9730  174.3990  134.3980 Cl  0  0  0  0  0  0  0  0  0  0  0  0
  189.3760  172.7170  135.8460 C   0  0  0  0  0  3  0  0  0  0  0  0
  189.5710  174.0200  135.3790 C   0  0  0  0  0  0  0  0  0  0  0  0
  188.2530  172.4150  136.6260 C   0  0  0  0  0  3  0  0  0  0  0  0
  188.5040  178.4340  141.3040 C   0  0  0  0  0  2  0  0  0  0  0  0
  188.6810  176.9990  141.8110 C   0  0  1  0  0  3  0  0  0  0  0  0
  191.0730  177.6270  142.3980 C   0  0  0  0  0  1  0  0  0  0  0  0
  190.1340  176.5270  141.9290 C   0  0  0  0  0  2  0  0  0  0  0  0
  187.8640  176.6440  142.9100 O   0  0  0  0  0  0  0  0  0  0  0  0
  188.5180  177.2220  145.1270 C   0  0  0  0  0  2  0  0  0  0  0  0
  187.8570  177.6900  143.8470 C   0  0  0  0  0  3  0  0  0  0  0  0
  187.0100  177.2820  145.0350 C   0  0  0  0  0  2  0  0  0  0  0  0
  185.7340  179.0420  140.5340 O   0  0  0  0  0  0  0  0  0  0  0  0
  185.2910  178.4650  141.7290 C   0  0  0  0  0  2  0  0  0  0  0  0
  184.9440  179.5490  142.7260 C   0  0  0  0  0  2  0  0  0  0  0  0
  183.9340  179.0140  143.7160 C   0  0  0  0  0  1  0  0  0  0  0  0
  2  5  1  0  0  0  0
  2  6  1  0  0  0  0
  3  7  1  0  0  0  0
  3 11  1  0  0  0  0
  5 13  1  0  0  0  0
  6 14  1  0  0  0  0
  6  4  1  0  0  0  0
  7  5  1  0  0  0  0
  8 10  1  0  0  0  0
  9 12  1  0  0  0  0
 10  6  1  0  0  0  0
 11 17  1  0  0  0  0
 12 10  1  0  0  0  0
 12  2  1  0  0  0  0
 13 34  1  0  0  0  0
 14  4  1  0  0  0  0
 14  1  1  0  0  0  0
 15  7  1  0  0  0  0
 16 11  1  0  0  0  0
 17 13  1  0  0  0  0
 17 26  1  0  0  0  0
 18  9  1  0  0  0  0
 18 15  1  0  0  0  0
 20 15  1  0  0  0  0
 20 19  2  0  0  0  0
 21 20  1  0  0  0  0
 22 24  1  0  0  0  0
 23 25  2  0  0  0  0
 24 21  2  0  0  0  0
 24 23  1  0  0  0  0
 25 19  1  0  0  0  0
 26 27  1  0  0  0  0
 27 29  1  0  0  0  0
 27 30  1  0  0  0  0
 29 28  1  0  0  0  0
 30 32  1  0  0  0  0
 32 33  1  0  0  0  0
 32 31  1  0  0  0  0
 33 31  1  0  0  0  0
 34 35  1  0  0  0  0
 35 36  1  0  0  0  0
 36 37  1  0  0  0  0
M  END
>  <MODEL>
5

>  <REMARK>
 VINA RESULT:      -5.6      3.027      6.254
  Name = 
  9 active torsions:
  status: ('A' for Active; 'I' for Inactive)
    1  A    between atoms: C_1  and  C_5
    2  A    between atoms: C_1  and  C_36
    3  A    between atoms: C_5  and  O_17
    4  A    between atoms: C_5  and  C_23
    5  A    between atoms: C_6  and  C_31
    6  A    between atoms: O_17  and  C_26
    7  A    between atoms: O_20  and  C_25
    8  A    between atoms: O_20  and  C_29
    9  A    between atoms: C_21  and  C_25
                            x       y       z     vdW  Elec       q    Type
                         _______ _______ _______ _____ _____    ______ ____

>  <TORSDO>
F 9

$$$$
=
 OpenBabel10272414463D

 37 42  0  0  1  0  0  0  0  0999 V2000
  187.0850  174.4630  135.5580 O   0  0  0  0  0  1  0  0  0  0  0  0
  187.8350  176.6570  136.8840 N   0  0  1  0  0  0  0  0  0  0  0  0
  186.2920  178.7940  139.4720 O   0  0  0  0  0  0  0  0  0  0  0  0
  186.9100  176.5030  134.3460 C   0  0  0  0  0  2  0  0  0  0  0  0
  186.8140  177.5660  137.4800 C   0  0  2  0  0  3  0  0  0  0  0  0
  187.9460  176.7260  135.4260 C   0  0  1  0  0  0  0  0  0  0  0  0
  187.0190  177.6930  139.0090 C   0  0  1  0  0  3  0  0  0  0  0  0
  190.4230  176.4320  134.8680 C   0  0  0  0  0  1  0  0  0  0  0  0
  189.3110  178.7200  137.4090 C   0  0  0  0  0  2  0  0  0  0  0  0
  189.3060  177.3580  135.3340 C   0  0  2  0  0  3  0  0  0  0  0  0
  184.9590  178.3620  139.5460 C   0  0  1  0  0  3  0  0  0  0  0  0
  189.2070  177.2850  136.8570 C   0  0  2  0  0  3  0  0  0  0  0  0
  185.3460  177.0720  137.3800 C   0  0  1  0  0  3  0  0  0  0  0  0
  187.8080  175.3510  134.7570 C   0  0  1  0  0  3  0  0  0  0  0  0
  188.4570  177.6830  139.5400 C   0  0  1  0  0  3  0  0  0  0  0  0
  184.1360  179.4440  140.2200 C   0  0  0  0  0  1  0  0  0  0  0  0
  184.4020  178.0350  138.1440 C   0  0  1  0  0  3  0  0  0  0  0  0
  189.3580  178.7490  138.9310 C   0  0  0  0  0  2  0  0  0  0  0  0
  187.4360  178.0380  141.8280 C   0  0  0  0  0  3  0  0  0  0  0  0
  188.5280  177.6520  141.0350 C   0  0  0  0  0  0  0  0  0  0  0  0
  189.7020  177.2000  141.6480 C   0  0  0  0  0  3  0  0  0  0  0  0
  191.2650  176.5750  143.8000 Cl  0  0  0  0  0  0  0  0  0  0  0  0
  188.7030  177.5320  143.8290 C   0  0  0  0  0  3  0  0  0  0  0  0
  189.7910  177.1430  143.0410 C   0  0  0  0  0  0  0  0  0  0  0  0
  187.5250  177.9800  143.2210 C   0  0  0  0  0  3  0  0  0  0  0  0
  183.0160  177.4130  138.2720 C   0  0  0  0  0  2  0  0  0  0  0  0
  181.9510  178.3780  137.7400 C   0  0  1  0  0  3  0  0  0  0  0  0
  181.4840  178.6230  135.2540 C   0  0  0  0  0  1  0  0  0  0  0  0
  181.1570  177.8690  136.5320 C   0  0  0  0  0  2  0  0  0  0  0  0
  181.1600  179.0070  138.7310 O   0  0  0  0  0  0  0  0  0  0  0  0
  181.5330  181.3450  138.4660 C   0  0  0  0  0  2  0  0  0  0  0  0
  180.5980  180.1820  138.2070 C   0  0  0  0  0  3  0  0  0  0  0  0
  180.3190  181.1450  139.3440 C   0  0  0  0  0  2  0  0  0  0  0  0
  184.9000  176.9660  136.0630 O   0  0  0  0  0  0  0  0  0  0  0  0
  184.1900  175.7620  136.0240 C   0  0  0  0  0  2  0  0  0  0  0  0
  183.4480  175.6440  134.7100 C   0  0  0  0  0  2  0  0  0  0  0  0
  182.4310  174.5290  134.8060 C   0  0  0  0  0  1  0  0  0  0  0  0
  2  5  1  0  0  0  0
  3 11  1  0  0  0  0
  4 14  1  0  0  0  0
  4  6  1  0  0  0  0
  5  7  1  0  0  0  0
  6  2  1  0  0  0  0
  7  3  1  0  0  0  0
  7 15  1  0  0  0  0
  8 10  1  0  0  0  0
  9 18  1  0  0  0  0
 10  6  1  0  0  0  0
 10 12  1  0  0  0  0
 11 16  1  0  0  0  0
 12  2  1  0  0  0  0
 12  9  1  0  0  0  0
 13  5  1  0  0  0  0
 13 17  1  0  0  0  0
 14  6  1  0  0  0  0
 14  1  1  0  0  0  0
 15 20  1  0  0  0  0
 17 26  1  0  0  0  0
 17 11  1  0  0  0  0
 18 15  1  0  0  0  0
 19 25  1  0  0  0  0
 20 21  1  0  0  0  0
 20 19  2  0  0  0  0
 21 24  2  0  0  0  0
 24 22  1  0  0  0  0
 24 23  1  0  0  0  0
 25 23  2  0  0  0  0
 27 26  1  0  0  0  0
 27 30  1  0  0  0  0
 28 29  1  0  0  0  0
 29 27  1  0  0  0  0
 31 33  1  0  0  0  0
 32 31  1  0  0  0  0
 32 30  1  0  0  0  0
 32 33  1  0  0  0  0
 34 13  1  0  0  0  0
 35 34  1  0  0  0  0
 36 37  1  0  0  0  0
 36 35  1  0  0  0  0
M  END
>  <MODEL>
6

>  <REMARK>
 VINA RESULT:      -5.6      3.149      7.316
  Name = 
  9 active torsions:
  status: ('A' for Active; 'I' for Inactive)
    1  A    between atoms: C_1  and  C_5
    2  A    between atoms: C_1  and  C_36
    3  A    between atoms: C_5  and  O_17
    4  A    between atoms: C_5  and  C_23
    5  A    between atoms: C_6  and  C_31
    6  A    between atoms: O_17  and  C_26
    7  A    between atoms: O_20  and  C_25
    8  A    between atoms: O_20  and  C_29
    9  A    between atoms: C_21  and  C_25
                            x       y       z     vdW  Elec       q    Type
                         _______ _______ _______ _____ _____    ______ ____

>  <TORSDO>
F 9

$$$$
=
 OpenBabel10272414463D

 37 42  0  0  1  0  0  0  0  0999 V2000
  188.0040  174.4040  136.9560 O   0  0  0  0  0  1  0  0  0  0  0  0
  188.1740  176.6900  138.3250 N   0  0  1  0  0  0  0  0  0  0  0  0
  185.7310  179.0930  139.7040 O   0  0  0  0  0  0  0  0  0  0  0  0
  188.5600  176.3270  135.6720 C   0  0  0  0  0  2  0  0  0  0  0  0
  187.0560  177.6750  138.2950 C   0  0  2  0  0  3  0  0  0  0  0  0
  188.9700  176.6230  137.0990 C   0  0  1  0  0  0  0  0  0  0  0  0
  186.5160  177.9370  139.7230 C   0  0  1  0  0  3  0  0  0  0  0  0
  191.3890  176.2170  137.8180 C   0  0  0  0  0  1  0  0  0  0  0  0
  189.3550  178.7560  139.3510 C   0  0  0  0  0  2  0  0  0  0  0  0
  190.2480  177.2090  137.6270 C   0  0  2  0  0  3  0  0  0  0  0  0
  184.4970  178.7030  139.1590 C   0  0  1  0  0  3  0  0  0  0  0  0
  189.4320  177.2790  138.9160 C   0  0  2  0  0  3  0  0  0  0  0  0
  185.7820  177.2100  137.5380 C   0  0  1  0  0  3  0  0  0  0  0  0
  189.0770  175.1960  136.5410 C   0  0  1  0  0  3  0  0  0  0  0  0
  187.5250  177.9390  140.8770 C   0  0  1  0  0  3  0  0  0  0  0  0
  183.5260  179.8620  139.2800 C   0  0  0  0  0  1  0  0  0  0  0  0
  184.6540  178.2620  137.6870 C   0  0  1  0  0  3  0  0  0  0  0  0
  188.6740  178.9230  140.7040 C   0  0  0  0  0  2  0  0  0  0  0  0
  185.5440  178.4690  142.3600 C   0  0  0  0  0  3  0  0  0  0  0  0
  186.8740  178.0430  142.2210 C   0  0  0  0  0  0  0  0  0  0  0  0
  187.6050  177.6790  143.3580 C   0  0  0  0  0  3  0  0  0  0  0  0
  187.9400  177.2910  146.0410 Cl  0  0  0  0  0  0  0  0  0  0  0  0
  185.6930  178.1770  144.7590 C   0  0  0  0  0  3  0  0  0  0  0  0
  187.0180  177.7490  144.6230 C   0  0  0  0  0  0  0  0  0  0  0  0
  184.9560  178.5380  143.6260 C   0  0  0  0  0  3  0  0  0  0  0  0
  183.3370  177.6900  137.1770 C   0  0  0  0  0  2  0  0  0  0  0  0
  182.6220  176.9260  138.2970 C   0  0  1  0  0  3  0  0  0  0  0  0
  180.7360  177.0060  139.9980 C   0  0  0  0  0  1  0  0  0  0  0  0
  181.2000  177.4060  138.6070 C   0  0  0  0  0  2  0  0  0  0  0  0
  182.7620  175.5180  138.2490 O   0  0  0  0  0  0  0  0  0  0  0  0
  181.1910  173.8580  137.5760 C   0  0  0  0  0  2  0  0  0  0  0  0
  182.0640  175.0160  137.1390 C   0  0  0  0  0  3  0  0  0  0  0  0
  182.5070  173.5890  136.8830 C   0  0  0  0  0  2  0  0  0  0  0  0
  186.0110  176.9950  136.1790 O   0  0  0  0  0  0  0  0  0  0  0  0
  185.2150  175.8920  135.8550 C   0  0  0  0  0  2  0  0  0  0  0  0
  185.4690  175.4770  134.4220 C   0  0  0  0  0  2  0  0  0  0  0  0
  185.5700  173.9700  134.3460 C   0  0  0  0  0  1  0  0  0  0  0  0
  2 12  1  0  0  0  0
  3  7  1  0  0  0  0
  4 14  1  0  0  0  0
  4  6  1  0  0  0  0
  5  2  1  0  0  0  0
  5  7  1  0  0  0  0
  6 10  1  0  0  0  0
  6  2  1  0  0  0  0
  7 15  1  0  0  0  0
  9 18  1  0  0  0  0
 10  8  1  0  0  0  0
 10 12  1  0  0  0  0
 11 16  1  0  0  0  0
 11  3  1  0  0  0  0
 12  9  1  0  0  0  0
 13 17  1  0  0  0  0
 13  5  1  0  0  0  0
 14  1  1  0  0  0  0
 14  6  1  0  0  0  0
 15 20  1  0  0  0  0
 17 11  1  0  0  0  0
 18 15  1  0  0  0  0
 19 25  1  0  0  0  0
 20 19  2  0  0  0  0
 20 21  1  0  0  0  0
 21 24  2  0  0  0  0
 24 23  1  0  0  0  0
 24 22  1  0  0  0  0
 25 23  2  0  0  0  0
 26 17  1  0  0  0  0
 26 27  1  0  0  0  0
 27 29  1  0  0  0  0
 29 28  1  0  0  0  0
 30 27  1  0  0  0  0
 32 31  1  0  0  0  0
 32 30  1  0  0  0  0
 33 32  1  0  0  0  0
 33 31  1  0  0  0  0
 34 13  1  0  0  0  0
 35 34  1  0  0  0  0
 36 35  1  0  0  0  0
 37 36  1  0  0  0  0
M  END
>  <MODEL>
7

>  <REMARK>
 VINA RESULT:      -5.5      3.035      6.845
  Name = 
  9 active torsions:
  status: ('A' for Active; 'I' for Inactive)
    1  A    between atoms: C_1  and  C_5
    2  A    between atoms: C_1  and  C_36
    3  A    between atoms: C_5  and  O_17
    4  A    between atoms: C_5  and  C_23
    5  A    between atoms: C_6  and  C_31
    6  A    between atoms: O_17  and  C_26
    7  A    between atoms: O_20  and  C_25
    8  A    between atoms: O_20  and  C_29
    9  A    between atoms: C_21  and  C_25
                            x       y       z     vdW  Elec       q    Type
                         _______ _______ _______ _____ _____    ______ ____

>  <TORSDO>
F 9

$$$$
=
 OpenBabel10272414463D

 37 42  0  0  1  0  0  0  0  0999 V2000
  187.9240  175.7770  143.3500 O   0  0  0  0  0  1  0  0  0  0  0  0
  186.6530  177.5940  141.8600 N   0  0  1  0  0  0  0  0  0  0  0  0
  187.0500  178.8870  138.4230 O   0  0  0  0  0  0  0  0  0  0  0  0
  188.4520  178.0460  143.8300 C   0  0  0  0  0  2  0  0  0  0  0  0
  187.3470  178.2530  140.7170 C   0  0  2  0  0  3  0  0  0  0  0  0
  187.0840  178.0460  143.1840 C   0  0  1  0  0  0  0  0  0  0  0  0
  186.5890  177.9910  139.3920 C   0  0  1  0  0  3  0  0  0  0  0  0
  184.9990  178.0600  144.6640 C   0  0  0  0  0  1  0  0  0  0  0  0
  185.0080  179.5380  141.3860 C   0  0  0  0  0  2  0  0  0  0  0  0
  185.8290  178.7620  143.5960 C   0  0  2  0  0  3  0  0  0  0  0  0
  188.2790  178.3680  137.9840 C   0  0  1  0  0  3  0  0  0  0  0  0
  185.3640  178.2910  142.2190 C   0  0  2  0  0  3  0  0  0  0  0  0
  188.7670  177.7110  140.4000 C   0  0  1  0  0  3  0  0  0  0  0  0
  187.5120  176.8860  144.0950 C   0  0  1  0  0  3  0  0  0  0  0  0
  185.0580  177.9320  139.4450 C   0  0  1  0  0  3  0  0  0  0  0  0
  188.7530  179.1860  136.7970 C   0  0  0  0  0  1  0  0  0  0  0  0
  189.3260  178.3820  139.1200 C   0  0  1  0  0  3  0  0  0  0  0  0
  184.4030  179.1740  140.0360 C   0  0  0  0  0  2  0  0  0  0  0  0
  183.2160  178.0460  137.7130 C   0  0  0  0  0  3  0  0  0  0  0  0
  184.4440  177.5190  138.1440 C   0  0  0  0  0  0  0  0  0  0  0  0
  185.1280  176.6080  137.3310 C   0  0  0  0  0  3  0  0  0  0  0  0
  185.4520  175.0780  135.0920 Cl  0  0  0  0  0  0  0  0  0  0  0  0
  183.3630  176.7420  135.6780 C   0  0  0  0  0  3  0  0  0  0  0  0
  184.5880  176.2190  136.1030 C   0  0  0  0  0  0  0  0  0  0  0  0
  182.6770  177.6570  136.4840 C   0  0  0  0  0  3  0  0  0  0  0  0
  190.5910  177.6640  138.6640 C   0  0  0  0  0  2  0  0  0  0  0  0
  190.2830  176.1960  138.3490 C   0  0  1  0  0  3  0  0  0  0  0  0
  188.8990  174.5400  137.0080 C   0  0  0  0  0  1  0  0  0  0  0  0
  189.4180  175.9660  137.1060 C   0  0  0  0  0  2  0  0  0  0  0  0
  191.3830  175.3130  138.4640 O   0  0  0  0  0  0  0  0  0  0  0  0
  192.9940  175.6170  136.7350 C   0  0  0  0  0  2  0  0  0  0  0  0
  192.5670  175.9950  138.1380 C   0  0  0  0  0  3  0  0  0  0  0  0
  193.6760  174.9830  137.9270 C   0  0  0  0  0  2  0  0  0  0  0  0
  189.6700  177.9230  141.4420 O   0  0  0  0  0  0  0  0  0  0  0  0
  190.3740  176.7190  141.5520 C   0  0  0  0  0  2  0  0  0  0  0  0
  191.6060  176.9210  142.4080 C   0  0  0  0  0  2  0  0  0  0  0  0
  191.4820  176.0910  143.6670 C   0  0  0  0  0  1  0  0  0  0  0  0
  1 14  1  0  0  0  0
  2 12  1  0  0  0  0
  2  6  1  0  0  0  0
  3  7  1  0  0  0  0
  4 14  1  0  0  0  0
  5  2  1  0  0  0  0
  6 10  1  0  0  0  0
  6  4  1  0  0  0  0
  6 14  1  0  0  0  0
  7 15  1  0  0  0  0
  7  5  1  0  0  0  0
  9 12  1  0  0  0  0
 10  8  1  0  0  0  0
 11  3  1  0  0  0  0
 11 17  1  0  0  0  0
 12 10  1  0  0  0  0
 13  5  1  0  0  0  0
 13 34  1  0  0  0  0
 15 18  1  0  0  0  0
 16 11  1  0  0  0  0
 17 13  1  0  0  0  0
 18  9  1  0  0  0  0
 19 20  1  0  0  0  0
 20 15  1  0  0  0  0
 21 20  2  0  0  0  0
 22 24  1  0  0  0  0
 23 24  2  0  0  0  0
 23 25  1  0  0  0  0
 24 21  1  0  0  0  0
 25 19  2  0  0  0  0
 26 17  1  0  0  0  0
 27 30  1  0  0  0  0
 27 26  1  0  0  0  0
 28 29  1  0  0  0  0
 29 27  1  0  0  0  0
 31 33  1  0  0  0  0
 31 32  1  0  0  0  0
 32 30  1  0  0  0  0
 33 32  1  0  0  0  0
 34 35  1  0  0  0  0
 35 36  1  0  0  0  0
 36 37  1  0  0  0  0
M  END
>  <MODEL>
8

>  <REMARK>
 VINA RESULT:      -5.4      2.805      6.575
  Name = 
  9 active torsions:
  status: ('A' for Active; 'I' for Inactive)
    1  A    between atoms: C_1  and  C_5
    2  A    between atoms: C_1  and  C_36
    3  A    between atoms: C_5  and  O_17
    4  A    between atoms: C_5  and  C_23
    5  A    between atoms: C_6  and  C_31
    6  A    between atoms: O_17  and  C_26
    7  A    between atoms: O_20  and  C_25
    8  A    between atoms: O_20  and  C_29
    9  A    between atoms: C_21  and  C_25
                            x       y       z     vdW  Elec       q    Type
                         _______ _______ _______ _____ _____    ______ ____

>  <TORSDO>
F 9

$$$$
=
 OpenBabel10272414463D

 37 42  0  0  1  0  0  0  0  0999 V2000
  184.3770  177.2880  141.8430 O   0  0  0  0  0  1  0  0  0  0  0  0
  185.9140  177.9940  139.7760 N   0  0  1  0  0  0  0  0  0  0  0  0
  189.4510  177.4610  138.8550 O   0  0  0  0  0  0  0  0  0  0  0  0
  185.1430  179.5400  141.8580 C   0  0  0  0  0  2  0  0  0  0  0  0
  187.3950  178.0720  139.9270 C   0  0  2  0  0  3  0  0  0  0  0  0
  185.1720  179.0800  140.4160 C   0  0  1  0  0  0  0  0  0  0  0  0
  188.0990  177.1150  138.9330 C   0  0  1  0  0  3  0  0  0  0  0  0
  183.1870  179.6050  138.8930 C   0  0  0  0  0  1  0  0  0  0  0  0
  186.5290  179.2710  137.6070 C   0  0  0  0  0  2  0  0  0  0  0  0
  184.6750  179.7730  139.1790 C   0  0  2  0  0  3  0  0  0  0  0  0
  190.0450  176.9230  140.0080 C   0  0  1  0  0  3  0  0  0  0  0  0
  185.4400  178.6400  138.4980 C   0  0  2  0  0  3  0  0  0  0  0  0
  187.9490  177.5940  141.2970 C   0  0  1  0  0  3  0  0  0  0  0  0
  184.0820  178.5700  141.3710 C   0  0  1  0  0  3  0  0  0  0  0  0
  187.4660  176.9320  137.5490 C   0  0  1  0  0  3  0  0  0  0  0  0
  191.5490  177.0950  139.9020 C   0  0  0  0  0  1  0  0  0  0  0  0
  189.4990  177.6030  141.2830 C   0  0  1  0  0  3  0  0  0  0  0  0
  187.2660  178.2290  136.7750 C   0  0  0  0  0  2  0  0  0  0  0  0
  189.1230  176.1900  135.7860 C   0  0  0  0  0  3  0  0  0  0  0  0
  188.1380  175.8720  136.7350 C   0  0  0  0  0  0  0  0  0  0  0  0
  187.7920  174.5330  136.9490 C   0  0  0  0  0  3  0  0  0  0  0  0
  187.9770  171.8460  136.4920 Cl  0  0  0  0  0  0  0  0  0  0  0  0
  189.3950  173.8400  135.2700 C   0  0  0  0  0  3  0  0  0  0  0  0
  188.4160  173.5200  136.2170 C   0  0  0  0  0  0  0  0  0  0  0  0
  189.7480  175.1770  135.0550 C   0  0  0  0  0  3  0  0  0  0  0  0
  190.0350  176.8880  142.5180 C   0  0  0  0  0  2  0  0  0  0  0  0
  191.0760  177.7620  143.2260 C   0  0  1  0  0  3  0  0  0  0  0  0
  191.6150  179.9110  144.4700 C   0  0  0  0  0  1  0  0  0  0  0  0
  190.5600  179.1200  143.7140 C   0  0  0  0  0  2  0  0  0  0  0  0
  191.8970  177.0840  144.1580 O   0  0  0  0  0  0  0  0  0  0  0  0
  191.3860  176.8720  146.4750 C   0  0  0  0  0  2  0  0  0  0  0  0
  191.0920  176.3850  145.0710 C   0  0  0  0  0  3  0  0  0  0  0  0
  191.9800  175.5700  145.9890 C   0  0  0  0  0  2  0  0  0  0  0  0
  187.5110  178.3840  142.3610 O   0  0  0  0  0  0  0  0  0  0  0  0
  187.2140  177.4730  143.3800 C   0  0  0  0  0  2  0  0  0  0  0  0
  186.8900  178.2180  144.6570 C   0  0  0  0  0  2  0  0  0  0  0  0
  187.7210  177.6580  145.7890 C   0  0  0  0  0  1  0  0  0  0  0  0
  2  5  1  0  0  0  0
  2  6  1  0  0  0  0
  3  7  1  0  0  0  0
  3 11  1  0  0  0  0
  5 13  1  0  0  0  0
  6 14  1  0  0  0  0
  6  4  1  0  0  0  0
  7  5  1  0  0  0  0
  8 10  1  0  0  0  0
  9 12  1  0  0  0  0
 10  6  1  0  0  0  0
 11 17  1  0  0  0  0
 12 10  1  0  0  0  0
 12  2  1  0  0  0  0
 13 34  1  0  0  0  0
 14  1  1  0  0  0  0
 14  4  1  0  0  0  0
 15  7  1  0  0  0  0
 16 11  1  0  0  0  0
 17 13  1  0  0  0  0
 17 26  1  0  0  0  0
 18 15  1  0  0  0  0
 18  9  1  0  0  0  0
 19 20  1  0  0  0  0
 20 21  2  0  0  0  0
 20 15  1  0  0  0  0
 23 24  2  0  0  0  0
 24 22  1  0  0  0  0
 24 21  1  0  0  0  0
 25 23  1  0  0  0  0
 25 19  2  0  0  0  0
 26 27  1  0  0  0  0
 27 29  1  0  0  0  0
 27 30  1  0  0  0  0
 29 28  1  0  0  0  0
 30 32  1  0  0  0  0
 32 33  1  0  0  0  0
 32 31  1  0  0  0  0
 33 31  1  0  0  0  0
 34 35  1  0  0  0  0
 35 36  1  0  0  0  0
 36 37  1  0  0  0  0
M  END
>  <MODEL>
9

>  <REMARK>
 VINA RESULT:      -5.4      3.156      6.472
  Name = 
  9 active torsions:
  status: ('A' for Active; 'I' for Inactive)
    1  A    between atoms: C_1  and  C_5
    2  A    between atoms: C_1  and  C_36
    3  A    between atoms: C_5  and  O_17
    4  A    between atoms: C_5  and  C_23
    5  A    between atoms: C_6  and  C_31
    6  A    between atoms: O_17  and  C_26
    7  A    between atoms: O_20  and  C_25
    8  A    between atoms: O_20  and  C_29
    9  A    between atoms: C_21  and  C_25
                            x       y       z     vdW  Elec       q    Type
                         _______ _______ _______ _____ _____    ______ ____

>  <TORSDO>
F 9

$$$$
