=
 OpenBabel10272413583D

 30 34  0  0  1  0  0  0  0  0999 V2000
  187.7150  177.6580  145.0280 C   0  0  0  0  0  0  0  0  0  0  0  0
  187.7070  177.7420  147.5300 C   0  0  0  0  0  3  0  0  0  0  0  0
  191.6110  176.6430  143.5680 C   0  0  0  0  0  2  0  0  0  0  0  0
  186.9400  177.7350  143.9070 C   0  0  0  0  0  0  0  0  0  0  0  0
  185.5150  178.1840  144.0060 C   0  0  0  0  0  0  0  0  0  0  0  0
  183.3510  178.7670  143.0350 C   0  0  0  0  0  3  0  0  0  0  0  0
  188.4380  178.7770  140.7620 C   0  0  0  0  0  2  0  0  0  0  0  0
  184.6660  178.3180  142.8780 C   0  0  0  0  0  0  0  0  0  0  0  0
  185.0010  178.5190  145.2740 C   0  0  0  0  0  0  0  0  0  0  0  0
  189.8900  177.0680  142.0000 C   0  0  2  0  0  3  0  0  0  0  0  0
  191.1000  177.6310  142.6210 N   0  0  0  0  0  0  0  0  0  0  0  0
  185.7970  178.4010  146.4100 O   0  0  0  0  0  0  0  0  0  0  0  0
  185.0880  178.0350  141.6220 F   0  0  0  0  0  0  0  0  0  0  0  0
  189.0410  177.2270  147.8630 C   0  0  0  0  0  3  0  0  0  0  0  0
  190.0530  176.2830  140.6840 C   0  0  0  0  0  2  0  0  0  0  0  0
  189.9160  176.3110  138.2160 C   0  0  0  0  0  1  0  0  0  0  0  0
  183.6850  178.9680  145.4160 C   0  0  0  0  0  3  0  0  0  0  0  0
  187.1110  177.9370  146.3540 C   0  0  0  0  0  0  0  0  0  0  0  0
  191.5550  177.1850  145.0060 C   0  0  0  0  0  2  0  0  0  0  0  0
  191.2270  176.4800  147.7350 O   0  0  0  0  0  1  0  0  0  0  0  0
  182.8600  179.0900  144.2990 C   0  0  0  0  0  3  0  0  0  0  0  0
  189.1550  177.4600  144.8380 C   0  0  0  0  0  3  0  0  0  0  0  0
  187.4590  177.2680  142.5560 C   0  0  0  0  0  2  0  0  0  0  0  0
  192.1510  177.9060  141.6480 C   0  0  0  0  0  1  0  0  0  0  0  0
  188.6910  178.0260  142.0700 C   0  0  2  0  0  3  0  0  0  0  0  0
  189.8350  177.1700  139.4630 C   0  0  1  0  0  3  0  0  0  0  0  0
  188.2380  178.6020  138.4120 F   0  0  0  0  0  0  0  0  0  0  0  0
  190.0960  176.9720  147.0920 C   0  0  0  0  0  0  0  0  0  0  0  0
  190.1800  177.1910  145.6370 C   0  0  0  0  0  0  0  0  0  0  0  0
  188.4710  177.8520  139.5500 C   0  0  2  0  0  3  0  0  0  0  0  0
  1 18  1  0  0  0  0
  2 14  1  0  0  0  0
  3 19  1  0  0  0  0
  4  5  1  0  0  0  0
  4  1  2  0  0  0  0
  5  9  1  0  0  0  0
  6 21  2  0  0  0  0
  8  6  1  0  0  0  0
  8  5  2  0  0  0  0
  9 17  2  0  0  0  0
  9 12  1  0  0  0  0
 10 15  1  6  0  0  0
 10 25  1  0  0  0  0
 10 11  1  0  0  0  0
 11  3  1  0  0  0  0
 13  8  1  0  0  0  0
 18 12  1  0  0  0  0
 18  2  2  0  0  0  0
 19 29  1  0  0  0  0
 21 17  1  0  0  0  0
 22  1  1  0  0  0  0
 22 29  2  0  0  0  0
 23  4  1  0  0  0  0
 24 11  1  0  0  0  0
 25  7  1  6  0  0  0
 25 23  1  0  0  0  0
 26 16  1  6  0  0  0
 26 30  1  0  0  0  0
 26 15  1  0  0  0  0
 28 20  1  0  0  0  0
 28 14  2  0  0  0  0
 29 28  1  0  0  0  0
 30 27  1  6  0  0  0
 30  7  1  0  0  0  0
M  END
>  <MODEL>
1

>  <REMARK>
 VINA RESULT:     -12.9      0.000      0.000
  Name = 
  0 active torsions:
  status: ('A' for Active; 'I' for Inactive)
                            x       y       z     vdW  Elec       q    Type
                         _______ _______ _______ _____ _____    ______ ____

>  <TORSDO>
F 0

$$$$
=
 OpenBabel10272413583D

 30 34  0  0  1  0  0  0  0  0999 V2000
  186.5800  178.0890  144.9370 C   0  0  0  0  0  0  0  0  0  0  0  0
  185.9710  178.4390  147.3400 C   0  0  0  0  0  3  0  0  0  0  0  0
  190.7510  177.1950  144.5550 C   0  0  0  0  0  2  0  0  0  0  0  0
  186.0930  177.9920  143.6660 C   0  0  0  0  0  0  0  0  0  0  0  0
  184.6680  178.3490  143.3770 C   0  0  0  0  0  0  0  0  0  0  0  0
  182.7760  178.6750  141.8670 C   0  0  0  0  0  3  0  0  0  0  0  0
  188.2530  178.7920  140.8530 C   0  0  0  0  0  2  0  0  0  0  0  0
  184.1080  178.3030  142.0750 C   0  0  0  0  0  0  0  0  0  0  0  0
  183.8520  178.7820  144.4400 C   0  0  0  0  0  0  0  0  0  0  0  0
  189.4380  177.3300  142.5900 C   0  0  2  0  0  3  0  0  0  0  0  0
  190.4410  178.0380  143.4040 N   0  0  0  0  0  0  0  0  0  0  0  0
  184.3590  178.8420  145.7360 O   0  0  0  0  0  0  0  0  0  0  0  0
  184.8290  177.9180  140.9940 F   0  0  0  0  0  0  0  0  0  0  0  0
  187.2080  178.0560  148.0330 C   0  0  0  0  0  3  0  0  0  0  0  0
  189.9430  176.4220  141.4530 C   0  0  0  0  0  2  0  0  0  0  0  0
  190.3980  176.1760  139.0360 C   0  0  0  0  0  1  0  0  0  0  0  0
  182.5230  179.1510  144.2180 C   0  0  0  0  0  3  0  0  0  0  0  0
  185.6660  178.4650  146.0440 C   0  0  0  0  0  0  0  0  0  0  0  0
  190.3310  177.8820  145.8650 C   0  0  0  0  0  2  0  0  0  0  0  0
  189.3900  177.4520  148.5070 O   0  0  0  0  0  1  0  0  0  0  0  0
  181.9850  179.0960  142.9340 C   0  0  0  0  0  3  0  0  0  0  0  0
  188.0310  177.9710  145.1120 C   0  0  0  0  0  3  0  0  0  0  0  0
  186.9390  177.4200  142.5390 C   0  0  0  0  0  2  0  0  0  0  0  0
  191.6810  178.2790  142.6760 C   0  0  0  0  0  1  0  0  0  0  0  0
  188.2180  178.2050  142.2650 C   0  0  2  0  0  3  0  0  0  0  0  0
  189.9860  177.1560  140.1170 C   0  0  1  0  0  3  0  0  0  0  0  0
  188.6280  178.3540  138.5600 F   0  0  0  0  0  0  0  0  0  0  0  0
  188.4270  177.7930  147.5650 C   0  0  0  0  0  0  0  0  0  0  0  0
  188.8460  177.8600  146.1530 C   0  0  0  0  0  0  0  0  0  0  0  0
  188.6140  177.7480  139.8030 C   0  0  2  0  0  3  0  0  0  0  0  0
  1 22  1  0  0  0  0
  1 18  1  0  0  0  0
  2 14  1  0  0  0  0
  3 19  1  0  0  0  0
  4  1  2  0  0  0  0
  5  4  1  0  0  0  0
  5  9  1  0  0  0  0
  6  8  1  0  0  0  0
  6 21  2  0  0  0  0
  8  5  2  0  0  0  0
  9 12  1  0  0  0  0
 10 15  1  6  0  0  0
 10 11  1  0  0  0  0
 11  3  1  0  0  0  0
 12 18  1  0  0  0  0
 13  8  1  0  0  0  0
 17  9  2  0  0  0  0
 18  2  2  0  0  0  0
 19 29  1  0  0  0  0
 21 17  1  0  0  0  0
 22 29  2  0  0  0  0
 23  4  1  0  0  0  0
 24 11  1  0  0  0  0
 25  7  1  6  0  0  0
 25 23  1  0  0  0  0
 25 10  1  0  0  0  0
 26 16  1  6  0  0  0
 26 15  1  0  0  0  0
 28 14  2  0  0  0  0
 28 20  1  0  0  0  0
 29 28  1  0  0  0  0
 30 27  1  6  0  0  0
 30 26  1  0  0  0  0
 30  7  1  0  0  0  0
M  END
>  <MODEL>
2

>  <REMARK>
 VINA RESULT:     -11.8      1.017      1.298
  Name = 
  0 active torsions:
  status: ('A' for Active; 'I' for Inactive)
                            x       y       z     vdW  Elec       q    Type
                         _______ _______ _______ _____ _____    ______ ____

>  <TORSDO>
F 0

$$$$
=
 OpenBabel10272413583D

 30 34  0  0  1  0  0  0  0  0999 V2000
  186.4740  178.1710  142.4280 C   0  0  0  0  0  0  0  0  0  0  0  0
  184.3620  178.8600  141.2750 C   0  0  0  0  0  3  0  0  0  0  0  0
  185.8710  177.9310  146.6600 C   0  0  0  0  0  2  0  0  0  0  0  0
  187.7620  177.7570  142.2420 C   0  0  0  0  0  0  0  0  0  0  0  0
  188.3820  177.8100  140.8800 C   0  0  0  0  0  0  0  0  0  0  0  0
  190.2500  177.5250  139.3330 C   0  0  0  0  0  3  0  0  0  0  0  0
  190.2310  178.3650  144.8420 C   0  0  0  0  0  2  0  0  0  0  0  0
  189.7230  177.4280  140.6250 C   0  0  0  0  0  0  0  0  0  0  0  0
  187.6080  178.2930  139.8070 C   0  0  0  0  0  0  0  0  0  0  0  0
  188.0270  177.4740  145.7970 C   0  0  2  0  0  3  0  0  0  0  0  0
  187.2160  178.4790  146.5030 N   0  0  0  0  0  0  0  0  0  0  0  0
  186.2860  178.6780  140.0090 O   0  0  0  0  0  0  0  0  0  0  0  0
  190.5410  176.9720  141.6050 F   0  0  0  0  0  0  0  0  0  0  0  0
  183.3840  178.8250  142.3710 C   0  0  0  0  0  3  0  0  0  0  0  0
  188.8250  176.4660  146.6460 C   0  0  0  0  0  2  0  0  0  0  0  0
  191.0030  175.8500  147.6400 C   0  0  0  0  0  1  0  0  0  0  0  0
  188.1490  178.3860  138.5210 C   0  0  0  0  0  3  0  0  0  0  0  0
  185.6660  178.5900  141.2560 C   0  0  0  0  0  0  0  0  0  0  0  0
  184.8450  178.7730  145.8850 C   0  0  0  0  0  2  0  0  0  0  0  0
  182.3940  178.6950  144.4570 O   0  0  0  0  0  1  0  0  0  0  0  0
  189.4670  178.0010  138.2840 C   0  0  0  0  0  3  0  0  0  0  0  0
  186.0120  178.3330  143.8090 C   0  0  0  0  0  3  0  0  0  0  0  0
  188.5600  177.1330  143.3770 C   0  0  0  0  0  2  0  0  0  0  0  0
  187.7360  178.7830  147.8310 C   0  0  0  0  0  1  0  0  0  0  0  0
  188.7570  178.0560  144.5760 C   0  0  2  0  0  3  0  0  0  0  0  0
  190.2570  176.9320  146.8840 C   0  0  1  0  0  3  0  0  0  0  0  0
  192.2630  177.5720  145.7560 F   0  0  0  0  0  0  0  0  0  0  0  0
  183.5500  178.6870  143.6840 C   0  0  0  0  0  0  0  0  0  0  0  0
  184.8390  178.5570  144.3870 C   0  0  0  0  0  0  0  0  0  0  0  0
  190.9420  177.2160  145.5490 C   0  0  2  0  0  3  0  0  0  0  0  0
  1 22  1  0  0  0  0
  2 14  1  0  0  0  0
  4  1  2  0  0  0  0
  4 23  1  0  0  0  0
  5  4  1  0  0  0  0
  6  8  2  0  0  0  0
  7 30  1  0  0  0  0
  8  5  1  0  0  0  0
  8 13  1  0  0  0  0
  9 12  1  0  0  0  0
  9  5  2  0  0  0  0
 10 11  1  0  0  0  0
 10 15  1  1  0  0  0
 11  3  1  0  0  0  0
 11 24  1  0  0  0  0
 12 18  1  0  0  0  0
 14 28  2  0  0  0  0
 15 26  1  0  0  0  0
 17  9  1  0  0  0  0
 18  2  2  0  0  0  0
 18  1  1  0  0  0  0
 19  3  1  0  0  0  0
 21 17  2  0  0  0  0
 21  6  1  0  0  0  0
 22 29  2  0  0  0  0
 25 23  1  6  0  0  0
 25  7  1  0  0  0  0
 25 10  1  0  0  0  0
 26 16  1  6  0  0  0
 28 29  1  0  0  0  0
 28 20  1  0  0  0  0
 29 19  1  0  0  0  0
 30 27  1  1  0  0  0
 30 26  1  0  0  0  0
M  END
>  <MODEL>
3

>  <REMARK>
 VINA RESULT:     -11.3      2.711      6.445
  Name = 
  0 active torsions:
  status: ('A' for Active; 'I' for Inactive)
                            x       y       z     vdW  Elec       q    Type
                         _______ _______ _______ _____ _____    ______ ____

>  <TORSDO>
F 0

$$$$
=
 OpenBabel10272413583D

 30 34  0  0  1  0  0  0  0  0999 V2000
  188.4400  177.6710  142.6550 C   0  0  0  0  0  0  0  0  0  0  0  0
  190.8730  177.3690  142.1510 C   0  0  0  0  0  3  0  0  0  0  0  0
  186.1930  178.1050  139.0360 C   0  0  0  0  0  2  0  0  0  0  0  0
  187.4990  177.6810  143.6440 C   0  0  0  0  0  0  0  0  0  0  0  0
  187.9170  177.6610  145.0820 C   0  0  0  0  0  0  0  0  0  0  0  0
  187.4490  177.7080  147.4780 C   0  0  0  0  0  3  0  0  0  0  0  0
  184.4370  179.5880  143.1840 C   0  0  0  0  0  2  0  0  0  0  0  0
  186.9930  177.7040  146.1570 C   0  0  0  0  0  0  0  0  0  0  0  0
  189.2920  177.6310  145.3830 C   0  0  0  0  0  0  0  0  0  0  0  0
  185.0450  178.2270  141.1010 C   0  0  2  0  0  3  0  0  0  0  0  0
  185.5650  179.0260  139.9790 N   0  0  0  0  0  0  0  0  0  0  0  0
  190.2360  177.5870  144.3600 O   0  0  0  0  0  0  0  0  0  0  0  0
  185.6540  177.7550  145.9540 F   0  0  0  0  0  0  0  0  0  0  0  0
  190.8730  177.2330  140.6880 C   0  0  0  0  0  3  0  0  0  0  0  0
  183.5870  177.7360  141.0210 C   0  0  0  0  0  2  0  0  0  0  0  0
  181.2330  178.0950  141.6840 C   0  0  0  0  0  1  0  0  0  0  0  0
  189.7340  177.6370  146.7090 C   0  0  0  0  0  3  0  0  0  0  0  0
  189.8740  177.5520  143.0130 C   0  0  0  0  0  0  0  0  0  0  0  0
  187.7020  178.3810  138.9240 C   0  0  0  0  0  2  0  0  0  0  0  0
  190.2420  177.2050  138.4630 O   0  0  0  0  0  1  0  0  0  0  0  0
  188.8140  177.6740  147.7550 C   0  0  0  0  0  3  0  0  0  0  0  0
  187.9830  177.9450  141.2890 C   0  0  0  0  0  3  0  0  0  0  0  0
  186.0140  177.6020  143.3210 C   0  0  0  0  0  2  0  0  0  0  0  0
  184.5140  179.7470  139.2720 C   0  0  0  0  0  1  0  0  0  0  0  0
  185.5040  178.7590  142.4670 C   0  0  2  0  0  3  0  0  0  0  0  0
  182.6260  178.6900  141.7220 C   0  0  1  0  0  3  0  0  0  0  0  0
  182.1650  179.7190  143.8270 F   0  0  0  0  0  0  0  0  0  0  0  0
  189.9060  177.4270  139.7930 C   0  0  0  0  0  0  0  0  0  0  0  0
  188.5330  177.8780  140.0840 C   0  0  0  0  0  0  0  0  0  0  0  0
  183.0720  178.9100  143.1660 C   0  0  2  0  0  3  0  0  0  0  0  0
  1 18  1  0  0  0  0
  1  4  2  0  0  0  0
  2 18  2  0  0  0  0
  3 11  1  0  0  0  0
  4  5  1  0  0  0  0
  5  9  2  0  0  0  0
  5  8  1  0  0  0  0
  6 21  1  0  0  0  0
  8  6  2  0  0  0  0
  9 17  1  0  0  0  0
 10 15  1  1  0  0  0
 10 25  1  0  0  0  0
 11 10  1  0  0  0  0
 12  9  1  0  0  0  0
 13  8  1  0  0  0  0
 14  2  1  0  0  0  0
 15 26  1  0  0  0  0
 17 21  2  0  0  0  0
 18 12  1  0  0  0  0
 19  3  1  0  0  0  0
 19 29  1  0  0  0  0
 20 28  1  0  0  0  0
 22  1  1  0  0  0  0
 23  4  1  0  0  0  0
 24 11  1  0  0  0  0
 25  7  1  1  0  0  0
 25 23  1  0  0  0  0
 26 16  1  1  0  0  0
 26 30  1  0  0  0  0
 28 29  1  0  0  0  0
 28 14  2  0  0  0  0
 29 22  2  0  0  0  0
 30  7  1  0  0  0  0
 30 27  1  1  0  0  0
M  END
>  <MODEL>
4

>  <REMARK>
 VINA RESULT:     -11.2      2.733      6.059
  Name = 
  0 active torsions:
  status: ('A' for Active; 'I' for Inactive)
                            x       y       z     vdW  Elec       q    Type
                         _______ _______ _______ _____ _____    ______ ____

>  <TORSDO>
F 0

$$$$
=
 OpenBabel10272413583D

 30 34  0  0  1  0  0  0  0  0999 V2000
  186.1700  178.3670  140.5570 C   0  0  0  0  0  0  0  0  0  0  0  0
  185.7130  178.5020  138.1000 C   0  0  0  0  0  3  0  0  0  0  0  0
  190.3090  177.5360  141.2770 C   0  0  0  0  0  2  0  0  0  0  0  0
  185.6330  178.5290  141.8010 C   0  0  0  0  0  0  0  0  0  0  0  0
  184.1580  178.7270  141.9660 C   0  0  0  0  0  0  0  0  0  0  0  0
  182.1450  179.0240  143.3170 C   0  0  0  0  0  3  0  0  0  0  0  0
  187.0410  176.6990  144.6110 C   0  0  0  0  0  2  0  0  0  0  0  0
  183.5320  178.8670  143.2310 C   0  0  0  0  0  0  0  0  0  0  0  0
  183.3480  178.7430  140.8140 C   0  0  0  0  0  0  0  0  0  0  0  0
  188.8570  177.7410  143.1340 C   0  0  2  0  0  3  0  0  0  0  0  0
  189.5910  176.7770  142.2970 N   0  0  0  0  0  0  0  0  0  0  0  0
  183.9190  178.6110  139.5510 O   0  0  0  0  0  0  0  0  0  0  0  0
  184.2360  178.8420  144.3890 F   0  0  0  0  0  0  0  0  0  0  0  0
  187.0650  178.4380  137.5280 C   0  0  0  0  0  3  0  0  0  0  0  0
  189.5540  178.2740  144.4000 C   0  0  0  0  0  2  0  0  0  0  0  0
  189.8280  178.1010  146.8510 C   0  0  0  0  0  1  0  0  0  0  0  0
  181.9640  178.9000  140.9150 C   0  0  0  0  0  3  0  0  0  0  0  0
  185.2950  178.4780  139.3640 C   0  0  0  0  0  0  0  0  0  0  0  0
  189.7910  177.1880  139.8720 C   0  0  0  0  0  2  0  0  0  0  0  0
  189.3480  178.1890  137.2540 O   0  0  0  0  0  1  0  0  0  0  0  0
  181.3630  179.0410  142.1640 C   0  0  0  0  0  3  0  0  0  0  0  0
  187.5670  177.9290  140.4790 C   0  0  0  0  0  3  0  0  0  0  0  0
  186.5180  178.6220  143.0360 C   0  0  0  0  0  2  0  0  0  0  0  0
  190.5690  176.0080  143.0580 C   0  0  0  0  0  1  0  0  0  0  0  0
  187.3700  177.3810  143.2820 C   0  0  2  0  0  3  0  0  0  0  0  0
  189.1840  177.4620  145.6370 C   0  0  1  0  0  3  0  0  0  0  0  0
  187.3270  176.7470  146.9580 F   0  0  0  0  0  0  0  0  0  0  0  0
  188.2390  178.1630  138.0920 C   0  0  0  0  0  0  0  0  0  0  0  0
  188.4610  177.8100  139.5060 C   0  0  0  0  0  0  0  0  0  0  0  0
  187.6660  177.4220  145.8000 C   0  0  2  0  0  3  0  0  0  0  0  0
  1  4  2  0  0  0  0
  2 18  2  0  0  0  0
  3 11  1  0  0  0  0
  4  5  1  0  0  0  0
  4 23  1  0  0  0  0
  5  8  2  0  0  0  0
  7 30  1  0  0  0  0
  8  6  1  0  0  0  0
  8 13  1  0  0  0  0
  9 17  2  0  0  0  0
  9  5  1  0  0  0  0
 10 25  1  0  0  0  0
 10 15  1  1  0  0  0
 11 24  1  0  0  0  0
 11 10  1  0  0  0  0
 12  9  1  0  0  0  0
 14 28  2  0  0  0  0
 14  2  1  0  0  0  0
 15 26  1  0  0  0  0
 17 21  1  0  0  0  0
 18 12  1  0  0  0  0
 18  1  1  0  0  0  0
 19  3  1  0  0  0  0
 20 28  1  0  0  0  0
 21  6  2  0  0  0  0
 22  1  1  0  0  0  0
 25 23  1  1  0  0  0
 25  7  1  0  0  0  0
 26 30  1  0  0  0  0
 26 16  1  1  0  0  0
 28 29  1  0  0  0  0
 29 19  1  0  0  0  0
 29 22  2  0  0  0  0
 30 27  1  1  0  0  0
M  END
>  <MODEL>
5

>  <REMARK>
 VINA RESULT:     -10.0      3.046      5.788
  Name = 
  0 active torsions:
  status: ('A' for Active; 'I' for Inactive)
                            x       y       z     vdW  Elec       q    Type
                         _______ _______ _______ _____ _____    ______ ____

>  <TORSDO>
F 0

$$$$
