=
 OpenBabel10272413183D

 32 36  0  0  1  0  0  0  0  0999 V2000
  189.0660  176.9830  143.3380 C   0  0  0  0  0  2  0  0  0  0  0  0
  188.3530  177.0410  144.6900 C   0  0  2  0  0  3  0  0  0  0  0  0
  186.9710  177.6230  144.5640 C   0  0  0  0  0  0  0  0  0  0  0  0
  186.3130  178.0610  145.7200 C   0  0  0  0  0  3  0  0  0  0  0  0
  183.0200  178.6580  141.9510 C   0  0  0  0  0  3  0  0  0  0  0  0
  186.3040  177.6610  143.3280 C   0  0  0  0  0  3  0  0  0  0  0  0
  183.0280  179.0640  144.3420 C   0  0  0  0  0  3  0  0  0  0  0  0
  184.3410  178.5890  144.4190 C   0  0  0  0  0  0  0  0  0  0  0  0
  185.0030  178.5460  145.6480 C   0  0  0  0  0  3  0  0  0  0  0  0
  184.9980  178.1450  143.2500 C   0  0  0  0  0  0  0  0  0  0  0  0
  182.3700  179.0980  143.1090 C   0  0  0  0  0  3  0  0  0  0  0  0
  184.3330  178.1820  142.0210 C   0  0  0  0  0  3  0  0  0  0  0  0
  189.1020  176.9520  147.0560 C   0  0  1  0  0  3  0  0  0  0  0  0
  189.1950  177.7330  145.7580 C   0  0  1  0  0  3  0  0  0  0  0  0
  190.3330  176.8270  146.1830 C   0  0  0  0  0  2  0  0  0  0  0  0
  188.4030  178.2840  148.9820 C   0  0  0  0  0  2  0  0  0  0  0  0
  189.3910  177.8690  148.1950 C   0  0  0  0  0  3  0  0  0  0  0  0
  190.1020  178.0950  143.1850 C   0  0  0  0  0  2  0  0  0  0  0  0
  191.4380  177.5800  142.6470 C   0  0  1  0  0  3  0  0  0  0  0  0
  191.7060  176.2950  143.1250 O   0  0  0  0  0  1  0  0  0  0  0  0
  191.5660  177.6310  141.1170 C   0  0  1  0  0  3  0  0  0  0  0  0
  192.9020  177.5230  140.7270 O   0  0  0  0  0  1  0  0  0  0  0  0
  190.7420  176.5470  140.4180 C   0  0  0  0  0  2  0  0  0  0  0  0
  190.5670  176.7660  138.9130 C   0  0  1  0  0  3  0  0  0  0  0  0
  191.2140  175.6580  138.0880 C   0  0  2  0  0  3  0  0  0  0  0  0
  192.5120  176.1470  137.4720 C   0  0  2  0  0  3  0  0  0  0  0  0
  191.2700  176.0660  136.6270 C   0  0  1  0  0  3  0  0  0  0  0  0
  192.6000  175.6150  136.0550 C   0  0  0  0  0  2  0  0  0  0  0  0
  189.0920  176.9390  138.5560 C   0  0  0  0  0  2  0  0  0  0  0  0
  187.6560  178.4040  140.1230 C   0  0  0  0  0  1  0  0  0  0  0  0
  188.9480  179.2860  138.3710 O   0  0  0  0  0  0  0  0  0  0  0  0
  188.5870  178.2840  138.9670 C   0  0  0  0  0  0  0  0  0  0  0  0
  2  1  1  6  0  0  0
  3  2  1  0  0  0  0
  3  4  1  0  0  0  0
  5 12  2  0  0  0  0
  5 11  1  0  0  0  0
  6  3  2  0  0  0  0
  7  8  1  0  0  0  0
  8  9  1  0  0  0  0
  9  4  2  0  0  0  0
 10  6  1  0  0  0  0
 10  8  2  0  0  0  0
 11  7  2  0  0  0  0
 12 10  1  0  0  0  0
 13 17  1  1  0  0  0
 14  2  1  6  0  0  0
 14 15  1  0  0  0  0
 14 13  1  0  0  0  0
 15 13  1  0  0  0  0
 17 16  2  0  0  0  0
 18  1  1  0  0  0  0
 19 20  1  6  0  0  0
 19 18  1  0  0  0  0
 21 22  1  1  0  0  0
 21 19  1  0  0  0  0
 23 21  1  0  0  0  0
 24 29  1  1  0  0  0
 24 23  1  0  0  0  0
 25 24  1  1  0  0  0
 26 28  1  6  0  0  0
 26 25  1  0  0  0  0
 27 28  1  6  0  0  0
 27 26  1  0  0  0  0
 27 25  1  0  0  0  0
 29 32  1  0  0  0  0
 31 32  2  0  0  0  0
 32 30  1  0  0  0  0
M  END
>  <MODEL>
1

>  <REMARK>
 VINA RESULT:      -8.9      0.000      0.000
  Name = 
  12 active torsions:
  status: ('A' for Active; 'I' for Inactive)
    1  A    between atoms: C_1  and  C_5
    2  A    between atoms: C_1  and  C_30
    3  A    between atoms: C_2  and  C_5
    4  A    between atoms: C_3  and  C_20
    5  A    between atoms: C_4  and  C_24
    6  A    between atoms: C_4  and  C_30
    7  A    between atoms: C_5  and  C_14
    8  A    between atoms: C_13  and  C_29
    9  A    between atoms: C_15  and  C_20
   10  A    between atoms: C_15  and  C_26
   11  A    between atoms: C_16  and  C_20
   12  A    between atoms: C_16  and  C_24
                            x       y       z     vdW  Elec       q    Type
                         _______ _______ _______ _____ _____    ______ ____

>  <TORSDO>
F 12

$$$$
=
 OpenBabel10272413183D

 32 36  0  0  1  0  0  0  0  0999 V2000
  189.6280  178.0070  142.8020 C   0  0  0  0  0  2  0  0  0  0  0  0
  189.0970  177.4370  144.1180 C   0  0  2  0  0  3  0  0  0  0  0  0
  187.6730  177.8490  144.3680 C   0  0  0  0  0  0  0  0  0  0  0  0
  187.2460  178.0450  145.6870 C   0  0  0  0  0  3  0  0  0  0  0  0
  183.1640  178.7070  142.8060 C   0  0  0  0  0  3  0  0  0  0  0  0
  186.7500  177.9630  143.3150 C   0  0  0  0  0  3  0  0  0  0  0  0
  183.6570  178.7940  145.1790 C   0  0  0  0  0  3  0  0  0  0  0  0
  184.9940  178.4840  144.9130 C   0  0  0  0  0  0  0  0  0  0  0  0
  185.9110  178.3640  145.9600 C   0  0  0  0  0  3  0  0  0  0  0  0
  185.4180  178.2830  143.5800 C   0  0  0  0  0  0  0  0  0  0  0  0
  182.7440  178.9050  144.1260 C   0  0  0  0  0  3  0  0  0  0  0  0
  184.4990  178.3960  142.5320 C   0  0  0  0  0  3  0  0  0  0  0  0
  190.8160  176.4990  145.6460 C   0  0  1  0  0  3  0  0  0  0  0  0
  190.0210  177.7430  145.2940 C   0  0  1  0  0  3  0  0  0  0  0  0
  191.4680  177.6160  144.8600 C   0  0  0  0  0  2  0  0  0  0  0  0
  192.2170  175.8010  147.5230 C   0  0  0  0  0  2  0  0  0  0  0  0
  191.2400  176.5820  147.0720 C   0  0  0  0  0  3  0  0  0  0  0  0
  189.7030  176.9480  141.7040 C   0  0  0  0  0  2  0  0  0  0  0  0
  189.0750  177.4190  140.3920 C   0  0  1  0  0  3  0  0  0  0  0  0
  188.6480  178.7450  140.4910 O   0  0  0  0  0  1  0  0  0  0  0  0
  189.9690  177.2250  139.1570 C   0  0  1  0  0  3  0  0  0  0  0  0
  190.3750  175.8930  139.0440 O   0  0  0  0  0  1  0  0  0  0  0  0
  189.2870  177.6630  137.8590 C   0  0  0  0  0  2  0  0  0  0  0  0
  187.8890  177.0730  137.6560 C   0  0  1  0  0  3  0  0  0  0  0  0
  186.8160  178.1520  137.5470 C   0  0  2  0  0  3  0  0  0  0  0  0
  185.8710  178.0780  138.7340 C   0  0  2  0  0  3  0  0  0  0  0  0
  185.4480  177.5090  137.4070 C   0  0  1  0  0  3  0  0  0  0  0  0
  184.4580  178.3050  138.2350 C   0  0  0  0  0  2  0  0  0  0  0  0
  187.8640  176.1370  136.4490 C   0  0  0  0  0  2  0  0  0  0  0  0
  186.4730  174.0890  137.1820 C   0  0  0  0  0  1  0  0  0  0  0  0
  188.8080  174.0340  136.9470 O   0  0  0  0  0  0  0  0  0  0  0  0
  187.7920  174.7060  136.8720 C   0  0  0  0  0  0  0  0  0  0  0  0
  2  1  1  6  0  0  0
  2  3  1  0  0  0  0
  3  4  1  0  0  0  0
  4  9  2  0  0  0  0
  5 11  1  0  0  0  0
  6 10  1  0  0  0  0
  6  3  2  0  0  0  0
  8  7  1  0  0  0  0
  8  9  1  0  0  0  0
 10  8  2  0  0  0  0
 11  7  2  0  0  0  0
 12  5  2  0  0  0  0
 12 10  1  0  0  0  0
 13 17  1  1  0  0  0
 14  2  1  6  0  0  0
 14 13  1  0  0  0  0
 15 14  1  0  0  0  0
 15 13  1  0  0  0  0
 17 16  2  0  0  0  0
 18  1  1  0  0  0  0
 19 20  1  1  0  0  0
 19 18  1  0  0  0  0
 21 22  1  6  0  0  0
 21 19  1  0  0  0  0
 23 21  1  0  0  0  0
 24 29  1  6  0  0  0
 24 23  1  0  0  0  0
 25 24  1  1  0  0  0
 25 26  1  0  0  0  0
 26 28  1  6  0  0  0
 27 25  1  0  0  0  0
 27 28  1  6  0  0  0
 27 26  1  0  0  0  0
 29 32  1  0  0  0  0
 32 31  2  0  0  0  0
 32 30  1  0  0  0  0
M  END
>  <MODEL>
2

>  <REMARK>
 VINA RESULT:      -8.7      2.136      3.515
  Name = 
  12 active torsions:
  status: ('A' for Active; 'I' for Inactive)
    1  A    between atoms: C_1  and  C_5
    2  A    between atoms: C_1  and  C_30
    3  A    between atoms: C_2  and  C_5
    4  A    between atoms: C_3  and  C_20
    5  A    between atoms: C_4  and  C_24
    6  A    between atoms: C_4  and  C_30
    7  A    between atoms: C_5  and  C_14
    8  A    between atoms: C_13  and  C_29
    9  A    between atoms: C_15  and  C_20
   10  A    between atoms: C_15  and  C_26
   11  A    between atoms: C_16  and  C_20
   12  A    between atoms: C_16  and  C_24
                            x       y       z     vdW  Elec       q    Type
                         _______ _______ _______ _____ _____    ______ ____

>  <TORSDO>
F 12

$$$$
=
 OpenBabel10272413183D

 32 36  0  0  1  0  0  0  0  0999 V2000
  188.7670  176.8330  143.1240 C   0  0  0  0  0  2  0  0  0  0  0  0
  188.0610  177.0310  144.4660 C   0  0  2  0  0  3  0  0  0  0  0  0
  186.6940  177.6320  144.2910 C   0  0  0  0  0  0  0  0  0  0  0  0
  186.0250  178.1340  145.4140 C   0  0  0  0  0  3  0  0  0  0  0  0
  182.8070  178.6210  141.5660 C   0  0  0  0  0  3  0  0  0  0  0  0
  186.0480  177.6260  143.0430 C   0  0  0  0  0  3  0  0  0  0  0  0
  182.7840  179.1350  143.9350 C   0  0  0  0  0  3  0  0  0  0  0  0
  184.0850  178.6400  144.0560 C   0  0  0  0  0  0  0  0  0  0  0  0
  184.7260  178.6400  145.2980 C   0  0  0  0  0  3  0  0  0  0  0  0
  184.7530  178.1300  142.9210 C   0  0  0  0  0  0  0  0  0  0  0  0
  182.1460  179.1250  142.6910 C   0  0  0  0  0  3  0  0  0  0  0  0
  184.1090  178.1230  141.6790 C   0  0  0  0  0  3  0  0  0  0  0  0
  188.8980  177.0790  146.8040 C   0  0  1  0  0  3  0  0  0  0  0  0
  188.9240  177.7960  145.4660 C   0  0  1  0  0  3  0  0  0  0  0  0
  190.1000  176.9400  145.8930 C   0  0  0  0  0  2  0  0  0  0  0  0
  188.3700  178.2040  148.9080 C   0  0  0  0  0  2  0  0  0  0  0  0
  189.2050  178.0590  147.8840 C   0  0  0  0  0  3  0  0  0  0  0  0
  189.6050  178.0470  142.7300 C   0  0  0  0  0  2  0  0  0  0  0  0
  191.0160  177.6640  142.2810 C   0  0  1  0  0  3  0  0  0  0  0  0
  191.4200  176.4660  142.8750 O   0  0  0  0  0  1  0  0  0  0  0  0
  191.2030  177.6090  140.7570 C   0  0  1  0  0  3  0  0  0  0  0  0
  192.5590  177.5770  140.4250 O   0  0  0  0  0  1  0  0  0  0  0  0
  190.4920  176.4140  140.1180 C   0  0  0  0  0  2  0  0  0  0  0  0
  190.0160  176.6620  138.6840 C   0  0  1  0  0  3  0  0  0  0  0  0
  189.3720  178.0350  138.5170 C   0  0  2  0  0  3  0  0  0  0  0  0
  187.9810  177.8980  137.9240 C   0  0  2  0  0  3  0  0  0  0  0  0
  189.1290  178.3170  137.0450 C   0  0  1  0  0  3  0  0  0  0  0  0
  187.7840  179.0040  136.9060 C   0  0  0  0  0  2  0  0  0  0  0  0
  191.1560  176.4560  137.6890 C   0  0  0  0  0  2  0  0  0  0  0  0
  193.0580  174.7100  137.6770 C   0  0  0  0  0  1  0  0  0  0  0  0
  190.7830  174.1270  137.6480 O   0  0  0  0  0  0  0  0  0  0  0  0
  191.6030  175.0300  137.6620 C   0  0  0  0  0  0  0  0  0  0  0  0
  2  1  1  6  0  0  0
  3  2  1  0  0  0  0
  3  4  1  0  0  0  0
  5 12  2  0  0  0  0
  5 11  1  0  0  0  0
  6  3  2  0  0  0  0
  7  8  1  0  0  0  0
  8  9  1  0  0  0  0
  9  4  2  0  0  0  0
 10  6  1  0  0  0  0
 10  8  2  0  0  0  0
 11  7  2  0  0  0  0
 12 10  1  0  0  0  0
 13 17  1  1  0  0  0
 14  2  1  6  0  0  0
 14 15  1  0  0  0  0
 14 13  1  0  0  0  0
 15 13  1  0  0  0  0
 17 16  2  0  0  0  0
 18  1  1  0  0  0  0
 19 18  1  0  0  0  0
 19 20  1  1  0  0  0
 21 22  1  1  0  0  0
 21 19  1  0  0  0  0
 23 21  1  0  0  0  0
 24 29  1  6  0  0  0
 24 23  1  0  0  0  0
 25 24  1  6  0  0  0
 26 28  1  1  0  0  0
 26 25  1  0  0  0  0
 27 28  1  1  0  0  0
 27 26  1  0  0  0  0
 27 25  1  0  0  0  0
 31 32  2  0  0  0  0
 32 30  1  0  0  0  0
 32 29  1  0  0  0  0
M  END
>  <MODEL>
3

>  <REMARK>
 VINA RESULT:      -8.7      1.200      2.430
  Name = 
  12 active torsions:
  status: ('A' for Active; 'I' for Inactive)
    1  A    between atoms: C_1  and  C_5
    2  A    between atoms: C_1  and  C_30
    3  A    between atoms: C_2  and  C_5
    4  A    between atoms: C_3  and  C_20
    5  A    between atoms: C_4  and  C_24
    6  A    between atoms: C_4  and  C_30
    7  A    between atoms: C_5  and  C_14
    8  A    between atoms: C_13  and  C_29
    9  A    between atoms: C_15  and  C_20
   10  A    between atoms: C_15  and  C_26
   11  A    between atoms: C_16  and  C_20
   12  A    between atoms: C_16  and  C_24
                            x       y       z     vdW  Elec       q    Type
                         _______ _______ _______ _____ _____    ______ ____

>  <TORSDO>
F 12

$$$$
=
 OpenBabel10272413183D

 32 36  0  0  1  0  0  0  0  0999 V2000
  189.6530  178.0770  142.8310 C   0  0  0  0  0  2  0  0  0  0  0  0
  189.1620  177.4550  144.1390 C   0  0  2  0  0  3  0  0  0  0  0  0
  187.7450  177.8530  144.4460 C   0  0  0  0  0  0  0  0  0  0  0  0
  187.3650  178.0300  145.7820 C   0  0  0  0  0  3  0  0  0  0  0  0
  183.1750  178.6930  143.0620 C   0  0  0  0  0  3  0  0  0  0  0  0
  186.7830  177.9720  143.4290 C   0  0  0  0  0  3  0  0  0  0  0  0
  183.7550  178.7560  145.4150 C   0  0  0  0  0  3  0  0  0  0  0  0
  185.0840  178.4600  145.0960 C   0  0  0  0  0  0  0  0  0  0  0  0
  186.0390  178.3350  146.1070 C   0  0  0  0  0  3  0  0  0  0  0  0
  185.4600  178.2790  143.7470 C   0  0  0  0  0  0  0  0  0  0  0  0
  182.8030  178.8720  144.3980 C   0  0  0  0  0  3  0  0  0  0  0  0
  184.5020  178.3960  142.7350 C   0  0  0  0  0  3  0  0  0  0  0  0
  190.8760  176.4450  145.6260 C   0  0  1  0  0  3  0  0  0  0  0  0
  190.1200  177.7190  145.2990 C   0  0  1  0  0  3  0  0  0  0  0  0
  191.5520  177.5440  144.8340 C   0  0  0  0  0  2  0  0  0  0  0  0
  192.3210  175.7170  147.4580 C   0  0  0  0  0  2  0  0  0  0  0  0
  191.3310  176.5020  147.0440 C   0  0  0  0  0  3  0  0  0  0  0  0
  189.7180  177.0570  141.6970 C   0  0  0  0  0  2  0  0  0  0  0  0
  188.8330  177.4420  140.5100 C   0  0  1  0  0  3  0  0  0  0  0  0
  188.3120  178.7270  140.6740 O   0  0  0  0  0  1  0  0  0  0  0  0
  189.5140  177.2990  139.1400 C   0  0  1  0  0  3  0  0  0  0  0  0
  189.5400  178.5240  138.4690 O   0  0  0  0  0  1  0  0  0  0  0  0
  190.9360  176.7430  139.2420 C   0  0  0  0  0  2  0  0  0  0  0  0
  191.2390  175.6140  138.2530 C   0  0  1  0  0  3  0  0  0  0  0  0
  190.0220  175.2370  137.4150 C   0  0  2  0  0  3  0  0  0  0  0  0
  190.0620  173.7600  137.0600 C   0  0  2  0  0  3  0  0  0  0  0  0
  190.4650  174.7850  136.0340 C   0  0  1  0  0  3  0  0  0  0  0  0
  189.6110  173.6010  135.6220 C   0  0  0  0  0  2  0  0  0  0  0  0
  192.4360  175.9680  137.3730 C   0  0  0  0  0  2  0  0  0  0  0  0
  193.9190  173.8620  137.2110 C   0  0  0  0  0  1  0  0  0  0  0  0
  194.4490  175.7000  138.5730 O   0  0  0  0  0  0  0  0  0  0  0  0
  193.6570  175.2110  137.7840 C   0  0  0  0  0  0  0  0  0  0  0  0
  2  1  1  6  0  0  0
  2  3  1  0  0  0  0
  3  4  1  0  0  0  0
  4  9  2  0  0  0  0
  5 11  1  0  0  0  0
  6 10  1  0  0  0  0
  6  3  2  0  0  0  0
  8  7  1  0  0  0  0
  8  9  1  0  0  0  0
 10  8  2  0  0  0  0
 11  7  2  0  0  0  0
 12  5  2  0  0  0  0
 12 10  1  0  0  0  0
 13 17  1  1  0  0  0
 14  2  1  6  0  0  0
 14 13  1  0  0  0  0
 15 14  1  0  0  0  0
 15 13  1  0  0  0  0
 17 16  2  0  0  0  0
 18  1  1  0  0  0  0
 19 20  1  1  0  0  0
 19 18  1  0  0  0  0
 21 22  1  1  0  0  0
 21 23  1  0  0  0  0
 21 19  1  0  0  0  0
 24 29  1  6  0  0  0
 24 23  1  0  0  0  0
 25 24  1  1  0  0  0
 26 28  1  6  0  0  0
 26 25  1  0  0  0  0
 27 28  1  6  0  0  0
 27 26  1  0  0  0  0
 27 25  1  0  0  0  0
 29 32  1  0  0  0  0
 30 32  1  0  0  0  0
 32 31  2  0  0  0  0
M  END
>  <MODEL>
4

>  <REMARK>
 VINA RESULT:      -8.6      1.638      3.132
  Name = 
  12 active torsions:
  status: ('A' for Active; 'I' for Inactive)
    1  A    between atoms: C_1  and  C_5
    2  A    between atoms: C_1  and  C_30
    3  A    between atoms: C_2  and  C_5
    4  A    between atoms: C_3  and  C_20
    5  A    between atoms: C_4  and  C_24
    6  A    between atoms: C_4  and  C_30
    7  A    between atoms: C_5  and  C_14
    8  A    between atoms: C_13  and  C_29
    9  A    between atoms: C_15  and  C_20
   10  A    between atoms: C_15  and  C_26
   11  A    between atoms: C_16  and  C_20
   12  A    between atoms: C_16  and  C_24
                            x       y       z     vdW  Elec       q    Type
                         _______ _______ _______ _____ _____    ______ ____

>  <TORSDO>
F 12

$$$$
=
 OpenBabel10272413183D

 32 36  0  0  1  0  0  0  0  0999 V2000
  185.8480  178.0180  142.1350 C   0  0  0  0  0  2  0  0  0  0  0  0
  185.0260  178.6180  143.2770 C   0  0  2  0  0  3  0  0  0  0  0  0
  185.7090  178.4430  144.6050 C   0  0  0  0  0  0  0  0  0  0  0  0
  185.0780  178.9210  145.7600 C   0  0  0  0  0  3  0  0  0  0  0  0
  189.5540  177.1610  147.2670 C   0  0  0  0  0  3  0  0  0  0  0  0
  186.9950  177.8850  144.6970 C   0  0  0  0  0  3  0  0  0  0  0  0
  187.6350  178.1920  148.3330 C   0  0  0  0  0  3  0  0  0  0  0  0
  186.9900  178.2730  147.0960 C   0  0  0  0  0  0  0  0  0  0  0  0
  185.7140  178.8340  147.0030 C   0  0  0  0  0  3  0  0  0  0  0  0
  187.6340  177.7940  145.9340 C   0  0  0  0  0  0  0  0  0  0  0  0
  188.9160  177.6360  148.4170 C   0  0  0  0  0  3  0  0  0  0  0  0
  188.9150  177.2390  146.0250 C   0  0  0  0  0  3  0  0  0  0  0  0
  182.6380  179.3010  143.2340 C   0  0  1  0  0  3  0  0  0  0  0  0
  183.5850  178.1150  143.2770 C   0  0  1  0  0  3  0  0  0  0  0  0
  182.9050  178.4980  141.9780 C   0  0  0  0  0  2  0  0  0  0  0  0
  180.1980  179.3980  143.3250 C   0  0  0  0  0  2  0  0  0  0  0  0
  181.3270  178.8950  143.8150 C   0  0  0  0  0  3  0  0  0  0  0  0
  186.1340  179.0370  141.0340 C   0  0  0  0  0  2  0  0  0  0  0  0
  186.1010  178.4140  139.6380 C   0  0  1  0  0  3  0  0  0  0  0  0
  185.2840  179.1550  138.7810 O   0  0  0  0  0  1  0  0  0  0  0  0
  187.4860  178.1890  139.0120 C   0  0  1  0  0  3  0  0  0  0  0  0
  187.5330  178.7030  137.7140 O   0  0  0  0  0  1  0  0  0  0  0  0
  188.6170  178.8000  139.8430 C   0  0  0  0  0  2  0  0  0  0  0  0
  189.6830  177.7940  140.2850 C   0  0  1  0  0  3  0  0  0  0  0  0
  189.5700  177.4450  141.7660 C   0  0  2  0  0  3  0  0  0  0  0  0
  190.9180  177.5940  142.4490 C   0  0  2  0  0  3  0  0  0  0  0  0
  190.4170  176.2240  142.0770 C   0  0  1  0  0  3  0  0  0  0  0  0
  191.0950  176.4400  143.4160 C   0  0  0  0  0  2  0  0  0  0  0  0
  189.6450  176.5420  139.4130 C   0  0  0  0  0  2  0  0  0  0  0  0
  190.4050  176.8080  136.9600 C   0  0  0  0  0  1  0  0  0  0  0  0
  191.8960  176.3850  138.7250 O   0  0  0  0  0  0  0  0  0  0  0  0
  190.7350  176.5580  138.3910 C   0  0  0  0  0  0  0  0  0  0  0  0
  2  1  1  6  0  0  0
  2  3  1  0  0  0  0
  3  6  2  0  0  0  0
  3  4  1  0  0  0  0
  4  9  2  0  0  0  0
  5 11  1  0  0  0  0
  6 10  1  0  0  0  0
  7 11  2  0  0  0  0
  8  7  1  0  0  0  0
  9  8  1  0  0  0  0
 10 12  1  0  0  0  0
 10  8  2  0  0  0  0
 12  5  2  0  0  0  0
 13 14  1  0  0  0  0
 13 17  1  1  0  0  0
 14  2  1  6  0  0  0
 15 13  1  0  0  0  0
 15 14  1  0  0  0  0
 16 17  2  0  0  0  0
 18  1  1  0  0  0  0
 19 20  1  6  0  0  0
 19 18  1  0  0  0  0
 21 22  1  6  0  0  0
 21 19  1  0  0  0  0
 21 23  1  0  0  0  0
 23 24  1  0  0  0  0
 24 29  1  6  0  0  0
 25 24  1  6  0  0  0
 25 27  1  0  0  0  0
 25 26  1  0  0  0  0
 26 28  1  1  0  0  0
 27 26  1  0  0  0  0
 27 28  1  1  0  0  0
 30 32  1  0  0  0  0
 32 31  2  0  0  0  0
 32 29  1  0  0  0  0
M  END
>  <MODEL>
5

>  <REMARK>
 VINA RESULT:      -8.5      1.484      5.686
  Name = 
  12 active torsions:
  status: ('A' for Active; 'I' for Inactive)
    1  A    between atoms: C_1  and  C_5
    2  A    between atoms: C_1  and  C_30
    3  A    between atoms: C_2  and  C_5
    4  A    between atoms: C_3  and  C_20
    5  A    between atoms: C_4  and  C_24
    6  A    between atoms: C_4  and  C_30
    7  A    between atoms: C_5  and  C_14
    8  A    between atoms: C_13  and  C_29
    9  A    between atoms: C_15  and  C_20
   10  A    between atoms: C_15  and  C_26
   11  A    between atoms: C_16  and  C_20
   12  A    between atoms: C_16  and  C_24
                            x       y       z     vdW  Elec       q    Type
                         _______ _______ _______ _____ _____    ______ ____

>  <TORSDO>
F 12

$$$$
=
 OpenBabel10272413183D

 32 36  0  0  1  0  0  0  0  0999 V2000
  186.0020  177.9540  142.2930 C   0  0  0  0  0  2  0  0  0  0  0  0
  185.1910  178.5540  143.4420 C   0  0  2  0  0  3  0  0  0  0  0  0
  185.8950  178.3930  144.7610 C   0  0  0  0  0  0  0  0  0  0  0  0
  185.2680  178.8540  145.9250 C   0  0  0  0  0  3  0  0  0  0  0  0
  189.8030  177.1990  147.3720 C   0  0  0  0  0  3  0  0  0  0  0  0
  187.1950  177.8660  144.8360 C   0  0  0  0  0  3  0  0  0  0  0  0
  187.8740  178.1820  148.4650 C   0  0  0  0  0  3  0  0  0  0  0  0
  187.2120  178.2500  147.2360 C   0  0  0  0  0  0  0  0  0  0  0  0
  185.9210  178.7800  147.1590 C   0  0  0  0  0  3  0  0  0  0  0  0
  187.8520  177.7880  146.0640 C   0  0  0  0  0  0  0  0  0  0  0  0
  189.1680  177.6570  148.5310 C   0  0  0  0  0  3  0  0  0  0  0  0
  189.1460  177.2640  146.1390 C   0  0  0  0  0  3  0  0  0  0  0  0
  182.7980  179.2150  143.4970 C   0  0  1  0  0  3  0  0  0  0  0  0
  183.7550  178.0380  143.4670 C   0  0  1  0  0  3  0  0  0  0  0  0
  183.0330  178.4630  142.2040 C   0  0  0  0  0  2  0  0  0  0  0  0
  180.4130  178.7010  143.3490 C   0  0  0  0  0  2  0  0  0  0  0  0
  181.5080  178.7760  144.1000 C   0  0  0  0  0  3  0  0  0  0  0  0
  186.2950  178.9780  141.1980 C   0  0  0  0  0  2  0  0  0  0  0  0
  186.0620  178.4170  139.7940 C   0  0  1  0  0  3  0  0  0  0  0  0
  185.2300  179.2590  139.0530 O   0  0  0  0  0  1  0  0  0  0  0  0
  187.3490  178.1000  139.0180 C   0  0  1  0  0  3  0  0  0  0  0  0
  187.3760  178.7840  137.8010 O   0  0  0  0  0  1  0  0  0  0  0  0
  188.6150  178.4250  139.8140 C   0  0  0  0  0  2  0  0  0  0  0  0
  189.6720  177.3180  139.7900 C   0  0  1  0  0  3  0  0  0  0  0  0
  190.2800  177.1290  138.4040 C   0  0  2  0  0  3  0  0  0  0  0  0
  190.1020  175.6940  137.9390 C   0  0  2  0  0  3  0  0  0  0  0  0
  191.4340  176.1450  138.4740 C   0  0  1  0  0  3  0  0  0  0  0  0
  191.3770  175.2520  137.2500 C   0  0  0  0  0  2  0  0  0  0  0  0
  190.7490  177.5710  140.8420 C   0  0  0  0  0  2  0  0  0  0  0  0
  189.4650  176.1650  142.5850 C   0  0  0  0  0  1  0  0  0  0  0  0
  190.3910  178.2690  143.0660 O   0  0  0  0  0  0  0  0  0  0  0  0
  190.2090  177.4040  142.2250 C   0  0  0  0  0  0  0  0  0  0  0  0
  2  1  1  6  0  0  0
  2  3  1  0  0  0  0
  3  6  2  0  0  0  0
  3  4  1  0  0  0  0
  4  9  2  0  0  0  0
  5 11  1  0  0  0  0
  6 10  1  0  0  0  0
  7 11  2  0  0  0  0
  8  7  1  0  0  0  0
  9  8  1  0  0  0  0
 10 12  1  0  0  0  0
 10  8  2  0  0  0  0
 12  5  2  0  0  0  0
 13 17  1  1  0  0  0
 14  2  1  6  0  0  0
 14 13  1  0  0  0  0
 15 14  1  0  0  0  0
 15 13  1  0  0  0  0
 16 17  2  0  0  0  0
 18  1  1  0  0  0  0
 19 20  1  6  0  0  0
 19 18  1  0  0  0  0
 21 22  1  6  0  0  0
 21 19  1  0  0  0  0
 21 23  1  0  0  0  0
 24 23  1  6  0  0  0
 24 29  1  0  0  0  0
 25 27  1  0  0  0  0
 25 24  1  1  0  0  0
 26 28  1  6  0  0  0
 26 25  1  0  0  0  0
 26 27  1  0  0  0  0
 27 28  1  6  0  0  0
 29 32  1  0  0  0  0
 32 30  1  0  0  0  0
 32 31  2  0  0  0  0
M  END
>  <MODEL>
6

>  <REMARK>
 VINA RESULT:      -8.5      1.371      5.362
  Name = 
  12 active torsions:
  status: ('A' for Active; 'I' for Inactive)
    1  A    between atoms: C_1  and  C_5
    2  A    between atoms: C_1  and  C_30
    3  A    between atoms: C_2  and  C_5
    4  A    between atoms: C_3  and  C_20
    5  A    between atoms: C_4  and  C_24
    6  A    between atoms: C_4  and  C_30
    7  A    between atoms: C_5  and  C_14
    8  A    between atoms: C_13  and  C_29
    9  A    between atoms: C_15  and  C_20
   10  A    between atoms: C_15  and  C_26
   11  A    between atoms: C_16  and  C_20
   12  A    between atoms: C_16  and  C_24
                            x       y       z     vdW  Elec       q    Type
                         _______ _______ _______ _____ _____    ______ ____

>  <TORSDO>
F 12

$$$$
=
 OpenBabel10272413183D

 32 36  0  0  1  0  0  0  0  0999 V2000
  189.7380  177.9770  142.9940 C   0  0  0  0  0  2  0  0  0  0  0  0
  189.2050  177.3950  144.3040 C   0  0  2  0  0  3  0  0  0  0  0  0
  187.7860  177.8180  144.5640 C   0  0  0  0  0  0  0  0  0  0  0  0
  187.3570  177.9740  145.8870 C   0  0  0  0  0  3  0  0  0  0  0  0
  183.2940  178.7910  143.0190 C   0  0  0  0  0  3  0  0  0  0  0  0
  186.8680  177.9810  143.5120 C   0  0  0  0  0  3  0  0  0  0  0  0
  183.7810  178.7900  145.3940 C   0  0  0  0  0  3  0  0  0  0  0  0
  185.1140  178.4710  145.1220 C   0  0  0  0  0  0  0  0  0  0  0  0
  186.0260  178.3030  146.1660 C   0  0  0  0  0  3  0  0  0  0  0  0
  185.5400  178.3100  143.7840 C   0  0  0  0  0  0  0  0  0  0  0  0
  182.8730  178.9500  144.3430 C   0  0  0  0  0  3  0  0  0  0  0  0
  184.6260  178.4710  142.7380 C   0  0  0  0  0  3  0  0  0  0  0  0
  191.1230  176.5320  145.6250 C   0  0  1  0  0  3  0  0  0  0  0  0
  190.1360  177.6750  145.4810 C   0  0  1  0  0  3  0  0  0  0  0  0
  191.5590  177.8340  144.9870 C   0  0  0  0  0  2  0  0  0  0  0  0
  192.2830  175.4260  147.4700 C   0  0  0  0  0  2  0  0  0  0  0  0
  191.6060  176.4840  147.0340 C   0  0  0  0  0  3  0  0  0  0  0  0
  189.6900  176.9650  141.8520 C   0  0  0  0  0  2  0  0  0  0  0  0
  190.0850  177.5780  140.5080 C   0  0  1  0  0  3  0  0  0  0  0  0
  191.1940  176.9240  139.9670 O   0  0  0  0  0  1  0  0  0  0  0  0
  188.9410  177.6510  139.4840 C   0  0  1  0  0  3  0  0  0  0  0  0
  187.8800  178.4110  139.9800 O   0  0  0  0  0  1  0  0  0  0  0  0
  189.3900  178.2170  138.1360 C   0  0  0  0  0  2  0  0  0  0  0  0
  189.3260  177.2140  136.9820 C   0  0  1  0  0  3  0  0  0  0  0  0
  188.9500  175.8130  137.4530 C   0  0  2  0  0  3  0  0  0  0  0  0
  190.1140  174.8580  137.2540 C   0  0  2  0  0  3  0  0  0  0  0  0
  188.9670  174.8490  136.2800 C   0  0  1  0  0  3  0  0  0  0  0  0
  189.5690  173.5380  136.7460 C   0  0  0  0  0  2  0  0  0  0  0  0
  188.3840  177.7050  135.8850 C   0  0  0  0  0  2  0  0  0  0  0  0
  185.9880  177.4810  136.8180 C   0  0  0  0  0  1  0  0  0  0  0  0
  187.1150  179.5350  136.6590 O   0  0  0  0  0  0  0  0  0  0  0  0
  187.1570  178.3310  136.4620 C   0  0  0  0  0  0  0  0  0  0  0  0
  2  1  1  6  0  0  0
  2  3  1  0  0  0  0
  3  4  1  0  0  0  0
  4  9  2  0  0  0  0
  5 11  1  0  0  0  0
  6 10  1  0  0  0  0
  6  3  2  0  0  0  0
  8  7  1  0  0  0  0
  8  9  1  0  0  0  0
 10  8  2  0  0  0  0
 11  7  2  0  0  0  0
 12  5  2  0  0  0  0
 12 10  1  0  0  0  0
 13 17  1  1  0  0  0
 14  2  1  6  0  0  0
 14 13  1  0  0  0  0
 15 14  1  0  0  0  0
 15 13  1  0  0  0  0
 17 16  2  0  0  0  0
 18  1  1  0  0  0  0
 19 20  1  6  0  0  0
 19 18  1  0  0  0  0
 21 22  1  1  0  0  0
 21 19  1  0  0  0  0
 23 21  1  0  0  0  0
 24 29  1  6  0  0  0
 24 23  1  0  0  0  0
 25 24  1  6  0  0  0
 26 28  1  1  0  0  0
 26 25  1  0  0  0  0
 27 28  1  1  0  0  0
 27 26  1  0  0  0  0
 27 25  1  0  0  0  0
 29 32  1  0  0  0  0
 32 31  2  0  0  0  0
 32 30  1  0  0  0  0
M  END
>  <MODEL>
7

>  <REMARK>
 VINA RESULT:      -8.5      1.735      2.508
  Name = 
  12 active torsions:
  status: ('A' for Active; 'I' for Inactive)
    1  A    between atoms: C_1  and  C_5
    2  A    between atoms: C_1  and  C_30
    3  A    between atoms: C_2  and  C_5
    4  A    between atoms: C_3  and  C_20
    5  A    between atoms: C_4  and  C_24
    6  A    between atoms: C_4  and  C_30
    7  A    between atoms: C_5  and  C_14
    8  A    between atoms: C_13  and  C_29
    9  A    between atoms: C_15  and  C_20
   10  A    between atoms: C_15  and  C_26
   11  A    between atoms: C_16  and  C_20
   12  A    between atoms: C_16  and  C_24
                            x       y       z     vdW  Elec       q    Type
                         _______ _______ _______ _____ _____    ______ ____

>  <TORSDO>
F 12

$$$$
=
 OpenBabel10272413183D

 32 36  0  0  1  0  0  0  0  0999 V2000
  187.9070  178.7890  141.3580 C   0  0  0  0  0  2  0  0  0  0  0  0
  188.9080  177.6360  141.2590 C   0  0  2  0  0  3  0  0  0  0  0  0
  189.6180  177.4040  142.5640 C   0  0  0  0  0  0  0  0  0  0  0  0
  190.9230  176.8970  142.5450 C   0  0  0  0  0  3  0  0  0  0  0  0
  189.6490  177.2310  147.4100 C   0  0  0  0  0  3  0  0  0  0  0  0
  188.9710  177.6110  143.7940 C   0  0  0  0  0  3  0  0  0  0  0  0
  191.6050  176.5220  146.1630 C   0  0  0  0  0  3  0  0  0  0  0  0
  190.9490  176.8180  144.9640 C   0  0  0  0  0  0  0  0  0  0  0  0
  191.5880  176.6080  143.7410 C   0  0  0  0  0  3  0  0  0  0  0  0
  189.6300  177.3250  144.9900 C   0  0  0  0  0  0  0  0  0  0  0  0
  190.9550  176.7290  147.3830 C   0  0  0  0  0  3  0  0  0  0  0  0
  188.9860  177.5290  146.2150 C   0  0  0  0  0  3  0  0  0  0  0  0
  189.5410  176.7640  139.0220 C   0  0  1  0  0  3  0  0  0  0  0  0
  189.8650  177.8010  140.0810 C   0  0  1  0  0  3  0  0  0  0  0  0
  189.0910  178.1980  138.8400 C   0  0  0  0  0  2  0  0  0  0  0  0
  190.7890  175.4990  137.3440 C   0  0  0  0  0  2  0  0  0  0  0  0
  190.7590  176.5180  138.1980 C   0  0  0  0  0  3  0  0  0  0  0  0
  186.4660  178.2940  141.4610 C   0  0  0  0  0  2  0  0  0  0  0  0
  185.4880  179.1690  140.6760 C   0  0  1  0  0  3  0  0  0  0  0  0
  185.6020  178.9350  139.3030 O   0  0  0  0  0  1  0  0  0  0  0  0
  184.0260  179.0500  141.1310 C   0  0  1  0  0  3  0  0  0  0  0  0
  183.1900  178.7750  140.0470 O   0  0  0  0  0  1  0  0  0  0  0  0
  183.8280  177.9840  142.2110 C   0  0  0  0  0  2  0  0  0  0  0  0
  183.3410  178.5340  143.5540 C   0  0  1  0  0  3  0  0  0  0  0  0
  184.4660  179.1810  144.3560 C   0  0  2  0  0  3  0  0  0  0  0  0
  185.3620  178.1160  144.9620 C   0  0  2  0  0  3  0  0  0  0  0  0
  184.3380  178.8070  145.8220 C   0  0  1  0  0  3  0  0  0  0  0  0
  185.7260  178.5420  146.3710 C   0  0  0  0  0  2  0  0  0  0  0  0
  182.1720  179.4960  143.3560 C   0  0  0  0  0  2  0  0  0  0  0  0
  180.2110  178.6820  141.8870 C   0  0  0  0  0  1  0  0  0  0  0  0
  180.3780  178.2070  144.1810 O   0  0  0  0  0  0  0  0  0  0  0  0
  180.8790  178.7600  143.2160 C   0  0  0  0  0  0  0  0  0  0  0  0
  1 18  1  0  0  0  0
  2  1  1  1  0  0  0
  2  3  1  0  0  0  0
  3  6  1  0  0  0  0
  4  3  2  0  0  0  0
  4  9  1  0  0  0  0
  6 10  2  0  0  0  0
  7 11  2  0  0  0  0
  8 10  1  0  0  0  0
  8  7  1  0  0  0  0
  9  8  2  0  0  0  0
 10 12  1  0  0  0  0
 11  5  1  0  0  0  0
 12  5  2  0  0  0  0
 13 17  1  6  0  0  0
 13 14  1  0  0  0  0
 14  2  1  1  0  0  0
 15 13  1  0  0  0  0
 15 14  1  0  0  0  0
 16 17  2  0  0  0  0
 19 20  1  6  0  0  0
 19 21  1  0  0  0  0
 19 18  1  0  0  0  0
 21 22  1  6  0  0  0
 21 23  1  0  0  0  0
 24 23  1  6  0  0  0
 25 24  1  6  0  0  0
 25 26  1  0  0  0  0
 25 27  1  0  0  0  0
 26 27  1  0  0  0  0
 26 28  1  1  0  0  0
 27 28  1  1  0  0  0
 29 24  1  0  0  0  0
 30 32  1  0  0  0  0
 32 29  1  0  0  0  0
 32 31  2  0  0  0  0
M  END
>  <MODEL>
8

>  <REMARK>
 VINA RESULT:      -8.4      2.501      8.165
  Name = 
  12 active torsions:
  status: ('A' for Active; 'I' for Inactive)
    1  A    between atoms: C_1  and  C_5
    2  A    between atoms: C_1  and  C_30
    3  A    between atoms: C_2  and  C_5
    4  A    between atoms: C_3  and  C_20
    5  A    between atoms: C_4  and  C_24
    6  A    between atoms: C_4  and  C_30
    7  A    between atoms: C_5  and  C_14
    8  A    between atoms: C_13  and  C_29
    9  A    between atoms: C_15  and  C_20
   10  A    between atoms: C_15  and  C_26
   11  A    between atoms: C_16  and  C_20
   12  A    between atoms: C_16  and  C_24
                            x       y       z     vdW  Elec       q    Type
                         _______ _______ _______ _____ _____    ______ ____

>  <TORSDO>
F 12

$$$$
=
 OpenBabel10272413183D

 32 36  0  0  1  0  0  0  0  0999 V2000
  189.1940  176.8070  141.4150 C   0  0  0  0  0  2  0  0  0  0  0  0
  188.4010  177.9680  140.8130 C   0  0  2  0  0  3  0  0  0  0  0  0
  187.1340  178.2310  141.5800 C   0  0  0  0  0  0  0  0  0  0  0  0
  186.0340  178.7730  140.9060 C   0  0  0  0  0  3  0  0  0  0  0  0
  184.6570  178.4470  145.7430 C   0  0  0  0  0  3  0  0  0  0  0  0
  187.0630  178.0170  142.9670 C   0  0  0  0  0  3  0  0  0  0  0  0
  183.6240  179.1990  143.6820 C   0  0  0  0  0  3  0  0  0  0  0  0
  184.7880  178.8740  142.9790 C   0  0  0  0  0  0  0  0  0  0  0  0
  184.8630  179.0920  141.6020 C   0  0  0  0  0  3  0  0  0  0  0  0
  185.8970  178.3320  143.6660 C   0  0  0  0  0  0  0  0  0  0  0  0
  183.5600  178.9850  145.0620 C   0  0  0  0  0  3  0  0  0  0  0  0
  185.8260  178.1210  145.0470 C   0  0  0  0  0  3  0  0  0  0  0  0
  189.2360  178.5410  138.5460 C   0  0  1  0  0  3  0  0  0  0  0  0
  188.1640  177.7910  139.3160 C   0  0  1  0  0  3  0  0  0  0  0  0
  189.3240  177.0370  138.6970 C   0  0  0  0  0  2  0  0  0  0  0  0
  189.0660  178.1370  136.1410 C   0  0  0  0  0  2  0  0  0  0  0  0
  188.7140  178.8740  137.1900 C   0  0  0  0  0  3  0  0  0  0  0  0
  190.5950  177.2320  141.8530 C   0  0  0  0  0  2  0  0  0  0  0  0
  190.9340  176.7640  143.2680 C   0  0  1  0  0  3  0  0  0  0  0  0
  192.0190  175.8850  143.2560 O   0  0  0  0  0  1  0  0  0  0  0  0
  191.1640  177.9020  144.2740 C   0  0  1  0  0  3  0  0  0  0  0  0
  191.7170  179.0180  143.6420 O   0  0  0  0  0  1  0  0  0  0  0  0
  189.8840  178.3130  145.0050 C   0  0  0  0  0  2  0  0  0  0  0  0
  189.8090  177.8330  146.4570 C   0  0  1  0  0  3  0  0  0  0  0  0
  188.3890  177.8850  147.0110 C   0  0  2  0  0  3  0  0  0  0  0  0
  188.3830  178.5150  148.3920 C   0  0  2  0  0  3  0  0  0  0  0  0
  188.2870  177.0190  148.2540 C   0  0  1  0  0  3  0  0  0  0  0  0
  187.4190  177.7400  149.2680 C   0  0  0  0  0  2  0  0  0  0  0  0
  190.4140  176.4390  146.6010 C   0  0  0  0  0  2  0  0  0  0  0  0
  192.6220  175.3500  147.3780 C   0  0  0  0  0  1  0  0  0  0  0  0
  191.8370  177.3970  148.2190 O   0  0  0  0  0  0  0  0  0  0  0  0
  191.6350  176.4620  147.4620 C   0  0  0  0  0  0  0  0  0  0  0  0
  1 18  1  0  0  0  0
  2  1  1  1  0  0  0
  2  3  1  0  0  0  0
  3  6  1  0  0  0  0
  4  3  2  0  0  0  0
  4  9  1  0  0  0  0
  6 10  2  0  0  0  0
  7 11  2  0  0  0  0
  8 10  1  0  0  0  0
  8  7  1  0  0  0  0
  9  8  2  0  0  0  0
 10 12  1  0  0  0  0
 11  5  1  0  0  0  0
 12  5  2  0  0  0  0
 13 17  1  6  0  0  0
 13 15  1  0  0  0  0
 13 14  1  0  0  0  0
 14  2  1  1  0  0  0
 15 14  1  0  0  0  0
 16 17  2  0  0  0  0
 18 19  1  0  0  0  0
 19 20  1  6  0  0  0
 19 21  1  0  0  0  0
 21 22  1  6  0  0  0
 21 23  1  0  0  0  0
 24 23  1  6  0  0  0
 24 29  1  0  0  0  0
 25 24  1  1  0  0  0
 25 27  1  0  0  0  0
 25 26  1  0  0  0  0
 26 28  1  6  0  0  0
 27 26  1  0  0  0  0
 27 28  1  6  0  0  0
 29 32  1  0  0  0  0
 30 32  1  0  0  0  0
 32 31  2  0  0  0  0
M  END
>  <MODEL>
9

>  <REMARK>
 VINA RESULT:      -8.4      2.001      7.100
  Name = 
  12 active torsions:
  status: ('A' for Active; 'I' for Inactive)
    1  A    between atoms: C_1  and  C_5
    2  A    between atoms: C_1  and  C_30
    3  A    between atoms: C_2  and  C_5
    4  A    between atoms: C_3  and  C_20
    5  A    between atoms: C_4  and  C_24
    6  A    between atoms: C_4  and  C_30
    7  A    between atoms: C_5  and  C_14
    8  A    between atoms: C_13  and  C_29
    9  A    between atoms: C_15  and  C_20
   10  A    between atoms: C_15  and  C_26
   11  A    between atoms: C_16  and  C_20
   12  A    between atoms: C_16  and  C_24
                            x       y       z     vdW  Elec       q    Type
                         _______ _______ _______ _____ _____    ______ ____

>  <TORSDO>
F 12

$$$$
