=
 OpenBabel10272401143D

 27 30  0  0  1  0  0  0  0  0999 V2000
  189.2930  177.5040  142.3690 C   0  0  2  0  0  3  0  0  0  0  0  0
  188.3320  178.7090  142.5180 C   0  0  1  0  0  3  0  0  0  0  0  0
  184.2860  178.5180  143.9000 C   0  0  0  0  0  2  0  0  0  0  0  0
  184.3570  178.4750  146.2830 O   0  0  0  0  0  0  0  0  0  0  0  0
  187.2580  178.6990  141.5200 N   0  0  0  0  0  2  0  0  0  0  0  0
  186.1600  177.2810  145.3380 C   0  0  0  0  0  3  0  0  0  0  0  0
  187.2720  177.4290  144.6010 C   0  0  0  0  0  3  0  0  0  0  0  0
  184.9450  178.1440  145.2220 C   0  0  0  0  0  0  0  0  0  0  0  0
  185.1710  179.2320  142.8640 C   0  0  0  0  0  2  0  0  0  0  0  0
  187.3430  178.5780  143.6620 C   0  0  2  0  0  3  0  0  0  0  0  0
  186.3390  178.3240  142.5870 C   0  0  2  0  0  3  0  0  0  0  0  0
  191.0240  175.8690  143.4610 C   0  0  1  0  0  3  0  0  0  0  0  0
  191.9340  177.8550  145.1090 O   0  0  0  0  0  0  0  0  0  0  0  0
  190.3230  174.7680  142.9700 O   0  0  0  0  0  1  0  0  0  0  0  0
  191.3040  179.3020  143.3530 C   0  0  0  0  0  1  0  0  0  0  0  0
  190.0950  177.0850  143.6210 C   0  0  1  0  0  3  0  0  0  0  0  0
  191.6450  176.6550  145.7870 C   0  0  0  0  0  2  0  0  0  0  0  0
  189.8850  178.8890  145.1970 O   0  0  0  0  0  1  0  0  0  0  0  0
  190.8060  178.2660  144.3510 C   0  0  1  0  0  0  0  0  0  0  0  0
  191.6650  175.4880  144.7990 C   0  0  0  0  0  2  0  0  0  0  0  0
  190.0540  177.4450  141.1150 N   0  0  0  0  0  2  0  0  0  0  0  0
  190.3700  176.2120  138.9810 C   0  0  2  0  0  3  0  0  0  0  0  0
  191.5400  176.9820  139.0210 O   0  0  0  0  0  1  0  0  0  0  0  0
  189.1070  177.0650  138.8350 C   0  0  1  0  0  3  0  0  0  0  0  0
  189.4720  176.4640  140.1970 C   0  0  2  0  0  3  0  0  0  0  0  0
  189.3760  178.5660  138.7080 C   0  0  0  0  0  2  0  0  0  0  0  0
  189.0140  179.0310  137.3120 C   0  0  0  0  0  1  0  0  0  0  0  0
  1 21  1  6  0  0  0
  2  1  1  6  0  0  0
  2 10  1  0  0  0  0
  3  8  1  0  0  0  0
  5  2  1  0  0  0  0
  5 11  1  0  0  0  0
  7  6  2  0  0  0  0
  8  6  1  0  0  0  0
  8  4  2  0  0  0  0
  9  3  1  0  0  0  0
 10  7  1  1  0  0  0
 11  9  1  1  0  0  0
 11 10  1  0  0  0  0
 12 14  1  1  0  0  0
 12 16  1  0  0  0  0
 12 20  1  0  0  0  0
 13 17  1  0  0  0  0
 16  1  1  6  0  0  0
 16 19  1  0  0  0  0
 19 15  1  6  0  0  0
 19 13  1  0  0  0  0
 19 18  1  0  0  0  0
 20 17  1  0  0  0  0
 22 23  1  1  0  0  0
 22 25  1  0  0  0  0
 24 26  1  1  0  0  0
 24 22  1  0  0  0  0
 24 25  1  0  0  0  0
 25 21  1  1  0  0  0
 27 26  1  0  0  0  0
M  END
>  <MODEL>
1

>  <REMARK>
 VINA RESULT:      -6.6      0.000      0.000
  Name = 
  5 active torsions:
  status: ('A' for Active; 'I' for Inactive)
    1  A    between atoms: C_1  and  C_2
    2  A    between atoms: C_1  and  N_15
    3  A    between atoms: C_1  and  C_18
    4  A    between atoms: C_7  and  C_25
    5  A    between atoms: N_15  and  C_27
                            x       y       z     vdW  Elec       q    Type
                         _______ _______ _______ _____ _____    ______ ____

>  <TORSDO>
F 5

$$$$
=
 OpenBabel10272401143D

 27 30  0  0  1  0  0  0  0  0999 V2000
  189.3360  177.5290  142.7150 C   0  0  2  0  0  3  0  0  0  0  0  0
  189.2770  176.5800  141.4940 C   0  0  1  0  0  3  0  0  0  0  0  0
  191.2710  177.1920  137.7580 C   0  0  0  0  0  2  0  0  0  0  0  0
  193.5220  176.4520  138.0300 O   0  0  0  0  0  0  0  0  0  0  0  0
  188.5060  177.1420  140.3800 N   0  0  0  0  0  2  0  0  0  0  0  0
  192.6940  177.4640  139.9960 C   0  0  0  0  0  3  0  0  0  0  0  0
  191.7820  177.3230  140.9690 C   0  0  0  0  0  3  0  0  0  0  0  0
  192.5240  176.9700  138.5960 C   0  0  0  0  0  0  0  0  0  0  0  0
  189.9470  176.6740  138.3440 C   0  0  0  0  0  2  0  0  0  0  0  0
  190.5500  176.5490  140.6670 C   0  0  2  0  0  3  0  0  0  0  0  0
  189.7670  177.3460  139.6780 C   0  0  2  0  0  3  0  0  0  0  0  0
  191.1240  175.8900  143.7070 C   0  0  1  0  0  3  0  0  0  0  0  0
  191.9050  177.7700  145.5350 O   0  0  0  0  0  0  0  0  0  0  0  0
  190.4870  174.8030  143.1100 O   0  0  0  0  0  1  0  0  0  0  0  0
  191.2390  179.3300  143.8920 C   0  0  0  0  0  1  0  0  0  0  0  0
  190.1340  177.0430  143.9460 C   0  0  1  0  0  3  0  0  0  0  0  0
  191.6610  176.5060  146.1030 C   0  0  0  0  0  2  0  0  0  0  0  0
  189.8060  178.6960  145.6620 O   0  0  0  0  0  1  0  0  0  0  0  0
  190.7720  178.1910  144.7880 C   0  0  1  0  0  0  0  0  0  0  0  0
  191.7570  175.4290  145.0230 C   0  0  0  0  0  2  0  0  0  0  0  0
  188.0880  178.2290  143.0420 N   0  0  0  0  0  2  0  0  0  0  0  0
  185.6240  177.9580  142.8710 C   0  0  2  0  0  3  0  0  0  0  0  0
  185.7630  179.3240  142.5900 O   0  0  0  0  0  1  0  0  0  0  0  0
  186.0240  177.6090  144.3070 C   0  0  1  0  0  3  0  0  0  0  0  0
  186.9720  177.2860  143.1460 C   0  0  2  0  0  3  0  0  0  0  0  0
  186.4400  178.8140  145.1530 C   0  0  0  0  0  2  0  0  0  0  0  0
  185.6380  178.8320  146.4390 C   0  0  0  0  0  1  0  0  0  0  0  0
  1 21  1  1  0  0  0
  2  1  1  1  0  0  0
  3  9  1  0  0  0  0
  3  8  1  0  0  0  0
  4  8  2  0  0  0  0
  5  2  1  0  0  0  0
  6  7  2  0  0  0  0
  8  6  1  0  0  0  0
 10  7  1  1  0  0  0
 10  2  1  0  0  0  0
 11  9  1  6  0  0  0
 11  5  1  0  0  0  0
 11 10  1  0  0  0  0
 12 14  1  1  0  0  0
 12 16  1  0  0  0  0
 12 20  1  0  0  0  0
 13 17  1  0  0  0  0
 16  1  1  6  0  0  0
 16 19  1  0  0  0  0
 19 15  1  6  0  0  0
 19 13  1  0  0  0  0
 19 18  1  0  0  0  0
 20 17  1  0  0  0  0
 22 23  1  1  0  0  0
 22 25  1  0  0  0  0
 22 24  1  0  0  0  0
 24 26  1  1  0  0  0
 25 21  1  1  0  0  0
 25 24  1  0  0  0  0
 26 27  1  0  0  0  0
M  END
>  <MODEL>
2

>  <REMARK>
 VINA RESULT:      -6.5      1.565      5.645
  Name = 
  5 active torsions:
  status: ('A' for Active; 'I' for Inactive)
    1  A    between atoms: C_1  and  C_2
    2  A    between atoms: C_1  and  N_15
    3  A    between atoms: C_1  and  C_18
    4  A    between atoms: C_7  and  C_25
    5  A    between atoms: N_15  and  C_27
                            x       y       z     vdW  Elec       q    Type
                         _______ _______ _______ _____ _____    ______ ____

>  <TORSDO>
F 5

$$$$
=
 OpenBabel10272401143D

 27 30  0  0  1  0  0  0  0  0999 V2000
  188.4120  177.8740  144.7560 C   0  0  2  0  0  3  0  0  0  0  0  0
  187.0230  177.2620  144.4540 C   0  0  1  0  0  3  0  0  0  0  0  0
  183.8710  179.1770  142.2840 C   0  0  0  0  0  2  0  0  0  0  0  0
  184.3340  178.8850  139.9630 O   0  0  0  0  0  0  0  0  0  0  0  0
  185.9470  177.9040  145.2160 N   0  0  0  0  0  2  0  0  0  0  0  0
  186.3130  179.1870  141.2150 C   0  0  0  0  0  3  0  0  0  0  0  0
  187.0760  178.6220  142.1630 C   0  0  0  0  0  3  0  0  0  0  0  0
  184.8310  179.0260  141.1100 C   0  0  0  0  0  0  0  0  0  0  0  0
  184.1140  178.2630  143.4980 C   0  0  0  0  0  2  0  0  0  0  0  0
  186.4230  177.7040  143.1310 C   0  0  2  0  0  3  0  0  0  0  0  0
  185.5150  178.5340  143.9750 C   0  0  2  0  0  3  0  0  0  0  0  0
  189.3170  176.3740  142.8070 C   0  0  1  0  0  3  0  0  0  0  0  0
  191.6000  177.8740  142.6480 O   0  0  0  0  0  0  0  0  0  0  0  0
  188.4100  175.3670  143.1340 O   0  0  0  0  0  1  0  0  0  0  0  0
  190.2340  179.6410  143.4120 C   0  0  0  0  0  1  0  0  0  0  0  0
  189.6280  177.2530  144.0310 C   0  0  1  0  0  3  0  0  0  0  0  0
  191.8440  176.4880  142.6970 C   0  0  0  0  0  2  0  0  0  0  0  0
  191.5750  178.3730  144.8900 O   0  0  0  0  0  1  0  0  0  0  0  0
  190.7840  178.2600  143.7440 C   0  0  1  0  0  0  0  0  0  0  0  0
  190.5920  175.7290  142.2570 C   0  0  0  0  0  2  0  0  0  0  0  0
  188.6630  178.2300  146.1580 N   0  0  0  0  0  2  0  0  0  0  0  0
  188.4310  177.5230  148.5290 C   0  0  2  0  0  3  0  0  0  0  0  0
  189.0590  178.7670  148.6810 O   0  0  0  0  0  1  0  0  0  0  0  0
  189.3230  176.4950  147.8300 C   0  0  1  0  0  3  0  0  0  0  0  0
  188.1880  177.1760  147.0570 C   0  0  2  0  0  3  0  0  0  0  0  0
  190.7240  177.0070  147.4890 C   0  0  0  0  0  2  0  0  0  0  0  0
  191.6930  175.8430  147.4390 C   0  0  0  0  0  1  0  0  0  0  0  0
  1 21  1  1  0  0  0
  2  1  1  1  0  0  0
  2  5  1  0  0  0  0
  3  9  1  0  0  0  0
  4  8  2  0  0  0  0
  6  7  2  0  0  0  0
  8  6  1  0  0  0  0
  8  3  1  0  0  0  0
 10  7  1  6  0  0  0
 10 11  1  0  0  0  0
 10  2  1  0  0  0  0
 11  9  1  6  0  0  0
 11  5  1  0  0  0  0
 12 14  1  1  0  0  0
 12 16  1  0  0  0  0
 13 17  1  0  0  0  0
 13 19  1  0  0  0  0
 16  1  1  6  0  0  0
 19 15  1  6  0  0  0
 19 16  1  0  0  0  0
 19 18  1  0  0  0  0
 20 17  1  0  0  0  0
 20 12  1  0  0  0  0
 22 23  1  6  0  0  0
 24 26  1  6  0  0  0
 24 22  1  0  0  0  0
 25 21  1  6  0  0  0
 25 24  1  0  0  0  0
 25 22  1  0  0  0  0
 27 26  1  0  0  0  0
M  END
>  <MODEL>
3

>  <REMARK>
 VINA RESULT:      -6.5      2.646      5.170
  Name = 
  5 active torsions:
  status: ('A' for Active; 'I' for Inactive)
    1  A    between atoms: C_1  and  C_2
    2  A    between atoms: C_1  and  N_15
    3  A    between atoms: C_1  and  C_18
    4  A    between atoms: C_7  and  C_25
    5  A    between atoms: N_15  and  C_27
                            x       y       z     vdW  Elec       q    Type
                         _______ _______ _______ _____ _____    ______ ____

>  <TORSDO>
F 5

$$$$
=
 OpenBabel10272401143D

 27 30  0  0  1  0  0  0  0  0999 V2000
  183.7160  178.2260  139.5880 C   0  0  2  0  0  3  0  0  0  0  0  0
  184.5390  178.4580  138.2980 C   0  0  1  0  0  3  0  0  0  0  0  0
  186.9680  175.5360  136.3290 C   0  0  0  0  0  2  0  0  0  0  0  0
  185.5170  174.2060  134.9810 O   0  0  0  0  0  0  0  0  0  0  0  0
  185.9850  178.4740  138.5470 N   0  0  0  0  0  2  0  0  0  0  0  0
  184.4810  174.8490  137.0020 C   0  0  0  0  0  3  0  0  0  0  0  0
  184.0330  175.9150  137.6830 C   0  0  0  0  0  3  0  0  0  0  0  0
  185.6240  174.8770  136.0400 C   0  0  0  0  0  0  0  0  0  0  0  0
  186.9410  177.0300  136.6910 C   0  0  0  0  0  2  0  0  0  0  0  0
  184.6540  177.2350  137.4040 C   0  0  2  0  0  3  0  0  0  0  0  0
  186.0590  177.1690  137.9030 C   0  0  2  0  0  3  0  0  0  0  0  0
  182.2750  180.2670  138.7950 C   0  0  1  0  0  3  0  0  0  0  0  0
  179.9820  179.0400  139.6470 O   0  0  0  0  0  0  0  0  0  0  0  0
  183.4100  181.0760  138.7500 O   0  0  0  0  0  1  0  0  0  0  0  0
  181.1360  177.0350  139.1720 C   0  0  0  0  0  1  0  0  0  0  0  0
  182.4640  179.1100  139.7920 C   0  0  1  0  0  3  0  0  0  0  0  0
  180.0990  180.3720  140.0860 C   0  0  0  0  0  2  0  0  0  0  0  0
  181.0580  177.9420  141.3540 O   0  0  0  0  0  1  0  0  0  0  0  0
  181.1440  178.3080  140.0080 C   0  0  1  0  0  0  0  0  0  0  0  0
  181.0700  181.1300  139.1800 C   0  0  0  0  0  2  0  0  0  0  0  0
  184.4950  177.9900  140.8100 N   0  0  0  0  0  2  0  0  0  0  0  0
  186.2010  178.9710  142.3270 C   0  0  2  0  0  3  0  0  0  0  0  0
  186.3580  177.6040  142.5950 O   0  0  0  0  0  1  0  0  0  0  0  0
  184.8360  179.5040  142.7680 C   0  0  1  0  0  3  0  0  0  0  0  0
  185.1100  179.2320  141.2840 C   0  0  2  0  0  3  0  0  0  0  0  0
  183.9470  178.4650  143.4530 C   0  0  0  0  0  2  0  0  0  0  0  0
  183.7260  178.8590  144.8990 C   0  0  0  0  0  1  0  0  0  0  0  0
  1 21  1  1  0  0  0
  2  5  1  0  0  0  0
  2  1  1  1  0  0  0
  3  9  1  0  0  0  0
  4  8  2  0  0  0  0
  6  7  2  0  0  0  0
  8  3  1  0  0  0  0
  8  6  1  0  0  0  0
 10  7  1  1  0  0  0
 10 11  1  0  0  0  0
 10  2  1  0  0  0  0
 11  9  1  6  0  0  0
 11  5  1  0  0  0  0
 12 14  1  1  0  0  0
 12 20  1  0  0  0  0
 12 16  1  0  0  0  0
 13 19  1  0  0  0  0
 13 17  1  0  0  0  0
 16  1  1  6  0  0  0
 16 19  1  0  0  0  0
 19 15  1  6  0  0  0
 19 18  1  0  0  0  0
 20 17  1  0  0  0  0
 22 23  1  1  0  0  0
 22 24  1  0  0  0  0
 24 26  1  1  0  0  0
 25 21  1  1  0  0  0
 25 22  1  0  0  0  0
 25 24  1  0  0  0  0
 26 27  1  0  0  0  0
M  END
>  <MODEL>
4

>  <REMARK>
 VINA RESULT:      -6.0      4.750      8.879
  Name = 
  5 active torsions:
  status: ('A' for Active; 'I' for Inactive)
    1  A    between atoms: C_1  and  C_2
    2  A    between atoms: C_1  and  N_15
    3  A    between atoms: C_1  and  C_18
    4  A    between atoms: C_7  and  C_25
    5  A    between atoms: N_15  and  C_27
                            x       y       z     vdW  Elec       q    Type
                         _______ _______ _______ _____ _____    ______ ____

>  <TORSDO>
F 5

$$$$
=
 OpenBabel10272401143D

 27 30  0  0  1  0  0  0  0  0999 V2000
  184.7940  176.8660  137.4170 C   0  0  2  0  0  3  0  0  0  0  0  0
  185.9000  177.6190  136.6380 C   0  0  1  0  0  3  0  0  0  0  0  0
  190.1100  177.2800  137.3260 C   0  0  0  0  0  2  0  0  0  0  0  0
  190.8550  175.3210  136.1870 O   0  0  0  0  0  0  0  0  0  0  0  0
  186.5560  178.6510  137.4470 N   0  0  0  0  0  2  0  0  0  0  0  0
  188.6940  175.0330  137.0930 C   0  0  0  0  0  3  0  0  0  0  0  0
  187.4280  175.4650  136.9980 C   0  0  0  0  0  3  0  0  0  0  0  0
  189.9000  175.8650  136.7980 C   0  0  0  0  0  0  0  0  0  0  0  0
  189.0280  178.3160  136.9760 C   0  0  0  0  0  2  0  0  0  0  0  0
  187.1940  176.8400  136.4860 C   0  0  2  0  0  3  0  0  0  0  0  0
  187.7260  177.7840  137.5120 C   0  0  2  0  0  3  0  0  0  0  0  0
  183.9080  176.1460  135.0590 C   0  0  1  0  0  3  0  0  0  0  0  0
  182.7360  173.9160  136.1260 O   0  0  0  0  0  0  0  0  0  0  0  0
  184.1060  177.4360  134.5680 O   0  0  0  0  0  1  0  0  0  0  0  0
  184.4770  174.0280  137.7180 C   0  0  0  0  0  1  0  0  0  0  0  0
  183.7000  176.1630  136.5830 C   0  0  1  0  0  3  0  0  0  0  0  0
  181.8760  174.6530  135.2910 C   0  0  0  0  0  2  0  0  0  0  0  0
  182.3380  174.9410  138.1440 O   0  0  0  0  0  1  0  0  0  0  0  0
  183.2810  174.7630  137.1280 C   0  0  1  0  0  0  0  0  0  0  0  0
  182.7010  175.5290  134.3470 C   0  0  0  0  0  2  0  0  0  0  0  0
  184.2970  177.5330  138.6270 N   0  0  0  0  0  2  0  0  0  0  0  0
  183.2780  179.7840  138.8950 C   0  0  2  0  0  3  0  0  0  0  0  0
  184.4850  179.9520  139.5880 O   0  0  0  0  0  1  0  0  0  0  0  0
  182.3460  178.7760  139.5700 C   0  0  1  0  0  3  0  0  0  0  0  0
  183.1350  178.3710  138.3200 C   0  0  2  0  0  3  0  0  0  0  0  0
  182.8870  178.2000  140.8810 C   0  0  0  0  0  2  0  0  0  0  0  0
  182.1200  178.7860  142.0480 C   0  0  0  0  0  1  0  0  0  0  0  0
  1 21  1  1  0  0  0
  2  1  1  1  0  0  0
  2  5  1  0  0  0  0
  4  8  2  0  0  0  0
  5 11  1  0  0  0  0
  7  6  2  0  0  0  0
  8  6  1  0  0  0  0
  8  3  1  0  0  0  0
  9  3  1  0  0  0  0
 10  2  1  0  0  0  0
 10  7  1  1  0  0  0
 10 11  1  0  0  0  0
 11  9  1  6  0  0  0
 12 14  1  6  0  0  0
 12 16  1  0  0  0  0
 13 19  1  0  0  0  0
 16 19  1  0  0  0  0
 16  1  1  1  0  0  0
 17 13  1  0  0  0  0
 19 15  1  1  0  0  0
 19 18  1  0  0  0  0
 20 12  1  0  0  0  0
 20 17  1  0  0  0  0
 22 24  1  0  0  0  0
 22 23  1  1  0  0  0
 24 26  1  1  0  0  0
 25 21  1  1  0  0  0
 25 22  1  0  0  0  0
 25 24  1  0  0  0  0
 26 27  1  0  0  0  0
M  END
>  <MODEL>
5

>  <REMARK>
 VINA RESULT:      -6.0      5.518      9.319
  Name = 
  5 active torsions:
  status: ('A' for Active; 'I' for Inactive)
    1  A    between atoms: C_1  and  C_2
    2  A    between atoms: C_1  and  N_15
    3  A    between atoms: C_1  and  C_18
    4  A    between atoms: C_7  and  C_25
    5  A    between atoms: N_15  and  C_27
                            x       y       z     vdW  Elec       q    Type
                         _______ _______ _______ _____ _____    ______ ____

>  <TORSDO>
F 5

$$$$
=
 OpenBabel10272401143D

 27 30  0  0  1  0  0  0  0  0999 V2000
  188.2750  177.7120  141.5840 C   0  0  2  0  0  3  0  0  0  0  0  0
  187.3100  178.8970  141.8320 C   0  0  1  0  0  3  0  0  0  0  0  0
  183.5990  178.6930  143.9520 C   0  0  0  0  0  2  0  0  0  0  0  0
  184.1080  178.8210  146.2790 O   0  0  0  0  0  0  0  0  0  0  0  0
  186.0720  178.7880  141.0540 N   0  0  0  0  0  2  0  0  0  0  0  0
  185.7530  177.6130  145.0920 C   0  0  0  0  0  3  0  0  0  0  0  0
  186.7040  177.7390  144.1540 C   0  0  0  0  0  3  0  0  0  0  0  0
  184.5040  178.4320  145.1500 C   0  0  0  0  0  0  0  0  0  0  0  0
  184.2490  179.3570  142.7260 C   0  0  0  0  0  2  0  0  0  0  0  0
  186.5540  178.8200  143.1460 C   0  0  2  0  0  3  0  0  0  0  0  0
  185.3810  178.4640  142.2960 C   0  0  2  0  0  3  0  0  0  0  0  0
  189.8370  178.8970  143.3230 C   0  0  1  0  0  3  0  0  0  0  0  0
  190.7280  176.4780  144.2420 O   0  0  0  0  0  0  0  0  0  0  0  0
  189.7430  180.0970  142.6190 O   0  0  0  0  0  1  0  0  0  0  0  0
  188.5950  175.6930  143.6010 C   0  0  0  0  0  1  0  0  0  0  0  0
  189.5900  177.6940  142.3950 C   0  0  1  0  0  3  0  0  0  0  0  0
  191.7670  177.3850  143.9570 C   0  0  0  0  0  2  0  0  0  0  0  0
  190.4810  175.4700  142.1930 O   0  0  0  0  0  1  0  0  0  0  0  0
  189.8830  176.3390  143.1090 C   0  0  1  0  0  0  0  0  0  0  0  0
  191.2220  178.8130  143.9710 C   0  0  0  0  0  2  0  0  0  0  0  0
  188.4200  177.2880  140.1870 N   0  0  0  0  0  2  0  0  0  0  0  0
  188.9830  178.7910  138.2900 C   0  0  2  0  0  3  0  0  0  0  0  0
  187.6130  178.5900  138.0740 O   0  0  0  0  0  1  0  0  0  0  0  0
  189.8020  177.5100  138.1170 C   0  0  1  0  0  3  0  0  0  0  0  0
  189.4900  178.0360  139.5220 C   0  0  2  0  0  3  0  0  0  0  0  0
  188.9780  176.2910  137.6950 C   0  0  0  0  0  2  0  0  0  0  0  0
  189.9080  175.1530  137.3250 C   0  0  0  0  0  1  0  0  0  0  0  0
  1 21  1  6  0  0  0
  2  1  1  6  0  0  0
  2 10  1  0  0  0  0
  3  8  1  0  0  0  0
  5  2  1  0  0  0  0
  5 11  1  0  0  0  0
  6  8  1  0  0  0  0
  7  6  2  0  0  0  0
  8  4  2  0  0  0  0
  9  3  1  0  0  0  0
 10  7  1  1  0  0  0
 11  9  1  1  0  0  0
 11 10  1  0  0  0  0
 12 14  1  6  0  0  0
 12 20  1  0  0  0  0
 16  1  1  1  0  0  0
 16 19  1  0  0  0  0
 16 12  1  0  0  0  0
 17 20  1  0  0  0  0
 17 13  1  0  0  0  0
 18 19  1  0  0  0  0
 19 15  1  1  0  0  0
 19 13  1  0  0  0  0
 22 23  1  1  0  0  0
 22 25  1  0  0  0  0
 24 26  1  1  0  0  0
 24 22  1  0  0  0  0
 24 25  1  0  0  0  0
 25 21  1  1  0  0  0
 27 26  1  0  0  0  0
M  END
>  <MODEL>
6

>  <REMARK>
 VINA RESULT:      -6.0      1.534      2.558
  Name = 
  5 active torsions:
  status: ('A' for Active; 'I' for Inactive)
    1  A    between atoms: C_1  and  C_2
    2  A    between atoms: C_1  and  N_15
    3  A    between atoms: C_1  and  C_18
    4  A    between atoms: C_7  and  C_25
    5  A    between atoms: N_15  and  C_27
                            x       y       z     vdW  Elec       q    Type
                         _______ _______ _______ _____ _____    ______ ____

>  <TORSDO>
F 5

$$$$
=
 OpenBabel10272401143D

 27 30  0  0  1  0  0  0  0  0999 V2000
  190.9350  176.3570  137.3550 C   0  0  2  0  0  3  0  0  0  0  0  0
  190.7770  175.8620  138.8130 C   0  0  1  0  0  3  0  0  0  0  0  0
  189.4200  178.2220  142.1150 C   0  0  0  0  0  2  0  0  0  0  0  0
  187.0370  178.2510  142.0280 O   0  0  0  0  0  0  0  0  0  0  0  0
  191.7810  176.4370  139.7150 N   0  0  0  0  0  2  0  0  0  0  0  0
  187.9870  178.2720  139.8670 C   0  0  0  0  0  3  0  0  0  0  0  0
  188.7150  177.5390  139.0120 C   0  0  0  0  0  3  0  0  0  0  0  0
  188.0990  178.1990  141.3560 C   0  0  0  0  0  0  0  0  0  0  0  0
  190.4420  177.1300  141.7570 C   0  0  0  0  0  2  0  0  0  0  0  0
  189.6400  176.5210  139.5740 C   0  0  2  0  0  3  0  0  0  0  0  0
  190.7230  177.2620  140.2840 C   0  0  2  0  0  3  0  0  0  0  0  0
  189.0570  174.6200  136.7870 C   0  0  1  0  0  3  0  0  0  0  0  0
  188.0780  176.2500  134.8190 O   0  0  0  0  0  0  0  0  0  0  0  0
  189.7580  173.6150  137.4520 O   0  0  0  0  0  1  0  0  0  0  0  0
  188.9110  178.0060  136.1590 C   0  0  0  0  0  1  0  0  0  0  0  0
  190.0110  175.7210  136.2920 C   0  0  1  0  0  3  0  0  0  0  0  0
  188.2630  174.9190  134.4010 C   0  0  0  0  0  2  0  0  0  0  0  0
  190.1480  177.1270  134.3460 O   0  0  0  0  0  1  0  0  0  0  0  0
  189.2830  176.7530  135.3770 C   0  0  1  0  0  0  0  0  0  0  0  0
  188.2880  173.9960  135.6190 C   0  0  0  0  0  2  0  0  0  0  0  0
  192.3130  176.5800  136.9010 N   0  0  0  0  0  2  0  0  0  0  0  0
  194.1850  174.9460  136.9270 C   0  0  2  0  0  3  0  0  0  0  0  0
  194.5730  175.8130  137.9570 O   0  0  0  0  0  1  0  0  0  0  0  0
  194.1870  175.6220  135.5540 C   0  0  1  0  0  3  0  0  0  0  0  0
  192.8620  175.3710  136.2830 C   0  0  2  0  0  3  0  0  0  0  0  0
  194.6590  177.0780  135.5720 C   0  0  0  0  0  2  0  0  0  0  0  0
  196.0070  177.1830  134.8890 C   0  0  0  0  0  1  0  0  0  0  0  0
  1 21  1  6  0  0  0
  2  1  1  6  0  0  0
  2 10  1  0  0  0  0
  2  5  1  0  0  0  0
  5 11  1  0  0  0  0
  6  8  1  0  0  0  0
  7  6  2  0  0  0  0
  8  4  2  0  0  0  0
  8  3  1  0  0  0  0
  9  3  1  0  0  0  0
 10  7  1  6  0  0  0
 10 11  1  0  0  0  0
 11  9  1  1  0  0  0
 12 14  1  6  0  0  0
 13 19  1  0  0  0  0
 16 12  1  0  0  0  0
 16  1  1  1  0  0  0
 17 13  1  0  0  0  0
 17 20  1  0  0  0  0
 18 19  1  0  0  0  0
 19 15  1  1  0  0  0
 19 16  1  0  0  0  0
 20 12  1  0  0  0  0
 22 23  1  1  0  0  0
 24 26  1  1  0  0  0
 24 25  1  0  0  0  0
 24 22  1  0  0  0  0
 25 21  1  1  0  0  0
 25 22  1  0  0  0  0
 27 26  1  0  0  0  0
M  END
>  <MODEL>
7

>  <REMARK>
 VINA RESULT:      -5.8      3.649      6.958
  Name = 
  5 active torsions:
  status: ('A' for Active; 'I' for Inactive)
    1  A    between atoms: C_1  and  C_2
    2  A    between atoms: C_1  and  N_15
    3  A    between atoms: C_1  and  C_18
    4  A    between atoms: C_7  and  C_25
    5  A    between atoms: N_15  and  C_27
                            x       y       z     vdW  Elec       q    Type
                         _______ _______ _______ _____ _____    ______ ____

>  <TORSDO>
F 5

$$$$
=
 OpenBabel10272401143D

 27 30  0  0  1  0  0  0  0  0999 V2000
  189.0000  178.0580  141.8880 C   0  0  2  0  0  3  0  0  0  0  0  0
  188.8290  177.0670  140.7120 C   0  0  1  0  0  3  0  0  0  0  0  0
  191.1980  176.9900  137.1490 C   0  0  0  0  0  2  0  0  0  0  0  0
  193.2010  175.8000  137.6590 O   0  0  0  0  0  0  0  0  0  0  0  0
  188.2920  177.7100  139.5080 N   0  0  0  0  0  2  0  0  0  0  0  0
  192.4650  177.0920  139.4930 C   0  0  0  0  0  3  0  0  0  0  0  0
  191.4700  177.2150  140.3840 C   0  0  0  0  0  3  0  0  0  0  0  0
  192.3010  176.5560  138.1070 C   0  0  0  0  0  0  0  0  0  0  0  0
  189.7500  176.8100  137.6350 C   0  0  0  0  0  2  0  0  0  0  0  0
  190.1250  176.7080  140.0070 C   0  0  2  0  0  3  0  0  0  0  0  0
  189.6180  177.5900  138.9150 C   0  0  2  0  0  3  0  0  0  0  0  0
  190.3440  178.7660  144.0240 C   0  0  1  0  0  3  0  0  0  0  0  0
  190.2730  176.2020  144.9770 O   0  0  0  0  0  0  0  0  0  0  0  0
  190.7650  179.9370  143.3950 O   0  0  0  0  0  1  0  0  0  0  0  0
  188.2370  176.0490  143.7920 C   0  0  0  0  0  1  0  0  0  0  0  0
  190.0140  177.6750  142.9900 C   0  0  1  0  0  3  0  0  0  0  0  0
  191.5590  176.7740  145.0090 C   0  0  0  0  0  2  0  0  0  0  0  0
  190.2760  175.2880  142.8700 O   0  0  0  0  0  1  0  0  0  0  0  0
  189.7330  176.2990  143.6670 C   0  0  1  0  0  0  0  0  0  0  0  0
  191.4450  178.2980  144.9810 C   0  0  0  0  0  2  0  0  0  0  0  0
  187.7660  178.6730  142.3910 N   0  0  0  0  0  2  0  0  0  0  0  0
  185.3650  178.6130  141.7510 C   0  0  2  0  0  3  0  0  0  0  0  0
  185.6120  179.9920  141.7360 O   0  0  0  0  0  1  0  0  0  0  0  0
  185.4810  178.0100  143.1540 C   0  0  1  0  0  3  0  0  0  0  0  0
  186.6110  177.8090  142.1370 C   0  0  2  0  0  3  0  0  0  0  0  0
  185.7850  179.0300  144.2530 C   0  0  0  0  0  2  0  0  0  0  0  0
  185.4770  178.4250  145.6070 C   0  0  0  0  0  1  0  0  0  0  0  0
  1 21  1  1  0  0  0
  2  1  1  1  0  0  0
  3  9  1  0  0  0  0
  3  8  1  0  0  0  0
  4  8  2  0  0  0  0
  5  2  1  0  0  0  0
  6  7  2  0  0  0  0
  8  6  1  0  0  0  0
 10  7  1  1  0  0  0
 10  2  1  0  0  0  0
 11  9  1  6  0  0  0
 11  5  1  0  0  0  0
 11 10  1  0  0  0  0
 12 14  1  6  0  0  0
 12 20  1  0  0  0  0
 13 17  1  0  0  0  0
 16  1  1  1  0  0  0
 16 19  1  0  0  0  0
 16 12  1  0  0  0  0
 18 19  1  0  0  0  0
 19 15  1  1  0  0  0
 19 13  1  0  0  0  0
 20 17  1  0  0  0  0
 22 23  1  1  0  0  0
 22 25  1  0  0  0  0
 22 24  1  0  0  0  0
 24 26  1  1  0  0  0
 25 21  1  1  0  0  0
 25 24  1  0  0  0  0
 26 27  1  0  0  0  0
M  END
>  <MODEL>
8

>  <REMARK>
 VINA RESULT:      -5.8      1.774      5.945
  Name = 
  5 active torsions:
  status: ('A' for Active; 'I' for Inactive)
    1  A    between atoms: C_1  and  C_2
    2  A    between atoms: C_1  and  N_15
    3  A    between atoms: C_1  and  C_18
    4  A    between atoms: C_7  and  C_25
    5  A    between atoms: N_15  and  C_27
                            x       y       z     vdW  Elec       q    Type
                         _______ _______ _______ _____ _____    ______ ____

>  <TORSDO>
F 5

$$$$
=
 OpenBabel10272401143D

 27 30  0  0  1  0  0  0  0  0999 V2000
  189.9250  176.9290  139.6860 C   0  0  2  0  0  3  0  0  0  0  0  0
  188.7820  177.8930  139.2870 C   0  0  1  0  0  3  0  0  0  0  0  0
  186.8790  178.0570  135.4580 C   0  0  0  0  0  2  0  0  0  0  0  0
  185.2320  176.3330  135.4150 O   0  0  0  0  0  0  0  0  0  0  0  0
  189.2190  178.9220  138.3380 N   0  0  0  0  0  2  0  0  0  0  0  0
  187.1520  175.6730  136.6190 C   0  0  0  0  0  3  0  0  0  0  0  0
  187.8660  175.9390  137.7230 C   0  0  0  0  0  3  0  0  0  0  0  0
  186.3550  176.6840  135.8600 C   0  0  0  0  0  0  0  0  0  0  0  0
  187.3760  178.9670  136.5940 C   0  0  0  0  0  2  0  0  0  0  0  0
  187.7990  177.3120  138.2860 C   0  0  2  0  0  3  0  0  0  0  0  0
  188.4690  178.2170  137.3070 C   0  0  2  0  0  3  0  0  0  0  0  0
  191.5650  177.8360  141.5180 C   0  0  1  0  0  3  0  0  0  0  0  0
  189.6110  177.6550  143.4260 O   0  0  0  0  0  0  0  0  0  0  0  0
  192.6620  177.5430  140.7090 O   0  0  0  0  0  1  0  0  0  0  0  0
  188.1260  178.0380  141.6310 C   0  0  0  0  0  1  0  0  0  0  0  0
  190.3670  176.9360  141.1680 C   0  0  1  0  0  3  0  0  0  0  0  0
  190.8330  177.0770  143.8200 C   0  0  0  0  0  2  0  0  0  0  0  0
  188.6100  175.8570  142.4050 O   0  0  0  0  0  1  0  0  0  0  0  0
  189.1960  177.1060  142.1840 C   0  0  1  0  0  0  0  0  0  0  0  0
  191.9720  177.6600  142.9840 C   0  0  0  0  0  2  0  0  0  0  0  0
  191.0300  176.8140  138.7270 N   0  0  0  0  0  2  0  0  0  0  0  0
  192.6730  175.2240  137.7540 C   0  0  2  0  0  3  0  0  0  0  0  0
  193.3550  176.4380  137.6050 O   0  0  0  0  0  1  0  0  0  0  0  0
  191.4050  175.1520  136.9000 C   0  0  1  0  0  3  0  0  0  0  0  0
  191.3000  175.4100  138.4070 C   0  0  2  0  0  3  0  0  0  0  0  0
  191.1670  176.3830  136.0230 C   0  0  0  0  0  2  0  0  0  0  0  0
  190.3560  175.9910  134.8050 C   0  0  0  0  0  1  0  0  0  0  0  0
  1 21  1  6  0  0  0
  2  1  1  6  0  0  0
  3  8  1  0  0  0  0
  3  9  1  0  0  0  0
  4  8  2  0  0  0  0
  5  2  1  0  0  0  0
  6  7  2  0  0  0  0
  8  6  1  0  0  0  0
 10  7  1  6  0  0  0
 10  2  1  0  0  0  0
 11  9  1  1  0  0  0
 11 10  1  0  0  0  0
 11  5  1  0  0  0  0
 12 14  1  6  0  0  0
 12 20  1  0  0  0  0
 13 17  1  0  0  0  0
 16  1  1  6  0  0  0
 16 12  1  0  0  0  0
 16 19  1  0  0  0  0
 19 15  1  6  0  0  0
 19 18  1  0  0  0  0
 19 13  1  0  0  0  0
 20 17  1  0  0  0  0
 22 23  1  6  0  0  0
 22 25  1  0  0  0  0
 24 26  1  6  0  0  0
 24 22  1  0  0  0  0
 24 25  1  0  0  0  0
 25 21  1  6  0  0  0
 27 26  1  0  0  0  0
M  END
>  <MODEL>
9

>  <REMARK>
 VINA RESULT:      -5.7      2.679      5.207
  Name = 
  5 active torsions:
  status: ('A' for Active; 'I' for Inactive)
    1  A    between atoms: C_1  and  C_2
    2  A    between atoms: C_1  and  N_15
    3  A    between atoms: C_1  and  C_18
    4  A    between atoms: C_7  and  C_25
    5  A    between atoms: N_15  and  C_27
                            x       y       z     vdW  Elec       q    Type
                         _______ _______ _______ _____ _____    ______ ____

>  <TORSDO>
F 5

$$$$
