=
 OpenBabel10272414013D

 30 31  0  0  1  0  0  0  0  0999 V2000
  189.6980  176.1670  143.5270 C   0  0  1  0  0  3  0  0  0  0  0  0
  188.4740  177.7240  145.6740 C   0  0  0  0  0  2  0  0  0  0  0  0
  187.3620  177.4730  144.6760 C   0  0  0  0  0  0  0  0  0  0  0  0
  190.4460  175.1130  142.9780 O   0  0  0  0  0  1  0  0  0  0  0  0
  189.8110  178.1770  145.0250 C   0  0  0  0  0  2  0  0  0  0  0  0
  190.4600  177.1460  144.2290 N   0  0  0  0  0  0  0  0  0  0  0  0
  187.6390  177.6240  143.2000 C   0  0  2  0  0  3  0  0  0  0  0  0
  186.3540  176.9660  145.0670 O   0  0  0  0  0  0  0  0  0  0  0  0
  188.6660  176.7080  142.4530 C   0  0  1  0  0  3  0  0  0  0  0  0
  191.4950  177.8620  143.3130 C   0  0  0  0  0  2  0  0  0  0  0  0
  191.6440  179.1770  143.6740 O   0  0  0  0  0  1  0  0  0  0  0  0
  187.1010  178.8580  142.4940 C   0  0  0  0  0  2  0  0  0  0  0  0
  185.7230  178.4850  141.8560 C   0  0  0  0  0  2  0  0  0  0  0  0
  184.6220  179.3090  142.4860 N   0  0  0  0  0  2  0  0  0  0  0  0
  183.8530  178.4110  143.4500 C   0  0  0  0  0  3  0  0  0  0  0  0
  183.5900  179.1010  144.7780 C   0  0  0  0  0  2  0  0  0  0  0  0
  182.4850  179.1000  143.7240 C   0  0  0  0  0  2  0  0  0  0  0  0
  189.3050  177.4050  141.2260 C   0  0  0  0  0  2  0  0  0  0  0  0
  190.1360  176.9280  140.0090 C   0  0  0  0  0  2  0  0  0  0  0  0
  189.5930  177.2030  138.5980 C   0  0  2  0  0  0  0  0  0  0  0  0
  189.1280  178.6950  138.6940 C   0  0  0  0  0  1  0  0  0  0  0  0
  188.4730  176.3240  138.3950 O   0  0  0  0  0  0  0  0  0  0  0  0
  188.0210  176.2250  137.0450 C   0  0  0  0  0  3  0  0  0  0  0  0
  186.9190  175.1920  136.5240 C   0  0  0  0  0  3  0  0  0  0  0  0
  186.4770  174.2200  137.3660 O   0  0  0  0  0  1  0  0  0  0  0  0
  190.6980  176.9300  137.3710 C   0  0  0  0  0  2  0  0  0  0  0  0
  191.3970  174.6580  138.0170 O   0  0  0  0  0  1  0  0  0  0  0  0
  191.7750  175.7830  137.2480 C   0  0  2  0  0  3  0  0  0  0  0  0
  194.0160  176.6700  136.9840 O   0  0  0  0  0  1  0  0  0  0  0  0
  192.9970  176.3840  137.8880 C   0  0  0  0  0  2  0  0  0  0  0  0
  1  4  1  6  0  0  0
  1  6  1  0  0  0  0
  3  8  2  0  0  0  0
  3  2  1  0  0  0  0
  5  2  1  0  0  0  0
  6  5  1  0  0  0  0
  7 12  1  1  0  0  0
  7  3  1  0  0  0  0
  9 18  1  6  0  0  0
  9  7  1  0  0  0  0
  9  1  1  0  0  0  0
 10 11  1  0  0  0  0
 10  6  1  0  0  0  0
 13 14  1  0  0  0  0
 13 12  1  0  0  0  0
 14 15  1  0  0  0  0
 15 17  1  0  0  0  0
 15 16  1  0  0  0  0
 17 16  1  0  0  0  0
 19 18  1  0  0  0  0
 20 21  1  6  0  0  0
 20 19  1  0  0  0  0
 22 20  1  0  0  0  0
 23 22  1  0  0  0  0
 24 23  2  0  0  0  0
 24 25  1  0  0  0  0
 26 20  1  0  0  0  0
 28 26  1  0  0  0  0
 28 30  1  0  0  0  0
 28 27  1  1  0  0  0
 29 30  1  0  0  0  0
M  END
>  <MODEL>
1

>  <REMARK>
 VINA RESULT:      -6.3      0.000      0.000
  Name = 
  14 active torsions:
  status: ('A' for Active; 'I' for Inactive)
    1  A    between atoms: C_1  and  C_4
    2  A    between atoms: C_1  and  C_22
    3  A    between atoms: C_4  and  O_8
    4  A    between atoms: C_4  and  C_12
    5  A    between atoms: C_7  and  C_23
    6  A    between atoms: C_7  and  C_25
    7  A    between atoms: O_8  and  C_27
    8  A    between atoms: C_10  and  N_15
    9  A    between atoms: C_12  and  C_21
   10  A    between atoms: C_13  and  C_27
   11  A    between atoms: C_14  and  N_20
   12  A    between atoms: N_15  and  C_25
   13  A    between atoms: C_17  and  C_21
   14  A    between atoms: C_22  and  C_29
                            x       y       z     vdW  Elec       q    Type
                         _______ _______ _______ _____ _____    ______ ____

>  <TORSDO>
F 14

$$$$
=
 OpenBabel10272414013D

 30 31  0  0  1  0  0  0  0  0999 V2000
  189.4930  176.3110  143.4250 C   0  0  1  0  0  3  0  0  0  0  0  0
  188.4160  177.6940  145.7630 C   0  0  0  0  0  2  0  0  0  0  0  0
  187.2360  177.4950  144.8350 C   0  0  0  0  0  0  0  0  0  0  0  0
  190.2090  175.3100  142.7490 O   0  0  0  0  0  1  0  0  0  0  0  0
  189.6960  178.2130  145.0500 C   0  0  0  0  0  2  0  0  0  0  0  0
  190.2950  177.2510  144.1360 N   0  0  0  0  0  0  0  0  0  0  0  0
  187.4000  177.7530  143.3560 C   0  0  2  0  0  3  0  0  0  0  0  0
  186.2650  176.9460  145.2620 O   0  0  0  0  0  0  0  0  0  0  0  0
  188.3770  176.9090  142.4710 C   0  0  1  0  0  3  0  0  0  0  0  0
  191.2500  178.0460  143.1990 C   0  0  0  0  0  2  0  0  0  0  0  0
  191.5750  179.2610  143.7460 O   0  0  0  0  0  1  0  0  0  0  0  0
  186.7960  179.0250  142.7820 C   0  0  0  0  0  2  0  0  0  0  0  0
  185.4160  178.6580  142.1450 C   0  0  0  0  0  2  0  0  0  0  0  0
  185.2390  179.3940  140.8360 N   0  0  0  0  0  2  0  0  0  0  0  0
  184.2760  178.5900  139.9690 C   0  0  0  0  0  3  0  0  0  0  0  0
  183.6260  179.4480  138.8980 C   0  0  0  0  0  2  0  0  0  0  0  0
  184.8420  178.6060  138.5190 C   0  0  0  0  0  2  0  0  0  0  0  0
  188.9150  177.7000  141.2540 C   0  0  0  0  0  2  0  0  0  0  0  0
  188.3600  178.0570  139.8520 C   0  0  0  0  0  2  0  0  0  0  0  0
  189.0880  177.5090  138.6140 C   0  0  2  0  0  0  0  0  0  0  0  0
  189.0780  178.7340  137.6390 C   0  0  0  0  0  1  0  0  0  0  0  0
  188.2920  176.4290  138.0970 O   0  0  0  0  0  0  0  0  0  0  0  0
  188.0700  176.4670  136.6870 C   0  0  0  0  0  2  0  0  0  0  0  0
  188.4750  175.3050  135.6670 C   0  0  0  0  0  2  0  0  0  0  0  0
  189.7050  175.3360  135.0890 O   0  0  0  0  0  1  0  0  0  0  0  0
  190.6250  176.9210  138.9260 C   0  0  0  0  0  2  0  0  0  0  0  0
  191.4180  174.7540  138.0660 O   0  0  0  0  0  1  0  0  0  0  0  0
  191.6030  176.1510  137.9570 C   0  0  2  0  0  3  0  0  0  0  0  0
  192.9270  177.2140  139.6880 O   0  0  0  0  0  1  0  0  0  0  0  0
  192.9650  176.4760  138.5090 C   0  0  0  0  0  2  0  0  0  0  0  0
  1  4  1  6  0  0  0
  1  6  1  0  0  0  0
  3  8  2  0  0  0  0
  3  2  1  0  0  0  0
  5  2  1  0  0  0  0
  6  5  1  0  0  0  0
  7 12  1  1  0  0  0
  7  3  1  0  0  0  0
  9 18  1  6  0  0  0
  9  7  1  0  0  0  0
  9  1  1  0  0  0  0
 10 11  1  0  0  0  0
 10  6  1  0  0  0  0
 13 12  1  0  0  0  0
 14 13  1  0  0  0  0
 15 14  1  0  0  0  0
 16 15  1  0  0  0  0
 17 16  1  0  0  0  0
 17 15  1  0  0  0  0
 19 18  1  0  0  0  0
 20 21  1  6  0  0  0
 20 26  1  0  0  0  0
 20 19  1  0  0  0  0
 22 20  1  0  0  0  0
 23 22  1  0  0  0  0
 24 23  1  0  0  0  0
 25 24  1  0  0  0  0
 28 27  1  1  0  0  0
 28 30  1  0  0  0  0
 28 26  1  0  0  0  0
 30 29  1  0  0  0  0
M  END
>  <MODEL>
2

>  <REMARK>
 VINA RESULT:      -6.1      1.486      2.024
  Name = 
  14 active torsions:
  status: ('A' for Active; 'I' for Inactive)
    1  A    between atoms: C_1  and  C_4
    2  A    between atoms: C_1  and  C_22
    3  A    between atoms: C_4  and  O_8
    4  A    between atoms: C_4  and  C_12
    5  A    between atoms: C_7  and  C_23
    6  A    between atoms: C_7  and  C_25
    7  A    between atoms: O_8  and  C_27
    8  A    between atoms: C_10  and  N_15
    9  A    between atoms: C_12  and  C_21
   10  A    between atoms: C_13  and  C_27
   11  A    between atoms: C_14  and  N_20
   12  A    between atoms: N_15  and  C_25
   13  A    between atoms: C_17  and  C_21
   14  A    between atoms: C_22  and  C_29
                            x       y       z     vdW  Elec       q    Type
                         _______ _______ _______ _____ _____    ______ ____

>  <TORSDO>
F 14

$$$$
=
 OpenBabel10272414013D

 30 31  0  0  1  0  0  0  0  0999 V2000
  190.4070  175.9930  143.9410 C   0  0  1  0  0  3  0  0  0  0  0  0
  191.0790  177.1720  146.5290 C   0  0  0  0  0  2  0  0  0  0  0  0
  189.6060  176.8290  146.6140 C   0  0  0  0  0  0  0  0  0  0  0  0
  190.5620  175.1120  142.8590 O   0  0  0  0  0  1  0  0  0  0  0  0
  191.4850  177.8750  145.2040 C   0  0  0  0  0  2  0  0  0  0  0  0
  191.3910  177.0210  144.0290 N   0  0  0  0  0  0  0  0  0  0  0  0
  188.7020  177.1350  145.4440 C   0  0  2  0  0  3  0  0  0  0  0  0
  189.2350  176.1440  147.5190 O   0  0  0  0  0  0  0  0  0  0  0  0
  188.8930  176.4490  144.0490 C   0  0  1  0  0  3  0  0  0  0  0  0
  191.3830  177.9570  142.7850 C   0  0  0  0  0  2  0  0  0  0  0  0
  191.9870  177.3530  141.7120 O   0  0  0  0  0  1  0  0  0  0  0  0
  187.7590  178.3220  145.5600 C   0  0  0  0  0  2  0  0  0  0  0  0
  186.7880  178.0500  146.7550 C   0  0  0  0  0  2  0  0  0  0  0  0
  185.3660  177.9410  146.2500 N   0  0  0  0  0  2  0  0  0  0  0  0
  185.1470  179.0440  145.2190 C   0  0  0  0  0  3  0  0  0  0  0  0
  184.6300  178.4920  143.9010 C   0  0  0  0  0  2  0  0  0  0  0  0
  183.6250  179.0710  144.8950 C   0  0  0  0  0  2  0  0  0  0  0  0
  188.3910  177.3290  142.8780 C   0  0  0  0  0  2  0  0  0  0  0  0
  188.1860  177.1110  141.3580 C   0  0  0  0  0  2  0  0  0  0  0  0
  188.2080  178.3380  140.4320 C   0  0  2  0  0  0  0  0  0  0  0  0
  188.3510  179.5270  141.4410 C   0  0  0  0  0  1  0  0  0  0  0  0
  186.9400  178.3830  139.7560 O   0  0  0  0  0  0  0  0  0  0  0  0
  185.8400  178.7930  140.5670 C   0  0  0  0  0  2  0  0  0  0  0  0
  184.4030  179.2170  140.0120 C   0  0  0  0  0  2  0  0  0  0  0  0
  184.3130  180.2660  139.1500 O   0  0  0  0  0  1  0  0  0  0  0  0
  189.4160  178.3010  139.2730 C   0  0  0  0  0  2  0  0  0  0  0  0
  188.5940  176.3350  138.0380 O   0  0  0  0  0  1  0  0  0  0  0  0
  189.7020  177.2010  138.1790 C   0  0  2  0  0  3  0  0  0  0  0  0
  190.8310  175.0660  138.3950 O   0  0  0  0  0  1  0  0  0  0  0  0
  190.8320  176.4050  138.7740 C   0  0  0  0  0  2  0  0  0  0  0  0
  1  4  1  6  0  0  0
  1  6  1  0  0  0  0
  1  9  1  0  0  0  0
  2  3  1  0  0  0  0
  3  8  2  0  0  0  0
  5  2  1  0  0  0  0
  6  5  1  0  0  0  0
  7 12  1  6  0  0  0
  7  3  1  0  0  0  0
  9 18  1  6  0  0  0
  9  7  1  0  0  0  0
 10  6  1  0  0  0  0
 11 10  1  0  0  0  0
 12 13  1  0  0  0  0
 14 13  1  0  0  0  0
 15 14  1  0  0  0  0
 16 17  1  0  0  0  0
 16 15  1  0  0  0  0
 17 15  1  0  0  0  0
 19 18  1  0  0  0  0
 20 19  1  0  0  0  0
 20 21  1  1  0  0  0
 22 20  1  0  0  0  0
 22 23  1  0  0  0  0
 24 23  1  0  0  0  0
 25 24  1  0  0  0  0
 26 20  1  0  0  0  0
 28 27  1  1  0  0  0
 28 30  1  0  0  0  0
 28 26  1  0  0  0  0
 29 30  1  0  0  0  0
M  END
>  <MODEL>
3

>  <REMARK>
 VINA RESULT:      -5.9      2.020      3.144
  Name = 
  14 active torsions:
  status: ('A' for Active; 'I' for Inactive)
    1  A    between atoms: C_1  and  C_4
    2  A    between atoms: C_1  and  C_22
    3  A    between atoms: C_4  and  O_8
    4  A    between atoms: C_4  and  C_12
    5  A    between atoms: C_7  and  C_23
    6  A    between atoms: C_7  and  C_25
    7  A    between atoms: O_8  and  C_27
    8  A    between atoms: C_10  and  N_15
    9  A    between atoms: C_12  and  C_21
   10  A    between atoms: C_13  and  C_27
   11  A    between atoms: C_14  and  N_20
   12  A    between atoms: N_15  and  C_25
   13  A    between atoms: C_17  and  C_21
   14  A    between atoms: C_22  and  C_29
                            x       y       z     vdW  Elec       q    Type
                         _______ _______ _______ _____ _____    ______ ____

>  <TORSDO>
F 14

$$$$
=
 OpenBabel10272414013D

 30 31  0  0  1  0  0  0  0  0999 V2000
  185.5670  177.4910  144.7300 C   0  0  1  0  0  3  0  0  0  0  0  0
  183.6140  178.9180  143.0920 C   0  0  0  0  0  2  0  0  0  0  0  0
  184.5450  178.2400  142.1070 C   0  0  0  0  0  0  0  0  0  0  0  0
  185.9900  176.6220  145.7480 O   0  0  0  0  0  1  0  0  0  0  0  0
  184.3470  179.6330  144.2600 C   0  0  0  0  0  2  0  0  0  0  0  0
  185.0160  178.7270  145.1810 N   0  0  0  0  0  0  0  0  0  0  0  0
  186.0340  178.2660  142.3530 C   0  0  2  0  0  3  0  0  0  0  0  0
  184.0680  177.5300  141.2730 O   0  0  0  0  0  0  0  0  0  0  0  0
  186.6790  177.5800  143.6040 C   0  0  1  0  0  3  0  0  0  0  0  0
  186.0410  179.5740  145.9900 C   0  0  0  0  0  2  0  0  0  0  0  0
  185.7170  179.5940  147.3230 O   0  0  0  0  0  1  0  0  0  0  0  0
  186.8820  179.2000  141.5040 C   0  0  0  0  0  2  0  0  0  0  0  0
  187.6780  178.3280  140.4790 C   0  0  0  0  0  2  0  0  0  0  0  0
  187.1550  178.5690  139.0810 N   0  0  0  0  0  2  0  0  0  0  0  0
  188.0780  177.8490  138.1020 C   0  0  0  0  0  3  0  0  0  0  0  0
  187.6910  178.1180  136.6570 C   0  0  0  0  0  2  0  0  0  0  0  0
  188.8160  178.9440  137.2780 C   0  0  0  0  0  2  0  0  0  0  0  0
  188.0000  178.2590  144.0430 C   0  0  0  0  0  2  0  0  0  0  0  0
  189.1150  177.9210  145.0640 C   0  0  0  0  0  2  0  0  0  0  0  0
  190.5540  177.7590  144.5510 C   0  0  2  0  0  0  0  0  0  0  0  0
  191.0120  179.2410  144.3370 C   0  0  0  0  0  1  0  0  0  0  0  0
  190.4810  177.0550  143.2990 O   0  0  0  0  0  0  0  0  0  0  0  0
  191.3650  177.5340  142.2860 C   0  0  0  0  0  3  0  0  0  0  0  0
  191.2270  177.2140  140.7270 C   0  0  0  0  0  3  0  0  0  0  0  0
  190.3890  176.2180  140.3310 O   0  0  0  0  0  1  0  0  0  0  0  0
  191.5560  176.8960  145.5770 C   0  0  0  0  0  2  0  0  0  0  0  0
  190.9760  177.3100  147.9350 O   0  0  0  0  0  1  0  0  0  0  0  0
  191.2290  176.2850  146.9950 C   0  0  2  0  0  3  0  0  0  0  0  0
  193.0790  176.1240  148.5540 O   0  0  0  0  0  1  0  0  0  0  0  0
  192.5160  175.6120  147.3890 C   0  0  0  0  0  2  0  0  0  0  0  0
  1  6  1  0  0  0  0
  1  4  1  1  0  0  0
  2  5  1  0  0  0  0
  3  7  1  0  0  0  0
  3  2  1  0  0  0  0
  5  6  1  0  0  0  0
  6 10  1  0  0  0  0
  7 12  1  1  0  0  0
  7  9  1  0  0  0  0
  8  3  2  0  0  0  0
  9 18  1  1  0  0  0
  9  1  1  0  0  0  0
 10 11  1  0  0  0  0
 13 12  1  0  0  0  0
 14 13  1  0  0  0  0
 15 14  1  0  0  0  0
 16 17  1  0  0  0  0
 16 15  1  0  0  0  0
 17 15  1  0  0  0  0
 18 19  1  0  0  0  0
 20 21  1  6  0  0  0
 20 19  1  0  0  0  0
 20 26  1  0  0  0  0
 22 20  1  0  0  0  0
 23 22  1  0  0  0  0
 24 23  2  0  0  0  0
 25 24  1  0  0  0  0
 26 28  1  0  0  0  0
 28 30  1  0  0  0  0
 28 27  1  1  0  0  0
 30 29  1  0  0  0  0
M  END
>  <MODEL>
4

>  <REMARK>
 VINA RESULT:      -5.8      2.579      6.484
  Name = 
  14 active torsions:
  status: ('A' for Active; 'I' for Inactive)
    1  A    between atoms: C_1  and  C_4
    2  A    between atoms: C_1  and  C_22
    3  A    between atoms: C_4  and  O_8
    4  A    between atoms: C_4  and  C_12
    5  A    between atoms: C_7  and  C_23
    6  A    between atoms: C_7  and  C_25
    7  A    between atoms: O_8  and  C_27
    8  A    between atoms: C_10  and  N_15
    9  A    between atoms: C_12  and  C_21
   10  A    between atoms: C_13  and  C_27
   11  A    between atoms: C_14  and  N_20
   12  A    between atoms: N_15  and  C_25
   13  A    between atoms: C_17  and  C_21
   14  A    between atoms: C_22  and  C_29
                            x       y       z     vdW  Elec       q    Type
                         _______ _______ _______ _____ _____    ______ ____

>  <TORSDO>
F 14

$$$$
=
 OpenBabel10272414013D

 30 31  0  0  1  0  0  0  0  0999 V2000
  189.7410  176.2630  143.4060 C   0  0  1  0  0  3  0  0  0  0  0  0
  188.4540  177.6580  145.6270 C   0  0  0  0  0  2  0  0  0  0  0  0
  187.3590  177.4360  144.6030 C   0  0  0  0  0  0  0  0  0  0  0  0
  190.5230  175.2630  142.8060 O   0  0  0  0  0  1  0  0  0  0  0  0
  189.7840  178.1840  145.0200 C   0  0  0  0  0  2  0  0  0  0  0  0
  190.4690  177.2190  144.1720 N   0  0  0  0  0  0  0  0  0  0  0  0
  187.6470  177.6800  143.1410 C   0  0  2  0  0  3  0  0  0  0  0  0
  186.3610  176.8800  144.9520 O   0  0  0  0  0  0  0  0  0  0  0  0
  188.7050  176.8380  142.3540 C   0  0  1  0  0  3  0  0  0  0  0  0
  191.4930  178.0150  143.3120 C   0  0  0  0  0  2  0  0  0  0  0  0
  191.5870  179.3160  143.7380 O   0  0  0  0  0  1  0  0  0  0  0  0
  187.0810  178.9390  142.5030 C   0  0  0  0  0  2  0  0  0  0  0  0
  185.7450  178.5560  141.7850 C   0  0  0  0  0  2  0  0  0  0  0  0
  184.5950  179.3290  142.3890 N   0  0  0  0  0  2  0  0  0  0  0  0
  183.9000  178.4240  143.4010 C   0  0  0  0  0  3  0  0  0  0  0  0
  183.6870  179.1240  144.7330 C   0  0  0  0  0  2  0  0  0  0  0  0
  182.5300  179.0820  143.7370 C   0  0  0  0  0  2  0  0  0  0  0  0
  189.3370  177.6220  141.1770 C   0  0  0  0  0  2  0  0  0  0  0  0
  188.9010  177.9580  139.7290 C   0  0  0  0  0  2  0  0  0  0  0  0
  189.5770  177.2100  138.5690 C   0  0  2  0  0  0  0  0  0  0  0  0
  188.8810  175.8080  138.6120 C   0  0  0  0  0  1  0  0  0  0  0  0
  190.9750  177.1030  138.8890 O   0  0  0  0  0  0  0  0  0  0  0  0
  191.7600  176.3940  137.9310 C   0  0  0  0  0  2  0  0  0  0  0  0
  193.3370  176.5650  137.7360 C   0  0  0  0  0  2  0  0  0  0  0  0
  194.1720  175.6460  138.2900 O   0  0  0  0  0  1  0  0  0  0  0  0
  189.4390  177.9740  137.0860 C   0  0  0  0  0  2  0  0  0  0  0  0
  189.3870  177.8530  134.6260 O   0  0  0  0  0  1  0  0  0  0  0  0
  188.6750  177.4910  135.7920 C   0  0  2  0  0  3  0  0  0  0  0  0
  187.4110  179.3190  136.7630 O   0  0  0  0  0  1  0  0  0  0  0  0
  187.4030  178.2950  135.8200 C   0  0  0  0  0  2  0  0  0  0  0  0
  1  4  1  6  0  0  0
  1  6  1  0  0  0  0
  3  8  2  0  0  0  0
  3  2  1  0  0  0  0
  5  2  1  0  0  0  0
  6  5  1  0  0  0  0
  7 12  1  1  0  0  0
  7  3  1  0  0  0  0
  9 18  1  6  0  0  0
  9  7  1  0  0  0  0
  9  1  1  0  0  0  0
 10 11  1  0  0  0  0
 10  6  1  0  0  0  0
 13 14  1  0  0  0  0
 13 12  1  0  0  0  0
 14 15  1  0  0  0  0
 15 17  1  0  0  0  0
 15 16  1  0  0  0  0
 17 16  1  0  0  0  0
 19 18  1  0  0  0  0
 20 21  1  6  0  0  0
 20 22  1  0  0  0  0
 20 19  1  0  0  0  0
 23 22  1  0  0  0  0
 24 23  1  0  0  0  0
 24 25  1  0  0  0  0
 26 20  1  0  0  0  0
 28 27  1  6  0  0  0
 28 30  1  0  0  0  0
 28 26  1  0  0  0  0
 30 29  1  0  0  0  0
M  END
>  <MODEL>
5

>  <REMARK>
 VINA RESULT:      -5.8      1.451      3.016
  Name = 
  14 active torsions:
  status: ('A' for Active; 'I' for Inactive)
    1  A    between atoms: C_1  and  C_4
    2  A    between atoms: C_1  and  C_22
    3  A    between atoms: C_4  and  O_8
    4  A    between atoms: C_4  and  C_12
    5  A    between atoms: C_7  and  C_23
    6  A    between atoms: C_7  and  C_25
    7  A    between atoms: O_8  and  C_27
    8  A    between atoms: C_10  and  N_15
    9  A    between atoms: C_12  and  C_21
   10  A    between atoms: C_13  and  C_27
   11  A    between atoms: C_14  and  N_20
   12  A    between atoms: N_15  and  C_25
   13  A    between atoms: C_17  and  C_21
   14  A    between atoms: C_22  and  C_29
                            x       y       z     vdW  Elec       q    Type
                         _______ _______ _______ _____ _____    ______ ____

>  <TORSDO>
F 14

$$$$
=
 OpenBabel10272414013D

 30 31  0  0  1  0  0  0  0  0999 V2000
  188.8790  176.3740  137.6220 C   0  0  1  0  0  3  0  0  0  0  0  0
  190.4740  175.7800  135.2480 C   0  0  0  0  0  2  0  0  0  0  0  0
  191.1420  175.0260  136.3800 C   0  0  0  0  0  0  0  0  0  0  0  0
  187.6990  176.4830  138.3750 O   0  0  0  0  0  1  0  0  0  0  0  0
  190.0940  177.2430  135.6060 C   0  0  0  0  0  2  0  0  0  0  0  0
  189.0340  177.3530  136.5970 N   0  0  0  0  0  0  0  0  0  0  0  0
  191.3300  175.7040  137.7160 C   0  0  2  0  0  3  0  0  0  0  0  0
  191.3200  173.8520  136.2520 O   0  0  0  0  0  0  0  0  0  0  0  0
  190.1150  176.1600  138.5910 C   0  0  1  0  0  3  0  0  0  0  0  0
  189.0880  178.8020  137.1630 C   0  0  0  0  0  2  0  0  0  0  0  0
  187.8830  179.4370  136.9990 O   0  0  0  0  0  1  0  0  0  0  0  0
  192.7260  176.1800  138.0860 C   0  0  0  0  0  2  0  0  0  0  0  0
  193.6370  176.0280  136.8230 C   0  0  0  0  0  2  0  0  0  0  0  0
  194.9710  175.4360  137.2170 N   0  0  0  0  0  2  0  0  0  0  0  0
  194.7060  174.2320  138.1160 C   0  0  0  0  0  3  0  0  0  0  0  0
  195.8110  173.1940  138.0130 C   0  0  0  0  0  2  0  0  0  0  0  0
  195.8490  174.1890  139.1710 C   0  0  0  0  0  2  0  0  0  0  0  0
  190.4520  177.3700  139.4960 C   0  0  0  0  0  2  0  0  0  0  0  0
  190.8610  177.5440  140.9810 C   0  0  0  0  0  2  0  0  0  0  0  0
  189.8060  177.2780  142.0670 C   0  0  2  0  0  0  0  0  0  0  0  0
  190.2040  175.8560  142.5900 C   0  0  0  0  0  1  0  0  0  0  0  0
  188.5240  177.2480  141.4160 O   0  0  0  0  0  0  0  0  0  0  0  0
  187.5740  178.1880  141.9150 C   0  0  0  0  0  3  0  0  0  0  0  0
  186.3220  178.7470  141.0940 C   0  0  0  0  0  3  0  0  0  0  0  0
  185.5030  179.6600  141.6820 O   0  0  0  0  0  1  0  0  0  0  0  0
  189.7530  178.4380  143.2720 C   0  0  0  0  0  2  0  0  0  0  0  0
  191.7460  177.8260  144.5830 O   0  0  0  0  0  1  0  0  0  0  0  0
  190.4770  178.4410  144.6740 C   0  0  2  0  0  3  0  0  0  0  0  0
  188.2490  177.8840  145.4530 O   0  0  0  0  0  1  0  0  0  0  0  0
  189.6000  177.5560  145.5180 C   0  0  0  0  0  2  0  0  0  0  0  0
  1  4  1  1  0  0  0
  1  9  1  0  0  0  0
  2  5  1  0  0  0  0
  2  3  1  0  0  0  0
  3  7  1  0  0  0  0
  5  6  1  0  0  0  0
  6 10  1  0  0  0  0
  6  1  1  0  0  0  0
  7 12  1  6  0  0  0
  7  9  1  0  0  0  0
  8  3  2  0  0  0  0
  9 18  1  6  0  0  0
 11 10  1  0  0  0  0
 13 14  1  0  0  0  0
 13 12  1  0  0  0  0
 14 15  1  0  0  0  0
 15 17  1  0  0  0  0
 16 15  1  0  0  0  0
 16 17  1  0  0  0  0
 18 19  1  0  0  0  0
 19 20  1  0  0  0  0
 20 21  1  1  0  0  0
 20 26  1  0  0  0  0
 22 23  1  0  0  0  0
 22 20  1  0  0  0  0
 24 25  1  0  0  0  0
 24 23  2  0  0  0  0
 26 28  1  0  0  0  0
 28 27  1  6  0  0  0
 28 30  1  0  0  0  0
 29 30  1  0  0  0  0
M  END
>  <MODEL>
6

>  <REMARK>
 VINA RESULT:      -5.4      2.903      8.401
  Name = 
  14 active torsions:
  status: ('A' for Active; 'I' for Inactive)
    1  A    between atoms: C_1  and  C_4
    2  A    between atoms: C_1  and  C_22
    3  A    between atoms: C_4  and  O_8
    4  A    between atoms: C_4  and  C_12
    5  A    between atoms: C_7  and  C_23
    6  A    between atoms: C_7  and  C_25
    7  A    between atoms: O_8  and  C_27
    8  A    between atoms: C_10  and  N_15
    9  A    between atoms: C_12  and  C_21
   10  A    between atoms: C_13  and  C_27
   11  A    between atoms: C_14  and  N_20
   12  A    between atoms: N_15  and  C_25
   13  A    between atoms: C_17  and  C_21
   14  A    between atoms: C_22  and  C_29
                            x       y       z     vdW  Elec       q    Type
                         _______ _______ _______ _____ _____    ______ ____

>  <TORSDO>
F 14

$$$$
=
 OpenBabel10272414013D

 30 31  0  0  1  0  0  0  0  0999 V2000
  189.7440  176.3070  143.2590 C   0  0  1  0  0  3  0  0  0  0  0  0
  188.6820  177.8010  145.5340 C   0  0  0  0  0  2  0  0  0  0  0  0
  187.4820  177.4870  144.6650 C   0  0  0  0  0  0  0  0  0  0  0  0
  190.4810  175.2940  142.6270 O   0  0  0  0  0  1  0  0  0  0  0  0
  189.9130  178.3240  144.7420 C   0  0  0  0  0  2  0  0  0  0  0  0
  190.5250  177.3280  143.8750 N   0  0  0  0  0  0  0  0  0  0  0  0
  187.5850  177.6490  143.1670 C   0  0  2  0  0  3  0  0  0  0  0  0
  186.5520  176.9280  145.1630 O   0  0  0  0  0  0  0  0  0  0  0  0
  188.5710  176.7890  142.3070 C   0  0  1  0  0  3  0  0  0  0  0  0
  191.4110  178.0970  142.8530 C   0  0  0  0  0  2  0  0  0  0  0  0
  192.3390  177.2630  142.2830 O   0  0  0  0  0  1  0  0  0  0  0  0
  186.9060  178.8510  142.5300 C   0  0  0  0  0  2  0  0  0  0  0  0
  185.4640  178.4200  142.1060 C   0  0  0  0  0  2  0  0  0  0  0  0
  184.4390  179.2770  142.8150 N   0  0  0  0  0  2  0  0  0  0  0  0
  183.7540  178.4140  143.8710 C   0  0  0  0  0  3  0  0  0  0  0  0
  183.7060  179.1050  145.2230 C   0  0  0  0  0  2  0  0  0  0  0  0
  182.4740  179.1760  144.3230 C   0  0  0  0  0  2  0  0  0  0  0  0
  189.0320  177.5170  141.0210 C   0  0  0  0  0  2  0  0  0  0  0  0
  189.2050  177.1070  139.5360 C   0  0  0  0  0  2  0  0  0  0  0  0
  188.2580  177.7200  138.4920 C   0  0  2  0  0  0  0  0  0  0  0  0
  189.1660  178.7840  137.7880 C   0  0  0  0  0  1  0  0  0  0  0  0
  187.1840  178.3510  139.2100 O   0  0  0  0  0  0  0  0  0  0  0  0
  186.0950  178.7920  138.4000 C   0  0  0  0  0  2  0  0  0  0  0  0
  184.5700  178.8470  138.8720 C   0  0  0  0  0  2  0  0  0  0  0  0
  183.9200  180.0420  138.8620 O   0  0  0  0  0  1  0  0  0  0  0  0
  187.5940  176.6080  137.4310 C   0  0  0  0  0  2  0  0  0  0  0  0
  187.6400  177.3980  135.0990 O   0  0  0  0  0  1  0  0  0  0  0  0
  187.9910  176.3130  135.9330 C   0  0  2  0  0  3  0  0  0  0  0  0
  187.7690  174.1600  134.8390 O   0  0  0  0  0  1  0  0  0  0  0  0
  187.1110  175.1490  135.5630 C   0  0  0  0  0  2  0  0  0  0  0  0
  1  4  1  6  0  0  0
  1  6  1  0  0  0  0
  3  8  2  0  0  0  0
  3  2  1  0  0  0  0
  5  2  1  0  0  0  0
  6  5  1  0  0  0  0
  7 12  1  1  0  0  0
  7  3  1  0  0  0  0
  9 18  1  6  0  0  0
  9  7  1  0  0  0  0
  9  1  1  0  0  0  0
 10  6  1  0  0  0  0
 11 10  1  0  0  0  0
 13 12  1  0  0  0  0
 13 14  1  0  0  0  0
 14 15  1  0  0  0  0
 15 17  1  0  0  0  0
 15 16  1  0  0  0  0
 17 16  1  0  0  0  0
 19 18  1  0  0  0  0
 20 21  1  6  0  0  0
 20 22  1  0  0  0  0
 20 19  1  0  0  0  0
 23 24  1  0  0  0  0
 23 22  1  0  0  0  0
 25 24  1  0  0  0  0
 26 20  1  0  0  0  0
 28 27  1  6  0  0  0
 28 26  1  0  0  0  0
 29 30  1  0  0  0  0
 30 28  1  0  0  0  0
M  END
>  <MODEL>
7

>  <REMARK>
 VINA RESULT:      -5.3      1.984      2.861
  Name = 
  14 active torsions:
  status: ('A' for Active; 'I' for Inactive)
    1  A    between atoms: C_1  and  C_4
    2  A    between atoms: C_1  and  C_22
    3  A    between atoms: C_4  and  O_8
    4  A    between atoms: C_4  and  C_12
    5  A    between atoms: C_7  and  C_23
    6  A    between atoms: C_7  and  C_25
    7  A    between atoms: O_8  and  C_27
    8  A    between atoms: C_10  and  N_15
    9  A    between atoms: C_12  and  C_21
   10  A    between atoms: C_13  and  C_27
   11  A    between atoms: C_14  and  N_20
   12  A    between atoms: N_15  and  C_25
   13  A    between atoms: C_17  and  C_21
   14  A    between atoms: C_22  and  C_29
                            x       y       z     vdW  Elec       q    Type
                         _______ _______ _______ _____ _____    ______ ____

>  <TORSDO>
F 14

$$$$
=
 OpenBabel10272414013D

 30 31  0  0  1  0  0  0  0  0999 V2000
  189.7660  176.7620  136.0870 C   0  0  1  0  0  3  0  0  0  0  0  0
  187.5810  177.6960  137.7870 C   0  0  0  0  0  2  0  0  0  0  0  0
  188.8500  178.1300  138.4900 C   0  0  0  0  0  0  0  0  0  0  0  0
  190.4720  176.6050  134.8840 O   0  0  0  0  0  1  0  0  0  0  0  0
  187.6180  176.2300  137.2700 C   0  0  0  0  0  2  0  0  0  0  0  0
  188.5580  176.0120  136.1810 N   0  0  0  0  0  0  0  0  0  0  0  0
  190.0130  177.1710  138.5850 C   0  0  2  0  0  3  0  0  0  0  0  0
  188.9750  179.2830  138.7740 O   0  0  0  0  0  0  0  0  0  0  0  0
  190.7650  176.6540  137.3130 C   0  0  1  0  0  3  0  0  0  0  0  0
  188.8040  174.4770  136.0930 C   0  0  0  0  0  2  0  0  0  0  0  0
  188.0150  173.8010  136.9880 O   0  0  0  0  0  1  0  0  0  0  0  0
  190.2810  176.5030  139.9240 C   0  0  0  0  0  2  0  0  0  0  0  0
  191.1350  177.4860  140.7900 C   0  0  0  0  0  2  0  0  0  0  0  0
  190.6290  177.4920  142.2150 N   0  0  0  0  0  2  0  0  0  0  0  0
  189.1360  177.1820  142.1860 C   0  0  0  0  0  3  0  0  0  0  0  0
  188.7470  176.1690  143.2490 C   0  0  0  0  0  2  0  0  0  0  0  0
  188.5440  177.6530  143.5460 C   0  0  0  0  0  2  0  0  0  0  0  0
  191.3950  175.2540  137.5200 C   0  0  0  0  0  2  0  0  0  0  0  0
  192.7180  174.5760  137.0840 C   0  0  0  0  0  2  0  0  0  0  0  0
  194.0250  175.3750  137.2060 C   0  0  2  0  0  0  0  0  0  0  0  0
  193.9440  175.9480  138.6610 C   0  0  0  0  0  1  0  0  0  0  0  0
  193.9700  176.4310  136.2310 O   0  0  0  0  0  0  0  0  0  0  0  0
  194.9950  176.3890  135.2390 C   0  0  0  0  0  2  0  0  0  0  0  0
  195.7960  177.6620  134.6980 C   0  0  0  0  0  2  0  0  0  0  0  0
  195.7600  178.8160  135.4170 O   0  0  0  0  0  1  0  0  0  0  0  0
  195.4090  174.4760  136.9220 C   0  0  0  0  0  2  0  0  0  0  0  0
  195.3590  173.1440  138.9940 O   0  0  0  0  0  1  0  0  0  0  0  0
  196.1830  173.5180  137.9080 C   0  0  2  0  0  3  0  0  0  0  0  0
  197.6600  175.4140  137.5830 O   0  0  0  0  0  1  0  0  0  0  0  0
  197.2820  174.3930  138.4490 C   0  0  0  0  0  2  0  0  0  0  0  0
  1  4  1  6  0  0  0
  1  6  1  0  0  0  0
  1  9  1  0  0  0  0
  2  3  1  0  0  0  0
  3  7  1  0  0  0  0
  3  8  2  0  0  0  0
  5  2  1  0  0  0  0
  6  5  1  0  0  0  0
  7 12  1  6  0  0  0
  9 18  1  1  0  0  0
  9  7  1  0  0  0  0
 10  6  1  0  0  0  0
 10 11  1  0  0  0  0
 12 13  1  0  0  0  0
 13 14  1  0  0  0  0
 15 14  1  0  0  0  0
 15 16  1  0  0  0  0
 15 17  1  0  0  0  0
 16 17  1  0  0  0  0
 19 20  1  0  0  0  0
 19 18  1  0  0  0  0
 20 21  1  1  0  0  0
 22 20  1  0  0  0  0
 23 22  1  0  0  0  0
 24 23  1  0  0  0  0
 24 25  1  0  0  0  0
 26 20  1  0  0  0  0
 26 28  1  0  0  0  0
 28 30  1  0  0  0  0
 28 27  1  1  0  0  0
 29 30  1  0  0  0  0
M  END
>  <MODEL>
8

>  <REMARK>
 VINA RESULT:      -5.3      3.272      6.656
  Name = 
  14 active torsions:
  status: ('A' for Active; 'I' for Inactive)
    1  A    between atoms: C_1  and  C_4
    2  A    between atoms: C_1  and  C_22
    3  A    between atoms: C_4  and  O_8
    4  A    between atoms: C_4  and  C_12
    5  A    between atoms: C_7  and  C_23
    6  A    between atoms: C_7  and  C_25
    7  A    between atoms: O_8  and  C_27
    8  A    between atoms: C_10  and  N_15
    9  A    between atoms: C_12  and  C_21
   10  A    between atoms: C_13  and  C_27
   11  A    between atoms: C_14  and  N_20
   12  A    between atoms: N_15  and  C_25
   13  A    between atoms: C_17  and  C_21
   14  A    between atoms: C_22  and  C_29
                            x       y       z     vdW  Elec       q    Type
                         _______ _______ _______ _____ _____    ______ ____

>  <TORSDO>
F 14

$$$$
=
 OpenBabel10272414013D

 30 31  0  0  1  0  0  0  0  0999 V2000
  184.3880  179.5280  140.3500 C   0  0  1  0  0  3  0  0  0  0  0  0
  183.2430  178.7960  142.9360 C   0  0  0  0  0  2  0  0  0  0  0  0
  184.6660  179.2210  143.2330 C   0  0  0  0  0  0  0  0  0  0  0  0
  184.4350  180.1930  139.1150 O   0  0  0  0  0  1  0  0  0  0  0  0
  183.1120  177.8490  141.7110 C   0  0  0  0  0  2  0  0  0  0  0  0
  183.4210  178.4840  140.4380 N   0  0  0  0  0  0  0  0  0  0  0  0
  185.7850  178.7570  142.3310 C   0  0  2  0  0  3  0  0  0  0  0  0
  184.8440  180.0740  144.0500 O   0  0  0  0  0  0  0  0  0  0  0  0
  185.8590  179.1730  140.8240 C   0  0  1  0  0  3  0  0  0  0  0  0
  183.6830  177.3430  139.4120 C   0  0  0  0  0  2  0  0  0  0  0  0
  182.8240  176.2940  139.6150 O   0  0  0  0  0  1  0  0  0  0  0  0
  186.7030  177.6580  142.8400 C   0  0  0  0  0  2  0  0  0  0  0  0
  186.3690  177.4100  144.3480 C   0  0  0  0  0  2  0  0  0  0  0  0
  187.4410  178.0210  145.2210 N   0  0  0  0  0  2  0  0  0  0  0  0
  188.7160  177.2020  145.0450 C   0  0  0  0  0  3  0  0  0  0  0  0
  189.9630  178.0490  145.2320 C   0  0  0  0  0  2  0  0  0  0  0  0
  189.4620  177.2180  146.4110 C   0  0  0  0  0  2  0  0  0  0  0  0
  186.5910  178.1250  139.9510 C   0  0  0  0  0  2  0  0  0  0  0  0
  186.9520  178.0150  138.4480 C   0  0  0  0  0  2  0  0  0  0  0  0
  188.3770  177.5820  138.0670 C   0  0  2  0  0  0  0  0  0  0  0  0
  188.9770  178.8860  137.4420 C   0  0  0  0  0  1  0  0  0  0  0  0
  188.2550  176.5440  137.0790 O   0  0  0  0  0  0  0  0  0  0  0  0
  186.9600  175.9510  136.9850 C   0  0  0  0  0  2  0  0  0  0  0  0
  186.6800  174.3820  136.8630 C   0  0  0  0  0  2  0  0  0  0  0  0
  187.5790  173.6030  136.2030 O   0  0  0  0  0  1  0  0  0  0  0  0
  189.2780  176.9830  139.3440 C   0  0  0  0  0  2  0  0  0  0  0  0
  191.7290  176.9740  139.5870 O   0  0  0  0  0  1  0  0  0  0  0  0
  190.5490  177.6100  140.0360 C   0  0  2  0  0  3  0  0  0  0  0  0
  191.5480  177.2630  142.2180 O   0  0  0  0  0  1  0  0  0  0  0  0
  190.3640  177.2570  141.4880 C   0  0  0  0  0  2  0  0  0  0  0  0
  1  4  1  6  0  0  0
  1  6  1  0  0  0  0
  1  9  1  0  0  0  0
  2  3  1  0  0  0  0
  3  8  2  0  0  0  0
  5  2  1  0  0  0  0
  6  5  1  0  0  0  0
  7 12  1  6  0  0  0
  7  3  1  0  0  0  0
  9 18  1  6  0  0  0
  9  7  1  0  0  0  0
 10 11  1  0  0  0  0
 10  6  1  0  0  0  0
 12 13  1  0  0  0  0
 13 14  1  0  0  0  0
 15 14  1  0  0  0  0
 15 16  1  0  0  0  0
 15 17  1  0  0  0  0
 16 17  1  0  0  0  0
 19 18  1  0  0  0  0
 20 21  1  6  0  0  0
 20 19  1  0  0  0  0
 20 26  1  0  0  0  0
 22 20  1  0  0  0  0
 23 22  1  0  0  0  0
 24 23  1  0  0  0  0
 25 24  1  0  0  0  0
 26 28  1  0  0  0  0
 28 27  1  6  0  0  0
 28 30  1  0  0  0  0
 30 29  1  0  0  0  0
M  END
>  <MODEL>
9

>  <REMARK>
 VINA RESULT:      -5.1      2.234      5.102
  Name = 
  14 active torsions:
  status: ('A' for Active; 'I' for Inactive)
    1  A    between atoms: C_1  and  C_4
    2  A    between atoms: C_1  and  C_22
    3  A    between atoms: C_4  and  O_8
    4  A    between atoms: C_4  and  C_12
    5  A    between atoms: C_7  and  C_23
    6  A    between atoms: C_7  and  C_25
    7  A    between atoms: O_8  and  C_27
    8  A    between atoms: C_10  and  N_15
    9  A    between atoms: C_12  and  C_21
   10  A    between atoms: C_13  and  C_27
   11  A    between atoms: C_14  and  N_20
   12  A    between atoms: N_15  and  C_25
   13  A    between atoms: C_17  and  C_21
   14  A    between atoms: C_22  and  C_29
                            x       y       z     vdW  Elec       q    Type
                         _______ _______ _______ _____ _____    ______ ____

>  <TORSDO>
F 14

$$$$
