=
 OpenBabel10272400583D

 27 31  0  0  1  0  0  0  0  0999 V2000
  185.7710  178.9920  144.4440 C   0  0  0  0  0  2  0  0  0  0  0  0
  186.7240  178.4600  142.1680 N   0  0  0  0  0  0  0  0  0  0  0  0
  187.7460  176.3520  143.4820 S   0  0  0  0  0  0  0  0  0  0  0  0
  189.9950  177.8760  138.9720 C   0  0  0  0  0  3  0  0  0  0  0  0
  192.0460  177.1040  139.9250 F   0  0  0  0  0  0  0  0  0  0  0  0
  186.8050  178.6390  140.7770 N   0  0  0  0  0  2  0  0  0  0  0  0
  181.6560  178.5220  141.5620 N   0  0  0  0  0  2  0  0  0  0  0  0
  190.1800  177.4800  141.3750 C   0  0  0  0  0  0  0  0  0  0  0  0
  184.3160  178.8120  142.4570 C   0  0  0  0  0  0  0  0  0  0  0  0
  187.8700  177.6320  147.3360 C   0  0  2  0  0  3  0  0  0  0  0  0
  184.0390  178.5430  140.9990 C   0  0  0  0  0  2  0  0  0  0  0  0
  190.9050  177.1130  142.4610 F   0  0  0  0  0  0  0  0  0  0  0  0
  189.0960  178.3240  147.8930 C   0  0  0  0  0  1  0  0  0  0  0  0
  188.8450  177.8680  141.5010 C   0  0  0  0  0  0  0  0  0  0  0  0
  185.5670  178.7750  142.9690 C   0  0  0  0  0  0  0  0  0  0  0  0
  190.7550  177.4800  140.0910 C   0  0  0  0  0  0  0  0  0  0  0  0
  188.6550  178.2750  139.1240 C   0  0  0  0  0  3  0  0  0  0  0  0
  185.8730  177.6680  145.1980 C   0  0  2  0  0  3  0  0  0  0  0  0
  187.9980  177.9850  142.7240 C   0  0  1  0  0  3  0  0  0  0  0  0
  188.1440  177.1490  145.9940 N   0  0  0  0  0  0  0  0  0  0  0  0
  188.1130  178.2590  140.4080 C   0  0  0  0  0  0  0  0  0  0  0  0
  186.6730  178.5720  147.3810 C   0  0  0  0  0  2  0  0  0  0  0  0
  182.7050  177.8220  140.8260 C   0  0  0  0  0  2  0  0  0  0  0  0
  185.5120  177.9020  146.6630 C   0  0  0  0  0  2  0  0  0  0  0  0
  181.9110  179.0650  142.8620 C   0  0  0  0  0  3  0  0  0  0  0  0
  187.2620  177.0740  145.0520 C   0  0  0  0  0  0  0  0  0  0  0  0
  183.1620  179.1800  143.3120 C   0  0  0  0  0  3  0  0  0  0  0  0
  2 19  1  0  0  0  0
  2 15  1  0  0  0  0
  3 26  1  0  0  0  0
  4 17  2  0  0  0  0
  4 16  1  0  0  0  0
  5 16  1  0  0  0  0
  6  2  1  0  0  0  0
  7 25  1  0  0  0  0
  8 14  1  0  0  0  0
  8 12  1  0  0  0  0
  9 15  2  0  0  0  0
  9 27  1  0  0  0  0
 10 22  1  0  0  0  0
 10 13  1  6  0  0  0
 11  9  1  0  0  0  0
 15  1  1  0  0  0  0
 16  8  2  0  0  0  0
 17 21  1  0  0  0  0
 18  1  1  6  0  0  0
 18 24  1  0  0  0  0
 19 14  1  6  0  0  0
 19  3  1  0  0  0  0
 20 10  1  0  0  0  0
 21  6  1  0  0  0  0
 21 14  2  0  0  0  0
 23 11  1  0  0  0  0
 23  7  1  0  0  0  0
 24 22  1  0  0  0  0
 25 27  2  0  0  0  0
 26 18  1  0  0  0  0
 26 20  2  0  0  0  0
M  END
>  <MODEL>
1

>  <REMARK>
 VINA RESULT:     -10.2      0.000      0.000
  Name = 
  0 active torsions:
  status: ('A' for Active; 'I' for Inactive)
                            x       y       z     vdW  Elec       q    Type
                         _______ _______ _______ _____ _____    ______ ____

>  <TORSDO>
F 0

$$$$
=
 OpenBabel10272400583D

 27 31  0  0  1  0  0  0  0  0999 V2000
  187.2030  177.2880  141.7240 C   0  0  0  0  0  2  0  0  0  0  0  0
  187.9120  177.3970  144.1440 N   0  0  0  0  0  0  0  0  0  0  0  0
  190.0060  178.7170  143.1000 S   0  0  0  0  0  0  0  0  0  0  0  0
  190.5060  176.4920  147.8460 C   0  0  0  0  0  3  0  0  0  0  0  0
  192.8020  176.1630  147.2700 F   0  0  0  0  0  0  0  0  0  0  0  0
  187.6730  177.2570  145.5210 N   0  0  0  0  0  2  0  0  0  0  0  0
  183.3950  179.7630  143.9220 N   0  0  0  0  0  2  0  0  0  0  0  0
  191.2410  176.6570  145.5230 C   0  0  0  0  0  0  0  0  0  0  0  0
  185.7060  178.2150  143.4560 C   0  0  0  0  0  0  0  0  0  0  0  0
  190.1310  177.3770  139.2670 C   0  0  2  0  0  3  0  0  0  0  0  0
  185.3580  178.6410  144.8600 C   0  0  0  0  0  2  0  0  0  0  0  0
  192.2180  176.5930  144.5840 F   0  0  0  0  0  0  0  0  0  0  0  0
  190.9560  176.1650  138.8870 C   0  0  0  0  0  1  0  0  0  0  0  0
  189.9220  176.9420  145.1680 C   0  0  0  0  0  0  0  0  0  0  0  0
  186.8900  177.6350  143.1550 C   0  0  0  0  0  0  0  0  0  0  0  0
  191.5320  176.4360  146.8820 C   0  0  0  0  0  0  0  0  0  0  0  0
  189.1810  176.7690  147.4640 C   0  0  0  0  0  3  0  0  0  0  0  0
  188.0390  178.3760  141.0510 C   0  0  2  0  0  3  0  0  0  0  0  0
  189.3300  177.1900  143.8200 C   0  0  1  0  0  3  0  0  0  0  0  0
  190.3800  177.7260  140.6540 N   0  0  0  0  0  0  0  0  0  0  0  0
  188.9270  176.9880  146.1110 C   0  0  0  0  0  0  0  0  0  0  0  0
  188.6570  177.1140  138.9900 C   0  0  0  0  0  2  0  0  0  0  0  0
  184.5150  179.9140  144.8460 C   0  0  0  0  0  2  0  0  0  0  0  0
  187.8520  178.2810  139.5390 C   0  0  0  0  0  2  0  0  0  0  0  0
  183.5690  179.1130  142.6580 C   0  0  0  0  0  3  0  0  0  0  0  0
  189.4990  178.2470  141.4440 C   0  0  0  0  0  0  0  0  0  0  0  0
  184.6700  178.4020  142.4120 C   0  0  0  0  0  3  0  0  0  0  0  0
  1 15  1  0  0  0  0
  2  6  1  0  0  0  0
  6 21  1  0  0  0  0
  7 23  1  0  0  0  0
  8 16  1  0  0  0  0
  9 11  1  0  0  0  0
 10 13  1  1  0  0  0
 10 20  1  0  0  0  0
 12  8  1  0  0  0  0
 14  8  2  0  0  0  0
 14 21  1  0  0  0  0
 15  9  2  0  0  0  0
 15  2  1  0  0  0  0
 16  5  1  0  0  0  0
 16  4  2  0  0  0  0
 17  4  1  0  0  0  0
 18 24  1  6  0  0  0
 18 26  1  0  0  0  0
 18  1  1  0  0  0  0
 19  3  1  1  0  0  0
 19  2  1  0  0  0  0
 19 14  1  0  0  0  0
 20 26  2  0  0  0  0
 21 17  2  0  0  0  0
 22 10  1  0  0  0  0
 22 24  1  0  0  0  0
 23 11  1  0  0  0  0
 25  7  1  0  0  0  0
 26  3  1  0  0  0  0
 27 25  2  0  0  0  0
 27  9  1  0  0  0  0
M  END
>  <MODEL>
2

>  <REMARK>
 VINA RESULT:      -8.5      2.217      5.517
  Name = 
  0 active torsions:
  status: ('A' for Active; 'I' for Inactive)
                            x       y       z     vdW  Elec       q    Type
                         _______ _______ _______ _____ _____    ______ ____

>  <TORSDO>
F 0

$$$$
=
 OpenBabel10272400583D

 27 31  0  0  1  0  0  0  0  0999 V2000
  187.2270  178.6580  144.5310 C   0  0  0  0  0  2  0  0  0  0  0  0
  187.4810  178.3180  142.0430 N   0  0  0  0  0  0  0  0  0  0  0  0
  188.6820  176.0500  142.8350 S   0  0  0  0  0  0  0  0  0  0  0  0
  189.7020  177.9260  138.0220 C   0  0  0  0  0  3  0  0  0  0  0  0
  191.8800  176.9800  138.2930 F   0  0  0  0  0  0  0  0  0  0  0  0
  187.1880  178.6320  140.7050 N   0  0  0  0  0  2  0  0  0  0  0  0
  182.4570  178.6440  142.8870 N   0  0  0  0  0  2  0  0  0  0  0  0
  190.5130  177.2840  140.2340 C   0  0  0  0  0  0  0  0  0  0  0  0
  185.2730  178.7360  143.0230 C   0  0  0  0  0  0  0  0  0  0  0  0
  189.9450  176.9310  146.5940 C   0  0  2  0  0  3  0  0  0  0  0  0
  184.5900  178.6260  141.6830 C   0  0  0  0  0  2  0  0  0  0  0  0
  191.4830  176.7820  141.0390 F   0  0  0  0  0  0  0  0  0  0  0  0
  191.3200  177.5150  146.8420 C   0  0  0  0  0  1  0  0  0  0  0  0
  189.2930  177.7110  140.7620 C   0  0  0  0  0  0  0  0  0  0  0  0
  186.6120  178.5980  143.1590 C   0  0  0  0  0  0  0  0  0  0  0  0
  190.7120  177.3900  138.8460 C   0  0  0  0  0  0  0  0  0  0  0  0
  188.4850  178.3610  138.5760 C   0  0  0  0  0  3  0  0  0  0  0  0
  187.4440  177.2620  145.1120 C   0  0  2  0  0  3  0  0  0  0  0  0
  188.8240  177.7390  142.1780 C   0  0  1  0  0  3  0  0  0  0  0  0
  189.8070  176.5750  145.1930 N   0  0  0  0  0  0  0  0  0  0  0  0
  188.3170  178.2390  139.9540 C   0  0  0  0  0  0  0  0  0  0  0  0
  188.8720  177.9100  147.0520 C   0  0  0  0  0  2  0  0  0  0  0  0
  183.2140  177.9800  141.8300 C   0  0  0  0  0  2  0  0  0  0  0  0
  187.5160  177.3620  146.6330 C   0  0  0  0  0  2  0  0  0  0  0  0
  183.0950  179.0430  144.1050 C   0  0  0  0  0  3  0  0  0  0  0  0
  188.6970  176.6300  144.5330 C   0  0  0  0  0  0  0  0  0  0  0  0
  184.4260  179.0630  144.1940 C   0  0  0  0  0  3  0  0  0  0  0  0
  2 19  1  0  0  0  0
  2 15  1  0  0  0  0
  3 26  1  0  0  0  0
  4 17  2  0  0  0  0
  4 16  1  0  0  0  0
  5 16  1  0  0  0  0
  6  2  1  0  0  0  0
  7 25  1  0  0  0  0
  8 14  1  0  0  0  0
  8 12  1  0  0  0  0
  9 15  2  0  0  0  0
  9 27  1  0  0  0  0
 10 13  1  6  0  0  0
 10 22  1  0  0  0  0
 11 23  1  0  0  0  0
 11  9  1  0  0  0  0
 15  1  1  0  0  0  0
 16  8  2  0  0  0  0
 17 21  1  0  0  0  0
 18  1  1  6  0  0  0
 18 24  1  0  0  0  0
 19 14  1  6  0  0  0
 19  3  1  0  0  0  0
 20 10  1  0  0  0  0
 21  6  1  0  0  0  0
 21 14  2  0  0  0  0
 23  7  1  0  0  0  0
 24 22  1  0  0  0  0
 25 27  2  0  0  0  0
 26 18  1  0  0  0  0
 26 20  2  0  0  0  0
M  END
>  <MODEL>
3

>  <REMARK>
 VINA RESULT:      -8.5      1.212      1.476
  Name = 
  0 active torsions:
  status: ('A' for Active; 'I' for Inactive)
                            x       y       z     vdW  Elec       q    Type
                         _______ _______ _______ _____ _____    ______ ____

>  <TORSDO>
F 0

$$$$
=
 OpenBabel10272400583D

 27 31  0  0  1  0  0  0  0  0999 V2000
  187.1490  177.0460  143.3260 C   0  0  0  0  0  2  0  0  0  0  0  0
  189.1490  176.9180  141.7930 N   0  0  0  0  0  0  0  0  0  0  0  0
  188.0560  179.1460  140.7650 S   0  0  0  0  0  0  0  0  0  0  0  0
  191.4130  176.3620  137.8160 C   0  0  0  0  0  3  0  0  0  0  0  0
  190.1240  177.0990  135.9430 F   0  0  0  0  0  0  0  0  0  0  0  0
  190.4040  176.4090  141.4210 N   0  0  0  0  0  2  0  0  0  0  0  0
  191.0520  177.2880  146.5150 N   0  0  0  0  0  2  0  0  0  0  0  0
  189.1750  177.2870  138.1320 C   0  0  0  0  0  0  0  0  0  0  0  0
  189.4450  176.9180  144.2260 C   0  0  0  0  0  0  0  0  0  0  0  0
  184.1320  178.8010  141.7620 C   0  0  2  0  0  3  0  0  0  0  0  0
  190.9470  176.8670  144.1050 C   0  0  0  0  0  2  0  0  0  0  0  0
  188.0310  177.8140  137.6300 F   0  0  0  0  0  0  0  0  0  0  0  0
  183.1450  178.1240  140.8350 C   0  0  0  0  0  1  0  0  0  0  0  0
  189.3330  177.0930  139.5060 C   0  0  0  0  0  0  0  0  0  0  0  0
  188.6380  176.9320  143.1410 C   0  0  0  0  0  0  0  0  0  0  0  0
  190.2340  176.9210  137.2820 C   0  0  0  0  0  0  0  0  0  0  0  0
  191.5460  176.1640  139.2020 C   0  0  0  0  0  3  0  0  0  0  0  0
  186.6720  178.4900  143.1820 C   0  0  2  0  0  3  0  0  0  0  0  0
  188.3800  177.3630  140.6230 C   0  0  1  0  0  3  0  0  0  0  0  0
  185.4220  178.9200  141.1050 N   0  0  0  0  0  0  0  0  0  0  0  0
  190.4810  176.5420  140.0170 C   0  0  0  0  0  0  0  0  0  0  0  0
  184.2210  178.0380  143.0780 C   0  0  0  0  0  2  0  0  0  0  0  0
  191.6070  177.6730  145.2210 C   0  0  0  0  0  2  0  0  0  0  0  0
  185.3390  178.6480  143.9090 C   0  0  0  0  0  2  0  0  0  0  0  0
  189.6490  177.0410  146.6660 C   0  0  0  0  0  3  0  0  0  0  0  0
  186.5590  178.8710  141.7170 C   0  0  0  0  0  0  0  0  0  0  0  0
  188.8710  176.8930  145.5930 C   0  0  0  0  0  3  0  0  0  0  0  0
  2 15  1  0  0  0  0
  3 26  1  0  0  0  0
  4 17  1  0  0  0  0
  5 16  1  0  0  0  0
  6  2  1  0  0  0  0
  7 25  1  0  0  0  0
  8 14  2  0  0  0  0
  9 27  1  0  0  0  0
 10 13  1  6  0  0  0
 10 22  1  0  0  0  0
 11  9  1  0  0  0  0
 11 23  1  0  0  0  0
 12  8  1  0  0  0  0
 14 21  1  0  0  0  0
 15  1  1  0  0  0  0
 15  9  2  0  0  0  0
 16  4  2  0  0  0  0
 16  8  1  0  0  0  0
 17 21  2  0  0  0  0
 18  1  1  6  0  0  0
 18 24  1  0  0  0  0
 19 14  1  6  0  0  0
 19  3  1  0  0  0  0
 19  2  1  0  0  0  0
 20 26  2  0  0  0  0
 20 10  1  0  0  0  0
 21  6  1  0  0  0  0
 22 24  1  0  0  0  0
 23  7  1  0  0  0  0
 26 18  1  0  0  0  0
 27 25  2  0  0  0  0
M  END
>  <MODEL>
4

>  <REMARK>
 VINA RESULT:      -8.2      2.403      5.502
  Name = 
  0 active torsions:
  status: ('A' for Active; 'I' for Inactive)
                            x       y       z     vdW  Elec       q    Type
                         _______ _______ _______ _____ _____    ______ ____

>  <TORSDO>
F 0

$$$$
=
 OpenBabel10272400583D

 27 31  0  0  1  0  0  0  0  0999 V2000
  185.8910  177.4590  144.2090 C   0  0  0  0  0  2  0  0  0  0  0  0
  188.0970  177.3520  142.9880 N   0  0  0  0  0  0  0  0  0  0  0  0
  187.1310  179.5500  141.7830 S   0  0  0  0  0  0  0  0  0  0  0  0
  190.9310  176.7980  139.3940 C   0  0  0  0  0  3  0  0  0  0  0  0
  189.9190  177.4930  137.3440 F   0  0  0  0  0  0  0  0  0  0  0  0
  189.4020  176.8630  142.8110 N   0  0  0  0  0  2  0  0  0  0  0  0
  189.2780  177.8040  147.9330 N   0  0  0  0  0  2  0  0  0  0  0  0
  188.6560  177.6850  139.3670 C   0  0  0  0  0  0  0  0  0  0  0  0
  188.0310  177.3820  145.4380 C   0  0  0  0  0  0  0  0  0  0  0  0
  183.1090  179.1440  142.1970 C   0  0  2  0  0  3  0  0  0  0  0  0
  189.5360  177.3560  145.5400 C   0  0  0  0  0  2  0  0  0  0  0  0
  187.5900  178.1870  138.6950 F   0  0  0  0  0  0  0  0  0  0  0  0
  182.2810  178.4400  141.1430 C   0  0  0  0  0  1  0  0  0  0  0  0
  188.6130  177.5080  140.7510 C   0  0  0  0  0  0  0  0  0  0  0  0
  187.3920  177.3710  144.2460 C   0  0  0  0  0  0  0  0  0  0  0  0
  189.8340  177.3300  138.6860 C   0  0  0  0  0  0  0  0  0  0  0  0
  190.8610  176.6160  140.7870 C   0  0  0  0  0  3  0  0  0  0  0  0
  185.4170  178.8930  143.9780 C   0  0  2  0  0  3  0  0  0  0  0  0
  187.5020  177.7720  141.7120 C   0  0  1  0  0  3  0  0  0  0  0  0
  184.4800  179.2800  141.7350 N   0  0  0  0  0  0  0  0  0  0  0  0
  189.6820  176.9830  141.4330 C   0  0  0  0  0  0  0  0  0  0  0  0
  183.0150  178.3960  143.5200 C   0  0  0  0  0  2  0  0  0  0  0  0
  190.0110  178.1860  146.7300 C   0  0  0  0  0  2  0  0  0  0  0  0
  183.9890  179.0350  144.4990 C   0  0  0  0  0  2  0  0  0  0  0  0
  187.8730  177.5330  147.8800 C   0  0  0  0  0  3  0  0  0  0  0  0
  185.5150  179.2580  142.5080 C   0  0  0  0  0  0  0  0  0  0  0  0
  187.2630  177.3600  146.7060 C   0  0  0  0  0  3  0  0  0  0  0  0
  1 15  1  0  0  0  0
  2 15  1  0  0  0  0
  3 26  1  0  0  0  0
  4 17  1  0  0  0  0
  5 16  1  0  0  0  0
  6  2  1  0  0  0  0
  8 14  2  0  0  0  0
  9 11  1  0  0  0  0
  9 27  1  0  0  0  0
 10 13  1  6  0  0  0
 10 22  1  0  0  0  0
 11 23  1  0  0  0  0
 12  8  1  0  0  0  0
 14 21  1  0  0  0  0
 15  9  2  0  0  0  0
 16  8  1  0  0  0  0
 16  4  2  0  0  0  0
 17 21  2  0  0  0  0
 18  1  1  6  0  0  0
 18 24  1  0  0  0  0
 19 14  1  6  0  0  0
 19  3  1  0  0  0  0
 19  2  1  0  0  0  0
 20 10  1  0  0  0  0
 20 26  2  0  0  0  0
 21  6  1  0  0  0  0
 22 24  1  0  0  0  0
 23  7  1  0  0  0  0
 25  7  1  0  0  0  0
 26 18  1  0  0  0  0
 27 25  2  0  0  0  0
M  END
>  <MODEL>
5

>  <REMARK>
 VINA RESULT:      -7.9      1.917      5.093
  Name = 
  0 active torsions:
  status: ('A' for Active; 'I' for Inactive)
                            x       y       z     vdW  Elec       q    Type
                         _______ _______ _______ _____ _____    ______ ____

>  <TORSDO>
F 0

$$$$
=
 OpenBabel10272400583D

 27 31  0  0  1  0  0  0  0  0999 V2000
  186.7300  177.3410  144.7530 C   0  0  0  0  0  2  0  0  0  0  0  0
  188.1320  177.4250  142.6560 N   0  0  0  0  0  0  0  0  0  0  0  0
  186.8440  179.7580  142.3160 S   0  0  0  0  0  0  0  0  0  0  0  0
  188.9900  177.3980  138.1270 C   0  0  0  0  0  3  0  0  0  0  0  0
  187.1980  178.3580  136.8720 F   0  0  0  0  0  0  0  0  0  0  0  0
  189.1850  176.9770  141.8420 N   0  0  0  0  0  2  0  0  0  0  0  0
  191.4510  177.2030  146.5280 N   0  0  0  0  0  2  0  0  0  0  0  0
  187.0030  178.2580  139.2550 C   0  0  0  0  0  0  0  0  0  0  0  0
  189.1870  177.1170  144.8470 C   0  0  0  0  0  0  0  0  0  0  0  0
  183.4340  179.2590  144.4670 C   0  0  2  0  0  3  0  0  0  0  0  0
  190.5700  177.0920  144.2460 C   0  0  0  0  0  2  0  0  0  0  0  0
  185.7770  178.8370  139.2150 F   0  0  0  0  0  0  0  0  0  0  0  0
  182.1800  178.6990  143.8290 C   0  0  0  0  0  1  0  0  0  0  0  0
  187.5830  177.8920  140.4710 C   0  0  0  0  0  0  0  0  0  0  0  0
  188.0770  177.2630  144.0890 C   0  0  0  0  0  0  0  0  0  0  0  0
  187.7230  178.0120  138.0720 C   0  0  0  0  0  0  0  0  0  0  0  0
  189.5510  177.0250  139.3620 C   0  0  0  0  0  3  0  0  0  0  0  0
  186.2810  178.7880  144.9480 C   0  0  2  0  0  3  0  0  0  0  0  0
  187.0460  178.0100  141.8580 C   0  0  1  0  0  3  0  0  0  0  0  0
  184.4500  179.4710  143.4510 N   0  0  0  0  0  0  0  0  0  0  0  0
  188.8150  177.2880  140.5160 C   0  0  0  0  0  0  0  0  0  0  0  0
  183.9100  178.3360  145.5800 C   0  0  0  0  0  2  0  0  0  0  0  0
  191.5780  177.7540  145.1820 C   0  0  0  0  0  2  0  0  0  0  0  0
  185.2550  178.8430  146.0780 C   0  0  0  0  0  2  0  0  0  0  0  0
  190.1620  176.9280  147.0880 C   0  0  0  0  0  3  0  0  0  0  0  0
  185.7210  179.3530  143.6560 C   0  0  0  0  0  0  0  0  0  0  0  0
  189.0780  176.9130  146.3120 C   0  0  0  0  0  3  0  0  0  0  0  0
  2 15  1  0  0  0  0
  3 26  1  0  0  0  0
  4 17  1  0  0  0  0
  5 16  1  0  0  0  0
  6  2  1  0  0  0  0
  7 25  1  0  0  0  0
  8 14  2  0  0  0  0
  9 27  1  0  0  0  0
 10 13  1  6  0  0  0
 10 22  1  0  0  0  0
 11  9  1  0  0  0  0
 11 23  1  0  0  0  0
 12  8  1  0  0  0  0
 14 21  1  0  0  0  0
 15  1  1  0  0  0  0
 15  9  2  0  0  0  0
 16  4  2  0  0  0  0
 16  8  1  0  0  0  0
 17 21  2  0  0  0  0
 18  1  1  6  0  0  0
 18 24  1  0  0  0  0
 19 14  1  6  0  0  0
 19  3  1  0  0  0  0
 19  2  1  0  0  0  0
 20 26  2  0  0  0  0
 20 10  1  0  0  0  0
 21  6  1  0  0  0  0
 22 24  1  0  0  0  0
 23  7  1  0  0  0  0
 26 18  1  0  0  0  0
 27 25  2  0  0  0  0
M  END
>  <MODEL>
6

>  <REMARK>
 VINA RESULT:      -7.8      2.537      5.251
  Name = 
  0 active torsions:
  status: ('A' for Active; 'I' for Inactive)
                            x       y       z     vdW  Elec       q    Type
                         _______ _______ _______ _____ _____    ______ ____

>  <TORSDO>
F 0

$$$$
=
 OpenBabel10272400583D

 27 31  0  0  1  0  0  0  0  0999 V2000
  190.0620  176.0380  142.6190 C   0  0  0  0  0  2  0  0  0  0  0  0
  187.8920  177.3270  142.5860 N   0  0  0  0  0  0  0  0  0  0  0  0
  189.0770  178.6750  144.5840 S   0  0  0  0  0  0  0  0  0  0  0  0
  183.8310  178.8300  144.1660 C   0  0  0  0  0  3  0  0  0  0  0  0
  183.8100  179.0070  146.5490 F   0  0  0  0  0  0  0  0  0  0  0  0
  186.6670  177.6910  142.0040 N   0  0  0  0  0  2  0  0  0  0  0  0
  189.9150  177.9120  137.9360 N   0  0  0  0  0  2  0  0  0  0  0  0
  185.8110  178.2540  145.4750 C   0  0  0  0  0  0  0  0  0  0  0  0
  189.2280  177.0860  140.5450 C   0  0  0  0  0  0  0  0  0  0  0  0
  191.7700  176.0040  146.0400 C   0  0  2  0  0  3  0  0  0  0  0  0
  188.2590  177.9170  139.7400 C   0  0  0  0  0  2  0  0  0  0  0  0
  186.4410  178.1140  146.6670 F   0  0  0  0  0  0  0  0  0  0  0  0
  191.4050  175.0540  147.1600 C   0  0  0  0  0  1  0  0  0  0  0  0
  186.4660  177.9560  144.2780 C   0  0  0  0  0  0  0  0  0  0  0  0
  189.0290  176.8220  141.8560 C   0  0  0  0  0  0  0  0  0  0  0  0
  184.4790  178.7020  145.4110 C   0  0  0  0  0  0  0  0  0  0  0  0
  184.5060  178.5130  142.9740 C   0  0  0  0  0  3  0  0  0  0  0  0
  191.0190  176.9560  143.3770 C   0  0  2  0  0  3  0  0  0  0  0  0
  187.8500  177.4460  144.0500 C   0  0  1  0  0  3  0  0  0  0  0  0
  190.6850  176.9420  145.8160 N   0  0  0  0  0  0  0  0  0  0  0  0
  185.8260  178.0770  143.0700 C   0  0  0  0  0  0  0  0  0  0  0  0
  192.1260  175.2190  144.7840 C   0  0  0  0  0  2  0  0  0  0  0  0
  189.0000  178.7550  138.7010 C   0  0  0  0  0  2  0  0  0  0  0  0
  192.3210  176.2060  143.6430 C   0  0  0  0  0  2  0  0  0  0  0  0
  190.6840  176.8920  138.5820 C   0  0  0  0  0  3  0  0  0  0  0  0
  190.3820  177.4460  144.6640 C   0  0  0  0  0  0  0  0  0  0  0  0
  190.3900  176.5110  139.8270 C   0  0  0  0  0  3  0  0  0  0  0  0
  2 19  1  0  0  0  0
  3 26  1  0  0  0  0
  4 16  1  0  0  0  0
  6  2  1  0  0  0  0
  6 21  1  0  0  0  0
  7 25  1  0  0  0  0
  7 23  1  0  0  0  0
  8 12  1  0  0  0  0
  9 15  2  0  0  0  0
 10 13  1  1  0  0  0
 11  9  1  0  0  0  0
 14  8  1  0  0  0  0
 15  2  1  0  0  0  0
 15  1  1  0  0  0  0
 16  8  2  0  0  0  0
 16  5  1  0  0  0  0
 17 21  1  0  0  0  0
 17  4  2  0  0  0  0
 18  1  1  1  0  0  0
 18 24  1  0  0  0  0
 18 26  1  0  0  0  0
 19 14  1  6  0  0  0
 19  3  1  0  0  0  0
 20 10  1  0  0  0  0
 21 14  2  0  0  0  0
 22 10  1  0  0  0  0
 23 11  1  0  0  0  0
 24 22  1  0  0  0  0
 25 27  2  0  0  0  0
 26 20  2  0  0  0  0
 27  9  1  0  0  0  0
M  END
>  <MODEL>
7

>  <REMARK>
 VINA RESULT:      -7.6      3.004      6.038
  Name = 
  0 active torsions:
  status: ('A' for Active; 'I' for Inactive)
                            x       y       z     vdW  Elec       q    Type
                         _______ _______ _______ _____ _____    ______ ____

>  <TORSDO>
F 0

$$$$
=
 OpenBabel10272400583D

 27 31  0  0  1  0  0  0  0  0999 V2000
  187.2950  178.9880  141.4030 C   0  0  0  0  0  2  0  0  0  0  0  0
  189.2440  177.9250  142.6040 N   0  0  0  0  0  0  0  0  0  0  0  0
  187.2910  176.4720  143.7400 S   0  0  0  0  0  0  0  0  0  0  0  0
  191.9370  176.8460  146.1860 C   0  0  0  0  0  3  0  0  0  0  0  0
  190.6950  176.6820  148.2210 F   0  0  0  0  0  0  0  0  0  0  0  0
  190.6150  177.6830  142.7860 N   0  0  0  0  0  2  0  0  0  0  0  0
  190.0810  177.1190  137.6340 N   0  0  0  0  0  2  0  0  0  0  0  0
  189.5250  177.2250  146.2050 C   0  0  0  0  0  0  0  0  0  0  0  0
  189.1940  178.0210  140.1550 C   0  0  0  0  0  0  0  0  0  0  0  0
  184.0260  178.8630  143.3820 C   0  0  2  0  0  3  0  0  0  0  0  0
  190.5070  177.2880  140.0390 C   0  0  0  0  0  2  0  0  0  0  0  0
  188.3450  177.3050  146.8690 F   0  0  0  0  0  0  0  0  0  0  0  0
  183.6540  179.8500  144.4690 C   0  0  0  0  0  1  0  0  0  0  0  0
  189.5900  177.4500  144.8290 C   0  0  0  0  0  0  0  0  0  0  0  0
  188.6370  178.3090  141.3530 C   0  0  0  0  0  0  0  0  0  0  0  0
  190.7160  176.9130  146.8860 C   0  0  0  0  0  0  0  0  0  0  0  0
  191.9820  177.0880  144.8020 C   0  0  0  0  0  3  0  0  0  0  0  0
  186.1620  177.9810  141.5870 C   0  0  2  0  0  3  0  0  0  0  0  0
  188.5060  177.8170  143.8700 C   0  0  1  0  0  3  0  0  0  0  0  0
  185.1360  178.0380  143.8240 N   0  0  0  0  0  0  0  0  0  0  0  0
  190.7850  177.3890  144.1560 C   0  0  0  0  0  0  0  0  0  0  0  0
  184.3330  179.6030  142.0870 C   0  0  0  0  0  2  0  0  0  0  0  0
  190.5110  176.3760  138.8150 C   0  0  0  0  0  2  0  0  0  0  0  0
  184.8620  178.5970  141.0760 C   0  0  0  0  0  2  0  0  0  0  0  0
  189.0030  178.0590  137.7120 C   0  0  0  0  0  3  0  0  0  0  0  0
  186.0490  177.5640  143.0420 C   0  0  0  0  0  0  0  0  0  0  0  0
  188.5530  178.4720  138.8970 C   0  0  0  0  0  3  0  0  0  0  0  0
  1 18  1  0  0  0  0
  2  6  1  0  0  0  0
  2 19  1  0  0  0  0
  4 16  1  0  0  0  0
  6 21  1  0  0  0  0
  7 25  1  0  0  0  0
  7 23  1  0  0  0  0
  8 12  1  0  0  0  0
  8 16  2  0  0  0  0
  9 15  2  0  0  0  0
 10 20  1  0  0  0  0
 10 13  1  1  0  0  0
 11  9  1  0  0  0  0
 14  8  1  0  0  0  0
 15  1  1  0  0  0  0
 15  2  1  0  0  0  0
 16  5  1  0  0  0  0
 17  4  2  0  0  0  0
 18 24  1  1  0  0  0
 18 26  1  0  0  0  0
 19  3  1  6  0  0  0
 19 14  1  0  0  0  0
 21 17  1  0  0  0  0
 21 14  2  0  0  0  0
 22 10  1  0  0  0  0
 23 11  1  0  0  0  0
 24 22  1  0  0  0  0
 25 27  2  0  0  0  0
 26  3  1  0  0  0  0
 26 20  2  0  0  0  0
 27  9  1  0  0  0  0
M  END
>  <MODEL>
8

>  <REMARK>
 VINA RESULT:      -7.6      2.717      5.731
  Name = 
  0 active torsions:
  status: ('A' for Active; 'I' for Inactive)
                            x       y       z     vdW  Elec       q    Type
                         _______ _______ _______ _____ _____    ______ ____

>  <TORSDO>
F 0

$$$$
