=
 OpenBabel10272401503D

 28 31  0  0  1  0  0  0  0  0999 V2000
  191.1300  176.9650  142.6870 C   0  0  1  0  0  3  0  0  0  0  0  0
  191.0160  176.5960  138.6500 O   0  0  0  0  0  0  0  0  0  0  0  0
  187.8240  177.2740  142.7360 N   0  0  0  0  0  0  0  0  0  0  0  0
  189.6780  176.7460  140.5940 C   0  0  1  0  0  3  0  0  0  0  0  0
  188.7280  176.1140  142.8580 C   0  0  0  0  0  2  0  0  0  0  0  0
  192.0950  177.6610  140.4610 C   0  0  0  0  0  2  0  0  0  0  0  0
  188.8580  178.0430  140.6460 C   0  0  0  0  0  2  0  0  0  0  0  0
  190.9410  176.9600  139.8130 C   0  0  0  0  0  0  0  0  0  0  0  0
  188.4500  178.4150  142.0690 C   0  0  0  0  0  2  0  0  0  0  0  0
  192.3920  177.0300  141.8190 C   0  0  0  0  0  2  0  0  0  0  0  0
  190.0000  176.1740  141.9890 C   0  0  2  0  0  3  0  0  0  0  0  0
  191.4450  176.4550  144.0680 C   0  0  0  0  0  0  0  0  0  0  0  0
  191.9970  175.1710  144.1680 C   0  0  0  0  0  3  0  0  0  0  0  0
  191.5840  176.6640  146.4950 C   0  0  0  0  0  0  0  0  0  0  0  0
  192.3400  174.6350  145.4110 C   0  0  0  0  0  3  0  0  0  0  0  0
  190.6570  178.5910  145.1890 C   0  0  0  0  0  1  0  0  0  0  0  0
  191.2290  177.2100  145.2460 C   0  0  0  0  0  0  0  0  0  0  0  0
  191.3910  177.3860  147.6700 O   0  0  0  0  0  1  0  0  0  0  0  0
  192.1350  175.3830  146.5720 C   0  0  0  0  0  3  0  0  0  0  0  0
  187.5250  177.7070  144.0900 C   0  0  0  0  0  2  0  0  0  0  0  0
  186.0650  177.4400  144.4210 C   0  0  0  0  0  2  0  0  0  0  0  0
  185.2710  178.7510  144.4050 C   0  0  2  0  0  3  0  0  0  0  0  0
  184.8860  179.2750  145.6930 N   0  0  0  0  0  0  0  0  0  0  0  0
  183.0950  179.5000  144.2340 C   0  0  0  0  0  1  0  0  0  0  0  0
  183.9510  178.5260  144.8890 N   0  0  0  0  0  0  0  0  0  0  0  0
  185.2220  178.4240  146.8330 C   0  0  0  0  0  2  0  0  0  0  0  0
  187.4500  178.1370  147.8280 C   0  0  0  0  0  2  0  0  0  0  0  0
  186.4370  178.9460  147.5310 C   0  0  0  0  0  3  0  0  0  0  0  0
  1 12  1  1  0  0  0
  2  8  2  0  0  0  0
  3  5  1  0  0  0  0
  3 20  1  0  0  0  0
  4  7  1  1  0  0  0
  4 11  1  0  0  0  0
  6 10  1  0  0  0  0
  7  9  1  0  0  0  0
  8  6  1  0  0  0  0
  8  4  1  0  0  0  0
  9  3  1  0  0  0  0
 10  1  1  0  0  0  0
 11  1  1  0  0  0  0
 11  5  1  1  0  0  0
 12 13  2  0  0  0  0
 12 17  1  0  0  0  0
 13 15  1  0  0  0  0
 14 19  1  0  0  0  0
 14 18  1  0  0  0  0
 15 19  2  0  0  0  0
 16 17  1  0  0  0  0
 17 14  2  0  0  0  0
 20 21  1  0  0  0  0
 22 21  1  1  0  0  0
 22 25  1  0  0  0  0
 22 23  1  0  0  0  0
 23 26  1  0  0  0  0
 24 25  1  0  0  0  0
 25 23  1  0  0  0  0
 26 28  1  0  0  0  0
 28 27  2  0  0  0  0
M  END
>  <MODEL>
1

>  <REMARK>
 VINA RESULT:      -7.5      0.000      0.000
  Name = 
  6 active torsions:
  status: ('A' for Active; 'I' for Inactive)
    1  A    between atoms: C_1  and  C_2
    2  A    between atoms: C_4  and  C_12
    3  A    between atoms: C_4  and  C_13
    4  A    between atoms: C_9  and  N_15
    5  A    between atoms: C_9  and  C_18
    6  A    between atoms: N_10  and  C_13
                            x       y       z     vdW  Elec       q    Type
                         _______ _______ _______ _____ _____    ______ ____

>  <TORSDO>
F 6

$$$$
=
 OpenBabel10272401503D

 28 31  0  0  1  0  0  0  0  0999 V2000
  191.0980  176.9760  142.6950 C   0  0  1  0  0  3  0  0  0  0  0  0
  191.0420  176.5700  138.6610 O   0  0  0  0  0  0  0  0  0  0  0  0
  187.7850  177.2030  142.7020 N   0  0  0  0  0  0  0  0  0  0  0  0
  189.6780  176.7030  140.5880 C   0  0  1  0  0  3  0  0  0  0  0  0
  188.7160  176.0670  142.8450 C   0  0  0  0  0  2  0  0  0  0  0  0
  192.0720  177.6760  140.4750 C   0  0  0  0  0  2  0  0  0  0  0  0
  188.8250  177.9800  140.6170 C   0  0  0  0  0  2  0  0  0  0  0  0
  190.9440  176.9420  139.8200 C   0  0  0  0  0  0  0  0  0  0  0  0
  188.3910  178.3540  142.0320 C   0  0  0  0  0  2  0  0  0  0  0  0
  192.3680  177.0650  141.8430 C   0  0  0  0  0  2  0  0  0  0  0  0
  189.9970  176.1510  141.9910 C   0  0  2  0  0  3  0  0  0  0  0  0
  191.4090  176.4860  144.0850 C   0  0  0  0  0  0  0  0  0  0  0  0
  191.9720  175.2090  144.2050 C   0  0  0  0  0  3  0  0  0  0  0  0
  191.5290  176.7260  146.5100 C   0  0  0  0  0  0  0  0  0  0  0  0
  192.3110  174.6920  145.4560 C   0  0  0  0  0  3  0  0  0  0  0  0
  190.5930  178.6280  145.1740 C   0  0  0  0  0  1  0  0  0  0  0  0
  191.1780  177.2540  145.2520 C   0  0  0  0  0  0  0  0  0  0  0  0
  191.3220  177.4610  147.6740 O   0  0  0  0  0  1  0  0  0  0  0  0
  192.0920  175.4510  146.6060 C   0  0  0  0  0  3  0  0  0  0  0  0
  187.4580  177.6400  144.0480 C   0  0  0  0  0  2  0  0  0  0  0  0
  185.9690  177.9210  144.1670 C   0  0  0  0  0  2  0  0  0  0  0  0
  185.5600  177.9880  145.6430 C   0  0  2  0  0  3  0  0  0  0  0  0
  184.3610  178.7350  145.9350 N   0  0  0  0  0  0  0  0  0  0  0  0
  185.9640  179.2470  147.5340 C   0  0  0  0  0  1  0  0  0  0  0  0
  185.6640  179.3280  146.1150 N   0  0  0  0  0  0  0  0  0  0  0  0
  183.7560  179.4090  144.7880 C   0  0  0  0  0  2  0  0  0  0  0  0
  181.8160  179.1140  143.3100 C   0  0  0  0  0  2  0  0  0  0  0  0
  182.5000  178.7110  144.3780 C   0  0  0  0  0  3  0  0  0  0  0  0
  1 12  1  1  0  0  0
  2  8  2  0  0  0  0
  3  5  1  0  0  0  0
  3 20  1  0  0  0  0
  4  7  1  1  0  0  0
  4 11  1  0  0  0  0
  6 10  1  0  0  0  0
  7  9  1  0  0  0  0
  8  6  1  0  0  0  0
  8  4  1  0  0  0  0
  9  3  1  0  0  0  0
 10  1  1  0  0  0  0
 11  1  1  0  0  0  0
 11  5  1  1  0  0  0
 12 13  2  0  0  0  0
 12 17  1  0  0  0  0
 13 15  1  0  0  0  0
 14 19  1  0  0  0  0
 14 18  1  0  0  0  0
 15 19  2  0  0  0  0
 16 17  1  0  0  0  0
 17 14  2  0  0  0  0
 20 21  1  0  0  0  0
 22 21  1  6  0  0  0
 22 23  1  0  0  0  0
 22 25  1  0  0  0  0
 23 25  1  0  0  0  0
 25 24  1  0  0  0  0
 26 23  1  0  0  0  0
 27 28  2  0  0  0  0
 28 26  1  0  0  0  0
M  END
>  <MODEL>
2

>  <REMARK>
 VINA RESULT:      -7.4      0.594      2.012
  Name = 
  6 active torsions:
  status: ('A' for Active; 'I' for Inactive)
    1  A    between atoms: C_1  and  C_2
    2  A    between atoms: C_4  and  C_12
    3  A    between atoms: C_4  and  C_13
    4  A    between atoms: C_9  and  N_15
    5  A    between atoms: C_9  and  C_18
    6  A    between atoms: N_10  and  C_13
                            x       y       z     vdW  Elec       q    Type
                         _______ _______ _______ _____ _____    ______ ____

>  <TORSDO>
F 6

$$$$
=
 OpenBabel10272401503D

 28 31  0  0  1  0  0  0  0  0999 V2000
  188.0690  177.9880  145.2740 C   0  0  1  0  0  3  0  0  0  0  0  0
  190.8610  175.9780  147.4210 O   0  0  0  0  0  0  0  0  0  0  0  0
  189.9530  177.6720  142.5580 N   0  0  0  0  0  0  0  0  0  0  0  0
  190.2550  176.6630  145.2400 C   0  0  1  0  0  3  0  0  0  0  0  0
  188.8660  176.8550  143.1280 C   0  0  0  0  0  2  0  0  0  0  0  0
  189.4510  177.8730  147.3820 C   0  0  0  0  0  2  0  0  0  0  0  0
  191.2340  177.6900  144.6530 C   0  0  0  0  0  2  0  0  0  0  0  0
  190.2290  176.7670  146.7360 C   0  0  0  0  0  0  0  0  0  0  0  0
  190.5980  178.5320  143.5500 C   0  0  0  0  0  2  0  0  0  0  0  0
  188.0390  177.9230  146.8050 C   0  0  0  0  0  2  0  0  0  0  0  0
  188.8290  176.7860  144.6680 C   0  0  2  0  0  3  0  0  0  0  0  0
  186.6830  178.1590  144.7090 C   0  0  0  0  0  0  0  0  0  0  0  0
  186.4880  177.8080  143.3680 C   0  0  0  0  0  3  0  0  0  0  0  0
  184.3170  178.7320  144.8660 C   0  0  0  0  0  0  0  0  0  0  0  0
  185.2280  177.9140  142.7770 C   0  0  0  0  0  3  0  0  0  0  0  0
  185.7410  179.0080  146.9080 C   0  0  0  0  0  1  0  0  0  0  0  0
  185.5860  178.6340  145.4680 C   0  0  0  0  0  0  0  0  0  0  0  0
  183.2180  179.1870  145.5880 O   0  0  0  0  0  1  0  0  0  0  0  0
  184.1440  178.3730  143.5260 C   0  0  0  0  0  3  0  0  0  0  0  0
  189.3360  178.5600  141.5880 C   0  0  0  0  0  2  0  0  0  0  0  0
  188.7230  177.7580  140.4510 C   0  0  0  0  0  2  0  0  0  0  0  0
  188.8070  178.5490  139.1410 C   0  0  2  0  0  3  0  0  0  0  0  0
  187.5780  178.6800  138.3990 N   0  0  0  0  0  0  0  0  0  0  0  0
  189.3000  178.2280  136.9100 C   0  0  0  0  0  1  0  0  0  0  0  0
  188.5580  177.6860  138.0350 N   0  0  0  0  0  0  0  0  0  0  0  0
  186.4380  177.9510  138.9530 C   0  0  0  0  0  2  0  0  0  0  0  0
  184.4110  179.2530  139.4280 C   0  0  0  0  0  2  0  0  0  0  0  0
  185.1560  178.5990  138.5420 C   0  0  0  0  0  3  0  0  0  0  0  0
  1 12  1  6  0  0  0
  1 10  1  0  0  0  0
  3  5  1  0  0  0  0
  3  9  1  0  0  0  0
  4  7  1  6  0  0  0
  4  8  1  0  0  0  0
  8  6  1  0  0  0  0
  8  2  2  0  0  0  0
  9  7  1  0  0  0  0
 10  6  1  0  0  0  0
 11  5  1  6  0  0  0
 11  4  1  0  0  0  0
 11  1  1  0  0  0  0
 12 17  1  0  0  0  0
 13 12  2  0  0  0  0
 14 17  2  0  0  0  0
 14 18  1  0  0  0  0
 15 13  1  0  0  0  0
 15 19  2  0  0  0  0
 17 16  1  0  0  0  0
 19 14  1  0  0  0  0
 20  3  1  0  0  0  0
 21 20  1  0  0  0  0
 22 21  1  1  0  0  0
 23 26  1  0  0  0  0
 23 22  1  0  0  0  0
 24 25  1  0  0  0  0
 25 23  1  0  0  0  0
 25 22  1  0  0  0  0
 28 26  1  0  0  0  0
 28 27  2  0  0  0  0
M  END
>  <MODEL>
3

>  <REMARK>
 VINA RESULT:      -7.1      2.892      6.658
  Name = 
  6 active torsions:
  status: ('A' for Active; 'I' for Inactive)
    1  A    between atoms: C_1  and  C_2
    2  A    between atoms: C_4  and  C_12
    3  A    between atoms: C_4  and  C_13
    4  A    between atoms: C_9  and  N_15
    5  A    between atoms: C_9  and  C_18
    6  A    between atoms: N_10  and  C_13
                            x       y       z     vdW  Elec       q    Type
                         _______ _______ _______ _____ _____    ______ ____

>  <TORSDO>
F 6

$$$$
=
 OpenBabel10272401503D

 28 31  0  0  1  0  0  0  0  0999 V2000
  188.6640  177.8300  141.4380 C   0  0  1  0  0  3  0  0  0  0  0  0
  184.8420  177.9870  142.7850 O   0  0  0  0  0  0  0  0  0  0  0  0
  189.6150  176.5260  144.3390 N   0  0  0  0  0  0  0  0  0  0  0  0
  187.0210  177.2270  143.3010 C   0  0  1  0  0  3  0  0  0  0  0  0
  189.1850  175.9280  143.0610 C   0  0  0  0  0  2  0  0  0  0  0  0
  186.5490  179.1870  141.6790 C   0  0  0  0  0  2  0  0  0  0  0  0
  187.6300  177.9610  144.5040 C   0  0  0  0  0  2  0  0  0  0  0  0
  186.0410  178.1150  142.5930 C   0  0  0  0  0  0  0  0  0  0  0  0
  189.1550  177.9040  144.5060 C   0  0  0  0  0  2  0  0  0  0  0  0
  187.5630  178.6000  140.7000 C   0  0  0  0  0  2  0  0  0  0  0  0
  188.0780  176.6980  142.3120 C   0  0  2  0  0  3  0  0  0  0  0  0
  189.7270  177.3530  140.4840 C   0  0  0  0  0  0  0  0  0  0  0  0
  189.3010  176.6970  139.3220 C   0  0  0  0  0  3  0  0  0  0  0  0
  192.0360  177.1000  139.7360 C   0  0  0  0  0  0  0  0  0  0  0  0
  190.2230  176.2470  138.3760 C   0  0  0  0  0  3  0  0  0  0  0  0
  191.6150  178.2610  141.9160 C   0  0  0  0  0  1  0  0  0  0  0  0
  191.1120  177.5530  140.6990 C   0  0  0  0  0  0  0  0  0  0  0  0
  193.4030  177.2890  139.9160 O   0  0  0  0  0  1  0  0  0  0  0  0
  191.5890  176.4500  138.5830 C   0  0  0  0  0  3  0  0  0  0  0  0
  191.0660  176.5820  144.2990 C   0  0  0  0  0  2  0  0  0  0  0  0
  191.6070  177.2340  145.5620 C   0  0  0  0  0  2  0  0  0  0  0  0
  191.7170  176.1990  146.6860 C   0  0  2  0  0  3  0  0  0  0  0  0
  190.8400  176.3920  147.8150 N   0  0  0  0  0  0  0  0  0  0  0  0
  192.9390  175.7880  148.5990 C   0  0  0  0  0  1  0  0  0  0  0  0
  192.2190  176.8160  147.8680 N   0  0  0  0  0  0  0  0  0  0  0  0
  190.0360  177.6130  147.7730 C   0  0  0  0  0  2  0  0  0  0  0  0
  187.7180  178.2870  148.2230 C   0  0  0  0  0  2  0  0  0  0  0  0
  188.6140  177.3100  148.1160 C   0  0  0  0  0  3  0  0  0  0  0  0
  1 12  1  6  0  0  0
  1 11  1  0  0  0  0
  3  9  1  0  0  0  0
  4  7  1  1  0  0  0
  5  3  1  0  0  0  0
  6  8  1  0  0  0  0
  7  9  1  0  0  0  0
  8  2  2  0  0  0  0
  8  4  1  0  0  0  0
 10  1  1  0  0  0  0
 10  6  1  0  0  0  0
 11  5  1  1  0  0  0
 11  4  1  0  0  0  0
 12 17  1  0  0  0  0
 13 12  2  0  0  0  0
 14 18  1  0  0  0  0
 14 17  2  0  0  0  0
 15 19  2  0  0  0  0
 15 13  1  0  0  0  0
 17 16  1  0  0  0  0
 19 14  1  0  0  0  0
 20  3  1  0  0  0  0
 20 21  1  0  0  0  0
 22 21  1  6  0  0  0
 22 23  1  0  0  0  0
 22 25  1  0  0  0  0
 23 25  1  0  0  0  0
 25 24  1  0  0  0  0
 26 23  1  0  0  0  0
 26 28  1  0  0  0  0
 28 27  2  0  0  0  0
M  END
>  <MODEL>
4

>  <REMARK>
 VINA RESULT:      -7.1      2.672      5.710
  Name = 
  6 active torsions:
  status: ('A' for Active; 'I' for Inactive)
    1  A    between atoms: C_1  and  C_2
    2  A    between atoms: C_4  and  C_12
    3  A    between atoms: C_4  and  C_13
    4  A    between atoms: C_9  and  N_15
    5  A    between atoms: C_9  and  C_18
    6  A    between atoms: N_10  and  C_13
                            x       y       z     vdW  Elec       q    Type
                         _______ _______ _______ _____ _____    ______ ____

>  <TORSDO>
F 6

$$$$
=
 OpenBabel10272401503D

 28 31  0  0  1  0  0  0  0  0999 V2000
  186.5790  178.5230  144.9370 C   0  0  1  0  0  3  0  0  0  0  0  0
  187.6970  177.1250  148.5760 O   0  0  0  0  0  0  0  0  0  0  0  0
  189.3260  177.2120  143.6090 N   0  0  0  0  0  0  0  0  0  0  0  0
  188.2360  177.1080  146.2740 C   0  0  1  0  0  3  0  0  0  0  0  0
  187.9530  176.7030  143.7880 C   0  0  0  0  0  2  0  0  0  0  0  0
  186.8750  179.0000  147.3970 C   0  0  0  0  0  2  0  0  0  0  0  0
  189.5650  177.8180  145.9760 C   0  0  0  0  0  2  0  0  0  0  0  0
  187.5990  177.6930  147.4990 C   0  0  0  0  0  0  0  0  0  0  0  0
  189.6530  178.3000  144.5300 C   0  0  0  0  0  2  0  0  0  0  0  0
  185.8880  178.9600  146.2330 C   0  0  0  0  0  2  0  0  0  0  0  0
  187.2510  177.1390  145.0890 C   0  0  2  0  0  3  0  0  0  0  0  0
  185.6360  178.6000  143.7650 C   0  0  0  0  0  0  0  0  0  0  0  0
  186.2000  178.5540  142.4830 C   0  0  0  0  0  3  0  0  0  0  0  0
  183.4220  178.7290  142.7480 C   0  0  0  0  0  0  0  0  0  0  0  0
  185.3920  178.5950  141.3460 C   0  0  0  0  0  3  0  0  0  0  0  0
  183.5820  178.7310  145.2480 C   0  0  0  0  0  1  0  0  0  0  0  0
  184.2310  178.6950  143.9020 C   0  0  0  0  0  0  0  0  0  0  0  0
  182.0370  178.8130  142.8500 O   0  0  0  0  0  1  0  0  0  0  0  0
  184.0050  178.6800  141.4790 C   0  0  0  0  0  3  0  0  0  0  0  0
  189.3830  177.7790  142.2720 C   0  0  0  0  0  2  0  0  0  0  0  0
  189.6560  176.6910  141.2460 C   0  0  0  0  0  2  0  0  0  0  0  0
  190.5740  177.2240  140.1410 C   0  0  2  0  0  3  0  0  0  0  0  0
  189.9670  177.4110  138.8460 N   0  0  0  0  0  0  0  0  0  0  0  0
  192.0610  176.4540  138.5530 C   0  0  0  0  0  1  0  0  0  0  0  0
  190.7480  176.2320  139.1330 N   0  0  0  0  0  0  0  0  0  0  0  0
  188.5770  176.9690  138.7450 C   0  0  0  0  0  2  0  0  0  0  0  0
  186.5780  177.9610  137.7170 C   0  0  0  0  0  2  0  0  0  0  0  0
  187.6850  178.1280  138.4360 C   0  0  0  0  0  3  0  0  0  0  0  0
  1 12  1  6  0  0  0
  1 11  1  0  0  0  0
  1 10  1  0  0  0  0
  3  5  1  0  0  0  0
  3  9  1  0  0  0  0
  4  7  1  6  0  0  0
  4  8  1  0  0  0  0
  6  8  1  0  0  0  0
  8  2  2  0  0  0  0
  9  7  1  0  0  0  0
 10  6  1  0  0  0  0
 11  5  1  6  0  0  0
 11  4  1  0  0  0  0
 12 17  1  0  0  0  0
 13 12  2  0  0  0  0
 14 18  1  0  0  0  0
 14 17  2  0  0  0  0
 15 19  2  0  0  0  0
 15 13  1  0  0  0  0
 17 16  1  0  0  0  0
 19 14  1  0  0  0  0
 20  3  1  0  0  0  0
 21 20  1  0  0  0  0
 22 21  1  1  0  0  0
 23 25  1  0  0  0  0
 23 22  1  0  0  0  0
 24 25  1  0  0  0  0
 25 22  1  0  0  0  0
 26 23  1  0  0  0  0
 27 28  2  0  0  0  0
 28 26  1  0  0  0  0
M  END
>  <MODEL>
5

>  <REMARK>
 VINA RESULT:      -7.0      3.121      7.663
  Name = 
  6 active torsions:
  status: ('A' for Active; 'I' for Inactive)
    1  A    between atoms: C_1  and  C_2
    2  A    between atoms: C_4  and  C_12
    3  A    between atoms: C_4  and  C_13
    4  A    between atoms: C_9  and  N_15
    5  A    between atoms: C_9  and  C_18
    6  A    between atoms: N_10  and  C_13
                            x       y       z     vdW  Elec       q    Type
                         _______ _______ _______ _____ _____    ______ ____

>  <TORSDO>
F 6

$$$$
=
 OpenBabel10272401503D

 28 31  0  0  1  0  0  0  0  0999 V2000
  188.0390  177.9880  145.3220 C   0  0  1  0  0  3  0  0  0  0  0  0
  190.8280  175.9520  147.4480 O   0  0  0  0  0  0  0  0  0  0  0  0
  189.9600  177.7670  142.6230 N   0  0  0  0  0  0  0  0  0  0  0  0
  190.2400  176.6900  145.2800 C   0  0  1  0  0  3  0  0  0  0  0  0
  188.8750  176.9220  143.1570 C   0  0  0  0  0  2  0  0  0  0  0  0
  189.3970  177.8310  147.4430 C   0  0  0  0  0  2  0  0  0  0  0  0
  191.2140  177.7430  144.7330 C   0  0  0  0  0  2  0  0  0  0  0  0
  190.1940  176.7530  146.7780 C   0  0  0  0  0  0  0  0  0  0  0  0
  190.5820  178.6070  143.6450 C   0  0  0  0  0  2  0  0  0  0  0  0
  187.9910  177.8820  146.8500 C   0  0  0  0  0  2  0  0  0  0  0  0
  188.8200  176.8110  144.6940 C   0  0  2  0  0  3  0  0  0  0  0  0
  186.6580  178.1590  144.7450 C   0  0  0  0  0  0  0  0  0  0  0  0
  186.4730  177.7950  143.4050 C   0  0  0  0  0  3  0  0  0  0  0  0
  184.2920  178.7410  144.8770 C   0  0  0  0  0  0  0  0  0  0  0  0
  185.2170  177.9000  142.8030 C   0  0  0  0  0  3  0  0  0  0  0  0
  185.7020  179.0310  146.9280 C   0  0  0  0  0  1  0  0  0  0  0  0
  185.5570  178.6450  145.4910 C   0  0  0  0  0  0  0  0  0  0  0  0
  183.1890  179.2070  145.5870 O   0  0  0  0  0  1  0  0  0  0  0  0
  184.1290  178.3710  143.5400 C   0  0  0  0  0  3  0  0  0  0  0  0
  189.3440  178.6740  141.6690 C   0  0  0  0  0  2  0  0  0  0  0  0
  188.8180  177.9030  140.4680 C   0  0  0  0  0  2  0  0  0  0  0  0
  189.8840  177.8480  139.3680 C   0  0  2  0  0  3  0  0  0  0  0  0
  189.4600  177.3050  138.1010 N   0  0  0  0  0  0  0  0  0  0  0  0
  191.5650  176.4660  138.6020 C   0  0  0  0  0  1  0  0  0  0  0  0
  190.1830  176.4920  139.0490 N   0  0  0  0  0  0  0  0  0  0  0  0
  188.0920  176.7890  138.0750 C   0  0  0  0  0  2  0  0  0  0  0  0
  186.0240  178.0350  137.6240 C   0  0  0  0  0  2  0  0  0  0  0  0
  187.2280  177.6490  137.2110 C   0  0  0  0  0  3  0  0  0  0  0  0
  1 12  1  6  0  0  0
  1 10  1  0  0  0  0
  3  5  1  0  0  0  0
  3  9  1  0  0  0  0
  4  7  1  6  0  0  0
  4  8  1  0  0  0  0
  8  6  1  0  0  0  0
  8  2  2  0  0  0  0
  9  7  1  0  0  0  0
 10  6  1  0  0  0  0
 11  5  1  6  0  0  0
 11  4  1  0  0  0  0
 11  1  1  0  0  0  0
 12 17  1  0  0  0  0
 13 12  2  0  0  0  0
 14 17  2  0  0  0  0
 14 18  1  0  0  0  0
 15 13  1  0  0  0  0
 15 19  2  0  0  0  0
 17 16  1  0  0  0  0
 19 14  1  0  0  0  0
 20  3  1  0  0  0  0
 21 20  1  0  0  0  0
 22 21  1  1  0  0  0
 23 25  1  0  0  0  0
 23 22  1  0  0  0  0
 24 25  1  0  0  0  0
 25 22  1  0  0  0  0
 26 23  1  0  0  0  0
 28 27  2  0  0  0  0
 28 26  1  0  0  0  0
M  END
>  <MODEL>
6

>  <REMARK>
 VINA RESULT:      -7.0      2.850      7.020
  Name = 
  6 active torsions:
  status: ('A' for Active; 'I' for Inactive)
    1  A    between atoms: C_1  and  C_2
    2  A    between atoms: C_4  and  C_12
    3  A    between atoms: C_4  and  C_13
    4  A    between atoms: C_9  and  N_15
    5  A    between atoms: C_9  and  C_18
    6  A    between atoms: N_10  and  C_13
                            x       y       z     vdW  Elec       q    Type
                         _______ _______ _______ _____ _____    ______ ____

>  <TORSDO>
F 6

$$$$
=
 OpenBabel10272401503D

 28 31  0  0  1  0  0  0  0  0999 V2000
  190.7560  177.0880  143.2840 C   0  0  1  0  0  3  0  0  0  0  0  0
  191.1180  176.4730  139.2920 O   0  0  0  0  0  0  0  0  0  0  0  0
  187.4530  176.9100  142.9950 N   0  0  0  0  0  0  0  0  0  0  0  0
  189.5770  176.5370  141.0840 C   0  0  1  0  0  3  0  0  0  0  0  0
  188.4930  175.9050  143.2870 C   0  0  0  0  0  2  0  0  0  0  0  0
  191.8420  177.7870  141.1160 C   0  0  0  0  0  2  0  0  0  0  0  0
  188.5820  177.7010  140.9630 C   0  0  0  0  0  2  0  0  0  0  0  0
  190.8710  176.8890  140.4140 C   0  0  0  0  0  0  0  0  0  0  0  0
  187.9800  178.0900  142.3100 C   0  0  0  0  0  2  0  0  0  0  0  0
  192.0800  177.2870  142.5390 C   0  0  0  0  0  2  0  0  0  0  0  0
  189.8280  176.1000  142.5410 C   0  0  2  0  0  3  0  0  0  0  0  0
  190.9940  176.7100  144.7230 C   0  0  0  0  0  0  0  0  0  0  0  0
  191.8890  175.6620  144.9730 C   0  0  0  0  0  3  0  0  0  0  0  0
  190.6810  176.9690  147.1290 C   0  0  0  0  0  0  0  0  0  0  0  0
  192.1810  175.2680  146.2800 C   0  0  0  0  0  3  0  0  0  0  0  0
  189.4250  178.5030  145.5980 C   0  0  0  0  0  1  0  0  0  0  0  0
  190.3760  177.3690  145.8130 C   0  0  0  0  0  0  0  0  0  0  0  0
  190.0970  177.6030  148.2210 O   0  0  0  0  0  1  0  0  0  0  0  0
  191.5790  175.9230  147.3560 C   0  0  0  0  0  3  0  0  0  0  0  0
  186.9560  177.3730  144.2790 C   0  0  0  0  0  2  0  0  0  0  0  0
  186.0290  178.5640  144.0920 C   0  0  0  0  0  2  0  0  0  0  0  0
  184.5980  178.0840  143.8250 C   0  0  2  0  0  3  0  0  0  0  0  0
  184.0660  178.3720  142.5160 N   0  0  0  0  0  0  0  0  0  0  0  0
  182.4170  178.7870  144.0950 C   0  0  0  0  0  1  0  0  0  0  0  0
  183.7350  179.2030  143.6470 N   0  0  0  0  0  0  0  0  0  0  0  0
  184.9360  179.1740  141.6560 C   0  0  0  0  0  2  0  0  0  0  0  0
  183.7230  178.0300  139.8520 C   0  0  0  0  0  2  0  0  0  0  0  0
  184.7510  178.7870  140.2250 C   0  0  0  0  0  3  0  0  0  0  0  0
  1 12  1  1  0  0  0
  2  8  2  0  0  0  0
  3  5  1  0  0  0  0
  3 20  1  0  0  0  0
  4  7  1  1  0  0  0
  4 11  1  0  0  0  0
  6 10  1  0  0  0  0
  7  9  1  0  0  0  0
  8  4  1  0  0  0  0
  8  6  1  0  0  0  0
  9  3  1  0  0  0  0
 10  1  1  0  0  0  0
 11  1  1  0  0  0  0
 11  5  1  1  0  0  0
 12 13  2  0  0  0  0
 12 17  1  0  0  0  0
 13 15  1  0  0  0  0
 14 19  1  0  0  0  0
 14 18  1  0  0  0  0
 15 19  2  0  0  0  0
 16 17  1  0  0  0  0
 17 14  2  0  0  0  0
 21 20  1  0  0  0  0
 22 21  1  6  0  0  0
 23 25  1  0  0  0  0
 23 22  1  0  0  0  0
 25 22  1  0  0  0  0
 25 24  1  0  0  0  0
 26 23  1  0  0  0  0
 27 28  2  0  0  0  0
 28 26  1  0  0  0  0
M  END
>  <MODEL>
7

>  <REMARK>
 VINA RESULT:      -6.9      1.596      2.628
  Name = 
  6 active torsions:
  status: ('A' for Active; 'I' for Inactive)
    1  A    between atoms: C_1  and  C_2
    2  A    between atoms: C_4  and  C_12
    3  A    between atoms: C_4  and  C_13
    4  A    between atoms: C_9  and  N_15
    5  A    between atoms: C_9  and  C_18
    6  A    between atoms: N_10  and  C_13
                            x       y       z     vdW  Elec       q    Type
                         _______ _______ _______ _____ _____    ______ ____

>  <TORSDO>
F 6

$$$$
=
 OpenBabel10272401503D

 28 31  0  0  1  0  0  0  0  0999 V2000
  186.5610  178.4780  144.9260 C   0  0  1  0  0  3  0  0  0  0  0  0
  187.9010  176.9820  148.4490 O   0  0  0  0  0  0  0  0  0  0  0  0
  189.2560  177.2680  143.4080 N   0  0  0  0  0  0  0  0  0  0  0  0
  188.3150  177.0530  146.1220 C   0  0  1  0  0  3  0  0  0  0  0  0
  187.9040  176.7250  143.6420 C   0  0  0  0  0  2  0  0  0  0  0  0
  186.9810  178.8780  147.3810 C   0  0  0  0  0  2  0  0  0  0  0  0
  189.6120  177.8000  145.7780 C   0  0  0  0  0  2  0  0  0  0  0  0
  187.7340  177.5840  147.3990 C   0  0  0  0  0  0  0  0  0  0  0  0
  189.6120  178.3310  144.3470 C   0  0  0  0  0  2  0  0  0  0  0  0
  185.9340  178.8570  146.2710 C   0  0  0  0  0  2  0  0  0  0  0  0
  187.2660  177.1030  144.9940 C   0  0  2  0  0  3  0  0  0  0  0  0
  185.5550  178.5740  143.8090 C   0  0  0  0  0  0  0  0  0  0  0  0
  186.0420  178.4980  142.4980 C   0  0  0  0  0  3  0  0  0  0  0  0
  183.2910  178.7650  142.9200 C   0  0  0  0  0  0  0  0  0  0  0  0
  185.1710  178.5540  141.4080 C   0  0  0  0  0  3  0  0  0  0  0  0
  183.5950  178.7850  145.4070 C   0  0  0  0  0  1  0  0  0  0  0  0
  184.1630  178.7160  144.0250 C   0  0  0  0  0  0  0  0  0  0  0  0
  181.9170  178.8960  143.1010 O   0  0  0  0  0  1  0  0  0  0  0  0
  183.7970  178.6850  141.6200 C   0  0  0  0  0  3  0  0  0  0  0  0
  189.2300  177.8800  142.0900 C   0  0  0  0  0  2  0  0  0  0  0  0
  189.9910  177.0220  141.0920 C   0  0  0  0  0  2  0  0  0  0  0  0
  189.2840  177.0410  139.7320 C   0  0  2  0  0  3  0  0  0  0  0  0
  190.1150  176.7800  138.5820 N   0  0  0  0  0  0  0  0  0  0  0  0
  188.6740  178.5280  138.0770 C   0  0  0  0  0  1  0  0  0  0  0  0
  189.7650  178.1310  138.9500 N   0  0  0  0  0  0  0  0  0  0  0  0
  191.5410  176.6320  138.8690 C   0  0  0  0  0  2  0  0  0  0  0  0
  193.1500  176.1830  137.0680 C   0  0  0  0  0  2  0  0  0  0  0  0
  192.1820  175.7330  137.8620 C   0  0  0  0  0  3  0  0  0  0  0  0
  1 12  1  6  0  0  0
  1 11  1  0  0  0  0
  1 10  1  0  0  0  0
  3  5  1  0  0  0  0
  3  9  1  0  0  0  0
  4  7  1  6  0  0  0
  4  8  1  0  0  0  0
  6  8  1  0  0  0  0
  8  2  2  0  0  0  0
  9  7  1  0  0  0  0
 10  6  1  0  0  0  0
 11  5  1  6  0  0  0
 11  4  1  0  0  0  0
 12 17  1  0  0  0  0
 13 12  2  0  0  0  0
 14 18  1  0  0  0  0
 14 17  2  0  0  0  0
 15 19  2  0  0  0  0
 15 13  1  0  0  0  0
 17 16  1  0  0  0  0
 19 14  1  0  0  0  0
 20  3  1  0  0  0  0
 21 20  1  0  0  0  0
 22 21  1  1  0  0  0
 23 26  1  0  0  0  0
 23 25  1  0  0  0  0
 23 22  1  0  0  0  0
 24 25  1  0  0  0  0
 25 22  1  0  0  0  0
 27 28  2  0  0  0  0
 28 26  1  0  0  0  0
M  END
>  <MODEL>
8

>  <REMARK>
 VINA RESULT:      -6.7      3.128      7.797
  Name = 
  6 active torsions:
  status: ('A' for Active; 'I' for Inactive)
    1  A    between atoms: C_1  and  C_2
    2  A    between atoms: C_4  and  C_12
    3  A    between atoms: C_4  and  C_13
    4  A    between atoms: C_9  and  N_15
    5  A    between atoms: C_9  and  C_18
    6  A    between atoms: N_10  and  C_13
                            x       y       z     vdW  Elec       q    Type
                         _______ _______ _______ _____ _____    ______ ____

>  <TORSDO>
F 6

$$$$
=
 OpenBabel10272401503D

 28 31  0  0  1  0  0  0  0  0999 V2000
  191.0830  176.2780  144.2440 C   0  0  1  0  0  3  0  0  0  0  0  0
  193.0990  175.7480  147.7230 O   0  0  0  0  0  0  0  0  0  0  0  0
  188.8950  178.2110  145.8250 N   0  0  0  0  0  0  0  0  0  0  0  0
  191.3210  176.9280  146.7040 C   0  0  1  0  0  3  0  0  0  0  0  0
  190.1460  178.4950  145.0960 C   0  0  0  0  0  2  0  0  0  0  0  0
  192.2070  174.6630  145.8240 C   0  0  0  0  0  2  0  0  0  0  0  0
  189.9500  176.5270  147.2670 C   0  0  0  0  0  2  0  0  0  0  0  0
  192.2820  175.7830  146.8150 C   0  0  0  0  0  0  0  0  0  0  0  0
  188.8130  176.8290  146.2950 C   0  0  0  0  0  2  0  0  0  0  0  0
  192.1830  175.2230  144.4040 C   0  0  0  0  0  2  0  0  0  0  0  0
  191.2560  177.4380  145.2510 C   0  0  2  0  0  3  0  0  0  0  0  0
  190.9800  176.7440  142.8150 C   0  0  0  0  0  0  0  0  0  0  0  0
  192.1460  177.2340  142.2140 C   0  0  0  0  0  3  0  0  0  0  0  0
  189.7850  177.1190  140.7210 C   0  0  0  0  0  0  0  0  0  0  0  0
  192.1390  177.6620  140.8850 C   0  0  0  0  0  3  0  0  0  0  0  0
  188.5150  176.1610  142.6570 C   0  0  0  0  0  1  0  0  0  0  0  0
  189.7820  176.6910  142.0640 C   0  0  0  0  0  0  0  0  0  0  0  0
  188.6250  177.0720  139.9540 O   0  0  0  0  0  1  0  0  0  0  0  0
  190.9600  177.6030  140.1400 C   0  0  0  0  0  3  0  0  0  0  0  0
  187.8140  178.3830  144.8710 C   0  0  0  0  0  2  0  0  0  0  0  0
  186.6230  177.5210  145.2590 C   0  0  0  0  0  2  0  0  0  0  0  0
  185.9470  178.0850  146.5130 C   0  0  2  0  0  3  0  0  0  0  0  0
  184.7080  178.7910  146.3030 N   0  0  0  0  0  0  0  0  0  0  0  0
  185.9810  179.9700  147.8440 C   0  0  0  0  0  1  0  0  0  0  0  0
  185.9480  179.5090  146.4670 N   0  0  0  0  0  0  0  0  0  0  0  0
  184.3180  178.9570  144.9030 C   0  0  0  0  0  2  0  0  0  0  0  0
  182.2440  179.1470  143.6020 C   0  0  0  0  0  2  0  0  0  0  0  0
  182.8320  178.8820  144.7650 C   0  0  0  0  0  3  0  0  0  0  0  0
  1 12  1  6  0  0  0
  1 10  1  0  0  0  0
  1 11  1  0  0  0  0
  3  9  1  0  0  0  0
  4  8  1  0  0  0  0
  4  7  1  6  0  0  0
  5  3  1  0  0  0  0
  6  8  1  0  0  0  0
  8  2  2  0  0  0  0
  9  7  1  0  0  0  0
 10  6  1  0  0  0  0
 11  5  1  1  0  0  0
 11  4  1  0  0  0  0
 13 12  1  0  0  0  0
 14 17  1  0  0  0  0
 15 13  2  0  0  0  0
 17 16  1  0  0  0  0
 17 12  2  0  0  0  0
 18 14  1  0  0  0  0
 19 14  2  0  0  0  0
 19 15  1  0  0  0  0
 20 21  1  0  0  0  0
 20  3  1  0  0  0  0
 22 21  1  6  0  0  0
 23 25  1  0  0  0  0
 23 22  1  0  0  0  0
 25 22  1  0  0  0  0
 25 24  1  0  0  0  0
 26 23  1  0  0  0  0
 27 28  2  0  0  0  0
 28 26  1  0  0  0  0
M  END
>  <MODEL>
9

>  <REMARK>
 VINA RESULT:      -6.7      1.304      4.876
  Name = 
  6 active torsions:
  status: ('A' for Active; 'I' for Inactive)
    1  A    between atoms: C_1  and  C_2
    2  A    between atoms: C_4  and  C_12
    3  A    between atoms: C_4  and  C_13
    4  A    between atoms: C_9  and  N_15
    5  A    between atoms: C_9  and  C_18
    6  A    between atoms: N_10  and  C_13
                            x       y       z     vdW  Elec       q    Type
                         _______ _______ _______ _____ _____    ______ ____

>  <TORSDO>
F 6

$$$$
