=
 OpenBabel10272414183D

 43 48  0  0  1  0  0  0  0  0999 V2000
  184.6450  178.7320  145.4080 C   0  0  0  0  0  0  0  0  0  0  0  0
  182.5130  178.5910  140.8290 C   0  0  0  0  0  0  0  0  0  0  0  0
  184.6560  178.1140  138.9870 C   0  0  0  0  0  0  0  0  0  0  0  0
  183.0640  178.7340  143.5710 C   0  0  0  0  0  0  0  0  0  0  0  0
  185.7030  178.6050  144.5020 C   0  0  0  0  0  3  0  0  0  0  0  0
  184.8930  178.7800  146.7350 F   0  0  0  0  0  0  0  0  0  0  0  0
  184.1310  178.6000  142.6490 C   0  0  0  0  0  0  0  0  0  0  0  0
  183.3290  178.7950  144.9420 C   0  0  0  0  0  3  0  0  0  0  0  0
  185.4480  178.5390  143.1310 C   0  0  0  0  0  3  0  0  0  0  0  0
  184.9280  178.3930  140.2680 C   0  0  0  0  0  3  0  0  0  0  0  0
  183.8500  178.5240  141.2720 C   0  0  0  0  0  0  0  0  0  0  0  0
  181.4730  178.7380  141.7510 C   0  0  0  0  0  3  0  0  0  0  0  0
  182.2070  178.6120  139.3540 C   0  0  2  0  0  3  0  0  0  0  0  0
  183.2400  177.7940  138.5680 C   0  0  0  0  0  2  0  0  0  0  0  0
  181.7460  178.8030  143.1160 C   0  0  0  0  0  3  0  0  0  0  0  0
  185.7450  178.0450  138.0000 C   0  0  0  0  0  0  0  0  0  0  0  0
  186.3220  176.7740  137.6640 N   0  0  0  0  0  2  0  0  0  0  0  0
  186.1570  179.1030  137.4520 O   0  0  0  0  0  0  0  0  0  0  0  0
  187.5360  176.5320  136.9340 C   0  0  0  0  0  0  0  0  0  0  0  0
  187.5870  176.5590  135.2950 S   0  0  0  0  0  0  0  0  0  0  0  0
  188.8040  176.2830  137.6790 C   0  0  2  0  0  3  0  0  0  0  0  0
  189.2590  177.5630  138.3810 C   0  0  0  0  0  2  0  0  0  0  0  0
  191.5690  176.4850  138.3100 C   0  0  0  0  0  2  0  0  0  0  0  0
  189.8090  175.8320  136.8060 O   0  0  0  0  0  0  0  0  0  0  0  0
  190.5810  177.3290  139.1240 C   0  0  2  0  0  3  0  0  0  0  0  0
  190.8450  175.3320  137.6140 C   0  0  0  0  0  2  0  0  0  0  0  0
  190.3830  176.8090  140.5500 C   0  0  0  0  0  2  0  0  0  0  0  0
  189.2030  177.4530  141.2660 C   0  0  0  0  0  2  0  0  0  0  0  0
  189.5970  177.8520  142.6060 N   0  0  0  0  0  0  0  0  0  0  0  0
  189.3020  177.1880  144.9730 C   0  0  0  0  0  2  0  0  0  0  0  0
  191.4160  177.5340  144.2590 C   0  0  0  0  0  2  0  0  0  0  0  0
  190.3870  178.0850  145.0460 O   0  0  0  0  0  0  0  0  0  0  0  0
  191.0030  177.4710  142.7770 C   0  0  0  0  0  2  0  0  0  0  0  0
  188.7620  177.0850  143.5350 C   0  0  0  0  0  2  0  0  0  0  0  0
  182.2050  179.9330  138.8910 O   0  0  0  0  0  0  0  0  0  0  0  0
  180.7930  182.2140  137.2820 N   0  0  0  0  0  0  0  0  0  0  0  0
  180.3250  181.2920  139.3440 C   0  0  0  0  0  2  0  0  0  0  0  0
  180.8830  180.7750  137.1140 C   0  0  0  0  0  2  0  0  0  0  0  0
  180.8880  180.1830  138.4960 C   0  0  1  0  0  3  0  0  0  0  0  0
  180.0690  182.4310  138.4700 N   0  0  0  0  0  2  0  0  0  0  0  0
  179.9820  182.7200  136.1870 C   0  0  0  0  0  2  0  0  0  0  0  0
  181.0000  184.9510  135.7560 C   0  0  0  0  0  1  0  0  0  0  0  0
  180.8370  183.5360  135.2320 C   0  0  0  0  0  2  0  0  0  0  0  0
  1  6  1  0  0  0  0
  2 11  2  0  0  0  0
  2 12  1  0  0  0  0
  3 10  2  0  0  0  0
  4  8  2  0  0  0  0
  5  1  2  0  0  0  0
  7  9  2  0  0  0  0
  7  4  1  0  0  0  0
  8  1  1  0  0  0  0
  9  5  1  0  0  0  0
 10 11  1  0  0  0  0
 11  7  1  0  0  0  0
 12 15  2  0  0  0  0
 13 35  1  6  0  0  0
 13  2  1  0  0  0  0
 14  3  1  0  0  0  0
 14 13  1  0  0  0  0
 15  4  1  0  0  0  0
 16  3  1  0  0  0  0
 17 16  1  0  0  0  0
 18 16  2  0  0  0  0
 19 17  1  0  0  0  0
 20 19  2  0  0  0  0
 21 19  1  6  0  0  0
 21 22  1  0  0  0  0
 22 25  1  0  0  0  0
 23 25  1  0  0  0  0
 24 26  1  0  0  0  0
 24 21  1  0  0  0  0
 25 27  1  1  0  0  0
 26 23  1  0  0  0  0
 27 28  1  0  0  0  0
 28 29  1  0  0  0  0
 29 33  1  0  0  0  0
 29 34  1  0  0  0  0
 30 32  1  0  0  0  0
 31 32  1  0  0  0  0
 33 31  1  0  0  0  0
 34 30  1  0  0  0  0
 36 40  1  0  0  0  0
 38 36  1  0  0  0  0
 38 39  1  0  0  0  0
 39 35  1  1  0  0  0
 39 37  1  0  0  0  0
 40 37  1  0  0  0  0
 41 36  1  0  0  0  0
 43 42  1  0  0  0  0
 43 41  1  0  0  0  0
M  END
>  <MODEL>
1

>  <REMARK>
 VINA RESULT:      -9.1      0.000      0.000
  Name = 
  10 active torsions:
  status: ('A' for Active; 'I' for Inactive)
    1  A    between atoms: O_1  and  C_34
    2  A    between atoms: O_1  and  C_35
    3  A    between atoms: C_2  and  C_13
    4  A    between atoms: C_3  and  C_12
    5  A    between atoms: N_6  and  C_12
    6  A    between atoms: C_9  and  N_19
    7  A    between atoms: C_9  and  C_37
    8  A    between atoms: N_11  and  C_14
    9  A    between atoms: C_14  and  C_41
   10  A    between atoms: C_22  and  C_41
                            x       y       z     vdW  Elec       q    Type
                         _______ _______ _______ _____ _____    ______ ____

>  <TORSDO>
F 10

$$$$
=
 OpenBabel10272414183D

 43 48  0  0  1  0  0  0  0  0999 V2000
  188.1190  177.1920  147.5280 C   0  0  0  0  0  0  0  0  0  0  0  0
  189.0950  178.0210  142.6390 C   0  0  0  0  0  0  0  0  0  0  0  0
  186.5720  178.6610  141.4400 C   0  0  0  0  0  0  0  0  0  0  0  0
  189.2150  177.4930  145.3870 C   0  0  0  0  0  0  0  0  0  0  0  0
  186.8760  177.4000  146.9240 C   0  0  0  0  0  3  0  0  0  0  0  0
  188.1960  176.9570  148.8560 F   0  0  0  0  0  0  0  0  0  0  0  0
  187.9590  177.7100  144.7710 C   0  0  0  0  0  0  0  0  0  0  0  0
  189.2870  177.2400  146.7600 C   0  0  0  0  0  3  0  0  0  0  0  0
  186.7950  177.6570  145.5540 C   0  0  0  0  0  3  0  0  0  0  0  0
  186.6150  178.2030  142.6980 C   0  0  0  0  0  3  0  0  0  0  0  0
  187.9020  177.9800  143.3910 C   0  0  0  0  0  0  0  0  0  0  0  0
  190.3250  177.7910  143.2600 C   0  0  0  0  0  3  0  0  0  0  0  0
  189.0390  178.2090  141.1460 C   0  0  2  0  0  3  0  0  0  0  0  0
  187.8450  179.0860  140.7470 C   0  0  0  0  0  2  0  0  0  0  0  0
  190.3860  177.5340  144.6290 C   0  0  0  0  0  3  0  0  0  0  0  0
  185.2780  178.8220  140.7580 C   0  0  0  0  0  0  0  0  0  0  0  0
  184.1200  178.1330  141.2540 N   0  0  0  0  0  2  0  0  0  0  0  0
  185.1970  179.5700  139.7460 O   0  0  0  0  0  0  0  0  0  0  0  0
  182.8560  177.9620  140.5930 C   0  0  0  0  0  0  0  0  0  0  0  0
  181.5040  178.7510  141.0800 S   0  0  0  0  0  0  0  0  0  0  0  0
  182.7650  177.0700  139.4000 C   0  0  2  0  0  3  0  0  0  0  0  0
  182.7580  177.9060  138.1200 C   0  0  0  0  0  2  0  0  0  0  0  0
  181.6180  175.8690  137.0930 C   0  0  0  0  0  2  0  0  0  0  0  0
  181.6050  176.2790  139.4630 O   0  0  0  0  0  0  0  0  0  0  0  0
  182.6310  177.0010  136.8880 C   0  0  2  0  0  3  0  0  0  0  0  0
  181.7550  175.2720  138.4940 C   0  0  0  0  0  2  0  0  0  0  0  0
  183.9830  176.5060  136.3650 C   0  0  0  0  0  2  0  0  0  0  0  0
  183.8550  175.4420  135.2830 C   0  0  0  0  0  2  0  0  0  0  0  0
  184.6980  174.3050  135.6080 N   0  0  0  0  0  0  0  0  0  0  0  0
  186.0560  173.3880  137.4630 C   0  0  0  0  0  2  0  0  0  0  0  0
  184.5660  171.9940  136.4940 C   0  0  0  0  0  2  0  0  0  0  0  0
  185.9410  172.2790  136.6000 O   0  0  0  0  0  0  0  0  0  0  0  0
  183.8130  173.1540  135.8170 C   0  0  0  0  0  2  0  0  0  0  0  0
  185.3830  174.6350  136.8600 C   0  0  0  0  0  2  0  0  0  0  0  0
  188.9350  176.9630  140.5170 O   0  0  0  0  0  0  0  0  0  0  0  0
  189.3760  175.1170  138.0300 N   0  0  0  0  0  0  0  0  0  0  0  0
  190.8560  176.3830  139.2660 C   0  0  0  0  0  2  0  0  0  0  0  0
  188.7440  176.4110  138.2200 C   0  0  0  0  0  2  0  0  0  0  0  0
  189.5470  177.1270  139.2710 C   0  0  1  0  0  3  0  0  0  0  0  0
  190.7460  175.3020  138.2940 N   0  0  0  0  0  2  0  0  0  0  0  0
  189.2510  174.7880  136.6190 C   0  0  0  0  0  2  0  0  0  0  0  0
  189.2230  172.8850  135.0130 C   0  0  0  0  0  1  0  0  0  0  0  0
  189.7130  173.3630  136.3690 C   0  0  0  0  0  2  0  0  0  0  0  0
  1  6  1  0  0  0  0
  2 12  2  0  0  0  0
  2 11  1  0  0  0  0
  3 10  2  0  0  0  0
  4  8  1  0  0  0  0
  5  1  1  0  0  0  0
  7  4  1  0  0  0  0
  7  9  1  0  0  0  0
  8  1  2  0  0  0  0
  9  5  2  0  0  0  0
 10 11  1  0  0  0  0
 11  7  2  0  0  0  0
 12 15  1  0  0  0  0
 13 35  1  6  0  0  0
 13  2  1  0  0  0  0
 14 13  1  0  0  0  0
 14  3  1  0  0  0  0
 15  4  2  0  0  0  0
 16 17  1  0  0  0  0
 16  3  1  0  0  0  0
 18 16  2  0  0  0  0
 19 20  2  0  0  0  0
 19 17  1  0  0  0  0
 21 24  1  0  0  0  0
 21 19  1  1  0  0  0
 22 21  1  0  0  0  0
 23 26  1  0  0  0  0
 25 27  1  1  0  0  0
 25 23  1  0  0  0  0
 25 22  1  0  0  0  0
 26 24  1  0  0  0  0
 28 29  1  0  0  0  0
 28 27  1  0  0  0  0
 29 33  1  0  0  0  0
 29 34  1  0  0  0  0
 31 32  1  0  0  0  0
 32 30  1  0  0  0  0
 33 31  1  0  0  0  0
 34 30  1  0  0  0  0
 36 38  1  0  0  0  0
 36 40  1  0  0  0  0
 37 39  1  0  0  0  0
 38 39  1  0  0  0  0
 39 35  1  1  0  0  0
 40 37  1  0  0  0  0
 41 36  1  0  0  0  0
 42 43  1  0  0  0  0
 43 41  1  0  0  0  0
M  END
>  <MODEL>
2

>  <REMARK>
 VINA RESULT:      -8.5      3.537      8.314
  Name = 
  10 active torsions:
  status: ('A' for Active; 'I' for Inactive)
    1  A    between atoms: O_1  and  C_34
    2  A    between atoms: O_1  and  C_35
    3  A    between atoms: C_2  and  C_13
    4  A    between atoms: C_3  and  C_12
    5  A    between atoms: N_6  and  C_12
    6  A    between atoms: C_9  and  N_19
    7  A    between atoms: C_9  and  C_37
    8  A    between atoms: N_11  and  C_14
    9  A    between atoms: C_14  and  C_41
   10  A    between atoms: C_22  and  C_41
                            x       y       z     vdW  Elec       q    Type
                         _______ _______ _______ _____ _____    ______ ____

>  <TORSDO>
F 10

$$$$
=
 OpenBabel10272414183D

 43 48  0  0  1  0  0  0  0  0999 V2000
  182.9740  178.7550  144.2340 C   0  0  0  0  0  0  0  0  0  0  0  0
  187.8760  178.0900  143.2010 C   0  0  0  0  0  0  0  0  0  0  0  0
  188.1140  178.3550  140.3570 C   0  0  0  0  0  0  0  0  0  0  0  0
  185.3670  178.4020  144.4040 C   0  0  0  0  0  0  0  0  0  0  0  0
  183.0730  178.7790  142.8400 C   0  0  0  0  0  3  0  0  0  0  0  0
  181.7740  178.9250  144.8310 F   0  0  0  0  0  0  0  0  0  0  0  0
  185.4730  178.4310  142.9920 C   0  0  0  0  0  0  0  0  0  0  0  0
  184.1200  178.5670  145.0140 C   0  0  0  0  0  3  0  0  0  0  0  0
  184.3150  178.6180  142.2220 C   0  0  0  0  0  3  0  0  0  0  0  0
  186.9020  178.2920  140.9210 C   0  0  0  0  0  3  0  0  0  0  0  0
  186.7370  178.2790  142.3910 C   0  0  0  0  0  0  0  0  0  0  0  0
  187.7510  178.0500  144.5920 C   0  0  0  0  0  3  0  0  0  0  0  0
  189.2170  177.8270  142.5670 C   0  0  2  0  0  3  0  0  0  0  0  0
  189.3390  178.5500  141.2190 C   0  0  0  0  0  2  0  0  0  0  0  0
  186.5030  178.2110  145.1910 C   0  0  0  0  0  3  0  0  0  0  0  0
  188.2490  178.3120  138.8920 C   0  0  0  0  0  0  0  0  0  0  0  0
  187.5930  177.2750  138.1460 N   0  0  0  0  0  2  0  0  0  0  0  0
  188.9360  179.1910  138.3040 O   0  0  0  0  0  0  0  0  0  0  0  0
  187.8080  176.9190  136.7710 C   0  0  0  0  0  0  0  0  0  0  0  0
  187.0100  177.6590  135.5450 S   0  0  0  0  0  0  0  0  0  0  0  0
  188.8140  175.8710  136.4320 C   0  0  2  0  0  3  0  0  0  0  0  0
  190.0120  176.5050  135.7220 C   0  0  0  0  0  2  0  0  0  0  0  0
  190.3810  174.1610  134.7870 C   0  0  0  0  0  2  0  0  0  0  0  0
  188.2400  174.8830  135.6140 O   0  0  0  0  0  0  0  0  0  0  0  0
  191.0390  175.4310  135.3380 C   0  0  2  0  0  3  0  0  0  0  0  0
  189.1390  173.8020  135.6030 C   0  0  0  0  0  2  0  0  0  0  0  0
  192.0530  175.1470  136.4490 C   0  0  0  0  0  2  0  0  0  0  0  0
  192.7630  176.3980  136.9480 C   0  0  0  0  0  2  0  0  0  0  0  0
  194.2010  176.1960  136.9130 N   0  0  0  0  0  0  0  0  0  0  0  0
  195.8850  174.3840  136.7980 C   0  0  0  0  0  2  0  0  0  0  0  0
  196.0960  176.0800  135.3200 C   0  0  0  0  0  2  0  0  0  0  0  0
  196.6510  175.5260  136.4900 O   0  0  0  0  0  0  0  0  0  0  0  0
  194.6600  176.5740  135.5720 C   0  0  0  0  0  2  0  0  0  0  0  0
  194.4290  174.7640  137.1270 C   0  0  0  0  0  2  0  0  0  0  0  0
  189.3850  176.4490  142.3750 O   0  0  0  0  0  0  0  0  0  0  0  0
  191.0550  176.6290  145.0140 N   0  0  0  0  0  0  0  0  0  0  0  0
  191.4350  177.5000  142.9120 C   0  0  0  0  0  2  0  0  0  0  0  0
  190.7760  175.5580  144.0750 C   0  0  0  0  0  2  0  0  0  0  0  0
  190.7170  176.1910  142.7120 C   0  0  1  0  0  3  0  0  0  0  0  0
  191.8210  177.5820  144.3160 N   0  0  0  0  0  2  0  0  0  0  0  0
  191.9060  176.0720  146.0530 C   0  0  0  0  0  2  0  0  0  0  0  0
  189.9680  176.9210  147.3650 C   0  0  0  0  0  1  0  0  0  0  0  0
  191.4330  176.5270  147.4220 C   0  0  0  0  0  2  0  0  0  0  0  0
  1  6  1  0  0  0  0
  1  8  1  0  0  0  0
  2 12  1  0  0  0  0
  3 10  2  0  0  0  0
  3 14  1  0  0  0  0
  4  8  2  0  0  0  0
  4 15  1  0  0  0  0
  5  1  2  0  0  0  0
  7  4  1  0  0  0  0
  9  5  1  0  0  0  0
  9  7  2  0  0  0  0
 10 11  1  0  0  0  0
 11  7  1  0  0  0  0
 11  2  2  0  0  0  0
 12 15  2  0  0  0  0
 13 35  1  6  0  0  0
 13  2  1  0  0  0  0
 14 13  1  0  0  0  0
 16  3  1  0  0  0  0
 17 16  1  0  0  0  0
 18 16  2  0  0  0  0
 19 17  1  0  0  0  0
 20 19  2  0  0  0  0
 21 19  1  6  0  0  0
 22 21  1  0  0  0  0
 23 25  1  0  0  0  0
 23 26  1  0  0  0  0
 24 21  1  0  0  0  0
 25 22  1  0  0  0  0
 25 27  1  1  0  0  0
 26 24  1  0  0  0  0
 27 28  1  0  0  0  0
 29 28  1  0  0  0  0
 29 34  1  0  0  0  0
 30 34  1  0  0  0  0
 31 33  1  0  0  0  0
 31 32  1  0  0  0  0
 32 30  1  0  0  0  0
 33 29  1  0  0  0  0
 36 41  1  0  0  0  0
 37 40  1  0  0  0  0
 38 36  1  0  0  0  0
 39 35  1  1  0  0  0
 39 37  1  0  0  0  0
 39 38  1  0  0  0  0
 40 36  1  0  0  0  0
 41 43  1  0  0  0  0
 42 43  1  0  0  0  0
M  END
>  <MODEL>
3

>  <REMARK>
 VINA RESULT:      -8.4      3.978      8.004
  Name = 
  10 active torsions:
  status: ('A' for Active; 'I' for Inactive)
    1  A    between atoms: O_1  and  C_34
    2  A    between atoms: O_1  and  C_35
    3  A    between atoms: C_2  and  C_13
    4  A    between atoms: C_3  and  C_12
    5  A    between atoms: N_6  and  C_12
    6  A    between atoms: C_9  and  N_19
    7  A    between atoms: C_9  and  C_37
    8  A    between atoms: N_11  and  C_14
    9  A    between atoms: C_14  and  C_41
   10  A    between atoms: C_22  and  C_41
                            x       y       z     vdW  Elec       q    Type
                         _______ _______ _______ _____ _____    ______ ____

>  <TORSDO>
F 10

$$$$
=
 OpenBabel10272414183D

 43 48  0  0  1  0  0  0  0  0999 V2000
  188.2280  177.2870  145.5020 C   0  0  0  0  0  0  0  0  0  0  0  0
  190.5790  177.3720  141.0300 C   0  0  0  0  0  0  0  0  0  0  0  0
  188.5160  177.7370  139.0740 C   0  0  0  0  0  0  0  0  0  0  0  0
  189.8970  177.2840  143.7440 C   0  0  0  0  0  0  0  0  0  0  0  0
  187.2130  177.3590  144.5430 C   0  0  0  0  0  3  0  0  0  0  0  0
  187.9170  177.2660  146.8170 F   0  0  0  0  0  0  0  0  0  0  0  0
  188.8740  177.3620  142.7690 C   0  0  0  0  0  0  0  0  0  0  0  0
  189.5670  177.2510  145.1030 C   0  0  0  0  0  3  0  0  0  0  0  0
  187.5330  177.3970  143.1840 C   0  0  0  0  0  3  0  0  0  0  0  0
  188.1900  177.4830  140.3470 C   0  0  0  0  0  3  0  0  0  0  0  0
  189.2200  177.4110  141.4060 C   0  0  0  0  0  0  0  0  0  0  0  0
  191.5750  177.2800  142.0050 C   0  0  0  0  0  3  0  0  0  0  0  0
  190.9570  177.3220  139.5730 C   0  0  2  0  0  3  0  0  0  0  0  0
  189.9410  178.0880  138.7150 C   0  0  0  0  0  2  0  0  0  0  0  0
  191.2370  177.2430  143.3560 C   0  0  0  0  0  3  0  0  0  0  0  0
  187.4750  177.7490  138.0330 C   0  0  0  0  0  0  0  0  0  0  0  0
  186.9930  176.5080  137.4940 N   0  0  0  0  0  2  0  0  0  0  0  0
  187.0110  178.8490  137.6290 O   0  0  0  0  0  0  0  0  0  0  0  0
  186.1860  176.3220  136.3210 C   0  0  0  0  0  0  0  0  0  0  0  0
  186.6890  175.4120  135.0520 S   0  0  0  0  0  0  0  0  0  0  0  0
  184.8290  176.9410  136.2550 C   0  0  2  0  0  3  0  0  0  0  0  0
  184.0190  176.5550  137.4930 C   0  0  0  0  0  2  0  0  0  0  0  0
  181.9990  177.0570  136.0200 C   0  0  0  0  0  2  0  0  0  0  0  0
  184.1550  176.5290  135.0930 O   0  0  0  0  0  0  0  0  0  0  0  0
  182.6090  177.1580  137.4220 C   0  0  2  0  0  3  0  0  0  0  0  0
  183.0460  177.3800  134.9530 C   0  0  0  0  0  2  0  0  0  0  0  0
  182.5310  178.5700  138.0080 C   0  0  0  0  0  2  0  0  0  0  0  0
  181.7890  178.6280  139.3370 C   0  0  0  0  0  2  0  0  0  0  0  0
  182.6960  178.2990  140.4230 N   0  0  0  0  0  0  0  0  0  0  0  0
  184.8260  179.0460  141.4400 C   0  0  0  0  0  2  0  0  0  0  0  0
  183.0710  178.7510  142.8300 C   0  0  0  0  0  2  0  0  0  0  0  0
  184.3020  178.1940  142.4330 O   0  0  0  0  0  0  0  0  0  0  0  0
  182.0600  178.7390  141.6690 C   0  0  0  0  0  2  0  0  0  0  0  0
  183.9210  179.0710  140.1940 C   0  0  0  0  0  2  0  0  0  0  0  0
  191.0190  175.9900  139.1460 O   0  0  0  0  0  0  0  0  0  0  0  0
  193.3220  174.2930  137.8810 N   0  0  0  0  0  0  0  0  0  0  0  0
  193.0900  176.5700  138.1650 C   0  0  0  0  0  2  0  0  0  0  0  0
  191.9700  174.6190  137.4630 C   0  0  0  0  0  2  0  0  0  0  0  0
  191.7070  176.0240  137.9300 C   0  0  1  0  0  3  0  0  0  0  0  0
  194.0420  175.5030  137.8790 N   0  0  0  0  0  2  0  0  0  0  0  0
  193.8950  173.4510  136.8440 C   0  0  0  0  0  2  0  0  0  0  0  0
  193.4230  171.5640  135.2900 C   0  0  0  0  0  1  0  0  0  0  0  0
  192.8050  172.6470  136.1560 C   0  0  0  0  0  2  0  0  0  0  0  0
  1  6  1  0  0  0  0
  2 11  2  0  0  0  0
  2 12  1  0  0  0  0
  3 10  2  0  0  0  0
  4  8  2  0  0  0  0
  5  1  2  0  0  0  0
  7  9  2  0  0  0  0
  7  4  1  0  0  0  0
  8  1  1  0  0  0  0
  9  5  1  0  0  0  0
 10 11  1  0  0  0  0
 11  7  1  0  0  0  0
 12 15  2  0  0  0  0
 13 35  1  6  0  0  0
 13  2  1  0  0  0  0
 14  3  1  0  0  0  0
 14 13  1  0  0  0  0
 15  4  1  0  0  0  0
 16  3  1  0  0  0  0
 17 16  1  0  0  0  0
 18 16  2  0  0  0  0
 19 17  1  0  0  0  0
 20 19  2  0  0  0  0
 21 19  1  1  0  0  0
 21 22  1  0  0  0  0
 23 25  1  0  0  0  0
 24 21  1  0  0  0  0
 25 22  1  0  0  0  0
 25 27  1  6  0  0  0
 26 24  1  0  0  0  0
 26 23  1  0  0  0  0
 27 28  1  0  0  0  0
 28 29  1  0  0  0  0
 29 33  1  0  0  0  0
 30 32  1  0  0  0  0
 32 31  1  0  0  0  0
 33 31  1  0  0  0  0
 34 29  1  0  0  0  0
 34 30  1  0  0  0  0
 38 36  1  0  0  0  0
 38 39  1  0  0  0  0
 39 37  1  0  0  0  0
 39 35  1  1  0  0  0
 40 36  1  0  0  0  0
 40 37  1  0  0  0  0
 41 36  1  0  0  0  0
 42 43  1  0  0  0  0
 43 41  1  0  0  0  0
M  END
>  <MODEL>
4

>  <REMARK>
 VINA RESULT:      -8.3      2.865      8.753
  Name = 
  10 active torsions:
  status: ('A' for Active; 'I' for Inactive)
    1  A    between atoms: O_1  and  C_34
    2  A    between atoms: O_1  and  C_35
    3  A    between atoms: C_2  and  C_13
    4  A    between atoms: C_3  and  C_12
    5  A    between atoms: N_6  and  C_12
    6  A    between atoms: C_9  and  N_19
    7  A    between atoms: C_9  and  C_37
    8  A    between atoms: N_11  and  C_14
    9  A    between atoms: C_14  and  C_41
   10  A    between atoms: C_22  and  C_41
                            x       y       z     vdW  Elec       q    Type
                         _______ _______ _______ _____ _____    ______ ____

>  <TORSDO>
F 10

$$$$
=
 OpenBabel10272414183D

 43 48  0  0  1  0  0  0  0  0999 V2000
  188.0750  177.5560  146.0030 C   0  0  0  0  0  0  0  0  0  0  0  0
  190.3170  177.3870  141.4770 C   0  0  0  0  0  0  0  0  0  0  0  0
  188.2400  177.8690  139.5620 C   0  0  0  0  0  0  0  0  0  0  0  0
  189.6970  177.3980  144.2080 C   0  0  0  0  0  0  0  0  0  0  0  0
  187.0460  177.6850  145.0660 C   0  0  0  0  0  3  0  0  0  0  0  0
  187.7950  177.5810  147.3240 F   0  0  0  0  0  0  0  0  0  0  0  0
  188.6590  177.5340  143.2550 C   0  0  0  0  0  0  0  0  0  0  0  0
  189.3980  177.4130  145.5740 C   0  0  0  0  0  3  0  0  0  0  0  0
  187.3350  177.6750  143.7000 C   0  0  0  0  0  3  0  0  0  0  0  0
  187.9270  177.6630  140.8470 C   0  0  0  0  0  3  0  0  0  0  0  0
  188.9740  177.5340  141.8830 C   0  0  0  0  0  0  0  0  0  0  0  0
  191.3270  177.2390  142.4310 C   0  0  0  0  0  3  0  0  0  0  0  0
  190.6550  177.2840  140.0130 C   0  0  2  0  0  3  0  0  0  0  0  0
  189.6780  178.1080  139.1640 C   0  0  0  0  0  2  0  0  0  0  0  0
  191.0200  177.2510  143.7900 C   0  0  0  0  0  3  0  0  0  0  0  0
  187.1780  177.9400  138.5460 C   0  0  0  0  0  0  0  0  0  0  0  0
  187.1930  177.0300  137.4340 N   0  0  0  0  0  2  0  0  0  0  0  0
  186.2590  178.7950  138.6640 O   0  0  0  0  0  0  0  0  0  0  0  0
  186.4100  177.1060  136.2330 C   0  0  0  0  0  0  0  0  0  0  0  0
  186.8800  178.0000  134.9410 S   0  0  0  0  0  0  0  0  0  0  0  0
  185.1440  176.3230  136.1300 C   0  0  2  0  0  3  0  0  0  0  0  0
  185.0080  175.3880  137.3330 C   0  0  0  0  0  2  0  0  0  0  0  0
  183.4810  174.0410  135.7980 C   0  0  0  0  0  2  0  0  0  0  0  0
  185.1210  175.5770  134.9390 O   0  0  0  0  0  0  0  0  0  0  0  0
  183.7260  174.5520  137.2220 C   0  0  2  0  0  3  0  0  0  0  0  0
  183.7980  175.1310  134.7740 C   0  0  0  0  0  2  0  0  0  0  0  0
  182.5030  175.2470  137.8270 C   0  0  0  0  0  2  0  0  0  0  0  0
  182.8470  176.1520  139.0020 C   0  0  0  0  0  2  0  0  0  0  0  0
  182.0330  177.3550  138.9530 N   0  0  0  0  0  0  0  0  0  0  0  0
  181.2660  179.2160  140.3930 C   0  0  0  0  0  2  0  0  0  0  0  0
  182.1810  179.7660  138.4030 C   0  0  0  0  0  2  0  0  0  0  0  0
  180.9610  179.6910  139.1010 O   0  0  0  0  0  0  0  0  0  0  0  0
  182.7980  178.3680  138.2190 C   0  0  0  0  0  2  0  0  0  0  0  0
  181.8420  177.7890  140.3390 C   0  0  0  0  0  2  0  0  0  0  0  0
  190.6090  175.9430  139.6110 O   0  0  0  0  0  0  0  0  0  0  0  0
  190.3940  173.8300  137.3150 N   0  0  0  0  0  0  0  0  0  0  0  0
  192.1290  175.2090  137.9570 C   0  0  0  0  0  2  0  0  0  0  0  0
  189.8120  175.1440  137.5270 C   0  0  0  0  0  2  0  0  0  0  0  0
  190.8560  175.9620  138.2360 C   0  0  1  0  0  3  0  0  0  0  0  0
  191.7810  174.0280  137.1750 N   0  0  0  0  0  2  0  0  0  0  0  0
  189.8980  173.3490  136.0360 C   0  0  0  0  0  2  0  0  0  0  0  0
  187.8080  172.1280  136.6180 C   0  0  0  0  0  1  0  0  0  0  0  0
  188.3800  173.3950  136.0080 C   0  0  0  0  0  2  0  0  0  0  0  0
  1  6  1  0  0  0  0
  2 11  2  0  0  0  0
  2 12  1  0  0  0  0
  3 10  2  0  0  0  0
  4  8  2  0  0  0  0
  5  1  2  0  0  0  0
  7  9  2  0  0  0  0
  7  4  1  0  0  0  0
  8  1  1  0  0  0  0
  9  5  1  0  0  0  0
 10 11  1  0  0  0  0
 11  7  1  0  0  0  0
 12 15  2  0  0  0  0
 13 35  1  6  0  0  0
 13  2  1  0  0  0  0
 14  3  1  0  0  0  0
 14 13  1  0  0  0  0
 15  4  1  0  0  0  0
 16 18  2  0  0  0  0
 16  3  1  0  0  0  0
 17 16  1  0  0  0  0
 19 17  1  0  0  0  0
 20 19  2  0  0  0  0
 21 19  1  1  0  0  0
 21 22  1  0  0  0  0
 23 25  1  0  0  0  0
 24 21  1  0  0  0  0
 25 22  1  0  0  0  0
 25 27  1  6  0  0  0
 26 24  1  0  0  0  0
 26 23  1  0  0  0  0
 27 28  1  0  0  0  0
 29 28  1  0  0  0  0
 29 34  1  0  0  0  0
 31 32  1  0  0  0  0
 32 30  1  0  0  0  0
 33 31  1  0  0  0  0
 33 29  1  0  0  0  0
 34 30  1  0  0  0  0
 36 38  1  0  0  0  0
 37 39  1  0  0  0  0
 38 39  1  0  0  0  0
 39 35  1  1  0  0  0
 40 36  1  0  0  0  0
 40 37  1  0  0  0  0
 41 36  1  0  0  0  0
 43 41  1  0  0  0  0
 43 42  1  0  0  0  0
M  END
>  <MODEL>
5

>  <REMARK>
 VINA RESULT:      -8.3      2.815      8.251
  Name = 
  10 active torsions:
  status: ('A' for Active; 'I' for Inactive)
    1  A    between atoms: O_1  and  C_34
    2  A    between atoms: O_1  and  C_35
    3  A    between atoms: C_2  and  C_13
    4  A    between atoms: C_3  and  C_12
    5  A    between atoms: N_6  and  C_12
    6  A    between atoms: C_9  and  N_19
    7  A    between atoms: C_9  and  C_37
    8  A    between atoms: N_11  and  C_14
    9  A    between atoms: C_14  and  C_41
   10  A    between atoms: C_22  and  C_41
                            x       y       z     vdW  Elec       q    Type
                         _______ _______ _______ _____ _____    ______ ____

>  <TORSDO>
F 10

$$$$
=
 OpenBabel10272414183D

 43 48  0  0  1  0  0  0  0  0999 V2000
  193.1060  176.9400  139.7490 C   0  0  0  0  0  0  0  0  0  0  0  0
  188.6880  176.9350  137.2940 C   0  0  0  0  0  0  0  0  0  0  0  0
  186.8340  178.2640  139.0290 C   0  0  0  0  0  0  0  0  0  0  0  0
  191.3580  176.6570  138.0930 C   0  0  0  0  0  0  0  0  0  0  0  0
  192.1790  177.4930  140.6370 C   0  0  0  0  0  3  0  0  0  0  0  0
  194.4020  176.8190  140.1100 F   0  0  0  0  0  0  0  0  0  0  0  0
  190.4160  177.2210  138.9870 C   0  0  0  0  0  0  0  0  0  0  0  0
  192.6950  176.5240  138.4780 C   0  0  0  0  0  3  0  0  0  0  0  0
  190.8420  177.6330  140.2590 C   0  0  0  0  0  3  0  0  0  0  0  0
  188.0520  177.9380  139.4790 C   0  0  0  0  0  3  0  0  0  0  0  0
  189.0760  177.3640  138.5810 C   0  0  0  0  0  0  0  0  0  0  0  0
  189.6280  176.3670  136.4300 C   0  0  0  0  0  3  0  0  0  0  0  0
  187.2400  176.9900  136.8860 C   0  0  2  0  0  3  0  0  0  0  0  0
  186.5260  178.1730  137.5520 C   0  0  0  0  0  2  0  0  0  0  0  0
  190.9580  176.2340  136.8240 C   0  0  0  0  0  3  0  0  0  0  0  0
  185.8170  178.7820  139.9580 C   0  0  0  0  0  0  0  0  0  0  0  0
  185.8210  178.3550  141.3290 N   0  0  0  0  0  2  0  0  0  0  0  0
  184.9540  179.6020  139.5430 O   0  0  0  0  0  0  0  0  0  0  0  0
  184.7840  178.5440  142.3050 C   0  0  0  0  0  0  0  0  0  0  0  0
  183.2000  178.6220  141.8890 S   0  0  0  0  0  0  0  0  0  0  0  0
  185.1430  178.6350  143.7500 C   0  0  2  0  0  3  0  0  0  0  0  0
  186.0350  177.4570  144.1440 C   0  0  0  0  0  2  0  0  0  0  0  0
  185.1830  177.9210  146.5020 C   0  0  0  0  0  2  0  0  0  0  0  0
  183.9840  178.6450  144.5460 O   0  0  0  0  0  0  0  0  0  0  0  0
  186.3830  177.5210  145.6370 C   0  0  2  0  0  3  0  0  0  0  0  0
  184.3870  179.0430  145.8330 C   0  0  0  0  0  2  0  0  0  0  0  0
  187.6330  178.3560  145.9250 C   0  0  0  0  0  2  0  0  0  0  0  0
  188.5740  177.7020  146.9280 C   0  0  0  0  0  2  0  0  0  0  0  0
  189.6210  176.9810  146.2240 N   0  0  0  0  0  0  0  0  0  0  0  0
  191.4670  177.3580  144.6180 C   0  0  0  0  0  2  0  0  0  0  0  0
  191.9610  176.2150  146.5030 C   0  0  0  0  0  2  0  0  0  0  0  0
  191.7600  176.0720  145.1160 O   0  0  0  0  0  0  0  0  0  0  0  0
  190.6670  176.6680  147.2030 C   0  0  0  0  0  2  0  0  0  0  0  0
  190.1520  177.8970  145.2100 C   0  0  0  0  0  2  0  0  0  0  0  0
  186.6020  175.7960  137.2450 O   0  0  0  0  0  0  0  0  0  0  0  0
  184.7910  173.4470  136.2520 N   0  0  0  0  0  0  0  0  0  0  0  0
  185.9160  175.0950  135.0940 C   0  0  0  0  0  2  0  0  0  0  0  0
  184.5260  174.6900  136.9550 C   0  0  0  0  0  2  0  0  0  0  0  0
  185.4900  175.7040  136.4040 C   0  0  1  0  0  3  0  0  0  0  0  0
  185.2470  173.8050  134.9690 N   0  0  0  0  0  2  0  0  0  0  0  0
  183.5130  172.7770  136.0810 C   0  0  0  0  0  2  0  0  0  0  0  0
  183.3080  170.2950  136.0800 C   0  0  0  0  0  1  0  0  0  0  0  0
  183.4500  171.5320  136.9490 C   0  0  0  0  0  2  0  0  0  0  0  0
  1  6  1  0  0  0  0
  1  5  1  0  0  0  0
  2 11  1  0  0  0  0
  3 10  2  0  0  0  0
  3 16  1  0  0  0  0
  4  8  1  0  0  0  0
  4  7  1  0  0  0  0
  7  9  1  0  0  0  0
  8  1  2  0  0  0  0
  9  5  2  0  0  0  0
 11  7  2  0  0  0  0
 11 10  1  0  0  0  0
 12 15  1  0  0  0  0
 12  2  2  0  0  0  0
 13 35  1  1  0  0  0
 13  2  1  0  0  0  0
 13 14  1  0  0  0  0
 14  3  1  0  0  0  0
 15  4  2  0  0  0  0
 16 17  1  0  0  0  0
 17 19  1  0  0  0  0
 18 16  2  0  0  0  0
 20 19  2  0  0  0  0
 21 19  1  6  0  0  0
 21 22  1  0  0  0  0
 21 24  1  0  0  0  0
 22 25  1  0  0  0  0
 24 26  1  0  0  0  0
 25 27  1  6  0  0  0
 25 23  1  0  0  0  0
 26 23  1  0  0  0  0
 27 28  1  0  0  0  0
 29 28  1  0  0  0  0
 29 33  1  0  0  0  0
 30 32  1  0  0  0  0
 30 34  1  0  0  0  0
 31 33  1  0  0  0  0
 32 31  1  0  0  0  0
 34 29  1  0  0  0  0
 36 38  1  0  0  0  0
 37 39  1  0  0  0  0
 39 38  1  0  0  0  0
 39 35  1  1  0  0  0
 40 37  1  0  0  0  0
 40 36  1  0  0  0  0
 41 36  1  0  0  0  0
 41 43  1  0  0  0  0
 42 43  1  0  0  0  0
M  END
>  <MODEL>
6

>  <REMARK>
 VINA RESULT:      -8.2      4.243      7.908
  Name = 
  10 active torsions:
  status: ('A' for Active; 'I' for Inactive)
    1  A    between atoms: O_1  and  C_34
    2  A    between atoms: O_1  and  C_35
    3  A    between atoms: C_2  and  C_13
    4  A    between atoms: C_3  and  C_12
    5  A    between atoms: N_6  and  C_12
    6  A    between atoms: C_9  and  N_19
    7  A    between atoms: C_9  and  C_37
    8  A    between atoms: N_11  and  C_14
    9  A    between atoms: C_14  and  C_41
   10  A    between atoms: C_22  and  C_41
                            x       y       z     vdW  Elec       q    Type
                         _______ _______ _______ _____ _____    ______ ____

>  <TORSDO>
F 10

$$$$
=
 OpenBabel10272414183D

 43 48  0  0  1  0  0  0  0  0999 V2000
  189.1280  177.3100  146.1100 C   0  0  0  0  0  0  0  0  0  0  0  0
  190.4200  177.5410  141.2290 C   0  0  0  0  0  0  0  0  0  0  0  0
  188.0210  178.2310  139.8220 C   0  0  0  0  0  0  0  0  0  0  0  0
  190.3550  177.3020  144.0180 C   0  0  0  0  0  0  0  0  0  0  0  0
  187.9380  177.5420  145.4140 C   0  0  0  0  0  3  0  0  0  0  0  0
  189.1180  177.2140  147.4570 F   0  0  0  0  0  0  0  0  0  0  0  0
  189.1530  177.5420  143.3100 C   0  0  0  0  0  0  0  0  0  0  0  0
  190.3350  177.1910  145.4120 C   0  0  0  0  0  3  0  0  0  0  0  0
  187.9490  177.6580  144.0220 C   0  0  0  0  0  3  0  0  0  0  0  0
  187.9620  177.9080  141.1200 C   0  0  0  0  0  3  0  0  0  0  0  0
  189.1900  177.6670  141.9080 C   0  0  0  0  0  0  0  0  0  0  0  0
  191.5940  177.2900  141.9430 C   0  0  0  0  0  3  0  0  0  0  0  0
  190.4570  177.5730  139.7240 C   0  0  2  0  0  3  0  0  0  0  0  0
  189.3580  178.4860  139.1660 C   0  0  0  0  0  2  0  0  0  0  0  0
  191.5640  177.1770  143.3320 C   0  0  0  0  0  3  0  0  0  0  0  0
  186.7800  178.4110  139.0500 C   0  0  0  0  0  0  0  0  0  0  0  0
  185.5770  178.8180  139.7190 N   0  0  0  0  0  2  0  0  0  0  0  0
  186.7880  178.2140  137.8040 O   0  0  0  0  0  0  0  0  0  0  0  0
  184.2390  178.7990  139.1970 C   0  0  0  0  0  0  0  0  0  0  0  0
  183.3890  180.1760  138.9290 S   0  0  0  0  0  0  0  0  0  0  0  0
  183.6040  177.4950  138.8480 C   0  0  2  0  0  3  0  0  0  0  0  0
  182.9300  177.5910  137.4790 C   0  0  0  0  0  2  0  0  0  0  0  0
  181.5120  175.6450  138.3180 C   0  0  0  0  0  2  0  0  0  0  0  0
  182.6610  177.1290  139.8220 O   0  0  0  0  0  0  0  0  0  0  0  0
  182.2440  176.2650  137.1220 C   0  0  2  0  0  3  0  0  0  0  0  0
  182.3500  175.7780  139.5900 C   0  0  0  0  0  2  0  0  0  0  0  0
  183.1770  175.2790  136.4140 C   0  0  0  0  0  2  0  0  0  0  0  0
  184.1020  175.9470  135.4050 C   0  0  0  0  0  2  0  0  0  0  0  0
  185.4000  175.2950  135.4190 N   0  0  0  0  0  0  0  0  0  0  0  0
  187.8060  175.7950  135.1170 C   0  0  0  0  0  2  0  0  0  0  0  0
  187.2190  174.6480  136.9720 C   0  0  0  0  0  2  0  0  0  0  0  0
  187.8380  174.5180  135.7140 O   0  0  0  0  0  0  0  0  0  0  0  0
  185.7340  175.0210  136.8210 C   0  0  0  0  0  2  0  0  0  0  0  0
  186.3580  176.2540  134.8620 C   0  0  0  0  0  2  0  0  0  0  0  0
  190.2880  176.2770  139.2200 O   0  0  0  0  0  0  0  0  0  0  0  0
  192.1660  174.2880  137.7040 N   0  0  0  0  0  0  0  0  0  0  0  0
  192.3890  176.5370  138.1670 C   0  0  0  0  0  2  0  0  0  0  0  0
  190.8860  174.8960  137.3890 C   0  0  0  0  0  2  0  0  0  0  0  0
  190.9180  176.2820  137.9730 C   0  0  1  0  0  3  0  0  0  0  0  0
  193.1040  175.3370  137.7490 N   0  0  0  0  0  2  0  0  0  0  0  0
  192.5230  173.4420  136.5760 C   0  0  0  0  0  2  0  0  0  0  0  0
  194.2300  173.6480  134.7760 C   0  0  0  0  0  1  0  0  0  0  0  0
  194.0070  173.5630  136.2750 C   0  0  0  0  0  2  0  0  0  0  0  0
  1  6  1  0  0  0  0
  2 11  2  0  0  0  0
  2 12  1  0  0  0  0
  3 10  2  0  0  0  0
  4  8  1  0  0  0  0
  5  1  1  0  0  0  0
  7  4  2  0  0  0  0
  7  9  1  0  0  0  0
  8  1  2  0  0  0  0
  9  5  2  0  0  0  0
 10 11  1  0  0  0  0
 11  7  1  0  0  0  0
 12 15  2  0  0  0  0
 13 35  1  6  0  0  0
 13  2  1  0  0  0  0
 14 13  1  0  0  0  0
 14  3  1  0  0  0  0
 15  4  1  0  0  0  0
 16 17  1  0  0  0  0
 16  3  1  0  0  0  0
 18 16  2  0  0  0  0
 19 17  1  0  0  0  0
 20 19  2  0  0  0  0
 21 19  1  1  0  0  0
 21 24  1  0  0  0  0
 22 21  1  0  0  0  0
 23 26  1  0  0  0  0
 25 27  1  1  0  0  0
 25 22  1  0  0  0  0
 25 23  1  0  0  0  0
 26 24  1  0  0  0  0
 28 29  1  0  0  0  0
 28 27  1  0  0  0  0
 29 33  1  0  0  0  0
 30 32  1  0  0  0  0
 32 31  1  0  0  0  0
 33 31  1  0  0  0  0
 34 30  1  0  0  0  0
 34 29  1  0  0  0  0
 36 40  1  0  0  0  0
 38 36  1  0  0  0  0
 38 39  1  0  0  0  0
 39 37  1  0  0  0  0
 39 35  1  1  0  0  0
 40 37  1  0  0  0  0
 41 36  1  0  0  0  0
 42 43  1  0  0  0  0
 43 41  1  0  0  0  0
M  END
>  <MODEL>
7

>  <REMARK>
 VINA RESULT:      -8.2      3.669      8.974
  Name = 
  10 active torsions:
  status: ('A' for Active; 'I' for Inactive)
    1  A    between atoms: O_1  and  C_34
    2  A    between atoms: O_1  and  C_35
    3  A    between atoms: C_2  and  C_13
    4  A    between atoms: C_3  and  C_12
    5  A    between atoms: N_6  and  C_12
    6  A    between atoms: C_9  and  N_19
    7  A    between atoms: C_9  and  C_37
    8  A    between atoms: N_11  and  C_14
    9  A    between atoms: C_14  and  C_41
   10  A    between atoms: C_22  and  C_41
                            x       y       z     vdW  Elec       q    Type
                         _______ _______ _______ _____ _____    ______ ____

>  <TORSDO>
F 10

$$$$
=
 OpenBabel10272414183D

 43 48  0  0  1  0  0  0  0  0999 V2000
  186.2720  178.3860  145.3960 C   0  0  0  0  0  0  0  0  0  0  0  0
  183.0920  178.5670  141.4720 C   0  0  0  0  0  0  0  0  0  0  0  0
  184.7050  178.1340  139.1440 C   0  0  0  0  0  0  0  0  0  0  0  0
  184.2950  178.5380  144.0010 C   0  0  0  0  0  0  0  0  0  0  0  0
  187.0730  178.2800  144.2550 C   0  0  0  0  0  3  0  0  0  0  0  0
  186.8340  178.3520  146.6230 F   0  0  0  0  0  0  0  0  0  0  0  0
  185.1010  178.4260  142.8420 C   0  0  0  0  0  0  0  0  0  0  0  0
  184.8850  178.5140  145.2680 C   0  0  0  0  0  3  0  0  0  0  0  0
  186.4920  178.3000  142.9850 C   0  0  0  0  0  3  0  0  0  0  0  0
  185.2900  178.3320  140.3320 C   0  0  0  0  0  3  0  0  0  0  0  0
  184.4930  178.4360  141.5730 C   0  0  0  0  0  0  0  0  0  0  0  0
  182.3130  178.6920  142.6260 C   0  0  0  0  0  3  0  0  0  0  0  0
  182.4400  178.6800  140.1190 C   0  0  2  0  0  3  0  0  0  0  0  0
  183.2180  177.8790  139.0670 C   0  0  0  0  0  2  0  0  0  0  0  0
  182.9110  178.6710  143.8850 C   0  0  0  0  0  3  0  0  0  0  0  0
  185.5200  178.0890  137.9180 C   0  0  0  0  0  0  0  0  0  0  0  0
  185.1810  177.1670  136.8710 N   0  0  0  0  0  2  0  0  0  0  0  0
  186.5050  178.8660  137.7970 O   0  0  0  0  0  0  0  0  0  0  0  0
  185.9830  176.8010  135.7370 C   0  0  0  0  0  0  0  0  0  0  0  0
  185.9780  177.6720  134.3480 S   0  0  0  0  0  0  0  0  0  0  0  0
  186.8830  175.6140  135.8260 C   0  0  2  0  0  3  0  0  0  0  0  0
  188.3250  176.0270  135.5280 C   0  0  0  0  0  2  0  0  0  0  0  0
  188.6400  173.5700  134.9230 C   0  0  0  0  0  2  0  0  0  0  0  0
  186.4740  174.6160  134.9260 O   0  0  0  0  0  0  0  0  0  0  0  0
  189.2560  174.8080  135.5830 C   0  0  2  0  0  3  0  0  0  0  0  0
  187.1600  173.4450  135.2890 C   0  0  0  0  0  2  0  0  0  0  0  0
  189.7970  174.5300  136.9880 C   0  0  0  0  0  2  0  0  0  0  0  0
  190.7890  175.5820  137.4680 C   0  0  0  0  0  2  0  0  0  0  0  0
  190.4750  175.9690  138.8330 N   0  0  0  0  0  0  0  0  0  0  0  0
  191.1850  177.5620  140.5900 C   0  0  0  0  0  2  0  0  0  0  0  0
  188.9780  177.4660  140.1200 C   0  0  0  0  0  2  0  0  0  0  0  0
  189.9440  177.1080  141.0800 O   0  0  0  0  0  0  0  0  0  0  0  0
  189.2190  176.7240  138.7930 C   0  0  0  0  0  2  0  0  0  0  0  0
  191.5630  176.8430  139.2820 C   0  0  0  0  0  2  0  0  0  0  0  0
  182.3820  180.0260  139.7340 O   0  0  0  0  0  0  0  0  0  0  0  0
  181.0640  182.3250  138.0740 N   0  0  0  0  0  0  0  0  0  0  0  0
  180.2150  180.9710  139.7370 C   0  0  0  0  0  2  0  0  0  0  0  0
  181.4900  180.9750  137.7540 C   0  0  0  0  0  2  0  0  0  0  0  0
  181.2140  180.1410  138.9750 C   0  0  1  0  0  3  0  0  0  0  0  0
  179.9980  182.2010  138.9850 N   0  0  0  0  0  2  0  0  0  0  0  0
  180.5210  182.8990  136.8530 C   0  0  0  0  0  2  0  0  0  0  0  0
  180.6860  184.7770  135.2280 C   0  0  0  0  0  1  0  0  0  0  0  0
  181.2910  184.1510  136.4710 C   0  0  0  0  0  2  0  0  0  0  0  0
  1  6  1  0  0  0  0
  2 11  2  0  0  0  0
  2 12  1  0  0  0  0
  3 10  2  0  0  0  0
  4  8  2  0  0  0  0
  5  1  2  0  0  0  0
  7  9  2  0  0  0  0
  7  4  1  0  0  0  0
  8  1  1  0  0  0  0
  9  5  1  0  0  0  0
 10 11  1  0  0  0  0
 11  7  1  0  0  0  0
 12 15  2  0  0  0  0
 13 35  1  6  0  0  0
 13  2  1  0  0  0  0
 14  3  1  0  0  0  0
 14 13  1  0  0  0  0
 15  4  1  0  0  0  0
 16  3  1  0  0  0  0
 17 16  1  0  0  0  0
 18 16  2  0  0  0  0
 19 17  1  0  0  0  0
 20 19  2  0  0  0  0
 21 19  1  6  0  0  0
 22 25  1  0  0  0  0
 22 21  1  0  0  0  0
 23 26  1  0  0  0  0
 23 25  1  0  0  0  0
 24 26  1  0  0  0  0
 24 21  1  0  0  0  0
 25 27  1  1  0  0  0
 27 28  1  0  0  0  0
 28 29  1  0  0  0  0
 29 34  1  0  0  0  0
 30 32  1  0  0  0  0
 31 32  1  0  0  0  0
 33 29  1  0  0  0  0
 33 31  1  0  0  0  0
 34 30  1  0  0  0  0
 36 40  1  0  0  0  0
 38 36  1  0  0  0  0
 38 39  1  0  0  0  0
 39 35  1  1  0  0  0
 39 37  1  0  0  0  0
 40 37  1  0  0  0  0
 41 36  1  0  0  0  0
 42 43  1  0  0  0  0
 43 41  1  0  0  0  0
M  END
>  <MODEL>
8

>  <REMARK>
 VINA RESULT:      -7.9      1.717      2.690
  Name = 
  10 active torsions:
  status: ('A' for Active; 'I' for Inactive)
    1  A    between atoms: O_1  and  C_34
    2  A    between atoms: O_1  and  C_35
    3  A    between atoms: C_2  and  C_13
    4  A    between atoms: C_3  and  C_12
    5  A    between atoms: N_6  and  C_12
    6  A    between atoms: C_9  and  N_19
    7  A    between atoms: C_9  and  C_37
    8  A    between atoms: N_11  and  C_14
    9  A    between atoms: C_14  and  C_41
   10  A    between atoms: C_22  and  C_41
                            x       y       z     vdW  Elec       q    Type
                         _______ _______ _______ _____ _____    ______ ____

>  <TORSDO>
F 10

$$$$
=
 OpenBabel10272414183D

 43 48  0  0  1  0  0  0  0  0999 V2000
  191.3610  176.6730  147.3790 C   0  0  0  0  0  0  0  0  0  0  0  0
  187.6940  177.6230  144.0340 C   0  0  0  0  0  0  0  0  0  0  0  0
  188.9200  177.4030  141.4530 C   0  0  0  0  0  0  0  0  0  0  0  0
  189.2310  177.1580  146.3280 C   0  0  0  0  0  0  0  0  0  0  0  0
  191.9810  176.6700  146.1260 C   0  0  0  0  0  3  0  0  0  0  0  0
  192.0840  176.4290  148.4930 F   0  0  0  0  0  0  0  0  0  0  0  0
  189.8530  177.1510  145.0570 C   0  0  0  0  0  0  0  0  0  0  0  0
  189.9870  176.9160  147.4790 C   0  0  0  0  0  3  0  0  0  0  0  0
  191.2330  176.9070  144.9710 C   0  0  0  0  0  3  0  0  0  0  0  0
  189.6800  177.3920  142.5550 C   0  0  0  0  0  3  0  0  0  0  0  0
  189.0770  177.3800  143.9050 C   0  0  0  0  0  0  0  0  0  0  0  0
  187.0980  177.6410  145.2980 C   0  0  0  0  0  3  0  0  0  0  0  0
  186.8720  177.9690  142.8200 C   0  0  2  0  0  3  0  0  0  0  0  0
  187.4190  177.2680  141.5690 C   0  0  0  0  0  2  0  0  0  0  0  0
  187.8610  177.4040  146.4400 C   0  0  0  0  0  3  0  0  0  0  0  0
  189.5470  177.4710  140.1230 C   0  0  0  0  0  0  0  0  0  0  0  0
  188.7390  177.3260  138.9450 N   0  0  0  0  0  2  0  0  0  0  0  0
  190.7900  177.6630  140.0310 O   0  0  0  0  0  0  0  0  0  0  0  0
  189.1900  177.1100  137.5990 C   0  0  0  0  0  0  0  0  0  0  0  0
  188.9770  178.2290  136.4190 S   0  0  0  0  0  0  0  0  0  0  0  0
  189.9100  175.8490  137.2580 C   0  0  2  0  0  3  0  0  0  0  0  0
  190.8300  176.0790  136.0580 C   0  0  0  0  0  2  0  0  0  0  0  0
  190.6280  173.5570  135.7360 C   0  0  0  0  0  2  0  0  0  0  0  0
  188.9950  174.8210  136.9700 O   0  0  0  0  0  0  0  0  0  0  0  0
  191.5510  174.7790  135.6760 C   0  0  2  0  0  3  0  0  0  0  0  0
  189.7290  173.6220  136.9710 C   0  0  0  0  0  2  0  0  0  0  0  0
  192.8630  174.5750  136.4390 C   0  0  0  0  0  2  0  0  0  0  0  0
  193.9730  175.5160  135.9860 C   0  0  0  0  0  2  0  0  0  0  0  0
  195.0520  175.5080  136.9580 N   0  0  0  0  0  0  0  0  0  0  0  0
  195.8160  174.2860  138.9710 C   0  0  0  0  0  2  0  0  0  0  0  0
  197.3230  174.5810  137.3150 C   0  0  0  0  0  2  0  0  0  0  0  0
  196.9680  175.0130  138.6070 O   0  0  0  0  0  0  0  0  0  0  0  0
  196.2330  174.9490  136.2910 C   0  0  0  0  0  2  0  0  0  0  0  0
  194.6320  174.6180  138.0440 C   0  0  0  0  0  2  0  0  0  0  0  0
  186.8830  179.3550  142.6220 O   0  0  0  0  0  0  0  0  0  0  0  0
  184.1170  178.5330  143.8290 N   0  0  0  0  0  0  0  0  0  0  0  0
  184.8830  178.5480  141.6530 C   0  0  0  0  0  2  0  0  0  0  0  0
  184.7940  179.8050  143.6450 C   0  0  0  0  0  2  0  0  0  0  0  0
  185.5550  179.6990  142.3530 C   0  0  1  0  0  3  0  0  0  0  0  0
  183.8440  178.0380  142.5400 N   0  0  0  0  0  2  0  0  0  0  0  0
  182.8390  178.8200  144.4590 C   0  0  0  0  0  2  0  0  0  0  0  0
  180.4780  178.4910  143.7400 C   0  0  0  0  0  1  0  0  0  0  0  0
  181.7980  179.1630  143.4070 C   0  0  0  0  0  2  0  0  0  0  0  0
  1  8  1  0  0  0  0
  1  6  1  0  0  0  0
  2 12  1  0  0  0  0
  3 14  1  0  0  0  0
  3 10  2  0  0  0  0
  4 15  1  0  0  0  0
  4  8  2  0  0  0  0
  5  1  2  0  0  0  0
  7  4  1  0  0  0  0
  9  7  2  0  0  0  0
  9  5  1  0  0  0  0
 10 11  1  0  0  0  0
 11  2  2  0  0  0  0
 11  7  1  0  0  0  0
 12 15  2  0  0  0  0
 13 35  1  6  0  0  0
 13  2  1  0  0  0  0
 14 13  1  0  0  0  0
 16  3  1  0  0  0  0
 17 16  1  0  0  0  0
 18 16  2  0  0  0  0
 19 17  1  0  0  0  0
 20 19  2  0  0  0  0
 21 19  1  6  0  0  0
 22 21  1  0  0  0  0
 23 26  1  0  0  0  0
 24 26  1  0  0  0  0
 24 21  1  0  0  0  0
 25 23  1  0  0  0  0
 25 22  1  0  0  0  0
 25 27  1  1  0  0  0
 28 27  1  0  0  0  0
 28 29  1  0  0  0  0
 29 34  1  0  0  0  0
 31 32  1  0  0  0  0
 32 30  1  0  0  0  0
 33 29  1  0  0  0  0
 33 31  1  0  0  0  0
 34 30  1  0  0  0  0
 36 41  1  0  0  0  0
 37 39  1  0  0  0  0
 37 40  1  0  0  0  0
 38 36  1  0  0  0  0
 39 35  1  1  0  0  0
 39 38  1  0  0  0  0
 40 36  1  0  0  0  0
 43 42  1  0  0  0  0
 43 41  1  0  0  0  0
M  END
>  <MODEL>
9

>  <REMARK>
 VINA RESULT:      -7.6      4.027      6.617
  Name = 
  10 active torsions:
  status: ('A' for Active; 'I' for Inactive)
    1  A    between atoms: O_1  and  C_34
    2  A    between atoms: O_1  and  C_35
    3  A    between atoms: C_2  and  C_13
    4  A    between atoms: C_3  and  C_12
    5  A    between atoms: N_6  and  C_12
    6  A    between atoms: C_9  and  N_19
    7  A    between atoms: C_9  and  C_37
    8  A    between atoms: N_11  and  C_14
    9  A    between atoms: C_14  and  C_41
   10  A    between atoms: C_22  and  C_41
                            x       y       z     vdW  Elec       q    Type
                         _______ _______ _______ _____ _____    ______ ____

>  <TORSDO>
F 10

$$$$
