=
 OpenBabel10262423573D

 34 39  0  0  1  0  0  0  0  0999 V2000
  184.8620  178.9720  139.6110 C   0  0  0  0  0  0  0  0  0  0  0  0
  185.2430  178.0340  141.8370 C   0  0  0  0  0  0  0  0  0  0  0  0
  187.1460  178.2660  140.2900 N   0  0  0  0  0  0  0  0  0  0  0  0
  190.6240  177.0600  140.4950 C   0  0  0  0  0  3  0  0  0  0  0  0
  182.9810  178.8030  141.2450 C   0  0  0  0  0  3  0  0  0  0  0  0
  183.8040  178.2050  142.1120 C   0  0  0  0  0  3  0  0  0  0  0  0
  188.6560  178.2940  142.3160 C   0  0  0  0  0  2  0  0  0  0  0  0
  185.7610  178.4210  140.6550 C   0  0  0  0  0  0  0  0  0  0  0  0
  190.2970  177.6550  144.0820 C   0  0  0  0  0  3  0  0  0  0  0  0
  190.8780  177.0130  141.8120 C   0  0  0  0  0  3  0  0  0  0  0  0
  183.4600  179.3870  139.9440 C   0  0  0  0  0  2  0  0  0  0  0  0
  187.5120  178.3490  138.9140 C   0  0  0  0  0  0  0  0  0  0  0  0
  185.3250  179.1280  138.3630 C   0  0  0  0  0  3  0  0  0  0  0  0
  186.0240  177.4290  142.8120 O   0  0  0  0  0  1  0  0  0  0  0  0
  189.4280  177.8440  140.0620 C   0  0  1  0  0  3  0  0  0  0  0  0
  188.8980  177.8760  138.6310 C   0  0  1  0  0  3  0  0  0  0  0  0
  189.9530  177.6510  142.7940 C   0  0  0  0  0  0  0  0  0  0  0  0
  188.2490  177.6390  141.0000 C   0  0  2  0  0  3  0  0  0  0  0  0
  186.6710  178.7550  138.0100 N   0  0  0  0  0  0  0  0  0  0  0  0
  188.9630  173.9830  136.7860 C   0  0  0  0  0  3  0  0  0  0  0  0
  187.7370  174.6140  137.0130 C   0  0  0  0  0  0  0  0  0  0  0  0
  188.8950  176.5180  137.9820 C   0  0  0  0  0  0  0  0  0  0  0  0
  190.1530  174.6150  137.1560 C   0  0  0  0  0  3  0  0  0  0  0  0
  187.7020  175.8770  137.6090 C   0  0  0  0  0  3  0  0  0  0  0  0
  190.1190  175.8790  137.7530 C   0  0  0  0  0  3  0  0  0  0  0  0
  186.5830  174.0010  136.6550 F   0  0  0  0  0  0  0  0  0  0  0  0
  189.4630  178.2740  145.1620 C   0  0  0  0  0  2  0  0  0  0  0  0
  186.4070  177.3060  145.8000 O   0  0  0  0  0  0  0  0  0  0  0  0
  188.7610  177.2100  146.0020 C   0  0  2  0  0  3  0  0  0  0  0  0
  187.3900  177.6680  146.4230 C   0  0  0  0  0  0  0  0  0  0  0  0
  188.1070  178.1730  148.7420 C   0  0  0  0  0  2  0  0  0  0  0  0
  189.5500  177.9550  148.2960 C   0  0  0  0  0  2  0  0  0  0  0  0
  189.6070  176.8570  147.2300 C   0  0  0  0  0  2  0  0  0  0  0  0
  187.2440  178.6260  147.5670 C   0  0  0  0  0  2  0  0  0  0  0  0
  1 11  1  0  0  0  0
  1  8  1  0  0  0  0
  2  6  1  0  0  0  0
  2 14  1  0  0  0  0
  3  8  1  0  0  0  0
  3 18  1  0  0  0  0
  4 10  2  0  0  0  0
  5  6  2  0  0  0  0
  7 17  1  0  0  0  0
  8  2  2  0  0  0  0
  9 27  1  0  0  0  0
 10 17  1  0  0  0  0
 11  5  1  0  0  0  0
 12  3  1  0  0  0  0
 13  1  2  0  0  0  0
 15  4  1  6  0  0  0
 15 18  1  0  0  0  0
 16 22  1  1  0  0  0
 16 12  1  0  0  0  0
 16 15  1  0  0  0  0
 17  9  2  0  0  0  0
 18  7  1  1  0  0  0
 19 13  1  0  0  0  0
 19 12  2  0  0  0  0
 20 21  2  0  0  0  0
 20 23  1  0  0  0  0
 21 24  1  0  0  0  0
 23 25  2  0  0  0  0
 24 22  2  0  0  0  0
 25 22  1  0  0  0  0
 26 21  1  0  0  0  0
 28 30  2  0  0  0  0
 29 27  1  1  0  0  0
 29 30  1  0  0  0  0
 29 33  1  0  0  0  0
 30 34  1  0  0  0  0
 32 31  1  0  0  0  0
 33 32  1  0  0  0  0
 34 31  1  0  0  0  0
M  END
>  <MODEL>
1

>  <REMARK>
 VINA RESULT:      -9.5      0.000      0.000
  Name = 
  3 active torsions:
  status: ('A' for Active; 'I' for Inactive)
    1  A    between atoms: C_3  and  C_13
    2  A    between atoms: C_3  and  C_17
    3  A    between atoms: C_12  and  C_28
                            x       y       z     vdW  Elec       q    Type
                         _______ _______ _______ _____ _____    ______ ____

>  <TORSDO>
F 3

$$$$
=
 OpenBabel10262423573D

 34 39  0  0  1  0  0  0  0  0999 V2000
  184.7460  178.7560  144.7910 C   0  0  0  0  0  0  0  0  0  0  0  0
  186.6600  177.5570  143.8540 C   0  0  0  0  0  0  0  0  0  0  0  0
  185.0450  178.6200  142.3280 N   0  0  0  0  0  0  0  0  0  0  0  0
  184.6660  178.4510  138.6640 C   0  0  0  0  0  3  0  0  0  0  0  0
  186.4570  177.7400  146.3000 C   0  0  0  0  0  3  0  0  0  0  0  0
  187.0910  177.2490  145.2300 C   0  0  0  0  0  3  0  0  0  0  0  0
  186.8850  178.6910  140.5970 C   0  0  0  0  0  2  0  0  0  0  0  0
  185.5550  178.2970  143.6360 C   0  0  1  0  0  3  0  0  0  0  0  0
  188.3100  178.2230  138.6040 C   0  0  0  0  0  3  0  0  0  0  0  0
  185.9110  178.2260  138.2160 C   0  0  0  0  0  3  0  0  0  0  0  0
  185.2850  178.6770  146.1890 C   0  0  0  0  0  3  0  0  0  0  0  0
  183.6970  179.0690  142.2040 C   0  0  0  0  0  0  0  0  0  0  0  0
  183.5300  179.2760  144.5740 C   0  0  0  0  0  3  0  0  0  0  0  0
  187.4000  177.0260  142.8070 O   0  0  0  0  0  1  0  0  0  0  0  0
  184.5290  178.9250  140.0750 C   0  0  1  0  0  3  0  0  0  0  0  0
  183.1940  179.0780  140.7990 C   0  0  1  0  0  3  0  0  0  0  0  0
  187.0890  178.3690  139.1210 C   0  0  0  0  0  0  0  0  0  0  0  0
  185.4950  178.2130  141.0070 C   0  0  2  0  0  3  0  0  0  0  0  0
  182.9850  179.3810  143.2450 N   0  0  0  0  0  0  0  0  0  0  0  0
  180.4540  175.8300  140.0900 C   0  0  0  0  0  3  0  0  0  0  0  0
  181.7530  175.7560  139.5800 C   0  0  0  0  0  0  0  0  0  0  0  0
  182.2570  177.9290  140.5410 C   0  0  0  0  0  0  0  0  0  0  0  0
  180.0550  176.9510  140.8240 C   0  0  0  0  0  3  0  0  0  0  0  0
  182.6520  176.8010  139.8040 C   0  0  0  0  0  3  0  0  0  0  0  0
  180.9540  177.9970  141.0480 C   0  0  0  0  0  3  0  0  0  0  0  0
  182.1400  174.6690  138.8690 F   0  0  0  0  0  0  0  0  0  0  0  0
  189.5700  178.3560  139.4030 C   0  0  0  0  0  2  0  0  0  0  0  0
  191.4830  177.0680  141.7190 O   0  0  0  0  0  0  0  0  0  0  0  0
  190.1400  176.9890  139.7750 C   0  0  2  0  0  3  0  0  0  0  0  0
  191.4500  177.1270  140.5020 C   0  0  0  0  0  0  0  0  0  0  0  0
  192.7910  176.4810  138.5180 C   0  0  0  0  0  2  0  0  0  0  0  0
  191.5150  176.5680  137.6850 C   0  0  0  0  0  2  0  0  0  0  0  0
  190.3120  176.1250  138.5220 C   0  0  0  0  0  2  0  0  0  0  0  0
  192.7050  177.4070  139.7290 C   0  0  0  0  0  2  0  0  0  0  0  0
  1 11  1  0  0  0  0
  2  6  2  0  0  0  0
  3  8  1  0  0  0  0
  6  5  1  0  0  0  0
  8  2  1  6  0  0  0
  8  1  1  0  0  0  0
  9 17  2  0  0  0  0
  9 27  1  0  0  0  0
 10  4  2  0  0  0  0
 10 17  1  0  0  0  0
 11  5  2  0  0  0  0
 12  3  1  0  0  0  0
 12 19  2  0  0  0  0
 13  1  2  0  0  0  0
 14  2  1  0  0  0  0
 15  4  1  6  0  0  0
 15 16  1  0  0  0  0
 15 18  1  0  0  0  0
 16 22  1  1  0  0  0
 16 12  1  0  0  0  0
 17  7  1  0  0  0  0
 18  7  1  6  0  0  0
 18  3  1  0  0  0  0
 19 13  1  0  0  0  0
 20 23  1  0  0  0  0
 21 24  1  0  0  0  0
 21 20  2  0  0  0  0
 22 25  1  0  0  0  0
 23 25  2  0  0  0  0
 24 22  2  0  0  0  0
 26 21  1  0  0  0  0
 29 27  1  6  0  0  0
 29 30  1  0  0  0  0
 30 28  2  0  0  0  0
 31 34  1  0  0  0  0
 32 31  1  0  0  0  0
 32 33  1  0  0  0  0
 33 29  1  0  0  0  0
 34 30  1  0  0  0  0
M  END
>  <MODEL>
2

>  <REMARK>
 VINA RESULT:      -9.0      2.468      6.696
  Name = 
  3 active torsions:
  status: ('A' for Active; 'I' for Inactive)
    1  A    between atoms: C_3  and  C_13
    2  A    between atoms: C_3  and  C_17
    3  A    between atoms: C_12  and  C_28
                            x       y       z     vdW  Elec       q    Type
                         _______ _______ _______ _____ _____    ______ ____

>  <TORSDO>
F 3

$$$$
=
 OpenBabel10262423573D

 34 39  0  0  1  0  0  0  0  0999 V2000
  186.1170  177.5430  137.1370 C   0  0  0  0  0  0  0  0  0  0  0  0
  187.2730  178.4090  139.1090 C   0  0  0  0  0  0  0  0  0  0  0  0
  184.8490  177.9860  139.2280 N   0  0  0  0  0  0  0  0  0  0  0  0
  182.3480  178.7990  141.8120 C   0  0  0  0  0  3  0  0  0  0  0  0
  188.5880  177.9010  137.0920 C   0  0  0  0  0  3  0  0  0  0  0  0
  188.5260  178.3950  138.3320 C   0  0  0  0  0  3  0  0  0  0  0  0
  185.1140  177.7690  141.7310 C   0  0  0  0  0  2  0  0  0  0  0  0
  186.1230  177.9800  138.5540 C   0  0  0  0  0  0  0  0  0  0  0  0
  185.0580  178.2050  144.1870 C   0  0  0  0  0  3  0  0  0  0  0  0
  183.0490  178.8030  142.9570 C   0  0  0  0  0  3  0  0  0  0  0  0
  187.4000  177.2810  136.4060 C   0  0  0  0  0  2  0  0  0  0  0  0
  183.6570  177.8770  138.4520 C   0  0  0  0  0  0  0  0  0  0  0  0
  184.9450  177.3500  136.5150 C   0  0  0  0  0  3  0  0  0  0  0  0
  187.3150  178.9140  140.4010 O   0  0  0  0  0  1  0  0  0  0  0  0
  182.9910  178.1560  140.6260 C   0  0  1  0  0  3  0  0  0  0  0  0
  182.4140  178.1980  139.2140 C   0  0  1  0  0  3  0  0  0  0  0  0
  184.4390  178.2600  143.0070 C   0  0  0  0  0  0  0  0  0  0  0  0
  184.4740  178.4790  140.5420 C   0  0  2  0  0  3  0  0  0  0  0  0
  183.6920  177.5770  137.1880 N   0  0  0  0  0  0  0  0  0  0  0  0
  180.8060  182.0530  138.1600 C   0  0  0  0  0  3  0  0  0  0  0  0
  182.1650  181.9370  138.4630 C   0  0  0  0  0  0  0  0  0  0  0  0
  181.8770  179.5550  138.8440 C   0  0  0  0  0  0  0  0  0  0  0  0
  179.9820  180.9260  138.1990 C   0  0  0  0  0  3  0  0  0  0  0  0
  182.7000  180.6930  138.8040 C   0  0  0  0  0  3  0  0  0  0  0  0
  180.5170  179.6800  138.5420 C   0  0  0  0  0  3  0  0  0  0  0  0
  182.9640  183.0310  138.4240 F   0  0  0  0  0  0  0  0  0  0  0  0
  186.4450  177.6700  144.3710 C   0  0  0  0  0  2  0  0  0  0  0  0
  189.6020  178.4280  144.7490 O   0  0  0  0  0  0  0  0  0  0  0  0
  187.2930  178.6060  145.2280 C   0  0  2  0  0  3  0  0  0  0  0  0
  188.6740  178.0460  145.4410 C   0  0  0  0  0  0  0  0  0  0  0  0
  188.1880  177.3280  147.7640 C   0  0  0  0  0  2  0  0  0  0  0  0
  186.7190  177.6570  147.5100 C   0  0  0  0  0  2  0  0  0  0  0  0
  186.6080  178.8630  146.5740 C   0  0  0  0  0  2  0  0  0  0  0  0
  188.8900  176.9650  146.4580 C   0  0  0  0  0  2  0  0  0  0  0  0
  1  8  1  0  0  0  0
  2 14  1  0  0  0  0
  3 18  1  0  0  0  0
  4 10  2  0  0  0  0
  5  6  2  0  0  0  0
  6  2  1  0  0  0  0
  7 17  1  0  0  0  0
  8  2  2  0  0  0  0
  8  3  1  0  0  0  0
  9 27  1  0  0  0  0
 10 17  1  0  0  0  0
 11  5  1  0  0  0  0
 11  1  1  0  0  0  0
 12 16  1  0  0  0  0
 12  3  1  0  0  0  0
 13  1  2  0  0  0  0
 13 19  1  0  0  0  0
 15  4  1  1  0  0  0
 16 22  1  6  0  0  0
 16 15  1  0  0  0  0
 17  9  2  0  0  0  0
 18 15  1  0  0  0  0
 18  7  1  1  0  0  0
 19 12  2  0  0  0  0
 20 23  2  0  0  0  0
 20 21  1  0  0  0  0
 21 24  2  0  0  0  0
 23 25  1  0  0  0  0
 24 22  1  0  0  0  0
 25 22  2  0  0  0  0
 26 21  1  0  0  0  0
 28 30  2  0  0  0  0
 29 27  1  6  0  0  0
 29 30  1  0  0  0  0
 29 33  1  0  0  0  0
 30 34  1  0  0  0  0
 32 31  1  0  0  0  0
 33 32  1  0  0  0  0
 34 31  1  0  0  0  0
M  END
>  <MODEL>
3

>  <REMARK>
 VINA RESULT:      -8.5      2.768      6.048
  Name = 
  3 active torsions:
  status: ('A' for Active; 'I' for Inactive)
    1  A    between atoms: C_3  and  C_13
    2  A    between atoms: C_3  and  C_17
    3  A    between atoms: C_12  and  C_28
                            x       y       z     vdW  Elec       q    Type
                         _______ _______ _______ _____ _____    ______ ____

>  <TORSDO>
F 3

$$$$
=
 OpenBabel10262423573D

 34 39  0  0  1  0  0  0  0  0999 V2000
  184.9600  178.8960  141.6660 C   0  0  0  0  0  0  0  0  0  0  0  0
  186.3300  177.7340  143.3240 C   0  0  0  0  0  0  0  0  0  0  0  0
  187.3030  178.2700  141.1250 N   0  0  0  0  0  0  0  0  0  0  0  0
  190.4900  177.2830  139.5560 C   0  0  0  0  0  3  0  0  0  0  0  0
  184.0460  178.4140  143.9400 C   0  0  0  0  0  3  0  0  0  0  0  0
  185.1800  177.7750  144.2460 C   0  0  0  0  0  3  0  0  0  0  0  0
  189.5770  178.1630  142.2220 C   0  0  0  0  0  2  0  0  0  0  0  0
  186.2420  178.2890  142.1000 C   0  0  1  0  0  3  0  0  0  0  0  0
  191.8520  177.4340  142.9400 C   0  0  0  0  0  3  0  0  0  0  0  0
  191.3230  177.1000  140.5920 C   0  0  0  0  0  3  0  0  0  0  0  0
  183.8670  179.1760  142.6550 C   0  0  0  0  0  3  0  0  0  0  0  0
  186.9920  178.5360  139.7590 C   0  0  0  0  0  0  0  0  0  0  0  0
  184.7940  179.2270  140.3780 C   0  0  0  0  0  3  0  0  0  0  0  0
  187.4760  177.0740  143.7440 O   0  0  0  0  0  1  0  0  0  0  0  0
  189.2240  178.0300  139.8270 C   0  0  1  0  0  3  0  0  0  0  0  0
  188.0940  178.1920  138.8140 C   0  0  1  0  0  3  0  0  0  0  0  0
  190.9520  177.5570  141.9640 C   0  0  0  0  0  0  0  0  0  0  0  0
  188.6130  177.6400  141.1620 C   0  0  2  0  0  3  0  0  0  0  0  0
  185.8260  178.9870  139.4020 N   0  0  0  0  0  0  0  0  0  0  0  0
  187.1810  174.5850  136.6430 C   0  0  0  0  0  3  0  0  0  0  0  0
  188.4670  174.7690  137.1570 C   0  0  0  0  0  0  0  0  0  0  0  0
  187.7980  176.9210  138.0630 C   0  0  0  0  0  0  0  0  0  0  0  0
  186.2040  175.5650  136.8360 C   0  0  0  0  0  3  0  0  0  0  0  0
  188.7760  175.9330  137.8650 C   0  0  0  0  0  3  0  0  0  0  0  0
  186.5130  176.7310  137.5440 C   0  0  0  0  0  3  0  0  0  0  0  0
  189.4140  173.8180  136.9700 F   0  0  0  0  0  0  0  0  0  0  0  0
  191.6070  177.8670  144.3530 C   0  0  0  0  0  2  0  0  0  0  0  0
  189.2720  178.0360  146.6340 O   0  0  0  0  0  0  0  0  0  0  0  0
  190.6470  176.9190  145.0670 C   0  0  2  0  0  3  0  0  0  0  0  0
  190.3090  177.4240  146.4440 C   0  0  0  0  0  0  0  0  0  0  0  0
  191.8060  175.7980  147.5700 C   0  0  0  0  0  2  0  0  0  0  0  0
  192.3570  175.4240  146.1970 C   0  0  0  0  0  2  0  0  0  0  0  0
  191.2470  175.5120  145.1460 C   0  0  0  0  0  2  0  0  0  0  0  0
  191.2860  177.2340  147.5670 C   0  0  0  0  0  2  0  0  0  0  0  0
  1 11  1  0  0  0  0
  2 14  1  0  0  0  0
  2  6  2  0  0  0  0
  3 18  1  0  0  0  0
  3  8  1  0  0  0  0
  4 10  2  0  0  0  0
  5  6  1  0  0  0  0
  8  1  1  6  0  0  0
  8  2  1  0  0  0  0
  9 27  1  0  0  0  0
 10 17  1  0  0  0  0
 11  5  2  0  0  0  0
 12  3  1  0  0  0  0
 13  1  2  0  0  0  0
 15  4  1  6  0  0  0
 15 18  1  0  0  0  0
 16 22  1  1  0  0  0
 16 12  1  0  0  0  0
 16 15  1  0  0  0  0
 17  7  1  0  0  0  0
 17  9  2  0  0  0  0
 18  7  1  1  0  0  0
 19 12  2  0  0  0  0
 19 13  1  0  0  0  0
 20 23  2  0  0  0  0
 20 21  1  0  0  0  0
 21 24  2  0  0  0  0
 23 25  1  0  0  0  0
 24 22  1  0  0  0  0
 25 22  2  0  0  0  0
 26 21  1  0  0  0  0
 29 27  1  1  0  0  0
 29 33  1  0  0  0  0
 29 30  1  0  0  0  0
 30 28  2  0  0  0  0
 30 34  1  0  0  0  0
 32 31  1  0  0  0  0
 33 32  1  0  0  0  0
 34 31  1  0  0  0  0
M  END
>  <MODEL>
4

>  <REMARK>
 VINA RESULT:      -8.4      1.623      2.392
  Name = 
  3 active torsions:
  status: ('A' for Active; 'I' for Inactive)
    1  A    between atoms: C_3  and  C_13
    2  A    between atoms: C_3  and  C_17
    3  A    between atoms: C_12  and  C_28
                            x       y       z     vdW  Elec       q    Type
                         _______ _______ _______ _____ _____    ______ ____

>  <TORSDO>
F 3

$$$$
=
 OpenBabel10262423573D

 34 39  0  0  1  0  0  0  0  0999 V2000
  184.8260  178.9780  140.0570 C   0  0  0  0  0  0  0  0  0  0  0  0
  186.2420  177.9780  141.7800 C   0  0  0  0  0  0  0  0  0  0  0  0
  187.1310  178.2360  139.4970 N   0  0  0  0  0  0  0  0  0  0  0  0
  190.2260  176.9970  137.9230 C   0  0  0  0  0  3  0  0  0  0  0  0
  184.0020  178.7800  142.4050 C   0  0  0  0  0  3  0  0  0  0  0  0
  185.1340  178.1530  142.7370 C   0  0  0  0  0  3  0  0  0  0  0  0
  189.4470  178.1980  140.5060 C   0  0  0  0  0  2  0  0  0  0  0  0
  186.1130  178.3930  140.5050 C   0  0  1  0  0  3  0  0  0  0  0  0
  191.7360  177.4980  141.2100 C   0  0  0  0  0  3  0  0  0  0  0  0
  191.0990  176.9130  138.9400 C   0  0  0  0  0  3  0  0  0  0  0  0
  183.7820  179.3960  141.0500 C   0  0  0  0  0  3  0  0  0  0  0  0
  186.7660  178.3530  138.1230 C   0  0  0  0  0  0  0  0  0  0  0  0
  184.6110  179.1640  138.7470 C   0  0  0  0  0  3  0  0  0  0  0  0
  187.3920  177.3410  142.2270 O   0  0  0  0  0  1  0  0  0  0  0  0
  188.9890  177.8020  138.1580 C   0  0  1  0  0  3  0  0  0  0  0  0
  187.8200  177.8770  137.1800 C   0  0  1  0  0  3  0  0  0  0  0  0
  190.7970  177.5320  140.2640 C   0  0  0  0  0  0  0  0  0  0  0  0
  188.4270  177.5820  139.5530 C   0  0  2  0  0  3  0  0  0  0  0  0
  185.5960  178.7900  137.7640 N   0  0  0  0  0  0  0  0  0  0  0  0
  186.8390  174.0640  135.4300 C   0  0  0  0  0  3  0  0  0  0  0  0
  186.6870  174.2460  136.8070 C   0  0  0  0  0  0  0  0  0  0  0  0
  187.4670  176.5360  136.5920 C   0  0  0  0  0  0  0  0  0  0  0  0
  187.3050  175.1140  134.6340 C   0  0  0  0  0  3  0  0  0  0  0  0
  186.9990  175.4770  137.3880 C   0  0  0  0  0  3  0  0  0  0  0  0
  187.6180  176.3460  135.2140 C   0  0  0  0  0  3  0  0  0  0  0  0
  186.2350  173.2280  137.5790 F   0  0  0  0  0  0  0  0  0  0  0  0
  191.5600  178.0940  142.5730 C   0  0  0  0  0  2  0  0  0  0  0  0
  190.4820  175.0340  142.9710 O   0  0  0  0  0  0  0  0  0  0  0  0
  191.5690  177.0190  143.6570 C   0  0  2  0  0  3  0  0  0  0  0  0
  190.3750  176.1110  143.5320 C   0  0  0  0  0  0  0  0  0  0  0  0
  189.1820  177.1710  145.4300 C   0  0  0  0  0  2  0  0  0  0  0  0
  190.2510  178.2600  145.4350 C   0  0  0  0  0  2  0  0  0  0  0  0
  191.6070  177.6640  145.0460 C   0  0  0  0  0  2  0  0  0  0  0  0
  189.0380  176.5670  144.0350 C   0  0  0  0  0  2  0  0  0  0  0  0
  1 11  1  0  0  0  0
  2 14  1  0  0  0  0
  2  6  2  0  0  0  0
  3 18  1  0  0  0  0
  3  8  1  0  0  0  0
  4 10  2  0  0  0  0
  5  6  1  0  0  0  0
  8  1  1  6  0  0  0
  8  2  1  0  0  0  0
  9 27  1  0  0  0  0
 10 17  1  0  0  0  0
 11  5  2  0  0  0  0
 12  3  1  0  0  0  0
 13  1  2  0  0  0  0
 15  4  1  6  0  0  0
 15 18  1  0  0  0  0
 16 22  1  1  0  0  0
 16 12  1  0  0  0  0
 16 15  1  0  0  0  0
 17  7  1  0  0  0  0
 17  9  2  0  0  0  0
 18  7  1  1  0  0  0
 19 12  2  0  0  0  0
 19 13  1  0  0  0  0
 20 21  1  0  0  0  0
 21 24  2  0  0  0  0
 21 26  1  0  0  0  0
 22 24  1  0  0  0  0
 23 25  1  0  0  0  0
 23 20  2  0  0  0  0
 25 22  2  0  0  0  0
 28 30  2  0  0  0  0
 29 27  1  6  0  0  0
 29 33  1  0  0  0  0
 30 29  1  0  0  0  0
 30 34  1  0  0  0  0
 31 32  1  0  0  0  0
 33 32  1  0  0  0  0
 34 31  1  0  0  0  0
M  END
>  <MODEL>
5

>  <REMARK>
 VINA RESULT:      -8.1      1.683      2.576
  Name = 
  3 active torsions:
  status: ('A' for Active; 'I' for Inactive)
    1  A    between atoms: C_3  and  C_13
    2  A    between atoms: C_3  and  C_17
    3  A    between atoms: C_12  and  C_28
                            x       y       z     vdW  Elec       q    Type
                         _______ _______ _______ _____ _____    ______ ____

>  <TORSDO>
F 3

$$$$
=
 OpenBabel10262423573D

 34 39  0  0  1  0  0  0  0  0999 V2000
  186.7490  177.5790  135.0830 C   0  0  0  0  0  0  0  0  0  0  0  0
  185.6730  177.0960  137.2240 C   0  0  0  0  0  0  0  0  0  0  0  0
  188.1020  177.5030  137.1660 N   0  0  0  0  0  0  0  0  0  0  0  0
  190.7060  177.1350  139.7500 C   0  0  0  0  0  3  0  0  0  0  0  0
  184.2770  177.2510  135.2040 C   0  0  0  0  0  3  0  0  0  0  0  0
  184.3880  176.9860  136.5090 C   0  0  0  0  0  3  0  0  0  0  0  0
  187.9440  178.1680  139.5980 C   0  0  0  0  0  2  0  0  0  0  0  0
  186.8010  177.4040  136.5540 C   0  0  0  0  0  0  0  0  0  0  0  0
  188.1020  178.1800  142.0880 C   0  0  0  0  0  3  0  0  0  0  0  0
  190.0530  177.3450  140.9050 C   0  0  0  0  0  3  0  0  0  0  0  0
  185.4370  177.7220  134.3700 C   0  0  0  0  0  2  0  0  0  0  0  0
  189.2610  177.4550  136.3350 C   0  0  0  0  0  0  0  0  0  0  0  0
  187.8950  177.6420  134.3890 C   0  0  0  0  0  3  0  0  0  0  0  0
  185.6830  176.8320  138.5860 O   0  0  0  0  0  1  0  0  0  0  0  0
  190.0160  177.5630  138.4950 C   0  0  1  0  0  3  0  0  0  0  0  0
  190.5330  177.2600  137.0910 C   0  0  1  0  0  3  0  0  0  0  0  0
  188.6700  177.9060  140.9130 C   0  0  0  0  0  0  0  0  0  0  0  0
  188.5300  177.2490  138.5310 C   0  0  2  0  0  3  0  0  0  0  0  0
  189.1740  177.5240  135.0400 N   0  0  0  0  0  0  0  0  0  0  0  0
  191.9390  173.2120  136.6540 C   0  0  0  0  0  3  0  0  0  0  0  0
  192.8220  174.2010  137.0930 C   0  0  0  0  0  0  0  0  0  0  0  0
  191.0470  175.8520  136.9510 C   0  0  0  0  0  0  0  0  0  0  0  0
  190.6120  173.5390  136.3630 C   0  0  0  0  0  3  0  0  0  0  0  0
  192.3800  175.5180  137.2410 C   0  0  0  0  0  3  0  0  0  0  0  0
  190.1680  174.8570  136.5100 C   0  0  0  0  0  3  0  0  0  0  0  0
  194.1090  173.8830  137.3750 F   0  0  0  0  0  0  0  0  0  0  0  0
  186.7270  178.7570  142.2290 C   0  0  0  0  0  2  0  0  0  0  0  0
  183.5130  178.3550  142.6710 O   0  0  0  0  0  0  0  0  0  0  0  0
  185.7930  177.7970  142.9620 C   0  0  2  0  0  3  0  0  0  0  0  0
  184.5120  178.4810  143.3580 C   0  0  0  0  0  0  0  0  0  0  0  0
  185.1860  178.6950  145.7350 C   0  0  0  0  0  2  0  0  0  0  0  0
  186.5840  178.2320  145.3330 C   0  0  0  0  0  2  0  0  0  0  0  0
  186.4900  177.2130  144.1950 C   0  0  0  0  0  2  0  0  0  0  0  0
  184.4880  179.3770  144.5610 C   0  0  0  0  0  2  0  0  0  0  0  0
  1  8  1  0  0  0  0
  2 14  1  0  0  0  0
  3 18  1  0  0  0  0
  4 10  2  0  0  0  0
  5  6  2  0  0  0  0
  6  2  1  0  0  0  0
  7 17  1  0  0  0  0
  8  3  1  0  0  0  0
  8  2  2  0  0  0  0
  9 27  1  0  0  0  0
 10 17  1  0  0  0  0
 11  1  1  0  0  0  0
 11  5  1  0  0  0  0
 12 16  1  0  0  0  0
 12  3  1  0  0  0  0
 13 19  1  0  0  0  0
 13  1  2  0  0  0  0
 15 18  1  0  0  0  0
 15  4  1  1  0  0  0
 16 22  1  1  0  0  0
 16 15  1  0  0  0  0
 17  9  2  0  0  0  0
 18  7  1  1  0  0  0
 19 12  2  0  0  0  0
 20 21  1  0  0  0  0
 21 24  2  0  0  0  0
 21 26  1  0  0  0  0
 22 24  1  0  0  0  0
 23 25  1  0  0  0  0
 23 20  2  0  0  0  0
 25 22  2  0  0  0  0
 28 30  2  0  0  0  0
 29 27  1  1  0  0  0
 29 30  1  0  0  0  0
 29 33  1  0  0  0  0
 30 34  1  0  0  0  0
 32 31  1  0  0  0  0
 33 32  1  0  0  0  0
 34 31  1  0  0  0  0
M  END
>  <MODEL>
6

>  <REMARK>
 VINA RESULT:      -8.1      2.678      4.090
  Name = 
  3 active torsions:
  status: ('A' for Active; 'I' for Inactive)
    1  A    between atoms: C_3  and  C_13
    2  A    between atoms: C_3  and  C_17
    3  A    between atoms: C_12  and  C_28
                            x       y       z     vdW  Elec       q    Type
                         _______ _______ _______ _____ _____    ______ ____

>  <TORSDO>
F 3

$$$$
=
 OpenBabel10262423573D

 34 39  0  0  1  0  0  0  0  0999 V2000
  184.3160  178.9480  144.2700 C   0  0  0  0  0  0  0  0  0  0  0  0
  186.2910  177.5230  144.4840 C   0  0  0  0  0  0  0  0  0  0  0  0
  185.7690  178.5320  142.2980 N   0  0  0  0  0  0  0  0  0  0  0  0
  187.2230  178.0040  138.9510 C   0  0  0  0  0  3  0  0  0  0  0  0
  184.9350  177.9780  146.4860 C   0  0  0  0  0  3  0  0  0  0  0  0
  185.9520  177.3330  145.9060 C   0  0  0  0  0  3  0  0  0  0  0  0
  188.2160  178.2870  141.7170 C   0  0  0  0  0  2  0  0  0  0  0  0
  185.5300  178.3130  143.7020 C   0  0  1  0  0  3  0  0  0  0  0  0
  190.3720  177.5110  140.7320 C   0  0  0  0  0  3  0  0  0  0  0  0
  188.4920  177.6440  139.1980 C   0  0  0  0  0  3  0  0  0  0  0  0
  184.0860  178.9800  145.7520 C   0  0  0  0  0  3  0  0  0  0  0  0
  184.7170  179.0600  141.4920 C   0  0  0  0  0  0  0  0  0  0  0  0
  183.4320  179.5280  143.4460 C   0  0  0  0  0  3  0  0  0  0  0  0
  187.3840  176.8330  143.9780 O   0  0  0  0  0  1  0  0  0  0  0  0
  186.4660  178.6330  140.0750 C   0  0  1  0  0  3  0  0  0  0  0  0
  184.9750  178.9570  140.0250 C   0  0  1  0  0  3  0  0  0  0  0  0
  189.0810  177.7970  140.5610 C   0  0  0  0  0  0  0  0  0  0  0  0
  186.7600  177.9560  141.4030 C   0  0  2  0  0  3  0  0  0  0  0  0
  183.6270  179.5310  142.0190 N   0  0  0  0  0  0  0  0  0  0  0  0
  182.6860  175.8140  138.1700 C   0  0  0  0  0  3  0  0  0  0  0  0
  182.5050  176.0840  139.5290 C   0  0  0  0  0  0  0  0  0  0  0  0
  184.1610  177.8570  139.3990 C   0  0  0  0  0  0  0  0  0  0  0  0
  183.6020  176.5620  137.4250 C   0  0  0  0  0  3  0  0  0  0  0  0
  183.2390  177.1020  140.1430 C   0  0  0  0  0  3  0  0  0  0  0  0
  184.3380  177.5800  138.0390 C   0  0  0  0  0  3  0  0  0  0  0  0
  181.6160  175.3590  140.2500 F   0  0  0  0  0  0  0  0  0  0  0  0
  191.0830  177.6360  142.0450 C   0  0  0  0  0  2  0  0  0  0  0  0
  189.8120  178.6560  144.8780 O   0  0  0  0  0  0  0  0  0  0  0  0
  190.2480  177.0620  143.1870 C   0  0  2  0  0  3  0  0  0  0  0  0
  190.5450  177.7660  144.4840 C   0  0  0  0  0  0  0  0  0  0  0  0
  191.9300  175.9000  145.3520 C   0  0  0  0  0  2  0  0  0  0  0  0
  191.8590  175.2630  143.9670 C   0  0  0  0  0  2  0  0  0  0  0  0
  190.5000  175.5570  143.3260 C   0  0  0  0  0  2  0  0  0  0  0  0
  191.7850  177.4170  145.2530 C   0  0  0  0  0  2  0  0  0  0  0  0
  1 11  1  0  0  0  0
  2  6  2  0  0  0  0
  3  8  1  0  0  0  0
  4 10  2  0  0  0  0
  6  5  1  0  0  0  0
  8  1  1  6  0  0  0
  8  2  1  0  0  0  0
  9 27  1  0  0  0  0
 10 17  1  0  0  0  0
 11  5  2  0  0  0  0
 12 19  2  0  0  0  0
 12  3  1  0  0  0  0
 13  1  2  0  0  0  0
 14  2  1  0  0  0  0
 15  4  1  6  0  0  0
 15 18  1  0  0  0  0
 16 22  1  1  0  0  0
 16 15  1  0  0  0  0
 16 12  1  0  0  0  0
 17  9  2  0  0  0  0
 17  7  1  0  0  0  0
 18  7  1  1  0  0  0
 18  3  1  0  0  0  0
 19 13  1  0  0  0  0
 20 21  1  0  0  0  0
 21 24  2  0  0  0  0
 21 26  1  0  0  0  0
 22 24  1  0  0  0  0
 23 25  1  0  0  0  0
 23 20  2  0  0  0  0
 25 22  2  0  0  0  0
 29 27  1  6  0  0  0
 29 33  1  0  0  0  0
 29 30  1  0  0  0  0
 30 28  2  0  0  0  0
 30 34  1  0  0  0  0
 32 31  1  0  0  0  0
 33 32  1  0  0  0  0
 34 31  1  0  0  0  0
M  END
>  <MODEL>
7

>  <REMARK>
 VINA RESULT:      -7.8      2.487      4.529
  Name = 
  3 active torsions:
  status: ('A' for Active; 'I' for Inactive)
    1  A    between atoms: C_3  and  C_13
    2  A    between atoms: C_3  and  C_17
    3  A    between atoms: C_12  and  C_28
                            x       y       z     vdW  Elec       q    Type
                         _______ _______ _______ _____ _____    ______ ____

>  <TORSDO>
F 3

$$$$
=
 OpenBabel10262423573D

 34 39  0  0  1  0  0  0  0  0999 V2000
  188.1540  178.1380  140.9930 C   0  0  0  0  0  0  0  0  0  0  0  0
  190.0430  176.6180  140.6860 C   0  0  0  0  0  0  0  0  0  0  0  0
  188.7570  177.3490  138.7160 N   0  0  0  0  0  0  0  0  0  0  0  0
  188.8460  176.2580  135.1950 C   0  0  0  0  0  3  0  0  0  0  0  0
  189.5420  177.4430  142.9490 C   0  0  0  0  0  3  0  0  0  0  0  0
  190.2570  176.6520  142.1440 C   0  0  0  0  0  3  0  0  0  0  0  0
  190.8060  176.8500  137.3230 C   0  0  0  0  0  2  0  0  0  0  0  0
  189.0570  177.3450  140.1250 C   0  0  1  0  0  3  0  0  0  0  0  0
  192.4250  175.7910  135.7490 C   0  0  0  0  0  3  0  0  0  0  0  0
  190.1110  175.8460  135.0110 C   0  0  0  0  0  3  0  0  0  0  0  0
  188.4940  178.3920  142.4320 C   0  0  0  0  0  3  0  0  0  0  0  0
  187.4890  177.8350  138.2810 C   0  0  0  0  0  0  0  0  0  0  0  0
  187.0350  178.6610  140.4720 C   0  0  0  0  0  3  0  0  0  0  0  0
  190.8570  175.7870  139.9280 O   0  0  0  0  0  1  0  0  0  0  0  0
  188.5740  177.0900  136.4060 C   0  0  1  0  0  3  0  0  0  0  0  0
  187.1780  177.5110  136.8570 C   0  0  1  0  0  3  0  0  0  0  0  0
  191.1690  176.1440  136.0210 C   0  0  0  0  0  0  0  0  0  0  0  0
  189.3330  176.5850  137.6210 C   0  0  2  0  0  3  0  0  0  0  0  0
  186.6820  178.4520  139.0910 N   0  0  0  0  0  0  0  0  0  0  0  0
  184.2590  174.3620  136.5090 C   0  0  0  0  0  3  0  0  0  0  0  0
  185.4370  174.1290  137.2230 C   0  0  0  0  0  0  0  0  0  0  0  0
  186.1720  176.3960  136.7530 C   0  0  0  0  0  0  0  0  0  0  0  0
  184.0360  175.6070  135.9160 C   0  0  0  0  0  3  0  0  0  0  0  0
  186.3920  175.1420  137.3460 C   0  0  0  0  0  3  0  0  0  0  0  0
  184.9910  176.6210  136.0380 C   0  0  0  0  0  3  0  0  0  0  0  0
  185.6530  172.9210  137.7980 F   0  0  0  0  0  0  0  0  0  0  0  0
  193.5770  176.0460  136.6720 C   0  0  0  0  0  2  0  0  0  0  0  0
  195.3580  175.3920  139.3340 O   0  0  0  0  0  0  0  0  0  0  0  0
  193.7680  174.8940  137.6550 C   0  0  2  0  0  3  0  0  0  0  0  0
  195.1570  174.9010  138.2360 C   0  0  0  0  0  0  0  0  0  0  0  0
  195.9260  173.0240  136.8090 C   0  0  0  0  0  2  0  0  0  0  0  0
  194.6210  173.1440  136.0270 C   0  0  0  0  0  2  0  0  0  0  0  0
  193.4840  173.5550  136.9670 C   0  0  0  0  0  2  0  0  0  0  0  0
  196.3040  174.3660  137.4310 C   0  0  0  0  0  2  0  0  0  0  0  0
  1 11  1  0  0  0  0
  2  6  2  0  0  0  0
  3  8  1  0  0  0  0
  6  5  1  0  0  0  0
  8  2  1  1  0  0  0
  8  1  1  0  0  0  0
  9 17  2  0  0  0  0
  9 27  1  0  0  0  0
 10  4  2  0  0  0  0
 10 17  1  0  0  0  0
 11  5  2  0  0  0  0
 12  3  1  0  0  0  0
 12 19  2  0  0  0  0
 13  1  2  0  0  0  0
 14  2  1  0  0  0  0
 15  4  1  6  0  0  0
 15 16  1  0  0  0  0
 15 18  1  0  0  0  0
 16 22  1  1  0  0  0
 16 12  1  0  0  0  0
 17  7  1  0  0  0  0
 18  7  1  6  0  0  0
 18  3  1  0  0  0  0
 19 13  1  0  0  0  0
 20 21  1  0  0  0  0
 21 24  2  0  0  0  0
 21 26  1  0  0  0  0
 22 24  1  0  0  0  0
 23 25  1  0  0  0  0
 23 20  2  0  0  0  0
 25 22  2  0  0  0  0
 29 27  1  6  0  0  0
 29 30  1  0  0  0  0
 30 28  2  0  0  0  0
 31 34  1  0  0  0  0
 32 31  1  0  0  0  0
 32 33  1  0  0  0  0
 33 29  1  0  0  0  0
 34 30  1  0  0  0  0
M  END
>  <MODEL>
8

>  <REMARK>
 VINA RESULT:      -7.6      3.427      7.337
  Name = 
  3 active torsions:
  status: ('A' for Active; 'I' for Inactive)
    1  A    between atoms: C_3  and  C_13
    2  A    between atoms: C_3  and  C_17
    3  A    between atoms: C_12  and  C_28
                            x       y       z     vdW  Elec       q    Type
                         _______ _______ _______ _____ _____    ______ ____

>  <TORSDO>
F 3

$$$$
=
 OpenBabel10262423573D

 34 39  0  0  1  0  0  0  0  0999 V2000
  192.6640  174.7980  137.2930 C   0  0  0  0  0  0  0  0  0  0  0  0
  190.4290  173.9990  136.7100 C   0  0  0  0  0  0  0  0  0  0  0  0
  190.6610  176.1010  137.9730 N   0  0  0  0  0  0  0  0  0  0  0  0
  188.1610  178.2550  139.6180 C   0  0  0  0  0  3  0  0  0  0  0  0
  192.3840  172.7210  135.9360 C   0  0  0  0  0  3  0  0  0  0  0  0
  191.0570  172.8390  136.0520 C   0  0  0  0  0  3  0  0  0  0  0  0
  188.3940  176.7680  137.0780 C   0  0  0  0  0  2  0  0  0  0  0  0
  191.1890  174.9520  137.2830 C   0  0  0  0  0  0  0  0  0  0  0  0
  185.9600  177.2750  136.8750 C   0  0  0  0  0  3  0  0  0  0  0  0
  187.0420  178.0640  138.9020 C   0  0  0  0  0  3  0  0  0  0  0  0
  193.3380  173.7760  136.4260 C   0  0  0  0  0  2  0  0  0  0  0  0
  191.5140  176.8310  138.8540 C   0  0  0  0  0  0  0  0  0  0  0  0
  193.4030  175.6070  138.0650 C   0  0  0  0  0  3  0  0  0  0  0  0
  189.0420  174.0490  136.7540 O   0  0  0  0  0  1  0  0  0  0  0  0
  189.4460  177.8040  139.0010 C   0  0  1  0  0  3  0  0  0  0  0  0
  190.7870  177.7960  139.7290 C   0  0  1  0  0  3  0  0  0  0  0  0
  187.0840  177.3590  137.5870 C   0  0  0  0  0  0  0  0  0  0  0  0
  189.2910  176.4770  138.2780 C   0  0  2  0  0  3  0  0  0  0  0  0
  192.7940  176.6100  138.9000 N   0  0  0  0  0  0  0  0  0  0  0  0
  190.5430  176.3730  143.7880 C   0  0  0  0  0  3  0  0  0  0  0  0
  189.4740  176.1490  142.9180 C   0  0  0  0  0  0  0  0  0  0  0  0
  190.6790  177.2850  141.1420 C   0  0  0  0  0  0  0  0  0  0  0  0
  191.6790  177.0520  143.3400 C   0  0  0  0  0  3  0  0  0  0  0  0
  189.5400  176.6030  141.5980 C   0  0  0  0  0  3  0  0  0  0  0  0
  191.7450  177.5080  142.0200 C   0  0  0  0  0  3  0  0  0  0  0  0
  188.3720  175.4900  143.3530 F   0  0  0  0  0  0  0  0  0  0  0  0
  185.8750  176.6070  135.5370 C   0  0  0  0  0  2  0  0  0  0  0  0
  183.7730  175.2320  137.6290 O   0  0  0  0  0  0  0  0  0  0  0  0
  184.7620  175.5620  135.5060 C   0  0  2  0  0  3  0  0  0  0  0  0
  184.6280  174.8730  136.8370 C   0  0  0  0  0  0  0  0  0  0  0  0
  185.7680  172.8140  136.0550 C   0  0  0  0  0  2  0  0  0  0  0  0
  186.1410  173.5610  134.7770 C   0  0  0  0  0  2  0  0  0  0  0  0
  185.0240  174.5370  134.3980 C   0  0  0  0  0  2  0  0  0  0  0  0
  185.5950  173.7900  137.2160 C   0  0  0  0  0  2  0  0  0  0  0  0
  1 13  2  0  0  0  0
  2 14  1  0  0  0  0
  2  8  2  0  0  0  0
  3 18  1  0  0  0  0
  3 12  1  0  0  0  0
  5  6  2  0  0  0  0
  5 11  1  0  0  0  0
  6  2  1  0  0  0  0
  7 17  1  0  0  0  0
  8  1  1  0  0  0  0
  8  3  1  0  0  0  0
  9 17  2  0  0  0  0
 10  4  2  0  0  0  0
 11  1  1  0  0  0  0
 12 19  2  0  0  0  0
 12 16  1  0  0  0  0
 13 19  1  0  0  0  0
 15  4  1  1  0  0  0
 15 16  1  0  0  0  0
 16 22  1  1  0  0  0
 17 10  1  0  0  0  0
 18  7  1  6  0  0  0
 18 15  1  0  0  0  0
 21 26  1  0  0  0  0
 21 20  2  0  0  0  0
 22 24  2  0  0  0  0
 22 25  1  0  0  0  0
 23 20  1  0  0  0  0
 24 21  1  0  0  0  0
 25 23  2  0  0  0  0
 27  9  1  0  0  0  0
 29 27  1  1  0  0  0
 29 30  1  0  0  0  0
 30 34  1  0  0  0  0
 30 28  2  0  0  0  0
 31 34  1  0  0  0  0
 32 31  1  0  0  0  0
 33 32  1  0  0  0  0
 33 29  1  0  0  0  0
M  END
>  <MODEL>
9

>  <REMARK>
 VINA RESULT:      -7.4      3.662      8.453
  Name = 
  3 active torsions:
  status: ('A' for Active; 'I' for Inactive)
    1  A    between atoms: C_3  and  C_13
    2  A    between atoms: C_3  and  C_17
    3  A    between atoms: C_12  and  C_28
                            x       y       z     vdW  Elec       q    Type
                         _______ _______ _______ _____ _____    ______ ____

>  <TORSDO>
F 3

$$$$
