=
 OpenBabel10272400153D

 31 33  0  0  1  0  0  0  0  0999 V2000
  189.6500  176.9440  141.4770 N   0  0  0  0  0  0  0  0  0  0  0  0
  186.5620  177.5490  143.5590 C   0  0  2  0  0  3  0  0  0  0  0  0
  187.6070  177.8340  142.4910 C   0  0  0  0  0  0  0  0  0  0  0  0
  189.6480  178.0750  140.5570 C   0  0  0  0  0  2  0  0  0  0  0  0
  184.8890  177.9560  141.8120 N   0  0  0  0  0  0  0  0  0  0  0  0
  191.0390  176.6540  141.7810 C   0  0  0  0  0  1  0  0  0  0  0  0
  185.8230  178.7620  141.0220 C   0  0  0  0  0  2  0  0  0  0  0  0
  185.1700  178.1390  143.2460 C   0  0  2  0  0  3  0  0  0  0  0  0
  189.0350  177.3990  142.7210 C   0  0  0  0  0  2  0  0  0  0  0  0
  187.2450  178.3380  141.2830 C   0  0  0  0  0  0  0  0  0  0  0  0
  188.2150  178.3910  140.1280 C   0  0  0  0  0  2  0  0  0  0  0  0
  187.0230  177.7330  144.9820 C   0  0  0  0  0  0  0  0  0  0  0  0
  186.3120  178.1380  147.3290 N   0  0  0  0  0  0  0  0  0  0  0  0
  186.1030  177.9540  145.9270 C   0  0  0  0  0  2  0  0  0  0  0  0
  187.5060  178.1390  148.1110 C   0  0  0  0  0  3  0  0  0  0  0  0
  188.7410  177.9510  147.6660 C   0  0  0  0  0  3  0  0  0  0  0  0
  188.4730  177.6130  145.1840 C   0  0  0  0  0  3  0  0  0  0  0  0
  189.1920  177.7030  146.2970 C   0  0  0  0  0  3  0  0  0  0  0  0
  183.6830  179.8070  144.3690 C   0  0  0  0  0  1  0  0  0  0  0  0
  185.0250  179.6040  143.6950 C   0  0  0  0  0  2  0  0  0  0  0  0
  183.5320  178.3970  141.5140 C   0  0  0  0  0  2  0  0  0  0  0  0
  181.7130  177.2390  140.4780 O   0  0  0  0  0  1  0  0  0  0  0  0
  183.0140  177.7000  140.2670 C   0  0  1  0  0  3  0  0  0  0  0  0
  183.3100  178.1610  137.9850 O   0  0  0  0  0  0  0  0  0  0  0  0
  183.0880  178.6340  139.0870 C   0  0  0  0  0  0  0  0  0  0  0  0
  184.0850  180.7920  138.7960 O   0  0  0  0  0  1  0  0  0  0  0  0
  182.9240  180.1300  139.2030 C   0  0  1  0  0  3  0  0  0  0  0  0
  181.6910  180.6880  138.4790 C   0  0  0  0  0  0  0  0  0  0  0  0
  181.6460  180.2410  137.1710 F   0  0  0  0  0  0  0  0  0  0  0  0
  180.4170  180.2730  139.1950 C   0  0  0  0  0  1  0  0  0  0  0  0
  181.7560  182.0690  138.4750 F   0  0  0  0  0  0  0  0  0  0  0  0
  1  6  1  0  0  0  0
  1  9  1  0  0  0  0
  2 12  1  1  0  0  0
  3  9  1  0  0  0  0
  3  2  1  0  0  0  0
  4  1  1  0  0  0  0
  5  8  1  0  0  0  0
  7 10  1  0  0  0  0
  7  5  1  0  0  0  0
  8  2  1  0  0  0  0
  8 20  1  6  0  0  0
 10  3  2  0  0  0  0
 11  4  1  0  0  0  0
 11 10  1  0  0  0  0
 12 17  2  0  0  0  0
 12 14  1  0  0  0  0
 13 15  2  0  0  0  0
 14 13  1  0  0  0  0
 16 15  1  0  0  0  0
 17 18  1  0  0  0  0
 18 16  2  0  0  0  0
 20 19  1  0  0  0  0
 21  5  1  0  0  0  0
 23 22  1  1  0  0  0
 23 21  1  0  0  0  0
 24 25  2  0  0  0  0
 25 27  1  0  0  0  0
 25 23  1  0  0  0  0
 27 26  1  6  0  0  0
 28 30  1  0  0  0  0
 28 27  1  0  0  0  0
 29 28  1  0  0  0  0
 31 28  1  0  0  0  0
M  END
>  <MODEL>
1

>  <REMARK>
 VINA RESULT:      -8.0      0.000      0.000
  Name = 
  7 active torsions:
  status: ('A' for Active; 'I' for Inactive)
    1  A    between atoms: C_1  and  C_19
    2  A    between atoms: C_4  and  C_5
    3  A    between atoms: C_9  and  C_22
    4  A    between atoms: C_9  and  C_23
    5  A    between atoms: N_15  and  C_23
    6  A    between atoms: C_19  and  C_22
    7  A    between atoms: C_21  and  C_29
                            x       y       z     vdW  Elec       q    Type
                         _______ _______ _______ _____ _____    ______ ____

>  <TORSDO>
F 7

$$$$
=
 OpenBabel10272400153D

 31 33  0  0  1  0  0  0  0  0999 V2000
  189.5380  177.1030  140.8830 N   0  0  0  0  0  0  0  0  0  0  0  0
  186.7550  177.4970  143.4000 C   0  0  2  0  0  3  0  0  0  0  0  0
  187.6320  177.8700  142.2140 C   0  0  0  0  0  0  0  0  0  0  0  0
  189.3740  178.2750  140.0310 C   0  0  0  0  0  2  0  0  0  0  0  0
  184.8430  177.9220  141.9240 N   0  0  0  0  0  0  0  0  0  0  0  0
  190.9650  176.8510  140.9770 C   0  0  0  0  0  1  0  0  0  0  0  0
  185.6330  178.7980  141.0550 C   0  0  0  0  0  2  0  0  0  0  0  0
  185.3160  178.0490  143.3130 C   0  0  2  0  0  3  0  0  0  0  0  0
  189.0900  177.4770  142.2220 C   0  0  0  0  0  2  0  0  0  0  0  0
  187.0890  178.4160  141.0950 C   0  0  0  0  0  0  0  0  0  0  0  0
  187.8860  178.5580  139.8210 C   0  0  0  0  0  2  0  0  0  0  0  0
  187.4050  177.6310  144.7530 C   0  0  0  0  0  0  0  0  0  0  0  0
  189.5580  177.8380  145.9790 N   0  0  0  0  0  0  0  0  0  0  0  0
  188.7390  177.6950  144.8150 C   0  0  0  0  0  3  0  0  0  0  0  0
  189.2180  177.9550  147.3600 C   0  0  0  0  0  3  0  0  0  0  0  0
  187.9960  177.9600  147.8750 C   0  0  0  0  0  3  0  0  0  0  0  0
  186.4720  177.7130  145.8840 C   0  0  0  0  0  2  0  0  0  0  0  0
  186.7120  177.8490  147.1830 C   0  0  0  0  0  3  0  0  0  0  0  0
  183.9740  179.5960  144.7480 C   0  0  0  0  0  1  0  0  0  0  0  0
  185.1920  179.4850  143.8520 C   0  0  0  0  0  2  0  0  0  0  0  0
  183.4450  178.3260  141.8390 C   0  0  0  0  0  2  0  0  0  0  0  0
  182.5100  176.8970  140.1640 O   0  0  0  0  0  1  0  0  0  0  0  0
  182.9470  178.2010  140.4080 C   0  0  1  0  0  3  0  0  0  0  0  0
  180.9150  179.2540  140.9280 O   0  0  0  0  0  0  0  0  0  0  0  0
  181.8570  179.2080  140.1530 C   0  0  0  0  0  0  0  0  0  0  0  0
  183.1230  180.7140  138.7890 O   0  0  0  0  0  1  0  0  0  0  0  0
  181.8580  180.1510  138.9740 C   0  0  1  0  0  3  0  0  0  0  0  0
  181.3360  179.5320  137.6710 C   0  0  0  0  0  0  0  0  0  0  0  0
  180.3060  178.6450  137.9260 F   0  0  0  0  0  0  0  0  0  0  0  0
  180.8450  180.6130  136.7240 C   0  0  0  0  0  1  0  0  0  0  0  0
  182.3670  178.8490  137.0510 F   0  0  0  0  0  0  0  0  0  0  0  0
  1  6  1  0  0  0  0
  1  9  1  0  0  0  0
  2 12  1  1  0  0  0
  3  9  1  0  0  0  0
  3  2  1  0  0  0  0
  4  1  1  0  0  0  0
  5  8  1  0  0  0  0
  7 10  1  0  0  0  0
  7  5  1  0  0  0  0
  8  2  1  0  0  0  0
  8 20  1  6  0  0  0
 10  3  2  0  0  0  0
 11  4  1  0  0  0  0
 11 10  1  0  0  0  0
 12 14  2  0  0  0  0
 12 17  1  0  0  0  0
 13 15  2  0  0  0  0
 14 13  1  0  0  0  0
 15 16  1  0  0  0  0
 17 18  1  0  0  0  0
 18 16  2  0  0  0  0
 20 19  1  0  0  0  0
 21  5  1  0  0  0  0
 23 22  1  1  0  0  0
 23 21  1  0  0  0  0
 25 23  1  0  0  0  0
 25 24  2  0  0  0  0
 27 26  1  6  0  0  0
 27 25  1  0  0  0  0
 28 29  1  0  0  0  0
 28 27  1  0  0  0  0
 30 28  1  0  0  0  0
 31 28  1  0  0  0  0
M  END
>  <MODEL>
2

>  <REMARK>
 VINA RESULT:      -8.0      1.241      1.677
  Name = 
  7 active torsions:
  status: ('A' for Active; 'I' for Inactive)
    1  A    between atoms: C_1  and  C_19
    2  A    between atoms: C_4  and  C_5
    3  A    between atoms: C_9  and  C_22
    4  A    between atoms: C_9  and  C_23
    5  A    between atoms: N_15  and  C_23
    6  A    between atoms: C_19  and  C_22
    7  A    between atoms: C_21  and  C_29
                            x       y       z     vdW  Elec       q    Type
                         _______ _______ _______ _____ _____    ______ ____

>  <TORSDO>
F 7

$$$$
=
 OpenBabel10272400153D

 31 33  0  0  1  0  0  0  0  0999 V2000
  186.4190  176.2860  136.6580 N   0  0  0  0  0  0  0  0  0  0  0  0
  189.8470  175.7040  138.1270 C   0  0  2  0  0  3  0  0  0  0  0  0
  188.6370  176.5080  137.6720 C   0  0  0  0  0  0  0  0  0  0  0  0
  186.2480  177.7280  136.7970 C   0  0  0  0  0  2  0  0  0  0  0  0
  189.6590  176.9150  140.2510 N   0  0  0  0  0  0  0  0  0  0  0  0
  185.7670  175.9040  135.4190 C   0  0  0  0  0  1  0  0  0  0  0  0
  188.9370  178.0250  139.6240 C   0  0  0  0  0  2  0  0  0  0  0  0
  190.6240  176.3500  139.2930 C   0  0  2  0  0  3  0  0  0  0  0  0
  187.8470  176.0380  136.4730 C   0  0  0  0  0  2  0  0  0  0  0  0
  188.1780  177.5490  138.4130 C   0  0  0  0  0  0  0  0  0  0  0  0
  186.8450  178.1960  138.1240 C   0  0  0  0  0  2  0  0  0  0  0  0
  190.7070  175.1480  137.0210 C   0  0  0  0  0  0  0  0  0  0  0  0
  191.8320  173.1200  136.1260 N   0  0  0  0  0  0  0  0  0  0  0  0
  191.0460  173.8550  137.0670 C   0  0  0  0  0  2  0  0  0  0  0  0
  192.4610  173.5200  134.9090 C   0  0  0  0  0  3  0  0  0  0  0  0
  192.4370  174.7310  134.3690 C   0  0  0  0  0  3  0  0  0  0  0  0
  191.0600  176.1080  135.9680 C   0  0  0  0  0  3  0  0  0  0  0  0
  191.7790  175.9400  134.8640 C   0  0  0  0  0  3  0  0  0  0  0  0
  193.0640  176.8510  139.0600 C   0  0  0  0  0  1  0  0  0  0  0  0
  191.6640  177.3820  138.8210 C   0  0  0  0  0  2  0  0  0  0  0  0
  190.3650  177.4250  141.4200 C   0  0  0  0  0  2  0  0  0  0  0  0
  190.2260  175.4480  142.7610 O   0  0  0  0  0  1  0  0  0  0  0  0
  189.8200  176.7820  142.6860 C   0  0  1  0  0  3  0  0  0  0  0  0
  190.5030  178.7550  143.7560 O   0  0  0  0  0  0  0  0  0  0  0  0
  190.2640  177.5670  143.8930 C   0  0  0  0  0  0  0  0  0  0  0  0
  191.7000  177.2810  145.7870 O   0  0  0  0  0  1  0  0  0  0  0  0
  190.4490  176.9530  145.2590 C   0  0  1  0  0  3  0  0  0  0  0  0
  189.3300  177.2810  146.2560 C   0  0  0  0  0  0  0  0  0  0  0  0
  189.5520  178.5050  146.8590 F   0  0  0  0  0  0  0  0  0  0  0  0
  187.9810  177.3030  145.5570 C   0  0  0  0  0  1  0  0  0  0  0  0
  189.2950  176.3030  147.2330 F   0  0  0  0  0  0  0  0  0  0  0  0
  1  4  1  0  0  0  0
  2 12  1  6  0  0  0
  2  8  1  0  0  0  0
  3  2  1  0  0  0  0
  3 10  2  0  0  0  0
  4 11  1  0  0  0  0
  5 21  1  0  0  0  0
  6  1  1  0  0  0  0
  7  5  1  0  0  0  0
  8 20  1  6  0  0  0
  8  5  1  0  0  0  0
  9  1  1  0  0  0  0
  9  3  1  0  0  0  0
 10  7  1  0  0  0  0
 11 10  1  0  0  0  0
 12 14  1  0  0  0  0
 13 14  1  0  0  0  0
 15 13  2  0  0  0  0
 16 18  2  0  0  0  0
 16 15  1  0  0  0  0
 17 12  2  0  0  0  0
 18 17  1  0  0  0  0
 20 19  1  0  0  0  0
 21 23  1  0  0  0  0
 23 22  1  1  0  0  0
 23 25  1  0  0  0  0
 24 25  2  0  0  0  0
 25 27  1  0  0  0  0
 27 26  1  1  0  0  0
 27 28  1  0  0  0  0
 28 29  1  0  0  0  0
 28 31  1  0  0  0  0
 30 28  1  0  0  0  0
M  END
>  <MODEL>
3

>  <REMARK>
 VINA RESULT:      -7.8      5.747      9.349
  Name = 
  7 active torsions:
  status: ('A' for Active; 'I' for Inactive)
    1  A    between atoms: C_1  and  C_19
    2  A    between atoms: C_4  and  C_5
    3  A    between atoms: C_9  and  C_22
    4  A    between atoms: C_9  and  C_23
    5  A    between atoms: N_15  and  C_23
    6  A    between atoms: C_19  and  C_22
    7  A    between atoms: C_21  and  C_29
                            x       y       z     vdW  Elec       q    Type
                         _______ _______ _______ _____ _____    ______ ____

>  <TORSDO>
F 7

$$$$
=
 OpenBabel10272400153D

 31 33  0  0  1  0  0  0  0  0999 V2000
  190.7380  176.8550  145.7450 N   0  0  0  0  0  0  0  0  0  0  0  0
  187.7820  177.1170  143.4140 C   0  0  2  0  0  3  0  0  0  0  0  0
  189.1680  177.4330  143.9580 C   0  0  0  0  0  0  0  0  0  0  0  0
  191.7030  177.7720  145.1500 C   0  0  0  0  0  2  0  0  0  0  0  0
  188.8710  176.8190  141.2380 N   0  0  0  0  0  0  0  0  0  0  0  0
  190.9090  176.9430  147.1840 C   0  0  0  0  0  1  0  0  0  0  0  0
  190.0080  177.6580  141.6250 C   0  0  0  0  0  2  0  0  0  0  0  0
  187.6480  177.3150  141.8900 C   0  0  2  0  0  3  0  0  0  0  0  0
  189.4070  177.3760  145.4480 C   0  0  0  0  0  2  0  0  0  0  0  0
  190.2170  177.6170  143.1150 C   0  0  0  0  0  0  0  0  0  0  0  0
  191.6370  177.6780  143.6260 C   0  0  0  0  0  2  0  0  0  0  0  0
  186.6310  177.6520  144.2270 C   0  0  0  0  0  0  0  0  0  0  0  0
  185.8570  178.3040  146.4970 N   0  0  0  0  0  0  0  0  0  0  0  0
  186.7980  177.8040  145.5460 C   0  0  0  0  0  2  0  0  0  0  0  0
  184.5190  178.7760  146.3400 C   0  0  0  0  0  3  0  0  0  0  0  0
  183.8380  178.8550  145.2050 C   0  0  0  0  0  3  0  0  0  0  0  0
  185.4290  177.9890  143.4540 C   0  0  0  0  0  3  0  0  0  0  0  0
  184.2660  178.4890  143.8550 C   0  0  0  0  0  3  0  0  0  0  0  0
  186.1160  178.7910  140.5750 C   0  0  0  0  0  1  0  0  0  0  0  0
  187.3160  178.7670  141.5000 C   0  0  0  0  0  2  0  0  0  0  0  0
  188.7210  176.8840  139.7890 C   0  0  0  0  0  2  0  0  0  0  0  0
  190.8180  177.3280  138.7250 O   0  0  0  0  0  1  0  0  0  0  0  0
  189.6560  177.9330  139.2100 C   0  0  1  0  0  3  0  0  0  0  0  0
  189.2530  179.8850  137.9720 O   0  0  0  0  0  0  0  0  0  0  0  0
  188.9480  178.7160  138.1350 C   0  0  0  0  0  0  0  0  0  0  0  0
  186.8820  179.0870  136.9830 O   0  0  0  0  0  1  0  0  0  0  0  0
  187.8620  178.1320  137.2630 C   0  0  1  0  0  3  0  0  0  0  0  0
  188.3730  177.4750  135.9740 C   0  0  0  0  0  0  0  0  0  0  0  0
  189.7240  177.7140  135.8030 F   0  0  0  0  0  0  0  0  0  0  0  0
  188.1290  175.9760  136.0050 C   0  0  0  0  0  1  0  0  0  0  0  0
  187.6880  178.0040  134.8960 F   0  0  0  0  0  0  0  0  0  0  0  0
  1  6  1  0  0  0  0
  2  3  1  0  0  0  0
  2 12  1  1  0  0  0
  3  9  1  0  0  0  0
  4  1  1  0  0  0  0
  5  7  1  0  0  0  0
  5  8  1  0  0  0  0
  7 10  1  0  0  0  0
  8 20  1  1  0  0  0
  8  2  1  0  0  0  0
  9  1  1  0  0  0  0
 10 11  1  0  0  0  0
 10  3  2  0  0  0  0
 11  4  1  0  0  0  0
 12 14  1  0  0  0  0
 14 13  1  0  0  0  0
 15 13  2  0  0  0  0
 16 15  1  0  0  0  0
 17 18  1  0  0  0  0
 17 12  2  0  0  0  0
 18 16  2  0  0  0  0
 19 20  1  0  0  0  0
 21  5  1  0  0  0  0
 23 22  1  6  0  0  0
 23 21  1  0  0  0  0
 24 25  2  0  0  0  0
 25 23  1  0  0  0  0
 27 26  1  6  0  0  0
 27 25  1  0  0  0  0
 28 30  1  0  0  0  0
 28 27  1  0  0  0  0
 29 28  1  0  0  0  0
 31 28  1  0  0  0  0
M  END
>  <MODEL>
4

>  <REMARK>
 VINA RESULT:      -7.8      3.294      5.274
  Name = 
  7 active torsions:
  status: ('A' for Active; 'I' for Inactive)
    1  A    between atoms: C_1  and  C_19
    2  A    between atoms: C_4  and  C_5
    3  A    between atoms: C_9  and  C_22
    4  A    between atoms: C_9  and  C_23
    5  A    between atoms: N_15  and  C_23
    6  A    between atoms: C_19  and  C_22
    7  A    between atoms: C_21  and  C_29
                            x       y       z     vdW  Elec       q    Type
                         _______ _______ _______ _____ _____    ______ ____

>  <TORSDO>
F 7

$$$$
=
 OpenBabel10272400153D

 31 33  0  0  1  0  0  0  0  0999 V2000
  189.4480  176.9360  141.1740 N   0  0  0  0  0  0  0  0  0  0  0  0
  186.4340  177.5850  143.3510 C   0  0  2  0  0  3  0  0  0  0  0  0
  187.4590  177.8630  142.2610 C   0  0  0  0  0  0  0  0  0  0  0  0
  189.4530  178.0860  140.2770 C   0  0  0  0  0  2  0  0  0  0  0  0
  184.7290  178.0750  141.6590 N   0  0  0  0  0  0  0  0  0  0  0  0
  190.8360  176.6010  141.4340 C   0  0  0  0  0  1  0  0  0  0  0  0
  185.6640  178.8710  140.8600 C   0  0  0  0  0  2  0  0  0  0  0  0
  185.0520  178.2200  143.0880 C   0  0  2  0  0  3  0  0  0  0  0  0
  188.8790  177.3820  142.4430 C   0  0  0  0  0  2  0  0  0  0  0  0
  187.0790  178.4020  141.0740 C   0  0  0  0  0  0  0  0  0  0  0  0
  188.0200  178.4520  139.8940 C   0  0  0  0  0  2  0  0  0  0  0  0
  186.9390  177.7260  144.7640 C   0  0  0  0  0  0  0  0  0  0  0  0
  186.2960  178.0150  147.1480 N   0  0  0  0  0  0  0  0  0  0  0  0
  186.0450  177.8810  145.7470 C   0  0  0  0  0  2  0  0  0  0  0  0
  187.5150  178.0210  147.8900 C   0  0  0  0  0  3  0  0  0  0  0  0
  188.7400  177.8890  147.3970 C   0  0  0  0  0  3  0  0  0  0  0  0
  188.3970  177.6410  144.9130 C   0  0  0  0  0  3  0  0  0  0  0  0
  189.1500  177.7080  146.0050 C   0  0  0  0  0  3  0  0  0  0  0  0
  183.7320  179.8600  144.4370 C   0  0  0  0  0  1  0  0  0  0  0  0
  184.9620  179.6790  143.5700 C   0  0  0  0  0  2  0  0  0  0  0  0
  183.3770  178.5600  141.4060 C   0  0  0  0  0  2  0  0  0  0  0  0
  181.3850  177.4030  140.7600 O   0  0  0  0  0  1  0  0  0  0  0  0
  182.6930  177.6920  140.3630 C   0  0  1  0  0  3  0  0  0  0  0  0
  182.7440  179.5970  138.9930 O   0  0  0  0  0  0  0  0  0  0  0  0
  182.7270  178.3770  139.0220 C   0  0  0  0  0  0  0  0  0  0  0  0
  182.1250  178.3990  136.7040 O   0  0  0  0  0  1  0  0  0  0  0  0
  182.7190  177.6320  137.7090 C   0  0  1  0  0  3  0  0  0  0  0  0
  184.0960  177.1190  137.2660 C   0  0  0  0  0  0  0  0  0  0  0  0
  184.3460  175.8650  137.7920 F   0  0  0  0  0  0  0  0  0  0  0  0
  184.1800  177.0540  135.7510 C   0  0  0  0  0  1  0  0  0  0  0  0
  185.0690  177.9920  137.7170 F   0  0  0  0  0  0  0  0  0  0  0  0
  1  6  1  0  0  0  0
  1  9  1  0  0  0  0
  2 12  1  1  0  0  0
  3  9  1  0  0  0  0
  3  2  1  0  0  0  0
  4  1  1  0  0  0  0
  5  8  1  0  0  0  0
  7 10  1  0  0  0  0
  7  5  1  0  0  0  0
  8  2  1  0  0  0  0
  8 20  1  6  0  0  0
 10  3  2  0  0  0  0
 11  4  1  0  0  0  0
 11 10  1  0  0  0  0
 12 17  2  0  0  0  0
 12 14  1  0  0  0  0
 13 15  2  0  0  0  0
 14 13  1  0  0  0  0
 16 15  1  0  0  0  0
 17 18  1  0  0  0  0
 18 16  2  0  0  0  0
 20 19  1  0  0  0  0
 21  5  1  0  0  0  0
 23 22  1  1  0  0  0
 23 21  1  0  0  0  0
 24 25  2  0  0  0  0
 25 23  1  0  0  0  0
 27 26  1  6  0  0  0
 27 25  1  0  0  0  0
 28 27  1  0  0  0  0
 28 31  1  0  0  0  0
 28 29  1  0  0  0  0
 30 28  1  0  0  0  0
M  END
>  <MODEL>
5

>  <REMARK>
 VINA RESULT:      -7.7      1.574      2.120
  Name = 
  7 active torsions:
  status: ('A' for Active; 'I' for Inactive)
    1  A    between atoms: C_1  and  C_19
    2  A    between atoms: C_4  and  C_5
    3  A    between atoms: C_9  and  C_22
    4  A    between atoms: C_9  and  C_23
    5  A    between atoms: N_15  and  C_23
    6  A    between atoms: C_19  and  C_22
    7  A    between atoms: C_21  and  C_29
                            x       y       z     vdW  Elec       q    Type
                         _______ _______ _______ _____ _____    ______ ____

>  <TORSDO>
F 7

$$$$
=
 OpenBabel10272400153D

 31 33  0  0  1  0  0  0  0  0999 V2000
  185.1520  179.3510  142.3190 N   0  0  0  0  0  0  0  0  0  0  0  0
  188.6180  178.5750  141.0440 C   0  0  2  0  0  3  0  0  0  0  0  0
  187.1020  178.4710  141.1290 C   0  0  0  0  0  0  0  0  0  0  0  0
  184.3010  178.5280  141.4680 C   0  0  0  0  0  2  0  0  0  0  0  0
  188.3090  178.8750  138.6300 N   0  0  0  0  0  0  0  0  0  0  0  0
  184.5340  179.3730  143.6320 C   0  0  0  0  0  1  0  0  0  0  0  0
  187.0030  178.2120  138.6540 C   0  0  0  0  0  2  0  0  0  0  0  0
  189.1890  178.2690  139.6430 C   0  0  2  0  0  3  0  0  0  0  0  0
  186.4230  178.6480  142.4670 C   0  0  0  0  0  2  0  0  0  0  0  0
  186.3500  178.3700  140.0020 C   0  0  0  0  0  0  0  0  0  0  0  0
  184.8480  178.5210  140.0400 C   0  0  0  0  0  2  0  0  0  0  0  0
  189.3740  177.9490  142.1880 C   0  0  0  0  0  0  0  0  0  0  0  0
  189.8340  175.8470  143.4320 N   0  0  0  0  0  0  0  0  0  0  0  0
  189.2100  176.6420  142.4210 C   0  0  0  0  0  3  0  0  0  0  0  0
  190.7780  176.1850  144.4470 C   0  0  0  0  0  3  0  0  0  0  0  0
  191.3040  177.3820  144.6690 C   0  0  0  0  0  3  0  0  0  0  0  0
  190.2580  178.8640  142.9210 C   0  0  0  0  0  2  0  0  0  0  0  0
  191.0620  178.6330  143.9520 C   0  0  0  0  0  3  0  0  0  0  0  0
  190.8960  176.4970  139.1980 C   0  0  0  0  0  1  0  0  0  0  0  0
  189.4190  176.7660  139.4040 C   0  0  0  0  0  2  0  0  0  0  0  0
  188.8890  178.7030  137.3040 C   0  0  0  0  0  2  0  0  0  0  0  0
  187.3630  178.4820  135.4750 O   0  0  0  0  0  1  0  0  0  0  0  0
  188.0310  177.7660  136.4710 C   0  0  1  0  0  3  0  0  0  0  0  0
  190.0750  176.8810  135.7330 O   0  0  0  0  0  0  0  0  0  0  0  0
  188.8840  176.6690  135.8890 C   0  0  0  0  0  0  0  0  0  0  0  0
  189.1160  174.7660  134.4540 O   0  0  0  0  0  1  0  0  0  0  0  0
  188.3350  175.3270  135.4670 C   0  0  1  0  0  3  0  0  0  0  0  0
  188.1370  174.3350  136.6210 C   0  0  0  0  0  0  0  0  0  0  0  0
  187.1420  174.7700  137.4770 F   0  0  0  0  0  0  0  0  0  0  0  0
  187.7750  172.9600  136.0880 C   0  0  0  0  0  1  0  0  0  0  0  0
  189.3180  174.2280  137.3320 F   0  0  0  0  0  0  0  0  0  0  0  0
  1  9  1  0  0  0  0
  1  6  1  0  0  0  0
  2  3  1  0  0  0  0
  2 12  1  1  0  0  0
  3  9  1  0  0  0  0
  4  1  1  0  0  0  0
  5  7  1  0  0  0  0
  5  8  1  0  0  0  0
  7 10  1  0  0  0  0
  8 20  1  6  0  0  0
  8  2  1  0  0  0  0
 10 11  1  0  0  0  0
 10  3  2  0  0  0  0
 11  4  1  0  0  0  0
 12 14  2  0  0  0  0
 12 17  1  0  0  0  0
 13 15  2  0  0  0  0
 14 13  1  0  0  0  0
 15 16  1  0  0  0  0
 17 18  1  0  0  0  0
 18 16  2  0  0  0  0
 19 20  1  0  0  0  0
 21  5  1  0  0  0  0
 23 22  1  6  0  0  0
 23 21  1  0  0  0  0
 24 25  2  0  0  0  0
 25 23  1  0  0  0  0
 27 26  1  6  0  0  0
 27 25  1  0  0  0  0
 27 28  1  0  0  0  0
 28 31  1  0  0  0  0
 28 29  1  0  0  0  0
 30 28  1  0  0  0  0
M  END
>  <MODEL>
6

>  <REMARK>
 VINA RESULT:      -7.6      4.044      6.346
  Name = 
  7 active torsions:
  status: ('A' for Active; 'I' for Inactive)
    1  A    between atoms: C_1  and  C_19
    2  A    between atoms: C_4  and  C_5
    3  A    between atoms: C_9  and  C_22
    4  A    between atoms: C_9  and  C_23
    5  A    between atoms: N_15  and  C_23
    6  A    between atoms: C_19  and  C_22
    7  A    between atoms: C_21  and  C_29
                            x       y       z     vdW  Elec       q    Type
                         _______ _______ _______ _____ _____    ______ ____

>  <TORSDO>
F 7

$$$$
=
 OpenBabel10272400153D

 31 33  0  0  1  0  0  0  0  0999 V2000
  184.4600  179.3730  143.4180 N   0  0  0  0  0  0  0  0  0  0  0  0
  188.1170  178.4410  143.4360 C   0  0  2  0  0  3  0  0  0  0  0  0
  186.6530  178.3560  143.0290 C   0  0  0  0  0  0  0  0  0  0  0  0
  183.8990  178.4670  142.4230 C   0  0  0  0  0  2  0  0  0  0  0  0
  188.6230  178.4770  141.0370 N   0  0  0  0  0  0  0  0  0  0  0  0
  183.4500  179.5430  144.4470 C   0  0  0  0  0  1  0  0  0  0  0  0
  187.3540  177.8270  140.6990 C   0  0  0  0  0  2  0  0  0  0  0  0
  189.1000  177.9800  142.3390 C   0  0  2  0  0  3  0  0  0  0  0  0
  185.5840  178.6830  144.0450 C   0  0  0  0  0  2  0  0  0  0  0  0
  186.3060  178.1360  141.7350 C   0  0  0  0  0  0  0  0  0  0  0  0
  184.8800  178.2990  141.2630 C   0  0  0  0  0  2  0  0  0  0  0  0
  188.4330  177.9400  144.8220 C   0  0  0  0  0  0  0  0  0  0  0  0
  187.4850  177.1680  146.9860 N   0  0  0  0  0  0  0  0  0  0  0  0
  187.4180  177.6650  145.6480 C   0  0  0  0  0  2  0  0  0  0  0  0
  188.6000  176.8270  147.8090 C   0  0  0  0  0  3  0  0  0  0  0  0
  189.8810  176.9030  147.4740 C   0  0  0  0  0  3  0  0  0  0  0  0
  189.8630  177.7740  145.1100 C   0  0  0  0  0  3  0  0  0  0  0  0
  190.4700  177.3430  146.2100 C   0  0  0  0  0  3  0  0  0  0  0  0
  190.8180  176.1640  142.4080 C   0  0  0  0  0  1  0  0  0  0  0  0
  189.3320  176.4590  142.3430 C   0  0  0  0  0  2  0  0  0  0  0  0
  189.5960  178.1570  140.0000 C   0  0  0  0  0  2  0  0  0  0  0  0
  188.9810  179.4730  138.0980 O   0  0  0  0  0  1  0  0  0  0  0  0
  188.9340  178.1830  138.6310 C   0  0  1  0  0  3  0  0  0  0  0  0
  189.4650  177.3170  136.5160 O   0  0  0  0  0  0  0  0  0  0  0  0
  189.5960  177.1810  137.7210 C   0  0  0  0  0  0  0  0  0  0  0  0
  189.8900  174.8050  137.7170 O   0  0  0  0  0  1  0  0  0  0  0  0
  190.3950  176.0040  138.2250 C   0  0  1  0  0  3  0  0  0  0  0  0
  191.9050  176.1140  137.9760 C   0  0  0  0  0  0  0  0  0  0  0  0
  192.5410  176.6990  139.0560 F   0  0  0  0  0  0  0  0  0  0  0  0
  192.5070  174.7420  137.7220 C   0  0  0  0  0  1  0  0  0  0  0  0
  192.1220  176.8960  136.8560 F   0  0  0  0  0  0  0  0  0  0  0  0
  1  9  1  0  0  0  0
  1  6  1  0  0  0  0
  2 12  1  1  0  0  0
  3  2  1  0  0  0  0
  3  9  1  0  0  0  0
  4  1  1  0  0  0  0
  5  8  1  0  0  0  0
  7  5  1  0  0  0  0
  7 10  1  0  0  0  0
  8 20  1  6  0  0  0
  8  2  1  0  0  0  0
 10  3  2  0  0  0  0
 11 10  1  0  0  0  0
 11  4  1  0  0  0  0
 12 17  2  0  0  0  0
 12 14  1  0  0  0  0
 13 15  2  0  0  0  0
 14 13  1  0  0  0  0
 16 15  1  0  0  0  0
 17 18  1  0  0  0  0
 18 16  2  0  0  0  0
 20 19  1  0  0  0  0
 21  5  1  0  0  0  0
 23 22  1  6  0  0  0
 23 21  1  0  0  0  0
 24 25  2  0  0  0  0
 25 27  1  0  0  0  0
 25 23  1  0  0  0  0
 27 26  1  6  0  0  0
 28 27  1  0  0  0  0
 28 29  1  0  0  0  0
 30 28  1  0  0  0  0
 31 28  1  0  0  0  0
M  END
>  <MODEL>
7

>  <REMARK>
 VINA RESULT:      -7.6      3.957      6.417
  Name = 
  7 active torsions:
  status: ('A' for Active; 'I' for Inactive)
    1  A    between atoms: C_1  and  C_19
    2  A    between atoms: C_4  and  C_5
    3  A    between atoms: C_9  and  C_22
    4  A    between atoms: C_9  and  C_23
    5  A    between atoms: N_15  and  C_23
    6  A    between atoms: C_19  and  C_22
    7  A    between atoms: C_21  and  C_29
                            x       y       z     vdW  Elec       q    Type
                         _______ _______ _______ _____ _____    ______ ____

>  <TORSDO>
F 7

$$$$
=
 OpenBabel10272400153D

 31 33  0  0  1  0  0  0  0  0999 V2000
  185.2360  179.0590  144.7610 N   0  0  0  0  0  0  0  0  0  0  0  0
  188.7330  178.3910  143.5090 C   0  0  2  0  0  3  0  0  0  0  0  0
  187.2210  178.2350  143.5890 C   0  0  0  0  0  0  0  0  0  0  0  0
  184.4180  178.1970  143.9160 C   0  0  0  0  0  2  0  0  0  0  0  0
  188.4240  178.6510  141.0910 N   0  0  0  0  0  0  0  0  0  0  0  0
  184.6120  179.0760  146.0720 C   0  0  0  0  0  1  0  0  0  0  0  0
  187.1420  177.9420  141.1180 C   0  0  0  0  0  2  0  0  0  0  0  0
  189.3200  178.0890  142.1150 C   0  0  2  0  0  3  0  0  0  0  0  0
  186.5310  178.4040  144.9220 C   0  0  0  0  0  2  0  0  0  0  0  0
  186.4790  178.0930  142.4610 C   0  0  0  0  0  0  0  0  0  0  0  0
  184.9720  178.1910  142.4920 C   0  0  0  0  0  2  0  0  0  0  0  0
  189.5050  177.8070  144.6640 C   0  0  0  0  0  0  0  0  0  0  0  0
  191.7650  177.3180  145.5770 N   0  0  0  0  0  0  0  0  0  0  0  0
  190.8410  177.8020  144.5990 C   0  0  0  0  0  3  0  0  0  0  0  0
  191.5560  176.7250  146.8580 C   0  0  0  0  0  3  0  0  0  0  0  0
  190.3870  176.4930  147.4390 C   0  0  0  0  0  3  0  0  0  0  0  0
  188.6820  177.3220  145.7790 C   0  0  0  0  0  2  0  0  0  0  0  0
  189.0430  176.7750  146.9340 C   0  0  0  0  0  3  0  0  0  0  0  0
  191.0690  176.3890  141.5610 C   0  0  0  0  0  1  0  0  0  0  0  0
  189.6050  176.5920  141.8950 C   0  0  0  0  0  2  0  0  0  0  0  0
  189.0160  178.4840  139.7690 C   0  0  0  0  0  2  0  0  0  0  0  0
  187.6640  178.9630  137.8540 O   0  0  0  0  0  1  0  0  0  0  0  0
  187.9750  177.9710  138.7870 C   0  0  1  0  0  3  0  0  0  0  0  0
  187.6540  175.9270  137.6810 O   0  0  0  0  0  0  0  0  0  0  0  0
  188.4740  176.7170  138.1180 C   0  0  0  0  0  0  0  0  0  0  0  0
  190.1940  175.0850  138.4500 O   0  0  0  0  0  1  0  0  0  0  0  0
  189.9380  176.3750  137.9820 C   0  0  1  0  0  3  0  0  0  0  0  0
  190.5010  176.5680  136.5680 C   0  0  0  0  0  0  0  0  0  0  0  0
  191.8460  176.8860  136.6130 F   0  0  0  0  0  0  0  0  0  0  0  0
  190.3110  175.3090  135.7400 C   0  0  0  0  0  1  0  0  0  0  0  0
  189.8220  177.6010  135.9480 F   0  0  0  0  0  0  0  0  0  0  0  0
  1  9  1  0  0  0  0
  1  6  1  0  0  0  0
  2  3  1  0  0  0  0
  2 12  1  1  0  0  0
  3  9  1  0  0  0  0
  4  1  1  0  0  0  0
  5  7  1  0  0  0  0
  5  8  1  0  0  0  0
  7 10  1  0  0  0  0
  8 20  1  6  0  0  0
  8  2  1  0  0  0  0
 10 11  1  0  0  0  0
 10  3  2  0  0  0  0
 11  4  1  0  0  0  0
 12 17  1  0  0  0  0
 13 15  2  0  0  0  0
 14 12  2  0  0  0  0
 14 13  1  0  0  0  0
 15 16  1  0  0  0  0
 17 18  1  0  0  0  0
 18 16  2  0  0  0  0
 19 20  1  0  0  0  0
 21  5  1  0  0  0  0
 23 22  1  6  0  0  0
 23 21  1  0  0  0  0
 24 25  2  0  0  0  0
 25 23  1  0  0  0  0
 27 25  1  0  0  0  0
 27 26  1  6  0  0  0
 28 29  1  0  0  0  0
 28 27  1  0  0  0  0
 30 28  1  0  0  0  0
 31 28  1  0  0  0  0
M  END
>  <MODEL>
8

>  <REMARK>
 VINA RESULT:      -7.5      3.705      6.080
  Name = 
  7 active torsions:
  status: ('A' for Active; 'I' for Inactive)
    1  A    between atoms: C_1  and  C_19
    2  A    between atoms: C_4  and  C_5
    3  A    between atoms: C_9  and  C_22
    4  A    between atoms: C_9  and  C_23
    5  A    between atoms: N_15  and  C_23
    6  A    between atoms: C_19  and  C_22
    7  A    between atoms: C_21  and  C_29
                            x       y       z     vdW  Elec       q    Type
                         _______ _______ _______ _____ _____    ______ ____

>  <TORSDO>
F 7

$$$$
=
 OpenBabel10272400153D

 31 33  0  0  1  0  0  0  0  0999 V2000
  184.3450  179.3860  143.5080 N   0  0  0  0  0  0  0  0  0  0  0  0
  188.0080  178.4800  143.4790 C   0  0  2  0  0  3  0  0  0  0  0  0
  186.5410  178.3890  143.0860 C   0  0  0  0  0  0  0  0  0  0  0  0
  183.7810  178.4870  142.5090 C   0  0  0  0  0  2  0  0  0  0  0  0
  188.4900  178.5450  141.0760 N   0  0  0  0  0  0  0  0  0  0  0  0
  183.3440  179.5380  144.5480 C   0  0  0  0  0  1  0  0  0  0  0  0
  187.2220  177.8910  140.7430 C   0  0  0  0  0  2  0  0  0  0  0  0
  188.9830  178.0380  142.3670 C   0  0  2  0  0  3  0  0  0  0  0  0
  185.4800  178.6980  144.1160 C   0  0  0  0  0  2  0  0  0  0  0  0
  186.1820  178.1810  141.7930 C   0  0  0  0  0  0  0  0  0  0  0  0
  184.7510  178.3390  141.3370 C   0  0  0  0  0  2  0  0  0  0  0  0
  188.3420  177.9660  144.8570 C   0  0  0  0  0  0  0  0  0  0  0  0
  187.4220  177.2020  147.0350 N   0  0  0  0  0  0  0  0  0  0  0  0
  187.3380  177.7060  145.7010 C   0  0  0  0  0  2  0  0  0  0  0  0
  188.5460  176.8360  147.8350 C   0  0  0  0  0  3  0  0  0  0  0  0
  189.8210  176.8900  147.4750 C   0  0  0  0  0  3  0  0  0  0  0  0
  189.7740  177.7720  145.1150 C   0  0  0  0  0  3  0  0  0  0  0  0
  190.3940  177.3250  146.2020 C   0  0  0  0  0  3  0  0  0  0  0  0
  190.7140  176.2330  142.4050 C   0  0  0  0  0  1  0  0  0  0  0  0
  189.2260  176.5180  142.3530 C   0  0  0  0  0  2  0  0  0  0  0  0
  189.4540  178.2430  140.0250 C   0  0  0  0  0  2  0  0  0  0  0  0
  188.9820  179.5380  138.0700 O   0  0  0  0  0  1  0  0  0  0  0  0
  188.7810  178.2900  138.6630 C   0  0  1  0  0  3  0  0  0  0  0  0
  190.4730  176.8580  137.8940 O   0  0  0  0  0  0  0  0  0  0  0  0
  189.2990  177.1730  137.7950 C   0  0  0  0  0  0  0  0  0  0  0  0
  187.1950  176.1260  137.3350 O   0  0  0  0  0  1  0  0  0  0  0  0
  188.4440  176.4380  136.7920 C   0  0  1  0  0  3  0  0  0  0  0  0
  188.2930  177.1570  135.4450 C   0  0  0  0  0  0  0  0  0  0  0  0
  188.3060  176.2510  134.4000 F   0  0  0  0  0  0  0  0  0  0  0  0
  186.9990  177.9510  135.4040 C   0  0  0  0  0  1  0  0  0  0  0  0
  189.3470  178.0370  135.2820 F   0  0  0  0  0  0  0  0  0  0  0  0
  1  9  1  0  0  0  0
  1  6  1  0  0  0  0
  2 12  1  1  0  0  0
  3  2  1  0  0  0  0
  3  9  1  0  0  0  0
  4  1  1  0  0  0  0
  5  8  1  0  0  0  0
  7  5  1  0  0  0  0
  7 10  1  0  0  0  0
  8 20  1  6  0  0  0
  8  2  1  0  0  0  0
 10  3  2  0  0  0  0
 11 10  1  0  0  0  0
 11  4  1  0  0  0  0
 12 17  2  0  0  0  0
 12 14  1  0  0  0  0
 13 15  2  0  0  0  0
 14 13  1  0  0  0  0
 16 15  1  0  0  0  0
 17 18  1  0  0  0  0
 18 16  2  0  0  0  0
 20 19  1  0  0  0  0
 21  5  1  0  0  0  0
 23 22  1  6  0  0  0
 23 21  1  0  0  0  0
 25 24  2  0  0  0  0
 25 23  1  0  0  0  0
 27 26  1  1  0  0  0
 27 25  1  0  0  0  0
 28 27  1  0  0  0  0
 29 28  1  0  0  0  0
 30 28  1  0  0  0  0
 31 28  1  0  0  0  0
M  END
>  <MODEL>
9

>  <REMARK>
 VINA RESULT:      -7.5      3.318      5.464
  Name = 
  7 active torsions:
  status: ('A' for Active; 'I' for Inactive)
    1  A    between atoms: C_1  and  C_19
    2  A    between atoms: C_4  and  C_5
    3  A    between atoms: C_9  and  C_22
    4  A    between atoms: C_9  and  C_23
    5  A    between atoms: N_15  and  C_23
    6  A    between atoms: C_19  and  C_22
    7  A    between atoms: C_21  and  C_29
                            x       y       z     vdW  Elec       q    Type
                         _______ _______ _______ _____ _____    ______ ____

>  <TORSDO>
F 7

$$$$
