=
 OpenBabel10272413133D

 32 37  0  0  1  0  0  0  0  0999 V2000
  185.0740  178.5890  142.1570 C   0  0  1  0  0  3  0  0  0  0  0  0
  187.4610  178.0860  142.1320 C   0  0  0  0  0  0  0  0  0  0  0  0
  183.9440  178.6860  142.8690 C   0  0  0  0  0  3  0  0  0  0  0  0
  186.3530  178.3330  142.8500 C   0  0  0  0  0  0  0  0  0  0  0  0
  188.7980  177.9340  142.8150 C   0  0  2  0  0  3  0  0  0  0  0  0
  189.7300  176.8240  137.8100 C   0  0  0  0  0  2  0  0  0  0  0  0
  187.4270  178.1010  140.6490 C   0  0  0  0  0  0  0  0  0  0  0  0
  190.7140  176.3900  140.0410 O   0  0  0  0  0  0  0  0  0  0  0  0
  189.7380  177.1320  140.7070 C   0  0  0  0  0  0  0  0  0  0  0  0
  186.4370  178.4230  144.3540 C   0  0  0  0  0  0  0  0  0  0  0  0
  189.7300  177.1480  142.0070 N   0  0  0  0  0  0  0  0  0  0  0  0
  187.3320  177.3090  144.8810 C   0  0  0  0  0  2  0  0  0  0  0  0
  185.0870  178.3760  145.0180 C   0  0  0  0  0  3  0  0  0  0  0  0
  186.2940  178.4220  140.0050 C   0  0  0  0  0  3  0  0  0  0  0  0
  185.0730  178.6810  140.7210 N   0  0  0  0  0  0  0  0  0  0  0  0
  188.7090  177.8710  139.8830 C   0  0  1  0  0  3  0  0  0  0  0  0
  188.7340  177.3580  144.2470 C   0  0  2  0  0  3  0  0  0  0  0  0
  183.9480  178.5300  144.3350 C   0  0  0  0  0  3  0  0  0  0  0  0
  190.9950  176.6030  138.6570 C   0  0  0  0  0  2  0  0  0  0  0  0
  188.4550  177.0280  138.6310 C   0  0  0  0  0  2  0  0  0  0  0  0
  182.9210  178.0400  137.7910 C   0  0  1  0  0  3  0  0  0  0  0  0
  180.5950  181.0080  137.9100 N   0  0  0  0  0  1  0  0  0  0  0  0
  182.6350  176.7540  137.0380 C   0  0  0  0  0  1  0  0  0  0  0  0
  182.7750  180.8220  138.7480 N   0  0  0  0  0  0  0  0  0  0  0  0
  183.8500  178.9930  139.9830 C   0  0  1  0  0  3  0  0  0  0  0  0
  181.7910  178.9040  137.7280 O   0  0  0  0  0  0  0  0  0  0  0  0
  184.0570  180.2080  139.0800 C   0  0  0  0  0  2  0  0  0  0  0  0
  183.3370  177.7520  139.2410 C   0  0  1  0  0  3  0  0  0  0  0  0
  182.2140  177.1100  140.0410 C   0  0  0  0  0  1  0  0  0  0  0  0
  181.7740  180.2470  138.1440 C   0  0  0  0  0  0  0  0  0  0  0  0
  189.7260  178.0650  145.1610 C   0  0  0  0  0  2  0  0  0  0  0  0
  189.3670  177.9050  146.5010 O   0  0  0  0  0  1  0  0  0  0  0  0
  1  4  1  0  0  0  0
  1  3  1  6  0  0  0
  2  5  1  0  0  0  0
  2  4  2  0  0  0  0
  3 18  2  0  0  0  0
  4 10  1  0  0  0  0
  5 11  1  6  0  0  0
  5 17  1  0  0  0  0
  6 20  1  0  0  0  0
  6 19  1  0  0  0  0
  7  2  1  0  0  0  0
  8  9  1  0  0  0  0
  9 11  2  0  0  0  0
 10 12  1  0  0  0  0
 10 13  2  0  0  0  0
 14  7  2  0  0  0  0
 14 15  1  0  0  0  0
 15  1  1  0  0  0  0
 16 20  1  6  0  0  0
 16  7  1  0  0  0  0
 16  9  1  0  0  0  0
 17 12  1  0  0  0  0
 17 31  1  1  0  0  0
 18 13  1  0  0  0  0
 19  8  1  0  0  0  0
 21 23  1  1  0  0  0
 21 28  1  0  0  0  0
 22 30  1  0  0  0  0
 24 27  1  0  0  0  0
 25 27  1  6  0  0  0
 25 15  1  0  0  0  0
 26 21  1  0  0  0  0
 26 30  1  0  0  0  0
 28 25  1  0  0  0  0
 28 29  1  1  0  0  0
 30 24  2  0  0  0  0
 31 32  1  0  0  0  0
M  END
>  <MODEL>
1

>  <REMARK>
 VINA RESULT:     -10.3      0.000      0.000
  Name = 
  2 active torsions:
  status: ('A' for Active; 'I' for Inactive)
    1  A    between atoms: C_13  and  C_29
    2  A    between atoms: C_16  and  N_27
                            x       y       z     vdW  Elec       q    Type
                         _______ _______ _______ _____ _____    ______ ____

>  <TORSDO>
F 2

$$$$
=
 OpenBabel10272413133D

 32 37  0  0  1  0  0  0  0  0999 V2000
  186.9560  178.1630  145.1310 C   0  0  0  0  0  0  0  0  0  0  0  0
  185.8600  178.2080  142.9530 C   0  0  0  0  0  0  0  0  0  0  0  0
  186.8730  178.3980  146.4460 C   0  0  0  0  0  3  0  0  0  0  0  0
  185.7500  178.2960  144.2880 C   0  0  0  0  0  0  0  0  0  0  0  0
  184.6270  178.2300  142.0800 C   0  0  2  0  0  3  0  0  0  0  0  0
  188.6230  178.2640  138.7350 C   0  0  0  0  0  2  0  0  0  0  0  0
  187.1700  177.9420  142.3110 C   0  0  0  0  0  0  0  0  0  0  0  0
  186.2280  178.8920  138.8020 O   0  0  0  0  0  0  0  0  0  0  0  0
  186.0680  178.4670  140.1220 C   0  0  0  0  0  0  0  0  0  0  0  0
  184.3900  178.4550  144.9220 C   0  0  2  0  0  3  0  0  0  0  0  0
  184.9350  178.6790  140.7240 N   0  0  0  0  0  0  0  0  0  0  0  0
  183.5710  179.4610  144.1240 C   0  0  0  0  0  2  0  0  0  0  0  0
  184.4640  178.8620  146.3700 C   0  0  0  0  0  3  0  0  0  0  0  0
  188.2580  177.7270  143.0660 C   0  0  0  0  0  3  0  0  0  0  0  0
  188.2050  177.8240  144.5010 N   0  0  0  0  0  0  0  0  0  0  0  0
  187.2360  177.7980  140.8080 C   0  0  1  0  0  3  0  0  0  0  0  0
  183.4460  179.0470  142.6470 C   0  0  2  0  0  3  0  0  0  0  0  0
  185.6000  178.8040  147.0720 C   0  0  0  0  0  3  0  0  0  0  0  0
  187.2870  178.3930  137.9830 C   0  0  0  0  0  2  0  0  0  0  0  0
  188.5070  178.4420  140.2510 C   0  0  0  0  0  2  0  0  0  0  0  0
  191.2820  175.8700  145.0780 C   0  0  1  0  0  3  0  0  0  0  0  0
  192.2820  177.0490  148.5190 N   0  0  0  0  0  1  0  0  0  0  0  0
  192.2200  175.1900  144.0960 C   0  0  0  0  0  1  0  0  0  0  0  0
  190.1490  177.0010  147.5500 N   0  0  0  0  0  0  0  0  0  0  0  0
  189.4190  177.6180  145.2890 C   0  0  1  0  0  3  0  0  0  0  0  0
  192.0040  176.2910  146.2310 O   0  0  0  0  0  0  0  0  0  0  0  0
  189.1200  176.7880  146.5380 C   0  0  0  0  0  2  0  0  0  0  0  0
  190.5370  177.0370  144.4150 C   0  0  1  0  0  3  0  0  0  0  0  0
  191.4810  178.1520  143.9920 C   0  0  0  0  0  1  0  0  0  0  0  0
  191.4260  176.7750  147.4170 C   0  0  0  0  0  0  0  0  0  0  0  0
  182.1220  178.3400  142.3850 C   0  0  0  0  0  2  0  0  0  0  0  0
  181.1420  178.7760  143.2790 O   0  0  0  0  0  1  0  0  0  0  0  0
  1  3  2  0  0  0  0
  2  4  2  0  0  0  0
  3 18  1  0  0  0  0
  4 10  1  0  0  0  0
  4  1  1  0  0  0  0
  5 11  1  6  0  0  0
  5 17  1  0  0  0  0
  5  2  1  0  0  0  0
  6 20  1  0  0  0  0
  7  2  1  0  0  0  0
  7 14  2  0  0  0  0
  8  9  1  0  0  0  0
  9 11  2  0  0  0  0
  9 16  1  0  0  0  0
 10 12  1  6  0  0  0
 10 13  1  0  0  0  0
 13 18  2  0  0  0  0
 14 15  1  0  0  0  0
 15  1  1  0  0  0  0
 16 20  1  6  0  0  0
 16  7  1  0  0  0  0
 17 31  1  1  0  0  0
 17 12  1  0  0  0  0
 19  6  1  0  0  0  0
 19  8  1  0  0  0  0
 21 23  1  6  0  0  0
 21 26  1  0  0  0  0
 25 15  1  6  0  0  0
 25 27  1  0  0  0  0
 26 30  1  0  0  0  0
 27 24  1  0  0  0  0
 28 29  1  1  0  0  0
 28 21  1  0  0  0  0
 28 25  1  0  0  0  0
 30 24  2  0  0  0  0
 30 22  1  0  0  0  0
 31 32  1  0  0  0  0
M  END
>  <MODEL>
2

>  <REMARK>
 VINA RESULT:     -10.3      2.667      7.514
  Name = 
  2 active torsions:
  status: ('A' for Active; 'I' for Inactive)
    1  A    between atoms: C_13  and  C_29
    2  A    between atoms: C_16  and  N_27
                            x       y       z     vdW  Elec       q    Type
                         _______ _______ _______ _____ _____    ______ ____

>  <TORSDO>
F 2

$$$$
=
 OpenBabel10272413133D

 32 37  0  0  1  0  0  0  0  0999 V2000
  186.3090  178.0150  143.6580 C   0  0  1  0  0  3  0  0  0  0  0  0
  188.4820  177.9650  142.5520 C   0  0  0  0  0  0  0  0  0  0  0  0
  185.6100  177.8650  144.7900 C   0  0  0  0  0  3  0  0  0  0  0  0
  187.7840  177.9650  143.6990 C   0  0  0  0  0  0  0  0  0  0  0  0
  189.9910  178.0280  142.5730 C   0  0  2  0  0  3  0  0  0  0  0  0
  188.7600  177.3660  137.5530 C   0  0  0  0  0  2  0  0  0  0  0  0
  187.7940  178.0490  141.2410 C   0  0  0  0  0  0  0  0  0  0  0  0
  190.6800  177.0080  139.0750 O   0  0  0  0  0  0  0  0  0  0  0  0
  190.0040  177.5220  140.1830 C   0  0  0  0  0  0  0  0  0  0  0  0
  188.5120  177.9930  145.0220 C   0  0  0  0  0  0  0  0  0  0  0  0
  190.5710  177.4700  141.3530 N   0  0  0  0  0  0  0  0  0  0  0  0
  189.6970  177.0380  144.9690 C   0  0  0  0  0  2  0  0  0  0  0  0
  187.6170  177.6630  146.1870 C   0  0  0  0  0  3  0  0  0  0  0  0
  186.4600  178.1860  141.1890 C   0  0  0  0  0  3  0  0  0  0  0  0
  185.6590  178.1780  142.3840 N   0  0  0  0  0  0  0  0  0  0  0  0
  188.6220  178.0990  139.9790 C   0  0  1  0  0  3  0  0  0  0  0  0
  190.6500  177.3780  143.8100 C   0  0  2  0  0  3  0  0  0  0  0  0
  186.2850  177.6380  146.0820 C   0  0  0  0  0  3  0  0  0  0  0  0
  190.2860  177.3400  137.7440 C   0  0  0  0  0  2  0  0  0  0  0  0
  187.9650  177.2880  138.8590 C   0  0  0  0  0  2  0  0  0  0  0  0
  182.7290  179.4840  140.5590 C   0  0  1  0  0  3  0  0  0  0  0  0
  179.9830  178.9820  143.0970 N   0  0  0  0  0  1  0  0  0  0  0  0
  182.4980  179.6800  139.0720 C   0  0  0  0  0  1  0  0  0  0  0  0
  182.2810  179.2640  143.4620 N   0  0  0  0  0  0  0  0  0  0  0  0
  184.2050  178.2950  142.2860 C   0  0  1  0  0  3  0  0  0  0  0  0
  181.4940  179.2050  141.2120 O   0  0  0  0  0  0  0  0  0  0  0  0
  183.6940  179.4480  143.1510 C   0  0  0  0  0  2  0  0  0  0  0  0
  183.7700  178.3850  140.8180 C   0  0  1  0  0  3  0  0  0  0  0  0
  183.2910  177.0210  140.3460 C   0  0  0  0  0  1  0  0  0  0  0  0
  181.3050  179.1630  142.6040 C   0  0  0  0  0  0  0  0  0  0  0  0
  191.8310  178.2090  144.2940 C   0  0  0  0  0  2  0  0  0  0  0  0
  191.5930  179.5710  144.0960 O   0  0  0  0  0  1  0  0  0  0  0  0
  1  4  1  0  0  0  0
  1  3  1  6  0  0  0
  2  5  1  0  0  0  0
  2  4  2  0  0  0  0
  3 18  2  0  0  0  0
  4 10  1  0  0  0  0
  5 11  1  6  0  0  0
  5 17  1  0  0  0  0
  6 19  1  0  0  0  0
  6 20  1  0  0  0  0
  7  2  1  0  0  0  0
  8  9  1  0  0  0  0
  9 11  2  0  0  0  0
 10 13  2  0  0  0  0
 12 10  1  0  0  0  0
 14  7  2  0  0  0  0
 14 15  1  0  0  0  0
 15  1  1  0  0  0  0
 16 20  1  6  0  0  0
 16  9  1  0  0  0  0
 16  7  1  0  0  0  0
 17 31  1  1  0  0  0
 17 12  1  0  0  0  0
 18 13  1  0  0  0  0
 19  8  1  0  0  0  0
 21 23  1  6  0  0  0
 21 28  1  0  0  0  0
 21 26  1  0  0  0  0
 25 15  1  6  0  0  0
 25 27  1  0  0  0  0
 26 30  1  0  0  0  0
 27 24  1  0  0  0  0
 28 29  1  1  0  0  0
 28 25  1  0  0  0  0
 30 22  1  0  0  0  0
 30 24  2  0  0  0  0
 32 31  1  0  0  0  0
M  END
>  <MODEL>
3

>  <REMARK>
 VINA RESULT:      -9.9      2.005      2.619
  Name = 
  2 active torsions:
  status: ('A' for Active; 'I' for Inactive)
    1  A    between atoms: C_13  and  C_29
    2  A    between atoms: C_16  and  N_27
                            x       y       z     vdW  Elec       q    Type
                         _______ _______ _______ _____ _____    ______ ____

>  <TORSDO>
F 2

$$$$
=
 OpenBabel10272413133D

 32 37  0  0  1  0  0  0  0  0999 V2000
  189.8460  177.5640  142.7580 C   0  0  1  0  0  3  0  0  0  0  0  0
  187.7850  177.7230  144.0520 C   0  0  0  0  0  0  0  0  0  0  0  0
  191.1840  177.5820  142.7530 C   0  0  0  0  0  3  0  0  0  0  0  0
  189.1210  177.5900  144.0450 C   0  0  0  0  0  0  0  0  0  0  0  0
  187.0140  177.6400  145.3490 C   0  0  2  0  0  3  0  0  0  0  0  0
  183.4540  178.9250  141.7670 C   0  0  0  0  0  2  0  0  0  0  0  0
  187.0200  177.8080  142.7850 C   0  0  0  0  0  0  0  0  0  0  0  0
  183.7860  179.0710  144.2170 O   0  0  0  0  0  0  0  0  0  0  0  0
  185.0270  178.4330  144.1700 C   0  0  0  0  0  0  0  0  0  0  0  0
  189.8640  177.3930  145.3430 C   0  0  0  0  0  0  0  0  0  0  0  0
  185.7320  178.3360  145.2590 N   0  0  0  0  0  0  0  0  0  0  0  0
  189.2990  178.3330  146.4000 C   0  0  0  0  0  2  0  0  0  0  0  0
  191.3500  177.5880  145.2010 C   0  0  0  0  0  3  0  0  0  0  0  0
  187.6530  177.6930  141.6080 C   0  0  0  0  0  3  0  0  0  0  0  0
  189.0850  177.5650  141.5370 N   0  0  0  0  0  0  0  0  0  0  0  0
  185.5130  177.9030  142.8410 C   0  0  1  0  0  3  0  0  0  0  0  0
  187.7860  178.1260  146.5950 C   0  0  2  0  0  3  0  0  0  0  0  0
  191.9540  177.6420  144.0100 C   0  0  0  0  0  3  0  0  0  0  0  0
  182.8270  178.9090  143.1720 C   0  0  0  0  0  2  0  0  0  0  0  0
  184.9820  178.8510  141.7640 C   0  0  0  0  0  2  0  0  0  0  0  0
  188.8580  176.7140  137.9520 C   0  0  1  0  0  3  0  0  0  0  0  0
  192.5000  176.6390  136.9710 N   0  0  0  0  0  1  0  0  0  0  0  0
  187.7080  176.8600  136.9730 C   0  0  0  0  0  1  0  0  0  0  0  0
  191.5440  176.2740  139.0790 N   0  0  0  0  0  0  0  0  0  0  0  0
  189.7440  177.4770  140.2340 C   0  0  1  0  0  3  0  0  0  0  0  0
  190.1010  176.8420  137.2680 O   0  0  0  0  0  0  0  0  0  0  0  0
  190.5090  176.1610  140.1010 C   0  0  0  0  0  2  0  0  0  0  0  0
  188.7370  177.7230  139.1040 C   0  0  1  0  0  3  0  0  0  0  0  0
  188.8570  179.1600  138.6200 C   0  0  0  0  0  1  0  0  0  0  0  0
  191.3630  176.5690  137.8220 C   0  0  0  0  0  0  0  0  0  0  0  0
  187.5040  177.2280  147.7920 C   0  0  0  0  0  2  0  0  0  0  0  0
  188.1590  177.7010  148.9310 O   0  0  0  0  0  1  0  0  0  0  0  0
  1  3  1  6  0  0  0
  1  4  1  0  0  0  0
  3 18  2  0  0  0  0
  4  2  2  0  0  0  0
  4 10  1  0  0  0  0
  5  2  1  6  0  0  0
  5 17  1  0  0  0  0
  6 19  1  0  0  0  0
  7 16  1  0  0  0  0
  7  2  1  0  0  0  0
  9  8  1  0  0  0  0
  9 11  2  0  0  0  0
 10 12  1  0  0  0  0
 11  5  1  0  0  0  0
 12 17  1  0  0  0  0
 13 10  2  0  0  0  0
 14  7  2  0  0  0  0
 15 14  1  0  0  0  0
 15  1  1  0  0  0  0
 16 20  1  6  0  0  0
 16  9  1  0  0  0  0
 17 31  1  1  0  0  0
 18 13  1  0  0  0  0
 19  8  1  0  0  0  0
 20  6  1  0  0  0  0
 21 23  1  6  0  0  0
 21 28  1  0  0  0  0
 22 30  1  0  0  0  0
 24 27  1  0  0  0  0
 25 27  1  6  0  0  0
 25 15  1  0  0  0  0
 26 30  1  0  0  0  0
 26 21  1  0  0  0  0
 28 29  1  6  0  0  0
 28 25  1  0  0  0  0
 30 24  2  0  0  0  0
 31 32  1  0  0  0  0
M  END
>  <MODEL>
4

>  <REMARK>
 VINA RESULT:      -9.8      3.223      6.352
  Name = 
  2 active torsions:
  status: ('A' for Active; 'I' for Inactive)
    1  A    between atoms: C_13  and  C_29
    2  A    between atoms: C_16  and  N_27
                            x       y       z     vdW  Elec       q    Type
                         _______ _______ _______ _____ _____    ______ ____

>  <TORSDO>
F 2

$$$$
=
 OpenBabel10272413133D

 32 37  0  0  1  0  0  0  0  0999 V2000
  185.7430  178.5270  142.6300 C   0  0  1  0  0  3  0  0  0  0  0  0
  188.0750  177.8970  142.2910 C   0  0  0  0  0  0  0  0  0  0  0  0
  184.7120  178.6430  143.4770 C   0  0  0  0  0  3  0  0  0  0  0  0
  187.0760  178.1600  143.1490 C   0  0  0  0  0  0  0  0  0  0  0  0
  189.4710  177.6300  142.7990 C   0  0  2  0  0  3  0  0  0  0  0  0
  189.7410  176.7780  137.6650 C   0  0  0  0  0  2  0  0  0  0  0  0
  187.8690  178.0040  140.8260 C   0  0  0  0  0  0  0  0  0  0  0  0
  190.9500  176.1560  139.7350 O   0  0  0  0  0  0  0  0  0  0  0  0
  190.1060  176.9080  140.5530 C   0  0  0  0  0  0  0  0  0  0  0  0
  187.3410  178.1540  144.6350 C   0  0  0  0  0  0  0  0  0  0  0  0
  190.2520  176.8450  141.8440 N   0  0  0  0  0  0  0  0  0  0  0  0
  188.2210  176.9620  144.9890 C   0  0  0  0  0  2  0  0  0  0  0  0
  186.0780  178.1410  145.4540 C   0  0  0  0  0  3  0  0  0  0  0  0
  186.6900  178.4250  140.3420 C   0  0  0  0  0  3  0  0  0  0  0  0
  185.5790  178.7070  141.2120 N   0  0  0  0  0  0  0  0  0  0  0  0
  189.0350  177.7510  139.9000 C   0  0  1  0  0  3  0  0  0  0  0  0
  189.5390  176.9730  144.1950 C   0  0  2  0  0  3  0  0  0  0  0  0
  184.8780  178.3970  144.9220 C   0  0  0  0  0  3  0  0  0  0  0  0
  191.0800  176.4370  138.3410 C   0  0  0  0  0  2  0  0  0  0  0  0
  188.5850  177.0010  138.6440 C   0  0  0  0  0  2  0  0  0  0  0  0
  182.4780  177.7950  139.4300 C   0  0  1  0  0  3  0  0  0  0  0  0
  181.1570  181.1890  138.4470 N   0  0  0  0  0  1  0  0  0  0  0  0
  181.6410  176.5310  139.4880 C   0  0  0  0  0  1  0  0  0  0  0  0
  183.3700  180.5460  138.8690 N   0  0  0  0  0  0  0  0  0  0  0  0
  184.3000  179.1290  140.6450 C   0  0  1  0  0  3  0  0  0  0  0  0
  181.6500  178.9160  139.1400 O   0  0  0  0  0  0  0  0  0  0  0  0
  184.4890  179.6840  139.2330 C   0  0  0  0  0  2  0  0  0  0  0  0
  183.2720  177.9940  140.7290 C   0  0  1  0  0  3  0  0  0  0  0  0
  182.3610  178.2220  141.9260 C   0  0  0  0  0  1  0  0  0  0  0  0
  182.1130  180.2050  138.8210 C   0  0  0  0  0  0  0  0  0  0  0  0
  190.6730  177.5680  145.0200 C   0  0  0  0  0  2  0  0  0  0  0  0
  191.6680  176.6160  145.2530 O   0  0  0  0  0  1  0  0  0  0  0  0
  1  4  1  0  0  0  0
  1  3  1  6  0  0  0
  2  5  1  0  0  0  0
  2  4  2  0  0  0  0
  3 18  2  0  0  0  0
  4 10  1  0  0  0  0
  5 11  1  6  0  0  0
  5 17  1  0  0  0  0
  6 19  1  0  0  0  0
  6 20  1  0  0  0  0
  7  2  1  0  0  0  0
  8  9  1  0  0  0  0
  9 11  2  0  0  0  0
 10 12  1  0  0  0  0
 10 13  2  0  0  0  0
 14  7  2  0  0  0  0
 14 15  1  0  0  0  0
 15  1  1  0  0  0  0
 16 20  1  6  0  0  0
 16  9  1  0  0  0  0
 16  7  1  0  0  0  0
 17 12  1  0  0  0  0
 17 31  1  1  0  0  0
 18 13  1  0  0  0  0
 19  8  1  0  0  0  0
 21 23  1  1  0  0  0
 21 28  1  0  0  0  0
 22 30  1  0  0  0  0
 24 27  1  0  0  0  0
 25 27  1  6  0  0  0
 25 28  1  0  0  0  0
 25 15  1  0  0  0  0
 26 21  1  0  0  0  0
 28 29  1  1  0  0  0
 30 24  2  0  0  0  0
 30 26  1  0  0  0  0
 31 32  1  0  0  0  0
M  END
>  <MODEL>
5

>  <REMARK>
 VINA RESULT:      -9.7      1.045      1.147
  Name = 
  2 active torsions:
  status: ('A' for Active; 'I' for Inactive)
    1  A    between atoms: C_13  and  C_29
    2  A    between atoms: C_16  and  N_27
                            x       y       z     vdW  Elec       q    Type
                         _______ _______ _______ _____ _____    ______ ____

>  <TORSDO>
F 2

$$$$
=
 OpenBabel10272413133D

 32 37  0  0  1  0  0  0  0  0999 V2000
  187.2780  178.1540  141.1210 C   0  0  1  0  0  3  0  0  0  0  0  0
  188.3080  177.5010  143.2330 C   0  0  0  0  0  0  0  0  0  0  0  0
  187.4330  178.4050  139.8150 C   0  0  0  0  0  3  0  0  0  0  0  0
  188.4110  177.6140  141.8990 C   0  0  0  0  0  0  0  0  0  0  0  0
  189.4090  176.8480  144.0340 C   0  0  2  0  0  3  0  0  0  0  0  0
  186.0540  178.6360  147.5980 C   0  0  0  0  0  2  0  0  0  0  0  0
  187.0570  177.8780  143.9350 C   0  0  0  0  0  0  0  0  0  0  0  0
  188.4400  177.9940  147.4250 O   0  0  0  0  0  0  0  0  0  0  0  0
  188.3320  177.6370  146.0800 C   0  0  0  0  0  0  0  0  0  0  0  0
  189.6520  177.1180  141.1970 C   0  0  0  0  0  0  0  0  0  0  0  0
  189.4030  177.2990  145.4250 N   0  0  0  0  0  0  0  0  0  0  0  0
  190.8840  177.5280  141.9930 C   0  0  0  0  0  2  0  0  0  0  0  0
  189.7530  177.6050  139.7760 C   0  0  0  0  0  3  0  0  0  0  0  0
  185.9880  178.2840  143.2340 C   0  0  0  0  0  3  0  0  0  0  0  0
  186.0440  178.4390  141.8040 N   0  0  0  0  0  0  0  0  0  0  0  0
  186.9670  177.6850  145.4310 C   0  0  1  0  0  3  0  0  0  0  0  0
  190.8260  177.0070  143.4400 C   0  0  2  0  0  3  0  0  0  0  0  0
  188.7210  178.1660  139.1370 C   0  0  0  0  0  3  0  0  0  0  0  0
  187.2950  178.0340  148.2790 C   0  0  0  0  0  2  0  0  0  0  0  0
  186.2030  178.8360  146.0890 C   0  0  0  0  0  2  0  0  0  0  0  0
  182.9590  177.6350  139.9450 C   0  0  1  0  0  3  0  0  0  0  0  0
  182.1680  180.9570  138.3400 N   0  0  0  0  0  1  0  0  0  0  0  0
  181.9560  176.5120  140.1330 C   0  0  0  0  0  1  0  0  0  0  0  0
  184.2460  180.1230  139.0330 N   0  0  0  0  0  0  0  0  0  0  0  0
  184.8690  178.9170  141.0770 C   0  0  1  0  0  3  0  0  0  0  0  0
  182.3080  178.7870  139.4170 O   0  0  0  0  0  0  0  0  0  0  0  0
  185.2150  179.2020  139.6160 C   0  0  0  0  0  2  0  0  0  0  0  0
  183.6940  177.9470  141.2560 C   0  0  1  0  0  3  0  0  0  0  0  0
  182.7530  178.4820  142.3260 C   0  0  0  0  0  1  0  0  0  0  0  0
  182.9590  179.9370  138.9390 C   0  0  0  0  0  0  0  0  0  0  0  0
  191.6250  175.7200  143.5940 C   0  0  0  0  0  2  0  0  0  0  0  0
  192.0270  175.5410  144.9190 O   0  0  0  0  0  1  0  0  0  0  0  0
  1  3  1  1  0  0  0
  1 15  1  0  0  0  0
  1  4  1  0  0  0  0
  2  7  1  0  0  0  0
  4  2  2  0  0  0  0
  5  2  1  6  0  0  0
  5 11  1  0  0  0  0
  6 19  1  0  0  0  0
  7 16  1  0  0  0  0
  8 19  1  0  0  0  0
  9  8  1  0  0  0  0
 10  4  1  0  0  0  0
 10 12  1  0  0  0  0
 11  9  2  0  0  0  0
 12 17  1  0  0  0  0
 13 10  2  0  0  0  0
 14  7  2  0  0  0  0
 15 14  1  0  0  0  0
 16  9  1  0  0  0  0
 16 20  1  1  0  0  0
 17 31  1  6  0  0  0
 17  5  1  0  0  0  0
 18 13  1  0  0  0  0
 18  3  2  0  0  0  0
 20  6  1  0  0  0  0
 21 23  1  1  0  0  0
 21 28  1  0  0  0  0
 22 30  1  0  0  0  0
 24 27  1  0  0  0  0
 25 27  1  6  0  0  0
 25 28  1  0  0  0  0
 25 15  1  0  0  0  0
 26 21  1  0  0  0  0
 28 29  1  1  0  0  0
 30 24  2  0  0  0  0
 30 26  1  0  0  0  0
 31 32  1  0  0  0  0
M  END
>  <MODEL>
6

>  <REMARK>
 VINA RESULT:      -9.4      1.763      4.687
  Name = 
  2 active torsions:
  status: ('A' for Active; 'I' for Inactive)
    1  A    between atoms: C_13  and  C_29
    2  A    between atoms: C_16  and  N_27
                            x       y       z     vdW  Elec       q    Type
                         _______ _______ _______ _____ _____    ______ ____

>  <TORSDO>
F 2

$$$$
=
 OpenBabel10272413133D

 32 37  0  0  1  0  0  0  0  0999 V2000
  189.4700  177.6040  141.2870 C   0  0  1  0  0  3  0  0  0  0  0  0
  188.1920  177.6780  143.3640 C   0  0  0  0  0  0  0  0  0  0  0  0
  190.6700  177.6000  140.6950 C   0  0  0  0  0  3  0  0  0  0  0  0
  189.3810  177.5230  142.7590 C   0  0  0  0  0  0  0  0  0  0  0  0
  188.0610  177.4870  144.8560 C   0  0  2  0  0  3  0  0  0  0  0  0
  183.3740  179.1630  143.3140 C   0  0  0  0  0  2  0  0  0  0  0  0
  186.9570  177.8940  142.5720 C   0  0  0  0  0  0  0  0  0  0  0  0
  184.7490  179.0740  145.3710 O   0  0  0  0  0  0  0  0  0  0  0  0
  185.8070  178.4220  144.7350 C   0  0  0  0  0  0  0  0  0  0  0  0
  190.6040  177.1920  143.5800 C   0  0  0  0  0  0  0  0  0  0  0  0
  186.9090  178.2110  145.3930 N   0  0  0  0  0  0  0  0  0  0  0  0
  190.6110  178.0390  144.8460 C   0  0  0  0  0  2  0  0  0  0  0  0
  191.8880  177.3740  142.8140 C   0  0  0  0  0  3  0  0  0  0  0  0
  187.0060  177.8790  141.2310 C   0  0  0  0  0  3  0  0  0  0  0  0
  188.2530  177.7330  140.5280 N   0  0  0  0  0  0  0  0  0  0  0  0
  185.6340  178.0100  143.2920 C   0  0  1  0  0  3  0  0  0  0  0  0
  189.3250  177.8410  145.6690 C   0  0  2  0  0  3  0  0  0  0  0  0
  191.9130  177.5290  141.4870 C   0  0  0  0  0  3  0  0  0  0  0  0
  183.4230  179.0270  144.8450 C   0  0  0  0  0  2  0  0  0  0  0  0
  184.7410  179.0640  142.6330 C   0  0  0  0  0  2  0  0  0  0  0  0
  186.8730  176.4670  137.3480 C   0  0  1  0  0  3  0  0  0  0  0  0
  189.4640  177.6630  134.8810 N   0  0  0  0  0  1  0  0  0  0  0  0
  185.4590  176.0560  136.9790 C   0  0  0  0  0  1  0  0  0  0  0  0
  189.7190  177.2020  137.1640 N   0  0  0  0  0  0  0  0  0  0  0  0
  188.2720  177.7570  139.0670 C   0  0  1  0  0  3  0  0  0  0  0  0
  187.5480  176.9770  136.2030 O   0  0  0  0  0  0  0  0  0  0  0  0
  189.3520  176.8210  138.5230 C   0  0  0  0  0  2  0  0  0  0  0  0
  186.8720  177.4760  138.5050 C   0  0  1  0  0  3  0  0  0  0  0  0
  186.2080  178.7880  138.1190 C   0  0  0  0  0  1  0  0  0  0  0  0
  188.9220  177.2650  136.1340 C   0  0  0  0  0  0  0  0  0  0  0  0
  189.5430  176.8400  146.7960 C   0  0  0  0  0  2  0  0  0  0  0  0
  190.8950  176.7640  147.1370 O   0  0  0  0  0  1  0  0  0  0  0  0
  1  3  1  1  0  0  0
  1  4  1  0  0  0  0
  3 18  2  0  0  0  0
  4  2  2  0  0  0  0
  4 10  1  0  0  0  0
  5  2  1  6  0  0  0
  5 11  1  0  0  0  0
  5 17  1  0  0  0  0
  6 19  1  0  0  0  0
  7 16  1  0  0  0  0
  7  2  1  0  0  0  0
  9  8  1  0  0  0  0
  9 11  2  0  0  0  0
 10 12  1  0  0  0  0
 12 17  1  0  0  0  0
 13 10  2  0  0  0  0
 14  7  2  0  0  0  0
 15 14  1  0  0  0  0
 15  1  1  0  0  0  0
 16 20  1  6  0  0  0
 16  9  1  0  0  0  0
 17 31  1  1  0  0  0
 18 13  1  0  0  0  0
 19  8  1  0  0  0  0
 20  6  1  0  0  0  0
 21 23  1  6  0  0  0
 21 28  1  0  0  0  0
 22 30  1  0  0  0  0
 24 27  1  0  0  0  0
 25 27  1  6  0  0  0
 25 15  1  0  0  0  0
 26 21  1  0  0  0  0
 28 29  1  6  0  0  0
 28 25  1  0  0  0  0
 30 26  1  0  0  0  0
 30 24  2  0  0  0  0
 31 32  1  0  0  0  0
M  END
>  <MODEL>
7

>  <REMARK>
 VINA RESULT:      -9.4      3.071      5.648
  Name = 
  2 active torsions:
  status: ('A' for Active; 'I' for Inactive)
    1  A    between atoms: C_13  and  C_29
    2  A    between atoms: C_16  and  N_27
                            x       y       z     vdW  Elec       q    Type
                         _______ _______ _______ _____ _____    ______ ____

>  <TORSDO>
F 2

$$$$
=
 OpenBabel10272413133D

 32 37  0  0  1  0  0  0  0  0999 V2000
  187.4140  178.1220  141.1040 C   0  0  0  0  0  0  0  0  0  0  0  0
  188.4780  177.3880  139.0350 C   0  0  0  0  0  0  0  0  0  0  0  0
  186.3820  178.7400  141.6900 C   0  0  0  0  0  3  0  0  0  0  0  0
  187.3850  177.8710  139.6490 C   0  0  0  0  0  0  0  0  0  0  0  0
  188.4340  177.0200  137.5720 C   0  0  2  0  0  3  0  0  0  0  0  0
  193.4250  176.4190  138.9440 C   0  0  0  0  0  2  0  0  0  0  0  0
  189.7050  177.0690  139.8040 C   0  0  0  0  0  0  0  0  0  0  0  0
  192.0740  176.7980  136.9030 O   0  0  0  0  0  0  0  0  0  0  0  0
  190.8650  176.7860  137.6000 C   0  0  0  0  0  0  0  0  0  0  0  0
  186.1140  178.0820  138.8640 C   0  0  2  0  0  3  0  0  0  0  0  0
  189.7640  177.0600  136.9660 N   0  0  0  0  0  0  0  0  0  0  0  0
  186.4460  178.7090  137.5160 C   0  0  0  0  0  2  0  0  0  0  0  0
  185.1030  178.9190  139.6030 C   0  0  0  0  0  3  0  0  0  0  0  0
  189.7170  177.2040  141.1380 C   0  0  0  0  0  3  0  0  0  0  0  0
  188.5820  177.7310  141.8490 N   0  0  0  0  0  0  0  0  0  0  0  0
  190.8920  176.4770  139.0800 C   0  0  1  0  0  3  0  0  0  0  0  0
  187.4480  177.8520  136.7220 C   0  0  2  0  0  3  0  0  0  0  0  0
  185.2160  179.1910  140.9070 C   0  0  0  0  0  3  0  0  0  0  0  0
  193.2460  176.1790  137.4350 C   0  0  0  0  0  2  0  0  0  0  0  0
  192.2050  177.0410  139.6270 C   0  0  0  0  0  2  0  0  0  0  0  0
  190.2280  176.8760  145.0400 C   0  0  1  0  0  3  0  0  0  0  0  0
  187.7040  178.1400  147.5440 N   0  0  0  0  0  1  0  0  0  0  0  0
  191.6860  176.5970  145.3560 C   0  0  0  0  0  1  0  0  0  0  0  0
  187.3520  177.4400  145.3350 N   0  0  0  0  0  0  0  0  0  0  0  0
  188.6450  177.8970  143.3000 C   0  0  1  0  0  3  0  0  0  0  0  0
  189.5840  177.4520  146.1730 O   0  0  0  0  0  0  0  0  0  0  0  0
  187.6670  176.9520  143.9970 C   0  0  0  0  0  2  0  0  0  0  0  0
  190.0910  177.7640  143.7950 C   0  0  1  0  0  3  0  0  0  0  0  0
  190.6820  179.1490  144.0130 C   0  0  0  0  0  1  0  0  0  0  0  0
  188.2000  177.6560  146.3010 C   0  0  0  0  0  0  0  0  0  0  0  0
  186.7320  176.9720  135.7060 C   0  0  0  0  0  2  0  0  0  0  0  0
  186.6210  175.6610  136.1750 O   0  0  0  0  0  1  0  0  0  0  0  0
  1  3  2  0  0  0  0
  1 15  1  0  0  0  0
  2  4  2  0  0  0  0
  2  7  1  0  0  0  0
  4  1  1  0  0  0  0
  5 11  1  6  0  0  0
  5  2  1  0  0  0  0
  6 20  1  0  0  0  0
  7 14  2  0  0  0  0
  8 19  1  0  0  0  0
  8  9  1  0  0  0  0
  9 16  1  0  0  0  0
 10 12  1  6  0  0  0
 10 13  1  0  0  0  0
 10  4  1  0  0  0  0
 11  9  2  0  0  0  0
 13 18  2  0  0  0  0
 14 15  1  0  0  0  0
 16 20  1  1  0  0  0
 16  7  1  0  0  0  0
 17 31  1  1  0  0  0
 17 12  1  0  0  0  0
 17  5  1  0  0  0  0
 18  3  1  0  0  0  0
 19  6  1  0  0  0  0
 21 23  1  1  0  0  0
 21 26  1  0  0  0  0
 24 30  2  0  0  0  0
 25 15  1  6  0  0  0
 25 28  1  0  0  0  0
 25 27  1  0  0  0  0
 26 30  1  0  0  0  0
 27 24  1  0  0  0  0
 28 29  1  1  0  0  0
 28 21  1  0  0  0  0
 30 22  1  0  0  0  0
 31 32  1  0  0  0  0
M  END
>  <MODEL>
8

>  <REMARK>
 VINA RESULT:      -9.4      3.139      7.021
  Name = 
  2 active torsions:
  status: ('A' for Active; 'I' for Inactive)
    1  A    between atoms: C_13  and  C_29
    2  A    between atoms: C_16  and  N_27
                            x       y       z     vdW  Elec       q    Type
                         _______ _______ _______ _____ _____    ______ ____

>  <TORSDO>
F 2

$$$$
=
 OpenBabel10272413133D

 32 37  0  0  1  0  0  0  0  0999 V2000
  185.8870  178.3790  143.3950 C   0  0  0  0  0  0  0  0  0  0  0  0
  185.4870  178.3340  140.9890 C   0  0  0  0  0  0  0  0  0  0  0  0
  185.3990  178.6070  144.6210 C   0  0  0  0  0  3  0  0  0  0  0  0
  184.9800  178.4130  142.2300 C   0  0  0  0  0  0  0  0  0  0  0  0
  184.5720  178.2540  139.7910 C   0  0  2  0  0  3  0  0  0  0  0  0
  189.3650  178.6170  137.7790 C   0  0  0  0  0  2  0  0  0  0  0  0
  186.9450  178.1770  140.7710 C   0  0  0  0  0  0  0  0  0  0  0  0
  187.0170  179.0460  137.1180 O   0  0  0  0  0  0  0  0  0  0  0  0
  186.5060  178.6100  138.3420 C   0  0  0  0  0  0  0  0  0  0  0  0
  183.4840  178.4590  142.4290 C   0  0  2  0  0  3  0  0  0  0  0  0
  185.2320  178.7280  138.5760 N   0  0  0  0  0  0  0  0  0  0  0  0
  182.8630  179.3950  141.4000 C   0  0  0  0  0  2  0  0  0  0  0  0
  183.0930  178.8720  143.8230 C   0  0  0  0  0  3  0  0  0  0  0  0
  187.7730  178.0520  141.8190 C   0  0  0  0  0  3  0  0  0  0  0  0
  187.2890  178.1440  143.1720 N   0  0  0  0  0  0  0  0  0  0  0  0
  187.4660  178.0380  139.3590 C   0  0  1  0  0  3  0  0  0  0  0  0
  183.2150  178.9720  139.9620 C   0  0  2  0  0  3  0  0  0  0  0  0
  183.9700  178.9060  144.8310 C   0  0  0  0  0  3  0  0  0  0  0  0
  188.3070  178.6360  136.6620 C   0  0  0  0  0  2  0  0  0  0  0  0
  188.7910  178.7850  139.1870 C   0  0  0  0  0  2  0  0  0  0  0  0
  190.3220  176.5920  144.5920 C   0  0  1  0  0  3  0  0  0  0  0  0
  190.0380  177.5840  148.2210 N   0  0  0  0  0  1  0  0  0  0  0  0
  191.6070  176.1410  143.9220 C   0  0  0  0  0  1  0  0  0  0  0  0
  188.3320  177.3280  146.6350 N   0  0  0  0  0  0  0  0  0  0  0  0
  188.2270  178.0390  144.2890 C   0  0  1  0  0  3  0  0  0  0  0  0
  190.5870  177.0040  145.9290 O   0  0  0  0  0  0  0  0  0  0  0  0
  187.7030  177.0660  145.3460 C   0  0  0  0  0  2  0  0  0  0  0  0
  189.6340  177.7000  143.7810 C   0  0  1  0  0  3  0  0  0  0  0  0
  190.4710  178.9680  143.7210 C   0  0  0  0  0  1  0  0  0  0  0  0
  189.6090  177.2940  146.8960 C   0  0  0  0  0  0  0  0  0  0  0  0
  182.0890  178.1580  139.3380 C   0  0  0  0  0  2  0  0  0  0  0  0
  182.4270  176.8050  139.2820 O   0  0  0  0  0  1  0  0  0  0  0  0
  1  3  2  0  0  0  0
  2  4  2  0  0  0  0
  3 18  1  0  0  0  0
  4 10  1  0  0  0  0
  4  1  1  0  0  0  0
  5 11  1  6  0  0  0
  5 17  1  0  0  0  0
  5  2  1  0  0  0  0
  6 20  1  0  0  0  0
  7  2  1  0  0  0  0
  7 14  2  0  0  0  0
  8  9  1  0  0  0  0
  9 11  2  0  0  0  0
  9 16  1  0  0  0  0
 10 12  1  6  0  0  0
 10 13  1  0  0  0  0
 13 18  2  0  0  0  0
 14 15  1  0  0  0  0
 15  1  1  0  0  0  0
 16 20  1  1  0  0  0
 16  7  1  0  0  0  0
 17 31  1  1  0  0  0
 17 12  1  0  0  0  0
 19  8  1  0  0  0  0
 19  6  1  0  0  0  0
 21 23  1  6  0  0  0
 21 26  1  0  0  0  0
 24 30  2  0  0  0  0
 25 15  1  6  0  0  0
 25 27  1  0  0  0  0
 26 30  1  0  0  0  0
 27 24  1  0  0  0  0
 28 29  1  1  0  0  0
 28 25  1  0  0  0  0
 28 21  1  0  0  0  0
 30 22  1  0  0  0  0
 32 31  1  0  0  0  0
M  END
>  <MODEL>
9

>  <REMARK>
 VINA RESULT:      -9.3      2.240      6.961
  Name = 
  2 active torsions:
  status: ('A' for Active; 'I' for Inactive)
    1  A    between atoms: C_13  and  C_29
    2  A    between atoms: C_16  and  N_27
                            x       y       z     vdW  Elec       q    Type
                         _______ _______ _______ _____ _____    ______ ____

>  <TORSDO>
F 2

$$$$
