=
 OpenBabel10272400093D

 34 38  0  0  1  0  0  0  0  0999 V2000
  190.5000  177.2100  146.5610 C   0  0  0  0  0  0  0  0  0  0  0  0
  191.4790  175.4280  145.2280 C   0  0  0  0  0  0  0  0  0  0  0  0
  189.6190  176.9210  144.2540 C   0  0  0  0  0  0  0  0  0  0  0  0
  188.8810  177.3480  141.9730 C   0  0  0  0  0  0  0  0  0  0  0  0
  191.3930  176.9260  147.5970 C   0  0  0  0  0  3  0  0  0  0  0  0
  192.3610  175.1510  146.2770 C   0  0  0  0  0  3  0  0  0  0  0  0
  191.3680  176.8580  142.4500 C   0  0  0  0  0  2  0  0  0  0  0  0
  190.5890  176.5280  145.3270 C   0  0  0  0  0  0  0  0  0  0  0  0
  191.5770  177.5510  141.1050 C   0  0  0  0  0  2  0  0  0  0  0  0
  189.1380  177.4130  140.6640 C   0  0  0  0  0  3  0  0  0  0  0  0
  192.3370  175.9120  147.4460 C   0  0  0  0  0  3  0  0  0  0  0  0
  188.2810  177.4180  144.7110 C   0  0  0  0  0  0  0  0  0  0  0  0
  189.4090  178.2110  146.7880 C   0  0  0  0  0  2  0  0  0  0  0  0
  191.4270  174.4490  144.1040 C   0  0  0  0  0  1  0  0  0  0  0  0
  187.5990  177.6290  142.4390 O   0  0  0  0  0  0  0  0  0  0  0  0
  187.3070  177.7020  143.8090 C   0  0  0  0  0  0  0  0  0  0  0  0
  190.5000  177.0990  140.1190 C   0  0  1  0  0  3  0  0  0  0  0  0
  189.9480  177.0170  142.9460 C   0  0  0  0  0  0  0  0  0  0  0  0
  188.1050  177.6850  146.1850 C   0  0  0  0  0  2  0  0  0  0  0  0
  183.6590  178.6340  143.4880 C   0  0  0  0  0  0  0  0  0  0  0  0
  183.2860  178.8210  144.8220 C   0  0  0  0  0  3  0  0  0  0  0  0
  185.9340  178.1220  144.1830 C   0  0  0  0  0  0  0  0  0  0  0  0
  184.2290  178.6510  145.8390 C   0  0  0  0  0  3  0  0  0  0  0  0
  184.9730  178.2800  143.1730 C   0  0  0  0  0  3  0  0  0  0  0  0
  185.5430  178.2970  145.5220 C   0  0  0  0  0  3  0  0  0  0  0  0
  182.6980  178.8000  142.4530 N   0  0  0  0  0  1  0  0  0  0  0  0
  190.6790  177.7840  138.7760 C   0  0  0  0  0  2  0  0  0  0  0  0
  189.5710  177.3720  137.8220 C   0  0  0  0  0  2  0  0  0  0  0  0
  189.0780  179.7200  137.8210 O   0  0  0  0  0  1  0  0  0  0  0  0
  189.0910  178.5730  137.0230 C   0  0  2  0  0  3  0  0  0  0  0  0
  187.7090  178.3230  136.4200 C   0  0  0  0  0  2  0  0  0  0  0  0
  186.2890  178.5680  138.4600 O   0  0  0  0  0  1  0  0  0  0  0  0
  186.7370  177.7730  137.4130 C   0  0  0  0  0  0  0  0  0  0  0  0
  186.3050  176.5980  137.2870 O   0  0  0  0  0  0  0  0  0  0  0  0
  1 13  1  0  0  0  0
  1  5  1  0  0  0  0
  2  8  1  0  0  0  0
  2  6  2  0  0  0  0
  3 12  1  0  0  0  0
  3  8  1  0  0  0  0
  4 15  1  0  0  0  0
  4 18  1  0  0  0  0
  6 11  1  0  0  0  0
  7 18  1  0  0  0  0
  8  1  2  0  0  0  0
  9  7  1  0  0  0  0
 10  4  2  0  0  0  0
 11  5  2  0  0  0  0
 12 19  1  0  0  0  0
 14  2  1  0  0  0  0
 15 16  1  0  0  0  0
 16 22  1  0  0  0  0
 16 12  2  0  0  0  0
 17 27  1  6  0  0  0
 17 10  1  0  0  0  0
 17  9  1  0  0  0  0
 18  3  2  0  0  0  0
 19 13  1  0  0  0  0
 20 21  1  0  0  0  0
 21 23  2  0  0  0  0
 22 25  2  0  0  0  0
 24 20  2  0  0  0  0
 24 22  1  0  0  0  0
 25 23  1  0  0  0  0
 26 20  1  0  0  0  0
 28 27  1  0  0  0  0
 30 29  1  1  0  0  0
 30 28  1  0  0  0  0
 31 30  1  0  0  0  0
 31 33  1  0  0  0  0
 33 32  1  0  0  0  0
 34 33  2  0  0  0  0
M  END
>  <MODEL>
1

>  <REMARK>
 VINA RESULT:      -9.8      0.000      0.000
  Name = 
  6 active torsions:
  status: ('A' for Active; 'I' for Inactive)
    1  A    between atoms: C_3  and  C_13
    2  A    between atoms: C_3  and  C_29
    3  A    between atoms: C_12  and  C_28
    4  A    between atoms: C_13  and  C_33
    5  A    between atoms: C_20  and  C_22
    6  A    between atoms: C_22  and  C_33
                            x       y       z     vdW  Elec       q    Type
                         _______ _______ _______ _____ _____    ______ ____

>  <TORSDO>
F 6

$$$$
=
 OpenBabel10272400093D

 34 38  0  0  1  0  0  0  0  0999 V2000
  190.5610  177.2630  146.7480 C   0  0  0  0  0  0  0  0  0  0  0  0
  191.6120  175.4700  145.4880 C   0  0  0  0  0  0  0  0  0  0  0  0
  189.7790  176.9250  144.4120 C   0  0  0  0  0  0  0  0  0  0  0  0
  189.1330  177.3040  142.0950 C   0  0  0  0  0  0  0  0  0  0  0  0
  191.4120  177.0070  147.8240 C   0  0  0  0  0  3  0  0  0  0  0  0
  192.4530  175.2200  146.5770 C   0  0  0  0  0  3  0  0  0  0  0  0
  191.6020  176.8500  142.6830 C   0  0  0  0  0  2  0  0  0  0  0  0
  190.7070  176.5610  145.5300 C   0  0  0  0  0  0  0  0  0  0  0  0
  191.8590  177.5230  141.3350 C   0  0  0  0  0  2  0  0  0  0  0  0
  189.4430  177.3490  140.7970 C   0  0  0  0  0  3  0  0  0  0  0  0
  192.3720  176.0010  147.7300 C   0  0  0  0  0  3  0  0  0  0  0  0
  188.4180  177.4150  144.8040 C   0  0  0  0  0  0  0  0  0  0  0  0
  189.4510  178.2560  146.9120 C   0  0  0  0  0  2  0  0  0  0  0  0
  191.6180  174.4700  144.3790 C   0  0  0  0  0  1  0  0  0  0  0  0
  187.8290  177.5800  142.5020 O   0  0  0  0  0  0  0  0  0  0  0  0
  187.4800  177.6720  143.8580 C   0  0  0  0  0  0  0  0  0  0  0  0
  190.8300  177.0420  140.3140 C   0  0  1  0  0  3  0  0  0  0  0  0
  190.1610  177.0020  143.1170 C   0  0  0  0  0  0  0  0  0  0  0  0
  188.1780  177.7050  146.2640 C   0  0  0  0  0  2  0  0  0  0  0  0
  183.8410  178.5700  143.3680 C   0  0  0  0  0  0  0  0  0  0  0  0
  183.4090  178.7650  144.6830 C   0  0  0  0  0  3  0  0  0  0  0  0
  186.0880  178.0830  144.1670 C   0  0  0  0  0  0  0  0  0  0  0  0
  184.3070  178.6100  145.7410 C   0  0  0  0  0  3  0  0  0  0  0  0
  185.1720  178.2250  143.1130 C   0  0  0  0  0  3  0  0  0  0  0  0
  185.6360  178.2650  145.4850 C   0  0  0  0  0  3  0  0  0  0  0  0
  182.9260  178.7200  142.2890 N   0  0  0  0  0  1  0  0  0  0  0  0
  191.0570  177.7050  138.9680 C   0  0  0  0  0  2  0  0  0  0  0  0
  190.5020  176.8380  137.8510 C   0  0  0  0  0  2  0  0  0  0  0  0
  191.4040  174.6180  137.9820 O   0  0  0  0  0  1  0  0  0  0  0  0
  191.5620  175.8630  137.3660 C   0  0  2  0  0  3  0  0  0  0  0  0
  192.9700  176.4050  137.6070 C   0  0  0  0  0  2  0  0  0  0  0  0
  194.1280  174.5490  136.4010 O   0  0  0  0  0  0  0  0  0  0  0  0
  194.0190  175.3410  137.5350 C   0  0  0  0  0  0  0  0  0  0  0  0
  194.8180  175.1800  138.4940 O   0  0  0  0  0  1  0  0  0  0  0  0
  1 13  1  0  0  0  0
  1  5  1  0  0  0  0
  2  8  1  0  0  0  0
  2  6  2  0  0  0  0
  3 12  1  0  0  0  0
  3  8  1  0  0  0  0
  4 15  1  0  0  0  0
  4 18  1  0  0  0  0
  6 11  1  0  0  0  0
  7 18  1  0  0  0  0
  8  1  2  0  0  0  0
  9  7  1  0  0  0  0
 10  4  2  0  0  0  0
 11  5  2  0  0  0  0
 12 19  1  0  0  0  0
 14  2  1  0  0  0  0
 15 16  1  0  0  0  0
 16 22  1  0  0  0  0
 16 12  2  0  0  0  0
 17 27  1  6  0  0  0
 17 10  1  0  0  0  0
 17  9  1  0  0  0  0
 18  3  2  0  0  0  0
 19 13  1  0  0  0  0
 20 21  1  0  0  0  0
 21 23  2  0  0  0  0
 22 25  2  0  0  0  0
 24 20  2  0  0  0  0
 24 22  1  0  0  0  0
 25 23  1  0  0  0  0
 26 20  1  0  0  0  0
 28 27  1  0  0  0  0
 30 31  1  0  0  0  0
 30 28  1  0  0  0  0
 30 29  1  1  0  0  0
 32 33  2  0  0  0  0
 33 31  1  0  0  0  0
 33 34  1  0  0  0  0
M  END
>  <MODEL>
2

>  <REMARK>
 VINA RESULT:      -9.4      2.271      2.958
  Name = 
  6 active torsions:
  status: ('A' for Active; 'I' for Inactive)
    1  A    between atoms: C_3  and  C_13
    2  A    between atoms: C_3  and  C_29
    3  A    between atoms: C_12  and  C_28
    4  A    between atoms: C_13  and  C_33
    5  A    between atoms: C_20  and  C_22
    6  A    between atoms: C_22  and  C_33
                            x       y       z     vdW  Elec       q    Type
                         _______ _______ _______ _____ _____    ______ ____

>  <TORSDO>
F 6

$$$$
=
 OpenBabel10272400093D

 34 38  0  0  1  0  0  0  0  0999 V2000
  186.3600  176.7610  136.2860 C   0  0  0  0  0  0  0  0  0  0  0  0
  188.4430  177.9820  136.5620 C   0  0  0  0  0  0  0  0  0  0  0  0
  186.6570  178.0060  138.4170 C   0  0  0  0  0  0  0  0  0  0  0  0
  186.7500  178.5890  140.7800 C   0  0  0  0  0  0  0  0  0  0  0  0
  186.8110  176.2680  135.0600 C   0  0  0  0  0  3  0  0  0  0  0  0
  188.8780  177.4860  135.3290 C   0  0  0  0  0  3  0  0  0  0  0  0
  188.8040  177.5300  139.6340 C   0  0  0  0  0  2  0  0  0  0  0  0
  187.2030  177.5510  137.0990 C   0  0  0  0  0  0  0  0  0  0  0  0
  189.1910  177.1680  141.0680 C   0  0  0  0  0  2  0  0  0  0  0  0
  187.4350  178.7010  141.9200 C   0  0  0  0  0  3  0  0  0  0  0  0
  188.0780  176.6130  134.5920 C   0  0  0  0  0  3  0  0  0  0  0  0
  185.1750  178.2220  138.4900 C   0  0  0  0  0  0  0  0  0  0  0  0
  184.9490  176.4890  136.7110 C   0  0  0  0  0  2  0  0  0  0  0  0
  189.2600  179.0630  137.1880 C   0  0  0  0  0  1  0  0  0  0  0  0
  185.4040  178.9460  140.7460 O   0  0  0  0  0  0  0  0  0  0  0  0
  184.6070  178.7280  139.6130 C   0  0  0  0  0  0  0  0  0  0  0  0
  188.8910  178.3440  141.9960 C   0  0  1  0  0  3  0  0  0  0  0  0
  187.3870  178.0540  139.5540 C   0  0  0  0  0  0  0  0  0  0  0  0
  184.3480  177.7590  137.3160 C   0  0  0  0  0  2  0  0  0  0  0  0
  181.0610  178.7270  140.9220 C   0  0  0  0  0  0  0  0  0  0  0  0
  180.4430  179.6650  140.0910 C   0  0  0  0  0  3  0  0  0  0  0  0
  183.1620  179.0440  139.7360 C   0  0  0  0  0  0  0  0  0  0  0  0
  181.1800  180.3020  139.0900 C   0  0  0  0  0  3  0  0  0  0  0  0
  182.4140  178.4240  140.7480 C   0  0  0  0  0  3  0  0  0  0  0  0
  182.5320  179.9980  138.9180 C   0  0  0  0  0  3  0  0  0  0  0  0
  180.3140  178.0830  141.9470 N   0  0  0  0  0  1  0  0  0  0  0  0
  189.2570  178.0050  143.4290 C   0  0  0  0  0  2  0  0  0  0  0  0
  188.1400  177.2100  144.0840 C   0  0  0  0  0  2  0  0  0  0  0  0
  188.7810  177.0050  146.3870 O   0  0  0  0  0  1  0  0  0  0  0  0
  187.9260  177.6820  145.5140 C   0  0  2  0  0  3  0  0  0  0  0  0
  186.4710  177.5090  145.9450 C   0  0  0  0  0  2  0  0  0  0  0  0
  185.6330  179.5320  147.1490 O   0  0  0  0  0  1  0  0  0  0  0  0
  185.7190  178.8020  145.9710 C   0  0  0  0  0  0  0  0  0  0  0  0
  185.1850  179.2410  144.9200 O   0  0  0  0  0  0  0  0  0  0  0  0
  1 13  1  0  0  0  0
  1  8  1  0  0  0  0
  2  8  2  0  0  0  0
  2 14  1  0  0  0  0
  3 12  1  0  0  0  0
  3 18  2  0  0  0  0
  4 10  2  0  0  0  0
  5  1  2  0  0  0  0
  6  2  1  0  0  0  0
  7  9  1  0  0  0  0
  8  3  1  0  0  0  0
  9 17  1  0  0  0  0
 10 17  1  0  0  0  0
 11  5  1  0  0  0  0
 11  6  2  0  0  0  0
 12 16  2  0  0  0  0
 13 19  1  0  0  0  0
 15  4  1  0  0  0  0
 16 22  1  0  0  0  0
 16 15  1  0  0  0  0
 17 27  1  1  0  0  0
 18  7  1  0  0  0  0
 18  4  1  0  0  0  0
 19 12  1  0  0  0  0
 20 26  1  0  0  0  0
 21 20  2  0  0  0  0
 22 24  2  0  0  0  0
 23 21  1  0  0  0  0
 24 20  1  0  0  0  0
 25 23  2  0  0  0  0
 25 22  1  0  0  0  0
 27 28  1  0  0  0  0
 28 30  1  0  0  0  0
 30 31  1  0  0  0  0
 30 29  1  1  0  0  0
 31 33  1  0  0  0  0
 33 32  1  0  0  0  0
 34 33  2  0  0  0  0
M  END
>  <MODEL>
3

>  <REMARK>
 VINA RESULT:      -8.8      2.743      7.691
  Name = 
  6 active torsions:
  status: ('A' for Active; 'I' for Inactive)
    1  A    between atoms: C_3  and  C_13
    2  A    between atoms: C_3  and  C_29
    3  A    between atoms: C_12  and  C_28
    4  A    between atoms: C_13  and  C_33
    5  A    between atoms: C_20  and  C_22
    6  A    between atoms: C_22  and  C_33
                            x       y       z     vdW  Elec       q    Type
                         _______ _______ _______ _____ _____    ______ ____

>  <TORSDO>
F 6

$$$$
=
 OpenBabel10272400093D

 34 38  0  0  1  0  0  0  0  0999 V2000
  190.4280  177.3100  146.5960 C   0  0  0  0  0  0  0  0  0  0  0  0
  191.6260  175.4850  145.5260 C   0  0  0  0  0  0  0  0  0  0  0  0
  189.8840  176.8550  144.2130 C   0  0  0  0  0  0  0  0  0  0  0  0
  189.4600  177.1200  141.8300 C   0  0  0  0  0  0  0  0  0  0  0  0
  191.1750  177.1180  147.7600 C   0  0  0  0  0  3  0  0  0  0  0  0
  192.3600  175.3000  146.7020 C   0  0  0  0  0  3  0  0  0  0  0  0
  191.8680  176.7410  142.6740 C   0  0  0  0  0  2  0  0  0  0  0  0
  190.7040  176.5590  145.4320 C   0  0  0  0  0  0  0  0  0  0  0  0
  192.2440  177.3600  141.3280 C   0  0  0  0  0  2  0  0  0  0  0  0
  189.8950  177.1140  140.5670 C   0  0  0  0  0  3  0  0  0  0  0  0
  192.1550  176.1280  147.8050 C   0  0  0  0  0  3  0  0  0  0  0  0
  188.4840  177.3340  144.4490 C   0  0  0  0  0  0  0  0  0  0  0  0
  189.2920  178.2870  146.6070 C   0  0  0  0  0  2  0  0  0  0  0  0
  191.7550  174.4390  144.4700 C   0  0  0  0  0  1  0  0  0  0  0  0
  188.1190  177.3860  142.0970 O   0  0  0  0  0  0  0  0  0  0  0  0
  187.6380  177.5310  143.4060 C   0  0  0  0  0  0  0  0  0  0  0  0
  191.3270  176.8140  140.2350 C   0  0  1  0  0  3  0  0  0  0  0  0
  190.3890  176.8830  142.9590 C   0  0  0  0  0  0  0  0  0  0  0  0
  188.0980  177.6830  145.8650 C   0  0  0  0  0  2  0  0  0  0  0  0
  184.3880  178.5690  145.0330 C   0  0  0  0  0  0  0  0  0  0  0  0
  183.5590  178.7720  143.9270 C   0  0  0  0  0  3  0  0  0  0  0  0
  186.2160  177.9270  143.5610 C   0  0  0  0  0  0  0  0  0  0  0  0
  184.0550  178.5640  142.6380 C   0  0  0  0  0  3  0  0  0  0  0  0
  185.7100  178.1550  144.8500 C   0  0  0  0  0  3  0  0  0  0  0  0
  185.3770  178.1500  142.4550 C   0  0  0  0  0  3  0  0  0  0  0  0
  183.8870  178.7880  146.3460 N   0  0  0  0  0  1  0  0  0  0  0  0
  191.6730  177.4230  138.8890 C   0  0  0  0  0  2  0  0  0  0  0  0
  192.7510  176.6030  138.2010 C   0  0  0  0  0  2  0  0  0  0  0  0
  193.0000  175.0090  136.4250 O   0  0  0  0  0  1  0  0  0  0  0  0
  192.1240  175.4620  137.4150 C   0  0  2  0  0  3  0  0  0  0  0  0
  190.7880  175.8770  136.8010 C   0  0  0  0  0  2  0  0  0  0  0  0
  190.1030  173.5380  137.3470 O   0  0  0  0  0  1  0  0  0  0  0  0
  189.7540  174.8000  136.8880 C   0  0  0  0  0  0  0  0  0  0  0  0
  188.5620  175.0450  136.5670 O   0  0  0  0  0  0  0  0  0  0  0  0
  1 13  1  0  0  0  0
  1  5  1  0  0  0  0
  2  6  2  0  0  0  0
  3 12  1  0  0  0  0
  3  8  1  0  0  0  0
  4 15  1  0  0  0  0
  4 18  1  0  0  0  0
  5 11  2  0  0  0  0
  6 11  1  0  0  0  0
  7 18  1  0  0  0  0
  8  2  1  0  0  0  0
  8  1  2  0  0  0  0
  9  7  1  0  0  0  0
 10  4  2  0  0  0  0
 12 19  1  0  0  0  0
 14  2  1  0  0  0  0
 15 16  1  0  0  0  0
 16 22  1  0  0  0  0
 16 12  2  0  0  0  0
 17 27  1  6  0  0  0
 17 10  1  0  0  0  0
 17  9  1  0  0  0  0
 18  3  2  0  0  0  0
 19 13  1  0  0  0  0
 20 26  1  0  0  0  0
 21 20  2  0  0  0  0
 22 24  2  0  0  0  0
 23 21  1  0  0  0  0
 24 20  1  0  0  0  0
 25 23  2  0  0  0  0
 25 22  1  0  0  0  0
 28 27  1  0  0  0  0
 30 29  1  6  0  0  0
 30 28  1  0  0  0  0
 31 33  1  0  0  0  0
 31 30  1  0  0  0  0
 33 32  1  0  0  0  0
 34 33  2  0  0  0  0
M  END
>  <MODEL>
4

>  <REMARK>
 VINA RESULT:      -8.6      1.917      2.440
  Name = 
  6 active torsions:
  status: ('A' for Active; 'I' for Inactive)
    1  A    between atoms: C_3  and  C_13
    2  A    between atoms: C_3  and  C_29
    3  A    between atoms: C_12  and  C_28
    4  A    between atoms: C_13  and  C_33
    5  A    between atoms: C_20  and  C_22
    6  A    between atoms: C_22  and  C_33
                            x       y       z     vdW  Elec       q    Type
                         _______ _______ _______ _____ _____    ______ ____

>  <TORSDO>
F 6

$$$$
=
 OpenBabel10272400093D

 34 38  0  0  1  0  0  0  0  0999 V2000
  191.2000  175.6980  145.1120 C   0  0  0  0  0  0  0  0  0  0  0  0
  190.4940  177.4250  146.6700 C   0  0  0  0  0  0  0  0  0  0  0  0
  189.3720  177.2070  144.3620 C   0  0  0  0  0  0  0  0  0  0  0  0
  187.2700  178.0530  143.4710 C   0  0  0  0  0  0  0  0  0  0  0  0
  192.0900  175.2000  146.0650 C   0  0  0  0  0  3  0  0  0  0  0  0
  191.3950  176.9190  147.6120 C   0  0  0  0  0  3  0  0  0  0  0  0
  187.4480  177.4220  145.9650 C   0  0  0  0  0  2  0  0  0  0  0  0
  190.3230  176.7590  145.4290 C   0  0  0  0  0  0  0  0  0  0  0  0
  185.9260  177.3300  145.8650 C   0  0  0  0  0  2  0  0  0  0  0  0
  186.0120  178.4600  143.6560 C   0  0  0  0  0  3  0  0  0  0  0  0
  192.1710  175.7970  147.3230 C   0  0  0  0  0  3  0  0  0  0  0  0
  189.8350  177.0510  142.9440 C   0  0  0  0  0  0  0  0  0  0  0  0
  191.2190  175.1300  143.7250 C   0  0  0  0  0  2  0  0  0  0  0  0
  189.8540  178.7380  146.9740 C   0  0  0  0  0  1  0  0  0  0  0  0
  187.8130  178.0560  142.1880 O   0  0  0  0  0  0  0  0  0  0  0  0
  189.0810  177.5210  141.9180 C   0  0  0  0  0  0  0  0  0  0  0  0
  185.3940  178.4900  145.0240 C   0  0  1  0  0  3  0  0  0  0  0  0
  188.0900  177.5620  144.6020 C   0  0  0  0  0  0  0  0  0  0  0  0
  191.1030  176.2690  142.7100 C   0  0  0  0  0  2  0  0  0  0  0  0
  189.3580  178.4190  138.2570 C   0  0  0  0  0  0  0  0  0  0  0  0
  190.3280  177.5180  137.8080 C   0  0  0  0  0  3  0  0  0  0  0  0
  189.5050  177.4770  140.4960 C   0  0  0  0  0  0  0  0  0  0  0  0
  190.8960  176.6050  138.6990 C   0  0  0  0  0  3  0  0  0  0  0  0
  188.9540  178.4010  139.5950 C   0  0  0  0  0  3  0  0  0  0  0  0
  190.4910  176.5880  140.0360 C   0  0  0  0  0  3  0  0  0  0  0  0
  188.7850  179.3550  137.3530 N   0  0  0  0  0  1  0  0  0  0  0  0
  183.8830  178.4140  144.8990 C   0  0  0  0  0  2  0  0  0  0  0  0
  183.3580  179.6050  144.1150 C   0  0  0  0  0  2  0  0  0  0  0  0
  181.3550  178.4240  143.5230 O   0  0  0  0  0  1  0  0  0  0  0  0
  182.4380  179.1360  142.9990 C   0  0  2  0  0  3  0  0  0  0  0  0
  183.1920  178.2890  141.9750 C   0  0  0  0  0  2  0  0  0  0  0  0
  184.7730  179.5380  140.4990 O   0  0  0  0  0  1  0  0  0  0  0  0
  183.4970  179.0400  140.7180 C   0  0  0  0  0  0  0  0  0  0  0  0
  182.6020  179.2000  139.8480 O   0  0  0  0  0  0  0  0  0  0  0  0
  1  8  2  0  0  0  0
  1  5  1  0  0  0  0
  2 14  1  0  0  0  0
  2  6  2  0  0  0  0
  3 18  2  0  0  0  0
  3  8  1  0  0  0  0
  4 10  2  0  0  0  0
  4 18  1  0  0  0  0
  5 11  2  0  0  0  0
  8  2  1  0  0  0  0
  9  7  1  0  0  0  0
 10 17  1  0  0  0  0
 11  6  1  0  0  0  0
 12  3  1  0  0  0  0
 13  1  1  0  0  0  0
 15  4  1  0  0  0  0
 16 15  1  0  0  0  0
 16 12  2  0  0  0  0
 17 27  1  6  0  0  0
 17  9  1  0  0  0  0
 18  7  1  0  0  0  0
 19 12  1  0  0  0  0
 19 13  1  0  0  0  0
 20 24  1  0  0  0  0
 21 20  2  0  0  0  0
 21 23  1  0  0  0  0
 22 16  1  0  0  0  0
 23 25  2  0  0  0  0
 24 22  2  0  0  0  0
 25 22  1  0  0  0  0
 26 20  1  0  0  0  0
 28 27  1  0  0  0  0
 30 29  1  1  0  0  0
 30 28  1  0  0  0  0
 31 30  1  0  0  0  0
 32 33  1  0  0  0  0
 33 31  1  0  0  0  0
 34 33  2  0  0  0  0
M  END
>  <MODEL>
5

>  <REMARK>
 VINA RESULT:      -8.6      2.121      5.851
  Name = 
  6 active torsions:
  status: ('A' for Active; 'I' for Inactive)
    1  A    between atoms: C_3  and  C_13
    2  A    between atoms: C_3  and  C_29
    3  A    between atoms: C_12  and  C_28
    4  A    between atoms: C_13  and  C_33
    5  A    between atoms: C_20  and  C_22
    6  A    between atoms: C_22  and  C_33
                            x       y       z     vdW  Elec       q    Type
                         _______ _______ _______ _____ _____    ______ ____

>  <TORSDO>
F 6

$$$$
=
 OpenBabel10272400093D

 34 38  0  0  1  0  0  0  0  0999 V2000
  186.8840  177.3550  144.6340 C   0  0  0  0  0  0  0  0  0  0  0  0
  185.4030  179.2560  144.9510 C   0  0  0  0  0  0  0  0  0  0  0  0
  185.9760  178.4250  142.5810 C   0  0  0  0  0  0  0  0  0  0  0  0
  184.9260  178.7890  140.4140 C   0  0  0  0  0  0  0  0  0  0  0  0
  186.9620  177.1830  146.0170 C   0  0  0  0  0  3  0  0  0  0  0  0
  185.4970  179.0760  146.3350 C   0  0  0  0  0  3  0  0  0  0  0  0
  183.4790  178.7100  142.5480 C   0  0  0  0  0  2  0  0  0  0  0  0
  186.0320  178.3340  144.0760 C   0  0  0  0  0  0  0  0  0  0  0  0
  182.3570  178.4020  141.5580 C   0  0  0  0  0  2  0  0  0  0  0  0
  183.8430  179.0560  139.6810 C   0  0  0  0  0  3  0  0  0  0  0  0
  186.2510  178.0310  146.8660 C   0  0  0  0  0  3  0  0  0  0  0  0
  187.2230  178.0440  141.8400 C   0  0  0  0  0  0  0  0  0  0  0  0
  187.7540  176.5220  143.7420 C   0  0  0  0  0  2  0  0  0  0  0  0
  184.7520  180.5090  144.4690 C   0  0  0  0  0  1  0  0  0  0  0  0
  186.1550  178.6000  139.7860 O   0  0  0  0  0  0  0  0  0  0  0  0
  187.2950  178.1910  140.4930 C   0  0  0  0  0  0  0  0  0  0  0  0
  182.5040  179.2850  140.3200 C   0  0  1  0  0  3  0  0  0  0  0  0
  184.8380  178.6510  141.8870 C   0  0  0  0  0  0  0  0  0  0  0  0
  188.3340  177.4030  142.6340 C   0  0  0  0  0  2  0  0  0  0  0  0
  190.9040  177.4440  139.6560 C   0  0  0  0  0  0  0  0  0  0  0  0
  190.8560  177.2890  138.2680 C   0  0  0  0  0  3  0  0  0  0  0  0
  188.5170  177.9130  139.6980 C   0  0  0  0  0  0  0  0  0  0  0  0
  189.6420  177.4340  137.5930 C   0  0  0  0  0  3  0  0  0  0  0  0
  189.7400  177.7480  140.3660 C   0  0  0  0  0  3  0  0  0  0  0  0
  188.4790  177.7380  138.3040 C   0  0  0  0  0  3  0  0  0  0  0  0
  192.1380  177.2880  140.3460 N   0  0  0  0  0  1  0  0  0  0  0  0
  181.4060  178.9890  139.3150 C   0  0  0  0  0  2  0  0  0  0  0  0
  180.7550  177.6520  139.6230 C   0  0  0  0  0  2  0  0  0  0  0  0
  180.0030  175.9020  138.1640 O   0  0  0  0  0  1  0  0  0  0  0  0
  181.1290  176.6270  138.5640 C   0  0  2  0  0  3  0  0  0  0  0  0
  182.2240  175.6850  139.0630 C   0  0  0  0  0  2  0  0  0  0  0  0
  183.6360  176.5790  137.2060 O   0  0  0  0  0  0  0  0  0  0  0  0
  183.3530  175.5490  138.0930 C   0  0  0  0  0  0  0  0  0  0  0  0
  184.0640  174.5100  138.0960 O   0  0  0  0  0  1  0  0  0  0  0  0
  1  5  1  0  0  0  0
  2  6  2  0  0  0  0
  3  8  1  0  0  0  0
  4 18  1  0  0  0  0
  5 11  2  0  0  0  0
  6 11  1  0  0  0  0
  8  1  2  0  0  0  0
  8  2  1  0  0  0  0
  9  7  1  0  0  0  0
 10 17  1  0  0  0  0
 10  4  2  0  0  0  0
 12  3  1  0  0  0  0
 12 19  1  0  0  0  0
 13  1  1  0  0  0  0
 14  2  1  0  0  0  0
 15  4  1  0  0  0  0
 15 16  1  0  0  0  0
 16 12  2  0  0  0  0
 17 27  1  6  0  0  0
 17  9  1  0  0  0  0
 18  7  1  0  0  0  0
 18  3  2  0  0  0  0
 19 13  1  0  0  0  0
 20 26  1  0  0  0  0
 20 24  1  0  0  0  0
 21 20  2  0  0  0  0
 22 24  2  0  0  0  0
 22 16  1  0  0  0  0
 23 21  1  0  0  0  0
 23 25  2  0  0  0  0
 25 22  1  0  0  0  0
 27 28  1  0  0  0  0
 30 29  1  1  0  0  0
 30 31  1  0  0  0  0
 30 28  1  0  0  0  0
 32 33  2  0  0  0  0
 33 34  1  0  0  0  0
 33 31  1  0  0  0  0
M  END
>  <MODEL>
6

>  <REMARK>
 VINA RESULT:      -8.5      3.215      6.827
  Name = 
  6 active torsions:
  status: ('A' for Active; 'I' for Inactive)
    1  A    between atoms: C_3  and  C_13
    2  A    between atoms: C_3  and  C_29
    3  A    between atoms: C_12  and  C_28
    4  A    between atoms: C_13  and  C_33
    5  A    between atoms: C_20  and  C_22
    6  A    between atoms: C_22  and  C_33
                            x       y       z     vdW  Elec       q    Type
                         _______ _______ _______ _____ _____    ______ ____

>  <TORSDO>
F 6

$$$$
=
 OpenBabel10272400093D

 34 38  0  0  1  0  0  0  0  0999 V2000
  185.3750  179.0830  144.6500 C   0  0  0  0  0  0  0  0  0  0  0  0
  187.0160  177.3030  144.4310 C   0  0  0  0  0  0  0  0  0  0  0  0
  185.9050  178.3220  142.3430 C   0  0  0  0  0  0  0  0  0  0  0  0
  186.5010  178.2860  139.9820 C   0  0  0  0  0  0  0  0  0  0  0  0
  185.5760  179.1000  146.0310 C   0  0  0  0  0  3  0  0  0  0  0  0
  187.2010  177.3270  145.8180 C   0  0  0  0  0  3  0  0  0  0  0  0
  188.3530  178.2730  141.7770 C   0  0  0  0  0  2  0  0  0  0  0  0
  186.1560  178.2500  143.8180 C   0  0  0  0  0  0  0  0  0  0  0  0
  189.2200  178.7850  140.6280 C   0  0  0  0  0  2  0  0  0  0  0  0
  187.4230  178.1980  139.0210 C   0  0  0  0  0  3  0  0  0  0  0  0
  186.5050  178.2370  146.6120 C   0  0  0  0  0  3  0  0  0  0  0  0
  184.5080  178.6620  141.9180 C   0  0  0  0  0  0  0  0  0  0  0  0
  184.2820  179.9210  144.0580 C   0  0  0  0  0  2  0  0  0  0  0  0
  187.6370  176.1730  143.6800 C   0  0  0  0  0  1  0  0  0  0  0  0
  185.1580  178.4260  139.6400 O   0  0  0  0  0  0  0  0  0  0  0  0
  184.1660  178.6520  140.6050 C   0  0  0  0  0  0  0  0  0  0  0  0
  188.8780  178.0280  139.3460 C   0  0  1  0  0  3  0  0  0  0  0  0
  186.8850  178.2760  141.4130 C   0  0  0  0  0  0  0  0  0  0  0  0
  183.5460  179.1110  142.9890 C   0  0  0  0  0  2  0  0  0  0  0  0
  181.2750  180.2630  138.7800 C   0  0  0  0  0  0  0  0  0  0  0  0
  180.2270  179.3790  139.0540 C   0  0  0  0  0  3  0  0  0  0  0  0
  182.7890  178.8980  140.1090 C   0  0  0  0  0  0  0  0  0  0  0  0
  180.4570  178.2510  139.8450 C   0  0  0  0  0  3  0  0  0  0  0  0
  182.5490  180.0190  139.3000 C   0  0  0  0  0  3  0  0  0  0  0  0
  181.7310  178.0090  140.3640 C   0  0  0  0  0  3  0  0  0  0  0  0
  181.0440  181.4080  137.9690 N   0  0  0  0  0  1  0  0  0  0  0  0
  189.7190  178.5280  138.1860 C   0  0  0  0  0  2  0  0  0  0  0  0
  189.0350  178.2170  136.8660 C   0  0  0  0  0  2  0  0  0  0  0  0
  189.4900  176.9870  134.8560 O   0  0  0  0  0  1  0  0  0  0  0  0
  189.6300  176.9620  136.2470 C   0  0  2  0  0  3  0  0  0  0  0  0
  188.9960  175.6990  136.8270 C   0  0  0  0  0  2  0  0  0  0  0  0
  190.1250  173.5950  136.0960 O   0  0  0  0  0  0  0  0  0  0  0  0
  189.9880  174.6010  137.0420 C   0  0  0  0  0  0  0  0  0  0  0  0
  190.7150  174.6020  138.0680 O   0  0  0  0  0  1  0  0  0  0  0  0
  1  5  1  0  0  0  0
  2  6  2  0  0  0  0
  3  8  1  0  0  0  0
  4 18  1  0  0  0  0
  5 11  2  0  0  0  0
  6 11  1  0  0  0  0
  8  2  1  0  0  0  0
  8  1  2  0  0  0  0
  9  7  1  0  0  0  0
 10 17  1  0  0  0  0
 10  4  2  0  0  0  0
 12  3  1  0  0  0  0
 12 19  1  0  0  0  0
 13  1  1  0  0  0  0
 14  2  1  0  0  0  0
 15  4  1  0  0  0  0
 15 16  1  0  0  0  0
 16 12  2  0  0  0  0
 17 27  1  6  0  0  0
 17  9  1  0  0  0  0
 18  7  1  0  0  0  0
 18  3  2  0  0  0  0
 19 13  1  0  0  0  0
 20 21  2  0  0  0  0
 20 24  1  0  0  0  0
 21 23  1  0  0  0  0
 22 25  1  0  0  0  0
 22 16  1  0  0  0  0
 23 25  2  0  0  0  0
 24 22  2  0  0  0  0
 26 20  1  0  0  0  0
 28 27  1  0  0  0  0
 30 29  1  6  0  0  0
 30 31  1  0  0  0  0
 30 28  1  0  0  0  0
 31 33  1  0  0  0  0
 32 33  2  0  0  0  0
 33 34  1  0  0  0  0
M  END
>  <MODEL>
7

>  <REMARK>
 VINA RESULT:      -8.4      2.924      4.795
  Name = 
  6 active torsions:
  status: ('A' for Active; 'I' for Inactive)
    1  A    between atoms: C_3  and  C_13
    2  A    between atoms: C_3  and  C_29
    3  A    between atoms: C_12  and  C_28
    4  A    between atoms: C_13  and  C_33
    5  A    between atoms: C_20  and  C_22
    6  A    between atoms: C_22  and  C_33
                            x       y       z     vdW  Elec       q    Type
                         _______ _______ _______ _____ _____    ______ ____

>  <TORSDO>
F 6

$$$$
=
 OpenBabel10272400093D

 34 38  0  0  1  0  0  0  0  0999 V2000
  186.3390  176.7090  136.1360 C   0  0  0  0  0  0  0  0  0  0  0  0
  188.4580  177.8760  136.3720 C   0  0  0  0  0  0  0  0  0  0  0  0
  186.6920  177.9780  138.2440 C   0  0  0  0  0  0  0  0  0  0  0  0
  186.8260  178.5940  140.5960 C   0  0  0  0  0  0  0  0  0  0  0  0
  186.7640  176.1840  134.9130 C   0  0  0  0  0  3  0  0  0  0  0  0
  188.8660  177.3490  135.1420 C   0  0  0  0  0  3  0  0  0  0  0  0
  188.8380  177.4620  139.4470 C   0  0  0  0  0  2  0  0  0  0  0  0
  187.2120  177.4870  136.9280 C   0  0  0  0  0  0  0  0  0  0  0  0
  189.2310  177.1120  140.8820 C   0  0  0  0  0  2  0  0  0  0  0  0
  187.5260  178.7050  141.7280 C   0  0  0  0  0  3  0  0  0  0  0  0
  188.0350  176.4870  134.4280 C   0  0  0  0  0  3  0  0  0  0  0  0
  185.2180  178.2350  138.3280 C   0  0  0  0  0  0  0  0  0  0  0  0
  184.9260  176.4810  136.5790 C   0  0  0  0  0  2  0  0  0  0  0  0
  189.3100  178.9440  136.9730 C   0  0  0  0  0  1  0  0  0  0  0  0
  185.4900  178.9880  140.5700 O   0  0  0  0  0  0  0  0  0  0  0  0
  184.6750  178.7740  139.4490 C   0  0  0  0  0  0  0  0  0  0  0  0
  188.9720  178.3110  141.7940 C   0  0  1  0  0  3  0  0  0  0  0  0
  187.4360  178.0230  139.3730 C   0  0  0  0  0  0  0  0  0  0  0  0
  184.3660  177.7770  137.1700 C   0  0  0  0  0  2  0  0  0  0  0  0
  181.3950  180.5810  138.9360 C   0  0  0  0  0  0  0  0  0  0  0  0
  180.5160  179.8130  139.7050 C   0  0  0  0  0  3  0  0  0  0  0  0
  183.2410  179.1310  139.5810 C   0  0  0  0  0  0  0  0  0  0  0  0
  180.9900  178.7010  140.4030 C   0  0  0  0  0  3  0  0  0  0  0  0
  182.7480  180.2370  138.8710 C   0  0  0  0  0  3  0  0  0  0  0  0
  182.3430  178.3580  140.3370 C   0  0  0  0  0  3  0  0  0  0  0  0
  180.9120  181.7100  138.2180 N   0  0  0  0  0  1  0  0  0  0  0  0
  189.3430  177.9840  143.2290 C   0  0  0  0  0  2  0  0  0  0  0  0
  188.3600  176.9840  143.8140 C   0  0  0  0  0  2  0  0  0  0  0  0
  187.0280  178.1450  145.4370 O   0  0  0  0  0  1  0  0  0  0  0  0
  188.1180  177.2820  145.2850 C   0  0  2  0  0  3  0  0  0  0  0  0
  189.3630  177.8690  145.9470 C   0  0  0  0  0  2  0  0  0  0  0  0
  190.8390  176.5820  147.4970 O   0  0  0  0  0  0  0  0  0  0  0  0
  189.6480  177.2610  147.2830 C   0  0  0  0  0  0  0  0  0  0  0  0
  188.8180  177.3850  148.2200 O   0  0  0  0  0  1  0  0  0  0  0  0
  1 13  1  0  0  0  0
  1  8  1  0  0  0  0
  2  8  2  0  0  0  0
  2 14  1  0  0  0  0
  3 12  1  0  0  0  0
  3 18  2  0  0  0  0
  4 10  2  0  0  0  0
  5  1  2  0  0  0  0
  6  2  1  0  0  0  0
  7  9  1  0  0  0  0
  8  3  1  0  0  0  0
  9 17  1  0  0  0  0
 10 17  1  0  0  0  0
 11  5  1  0  0  0  0
 11  6  2  0  0  0  0
 12 16  2  0  0  0  0
 13 19  1  0  0  0  0
 15  4  1  0  0  0  0
 16 22  1  0  0  0  0
 16 15  1  0  0  0  0
 17 27  1  1  0  0  0
 18  7  1  0  0  0  0
 18  4  1  0  0  0  0
 19 12  1  0  0  0  0
 20 21  1  0  0  0  0
 21 23  2  0  0  0  0
 22 25  2  0  0  0  0
 24 20  2  0  0  0  0
 24 22  1  0  0  0  0
 25 23  1  0  0  0  0
 26 20  1  0  0  0  0
 27 28  1  0  0  0  0
 28 30  1  0  0  0  0
 30 29  1  6  0  0  0
 30 31  1  0  0  0  0
 31 33  1  0  0  0  0
 33 32  2  0  0  0  0
 33 34  1  0  0  0  0
M  END
>  <MODEL>
8

>  <REMARK>
 VINA RESULT:      -8.4      3.023      7.976
  Name = 
  6 active torsions:
  status: ('A' for Active; 'I' for Inactive)
    1  A    between atoms: C_3  and  C_13
    2  A    between atoms: C_3  and  C_29
    3  A    between atoms: C_12  and  C_28
    4  A    between atoms: C_13  and  C_33
    5  A    between atoms: C_20  and  C_22
    6  A    between atoms: C_22  and  C_33
                            x       y       z     vdW  Elec       q    Type
                         _______ _______ _______ _____ _____    ______ ____

>  <TORSDO>
F 6

$$$$
=
 OpenBabel10272400093D

 34 38  0  0  1  0  0  0  0  0999 V2000
  191.7350  174.8410  137.5520 C   0  0  0  0  0  0  0  0  0  0  0  0
  192.8760  176.4290  138.9960 C   0  0  0  0  0  0  0  0  0  0  0  0
  190.3190  176.5270  138.7070 C   0  0  0  0  0  0  0  0  0  0  0  0
  188.5580  177.5870  140.0120 C   0  0  0  0  0  0  0  0  0  0  0  0
  192.9470  174.1920  137.3070 C   0  0  0  0  0  3  0  0  0  0  0  0
  194.0840  175.7730  138.7340 C   0  0  0  0  0  3  0  0  0  0  0  0
  190.6660  176.6820  141.1910 C   0  0  0  0  0  2  0  0  0  0  0  0
  191.6640  175.9120  138.4710 C   0  0  0  0  0  0  0  0  0  0  0  0
  189.7610  176.6920  142.4230 C   0  0  0  0  0  2  0  0  0  0  0  0
  188.0940  178.0450  141.1780 C   0  0  0  0  0  3  0  0  0  0  0  0
  194.1160  174.6450  137.9160 C   0  0  0  0  0  3  0  0  0  0  0  0
  189.3580  176.4970  137.5570 C   0  0  0  0  0  0  0  0  0  0  0  0
  190.5140  174.4250  136.7900 C   0  0  0  0  0  2  0  0  0  0  0  0
  192.9520  177.7380  139.7090 C   0  0  0  0  0  1  0  0  0  0  0  0
  187.7720  177.6950  138.8670 O   0  0  0  0  0  0  0  0  0  0  0  0
  188.1550  177.1180  137.6470 C   0  0  0  0  0  0  0  0  0  0  0  0
  188.9150  177.9650  142.4320 C   0  0  1  0  0  3  0  0  0  0  0  0
  189.8820  176.9300  139.9220 C   0  0  0  0  0  0  0  0  0  0  0  0
  189.7400  175.6700  136.3540 C   0  0  0  0  0  2  0  0  0  0  0  0
  184.9760  176.6710  135.6530 C   0  0  0  0  0  0  0  0  0  0  0  0
  185.2540  177.3980  134.4920 C   0  0  0  0  0  3  0  0  0  0  0  0
  187.1830  177.2020  136.5290 C   0  0  0  0  0  0  0  0  0  0  0  0
  186.4880  178.0360  134.3500 C   0  0  0  0  0  3  0  0  0  0  0  0
  185.9330  176.5790  136.6670 C   0  0  0  0  0  3  0  0  0  0  0  0
  187.4440  177.9440  135.3640 C   0  0  0  0  0  3  0  0  0  0  0  0
  183.7160  176.0270  135.8030 N   0  0  0  0  0  1  0  0  0  0  0  0
  187.9980  177.9930  143.6410 C   0  0  0  0  0  2  0  0  0  0  0  0
  188.7810  177.6770  144.9040 C   0  0  0  0  0  2  0  0  0  0  0  0
  188.3790  177.1920  147.2190 O   0  0  0  0  0  1  0  0  0  0  0  0
  187.9280  177.9480  146.1330 C   0  0  2  0  0  3  0  0  0  0  0  0
  186.4510  177.6660  145.8590 C   0  0  0  0  0  2  0  0  0  0  0  0
  184.2230  178.7810  146.0340 O   0  0  0  0  0  0  0  0  0  0  0  0
  185.5480  178.7080  146.4380 C   0  0  0  0  0  0  0  0  0  0  0  0
  185.9830  179.5040  147.3110 O   0  0  0  0  0  1  0  0  0  0  0  0
  1  8  1  0  0  0  0
  2 14  1  0  0  0  0
  3 18  2  0  0  0  0
  4 10  2  0  0  0  0
  5  1  2  0  0  0  0
  5 11  1  0  0  0  0
  6  2  1  0  0  0  0
  7  9  1  0  0  0  0
  8  3  1  0  0  0  0
  8  2  2  0  0  0  0
  9 17  1  0  0  0  0
 10 17  1  0  0  0  0
 11  6  2  0  0  0  0
 12 16  2  0  0  0  0
 12  3  1  0  0  0  0
 13  1  1  0  0  0  0
 15  4  1  0  0  0  0
 16 15  1  0  0  0  0
 17 27  1  1  0  0  0
 18  4  1  0  0  0  0
 18  7  1  0  0  0  0
 19 13  1  0  0  0  0
 19 12  1  0  0  0  0
 20 26  1  0  0  0  0
 20 24  1  0  0  0  0
 21 20  2  0  0  0  0
 22 24  2  0  0  0  0
 22 16  1  0  0  0  0
 23 21  1  0  0  0  0
 23 25  2  0  0  0  0
 25 22  1  0  0  0  0
 27 28  1  0  0  0  0
 28 30  1  0  0  0  0
 30 29  1  1  0  0  0
 31 30  1  0  0  0  0
 31 33  1  0  0  0  0
 32 33  2  0  0  0  0
 33 34  1  0  0  0  0
M  END
>  <MODEL>
9

>  <REMARK>
 VINA RESULT:      -8.3      2.857      7.785
  Name = 
  6 active torsions:
  status: ('A' for Active; 'I' for Inactive)
    1  A    between atoms: C_3  and  C_13
    2  A    between atoms: C_3  and  C_29
    3  A    between atoms: C_12  and  C_28
    4  A    between atoms: C_13  and  C_33
    5  A    between atoms: C_20  and  C_22
    6  A    between atoms: C_22  and  C_33
                            x       y       z     vdW  Elec       q    Type
                         _______ _______ _______ _____ _____    ______ ____

>  <TORSDO>
F 6

$$$$
