=
 OpenBabel10272413103D

 32 37  0  0  0  0  0  0  0  0999 V2000
  189.7050  177.2800  142.5690 C   0  0  0  0  0  0  0  0  0  0  0  0
  187.9660  177.8010  144.0600 N   0  0  0  0  0  0  0  0  0  0  0  0
  191.0130  176.7630  142.4780 C   0  0  0  0  0  3  0  0  0  0  0  0
  189.1990  177.4250  143.8370 C   0  0  0  0  0  0  0  0  0  0  0  0
  187.7240  177.7260  145.3620 C   0  0  0  0  0  0  0  0  0  0  0  0
  183.4590  178.9140  143.0810 C   0  0  0  0  0  3  0  0  0  0  0  0
  187.0790  178.0620  143.0930 C   0  0  0  0  0  0  0  0  0  0  0  0
  184.1930  178.5590  145.3690 C   0  0  0  0  0  3  0  0  0  0  0  0
  185.4900  178.2930  144.9220 C   0  0  0  0  0  0  0  0  0  0  0  0
  189.8250  177.0810  144.9970 C   0  0  0  0  0  0  0  0  0  0  0  0
  186.4720  177.9660  145.8310 N   0  0  0  0  0  0  0  0  0  0  0  0
  191.1190  176.5590  144.9500 C   0  0  0  0  0  3  0  0  0  0  0  0
  187.5060  177.9730  141.7930 N   0  0  0  0  0  0  0  0  0  0  0  0
  188.8130  177.6090  141.5040 C   0  0  0  0  0  0  0  0  0  0  0  0
  185.7700  178.3440  143.5120 C   0  0  0  0  0  0  0  0  0  0  0  0
  188.8820  177.2860  146.0260 C   0  0  0  0  0  0  0  0  0  0  0  0
  191.7170  176.4140  143.6670 C   0  0  0  0  0  3  0  0  0  0  0  0
  183.1840  178.8700  144.4520 C   0  0  0  0  0  3  0  0  0  0  0  0
  184.7480  178.6500  142.6080 C   0  0  0  0  0  3  0  0  0  0  0  0
  188.8120  177.6970  137.7040 C   0  0  0  0  0  0  0  0  0  0  0  0
  187.9970  178.0110  136.6660 F   0  0  0  0  0  0  0  0  0  0  0  0
  189.2250  177.4920  140.0930 C   0  0  0  0  0  0  0  0  0  0  0  0
  190.1040  177.2360  137.4430 C   0  0  0  0  0  3  0  0  0  0  0  0
  190.5120  177.0170  139.8150 C   0  0  0  0  0  3  0  0  0  0  0  0
  188.3590  177.8200  139.0260 C   0  0  0  0  0  0  0  0  0  0  0  0
  186.6930  178.3180  139.3120 Cl  0  0  0  0  0  0  0  0  0  0  0  0
  190.9500  176.8850  138.4960 C   0  0  0  0  0  0  0  0  0  0  0  0
  193.2210  176.9790  139.1260 O   0  0  0  0  0  1  0  0  0  0  0  0
  192.3320  176.4100  138.2140 C   0  0  0  0  0  2  0  0  0  0  0  0
  189.0210  176.9340  147.4670 C   0  0  0  0  0  2  0  0  0  0  0  0
  189.0900  178.1970  148.3030 C   0  0  0  0  0  2  0  0  0  0  0  0
  187.8780  178.3830  148.9650 O   0  0  0  0  0  1  0  0  0  0  0  0
  1  4  1  0  0  0  0
  2  5  1  0  0  0  0
  3  1  2  0  0  0  0
  3 17  1  0  0  0  0
  4  2  1  0  0  0  0
  4 10  2  0  0  0  0
  5 11  1  0  0  0  0
  5 16  2  0  0  0  0
  6 18  1  0  0  0  0
  7 15  2  0  0  0  0
  7  2  1  0  0  0  0
  9  8  1  0  0  0  0
  9 11  2  0  0  0  0
 10 16  1  0  0  0  0
 12 10  1  0  0  0  0
 13  7  1  0  0  0  0
 14 13  2  0  0  0  0
 14  1  1  0  0  0  0
 15  9  1  0  0  0  0
 16 30  1  0  0  0  0
 17 12  2  0  0  0  0
 18  8  2  0  0  0  0
 19  6  2  0  0  0  0
 19 15  1  0  0  0  0
 20 25  1  0  0  0  0
 21 20  1  0  0  0  0
 22 14  1  0  0  0  0
 23 20  2  0  0  0  0
 23 27  1  0  0  0  0
 24 22  1  0  0  0  0
 25 26  1  0  0  0  0
 25 22  2  0  0  0  0
 27 24  2  0  0  0  0
 29 27  1  0  0  0  0
 29 28  1  0  0  0  0
 30 31  1  0  0  0  0
 31 32  1  0  0  0  0
M  END
>  <MODEL>
1

>  <REMARK>
 VINA RESULT:     -11.1      0.000      0.000
  Name = 
  4 active torsions:
  status: ('A' for Active; 'I' for Inactive)
    1  A    between atoms: C_13  and  C_18
    2  A    between atoms: C_15  and  C_26
    3  A    between atoms: C_16  and  C_27
    4  A    between atoms: C_18  and  C_29
                            x       y       z     vdW  Elec       q    Type
                         _______ _______ _______ _____ _____    ______ ____

>  <TORSDO>
F 4

$$$$
=
 OpenBabel10272413103D

 32 37  0  0  0  0  0  0  0  0999 V2000
  185.6330  178.1940  144.4930 C   0  0  0  0  0  0  0  0  0  0  0  0
  187.8820  177.6960  144.0300 N   0  0  0  0  0  0  0  0  0  0  0  0
  184.7220  178.5080  145.5220 C   0  0  0  0  0  3  0  0  0  0  0  0
  186.9160  177.9080  144.8870 C   0  0  0  0  0  0  0  0  0  0  0  0
  189.0250  177.5760  144.6920 C   0  0  0  0  0  0  0  0  0  0  0  0
  190.0660  177.4970  139.8230 C   0  0  0  0  0  3  0  0  0  0  0  0
  187.7270  177.7550  142.7020 C   0  0  0  0  0  0  0  0  0  0  0  0
  191.3200  177.3210  141.8950 C   0  0  0  0  0  3  0  0  0  0  0  0
  190.1410  177.4540  142.6320 C   0  0  0  0  0  0  0  0  0  0  0  0
  187.3910  177.9370  146.1640 C   0  0  0  0  0  0  0  0  0  0  0  0
  190.1920  177.4560  144.0090 N   0  0  0  0  0  0  0  0  0  0  0  0
  186.5230  178.2490  147.2120 C   0  0  0  0  0  3  0  0  0  0  0  0
  186.4680  178.0040  142.2160 N   0  0  0  0  0  0  0  0  0  0  0  0
  185.4050  178.2050  143.0830 C   0  0  0  0  0  0  0  0  0  0  0  0
  188.8920  177.6120  141.9350 C   0  0  0  0  0  0  0  0  0  0  0  0
  188.7790  177.7040  146.0700 C   0  0  0  0  0  0  0  0  0  0  0  0
  185.1690  178.5250  146.8760 C   0  0  0  0  0  3  0  0  0  0  0  0
  191.2810  177.3400  140.4980 C   0  0  0  0  0  3  0  0  0  0  0  0
  188.8720  177.6360  140.5380 C   0  0  0  0  0  3  0  0  0  0  0  0
  182.5800  178.9950  140.6670 C   0  0  0  0  0  0  0  0  0  0  0  0
  182.3630  179.2030  139.3440 F   0  0  0  0  0  0  0  0  0  0  0  0
  184.0750  178.5040  142.5230 C   0  0  0  0  0  0  0  0  0  0  0  0
  181.5040  179.0660  141.5550 C   0  0  0  0  0  3  0  0  0  0  0  0
  182.9890  178.5940  143.4020 C   0  0  0  0  0  3  0  0  0  0  0  0
  183.8720  178.7220  141.1420 C   0  0  0  0  0  0  0  0  0  0  0  0
  185.2160  178.7300  140.0030 Cl  0  0  0  0  0  0  0  0  0  0  0  0
  181.7090  178.8780  142.9220 C   0  0  0  0  0  0  0  0  0  0  0  0
  179.9820  177.6750  143.9860 O   0  0  0  0  0  1  0  0  0  0  0  0
  180.5580  178.9400  143.8630 C   0  0  0  0  0  2  0  0  0  0  0  0
  189.7860  177.7670  147.1670 C   0  0  0  0  0  2  0  0  0  0  0  0
  190.6120  176.4970  147.1850 C   0  0  0  0  0  2  0  0  0  0  0  0
  191.9490  176.8080  146.9420 O   0  0  0  0  0  1  0  0  0  0  0  0
  1  4  1  0  0  0  0
  1  3  2  0  0  0  0
  2  5  1  0  0  0  0
  2  4  1  0  0  0  0
  3 17  1  0  0  0  0
  4 10  2  0  0  0  0
  5 16  2  0  0  0  0
  6 18  1  0  0  0  0
  6 19  2  0  0  0  0
  7  2  1  0  0  0  0
  8  9  1  0  0  0  0
  9 11  2  0  0  0  0
 10 12  1  0  0  0  0
 11  5  1  0  0  0  0
 13  7  1  0  0  0  0
 13 14  2  0  0  0  0
 14  1  1  0  0  0  0
 15  9  1  0  0  0  0
 15  7  2  0  0  0  0
 16 10  1  0  0  0  0
 16 30  1  0  0  0  0
 17 12  2  0  0  0  0
 18  8  2  0  0  0  0
 19 15  1  0  0  0  0
 20 25  2  0  0  0  0
 20 23  1  0  0  0  0
 21 20  1  0  0  0  0
 22 14  1  0  0  0  0
 22 24  2  0  0  0  0
 23 27  2  0  0  0  0
 25 22  1  0  0  0  0
 26 25  1  0  0  0  0
 27 24  1  0  0  0  0
 27 29  1  0  0  0  0
 29 28  1  0  0  0  0
 30 31  1  0  0  0  0
 32 31  1  0  0  0  0
M  END
>  <MODEL>
2

>  <REMARK>
 VINA RESULT:     -11.1      2.544      6.401
  Name = 
  4 active torsions:
  status: ('A' for Active; 'I' for Inactive)
    1  A    between atoms: C_13  and  C_18
    2  A    between atoms: C_15  and  C_26
    3  A    between atoms: C_16  and  C_27
    4  A    between atoms: C_18  and  C_29
                            x       y       z     vdW  Elec       q    Type
                         _______ _______ _______ _____ _____    ______ ____

>  <TORSDO>
F 4

$$$$
=
 OpenBabel10272413103D

 32 37  0  0  0  0  0  0  0  0999 V2000
  186.9880  178.1450  143.7300 C   0  0  0  0  0  0  0  0  0  0  0  0
  186.9760  178.3690  141.3920 N   0  0  0  0  0  0  0  0  0  0  0  0
  186.1740  178.1440  144.8810 C   0  0  0  0  0  3  0  0  0  0  0  0
  186.3590  178.4300  142.5450 C   0  0  0  0  0  0  0  0  0  0  0  0
  186.0920  178.5650  140.4220 C   0  0  0  0  0  0  0  0  0  0  0  0
  190.4540  177.4270  138.3070 C   0  0  0  0  0  3  0  0  0  0  0  0
  188.2560  178.0100  141.2490 C   0  0  0  0  0  0  0  0  0  0  0  0
  188.2220  178.0020  137.5410 C   0  0  0  0  0  3  0  0  0  0  0  0
  187.7890  178.1250  138.8630 C   0  0  0  0  0  0  0  0  0  0  0  0
  185.0280  178.6700  142.3770 C   0  0  0  0  0  0  0  0  0  0  0  0
  186.4750  178.4430  139.1240 N   0  0  0  0  0  0  0  0  0  0  0  0
  184.1860  178.6720  143.4910 C   0  0  0  0  0  3  0  0  0  0  0  0
  188.9740  177.7380  142.3860 N   0  0  0  0  0  0  0  0  0  0  0  0
  188.3750  177.8180  143.6340 C   0  0  0  0  0  0  0  0  0  0  0  0
  188.7240  177.8900  139.9320 C   0  0  0  0  0  0  0  0  0  0  0  0
  184.8230  178.7820  140.9860 C   0  0  0  0  0  0  0  0  0  0  0  0
  184.7800  178.4160  144.7570 C   0  0  0  0  0  3  0  0  0  0  0  0
  189.5490  177.6570  137.2650 C   0  0  0  0  0  3  0  0  0  0  0  0
  190.0450  177.5400  139.6390 C   0  0  0  0  0  3  0  0  0  0  0  0
  191.0930  176.4710  145.9240 C   0  0  0  0  0  0  0  0  0  0  0  0
  192.2540  175.7720  145.8700 F   0  0  0  0  0  0  0  0  0  0  0  0
  189.1700  177.4840  144.8290 C   0  0  0  0  0  0  0  0  0  0  0  0
  190.6110  176.9010  147.1630 C   0  0  0  0  0  3  0  0  0  0  0  0
  188.6930  177.8950  146.0800 C   0  0  0  0  0  3  0  0  0  0  0  0
  190.3750  176.7510  144.7510 C   0  0  0  0  0  0  0  0  0  0  0  0
  190.9680  176.1140  143.2190 Cl  0  0  0  0  0  0  0  0  0  0  0  0
  189.4070  177.6010  147.2430 C   0  0  0  0  0  0  0  0  0  0  0  0
  187.5920  178.5220  148.4340 O   0  0  0  0  0  1  0  0  0  0  0  0
  188.9050  178.0710  148.5630 C   0  0  0  0  0  2  0  0  0  0  0  0
  183.5230  178.9120  140.2680 C   0  0  0  0  0  2  0  0  0  0  0  0
  182.8630  177.5530  140.1430 C   0  0  0  0  0  2  0  0  0  0  0  0
  183.2680  176.9470  138.9550 O   0  0  0  0  0  1  0  0  0  0  0  0
  1  3  2  0  0  0  0
  2  4  1  0  0  0  0
  4  1  1  0  0  0  0
  5 16  2  0  0  0  0
  5  2  1  0  0  0  0
  6 19  2  0  0  0  0
  7  2  1  0  0  0  0
  7 13  1  0  0  0  0
  8  9  1  0  0  0  0
  9 11  2  0  0  0  0
  9 15  1  0  0  0  0
 10  4  2  0  0  0  0
 10 12  1  0  0  0  0
 11  5  1  0  0  0  0
 12 17  2  0  0  0  0
 13 14  2  0  0  0  0
 14  1  1  0  0  0  0
 14 22  1  0  0  0  0
 15  7  2  0  0  0  0
 16 10  1  0  0  0  0
 17  3  1  0  0  0  0
 18  8  2  0  0  0  0
 18  6  1  0  0  0  0
 19 15  1  0  0  0  0
 20 23  1  0  0  0  0
 21 20  1  0  0  0  0
 22 24  2  0  0  0  0
 23 27  2  0  0  0  0
 24 27  1  0  0  0  0
 25 22  1  0  0  0  0
 25 20  2  0  0  0  0
 26 25  1  0  0  0  0
 27 29  1  0  0  0  0
 28 29  1  0  0  0  0
 30 16  1  0  0  0  0
 31 30  1  0  0  0  0
 32 31  1  0  0  0  0
M  END
>  <MODEL>
3

>  <REMARK>
 VINA RESULT:     -10.9      3.055      7.358
  Name = 
  4 active torsions:
  status: ('A' for Active; 'I' for Inactive)
    1  A    between atoms: C_13  and  C_18
    2  A    between atoms: C_15  and  C_26
    3  A    between atoms: C_16  and  C_27
    4  A    between atoms: C_18  and  C_29
                            x       y       z     vdW  Elec       q    Type
                         _______ _______ _______ _____ _____    ______ ____

>  <TORSDO>
F 4

$$$$
=
 OpenBabel10272413103D

 32 37  0  0  0  0  0  0  0  0999 V2000
  187.2040  178.0750  141.6080 C   0  0  0  0  0  0  0  0  0  0  0  0
  186.7460  178.0560  143.9120 N   0  0  0  0  0  0  0  0  0  0  0  0
  186.6810  178.4130  140.3430 C   0  0  0  0  0  3  0  0  0  0  0  0
  186.3580  178.2400  142.6760 C   0  0  0  0  0  0  0  0  0  0  0  0
  185.7620  178.4130  144.7280 C   0  0  0  0  0  0  0  0  0  0  0  0
  189.7310  177.2890  147.5190 C   0  0  0  0  0  3  0  0  0  0  0  0
  187.9910  177.7130  144.2600 C   0  0  0  0  0  0  0  0  0  0  0  0
  187.4430  178.0010  147.9160 C   0  0  0  0  0  3  0  0  0  0  0  0
  187.2010  178.0260  146.5400 C   0  0  0  0  0  0  0  0  0  0  0  0
  185.0880  178.7320  142.6290 C   0  0  0  0  0  0  0  0  0  0  0  0
  185.9650  178.4120  146.0710 N   0  0  0  0  0  0  0  0  0  0  0  0
  184.5350  179.0850  141.3960 C   0  0  0  0  0  3  0  0  0  0  0  0
  188.8980  177.4950  143.2540 N   0  0  0  0  0  0  0  0  0  0  0  0
  188.5280  177.6460  141.9260 C   0  0  0  0  0  0  0  0  0  0  0  0
  188.2620  177.6680  145.6360 C   0  0  0  0  0  0  0  0  0  0  0  0
  184.6600  178.8410  143.9690 C   0  0  0  0  0  0  0  0  0  0  0  0
  185.3470  178.9080  140.2430 C   0  0  0  0  0  3  0  0  0  0  0  0
  188.7010  177.6320  148.4020 C   0  0  0  0  0  3  0  0  0  0  0  0
  189.5150  177.3080  146.1370 C   0  0  0  0  0  3  0  0  0  0  0  0
  191.8420  177.2600  140.1060 C   0  0  0  0  0  0  0  0  0  0  0  0
  193.1770  177.2880  140.3470 F   0  0  0  0  0  0  0  0  0  0  0  0
  189.5410  177.4370  140.8750 C   0  0  0  0  0  0  0  0  0  0  0  0
  191.3880  177.0250  138.8070 C   0  0  0  0  0  3  0  0  0  0  0  0
  189.1010  177.2150  139.5650 C   0  0  0  0  0  3  0  0  0  0  0  0
  190.9260  177.4750  141.1470 C   0  0  0  0  0  0  0  0  0  0  0  0
  191.5400  177.8580  142.7540 Cl  0  0  0  0  0  0  0  0  0  0  0  0
  190.0190  177.0140  138.5330 C   0  0  0  0  0  0  0  0  0  0  0  0
  189.1800  177.9480  136.5370 O   0  0  0  0  0  1  0  0  0  0  0  0
  189.5390  176.7480  137.1500 C   0  0  0  0  0  2  0  0  0  0  0  0
  183.3970  179.4510  144.4710 C   0  0  0  0  0  2  0  0  0  0  0  0
  182.2130  178.5910  144.0730 C   0  0  0  0  0  2  0  0  0  0  0  0
  181.3870  179.3080  143.2100 O   0  0  0  0  0  1  0  0  0  0  0  0
  1 14  1  0  0  0  0
  1  4  2  0  0  0  0
  2  7  1  0  0  0  0
  2  5  1  0  0  0  0
  3  1  1  0  0  0  0
  4  2  1  0  0  0  0
  5 11  1  0  0  0  0
  6 18  1  0  0  0  0
  7 15  2  0  0  0  0
  8 18  2  0  0  0  0
  9  8  1  0  0  0  0
 10  4  1  0  0  0  0
 10 16  1  0  0  0  0
 11  9  2  0  0  0  0
 12 10  2  0  0  0  0
 13  7  1  0  0  0  0
 14 13  2  0  0  0  0
 15 19  1  0  0  0  0
 15  9  1  0  0  0  0
 16 30  1  0  0  0  0
 16  5  2  0  0  0  0
 17  3  2  0  0  0  0
 17 12  1  0  0  0  0
 19  6  2  0  0  0  0
 20 21  1  0  0  0  0
 20 25  1  0  0  0  0
 22 25  2  0  0  0  0
 22 14  1  0  0  0  0
 23 20  2  0  0  0  0
 24 22  1  0  0  0  0
 25 26  1  0  0  0  0
 27 23  1  0  0  0  0
 27 24  2  0  0  0  0
 28 29  1  0  0  0  0
 29 27  1  0  0  0  0
 31 30  1  0  0  0  0
 32 31  1  0  0  0  0
M  END
>  <MODEL>
4

>  <REMARK>
 VINA RESULT:     -10.6      2.620      4.827
  Name = 
  4 active torsions:
  status: ('A' for Active; 'I' for Inactive)
    1  A    between atoms: C_13  and  C_18
    2  A    between atoms: C_15  and  C_26
    3  A    between atoms: C_16  and  C_27
    4  A    between atoms: C_18  and  C_29
                            x       y       z     vdW  Elec       q    Type
                         _______ _______ _______ _____ _____    ______ ____

>  <TORSDO>
F 4

$$$$
=
 OpenBabel10272413103D

 32 37  0  0  0  0  0  0  0  0999 V2000
  189.4230  177.5170  142.7260 C   0  0  0  0  0  0  0  0  0  0  0  0
  187.6950  177.9300  141.1890 N   0  0  0  0  0  0  0  0  0  0  0  0
  190.8200  177.3810  142.8640 C   0  0  0  0  0  3  0  0  0  0  0  0
  188.9560  177.6930  141.4480 C   0  0  0  0  0  0  0  0  0  0  0  0
  187.5640  178.1850  139.8940 C   0  0  0  0  0  0  0  0  0  0  0  0
  183.1360  178.9170  142.0520 C   0  0  0  0  0  3  0  0  0  0  0  0
  186.7490  178.0400  142.1280 C   0  0  0  0  0  0  0  0  0  0  0  0
  184.0400  179.0390  139.8010 C   0  0  0  0  0  3  0  0  0  0  0  0
  185.2990  178.6630  140.2750 C   0  0  0  0  0  0  0  0  0  0  0  0
  189.7140  177.7870  140.3190 C   0  0  0  0  0  0  0  0  0  0  0  0
  186.3570  178.5650  139.3990 N   0  0  0  0  0  0  0  0  0  0  0  0
  191.1020  177.6630  140.4140 C   0  0  0  0  0  3  0  0  0  0  0  0
  187.1200  177.8470  143.4340 N   0  0  0  0  0  0  0  0  0  0  0  0
  188.4380  177.5630  143.7590 C   0  0  0  0  0  0  0  0  0  0  0  0
  185.4710  178.4060  141.6810 C   0  0  0  0  0  0  0  0  0  0  0  0
  188.8210  178.0930  139.2720 C   0  0  0  0  0  0  0  0  0  0  0  0
  191.6510  177.4460  141.7080 C   0  0  0  0  0  3  0  0  0  0  0  0
  182.9640  179.1630  140.6850 C   0  0  0  0  0  3  0  0  0  0  0  0
  184.3870  178.5410  142.5520 C   0  0  0  0  0  3  0  0  0  0  0  0
  188.3190  177.5370  147.5570 C   0  0  0  0  0  0  0  0  0  0  0  0
  187.4810  177.8440  148.5790 F   0  0  0  0  0  0  0  0  0  0  0  0
  188.8030  177.3960  145.1770 C   0  0  0  0  0  0  0  0  0  0  0  0
  189.5920  177.0400  147.8440 C   0  0  0  0  0  3  0  0  0  0  0  0
  190.0810  176.9130  145.4810 C   0  0  0  0  0  3  0  0  0  0  0  0
  187.9170  177.7270  146.2260 C   0  0  0  0  0  0  0  0  0  0  0  0
  186.3370  178.4410  145.9080 Cl  0  0  0  0  0  0  0  0  0  0  0  0
  190.4770  176.7390  146.8080 C   0  0  0  0  0  0  0  0  0  0  0  0
  192.3570  176.8510  148.2280 O   0  0  0  0  0  1  0  0  0  0  0  0
  191.8280  176.1950  147.1170 C   0  0  0  0  0  2  0  0  0  0  0  0
  189.1590  178.4300  137.8600 C   0  0  0  0  0  2  0  0  0  0  0  0
  189.0970  177.1830  137.0010 C   0  0  0  0  0  2  0  0  0  0  0  0
  187.9960  177.2600  136.1500 O   0  0  0  0  0  1  0  0  0  0  0  0
  1  3  1  0  0  0  0
  1 14  1  0  0  0  0
  2  4  1  0  0  0  0
  2  7  1  0  0  0  0
  4  1  2  0  0  0  0
  5  2  1  0  0  0  0
  6 19  2  0  0  0  0
  7 13  1  0  0  0  0
  8  9  1  0  0  0  0
  8 18  2  0  0  0  0
  9 15  1  0  0  0  0
 10 12  2  0  0  0  0
 10  4  1  0  0  0  0
 11  5  1  0  0  0  0
 11  9  2  0  0  0  0
 12 17  1  0  0  0  0
 13 14  2  0  0  0  0
 14 22  1  0  0  0  0
 15  7  2  0  0  0  0
 15 19  1  0  0  0  0
 16  5  2  0  0  0  0
 16 10  1  0  0  0  0
 17  3  2  0  0  0  0
 18  6  1  0  0  0  0
 20 23  1  0  0  0  0
 20 21  1  0  0  0  0
 22 24  2  0  0  0  0
 22 25  1  0  0  0  0
 24 27  1  0  0  0  0
 25 20  2  0  0  0  0
 26 25  1  0  0  0  0
 27 29  1  0  0  0  0
 27 23  2  0  0  0  0
 29 28  1  0  0  0  0
 30 16  1  0  0  0  0
 31 30  1  0  0  0  0
 32 31  1  0  0  0  0
M  END
>  <MODEL>
5

>  <REMARK>
 VINA RESULT:     -10.4      3.078      6.583
  Name = 
  4 active torsions:
  status: ('A' for Active; 'I' for Inactive)
    1  A    between atoms: C_13  and  C_18
    2  A    between atoms: C_15  and  C_26
    3  A    between atoms: C_16  and  C_27
    4  A    between atoms: C_18  and  C_29
                            x       y       z     vdW  Elec       q    Type
                         _______ _______ _______ _____ _____    ______ ____

>  <TORSDO>
F 4

$$$$
=
 OpenBabel10272413103D

 32 37  0  0  0  0  0  0  0  0999 V2000
  186.9730  177.9900  144.8130 C   0  0  0  0  0  0  0  0  0  0  0  0
  185.8220  178.5610  142.8450 N   0  0  0  0  0  0  0  0  0  0  0  0
  186.8350  177.8080  146.2040 C   0  0  0  0  0  3  0  0  0  0  0  0
  185.8600  178.4420  144.1480 C   0  0  0  0  0  0  0  0  0  0  0  0
  184.5900  178.8900  142.4810 C   0  0  0  0  0  0  0  0  0  0  0  0
  187.2560  178.1310  138.3440 C   0  0  0  0  0  3  0  0  0  0  0  0
  186.8400  178.2430  142.0370 C   0  0  0  0  0  0  0  0  0  0  0  0
  184.9800  178.7890  138.8760 C   0  0  0  0  0  3  0  0  0  0  0  0
  185.2640  178.7070  140.2410 C   0  0  0  0  0  0  0  0  0  0  0  0
  184.6390  178.6890  144.6990 C   0  0  0  0  0  0  0  0  0  0  0  0
  184.2740  178.9670  141.1620 N   0  0  0  0  0  0  0  0  0  0  0  0
  184.4580  178.5150  146.0730 C   0  0  0  0  0  3  0  0  0  0  0  0
  188.0060  177.8120  142.6170 N   0  0  0  0  0  0  0  0  0  0  0  0
  188.1070  177.6980  143.9960 C   0  0  0  0  0  0  0  0  0  0  0  0
  186.5880  178.3270  140.6600 C   0  0  0  0  0  0  0  0  0  0  0  0
  183.7810  179.0050  143.6250 C   0  0  0  0  0  0  0  0  0  0  0  0
  185.5820  178.0790  146.8280 C   0  0  0  0  0  3  0  0  0  0  0  0
  185.9720  178.5040  137.9330 C   0  0  0  0  0  3  0  0  0  0  0  0
  187.5660  178.0400  139.7050 C   0  0  0  0  0  3  0  0  0  0  0  0
  191.4920  176.0250  144.4310 C   0  0  0  0  0  0  0  0  0  0  0  0
  192.4120  175.3250  143.7210 F   0  0  0  0  0  0  0  0  0  0  0  0
  189.3660  177.1990  144.5790 C   0  0  0  0  0  0  0  0  0  0  0  0
  191.7310  176.2930  145.7810 C   0  0  0  0  0  3  0  0  0  0  0  0
  189.6130  177.4450  145.9350 C   0  0  0  0  0  3  0  0  0  0  0  0
  190.3080  176.4670  143.8220 C   0  0  0  0  0  0  0  0  0  0  0  0
  190.0020  176.0320  142.1420 Cl  0  0  0  0  0  0  0  0  0  0  0  0
  190.7880  176.9910  146.5360 C   0  0  0  0  0  0  0  0  0  0  0  0
  192.3470  176.8870  148.3020 O   0  0  0  0  0  1  0  0  0  0  0  0
  191.0530  177.2880  147.9700 C   0  0  0  0  0  2  0  0  0  0  0  0
  182.3080  179.2250  143.6740 C   0  0  0  0  0  2  0  0  0  0  0  0
  181.6690  178.7370  142.3890 C   0  0  0  0  0  2  0  0  0  0  0  0
  180.2820  178.7790  142.5150 O   0  0  0  0  0  1  0  0  0  0  0  0
  1  3  2  0  0  0  0
  2  4  1  0  0  0  0
  3 17  1  0  0  0  0
  4 10  2  0  0  0  0
  4  1  1  0  0  0  0
  5  2  1  0  0  0  0
  5 16  2  0  0  0  0
  6 19  2  0  0  0  0
  7 13  1  0  0  0  0
  7  2  1  0  0  0  0
  8  9  1  0  0  0  0
  9 15  1  0  0  0  0
  9 11  2  0  0  0  0
 10 12  1  0  0  0  0
 11  5  1  0  0  0  0
 12 17  2  0  0  0  0
 13 14  2  0  0  0  0
 14 22  1  0  0  0  0
 14  1  1  0  0  0  0
 15  7  2  0  0  0  0
 16 30  1  0  0  0  0
 16 10  1  0  0  0  0
 18  6  1  0  0  0  0
 18  8  2  0  0  0  0
 19 15  1  0  0  0  0
 20 23  1  0  0  0  0
 21 20  1  0  0  0  0
 22 24  2  0  0  0  0
 23 27  2  0  0  0  0
 24 27  1  0  0  0  0
 25 20  2  0  0  0  0
 25 22  1  0  0  0  0
 26 25  1  0  0  0  0
 27 29  1  0  0  0  0
 29 28  1  0  0  0  0
 31 32  1  0  0  0  0
 31 30  1  0  0  0  0
M  END
>  <MODEL>
6

>  <REMARK>
 VINA RESULT:     -10.2      3.140      6.327
  Name = 
  4 active torsions:
  status: ('A' for Active; 'I' for Inactive)
    1  A    between atoms: C_13  and  C_18
    2  A    between atoms: C_15  and  C_26
    3  A    between atoms: C_16  and  C_27
    4  A    between atoms: C_18  and  C_29
                            x       y       z     vdW  Elec       q    Type
                         _______ _______ _______ _____ _____    ______ ____

>  <TORSDO>
F 4

$$$$
=
 OpenBabel10272413103D

 32 37  0  0  0  0  0  0  0  0999 V2000
  187.7670  177.8500  141.6620 C   0  0  0  0  0  0  0  0  0  0  0  0
  188.1190  177.5710  143.9680 N   0  0  0  0  0  0  0  0  0  0  0  0
  186.8920  178.3930  140.6990 C   0  0  0  0  0  3  0  0  0  0  0  0
  187.3600  177.9460  142.9700 C   0  0  0  0  0  0  0  0  0  0  0  0
  187.5230  177.9000  145.1070 C   0  0  0  0  0  0  0  0  0  0  0  0
  192.0310  176.0940  146.2090 C   0  0  0  0  0  3  0  0  0  0  0  0
  189.3560  177.0820  143.8230 C   0  0  0  0  0  0  0  0  0  0  0  0
  190.1200  176.9380  147.4480 C   0  0  0  0  0  3  0  0  0  0  0  0
  189.4310  177.1610  146.2540 C   0  0  0  0  0  0  0  0  0  0  0  0
  186.2210  178.5440  143.4170 C   0  0  0  0  0  0  0  0  0  0  0  0
  188.1670  177.7080  146.2870 N   0  0  0  0  0  0  0  0  0  0  0  0
  185.3310  179.1000  142.4960 C   0  0  0  0  0  3  0  0  0  0  0  0
  189.8340  176.9220  142.5470 N   0  0  0  0  0  0  0  0  0  0  0  0
  189.0570  177.2750  141.4540 C   0  0  0  0  0  0  0  0  0  0  0  0
  190.0690  176.8360  145.0050 C   0  0  0  0  0  0  0  0  0  0  0  0
  186.2900  178.5140  144.8260 C   0  0  0  0  0  0  0  0  0  0  0  0
  185.6760  179.0060  141.1190 C   0  0  0  0  0  3  0  0  0  0  0  0
  191.4130  176.4040  147.4250 C   0  0  0  0  0  3  0  0  0  0  0  0
  191.3630  176.3100  144.9990 C   0  0  0  0  0  3  0  0  0  0  0  0
  191.4840  176.9980  138.5420 C   0  0  0  0  0  0  0  0  0  0  0  0
  192.8150  177.0320  138.2840 F   0  0  0  0  0  0  0  0  0  0  0  0
  189.6180  177.1190  140.1000 C   0  0  0  0  0  0  0  0  0  0  0  0
  190.5880  176.8120  137.4870 C   0  0  0  0  0  3  0  0  0  0  0  0
  188.7330  176.9460  139.0290 C   0  0  0  0  0  3  0  0  0  0  0  0
  191.0080  177.1620  139.8520 C   0  0  0  0  0  0  0  0  0  0  0  0
  192.1650  177.4850  141.1420 Cl  0  0  0  0  0  0  0  0  0  0  0  0
  189.2140  176.7970  137.7270 C   0  0  0  0  0  0  0  0  0  0  0  0
  187.4200  175.5110  136.8960 O   0  0  0  0  0  1  0  0  0  0  0  0
  188.2630  176.5830  136.6020 C   0  0  0  0  0  2  0  0  0  0  0  0
  185.3580  179.1570  145.7940 C   0  0  0  0  0  2  0  0  0  0  0  0
  184.0290  178.4290  145.7940 C   0  0  0  0  0  2  0  0  0  0  0  0
  183.0580  179.2330  145.2010 O   0  0  0  0  0  1  0  0  0  0  0  0
  1  4  2  0  0  0  0
  2  5  1  0  0  0  0
  3 17  2  0  0  0  0
  3  1  1  0  0  0  0
  4 10  1  0  0  0  0
  4  2  1  0  0  0  0
  5 11  1  0  0  0  0
  6 18  1  0  0  0  0
  7  2  1  0  0  0  0
  7 15  2  0  0  0  0
  9 11  2  0  0  0  0
  9  8  1  0  0  0  0
 10 16  1  0  0  0  0
 12 10  2  0  0  0  0
 13  7  1  0  0  0  0
 14  1  1  0  0  0  0
 14 13  2  0  0  0  0
 15  9  1  0  0  0  0
 16  5  2  0  0  0  0
 16 30  1  0  0  0  0
 17 12  1  0  0  0  0
 18  8  2  0  0  0  0
 19 15  1  0  0  0  0
 19  6  2  0  0  0  0
 20 25  1  0  0  0  0
 21 20  1  0  0  0  0
 22 14  1  0  0  0  0
 23 27  1  0  0  0  0
 23 20  2  0  0  0  0
 24 22  1  0  0  0  0
 25 22  2  0  0  0  0
 25 26  1  0  0  0  0
 27 24  2  0  0  0  0
 29 28  1  0  0  0  0
 29 27  1  0  0  0  0
 30 31  1  0  0  0  0
 32 31  1  0  0  0  0
M  END
>  <MODEL>
7

>  <REMARK>
 VINA RESULT:     -10.2      2.365      4.748
  Name = 
  4 active torsions:
  status: ('A' for Active; 'I' for Inactive)
    1  A    between atoms: C_13  and  C_18
    2  A    between atoms: C_15  and  C_26
    3  A    between atoms: C_16  and  C_27
    4  A    between atoms: C_18  and  C_29
                            x       y       z     vdW  Elec       q    Type
                         _______ _______ _______ _____ _____    ______ ____

>  <TORSDO>
F 4

$$$$
=
 OpenBabel10272413103D

 32 37  0  0  0  0  0  0  0  0999 V2000
  187.3550  178.1200  141.5230 C   0  0  0  0  0  0  0  0  0  0  0  0
  189.3970  177.5480  142.5350 N   0  0  0  0  0  0  0  0  0  0  0  0
  186.7050  178.2950  140.2840 C   0  0  0  0  0  3  0  0  0  0  0  0
  188.6950  177.8310  141.4660 C   0  0  0  0  0  0  0  0  0  0  0  0
  190.6180  177.1870  142.1630 C   0  0  0  0  0  0  0  0  0  0  0  0
  190.2660  176.5390  147.0880 C   0  0  0  0  0  3  0  0  0  0  0  0
  188.8860  177.4940  143.7700 C   0  0  0  0  0  0  0  0  0  0  0  0
  191.9810  176.2540  145.3920 C   0  0  0  0  0  3  0  0  0  0  0  0
  191.0940  176.6940  144.4060 C   0  0  0  0  0  0  0  0  0  0  0  0
  189.4360  177.6630  140.3350 C   0  0  0  0  0  0  0  0  0  0  0  0
  191.5030  176.7420  143.0920 N   0  0  0  0  0  0  0  0  0  0  0  0
  188.8280  177.8220  139.0880 C   0  0  0  0  0  3  0  0  0  0  0  0
  187.5570  177.8000  143.9260 N   0  0  0  0  0  0  0  0  0  0  0  0
  186.7780  178.1360  142.8290 C   0  0  0  0  0  0  0  0  0  0  0  0
  189.7560  177.0670  144.7830 C   0  0  0  0  0  0  0  0  0  0  0  0
  190.7160  177.2540  140.7620 C   0  0  0  0  0  0  0  0  0  0  0  0
  187.4450  178.1550  139.0750 C   0  0  0  0  0  3  0  0  0  0  0  0
  191.5690  176.1800  146.7260 C   0  0  0  0  0  3  0  0  0  0  0  0
  189.3580  176.9800  146.1200 C   0  0  0  0  0  3  0  0  0  0  0  0
  183.4320  178.9350  144.4460 C   0  0  0  0  0  0  0  0  0  0  0  0
  182.8900  179.1630  145.6680 F   0  0  0  0  0  0  0  0  0  0  0  0
  185.3470  178.4250  143.0330 C   0  0  0  0  0  0  0  0  0  0  0  0
  182.6110  178.9680  143.3160 C   0  0  0  0  0  3  0  0  0  0  0  0
  184.5080  178.4470  141.9130 C   0  0  0  0  0  3  0  0  0  0  0  0
  184.8010  178.6560  144.3160 C   0  0  0  0  0  0  0  0  0  0  0  0
  185.7860  178.5330  145.7720 Cl  0  0  0  0  0  0  0  0  0  0  0  0
  183.1450  178.7130  142.0530 C   0  0  0  0  0  0  0  0  0  0  0  0
  180.9430  178.9480  141.2410 O   0  0  0  0  0  1  0  0  0  0  0  0
  182.2690  178.7640  140.8500 C   0  0  0  0  0  2  0  0  0  0  0  0
  191.8580  176.8110  139.9130 C   0  0  0  0  0  2  0  0  0  0  0  0
  193.0780  177.6640  140.2000 C   0  0  0  0  0  2  0  0  0  0  0  0
  194.2310  176.9170  139.9680 O   0  0  0  0  0  1  0  0  0  0  0  0
  1 14  1  0  0  0  0
  2  7  1  0  0  0  0
  3  1  1  0  0  0  0
  4  1  2  0  0  0  0
  4  2  1  0  0  0  0
  5  2  1  0  0  0  0
  5 11  1  0  0  0  0
  7 13  1  0  0  0  0
  7 15  2  0  0  0  0
  8 18  2  0  0  0  0
  9 15  1  0  0  0  0
  9  8  1  0  0  0  0
 10 16  1  0  0  0  0
 10  4  1  0  0  0  0
 11  9  2  0  0  0  0
 12 10  2  0  0  0  0
 14 22  1  0  0  0  0
 14 13  2  0  0  0  0
 15 19  1  0  0  0  0
 16  5  2  0  0  0  0
 17 12  1  0  0  0  0
 17  3  2  0  0  0  0
 18  6  1  0  0  0  0
 19  6  2  0  0  0  0
 20 21  1  0  0  0  0
 22 25  2  0  0  0  0
 23 20  2  0  0  0  0
 24 27  2  0  0  0  0
 24 22  1  0  0  0  0
 25 20  1  0  0  0  0
 25 26  1  0  0  0  0
 27 23  1  0  0  0  0
 29 28  1  0  0  0  0
 29 27  1  0  0  0  0
 30 31  1  0  0  0  0
 30 16  1  0  0  0  0
 32 31  1  0  0  0  0
M  END
>  <MODEL>
8

>  <REMARK>
 VINA RESULT:     -10.0      3.139      7.080
  Name = 
  4 active torsions:
  status: ('A' for Active; 'I' for Inactive)
    1  A    between atoms: C_13  and  C_18
    2  A    between atoms: C_15  and  C_26
    3  A    between atoms: C_16  and  C_27
    4  A    between atoms: C_18  and  C_29
                            x       y       z     vdW  Elec       q    Type
                         _______ _______ _______ _____ _____    ______ ____

>  <TORSDO>
F 4

$$$$
=
 OpenBabel10272413103D

 32 37  0  0  0  0  0  0  0  0999 V2000
  187.6390  177.8880  142.8970 C   0  0  0  0  0  0  0  0  0  0  0  0
  185.5190  178.2000  141.9350 N   0  0  0  0  0  0  0  0  0  0  0  0
  189.0210  177.8340  142.6220 C   0  0  0  0  0  3  0  0  0  0  0  0
  186.8120  178.0380  141.8130 C   0  0  0  0  0  0  0  0  0  0  0  0
  185.0030  178.4490  140.7380 C   0  0  0  0  0  0  0  0  0  0  0  0
  181.3600  178.9190  144.1010 C   0  0  0  0  0  3  0  0  0  0  0  0
  184.8820  178.2550  143.1100 C   0  0  0  0  0  0  0  0  0  0  0  0
  181.5620  179.0960  141.6870 C   0  0  0  0  0  3  0  0  0  0  0  0
  182.9240  178.7930  141.7690 C   0  0  0  0  0  0  0  0  0  0  0  0
  187.2030  178.1760  140.5150 C   0  0  0  0  0  0  0  0  0  0  0  0
  183.6860  178.7590  140.6220 N   0  0  0  0  0  0  0  0  0  0  0  0
  188.5630  178.1340  140.2000 C   0  0  0  0  0  3  0  0  0  0  0  0
  185.6260  178.0830  144.2490 N   0  0  0  0  0  0  0  0  0  0  0  0
  186.9950  177.8760  144.1720 C   0  0  0  0  0  0  0  0  0  0  0  0
  183.5100  178.5460  143.0590 C   0  0  0  0  0  0  0  0  0  0  0  0
  186.0280  178.4310  139.7770 C   0  0  0  0  0  0  0  0  0  0  0  0
  189.4750  177.9480  141.2750 C   0  0  0  0  0  3  0  0  0  0  0  0
  180.7850  179.1570  142.8470 C   0  0  0  0  0  3  0  0  0  0  0  0
  182.7210  178.6170  144.2100 C   0  0  0  0  0  3  0  0  0  0  0  0
  187.9970  177.8710  147.8380 C   0  0  0  0  0  0  0  0  0  0  0  0
  187.4880  178.1600  149.0620 F   0  0  0  0  0  0  0  0  0  0  0  0
  187.7660  177.7290  145.4200 C   0  0  0  0  0  0  0  0  0  0  0  0
  189.3130  177.4140  147.7370 C   0  0  0  0  0  3  0  0  0  0  0  0
  189.0910  177.2860  145.3340 C   0  0  0  0  0  3  0  0  0  0  0  0
  187.2170  178.0400  146.6840 C   0  0  0  0  0  0  0  0  0  0  0  0
  185.5930  178.7050  146.8460 Cl  0  0  0  0  0  0  0  0  0  0  0  0
  189.8640  177.1330  146.4860 C   0  0  0  0  0  0  0  0  0  0  0  0
  191.9420  176.8860  147.5740 O   0  0  0  0  0  1  0  0  0  0  0  0
  191.2620  176.6320  146.3830 C   0  0  0  0  0  2  0  0  0  0  0  0
  185.9220  178.7890  138.3340 C   0  0  0  0  0  2  0  0  0  0  0  0
  185.8800  177.5300  137.4910 C   0  0  0  0  0  2  0  0  0  0  0  0
  184.5870  177.0100  137.4970 O   0  0  0  0  0  1  0  0  0  0  0  0
  1 14  1  0  0  0  0
  2  7  1  0  0  0  0
  3  1  1  0  0  0  0
  4  2  1  0  0  0  0
  4  1  2  0  0  0  0
  5  2  1  0  0  0  0
  6 19  2  0  0  0  0
  7 13  1  0  0  0  0
  8  9  1  0  0  0  0
  8 18  2  0  0  0  0
  9 15  1  0  0  0  0
 10  4  1  0  0  0  0
 11  5  1  0  0  0  0
 11  9  2  0  0  0  0
 12 10  2  0  0  0  0
 12 17  1  0  0  0  0
 14 13  2  0  0  0  0
 14 22  1  0  0  0  0
 15  7  2  0  0  0  0
 15 19  1  0  0  0  0
 16 10  1  0  0  0  0
 16  5  2  0  0  0  0
 17  3  2  0  0  0  0
 18  6  1  0  0  0  0
 20 21  1  0  0  0  0
 22 25  1  0  0  0  0
 23 20  1  0  0  0  0
 24 22  2  0  0  0  0
 24 27  1  0  0  0  0
 25 26  1  0  0  0  0
 25 20  2  0  0  0  0
 27 23  2  0  0  0  0
 29 27  1  0  0  0  0
 29 28  1  0  0  0  0
 30 16  1  0  0  0  0
 31 32  1  0  0  0  0
 31 30  1  0  0  0  0
M  END
>  <MODEL>
9

>  <REMARK>
 VINA RESULT:     -10.0      3.543      6.673
  Name = 
  4 active torsions:
  status: ('A' for Active; 'I' for Inactive)
    1  A    between atoms: C_13  and  C_18
    2  A    between atoms: C_15  and  C_26
    3  A    between atoms: C_16  and  C_27
    4  A    between atoms: C_18  and  C_29
                            x       y       z     vdW  Elec       q    Type
                         _______ _______ _______ _____ _____    ______ ____

>  <TORSDO>
F 4

$$$$
