=
 OpenBabel10272401353D

 55 60  0  0  1  0  0  0  0  0999 V2000
  190.4760  177.6220  140.6640 C   0  0  0  0  0  3  0  0  0  0  0  0
  189.2120  176.7870  138.3120 C   0  0  0  0  0  0  0  0  0  0  0  0
  188.4800  177.4410  139.3070 C   0  0  0  0  0  3  0  0  0  0  0  0
  191.2080  176.9600  139.6740 C   0  0  0  0  0  3  0  0  0  0  0  0
  189.1090  177.8580  140.4840 C   0  0  0  0  0  0  0  0  0  0  0  0
  190.5760  176.5390  138.4980 C   0  0  0  0  0  3  0  0  0  0  0  0
  188.3300  178.5780  141.5280 C   0  0  0  0  0  2  0  0  0  0  0  0
  187.2860  177.6510  142.1270 C   0  0  0  0  0  2  0  0  0  0  0  0
  189.4230  177.4620  147.0270 S   0  0  0  0  0  0  0  0  0  0  0  0
  187.8080  176.1560  148.8040 C   0  0  0  0  0  1  0  0  0  0  0  0
  186.9870  178.2320  146.4170 C   0  0  0  0  0  0  0  0  0  0  0  0
  186.9920  178.3240  147.8980 C   0  0  0  0  0  2  0  0  0  0  0  0
  188.2150  177.5580  148.3900 C   0  0  2  0  0  3  0  0  0  0  0  0
  188.1130  177.8140  145.8650 C   0  0  0  0  0  0  0  0  0  0  0  0
  185.9760  178.4390  144.1670 N   0  0  0  0  0  0  0  0  0  0  0  0
  185.7530  178.5260  145.6190 C   0  0  0  0  0  2  0  0  0  0  0  0
  188.2290  177.5800  144.4120 C   0  0  0  0  0  0  0  0  0  0  0  0
  187.1860  177.8740  143.6090 C   0  0  0  0  0  0  0  0  0  0  0  0
  181.3230  177.9690  141.1580 C   0  0  0  0  0  0  0  0  0  0  0  0
  184.8930  178.0050  141.9960 C   0  0  0  0  0  2  0  0  0  0  0  0
  180.0010  178.0400  141.8460 C   0  0  0  0  0  1  0  0  0  0  0  0
  182.5060  178.4920  141.7780 N   0  0  0  0  0  0  0  0  0  0  0  0
  183.5400  178.7650  143.9790 C   0  0  0  0  0  2  0  0  0  0  0  0
  182.4310  179.2290  143.0400 C   0  0  0  0  0  2  0  0  0  0  0  0
  181.3880  177.4280  140.0230 O   0  0  0  0  0  0  0  0  0  0  0  0
  183.7810  178.4740  141.0630 C   0  0  0  0  0  2  0  0  0  0  0  0
  184.8940  178.8460  143.2720 C   0  0  0  0  0  3  0  0  0  0  0  0
  189.5120  177.0240  143.8570 C   0  0  0  0  0  2  0  0  0  0  0  0
  190.8580  179.0890  143.8630 N   0  0  0  0  0  1  0  0  0  0  0  0
  190.7230  177.7560  144.4380 C   0  0  2  0  0  3  0  0  0  0  0  0
  191.9220  177.0120  144.3420 O   0  0  0  0  0  0  0  0  0  0  0  0
  191.6060  175.6530  144.1740 C   0  0  0  0  0  1  0  0  0  0  0  0
  188.5310  176.3350  137.0660 C   0  0  0  0  0  2  0  0  0  0  0  0
  189.4280  176.3560  135.9940 O   0  0  0  0  0  0  0  0  0  0  0  0
  189.0550  175.2770  135.1850 C   0  0  0  0  0  2  0  0  0  0  0  0
  190.2700  174.4400  134.8240 C   0  0  0  0  0  2  0  0  0  0  0  0
  191.5460  175.1520  135.2340 C   0  0  0  0  0  2  0  0  0  0  0  0
  192.3680  174.2300  136.1220 C   0  0  0  0  0  2  0  0  0  0  0  0
  196.6720  173.8680  135.2870 C   0  0  2  0  0  0  0  0  0  0  0  0
  196.1710  173.3240  138.4560 C   0  0  0  0  0  2  0  0  0  0  0  0
  194.5840  172.9300  136.4420 C   0  0  2  0  0  0  0  0  0  0  0  0
  193.3580  172.9790  134.3480 O   0  0  0  0  0  1  0  0  0  0  0  0
  194.5820  175.0020  137.8030 F   0  0  0  0  0  0  0  0  0  0  0  0
  194.8150  173.6350  137.8120 C   0  0  2  0  0  3  0  0  0  0  0  0
  193.6750  173.7540  135.4700 C   0  0  1  0  0  0  0  0  0  0  0  0
  195.7670  174.6830  134.3540 C   0  0  0  0  0  2  0  0  0  0  0  0
  197.1610  174.6950  136.4660 C   0  0  0  0  0  0  0  0  0  0  0  0
  197.8800  173.4230  134.4880 C   0  0  0  0  0  1  0  0  0  0  0  0
  197.3700  174.0780  137.8460 C   0  0  1  0  0  3  0  0  0  0  0  0
  194.4150  175.0120  134.9930 C   0  0  0  0  0  2  0  0  0  0  0  0
  193.9730  171.7020  136.7070 O   0  0  0  0  0  1  0  0  0  0  0  0
  197.4650  175.8650  136.2780 O   0  0  0  0  0  0  0  0  0  0  0  0
  195.9160  172.6130  135.7300 C   0  0  0  0  0  2  0  0  0  0  0  0
  197.9780  175.0400  138.8660 C   0  0  0  0  0  2  0  0  0  0  0  0
  197.1010  175.2500  139.9330 O   0  0  0  0  0  1  0  0  0  0  0  0
  2  6  2  0  0  0  0
  2  3  1  0  0  0  0
  3  5  2  0  0  0  0
  4  1  2  0  0  0  0
  5  1  1  0  0  0  0
  5  7  1  0  0  0  0
  6  4  1  0  0  0  0
  7  8  1  0  0  0  0
  8 18  1  0  0  0  0
  9 13  1  0  0  0  0
 11 12  1  0  0  0  0
 12 13  1  0  0  0  0
 13 10  1  6  0  0  0
 14 11  2  0  0  0  0
 14  9  1  0  0  0  0
 15 16  1  0  0  0  0
 16 11  1  0  0  0  0
 17 14  1  0  0  0  0
 18 15  1  0  0  0  0
 18 17  2  0  0  0  0
 19 22  1  0  0  0  0
 19 21  1  0  0  0  0
 20 27  1  0  0  0  0
 22 24  1  0  0  0  0
 24 23  1  0  0  0  0
 25 19  2  0  0  0  0
 26 22  1  0  0  0  0
 26 20  1  0  0  0  0
 27 23  1  0  0  0  0
 27 15  1  0  0  0  0
 28 17  1  0  0  0  0
 28 30  1  0  0  0  0
 30 29  1  6  0  0  0
 31 30  1  0  0  0  0
 32 31  1  0  0  0  0
 33  2  1  0  0  0  0
 34 33  1  0  0  0  0
 35 34  1  0  0  0  0
 36 35  1  0  0  0  0
 36 37  1  0  0  0  0
 37 38  1  0  0  0  0
 39 48  1  6  0  0  0
 39 53  1  0  0  0  0
 39 47  1  0  0  0  0
 41 51  1  1  0  0  0
 41 44  1  0  0  0  0
 44 43  1  6  0  0  0
 44 40  1  0  0  0  0
 45 42  1  6  0  0  0
 45 38  1  0  0  0  0
 45 41  1  0  0  0  0
 46 50  1  0  0  0  0
 46 39  1  0  0  0  0
 47 49  1  0  0  0  0
 49 40  1  0  0  0  0
 49 54  1  1  0  0  0
 50 45  1  0  0  0  0
 52 47  2  0  0  0  0
 53 41  1  0  0  0  0
 54 55  1  0  0  0  0
M  END
>  <MODEL>
1

>  <REMARK>
 VINA RESULT:      -8.1      0.000      0.000
  Name = 
  15 active torsions:
  status: ('A' for Active; 'I' for Inactive)
    1  A    between atoms: C_2  and  C_28
    2  A    between atoms: C_2  and  C_44
    3  A    between atoms: O_4  and  C_40
    4  A    between atoms: C_8  and  C_22
    5  A    between atoms: C_8  and  C_43
    6  A    between atoms: C_11  and  C_38
    7  A    between atoms: C_19  and  C_40
    8  A    between atoms: C_19  and  C_45
    9  A    between atoms: C_20  and  C_22
   10  A    between atoms: C_27  and  C_54
   11  A    between atoms: C_28  and  C_49
   12  A    between atoms: N_33  and  C_52
   13  A    between atoms: C_35  and  C_43
   14  A    between atoms: C_35  and  O_51
   15  A    between atoms: O_51  and  C_54
                            x       y       z     vdW  Elec       q    Type
                         _______ _______ _______ _____ _____    ______ ____

>  <TORSDO>
F 15

$$$$
=
 OpenBabel10272401353D

 55 60  0  0  1  0  0  0  0  0999 V2000
  187.0460  177.4360  144.5800 C   0  0  0  0  0  3  0  0  0  0  0  0
  184.6760  178.4380  143.4810 C   0  0  0  0  0  0  0  0  0  0  0  0
  185.6900  177.9610  142.6440 C   0  0  0  0  0  3  0  0  0  0  0  0
  186.0360  177.9210  145.4170 C   0  0  0  0  0  3  0  0  0  0  0  0
  186.8760  177.4620  143.1920 C   0  0  0  0  0  0  0  0  0  0  0  0
  184.8520  178.4250  144.8680 C   0  0  0  0  0  3  0  0  0  0  0  0
  187.9400  176.9300  142.2970 C   0  0  0  0  0  2  0  0  0  0  0  0
  188.5580  178.0640  141.4960 C   0  0  0  0  0  2  0  0  0  0  0  0
  190.1690  176.5810  136.6160 S   0  0  0  0  0  0  0  0  0  0  0  0
  191.2690  174.0790  136.6120 C   0  0  0  0  0  1  0  0  0  0  0  0
  191.5810  176.4610  138.8270 C   0  0  0  0  0  0  0  0  0  0  0  0
  192.5000  175.8660  137.8260 C   0  0  0  0  0  2  0  0  0  0  0  0
  191.6680  175.5420  136.5910 C   0  0  2  0  0  3  0  0  0  0  0  0
  190.4030  176.8440  138.3660 C   0  0  0  0  0  0  0  0  0  0  0  0
  190.9300  177.2240  141.0900 N   0  0  0  0  0  0  0  0  0  0  0  0
  191.9520  176.5450  140.2770 C   0  0  0  0  0  2  0  0  0  0  0  0
  189.3480  177.3630  139.2600 C   0  0  0  0  0  0  0  0  0  0  0  0
  189.6140  177.5290  140.5720 C   0  0  0  0  0  0  0  0  0  0  0  0
  190.1280  177.4650  146.5880 C   0  0  0  0  0  0  0  0  0  0  0  0
  190.2420  178.5130  143.0750 C   0  0  0  0  0  2  0  0  0  0  0  0
  190.2920  176.2260  147.4020 C   0  0  0  0  0  1  0  0  0  0  0  0
  190.7150  177.5730  145.2830 N   0  0  0  0  0  0  0  0  0  0  0  0
  191.2480  176.2170  143.3170 C   0  0  0  0  0  2  0  0  0  0  0  0
  191.6010  176.5290  144.7690 C   0  0  0  0  0  2  0  0  0  0  0  0
  189.4530  178.4170  147.0600 O   0  0  0  0  0  0  0  0  0  0  0  0
  190.6020  178.8190  144.5270 C   0  0  0  0  0  2  0  0  0  0  0  0
  191.2330  177.5050  142.4930 C   0  0  0  0  0  3  0  0  0  0  0  0
  188.0000  177.7040  138.6860 C   0  0  0  0  0  2  0  0  0  0  0  0
  188.8340  179.6980  137.5000 N   0  0  0  0  0  1  0  0  0  0  0  0
  188.1420  178.4250  137.3430 C   0  0  2  0  0  3  0  0  0  0  0  0
  186.9150  178.5670  136.6550 O   0  0  0  0  0  0  0  0  0  0  0  0
  187.1270  178.3370  135.2850 C   0  0  0  0  0  1  0  0  0  0  0  0
  183.4210  178.9800  142.8890 C   0  0  0  0  0  2  0  0  0  0  0  0
  182.9780  178.1470  141.8570 O   0  0  0  0  0  0  0  0  0  0  0  0
  182.4430  179.0110  140.8950 C   0  0  0  0  0  2  0  0  0  0  0  0
  183.4130  179.1840  139.7400 C   0  0  0  0  0  2  0  0  0  0  0  0
  182.6730  179.1500  138.4150 C   0  0  0  0  0  2  0  0  0  0  0  0
  183.2530  178.0440  137.5470 C   0  0  0  0  0  2  0  0  0  0  0  0
  181.7030  174.1960  136.0830 C   0  0  2  0  0  0  0  0  0  0  0  0
  184.4620  173.6580  137.7210 C   0  0  0  0  0  2  0  0  0  0  0  0
  182.7150  175.5540  138.0080 C   0  0  2  0  0  0  0  0  0  0  0  0
  181.0090  177.2610  137.7520 O   0  0  0  0  0  1  0  0  0  0  0  0
  184.7460  175.7630  136.6010 F   0  0  0  0  0  0  0  0  0  0  0  0
  184.1980  175.1670  137.7280 C   0  0  2  0  0  3  0  0  0  0  0  0
  182.2800  176.8810  137.3020 C   0  0  1  0  0  0  0  0  0  0  0  0
  181.2990  175.5070  135.3960 C   0  0  0  0  0  2  0  0  0  0  0  0
  183.0200  173.6580  135.5450 C   0  0  0  0  0  0  0  0  0  0  0  0
  180.6210  173.1730  135.8000 C   0  0  0  0  0  1  0  0  0  0  0  0
  184.0110  172.9240  136.4420 C   0  0  1  0  0  3  0  0  0  0  0  0
  182.2120  176.6740  135.7830 C   0  0  0  0  0  2  0  0  0  0  0  0
  182.5820  175.7060  139.3900 O   0  0  0  0  0  1  0  0  0  0  0  0
  183.2470  173.7510  134.3460 O   0  0  0  0  0  0  0  0  0  0  0  0
  181.7440  174.4280  137.5960 C   0  0  0  0  0  2  0  0  0  0  0  0
  185.2160  172.3550  135.6930 C   0  0  0  0  0  2  0  0  0  0  0  0
  186.3510  172.3550  136.5070 O   0  0  0  0  0  1  0  0  0  0  0  0
  1  4  1  0  0  0  0
  2  6  1  0  0  0  0
  3  5  1  0  0  0  0
  3  2  2  0  0  0  0
  5  1  2  0  0  0  0
  6  4  2  0  0  0  0
  7  5  1  0  0  0  0
  8  7  1  0  0  0  0
  9 14  1  0  0  0  0
 11 16  1  0  0  0  0
 12 11  1  0  0  0  0
 13 10  1  1  0  0  0
 13  9  1  0  0  0  0
 13 12  1  0  0  0  0
 14 11  2  0  0  0  0
 14 17  1  0  0  0  0
 15 27  1  0  0  0  0
 16 15  1  0  0  0  0
 17 18  2  0  0  0  0
 18 15  1  0  0  0  0
 18  8  1  0  0  0  0
 19 25  2  0  0  0  0
 19 21  1  0  0  0  0
 20 26  1  0  0  0  0
 22 19  1  0  0  0  0
 23 24  1  0  0  0  0
 24 22  1  0  0  0  0
 26 22  1  0  0  0  0
 27 20  1  0  0  0  0
 27 23  1  0  0  0  0
 28 17  1  0  0  0  0
 30 29  1  1  0  0  0
 30 28  1  0  0  0  0
 31 30  1  0  0  0  0
 32 31  1  0  0  0  0
 33  2  1  0  0  0  0
 34 33  1  0  0  0  0
 35 34  1  0  0  0  0
 36 35  1  0  0  0  0
 37 36  1  0  0  0  0
 38 37  1  0  0  0  0
 39 48  1  6  0  0  0
 39 53  1  0  0  0  0
 40 44  1  0  0  0  0
 41 51  1  1  0  0  0
 44 43  1  6  0  0  0
 44 41  1  0  0  0  0
 45 38  1  0  0  0  0
 45 42  1  1  0  0  0
 45 41  1  0  0  0  0
 46 50  1  0  0  0  0
 46 39  1  0  0  0  0
 47 39  1  0  0  0  0
 47 49  1  0  0  0  0
 49 54  1  6  0  0  0
 49 40  1  0  0  0  0
 50 45  1  0  0  0  0
 52 47  2  0  0  0  0
 53 41  1  0  0  0  0
 54 55  1  0  0  0  0
M  END
>  <MODEL>
2

>  <REMARK>
 VINA RESULT:      -7.9      4.312     10.175
  Name = 
  15 active torsions:
  status: ('A' for Active; 'I' for Inactive)
    1  A    between atoms: C_2  and  C_28
    2  A    between atoms: C_2  and  C_44
    3  A    between atoms: O_4  and  C_40
    4  A    between atoms: C_8  and  C_22
    5  A    between atoms: C_8  and  C_43
    6  A    between atoms: C_11  and  C_38
    7  A    between atoms: C_19  and  C_40
    8  A    between atoms: C_19  and  C_45
    9  A    between atoms: C_20  and  C_22
   10  A    between atoms: C_27  and  C_54
   11  A    between atoms: C_28  and  C_49
   12  A    between atoms: N_33  and  C_52
   13  A    between atoms: C_35  and  C_43
   14  A    between atoms: C_35  and  O_51
   15  A    between atoms: O_51  and  C_54
                            x       y       z     vdW  Elec       q    Type
                         _______ _______ _______ _____ _____    ______ ____

>  <TORSDO>
F 15

$$$$
=
 OpenBabel10272401353D

 55 60  0  0  1  0  0  0  0  0999 V2000
  188.7990  177.6510  144.3660 C   0  0  0  0  0  3  0  0  0  0  0  0
  191.0430  177.6260  142.6940 C   0  0  0  0  0  0  0  0  0  0  0  0
  189.7590  177.6460  142.1420 C   0  0  0  0  0  3  0  0  0  0  0  0
  190.0840  177.6210  144.9180 C   0  0  0  0  0  3  0  0  0  0  0  0
  188.6360  177.6570  142.9770 C   0  0  0  0  0  0  0  0  0  0  0  0
  191.2060  177.6060  144.0830 C   0  0  0  0  0  3  0  0  0  0  0  0
  187.2720  177.7070  142.3840 C   0  0  0  0  0  2  0  0  0  0  0  0
  187.1450  178.9190  141.4760 C   0  0  0  0  0  2  0  0  0  0  0  0
  181.8570  179.3180  140.7770 S   0  0  0  0  0  0  0  0  0  0  0  0
  180.7810  177.0280  139.7410 C   0  0  0  0  0  1  0  0  0  0  0  0
  183.6070  178.4930  139.0000 C   0  0  0  0  0  0  0  0  0  0  0  0
  182.3190  178.3290  138.2820 C   0  0  0  0  0  2  0  0  0  0  0  0
  181.2100  178.4220  139.3240 C   0  0  2  0  0  3  0  0  0  0  0  0
  183.5200  178.9600  140.2330 C   0  0  0  0  0  0  0  0  0  0  0  0
  186.0690  178.3830  139.2280 N   0  0  0  0  0  0  0  0  0  0  0  0
  184.9070  178.0790  138.3780 C   0  0  0  0  0  2  0  0  0  0  0  0
  184.7060  179.0840  141.1050 C   0  0  0  0  0  0  0  0  0  0  0  0
  185.9260  178.7900  140.6090 C   0  0  0  0  0  0  0  0  0  0  0  0
  189.9750  176.4010  135.8000 C   0  0  0  0  0  0  0  0  0  0  0  0
  187.7870  176.6870  138.7300 C   0  0  0  0  0  2  0  0  0  0  0  0
  190.1580  177.0340  134.4620 C   0  0  0  0  0  1  0  0  0  0  0  0
  189.3120  177.1010  136.8630 N   0  0  0  0  0  0  0  0  0  0  0  0
  187.5040  178.7050  137.2490 C   0  0  0  0  0  2  0  0  0  0  0  0
  188.9170  178.5010  136.7090 C   0  0  0  0  0  2  0  0  0  0  0  0
  190.4020  175.2310  135.9820 O   0  0  0  0  0  0  0  0  0  0  0  0
  189.2000  176.4920  138.1880 C   0  0  0  0  0  2  0  0  0  0  0  0
  187.4070  178.1670  138.6780 C   0  0  0  0  0  3  0  0  0  0  0  0
  184.5280  179.5430  142.5260 C   0  0  0  0  0  2  0  0  0  0  0  0
  182.6780  178.7580  143.9530 N   0  0  0  0  0  1  0  0  0  0  0  0
  183.9840  178.4140  143.4040 C   0  0  2  0  0  3  0  0  0  0  0  0
  184.8920  178.0020  144.4060 O   0  0  0  0  0  0  0  0  0  0  0  0
  185.2410  179.1120  145.1940 C   0  0  0  0  0  1  0  0  0  0  0  0
  192.2340  177.6020  141.7990 C   0  0  0  0  0  2  0  0  0  0  0  0
  191.8300  177.6480  140.4610 O   0  0  0  0  0  0  0  0  0  0  0  0
  192.9650  177.2940  139.7240 C   0  0  0  0  0  2  0  0  0  0  0  0
  192.5720  176.4930  138.4960 C   0  0  0  0  0  2  0  0  0  0  0  0
  193.7690  176.2950  137.5850 C   0  0  0  0  0  2  0  0  0  0  0  0
  194.2530  174.8580  137.7030 C   0  0  0  0  0  2  0  0  0  0  0  0
  197.5400  172.5940  135.8530 C   0  0  2  0  0  0  0  0  0  0  0  0
  194.7750  170.9230  135.4730 C   0  0  0  0  0  2  0  0  0  0  0  0
  195.1400  173.4810  135.6980 C   0  0  2  0  0  0  0  0  0  0  0  0
  195.8980  175.7290  136.2100 O   0  0  0  0  0  1  0  0  0  0  0  0
  194.6210  171.9970  137.6140 F   0  0  0  0  0  0  0  0  0  0  0  0
  194.4480  172.2000  136.2540 C   0  0  2  0  0  3  0  0  0  0  0  0
  195.4590  174.5400  136.8050 C   0  0  1  0  0  0  0  0  0  0  0  0
  197.8310  173.6260  136.9500 C   0  0  0  0  0  2  0  0  0  0  0  0
  197.1820  171.2350  136.4350 C   0  0  0  0  0  0  0  0  0  0  0  0
  198.7980  172.4360  135.0210 C   0  0  0  0  0  1  0  0  0  0  0  0
  196.1640  170.3190  135.7630 C   0  0  1  0  0  3  0  0  0  0  0  0
  196.5720  174.0220  137.7260 C   0  0  0  0  0  2  0  0  0  0  0  0
  194.2710  174.0470  134.7620 O   0  0  0  0  0  1  0  0  0  0  0  0
  197.7840  170.8420  137.4250 O   0  0  0  0  0  0  0  0  0  0  0  0
  196.4420  173.1440  134.9400 C   0  0  0  0  0  2  0  0  0  0  0  0
  196.0290  168.9520  136.4310 C   0  0  0  0  0  2  0  0  0  0  0  0
  194.9990  168.9600  137.3750 O   0  0  0  0  0  1  0  0  0  0  0  0
  1  4  1  0  0  0  0
  2  6  1  0  0  0  0
  3  2  2  0  0  0  0
  3  5  1  0  0  0  0
  5  1  2  0  0  0  0
  6  4  2  0  0  0  0
  7  5  1  0  0  0  0
  8  7  1  0  0  0  0
 11 14  2  0  0  0  0
 12 11  1  0  0  0  0
 12 13  1  0  0  0  0
 13 10  1  1  0  0  0
 13  9  1  0  0  0  0
 14  9  1  0  0  0  0
 14 17  1  0  0  0  0
 15 18  1  0  0  0  0
 16 11  1  0  0  0  0
 16 15  1  0  0  0  0
 17 28  1  0  0  0  0
 18 17  2  0  0  0  0
 18  8  1  0  0  0  0
 19 25  2  0  0  0  0
 19 22  1  0  0  0  0
 21 19  1  0  0  0  0
 22 26  1  0  0  0  0
 23 27  1  0  0  0  0
 24 22  1  0  0  0  0
 24 23  1  0  0  0  0
 26 20  1  0  0  0  0
 27 20  1  0  0  0  0
 27 15  1  0  0  0  0
 28 30  1  0  0  0  0
 30 29  1  1  0  0  0
 30 31  1  0  0  0  0
 31 32  1  0  0  0  0
 33  2  1  0  0  0  0
 34 33  1  0  0  0  0
 35 34  1  0  0  0  0
 36 35  1  0  0  0  0
 37 38  1  0  0  0  0
 37 36  1  0  0  0  0
 39 48  1  6  0  0  0
 39 47  1  0  0  0  0
 39 46  1  0  0  0  0
 40 49  1  0  0  0  0
 40 44  1  0  0  0  0
 41 51  1  6  0  0  0
 41 44  1  0  0  0  0
 41 45  1  0  0  0  0
 44 43  1  1  0  0  0
 45 42  1  6  0  0  0
 45 38  1  0  0  0  0
 45 50  1  0  0  0  0
 46 50  1  0  0  0  0
 47 52  2  0  0  0  0
 49 54  1  1  0  0  0
 49 47  1  0  0  0  0
 53 41  1  0  0  0  0
 53 39  1  0  0  0  0
 54 55  1  0  0  0  0
M  END
>  <MODEL>
3

>  <REMARK>
 VINA RESULT:      -7.7      2.689      6.264
  Name = 
  15 active torsions:
  status: ('A' for Active; 'I' for Inactive)
    1  A    between atoms: C_2  and  C_28
    2  A    between atoms: C_2  and  C_44
    3  A    between atoms: O_4  and  C_40
    4  A    between atoms: C_8  and  C_22
    5  A    between atoms: C_8  and  C_43
    6  A    between atoms: C_11  and  C_38
    7  A    between atoms: C_19  and  C_40
    8  A    between atoms: C_19  and  C_45
    9  A    between atoms: C_20  and  C_22
   10  A    between atoms: C_27  and  C_54
   11  A    between atoms: C_28  and  C_49
   12  A    between atoms: N_33  and  C_52
   13  A    between atoms: C_35  and  C_43
   14  A    between atoms: C_35  and  O_51
   15  A    between atoms: O_51  and  C_54
                            x       y       z     vdW  Elec       q    Type
                         _______ _______ _______ _____ _____    ______ ____

>  <TORSDO>
F 15

$$$$
=
 OpenBabel10272401353D

 55 60  0  0  1  0  0  0  0  0999 V2000
  185.0540  179.1990  140.6640 C   0  0  0  0  0  3  0  0  0  0  0  0
  186.4950  178.4430  138.3880 C   0  0  0  0  0  0  0  0  0  0  0  0
  187.0980  178.3930  139.6480 C   0  0  0  0  0  3  0  0  0  0  0  0
  184.4520  179.2580  139.4030 C   0  0  0  0  0  3  0  0  0  0  0  0
  186.3800  178.7720  140.7860 C   0  0  0  0  0  0  0  0  0  0  0  0
  185.1730  178.8830  138.2640 C   0  0  0  0  0  3  0  0  0  0  0  0
  187.0190  178.6910  142.1280 C   0  0  0  0  0  2  0  0  0  0  0  0
  187.4730  177.2670  142.4000 C   0  0  0  0  0  2  0  0  0  0  0  0
  188.5160  176.7410  147.6200 S   0  0  0  0  0  0  0  0  0  0  0  0
  190.0080  178.8180  148.5850 C   0  0  0  0  0  1  0  0  0  0  0  0
  190.2610  177.2560  145.7250 C   0  0  0  0  0  0  0  0  0  0  0  0
  191.0970  177.2920  146.9500 C   0  0  0  0  0  2  0  0  0  0  0  0
  190.1460  177.3750  148.1390 C   0  0  2  0  0  3  0  0  0  0  0  0
  188.9770  177.0050  145.9150 C   0  0  0  0  0  0  0  0  0  0  0  0
  189.8580  177.4100  143.2880 N   0  0  0  0  0  0  0  0  0  0  0  0
  190.8370  177.5620  144.3760 C   0  0  0  0  0  2  0  0  0  0  0  0
  188.0050  177.0340  144.8040 C   0  0  0  0  0  0  0  0  0  0  0  0
  188.4440  177.2430  143.5450 C   0  0  0  0  0  0  0  0  0  0  0  0
  192.4360  175.9770  138.5730 C   0  0  0  0  0  0  0  0  0  0  0  0
  191.8550  177.5220  141.8480 C   0  0  0  0  0  2  0  0  0  0  0  0
  191.7790  175.0060  137.6500 C   0  0  0  0  0  1  0  0  0  0  0  0
  191.6730  176.6950  139.5540 N   0  0  0  0  0  0  0  0  0  0  0  0
  189.7400  176.4280  141.0300 C   0  0  0  0  0  2  0  0  0  0  0  0
  190.2140  176.5970  139.5890 C   0  0  0  0  0  2  0  0  0  0  0  0
  193.6800  176.1500  138.4860 O   0  0  0  0  0  0  0  0  0  0  0  0
  192.3210  177.6910  140.4050 C   0  0  0  0  0  2  0  0  0  0  0  0
  190.3280  177.5330  141.9090 C   0  0  0  0  0  3  0  0  0  0  0  0
  186.5450  176.8220  145.0980 C   0  0  0  0  0  2  0  0  0  0  0  0
  185.2930  178.0940  146.7990 N   0  0  0  0  0  1  0  0  0  0  0  0
  185.8600  178.1430  145.4570 C   0  0  2  0  0  3  0  0  0  0  0  0
  184.9130  178.5580  144.4920 O   0  0  0  0  0  0  0  0  0  0  0  0
  183.6990  178.8500  145.1380 C   0  0  0  0  0  1  0  0  0  0  0  0
  187.2700  178.0500  137.1780 C   0  0  0  0  0  2  0  0  0  0  0  0
  187.3480  176.6570  137.0890 O   0  0  0  0  0  0  0  0  0  0  0  0
  187.1150  176.3630  135.7410 C   0  0  0  0  0  2  0  0  0  0  0  0
  185.8390  175.5530  135.5880 C   0  0  0  0  0  2  0  0  0  0  0  0
  184.6610  176.2970  136.1870 C   0  0  0  0  0  2  0  0  0  0  0  0
  183.3690  175.6340  135.7340 C   0  0  0  0  0  2  0  0  0  0  0  0
  180.8630  176.2040  139.3040 C   0  0  2  0  0  0  0  0  0  0  0  0
  179.9860  178.3820  137.0510 C   0  0  0  0  0  2  0  0  0  0  0  0
  181.0200  176.0220  136.7520 C   0  0  2  0  0  0  0  0  0  0  0  0
  182.2240  173.9220  136.9380 O   0  0  0  0  0  1  0  0  0  0  0  0
  182.3600  178.1060  136.8300 F   0  0  0  0  0  0  0  0  0  0  0  0
  181.1390  177.5510  136.4780 C   0  0  2  0  0  3  0  0  0  0  0  0
  182.4080  175.3100  136.8870 C   0  0  1  0  0  0  0  0  0  0  0  0
  182.2310  175.5210  139.4190 C   0  0  0  0  0  2  0  0  0  0  0  0
  180.9790  177.7190  139.3730 C   0  0  0  0  0  0  0  0  0  0  0  0
  180.0150  175.7400  140.4720 C   0  0  0  0  0  1  0  0  0  0  0  0
  180.0550  178.6310  138.5710 C   0  0  1  0  0  3  0  0  0  0  0  0
  183.1040  175.7520  138.1820 C   0  0  0  0  0  2  0  0  0  0  0  0
  180.3230  175.4630  135.6780 O   0  0  0  0  0  1  0  0  0  0  0  0
  181.7840  178.2130  140.1520 O   0  0  0  0  0  0  0  0  0  0  0  0
  180.1840  175.7310  138.0160 C   0  0  0  0  0  2  0  0  0  0  0  0
  180.2480  180.1180  138.8670 C   0  0  0  0  0  2  0  0  0  0  0  0
  181.0830  180.7080  137.9150 O   0  0  0  0  0  1  0  0  0  0  0  0
  1  5  1  0  0  0  0
  2  3  1  0  0  0  0
  3  5  2  0  0  0  0
  4  1  2  0  0  0  0
  5  7  1  0  0  0  0
  6  2  2  0  0  0  0
  6  4  1  0  0  0  0
  7  8  1  0  0  0  0
  8 18  1  0  0  0  0
  9 13  1  0  0  0  0
 11 14  2  0  0  0  0
 11 12  1  0  0  0  0
 12 13  1  0  0  0  0
 13 10  1  6  0  0  0
 14  9  1  0  0  0  0
 15 18  1  0  0  0  0
 15 16  1  0  0  0  0
 16 11  1  0  0  0  0
 17 28  1  0  0  0  0
 17 14  1  0  0  0  0
 18 17  2  0  0  0  0
 19 22  1  0  0  0  0
 20 27  1  0  0  0  0
 21 19  1  0  0  0  0
 22 24  1  0  0  0  0
 22 26  1  0  0  0  0
 23 27  1  0  0  0  0
 24 23  1  0  0  0  0
 25 19  2  0  0  0  0
 26 20  1  0  0  0  0
 27 15  1  0  0  0  0
 28 30  1  0  0  0  0
 30 29  1  1  0  0  0
 31 32  1  0  0  0  0
 31 30  1  0  0  0  0
 33  2  1  0  0  0  0
 34 33  1  0  0  0  0
 35 34  1  0  0  0  0
 36 35  1  0  0  0  0
 36 37  1  0  0  0  0
 38 37  1  0  0  0  0
 38 45  1  0  0  0  0
 39 47  1  0  0  0  0
 39 46  1  0  0  0  0
 39 48  1  1  0  0  0
 40 49  1  0  0  0  0
 41 51  1  6  0  0  0
 41 45  1  0  0  0  0
 41 53  1  0  0  0  0
 44 41  1  0  0  0  0
 44 43  1  1  0  0  0
 44 40  1  0  0  0  0
 45 42  1  1  0  0  0
 45 50  1  0  0  0  0
 47 52  2  0  0  0  0
 49 54  1  6  0  0  0
 49 47  1  0  0  0  0
 50 46  1  0  0  0  0
 53 39  1  0  0  0  0
 55 54  1  0  0  0  0
M  END
>  <MODEL>
4

>  <REMARK>
 VINA RESULT:      -7.6      3.643      9.996
  Name = 
  15 active torsions:
  status: ('A' for Active; 'I' for Inactive)
    1  A    between atoms: C_2  and  C_28
    2  A    between atoms: C_2  and  C_44
    3  A    between atoms: O_4  and  C_40
    4  A    between atoms: C_8  and  C_22
    5  A    between atoms: C_8  and  C_43
    6  A    between atoms: C_11  and  C_38
    7  A    between atoms: C_19  and  C_40
    8  A    between atoms: C_19  and  C_45
    9  A    between atoms: C_20  and  C_22
   10  A    between atoms: C_27  and  C_54
   11  A    between atoms: C_28  and  C_49
   12  A    between atoms: N_33  and  C_52
   13  A    between atoms: C_35  and  C_43
   14  A    between atoms: C_35  and  O_51
   15  A    between atoms: O_51  and  C_54
                            x       y       z     vdW  Elec       q    Type
                         _______ _______ _______ _____ _____    ______ ____

>  <TORSDO>
F 15

$$$$
=
 OpenBabel10272401353D

 55 60  0  0  1  0  0  0  0  0999 V2000
  189.3330  178.7500  138.3920 C   0  0  0  0  0  3  0  0  0  0  0  0
  187.3630  177.0030  137.4460 C   0  0  0  0  0  0  0  0  0  0  0  0
  187.5800  177.1350  138.8210 C   0  0  0  0  0  3  0  0  0  0  0  0
  189.1220  178.6110  137.0160 C   0  0  0  0  0  3  0  0  0  0  0  0
  188.5660  178.0070  139.2950 C   0  0  0  0  0  0  0  0  0  0  0  0
  188.1390  177.7350  136.5430 C   0  0  0  0  0  3  0  0  0  0  0  0
  188.7750  178.1640  140.7600 C   0  0  0  0  0  2  0  0  0  0  0  0
  188.1590  176.9890  141.5000 C   0  0  0  0  0  2  0  0  0  0  0  0
  189.0120  177.9820  146.6870 S   0  0  0  0  0  0  0  0  0  0  0  0
  187.1930  176.7170  148.2890 C   0  0  0  0  0  1  0  0  0  0  0  0
  186.7250  178.1990  145.4140 C   0  0  0  0  0  0  0  0  0  0  0  0
  186.3470  178.5300  146.8100 C   0  0  0  0  0  2  0  0  0  0  0  0
  187.4990  178.0830  147.7030 C   0  0  2  0  0  3  0  0  0  0  0  0
  187.9980  177.9020  145.2190 C   0  0  0  0  0  0  0  0  0  0  0  0
  186.2880  177.8540  143.0010 N   0  0  0  0  0  0  0  0  0  0  0  0
  185.7010  178.1360  144.3210 C   0  0  0  0  0  2  0  0  0  0  0  0
  188.5030  177.4580  143.9040 C   0  0  0  0  0  0  0  0  0  0  0  0
  187.6630  177.4290  142.8480 C   0  0  0  0  0  0  0  0  0  0  0  0
  182.2210  179.6950  139.6860 C   0  0  0  0  0  0  0  0  0  0  0  0
  183.9580  177.6880  142.2160 C   0  0  0  0  0  2  0  0  0  0  0  0
  182.4530  180.9120  138.8560 C   0  0  0  0  0  1  0  0  0  0  0  0
  183.3210  178.9420  140.2150 N   0  0  0  0  0  0  0  0  0  0  0  0
  185.5880  179.2410  141.0880 C   0  0  0  0  0  2  0  0  0  0  0  0
  184.7000  179.2650  139.8470 C   0  0  0  0  0  2  0  0  0  0  0  0
  181.0360  179.3420  139.9280 O   0  0  0  0  0  0  0  0  0  0  0  0
  183.0770  177.7140  140.9710 C   0  0  0  0  0  2  0  0  0  0  0  0
  185.4190  177.9130  141.8270 C   0  0  0  0  0  3  0  0  0  0  0  0
  189.9450  177.0560  143.7680 C   0  0  0  0  0  2  0  0  0  0  0  0
  191.4160  178.6070  142.5400 N   0  0  0  0  0  1  0  0  0  0  0  0
  190.8660  178.2760  143.8490 C   0  0  2  0  0  3  0  0  0  0  0  0
  191.8720  178.1500  144.8340 O   0  0  0  0  0  0  0  0  0  0  0  0
  191.7560  176.8920  145.4500 C   0  0  0  0  0  1  0  0  0  0  0  0
  186.3190  176.0630  136.9490 C   0  0  0  0  0  2  0  0  0  0  0  0
  186.5140  174.7930  137.5000 O   0  0  0  0  0  0  0  0  0  0  0  0
  186.6500  173.9360  136.4030 C   0  0  0  0  0  2  0  0  0  0  0  0
  187.7610  172.9300  136.6500 C   0  0  0  0  0  2  0  0  0  0  0  0
  188.9810  173.2710  135.8150 C   0  0  0  0  0  2  0  0  0  0  0  0
  190.1800  173.4530  136.7340 C   0  0  0  0  0  2  0  0  0  0  0  0
  193.8590  175.8490  136.4550 C   0  0  2  0  0  0  0  0  0  0  0  0
  194.6410  172.6990  136.2280 C   0  0  0  0  0  2  0  0  0  0  0  0
  192.4440  173.9060  135.5630 C   0  0  2  0  0  0  0  0  0  0  0  0
  190.5150  175.3620  135.3430 O   0  0  0  0  0  1  0  0  0  0  0  0
  192.8010  172.8240  137.7650 F   0  0  0  0  0  0  0  0  0  0  0  0
  193.1230  172.7930  136.4160 C   0  0  2  0  0  3  0  0  0  0  0  0
  191.1740  174.5170  136.2440 C   0  0  1  0  0  0  0  0  0  0  0  0
  192.6080  176.4250  137.1310 C   0  0  0  0  0  2  0  0  0  0  0  0
  194.6940  175.0210  137.4200 C   0  0  0  0  0  0  0  0  0  0  0  0
  194.7040  177.0130  135.9760 C   0  0  0  0  0  1  0  0  0  0  0  0
  195.4580  173.7830  136.9600 C   0  0  1  0  0  3  0  0  0  0  0  0
  191.5800  175.3430  137.4730 C   0  0  0  0  0  2  0  0  0  0  0  0
  192.0760  173.3260  134.3470 O   0  0  0  0  0  1  0  0  0  0  0  0
  194.8130  175.4070  138.5750 O   0  0  0  0  0  0  0  0  0  0  0  0
  193.4260  175.0470  135.2250 C   0  0  0  0  0  2  0  0  0  0  0  0
  196.3320  173.1590  138.0470 C   0  0  0  0  0  2  0  0  0  0  0  0
  195.5510  172.4590  138.9700 O   0  0  0  0  0  1  0  0  0  0  0  0
  1  5  1  0  0  0  0
  2  3  1  0  0  0  0
  3  5  2  0  0  0  0
  4  1  2  0  0  0  0
  5  7  1  0  0  0  0
  6  4  1  0  0  0  0
  6  2  2  0  0  0  0
  7  8  1  0  0  0  0
  8 18  1  0  0  0  0
  9 13  1  0  0  0  0
 11 12  1  0  0  0  0
 12 13  1  0  0  0  0
 13 10  1  6  0  0  0
 14 11  2  0  0  0  0
 14  9  1  0  0  0  0
 15 16  1  0  0  0  0
 16 11  1  0  0  0  0
 17 14  1  0  0  0  0
 18 15  1  0  0  0  0
 18 17  2  0  0  0  0
 19 25  2  0  0  0  0
 19 22  1  0  0  0  0
 21 19  1  0  0  0  0
 22 26  1  0  0  0  0
 23 27  1  0  0  0  0
 24 22  1  0  0  0  0
 24 23  1  0  0  0  0
 26 20  1  0  0  0  0
 27 20  1  0  0  0  0
 27 15  1  0  0  0  0
 28 30  1  0  0  0  0
 28 17  1  0  0  0  0
 30 29  1  6  0  0  0
 30 31  1  0  0  0  0
 31 32  1  0  0  0  0
 33  2  1  0  0  0  0
 33 34  1  0  0  0  0
 35 36  1  0  0  0  0
 35 34  1  0  0  0  0
 37 36  1  0  0  0  0
 37 38  1  0  0  0  0
 39 48  1  6  0  0  0
 39 46  1  0  0  0  0
 39 47  1  0  0  0  0
 40 44  1  0  0  0  0
 40 49  1  0  0  0  0
 41 51  1  6  0  0  0
 41 45  1  0  0  0  0
 41 44  1  0  0  0  0
 44 43  1  1  0  0  0
 45 42  1  6  0  0  0
 45 38  1  0  0  0  0
 45 50  1  0  0  0  0
 46 50  1  0  0  0  0
 47 52  2  0  0  0  0
 49 47  1  0  0  0  0
 49 54  1  1  0  0  0
 53 41  1  0  0  0  0
 53 39  1  0  0  0  0
 54 55  1  0  0  0  0
M  END
>  <MODEL>
5

>  <REMARK>
 VINA RESULT:      -7.5      1.732      2.615
  Name = 
  15 active torsions:
  status: ('A' for Active; 'I' for Inactive)
    1  A    between atoms: C_2  and  C_28
    2  A    between atoms: C_2  and  C_44
    3  A    between atoms: O_4  and  C_40
    4  A    between atoms: C_8  and  C_22
    5  A    between atoms: C_8  and  C_43
    6  A    between atoms: C_11  and  C_38
    7  A    between atoms: C_19  and  C_40
    8  A    between atoms: C_19  and  C_45
    9  A    between atoms: C_20  and  C_22
   10  A    between atoms: C_27  and  C_54
   11  A    between atoms: C_28  and  C_49
   12  A    between atoms: N_33  and  C_52
   13  A    between atoms: C_35  and  C_43
   14  A    between atoms: C_35  and  O_51
   15  A    between atoms: O_51  and  C_54
                            x       y       z     vdW  Elec       q    Type
                         _______ _______ _______ _____ _____    ______ ____

>  <TORSDO>
F 15

$$$$
=
 OpenBabel10272401353D

 55 60  0  0  1  0  0  0  0  0999 V2000
  189.0720  179.0840  139.0870 C   0  0  0  0  0  3  0  0  0  0  0  0
  187.9760  176.7900  137.9190 C   0  0  0  0  0  0  0  0  0  0  0  0
  187.6260  177.1470  139.2240 C   0  0  0  0  0  3  0  0  0  0  0  0
  189.4300  178.7220  137.7840 C   0  0  0  0  0  3  0  0  0  0  0  0
  188.1740  178.2920  139.8110 C   0  0  0  0  0  0  0  0  0  0  0  0
  188.8840  177.5740  137.2010 C   0  0  0  0  0  3  0  0  0  0  0  0
  187.7770  178.6820  141.1910 C   0  0  0  0  0  2  0  0  0  0  0  0
  187.2300  177.4740  141.9330 C   0  0  0  0  0  2  0  0  0  0  0  0
  190.0740  176.9350  146.4310 S   0  0  0  0  0  0  0  0  0  0  0  0
  188.6310  175.7460  148.4250 C   0  0  0  0  0  1  0  0  0  0  0  0
  187.6650  177.9610  146.2230 C   0  0  0  0  0  0  0  0  0  0  0  0
  187.9100  178.0100  147.6860 C   0  0  0  0  0  2  0  0  0  0  0  0
  189.1090  177.1120  147.9700 C   0  0  2  0  0  3  0  0  0  0  0  0
  188.6420  177.4490  145.4960 C   0  0  0  0  0  0  0  0  0  0  0  0
  186.3420  178.3310  144.1640 N   0  0  0  0  0  0  0  0  0  0  0  0
  186.3580  178.3980  145.6340 C   0  0  0  0  0  2  0  0  0  0  0  0
  188.5050  177.2450  144.0390 C   0  0  0  0  0  0  0  0  0  0  0  0
  187.3850  177.6640  143.4150 C   0  0  0  0  0  0  0  0  0  0  0  0
  181.1140  178.5890  142.2870 C   0  0  0  0  0  0  0  0  0  0  0  0
  184.7170  177.9110  142.3590 C   0  0  0  0  0  2  0  0  0  0  0  0
  180.0300  179.0330  143.2110 C   0  0  0  0  0  1  0  0  0  0  0  0
  182.4880  178.8980  142.5600 N   0  0  0  0  0  0  0  0  0  0  0  0
  184.0420  179.1750  144.4300 C   0  0  0  0  0  2  0  0  0  0  0  0
  182.8560  179.7690  143.6760 C   0  0  0  0  0  2  0  0  0  0  0  0
  180.8040  177.9240  141.2640 O   0  0  0  0  0  0  0  0  0  0  0  0
  183.5310  178.5120  141.6110 C   0  0  0  0  0  2  0  0  0  0  0  0
  185.1820  178.8690  143.4570 C   0  0  0  0  0  3  0  0  0  0  0  0
  189.6220  176.5800  143.2820 C   0  0  0  0  0  2  0  0  0  0  0  0
  191.1490  177.2840  141.4780 N   0  0  0  0  0  1  0  0  0  0  0  0
  190.6530  177.6090  142.8100 C   0  0  2  0  0  3  0  0  0  0  0  0
  191.7030  177.8080  143.7360 O   0  0  0  0  0  0  0  0  0  0  0  0
  191.7690  179.1720  144.0680 C   0  0  0  0  0  1  0  0  0  0  0  0
  187.3970  175.5620  137.3060 C   0  0  0  0  0  2  0  0  0  0  0  0
  188.4110  174.6450  137.0150 O   0  0  0  0  0  0  0  0  0  0  0  0
  187.8210  173.7030  136.1670 C   0  0  0  0  0  2  0  0  0  0  0  0
  187.2650  172.5400  136.9720 C   0  0  0  0  0  2  0  0  0  0  0  0
  185.8870  172.1560  136.4680 C   0  0  0  0  0  2  0  0  0  0  0  0
  184.8390  172.9710  137.2110 C   0  0  0  0  0  2  0  0  0  0  0  0
  181.2950  175.2040  135.8670 C   0  0  2  0  0  0  0  0  0  0  0  0
  183.6650  177.3220  136.5630 C   0  0  0  0  0  2  0  0  0  0  0  0
  183.8330  174.8620  135.7570 C   0  0  2  0  0  0  0  0  0  0  0  0
  183.5320  172.5030  135.2700 O   0  0  0  0  0  1  0  0  0  0  0  0
  183.8820  175.5290  138.1440 F   0  0  0  0  0  0  0  0  0  0  0  0
  184.1950  175.9130  136.8490 C   0  0  2  0  0  3  0  0  0  0  0  0
  183.6640  173.4140  136.3260 C   0  0  1  0  0  0  0  0  0  0  0  0
  181.1480  173.7890  136.4410 C   0  0  0  0  0  2  0  0  0  0  0  0
  181.3140  176.2590  136.9620 C   0  0  0  0  0  0  0  0  0  0  0  0
  180.0980  175.4680  134.9750 C   0  0  0  0  0  1  0  0  0  0  0  0
  182.1620  177.5220  136.8430 C   0  0  1  0  0  3  0  0  0  0  0  0
  182.4010  173.3320  137.1940 C   0  0  0  0  0  2  0  0  0  0  0  0
  184.8690  174.8660  134.8200 O   0  0  0  0  0  1  0  0  0  0  0  0
  180.5690  176.1230  137.9240 O   0  0  0  0  0  0  0  0  0  0  0  0
  182.5500  175.2510  134.9920 C   0  0  0  0  0  2  0  0  0  0  0  0
  181.9540  178.5140  137.9870 C   0  0  0  0  0  2  0  0  0  0  0  0
  181.0670  179.5260  137.6100 O   0  0  0  0  0  1  0  0  0  0  0  0
  1  5  1  0  0  0  0
  2  3  1  0  0  0  0
  3  5  2  0  0  0  0
  4  1  2  0  0  0  0
  5  7  1  0  0  0  0
  6  4  1  0  0  0  0
  6  2  2  0  0  0  0
  7  8  1  0  0  0  0
  8 18  1  0  0  0  0
  9 13  1  0  0  0  0
 11 12  1  0  0  0  0
 12 13  1  0  0  0  0
 13 10  1  6  0  0  0
 14 11  2  0  0  0  0
 14  9  1  0  0  0  0
 15 16  1  0  0  0  0
 16 11  1  0  0  0  0
 17 14  1  0  0  0  0
 18 17  2  0  0  0  0
 18 15  1  0  0  0  0
 19 22  1  0  0  0  0
 19 21  1  0  0  0  0
 20 27  1  0  0  0  0
 22 24  1  0  0  0  0
 24 23  1  0  0  0  0
 25 19  2  0  0  0  0
 26 20  1  0  0  0  0
 26 22  1  0  0  0  0
 27 15  1  0  0  0  0
 27 23  1  0  0  0  0
 28 17  1  0  0  0  0
 30 29  1  6  0  0  0
 30 28  1  0  0  0  0
 30 31  1  0  0  0  0
 31 32  1  0  0  0  0
 33  2  1  0  0  0  0
 34 33  1  0  0  0  0
 35 36  1  0  0  0  0
 35 34  1  0  0  0  0
 37 36  1  0  0  0  0
 37 38  1  0  0  0  0
 39 48  1  6  0  0  0
 39 46  1  0  0  0  0
 39 47  1  0  0  0  0
 40 49  1  0  0  0  0
 40 44  1  0  0  0  0
 41 51  1  6  0  0  0
 41 45  1  0  0  0  0
 41 44  1  0  0  0  0
 44 43  1  1  0  0  0
 45 42  1  6  0  0  0
 45 50  1  0  0  0  0
 45 38  1  0  0  0  0
 46 50  1  0  0  0  0
 47 52  2  0  0  0  0
 49 47  1  0  0  0  0
 49 54  1  1  0  0  0
 53 41  1  0  0  0  0
 53 39  1  0  0  0  0
 55 54  1  0  0  0  0
M  END
>  <MODEL>
6

>  <REMARK>
 VINA RESULT:      -7.4      4.725      7.951
  Name = 
  15 active torsions:
  status: ('A' for Active; 'I' for Inactive)
    1  A    between atoms: C_2  and  C_28
    2  A    between atoms: C_2  and  C_44
    3  A    between atoms: O_4  and  C_40
    4  A    between atoms: C_8  and  C_22
    5  A    between atoms: C_8  and  C_43
    6  A    between atoms: C_11  and  C_38
    7  A    between atoms: C_19  and  C_40
    8  A    between atoms: C_19  and  C_45
    9  A    between atoms: C_20  and  C_22
   10  A    between atoms: C_27  and  C_54
   11  A    between atoms: C_28  and  C_49
   12  A    between atoms: N_33  and  C_52
   13  A    between atoms: C_35  and  C_43
   14  A    between atoms: C_35  and  O_51
   15  A    between atoms: O_51  and  C_54
                            x       y       z     vdW  Elec       q    Type
                         _______ _______ _______ _____ _____    ______ ____

>  <TORSDO>
F 15

$$$$
=
 OpenBabel10272401353D

 55 60  0  0  1  0  0  0  0  0999 V2000
  188.9960  179.0820  138.5520 C   0  0  0  0  0  3  0  0  0  0  0  0
  187.9670  176.6930  137.5200 C   0  0  0  0  0  0  0  0  0  0  0  0
  188.2090  176.8170  138.8910 C   0  0  0  0  0  3  0  0  0  0  0  0
  188.7620  178.9550  137.1790 C   0  0  0  0  0  3  0  0  0  0  0  0
  188.7250  178.0100  139.4090 C   0  0  0  0  0  0  0  0  0  0  0  0
  188.2500  177.7600  136.6620 C   0  0  0  0  0  3  0  0  0  0  0  0
  188.9550  178.1450  140.8730 C   0  0  0  0  0  2  0  0  0  0  0  0
  188.2860  176.9980  141.6110 C   0  0  0  0  0  2  0  0  0  0  0  0
  188.9170  178.0370  146.8200 S   0  0  0  0  0  0  0  0  0  0  0  0
  186.9730  176.8660  148.3450 C   0  0  0  0  0  1  0  0  0  0  0  0
  186.7060  178.3200  145.4300 C   0  0  0  0  0  0  0  0  0  0  0  0
  186.2720  178.6860  146.8010 C   0  0  0  0  0  2  0  0  0  0  0  0
  187.3600  178.2100  147.7570 C   0  0  2  0  0  3  0  0  0  0  0  0
  187.9750  177.9740  145.3040 C   0  0  0  0  0  0  0  0  0  0  0  0
  186.3780  177.9550  143.0040 N   0  0  0  0  0  0  0  0  0  0  0  0
  185.7360  178.2790  144.2880 C   0  0  0  0  0  2  0  0  0  0  0  0
  188.5270  177.4910  144.0220 C   0  0  0  0  0  0  0  0  0  0  0  0
  187.7410  177.4760  142.9260 C   0  0  0  0  0  0  0  0  0  0  0  0
  182.3590  179.7040  139.5800 C   0  0  0  0  0  0  0  0  0  0  0  0
  184.1140  177.6650  142.0730 C   0  0  0  0  0  2  0  0  0  0  0  0
  182.5370  180.9900  138.8460 C   0  0  0  0  0  1  0  0  0  0  0  0
  183.4870  179.0020  140.1240 N   0  0  0  0  0  0  0  0  0  0  0  0
  185.6720  179.4130  141.1460 C   0  0  0  0  0  2  0  0  0  0  0  0
  184.8520  179.4550  139.8590 C   0  0  0  0  0  2  0  0  0  0  0  0
  181.1960  179.2450  139.7280 O   0  0  0  0  0  0  0  0  0  0  0  0
  183.3020  177.7100  140.7820 C   0  0  0  0  0  2  0  0  0  0  0  0
  185.5710  178.0280  141.7860 C   0  0  0  0  0  3  0  0  0  0  0  0
  189.9590  177.0330  143.9640 C   0  0  0  0  0  2  0  0  0  0  0  0
  191.4740  178.8090  143.1740 N   0  0  0  0  0  1  0  0  0  0  0  0
  190.9130  178.1640  144.3540 C   0  0  2  0  0  3  0  0  0  0  0  0
  191.9150  177.7570  145.2660 O   0  0  0  0  0  0  0  0  0  0  0  0
  191.8280  176.3670  145.4530 C   0  0  0  0  0  1  0  0  0  0  0  0
  187.4280  175.4150  136.9750 C   0  0  0  0  0  2  0  0  0  0  0  0
  188.3580  174.3870  137.1540 O   0  0  0  0  0  0  0  0  0  0  0  0
  189.4960  174.7970  136.4500 C   0  0  0  0  0  2  0  0  0  0  0  0
  190.6600  173.8640  136.7340 C   0  0  0  0  0  2  0  0  0  0  0  0
  191.8550  174.6460  137.2460 C   0  0  0  0  0  2  0  0  0  0  0  0
  193.0640  174.3360  136.3750 C   0  0  0  0  0  2  0  0  0  0  0  0
  197.2470  174.1260  137.7190 C   0  0  2  0  0  0  0  0  0  0  0  0
  197.1280  173.4000  134.5500 C   0  0  0  0  0  2  0  0  0  0  0  0
  195.5550  174.9060  135.9590 C   0  0  2  0  0  0  0  0  0  0  0  0
  194.2100  175.9780  137.6710 O   0  0  0  0  0  1  0  0  0  0  0  0
  195.1230  172.5040  135.5190 F   0  0  0  0  0  0  0  0  0  0  0  0
  195.6960  173.6660  135.0250 C   0  0  2  0  0  3  0  0  0  0  0  0
  194.3990  174.7610  137.0040 C   0  0  1  0  0  0  0  0  0  0  0  0
  196.1010  173.9730  138.7270 C   0  0  0  0  0  2  0  0  0  0  0  0
  197.5920  172.8050  137.0490 C   0  0  0  0  0  0  0  0  0  0  0  0
  198.4690  174.6050  138.4780 C   0  0  0  0  0  1  0  0  0  0  0  0
  198.0490  172.7390  135.5960 C   0  0  1  0  0  3  0  0  0  0  0  0
  194.7590  173.6920  138.0450 C   0  0  0  0  0  2  0  0  0  0  0  0
  195.2970  176.0100  135.1430 O   0  0  0  0  0  1  0  0  0  0  0  0
  197.5740  171.7820  137.7220 O   0  0  0  0  0  0  0  0  0  0  0  0
  196.8700  175.2100  136.7070 C   0  0  0  0  0  2  0  0  0  0  0  0
  198.4630  171.3390  135.1420 C   0  0  0  0  0  2  0  0  0  0  0  0
  197.4230  170.7140  134.4500 O   0  0  0  0  0  1  0  0  0  0  0  0
  1  5  1  0  0  0  0
  2  3  1  0  0  0  0
  3  5  2  0  0  0  0
  4  1  2  0  0  0  0
  5  7  1  0  0  0  0
  6  4  1  0  0  0  0
  6  2  2  0  0  0  0
  7  8  1  0  0  0  0
  8 18  1  0  0  0  0
  9 13  1  0  0  0  0
 11 12  1  0  0  0  0
 12 13  1  0  0  0  0
 13 10  1  6  0  0  0
 14 11  2  0  0  0  0
 14  9  1  0  0  0  0
 15 16  1  0  0  0  0
 16 11  1  0  0  0  0
 17 14  1  0  0  0  0
 18 15  1  0  0  0  0
 18 17  2  0  0  0  0
 19 25  2  0  0  0  0
 19 22  1  0  0  0  0
 21 19  1  0  0  0  0
 22 26  1  0  0  0  0
 23 27  1  0  0  0  0
 24 22  1  0  0  0  0
 24 23  1  0  0  0  0
 26 20  1  0  0  0  0
 27 20  1  0  0  0  0
 27 15  1  0  0  0  0
 28 17  1  0  0  0  0
 28 30  1  0  0  0  0
 30 29  1  6  0  0  0
 30 31  1  0  0  0  0
 31 32  1  0  0  0  0
 33 34  1  0  0  0  0
 33  2  1  0  0  0  0
 35 36  1  0  0  0  0
 35 34  1  0  0  0  0
 36 37  1  0  0  0  0
 38 45  1  0  0  0  0
 38 37  1  0  0  0  0
 39 48  1  1  0  0  0
 39 46  1  0  0  0  0
 40 44  1  0  0  0  0
 40 49  1  0  0  0  0
 41 51  1  6  0  0  0
 41 53  1  0  0  0  0
 41 45  1  0  0  0  0
 44 43  1  1  0  0  0
 44 41  1  0  0  0  0
 45 42  1  1  0  0  0
 45 50  1  0  0  0  0
 47 39  1  0  0  0  0
 47 52  2  0  0  0  0
 49 54  1  6  0  0  0
 49 47  1  0  0  0  0
 50 46  1  0  0  0  0
 53 39  1  0  0  0  0
 55 54  1  0  0  0  0
M  END
>  <MODEL>
7

>  <REMARK>
 VINA RESULT:      -7.3      1.715      2.735
  Name = 
  15 active torsions:
  status: ('A' for Active; 'I' for Inactive)
    1  A    between atoms: C_2  and  C_28
    2  A    between atoms: C_2  and  C_44
    3  A    between atoms: O_4  and  C_40
    4  A    between atoms: C_8  and  C_22
    5  A    between atoms: C_8  and  C_43
    6  A    between atoms: C_11  and  C_38
    7  A    between atoms: C_19  and  C_40
    8  A    between atoms: C_19  and  C_45
    9  A    between atoms: C_20  and  C_22
   10  A    between atoms: C_27  and  C_54
   11  A    between atoms: C_28  and  C_49
   12  A    between atoms: N_33  and  C_52
   13  A    between atoms: C_35  and  C_43
   14  A    between atoms: C_35  and  O_51
   15  A    between atoms: O_51  and  C_54
                            x       y       z     vdW  Elec       q    Type
                         _______ _______ _______ _____ _____    ______ ____

>  <TORSDO>
F 15

$$$$
=
 OpenBabel10272401353D

 55 60  0  0  1  0  0  0  0  0999 V2000
  183.4150  178.9370  144.0140 C   0  0  0  0  0  3  0  0  0  0  0  0
  181.5120  178.9840  141.9630 C   0  0  0  0  0  0  0  0  0  0  0  0
  182.8690  179.1430  141.6640 C   0  0  0  0  0  3  0  0  0  0  0  0
  182.0570  178.7870  144.3150 C   0  0  0  0  0  3  0  0  0  0  0  0
  183.8210  179.1220  142.6880 C   0  0  0  0  0  0  0  0  0  0  0  0
  181.1050  178.8130  143.2890 C   0  0  0  0  0  3  0  0  0  0  0  0
  185.2660  179.2650  142.3610 C   0  0  0  0  0  2  0  0  0  0  0  0
  185.7470  178.0430  141.5970 C   0  0  0  0  0  2  0  0  0  0  0  0
  190.0050  176.9100  144.6290 S   0  0  0  0  0  0  0  0  0  0  0  0
  191.9220  178.8530  144.4780 C   0  0  0  0  0  1  0  0  0  0  0  0
  190.0370  177.6310  142.1040 C   0  0  0  0  0  0  0  0  0  0  0  0
  191.4810  177.5200  142.4240 C   0  0  0  0  0  2  0  0  0  0  0  0
  191.6010  177.4700  143.9440 C   0  0  2  0  0  3  0  0  0  0  0  0
  189.2070  177.3680  143.0990 C   0  0  0  0  0  0  0  0  0  0  0  0
  188.1030  178.0680  140.6220 N   0  0  0  0  0  0  0  0  0  0  0  0
  189.5680  178.0870  140.7550 C   0  0  0  0  0  2  0  0  0  0  0  0
  187.7460  177.5310  142.9590 C   0  0  0  0  0  0  0  0  0  0  0  0
  187.2310  177.8810  141.7620 C   0  0  0  0  0  0  0  0  0  0  0  0
  187.1950  177.5190  135.1640 C   0  0  0  0  0  0  0  0  0  0  0  0
  188.5990  178.7700  138.3130 C   0  0  0  0  0  2  0  0  0  0  0  0
  186.3080  176.4220  134.6800 C   0  0  0  0  0  1  0  0  0  0  0  0
  187.1340  177.9720  136.5240 N   0  0  0  0  0  0  0  0  0  0  0  0
  186.7390  177.1400  138.7910 C   0  0  0  0  0  2  0  0  0  0  0  0
  186.1110  177.4660  137.4390 C   0  0  0  0  0  2  0  0  0  0  0  0
  188.0120  178.0380  134.3590 O   0  0  0  0  0  0  0  0  0  0  0  0
  187.9620  179.0930  136.9640 C   0  0  0  0  0  2  0  0  0  0  0  0
  187.5200  178.3470  139.3110 C   0  0  0  0  0  3  0  0  0  0  0  0
  186.8630  177.2950  144.1530 C   0  0  0  0  0  2  0  0  0  0  0  0
  187.7730  177.4500  146.4390 N   0  0  0  0  0  1  0  0  0  0  0  0
  187.2510  178.2150  145.3130 C   0  0  2  0  0  3  0  0  0  0  0  0
  186.2110  179.0910  145.7000 O   0  0  0  0  0  0  0  0  0  0  0  0
  185.4820  178.5030  146.7490 C   0  0  0  0  0  1  0  0  0  0  0  0
  180.5030  179.0200  140.8670 C   0  0  0  0  0  2  0  0  0  0  0  0
  180.9680  178.3020  139.7610 O   0  0  0  0  0  0  0  0  0  0  0  0
  180.5360  176.9880  139.9720 C   0  0  0  0  0  2  0  0  0  0  0  0
  181.6820  176.0140  139.7620 C   0  0  0  0  0  2  0  0  0  0  0  0
  181.2760  174.9160  138.7970 C   0  0  0  0  0  2  0  0  0  0  0  0
  181.2420  175.4800  137.3850 C   0  0  0  0  0  2  0  0  0  0  0  0
  184.1000  172.8410  135.3310 C   0  0  2  0  0  0  0  0  0  0  0  0
  181.0820  171.9920  134.4620 C   0  0  0  0  0  2  0  0  0  0  0  0
  181.9980  174.3020  135.2060 C   0  0  2  0  0  0  0  0  0  0  0  0
  183.1910  176.1700  136.1950 O   0  0  0  0  0  1  0  0  0  0  0  0
  180.9510  172.6780  136.7590 F   0  0  0  0  0  0  0  0  0  0  0  0
  180.9760  173.1530  135.4570 C   0  0  2  0  0  3  0  0  0  0  0  0
  182.4310  175.0390  136.5180 C   0  0  1  0  0  0  0  0  0  0  0  0
  184.5020  173.5610  136.6250 C   0  0  0  0  0  2  0  0  0  0  0  0
  183.3800  171.5310  135.6120 C   0  0  0  0  0  0  0  0  0  0  0  0
  185.3690  172.5280  134.5630 C   0  0  0  0  0  1  0  0  0  0  0  0
  182.2570  171.0250  134.7120 C   0  0  1  0  0  3  0  0  0  0  0  0
  183.2920  174.1110  137.3850 C   0  0  0  0  0  2  0  0  0  0  0  0
  181.3860  175.2190  134.3480 O   0  0  0  0  0  1  0  0  0  0  0  0
  183.7680  170.8340  136.5400 O   0  0  0  0  0  0  0  0  0  0  0  0
  183.2610  173.7950  134.4780 C   0  0  0  0  0  2  0  0  0  0  0  0
  181.7420  169.6370  135.0890 C   0  0  0  0  0  2  0  0  0  0  0  0
  180.3450  169.6070  135.0800 O   0  0  0  0  0  1  0  0  0  0  0  0
  1  4  1  0  0  0  0
  2  6  1  0  0  0  0
  3  2  2  0  0  0  0
  3  5  1  0  0  0  0
  5  1  2  0  0  0  0
  6  4  2  0  0  0  0
  7  5  1  0  0  0  0
  8 18  1  0  0  0  0
  8  7  1  0  0  0  0
 11 12  1  0  0  0  0
 11 14  2  0  0  0  0
 12 13  1  0  0  0  0
 13 10  1  1  0  0  0
 13  9  1  0  0  0  0
 14  9  1  0  0  0  0
 15 16  1  0  0  0  0
 15 18  1  0  0  0  0
 16 11  1  0  0  0  0
 17 14  1  0  0  0  0
 17 28  1  0  0  0  0
 18 17  2  0  0  0  0
 19 22  1  0  0  0  0
 20 27  1  0  0  0  0
 21 19  1  0  0  0  0
 22 26  1  0  0  0  0
 22 24  1  0  0  0  0
 23 27  1  0  0  0  0
 24 23  1  0  0  0  0
 25 19  2  0  0  0  0
 26 20  1  0  0  0  0
 27 15  1  0  0  0  0
 28 30  1  0  0  0  0
 30 31  1  0  0  0  0
 30 29  1  1  0  0  0
 31 32  1  0  0  0  0
 33  2  1  0  0  0  0
 34 35  1  0  0  0  0
 34 33  1  0  0  0  0
 36 35  1  0  0  0  0
 37 36  1  0  0  0  0
 38 37  1  0  0  0  0
 39 48  1  6  0  0  0
 39 47  1  0  0  0  0
 39 46  1  0  0  0  0
 40 49  1  0  0  0  0
 40 44  1  0  0  0  0
 41 51  1  6  0  0  0
 41 44  1  0  0  0  0
 41 45  1  0  0  0  0
 44 43  1  1  0  0  0
 45 42  1  6  0  0  0
 45 38  1  0  0  0  0
 45 50  1  0  0  0  0
 46 50  1  0  0  0  0
 47 52  2  0  0  0  0
 49 54  1  1  0  0  0
 49 47  1  0  0  0  0
 53 41  1  0  0  0  0
 53 39  1  0  0  0  0
 55 54  1  0  0  0  0
M  END
>  <MODEL>
8

>  <REMARK>
 VINA RESULT:      -7.0      5.566      9.690
  Name = 
  15 active torsions:
  status: ('A' for Active; 'I' for Inactive)
    1  A    between atoms: C_2  and  C_28
    2  A    between atoms: C_2  and  C_44
    3  A    between atoms: O_4  and  C_40
    4  A    between atoms: C_8  and  C_22
    5  A    between atoms: C_8  and  C_43
    6  A    between atoms: C_11  and  C_38
    7  A    between atoms: C_19  and  C_40
    8  A    between atoms: C_19  and  C_45
    9  A    between atoms: C_20  and  C_22
   10  A    between atoms: C_27  and  C_54
   11  A    between atoms: C_28  and  C_49
   12  A    between atoms: N_33  and  C_52
   13  A    between atoms: C_35  and  C_43
   14  A    between atoms: C_35  and  O_51
   15  A    between atoms: O_51  and  C_54
                            x       y       z     vdW  Elec       q    Type
                         _______ _______ _______ _____ _____    ______ ____

>  <TORSDO>
F 15

$$$$
=
 OpenBabel10272401353D

 55 60  0  0  1  0  0  0  0  0999 V2000
  186.6800  177.9940  146.2560 C   0  0  0  0  0  3  0  0  0  0  0  0
  184.8130  178.4680  144.2280 C   0  0  0  0  0  0  0  0  0  0  0  0
  186.0050  177.7970  143.9390 C   0  0  0  0  0  3  0  0  0  0  0  0
  185.4910  178.6730  146.5440 C   0  0  0  0  0  3  0  0  0  0  0  0
  186.9410  177.5610  144.9520 C   0  0  0  0  0  0  0  0  0  0  0  0
  184.5590  178.9130  145.5290 C   0  0  0  0  0  3  0  0  0  0  0  0
  188.1960  176.8230  144.6450 C   0  0  0  0  0  2  0  0  0  0  0  0
  188.1760  176.3450  143.2030 C   0  0  0  0  0  2  0  0  0  0  0  0
  191.0100  177.6740  138.8660 S   0  0  0  0  0  0  0  0  0  0  0  0
  193.0990  175.9630  138.4380 C   0  0  0  0  0  1  0  0  0  0  0  0
  191.9680  177.1660  141.2590 C   0  0  0  0  0  0  0  0  0  0  0  0
  193.1980  177.4030  140.4640 C   0  0  0  0  0  2  0  0  0  0  0  0
  192.8000  177.3430  138.9930 C   0  0  2  0  0  3  0  0  0  0  0  0
  190.8290  177.2590  140.5940 C   0  0  0  0  0  0  0  0  0  0  0  0
  190.7050  176.6470  143.3230 N   0  0  0  0  0  0  0  0  0  0  0  0
  192.0340  176.7720  142.7030 C   0  0  0  0  0  2  0  0  0  0  0  0
  189.5300  176.9550  141.2260 C   0  0  0  0  0  0  0  0  0  0  0  0
  189.4890  176.6490  142.5390 C   0  0  0  0  0  0  0  0  0  0  0  0
  192.3360  176.6690  148.6400 C   0  0  0  0  0  0  0  0  0  0  0  0
  191.7420  175.4710  145.2250 C   0  0  0  0  0  2  0  0  0  0  0  0
  192.2410  177.9340  149.4250 C   0  0  0  0  0  1  0  0  0  0  0  0
  191.5650  176.4830  147.4440 N   0  0  0  0  0  0  0  0  0  0  0  0
  190.6810  177.7340  145.5360 C   0  0  0  0  0  2  0  0  0  0  0  0
  190.5650  177.4690  147.0340 C   0  0  0  0  0  2  0  0  0  0  0  0
  193.1180  175.7650  149.0370 O   0  0  0  0  0  0  0  0  0  0  0  0
  191.6200  175.2120  146.7240 C   0  0  0  0  0  2  0  0  0  0  0  0
  190.6300  176.4140  144.7650 C   0  0  0  0  0  3  0  0  0  0  0  0
  188.2790  176.9990  140.3930 C   0  0  0  0  0  2  0  0  0  0  0  0
  187.4630  179.2340  141.0370 N   0  0  0  0  0  1  0  0  0  0  0  0
  187.9740  178.4280  139.9360 C   0  0  2  0  0  3  0  0  0  0  0  0
  187.1320  178.4810  138.8010 O   0  0  0  0  0  0  0  0  0  0  0  0
  187.4770  177.4390  137.9240 C   0  0  0  0  0  1  0  0  0  0  0  0
  183.8270  178.7270  143.1410 C   0  0  0  0  0  2  0  0  0  0  0  0
  182.7660  179.4950  143.6280 O   0  0  0  0  0  0  0  0  0  0  0  0
  181.6610  178.6370  143.6210 C   0  0  0  0  0  2  0  0  0  0  0  0
  180.4270  179.3660  143.1170 C   0  0  0  0  0  2  0  0  0  0  0  0
  180.5420  179.6380  141.6290 C   0  0  0  0  0  2  0  0  0  0  0  0
  180.7270  178.3190  140.8930 C   0  0  0  0  0  2  0  0  0  0  0  0
  183.2190  177.0820  137.4850 C   0  0  2  0  0  0  0  0  0  0  0  0
  180.2620  175.7680  137.1510 C   0  0  0  0  0  2  0  0  0  0  0  0
  180.9680  177.9620  138.3400 C   0  0  2  0  0  0  0  0  0  0  0  0
  182.0830  179.7490  139.5470 O   0  0  0  0  0  1  0  0  0  0  0  0
  180.7240  175.7880  139.5060 F   0  0  0  0  0  0  0  0  0  0  0  0
  180.2740  176.5720  138.4550 C   0  0  2  0  0  3  0  0  0  0  0  0
  181.6520  178.4220  139.6710 C   0  0  1  0  0  0  0  0  0  0  0  0
  183.8710  177.5230  138.8030 C   0  0  0  0  0  2  0  0  0  0  0  0
  182.8430  175.6080  137.5050 C   0  0  0  0  0  0  0  0  0  0  0  0
  184.2280  177.2990  136.3750 C   0  0  0  0  0  1  0  0  0  0  0  0
  181.5990  175.0890  136.7910 C   0  0  1  0  0  3  0  0  0  0  0  0
  182.8760  177.5440  139.9670 C   0  0  0  0  0  2  0  0  0  0  0  0
  179.9830  178.8880  137.9890 O   0  0  0  0  0  1  0  0  0  0  0  0
  183.6030  174.8150  138.0430 O   0  0  0  0  0  0  0  0  0  0  0  0
  182.0160  177.9860  137.2070 C   0  0  0  0  0  2  0  0  0  0  0  0
  181.4580  173.5680  136.8250 C   0  0  0  0  0  2  0  0  0  0  0  0
  180.5220  173.1780  137.7860 O   0  0  0  0  0  1  0  0  0  0  0  0
  1  4  1  0  0  0  0
  2  6  1  0  0  0  0
  3  2  2  0  0  0  0
  3  5  1  0  0  0  0
  5  1  2  0  0  0  0
  6  4  2  0  0  0  0
  7  5  1  0  0  0  0
  8  7  1  0  0  0  0
  9 13  1  0  0  0  0
  9 14  1  0  0  0  0
 11 16  1  0  0  0  0
 12 11  1  0  0  0  0
 13 10  1  1  0  0  0
 13 12  1  0  0  0  0
 14 17  1  0  0  0  0
 14 11  2  0  0  0  0
 15 27  1  0  0  0  0
 16 15  1  0  0  0  0
 17 18  2  0  0  0  0
 18  8  1  0  0  0  0
 18 15  1  0  0  0  0
 19 25  2  0  0  0  0
 19 21  1  0  0  0  0
 20 26  1  0  0  0  0
 22 19  1  0  0  0  0
 23 24  1  0  0  0  0
 24 22  1  0  0  0  0
 26 22  1  0  0  0  0
 27 20  1  0  0  0  0
 27 23  1  0  0  0  0
 28 17  1  0  0  0  0
 30 28  1  0  0  0  0
 30 29  1  1  0  0  0
 31 30  1  0  0  0  0
 32 31  1  0  0  0  0
 33 34  1  0  0  0  0
 33  2  1  0  0  0  0
 35 34  1  0  0  0  0
 36 35  1  0  0  0  0
 37 36  1  0  0  0  0
 38 37  1  0  0  0  0
 39 48  1  6  0  0  0
 39 47  1  0  0  0  0
 39 46  1  0  0  0  0
 40 44  1  0  0  0  0
 41 51  1  6  0  0  0
 41 44  1  0  0  0  0
 41 45  1  0  0  0  0
 44 43  1  1  0  0  0
 45 42  1  6  0  0  0
 45 50  1  0  0  0  0
 45 38  1  0  0  0  0
 46 50  1  0  0  0  0
 47 52  2  0  0  0  0
 49 54  1  1  0  0  0
 49 40  1  0  0  0  0
 49 47  1  0  0  0  0
 53 39  1  0  0  0  0
 53 41  1  0  0  0  0
 54 55  1  0  0  0  0
M  END
>  <MODEL>
9

>  <REMARK>
 VINA RESULT:      -7.0      4.572     11.081
  Name = 
  15 active torsions:
  status: ('A' for Active; 'I' for Inactive)
    1  A    between atoms: C_2  and  C_28
    2  A    between atoms: C_2  and  C_44
    3  A    between atoms: O_4  and  C_40
    4  A    between atoms: C_8  and  C_22
    5  A    between atoms: C_8  and  C_43
    6  A    between atoms: C_11  and  C_38
    7  A    between atoms: C_19  and  C_40
    8  A    between atoms: C_19  and  C_45
    9  A    between atoms: C_20  and  C_22
   10  A    between atoms: C_27  and  C_54
   11  A    between atoms: C_28  and  C_49
   12  A    between atoms: N_33  and  C_52
   13  A    between atoms: C_35  and  C_43
   14  A    between atoms: C_35  and  O_51
   15  A    between atoms: O_51  and  C_54
                            x       y       z     vdW  Elec       q    Type
                         _______ _______ _______ _____ _____    ______ ____

>  <TORSDO>
F 15

$$$$
