=
 OpenBabel10272414053D

 43 48  0  0  1  0  0  0  0  0999 V2000
  191.7720  176.2910  147.2520 C   0  0  0  0  0  0  0  0  0  0  0  0
  188.9730  177.0170  143.1370 C   0  0  0  0  0  0  0  0  0  0  0  0
  186.4870  178.0180  144.0000 C   0  0  0  0  0  0  0  0  0  0  0  0
  190.9520  176.3700  144.9760 C   0  0  0  0  0  0  0  0  0  0  0  0
  190.5800  176.8690  147.7030 C   0  0  0  0  0  3  0  0  0  0  0  0
  192.8390  175.9390  148.2220 C   0  0  0  0  0  1  0  0  0  0  0  0
  189.7490  176.9570  145.4260 C   0  0  0  0  0  0  0  0  0  0  0  0
  191.9570  176.0390  145.8880 C   0  0  0  0  0  3  0  0  0  0  0  0
  189.5710  177.2010  146.7940 C   0  0  0  0  0  3  0  0  0  0  0  0
  187.5340  177.8220  144.9070 O   0  0  0  0  0  0  0  0  0  0  0  0
  188.7510  177.2750  144.4970 C   0  0  0  0  0  0  0  0  0  0  0  0
  190.1430  176.4520  142.7320 N   0  0  0  0  0  0  0  0  0  0  0  0
  187.9420  177.4220  142.1190 C   0  0  1  0  0  3  0  0  0  0  0  0
  186.6600  177.8000  142.7300 N   0  0  0  0  0  0  0  0  0  0  0  0
  191.1250  176.1230  143.6130 C   0  0  0  0  0  3  0  0  0  0  0  0
  185.1550  178.4770  144.4860 C   0  0  1  0  0  3  0  0  0  0  0  0
  185.2590  178.9620  145.9210 C   0  0  0  0  0  1  0  0  0  0  0  0
  184.6410  179.5900  143.5860 C   0  0  0  0  0  2  0  0  0  0  0  0
  183.3150  179.2630  143.0740 N   0  0  0  0  0  0  0  0  0  0  0  0
  182.5120  178.7370  144.1720 C   0  0  0  0  0  1  0  0  0  0  0  0
  183.4200  178.2520  142.0140 C   0  0  0  0  0  2  0  0  0  0  0  0
  182.7230  178.6470  140.7060 C   0  0  2  0  0  3  0  0  0  0  0  0
  181.0770  177.3580  139.4810 C   0  0  0  0  0  2  0  0  0  0  0  0
  181.3830  179.0920  140.9700 N   0  0  0  0  0  0  0  0  0  0  0  0
  182.5630  177.4180  139.8190 C   0  0  1  0  0  3  0  0  0  0  0  0
  180.4990  178.4270  140.3330 C   0  0  0  0  0  3  0  0  0  0  0  0
  183.7190  176.3800  137.7960 N   0  0  0  0  0  0  0  0  0  0  0  0
  183.3970  177.5420  138.5780 C   0  0  0  0  0  0  0  0  0  0  0  0
  184.6650  174.9710  135.6350 S   0  0  0  0  0  0  0  0  0  0  0  0
  182.3850  174.4080  137.1300 C   0  0  0  0  0  2  0  0  0  0  0  0
  182.8620  174.7080  135.7070 C   0  0  0  0  0  2  0  0  0  0  0  0
  183.2450  175.0610  138.2150 C   0  0  0  0  0  2  0  0  0  0  0  0
  184.5470  176.5270  136.5940 C   0  0  0  0  0  2  0  0  0  0  0  0
  183.8240  178.6760  138.2260 O   0  0  0  0  0  0  0  0  0  0  0  0
  188.4790  178.5850  141.2900 C   0  0  0  0  0  2  0  0  0  0  0  0
  187.6470  177.8640  137.6640 C   0  0  0  0  0  3  0  0  0  0  0  0
  188.8860  177.4470  137.1650 C   0  0  0  0  0  0  0  0  0  0  0  0
  189.8660  177.7810  139.3640 C   0  0  0  0  0  3  0  0  0  0  0  0
  187.5160  178.2380  139.0060 C   0  0  0  0  0  3  0  0  0  0  0  0
  188.6260  178.2010  139.8560 C   0  0  0  0  0  0  0  0  0  0  0  0
  189.9980  177.4070  138.0240 C   0  0  0  0  0  3  0  0  0  0  0  0
  187.9310  177.2820  134.8900 C   0  0  0  0  0  1  0  0  0  0  0  0
  188.9850  177.0790  135.8210 O   0  0  0  0  0  0  0  0  0  0  0  0
  1  5  1  0  0  0  0
  1  6  1  0  0  0  0
  2 11  1  0  0  0  0
  3 16  1  0  0  0  0
  3 10  1  0  0  0  0
  4  7  1  0  0  0  0
  4  8  1  0  0  0  0
  7  9  1  0  0  0  0
  8  1  2  0  0  0  0
  9  5  2  0  0  0  0
 11 10  1  0  0  0  0
 11  7  2  0  0  0  0
 12  2  2  0  0  0  0
 12 15  1  0  0  0  0
 13 35  1  1  0  0  0
 13 14  1  0  0  0  0
 13  2  1  0  0  0  0
 14  3  2  0  0  0  0
 15  4  2  0  0  0  0
 16 17  1  1  0  0  0
 18 16  1  0  0  0  0
 19 18  1  0  0  0  0
 19 20  1  0  0  0  0
 21 19  1  0  0  0  0
 22 24  1  0  0  0  0
 22 21  1  1  0  0  0
 23 25  1  0  0  0  0
 23 26  1  0  0  0  0
 25 28  1  6  0  0  0
 25 22  1  0  0  0  0
 26 24  2  0  0  0  0
 27 32  1  0  0  0  0
 27 28  1  0  0  0  0
 29 31  1  0  0  0  0
 29 33  1  0  0  0  0
 30 32  1  0  0  0  0
 31 30  1  0  0  0  0
 33 27  1  0  0  0  0
 34 28  2  0  0  0  0
 36 39  1  0  0  0  0
 37 36  2  0  0  0  0
 37 41  1  0  0  0  0
 38 40  1  0  0  0  0
 39 40  2  0  0  0  0
 40 35  1  0  0  0  0
 41 38  2  0  0  0  0
 42 43  1  0  0  0  0
 43 37  1  0  0  0  0
M  END
>  <MODEL>
1

>  <REMARK>
 VINA RESULT:      -9.4      0.000      0.000
  Name = 
  9 active torsions:
  status: ('A' for Active; 'I' for Inactive)
    1  A    between atoms: C_1  and  C_34
    2  A    between atoms: C_1  and  C_35
    3  A    between atoms: C_2  and  C_6
    4  A    between atoms: C_2  and  C_13
    5  A    between atoms: C_3  and  C_4
    6  A    between atoms: C_3  and  N_12
    7  A    between atoms: C_6  and  N_12
    8  A    between atoms: C_14  and  C_22
    9  A    between atoms: C_19  and  O_37
                            x       y       z     vdW  Elec       q    Type
                         _______ _______ _______ _____ _____    ______ ____

>  <TORSDO>
F 9

$$$$
=
 OpenBabel10272414053D

 43 48  0  0  1  0  0  0  0  0999 V2000
  187.7980  177.6110  147.0760 C   0  0  0  0  0  0  0  0  0  0  0  0
  185.3480  178.7780  142.8420 C   0  0  0  0  0  0  0  0  0  0  0  0
  187.1520  178.3920  140.7160 C   0  0  0  0  0  0  0  0  0  0  0  0
  186.1420  178.3350  145.4670 C   0  0  0  0  0  0  0  0  0  0  0  0
  188.6870  177.3250  146.0340 C   0  0  0  0  0  3  0  0  0  0  0  0
  188.2080  177.3800  148.4850 C   0  0  0  0  0  1  0  0  0  0  0  0
  187.0350  178.0460  144.4130 C   0  0  0  0  0  0  0  0  0  0  0  0
  186.5260  178.1180  146.7930 C   0  0  0  0  0  3  0  0  0  0  0  0
  188.3080  177.5420  144.7060 C   0  0  0  0  0  3  0  0  0  0  0  0
  187.5000  178.0380  142.0230 O   0  0  0  0  0  0  0  0  0  0  0  0
  186.6340  178.2770  143.0910 C   0  0  0  0  0  0  0  0  0  0  0  0
  184.5080  179.0470  143.8790 N   0  0  0  0  0  0  0  0  0  0  0  0
  184.8750  178.9610  141.4250 C   0  0  1  0  0  3  0  0  0  0  0  0
  185.9650  178.8480  140.4460 N   0  0  0  0  0  0  0  0  0  0  0  0
  184.8750  178.8420  145.1720 C   0  0  0  0  0  3  0  0  0  0  0  0
  188.1450  178.2490  139.6140 C   0  0  1  0  0  3  0  0  0  0  0  0
  189.1480  177.1590  139.9500 C   0  0  0  0  0  1  0  0  0  0  0  0
  187.4230  177.9250  138.3150 C   0  0  0  0  0  2  0  0  0  0  0  0
  188.3750  177.8000  137.2180 N   0  0  0  0  0  0  0  0  0  0  0  0
  188.9910  179.1020  136.9880 C   0  0  0  0  0  1  0  0  0  0  0  0
  187.6830  177.3620  135.9990 C   0  0  0  0  0  2  0  0  0  0  0  0
  188.0520  175.9430  135.5490 C   0  0  2  0  0  3  0  0  0  0  0  0
  188.8210  174.1210  136.9490 C   0  0  0  0  0  2  0  0  0  0  0  0
  186.9940  175.0270  135.8720 N   0  0  0  0  0  0  0  0  0  0  0  0
  189.2570  175.4510  136.3430 C   0  0  1  0  0  3  0  0  0  0  0  0
  187.3770  174.0570  136.6080 C   0  0  0  0  0  3  0  0  0  0  0  0
  191.7340  175.7900  135.8390 N   0  0  0  0  0  0  0  0  0  0  0  0
  190.4500  175.2750  135.4500 C   0  0  0  0  0  0  0  0  0  0  0  0
  194.4540  176.1560  135.7100 S   0  0  0  0  0  0  0  0  0  0  0  0
  192.9180  175.8270  138.0090 C   0  0  0  0  0  2  0  0  0  0  0  0
  194.1020  175.2330  137.2430 C   0  0  0  0  0  2  0  0  0  0  0  0
  191.8840  176.5050  137.1070 C   0  0  0  0  0  2  0  0  0  0  0  0
  192.8820  175.6170  134.9430 C   0  0  0  0  0  2  0  0  0  0  0  0
  190.3190  174.6780  134.3470 O   0  0  0  0  0  0  0  0  0  0  0  0
  183.7960  177.9280  141.1150 C   0  0  0  0  0  2  0  0  0  0  0  0
  181.8100  179.7510  138.4530 C   0  0  0  0  0  3  0  0  0  0  0  0
  181.7890  178.8090  137.4180 C   0  0  0  0  0  0  0  0  0  0  0  0
  183.0910  177.2890  138.7970 C   0  0  0  0  0  3  0  0  0  0  0  0
  182.4670  179.4660  139.6540 C   0  0  0  0  0  3  0  0  0  0  0  0
  183.1110  178.2360  139.8260 C   0  0  0  0  0  0  0  0  0  0  0  0
  182.4350  177.5740  137.5970 C   0  0  0  0  0  3  0  0  0  0  0  0
  180.7910  180.4570  135.8670 C   0  0  0  0  0  1  0  0  0  0  0  0
  181.1250  179.1250  136.2300 O   0  0  0  0  0  0  0  0  0  0  0  0
  1  6  1  0  0  0  0
  2 11  2  0  0  0  0
  2 12  1  0  0  0  0
  3 10  1  0  0  0  0
  4  8  2  0  0  0  0
  5  1  2  0  0  0  0
  7  9  2  0  0  0  0
  7  4  1  0  0  0  0
  8  1  1  0  0  0  0
  9  5  1  0  0  0  0
 10 11  1  0  0  0  0
 11  7  1  0  0  0  0
 12 15  2  0  0  0  0
 13 35  1  6  0  0  0
 13  2  1  0  0  0  0
 14  3  2  0  0  0  0
 14 13  1  0  0  0  0
 15  4  1  0  0  0  0
 16 17  1  1  0  0  0
 16  3  1  0  0  0  0
 18 16  1  0  0  0  0
 19 18  1  0  0  0  0
 20 19  1  0  0  0  0
 21 19  1  0  0  0  0
 22 24  1  0  0  0  0
 22 21  1  1  0  0  0
 22 25  1  0  0  0  0
 24 26  2  0  0  0  0
 25 28  1  6  0  0  0
 25 23  1  0  0  0  0
 26 23  1  0  0  0  0
 27 32  1  0  0  0  0
 28 27  1  0  0  0  0
 29 31  1  0  0  0  0
 31 30  1  0  0  0  0
 32 30  1  0  0  0  0
 33 29  1  0  0  0  0
 33 27  1  0  0  0  0
 34 28  2  0  0  0  0
 36 39  1  0  0  0  0
 37 41  1  0  0  0  0
 37 36  2  0  0  0  0
 38 40  1  0  0  0  0
 39 40  2  0  0  0  0
 40 35  1  0  0  0  0
 41 38  2  0  0  0  0
 42 43  1  0  0  0  0
 43 37  1  0  0  0  0
M  END
>  <MODEL>
2

>  <REMARK>
 VINA RESULT:      -9.1      3.043      6.933
  Name = 
  9 active torsions:
  status: ('A' for Active; 'I' for Inactive)
    1  A    between atoms: C_1  and  C_34
    2  A    between atoms: C_1  and  C_35
    3  A    between atoms: C_2  and  C_6
    4  A    between atoms: C_2  and  C_13
    5  A    between atoms: C_3  and  C_4
    6  A    between atoms: C_3  and  N_12
    7  A    between atoms: C_6  and  N_12
    8  A    between atoms: C_14  and  C_22
    9  A    between atoms: C_19  and  O_37
                            x       y       z     vdW  Elec       q    Type
                         _______ _______ _______ _____ _____    ______ ____

>  <TORSDO>
F 9

$$$$
=
 OpenBabel10272414053D

 43 48  0  0  1  0  0  0  0  0999 V2000
  191.6650  176.2180  147.0830 C   0  0  0  0  0  0  0  0  0  0  0  0
  187.8900  177.9730  144.2610 C   0  0  0  0  0  0  0  0  0  0  0  0
  188.7810  177.9500  141.5910 C   0  0  0  0  0  0  0  0  0  0  0  0
  189.5660  177.1490  146.3170 C   0  0  0  0  0  0  0  0  0  0  0  0
  192.1020  176.1110  145.7580 C   0  0  0  0  0  3  0  0  0  0  0  0
  192.5490  175.7820  148.1940 C   0  0  0  0  0  1  0  0  0  0  0  0
  190.0030  177.0400  144.9790 C   0  0  0  0  0  0  0  0  0  0  0  0
  190.3970  176.7380  147.3630 C   0  0  0  0  0  3  0  0  0  0  0  0
  191.2750  176.5220  144.7080 C   0  0  0  0  0  3  0  0  0  0  0  0
  189.5670  177.4070  142.6120 O   0  0  0  0  0  0  0  0  0  0  0  0
  189.1580  177.4640  143.9450 C   0  0  0  0  0  0  0  0  0  0  0  0
  187.4960  178.0640  145.5600 N   0  0  0  0  0  0  0  0  0  0  0  0
  186.9430  178.3610  143.1580 C   0  0  1  0  0  3  0  0  0  0  0  0
  187.5960  178.4200  141.8440 N   0  0  0  0  0  0  0  0  0  0  0  0
  188.3000  177.6710  146.5840 C   0  0  0  0  0  3  0  0  0  0  0  0
  189.3000  177.9960  140.1940 C   0  0  1  0  0  3  0  0  0  0  0  0
  190.2050  176.8050  139.9310 C   0  0  0  0  0  1  0  0  0  0  0  0
  188.1350  178.0020  139.2170 C   0  0  0  0  0  2  0  0  0  0  0  0
  188.5660  177.5430  137.9020 N   0  0  0  0  0  0  0  0  0  0  0  0
  188.5530  178.6790  136.9880 C   0  0  0  0  0  1  0  0  0  0  0  0
  187.6540  176.5040  137.4080 C   0  0  0  0  0  2  0  0  0  0  0  0
  188.1870  175.7330  136.1940 C   0  0  2  0  0  3  0  0  0  0  0  0
  189.3070  173.5850  136.2050 C   0  0  0  0  0  2  0  0  0  0  0  0
  187.2960  174.6590  135.8560 N   0  0  0  0  0  0  0  0  0  0  0  0
  189.5040  175.0560  136.5540 C   0  0  1  0  0  3  0  0  0  0  0  0
  187.8650  173.5160  135.8540 C   0  0  0  0  0  3  0  0  0  0  0  0
  192.0000  175.4350  136.1950 N   0  0  0  0  0  0  0  0  0  0  0  0
  190.6420  175.6500  135.7780 C   0  0  0  0  0  0  0  0  0  0  0  0
  194.7400  175.4770  135.9960 S   0  0  0  0  0  0  0  0  0  0  0  0
  193.1720  173.4410  137.0670 C   0  0  0  0  0  2  0  0  0  0  0  0
  194.2220  173.7290  135.9920 C   0  0  0  0  0  2  0  0  0  0  0  0
  192.2840  174.6440  137.3920 C   0  0  0  0  0  2  0  0  0  0  0  0
  193.0940  176.0390  135.4250 C   0  0  0  0  0  2  0  0  0  0  0  0
  190.3990  176.3500  134.7570 O   0  0  0  0  0  0  0  0  0  0  0  0
  185.7850  177.3690  143.1130 C   0  0  0  0  0  2  0  0  0  0  0  0
  182.6980  179.3010  144.1560 C   0  0  0  0  0  3  0  0  0  0  0  0
  181.9870  179.3730  142.9530 C   0  0  0  0  0  0  0  0  0  0  0  0
  183.7650  178.1390  141.8470 C   0  0  0  0  0  3  0  0  0  0  0  0
  183.9360  178.6530  144.2070 C   0  0  0  0  0  3  0  0  0  0  0  0
  184.4720  178.0740  143.0510 C   0  0  0  0  0  0  0  0  0  0  0  0
  182.5280  178.7870  141.7960 C   0  0  0  0  0  3  0  0  0  0  0  0
  179.9840  180.1850  141.7510 C   0  0  0  0  0  1  0  0  0  0  0  0
  180.7520  180.0280  142.9350 O   0  0  0  0  0  0  0  0  0  0  0  0
  1  8  1  0  0  0  0
  1  6  1  0  0  0  0
  2 12  1  0  0  0  0
  3 14  2  0  0  0  0
  3 10  1  0  0  0  0
  4 15  1  0  0  0  0
  4  8  2  0  0  0  0
  5  1  2  0  0  0  0
  7  4  1  0  0  0  0
  9  7  2  0  0  0  0
  9  5  1  0  0  0  0
 10 11  1  0  0  0  0
 11  2  2  0  0  0  0
 11  7  1  0  0  0  0
 12 15  2  0  0  0  0
 13 35  1  6  0  0  0
 13  2  1  0  0  0  0
 14 13  1  0  0  0  0
 16 17  1  6  0  0  0
 16  3  1  0  0  0  0
 18 16  1  0  0  0  0
 19 18  1  0  0  0  0
 20 19  1  0  0  0  0
 21 19  1  0  0  0  0
 22 25  1  0  0  0  0
 22 21  1  1  0  0  0
 23 25  1  0  0  0  0
 24 22  1  0  0  0  0
 25 28  1  6  0  0  0
 26 24  2  0  0  0  0
 26 23  1  0  0  0  0
 27 32  1  0  0  0  0
 28 27  1  0  0  0  0
 30 32  1  0  0  0  0
 31 29  1  0  0  0  0
 31 30  1  0  0  0  0
 33 29  1  0  0  0  0
 33 27  1  0  0  0  0
 34 28  2  0  0  0  0
 36 39  1  0  0  0  0
 37 36  2  0  0  0  0
 38 40  1  0  0  0  0
 40 35  1  0  0  0  0
 40 39  2  0  0  0  0
 41 38  2  0  0  0  0
 41 37  1  0  0  0  0
 42 43  1  0  0  0  0
 43 37  1  0  0  0  0
M  END
>  <MODEL>
3

>  <REMARK>
 VINA RESULT:      -9.0      3.132      6.997
  Name = 
  9 active torsions:
  status: ('A' for Active; 'I' for Inactive)
    1  A    between atoms: C_1  and  C_34
    2  A    between atoms: C_1  and  C_35
    3  A    between atoms: C_2  and  C_6
    4  A    between atoms: C_2  and  C_13
    5  A    between atoms: C_3  and  C_4
    6  A    between atoms: C_3  and  N_12
    7  A    between atoms: C_6  and  N_12
    8  A    between atoms: C_14  and  C_22
    9  A    between atoms: C_19  and  O_37
                            x       y       z     vdW  Elec       q    Type
                         _______ _______ _______ _____ _____    ______ ____

>  <TORSDO>
F 9

$$$$
=
 OpenBabel10272414053D

 43 48  0  0  1  0  0  0  0  0999 V2000
  187.5880  177.7320  147.2320 C   0  0  0  0  0  0  0  0  0  0  0  0
  185.3990  178.7740  142.8260 C   0  0  0  0  0  0  0  0  0  0  0  0
  187.3500  178.4020  140.8310 C   0  0  0  0  0  0  0  0  0  0  0  0
  186.0260  178.3900  145.5050 C   0  0  0  0  0  0  0  0  0  0  0  0
  188.5510  177.4530  146.2570 C   0  0  0  0  0  3  0  0  0  0  0  0
  187.9070  177.5320  148.6690 C   0  0  0  0  0  1  0  0  0  0  0  0
  186.9940  178.1080  144.5170 C   0  0  0  0  0  0  0  0  0  0  0  0
  186.3250  178.2020  146.8570 C   0  0  0  0  0  3  0  0  0  0  0  0
  188.2570  177.6410  144.9030 C   0  0  0  0  0  3  0  0  0  0  0  0
  187.6190  178.0770  142.1640 O   0  0  0  0  0  0  0  0  0  0  0  0
  186.6770  178.3100  143.1680 C   0  0  0  0  0  0  0  0  0  0  0  0
  184.4850  179.0370  143.8000 N   0  0  0  0  0  0  0  0  0  0  0  0
  185.0180  178.9240  141.3780 C   0  0  1  0  0  3  0  0  0  0  0  0
  186.1730  178.8250  140.4750 N   0  0  0  0  0  0  0  0  0  0  0  0
  184.7700  178.8600  145.1180 C   0  0  0  0  0  3  0  0  0  0  0  0
  188.4180  178.2690  139.8000 C   0  0  1  0  0  3  0  0  0  0  0  0
  189.6210  177.5460  140.3820 C   0  0  0  0  0  1  0  0  0  0  0  0
  187.8750  177.5130  138.5980 C   0  0  0  0  0  2  0  0  0  0  0  0
  188.8130  177.5830  137.4830 N   0  0  0  0  0  0  0  0  0  0  0  0
  188.7420  178.9170  136.9010 C   0  0  0  0  0  1  0  0  0  0  0  0
  188.4610  176.5830  136.4670 C   0  0  0  0  0  2  0  0  0  0  0  0
  188.6330  175.1320  136.9330 C   0  0  2  0  0  3  0  0  0  0  0  0
  188.8200  173.1620  135.5360 C   0  0  0  0  0  2  0  0  0  0  0  0
  189.9970  174.7150  136.7680 N   0  0  0  0  0  0  0  0  0  0  0  0
  187.8250  174.2050  136.0330 C   0  0  1  0  0  3  0  0  0  0  0  0
  190.1190  173.6770  136.0360 C   0  0  0  0  0  3  0  0  0  0  0  0
  185.3690  174.0930  136.7100 N   0  0  0  0  0  0  0  0  0  0  0  0
  186.7020  173.5640  136.7950 C   0  0  0  0  0  0  0  0  0  0  0  0
  182.6450  174.1470  137.0700 S   0  0  0  0  0  0  0  0  0  0  0  0
  184.0510  174.9730  134.8130 C   0  0  0  0  0  2  0  0  0  0  0  0
  182.9540  174.0120  135.2780 C   0  0  0  0  0  2  0  0  0  0  0  0
  185.0980  175.2720  135.8880 C   0  0  0  0  0  2  0  0  0  0  0  0
  184.2910  173.4560  137.4760 C   0  0  0  0  0  2  0  0  0  0  0  0
  186.9370  172.5600  137.5210 O   0  0  0  0  0  0  0  0  0  0  0  0
  183.9870  177.8600  141.0130 C   0  0  0  0  0  2  0  0  0  0  0  0
  182.7350  177.9740  137.4390 C   0  0  0  0  0  3  0  0  0  0  0  0
  181.7930  179.0060  137.5000 C   0  0  0  0  0  0  0  0  0  0  0  0
  182.2780  179.2870  139.8650 C   0  0  0  0  0  3  0  0  0  0  0  0
  183.4460  177.5980  138.5840 C   0  0  0  0  0  3  0  0  0  0  0  0
  183.2150  178.2520  139.7980 C   0  0  0  0  0  0  0  0  0  0  0  0
  181.5670  179.6630  138.7220 C   0  0  0  0  0  3  0  0  0  0  0  0
  180.7280  180.6960  136.0420 C   0  0  0  0  0  1  0  0  0  0  0  0
  181.0990  179.3580  136.3390 O   0  0  0  0  0  0  0  0  0  0  0  0
  1  6  1  0  0  0  0
  2 11  2  0  0  0  0
  2 12  1  0  0  0  0
  3 10  1  0  0  0  0
  4  8  2  0  0  0  0
  5  1  2  0  0  0  0
  7  9  2  0  0  0  0
  7  4  1  0  0  0  0
  8  1  1  0  0  0  0
  9  5  1  0  0  0  0
 10 11  1  0  0  0  0
 11  7  1  0  0  0  0
 12 15  2  0  0  0  0
 13 35  1  6  0  0  0
 13  2  1  0  0  0  0
 14  3  2  0  0  0  0
 14 13  1  0  0  0  0
 15  4  1  0  0  0  0
 16 17  1  1  0  0  0
 16  3  1  0  0  0  0
 18 16  1  0  0  0  0
 19 18  1  0  0  0  0
 20 19  1  0  0  0  0
 21 19  1  0  0  0  0
 22 21  1  6  0  0  0
 23 25  1  0  0  0  0
 23 26  1  0  0  0  0
 24 22  1  0  0  0  0
 25 28  1  1  0  0  0
 25 22  1  0  0  0  0
 26 24  2  0  0  0  0
 27 28  1  0  0  0  0
 27 33  1  0  0  0  0
 28 34  2  0  0  0  0
 29 33  1  0  0  0  0
 30 31  1  0  0  0  0
 30 32  1  0  0  0  0
 31 29  1  0  0  0  0
 32 27  1  0  0  0  0
 36 37  2  0  0  0  0
 36 39  1  0  0  0  0
 37 41  1  0  0  0  0
 39 40  2  0  0  0  0
 40 38  1  0  0  0  0
 40 35  1  0  0  0  0
 41 38  2  0  0  0  0
 42 43  1  0  0  0  0
 43 37  1  0  0  0  0
M  END
>  <MODEL>
4

>  <REMARK>
 VINA RESULT:      -8.9      2.562      6.118
  Name = 
  9 active torsions:
  status: ('A' for Active; 'I' for Inactive)
    1  A    between atoms: C_1  and  C_34
    2  A    between atoms: C_1  and  C_35
    3  A    between atoms: C_2  and  C_6
    4  A    between atoms: C_2  and  C_13
    5  A    between atoms: C_3  and  C_4
    6  A    between atoms: C_3  and  N_12
    7  A    between atoms: C_6  and  N_12
    8  A    between atoms: C_14  and  C_22
    9  A    between atoms: C_19  and  O_37
                            x       y       z     vdW  Elec       q    Type
                         _______ _______ _______ _____ _____    ______ ____

>  <TORSDO>
F 9

$$$$
=
 OpenBabel10272414053D

 43 48  0  0  1  0  0  0  0  0999 V2000
  184.2860  178.8320  143.7930 C   0  0  0  0  0  0  0  0  0  0  0  0
  188.7510  176.8380  142.6170 C   0  0  0  0  0  0  0  0  0  0  0  0
  189.1620  177.3080  139.8720 C   0  0  0  0  0  0  0  0  0  0  0  0
  186.4110  177.6760  143.8590 C   0  0  0  0  0  0  0  0  0  0  0  0
  184.5030  179.1580  142.4500 C   0  0  0  0  0  3  0  0  0  0  0  0
  183.0400  179.2730  144.4710 C   0  0  0  0  0  1  0  0  0  0  0  0
  186.6350  178.0040  142.5040 C   0  0  0  0  0  0  0  0  0  0  0  0
  185.2400  178.0900  144.4980 C   0  0  0  0  0  3  0  0  0  0  0  0
  185.6730  178.7450  141.8050 C   0  0  0  0  0  3  0  0  0  0  0  0
  188.0540  177.8470  140.5320 O   0  0  0  0  0  0  0  0  0  0  0  0
  187.8120  177.5740  141.8790 C   0  0  0  0  0  0  0  0  0  0  0  0
  188.5090  176.5370  143.9220 N   0  0  0  0  0  0  0  0  0  0  0  0
  190.0540  176.4340  141.9820 C   0  0  1  0  0  3  0  0  0  0  0  0
  190.0590  176.6300  140.5260 N   0  0  0  0  0  0  0  0  0  0  0  0
  187.3690  176.9330  144.5500 C   0  0  0  0  0  3  0  0  0  0  0  0
  189.3260  177.5040  138.4030 C   0  0  1  0  0  3  0  0  0  0  0  0
  190.7710  177.2680  138.0010 C   0  0  0  0  0  1  0  0  0  0  0  0
  188.4050  176.5520  137.6560 C   0  0  0  0  0  2  0  0  0  0  0  0
  187.4140  177.2970  136.8880 N   0  0  0  0  0  0  0  0  0  0  0  0
  188.0190  178.5450  136.4380 C   0  0  0  0  0  1  0  0  0  0  0  0
  186.2450  177.5920  137.7270 C   0  0  0  0  0  2  0  0  0  0  0  0
  185.0120  176.7420  137.3970 C   0  0  2  0  0  3  0  0  0  0  0  0
  183.1500  177.3590  135.9750 C   0  0  0  0  0  2  0  0  0  0  0  0
  185.1300  176.1810  136.0810 N   0  0  0  0  0  0  0  0  0  0  0  0
  183.7760  177.6320  137.3390 C   0  0  1  0  0  3  0  0  0  0  0  0
  184.1580  176.4920  135.3140 C   0  0  0  0  0  3  0  0  0  0  0  0
  182.3260  178.3330  139.3160 N   0  0  0  0  0  0  0  0  0  0  0  0
  182.8240  177.3000  138.4490 C   0  0  0  0  0  0  0  0  0  0  0  0
  180.7330  179.4550  141.2530 S   0  0  0  0  0  0  0  0  0  0  0  0
  181.5650  180.6440  138.8760 C   0  0  0  0  0  2  0  0  0  0  0  0
  180.3140  180.2610  139.6710 C   0  0  0  0  0  2  0  0  0  0  0  0
  182.7570  179.7180  139.1290 C   0  0  0  0  0  2  0  0  0  0  0  0
  181.4060  177.9800  140.4030 C   0  0  0  0  0  2  0  0  0  0  0  0
  182.4670  176.1030  138.6260 O   0  0  0  0  0  0  0  0  0  0  0  0
  191.1920  177.2300  142.6120 C   0  0  0  0  0  2  0  0  0  0  0  0
  192.2420  174.9330  145.4360 C   0  0  0  0  0  3  0  0  0  0  0  0
  192.0750  175.7590  146.5520 C   0  0  0  0  0  0  0  0  0  0  0  0
  191.3360  177.5560  145.0920 C   0  0  0  0  0  3  0  0  0  0  0  0
  191.9590  175.4130  144.1530 C   0  0  0  0  0  3  0  0  0  0  0  0
  191.5090  176.7260  143.9800 C   0  0  0  0  0  0  0  0  0  0  0  0
  191.6190  177.0760  146.3740 C   0  0  0  0  0  3  0  0  0  0  0  0
  192.7840  176.0710  148.9010 C   0  0  0  0  0  1  0  0  0  0  0  0
  192.3660  175.2490  147.8210 O   0  0  0  0  0  0  0  0  0  0  0  0
  1  6  1  0  0  0  0
  1  8  1  0  0  0  0
  2 12  1  0  0  0  0
  3 14  2  0  0  0  0
  3 10  1  0  0  0  0
  4  8  2  0  0  0  0
  4 15  1  0  0  0  0
  5  1  2  0  0  0  0
  7  4  1  0  0  0  0
  9  5  1  0  0  0  0
  9  7  2  0  0  0  0
 10 11  1  0  0  0  0
 11  7  1  0  0  0  0
 11  2  2  0  0  0  0
 12 15  2  0  0  0  0
 13 35  1  1  0  0  0
 13  2  1  0  0  0  0
 14 13  1  0  0  0  0
 16 17  1  6  0  0  0
 16  3  1  0  0  0  0
 18 16  1  0  0  0  0
 19 18  1  0  0  0  0
 19 21  1  0  0  0  0
 20 19  1  0  0  0  0
 22 21  1  6  0  0  0
 23 25  1  0  0  0  0
 24 22  1  0  0  0  0
 25 22  1  0  0  0  0
 25 28  1  1  0  0  0
 26 23  1  0  0  0  0
 26 24  2  0  0  0  0
 27 33  1  0  0  0  0
 28 34  2  0  0  0  0
 28 27  1  0  0  0  0
 30 32  1  0  0  0  0
 30 31  1  0  0  0  0
 31 29  1  0  0  0  0
 32 27  1  0  0  0  0
 33 29  1  0  0  0  0
 35 40  1  0  0  0  0
 36 37  1  0  0  0  0
 37 43  1  0  0  0  0
 38 41  1  0  0  0  0
 39 36  2  0  0  0  0
 40 39  1  0  0  0  0
 40 38  2  0  0  0  0
 41 37  2  0  0  0  0
 43 42  1  0  0  0  0
M  END
>  <MODEL>
5

>  <REMARK>
 VINA RESULT:      -8.7      2.286      6.848
  Name = 
  9 active torsions:
  status: ('A' for Active; 'I' for Inactive)
    1  A    between atoms: C_1  and  C_34
    2  A    between atoms: C_1  and  C_35
    3  A    between atoms: C_2  and  C_6
    4  A    between atoms: C_2  and  C_13
    5  A    between atoms: C_3  and  C_4
    6  A    between atoms: C_3  and  N_12
    7  A    between atoms: C_6  and  N_12
    8  A    between atoms: C_14  and  C_22
    9  A    between atoms: C_19  and  O_37
                            x       y       z     vdW  Elec       q    Type
                         _______ _______ _______ _____ _____    ______ ____

>  <TORSDO>
F 9

$$$$
=
 OpenBabel10272414053D

 43 48  0  0  1  0  0  0  0  0999 V2000
  187.5120  177.7270  146.6980 C   0  0  0  0  0  0  0  0  0  0  0  0
  185.2770  178.8700  142.3400 C   0  0  0  0  0  0  0  0  0  0  0  0
  187.0900  178.2110  140.2900 C   0  0  0  0  0  0  0  0  0  0  0  0
  185.9650  178.5050  145.0070 C   0  0  0  0  0  0  0  0  0  0  0  0
  188.3960  177.3080  145.6990 C   0  0  0  0  0  3  0  0  0  0  0  0
  187.8650  177.5390  148.1280 C   0  0  0  0  0  1  0  0  0  0  0  0
  186.8540  178.0800  143.9950 C   0  0  0  0  0  0  0  0  0  0  0  0
  186.2960  178.3270  146.3520 C   0  0  0  0  0  3  0  0  0  0  0  0
  188.0700  177.4840  144.3510 C   0  0  0  0  0  3  0  0  0  0  0  0
  187.3740  177.9000  141.6230 O   0  0  0  0  0  0  0  0  0  0  0  0
  186.5070  178.2730  142.6520 C   0  0  0  0  0  0  0  0  0  0  0  0
  184.4390  179.2680  143.3370 N   0  0  0  0  0  0  0  0  0  0  0  0
  184.8570  179.0160  140.9030 C   0  0  1  0  0  3  0  0  0  0  0  0
  185.9550  178.7540  139.9620 N   0  0  0  0  0  0  0  0  0  0  0  0
  184.7560  179.1030  144.6490 C   0  0  0  0  0  3  0  0  0  0  0  0
  188.0930  177.9220  139.2260 C   0  0  1  0  0  3  0  0  0  0  0  0
  187.7430  178.6810  137.9570 C   0  0  0  0  0  1  0  0  0  0  0  0
  189.4790  178.3110  139.7130 C   0  0  0  0  0  2  0  0  0  0  0  0
  190.3390  177.1360  139.8030 N   0  0  0  0  0  0  0  0  0  0  0  0
  190.7690  176.9820  141.1870 C   0  0  0  0  0  1  0  0  0  0  0  0
  191.5140  177.3050  138.9380 C   0  0  0  0  0  2  0  0  0  0  0  0
  191.8970  176.0440  138.1540 C   0  0  2  0  0  3  0  0  0  0  0  0
  191.8960  175.7640  135.7480 C   0  0  0  0  0  2  0  0  0  0  0  0
  193.2120  176.1860  137.5940 N   0  0  0  0  0  0  0  0  0  0  0  0
  190.9710  175.8850  136.9540 C   0  0  1  0  0  3  0  0  0  0  0  0
  193.2350  176.0410  136.3260 C   0  0  0  0  0  3  0  0  0  0  0  0
  188.7640  174.6590  136.5950 N   0  0  0  0  0  0  0  0  0  0  0  0
  190.1090  174.6660  137.1010 C   0  0  0  0  0  0  0  0  0  0  0  0
  186.3420  173.5810  135.8730 S   0  0  0  0  0  0  0  0  0  0  0  0
  187.7710  175.5450  134.5120 C   0  0  0  0  0  2  0  0  0  0  0  0
  187.1600  174.1510  134.3460 C   0  0  0  0  0  2  0  0  0  0  0  0
  188.2190  175.8500  135.9430 C   0  0  0  0  0  2  0  0  0  0  0  0
  187.9370  173.4590  136.7640 C   0  0  0  0  0  2  0  0  0  0  0  0
  190.5690  173.6450  137.6830 O   0  0  0  0  0  0  0  0  0  0  0  0
  183.6970  178.0660  140.6160 C   0  0  0  0  0  2  0  0  0  0  0  0
  181.4530  178.0930  137.5640 C   0  0  0  0  0  3  0  0  0  0  0  0
  181.3400  179.4640  137.3060 C   0  0  0  0  0  0  0  0  0  0  0  0
  182.7630  179.9260  139.2210 C   0  0  0  0  0  3  0  0  0  0  0  0
  182.2170  177.6390  138.6440 C   0  0  0  0  0  3  0  0  0  0  0  0
  182.8700  178.5550  139.4750 C   0  0  0  0  0  0  0  0  0  0  0  0
  182.0000  180.3800  138.1420 C   0  0  0  0  0  3  0  0  0  0  0  0
  180.4280  181.2540  135.8630 C   0  0  0  0  0  1  0  0  0  0  0  0
  180.5690  179.8860  136.2190 O   0  0  0  0  0  0  0  0  0  0  0  0
  1  6  1  0  0  0  0
  2 11  2  0  0  0  0
  2 12  1  0  0  0  0
  3 10  1  0  0  0  0
  4  8  2  0  0  0  0
  5  1  2  0  0  0  0
  7  9  2  0  0  0  0
  7  4  1  0  0  0  0
  8  1  1  0  0  0  0
  9  5  1  0  0  0  0
 10 11  1  0  0  0  0
 11  7  1  0  0  0  0
 12 15  2  0  0  0  0
 13 35  1  6  0  0  0
 13  2  1  0  0  0  0
 14  3  2  0  0  0  0
 14 13  1  0  0  0  0
 15  4  1  0  0  0  0
 16 17  1  6  0  0  0
 16 18  1  0  0  0  0
 16  3  1  0  0  0  0
 18 19  1  0  0  0  0
 19 20  1  0  0  0  0
 21 19  1  0  0  0  0
 22 21  1  6  0  0  0
 23 26  1  0  0  0  0
 23 25  1  0  0  0  0
 24 22  1  0  0  0  0
 25 28  1  1  0  0  0
 25 22  1  0  0  0  0
 26 24  2  0  0  0  0
 27 33  1  0  0  0  0
 27 28  1  0  0  0  0
 28 34  2  0  0  0  0
 29 33  1  0  0  0  0
 30 32  1  0  0  0  0
 31 30  1  0  0  0  0
 31 29  1  0  0  0  0
 32 27  1  0  0  0  0
 36 39  1  0  0  0  0
 37 36  2  0  0  0  0
 37 41  1  0  0  0  0
 38 40  1  0  0  0  0
 39 40  2  0  0  0  0
 40 35  1  0  0  0  0
 41 38  2  0  0  0  0
 42 43  1  0  0  0  0
 43 37  1  0  0  0  0
M  END
>  <MODEL>
6

>  <REMARK>
 VINA RESULT:      -8.5      2.676      6.935
  Name = 
  9 active torsions:
  status: ('A' for Active; 'I' for Inactive)
    1  A    between atoms: C_1  and  C_34
    2  A    between atoms: C_1  and  C_35
    3  A    between atoms: C_2  and  C_6
    4  A    between atoms: C_2  and  C_13
    5  A    between atoms: C_3  and  C_4
    6  A    between atoms: C_3  and  N_12
    7  A    between atoms: C_6  and  N_12
    8  A    between atoms: C_14  and  C_22
    9  A    between atoms: C_19  and  O_37
                            x       y       z     vdW  Elec       q    Type
                         _______ _______ _______ _____ _____    ______ ____

>  <TORSDO>
F 9

$$$$
=
 OpenBabel10272414053D

 43 48  0  0  1  0  0  0  0  0999 V2000
  187.8390  177.7350  147.3830 C   0  0  0  0  0  0  0  0  0  0  0  0
  188.3500  177.3780  142.3930 C   0  0  0  0  0  0  0  0  0  0  0  0
  186.0130  178.4520  141.2490 C   0  0  0  0  0  0  0  0  0  0  0  0
  188.6440  177.2530  145.1520 C   0  0  0  0  0  0  0  0  0  0  0  0
  186.7070  178.3550  146.8420 C   0  0  0  0  0  3  0  0  0  0  0  0
  188.0110  177.6600  148.8560 C   0  0  0  0  0  1  0  0  0  0  0  0
  187.5050  177.8800  144.6020 C   0  0  0  0  0  0  0  0  0  0  0  0
  188.8070  177.1820  146.5380 C   0  0  0  0  0  3  0  0  0  0  0  0
  186.5390  178.4270  145.4560 C   0  0  0  0  0  3  0  0  0  0  0  0
  186.2270  178.5140  142.6290 O   0  0  0  0  0  0  0  0  0  0  0  0
  187.3560  177.9350  143.2110 C   0  0  0  0  0  0  0  0  0  0  0  0
  189.4380  176.7810  142.9510 N   0  0  0  0  0  0  0  0  0  0  0  0
  188.2420  177.4950  140.8960 C   0  0  1  0  0  3  0  0  0  0  0  0
  186.9160  177.9530  140.4580 N   0  0  0  0  0  0  0  0  0  0  0  0
  189.6020  176.7040  144.2990 C   0  0  0  0  0  3  0  0  0  0  0  0
  184.7370  178.9590  140.6680 C   0  0  1  0  0  3  0  0  0  0  0  0
  184.8460  179.0420  139.1560 C   0  0  0  0  0  1  0  0  0  0  0  0
  183.5940  178.0390  141.0680 C   0  0  0  0  0  2  0  0  0  0  0  0
  182.7070  177.8020  139.9340 N   0  0  0  0  0  0  0  0  0  0  0  0
  181.3790  178.2960  140.2750 C   0  0  0  0  0  1  0  0  0  0  0  0
  182.6370  176.3650  139.6420 C   0  0  0  0  0  2  0  0  0  0  0  0
  182.4640  176.0390  138.1540 C   0  0  2  0  0  3  0  0  0  0  0  0
  183.4630  174.1980  136.9360 C   0  0  0  0  0  2  0  0  0  0  0  0
  181.5500  174.9440  137.9860 N   0  0  0  0  0  0  0  0  0  0  0  0
  183.7860  175.5420  137.5810 C   0  0  1  0  0  3  0  0  0  0  0  0
  182.0550  173.9630  137.3460 C   0  0  0  0  0  3  0  0  0  0  0  0
  185.7490  176.6850  136.4230 N   0  0  0  0  0  0  0  0  0  0  0  0
  184.3310  176.5100  136.5730 C   0  0  0  0  0  0  0  0  0  0  0  0
  188.0760  177.5700  135.2600 S   0  0  0  0  0  0  0  0  0  0  0  0
  187.6280  175.0790  136.4210 C   0  0  0  0  0  2  0  0  0  0  0  0
  188.0520  175.7520  135.1130 C   0  0  0  0  0  2  0  0  0  0  0  0
  186.6750  175.9280  137.2650 C   0  0  0  0  0  2  0  0  0  0  0  0
  186.2560  177.6480  135.4390 C   0  0  0  0  0  2  0  0  0  0  0  0
  183.5340  177.1800  135.8600 O   0  0  0  0  0  0  0  0  0  0  0  0
  189.3120  178.4540  140.3850 C   0  0  0  0  0  2  0  0  0  0  0  0
  192.6420  176.9210  139.4300 C   0  0  0  0  0  3  0  0  0  0  0  0
  192.3600  176.3930  138.1650 C   0  0  0  0  0  0  0  0  0  0  0  0
  190.0770  177.2050  138.3520 C   0  0  0  0  0  3  0  0  0  0  0  0
  191.6490  177.5880  140.1540 C   0  0  0  0  0  3  0  0  0  0  0  0
  190.3650  177.7270  139.6170 C   0  0  0  0  0  0  0  0  0  0  0  0
  191.0700  176.5390  137.6280 C   0  0  0  0  0  3  0  0  0  0  0  0
  194.2650  174.8170  138.0890 C   0  0  0  0  0  1  0  0  0  0  0  0
  193.3740  175.7320  137.4670 O   0  0  0  0  0  0  0  0  0  0  0  0
  1  6  1  0  0  0  0
  2 12  2  0  0  0  0
  2 11  1  0  0  0  0
  3 10  1  0  0  0  0
  4  8  1  0  0  0  0
  5  1  1  0  0  0  0
  7  4  1  0  0  0  0
  7  9  1  0  0  0  0
  8  1  2  0  0  0  0
  9  5  2  0  0  0  0
 10 11  1  0  0  0  0
 11  7  2  0  0  0  0
 12 15  1  0  0  0  0
 13 35  1  1  0  0  0
 13  2  1  0  0  0  0
 14 13  1  0  0  0  0
 14  3  2  0  0  0  0
 15  4  2  0  0  0  0
 16 17  1  6  0  0  0
 16 18  1  0  0  0  0
 16  3  1  0  0  0  0
 19 20  1  0  0  0  0
 19 18  1  0  0  0  0
 21 19  1  0  0  0  0
 22 21  1  1  0  0  0
 23 26  1  0  0  0  0
 23 25  1  0  0  0  0
 24 22  1  0  0  0  0
 25 28  1  6  0  0  0
 25 22  1  0  0  0  0
 26 24  2  0  0  0  0
 27 28  1  0  0  0  0
 27 32  1  0  0  0  0
 29 33  1  0  0  0  0
 30 32  1  0  0  0  0
 31 29  1  0  0  0  0
 31 30  1  0  0  0  0
 33 27  1  0  0  0  0
 34 28  2  0  0  0  0
 36 39  1  0  0  0  0
 37 36  2  0  0  0  0
 38 40  1  0  0  0  0
 40 39  2  0  0  0  0
 40 35  1  0  0  0  0
 41 37  1  0  0  0  0
 41 38  2  0  0  0  0
 43 42  1  0  0  0  0
 43 37  1  0  0  0  0
M  END
>  <MODEL>
7

>  <REMARK>
 VINA RESULT:      -8.5      2.132      3.758
  Name = 
  9 active torsions:
  status: ('A' for Active; 'I' for Inactive)
    1  A    between atoms: C_1  and  C_34
    2  A    between atoms: C_1  and  C_35
    3  A    between atoms: C_2  and  C_6
    4  A    between atoms: C_2  and  C_13
    5  A    between atoms: C_3  and  C_4
    6  A    between atoms: C_3  and  N_12
    7  A    between atoms: C_6  and  N_12
    8  A    between atoms: C_14  and  C_22
    9  A    between atoms: C_19  and  O_37
                            x       y       z     vdW  Elec       q    Type
                         _______ _______ _______ _____ _____    ______ ____

>  <TORSDO>
F 9

$$$$
=
 OpenBabel10272414053D

 43 48  0  0  1  0  0  0  0  0999 V2000
  184.2710  178.7930  143.8270 C   0  0  0  0  0  0  0  0  0  0  0  0
  188.7880  176.8600  142.7510 C   0  0  0  0  0  0  0  0  0  0  0  0
  189.2770  177.3820  140.0280 C   0  0  0  0  0  0  0  0  0  0  0  0
  186.4040  177.6540  143.9360 C   0  0  0  0  0  0  0  0  0  0  0  0
  184.5250  179.1440  142.4960 C   0  0  0  0  0  3  0  0  0  0  0  0
  183.0010  179.2100  144.4750 C   0  0  0  0  0  1  0  0  0  0  0  0
  186.6650  178.0090  142.5940 C   0  0  0  0  0  0  0  0  0  0  0  0
  185.2100  178.0460  144.5460 C   0  0  0  0  0  3  0  0  0  0  0  0
  185.7180  178.7530  141.8800 C   0  0  0  0  0  3  0  0  0  0  0  0
  188.1440  177.9000  140.6640 O   0  0  0  0  0  0  0  0  0  0  0  0
  187.8650  177.6010  141.9980 C   0  0  0  0  0  0  0  0  0  0  0  0
  188.5090  176.5340  144.0430 N   0  0  0  0  0  0  0  0  0  0  0  0
  190.1130  176.4790  142.1480 C   0  0  1  0  0  3  0  0  0  0  0  0
  190.1600  176.7010  140.6970 N   0  0  0  0  0  0  0  0  0  0  0  0
  187.3480  176.9080  144.6430 C   0  0  0  0  0  3  0  0  0  0  0  0
  189.4820  177.6060  138.5690 C   0  0  1  0  0  3  0  0  0  0  0  0
  190.7560  176.9190  138.1080 C   0  0  0  0  0  1  0  0  0  0  0  0
  188.2840  177.0750  137.7980 C   0  0  0  0  0  2  0  0  0  0  0  0
  188.2930  177.5780  136.4290 N   0  0  0  0  0  0  0  0  0  0  0  0
  187.4690  178.7790  136.3710 C   0  0  0  0  0  1  0  0  0  0  0  0
  187.7480  176.5630  135.5170 C   0  0  0  0  0  2  0  0  0  0  0  0
  187.4810  175.2080  136.1820 C   0  0  2  0  0  3  0  0  0  0  0  0
  186.3570  173.2980  135.2020 C   0  0  0  0  0  2  0  0  0  0  0  0
  188.4100  174.2240  135.7000 N   0  0  0  0  0  0  0  0  0  0  0  0
  186.1080  174.6930  135.7630 C   0  0  1  0  0  3  0  0  0  0  0  0
  187.8400  173.2070  135.1800 C   0  0  0  0  0  3  0  0  0  0  0  0
  184.2490  175.7230  137.1720 N   0  0  0  0  0  0  0  0  0  0  0  0
  185.1730  174.6480  136.9350 C   0  0  0  0  0  0  0  0  0  0  0  0
  182.1220  177.0150  138.3370 S   0  0  0  0  0  0  0  0  0  0  0  0
  182.8410  177.0670  135.6480 C   0  0  0  0  0  2  0  0  0  0  0  0
  181.6870  176.7190  136.5920 C   0  0  0  0  0  2  0  0  0  0  0  0
  184.2230  176.8800  136.2770 C   0  0  0  0  0  2  0  0  0  0  0  0
  183.3540  175.6600  138.3330 C   0  0  0  0  0  2  0  0  0  0  0  0
  185.2070  173.6610  137.7200 O   0  0  0  0  0  0  0  0  0  0  0  0
  191.2240  177.2740  142.8260 C   0  0  0  0  0  2  0  0  0  0  0  0
  191.5840  177.1010  146.5940 C   0  0  0  0  0  3  0  0  0  0  0  0
  192.0510  175.7940  146.7760 C   0  0  0  0  0  0  0  0  0  0  0  0
  191.9700  175.4480  144.3710 C   0  0  0  0  0  3  0  0  0  0  0  0
  191.3110  177.5810  145.3090 C   0  0  0  0  0  3  0  0  0  0  0  0
  191.5000  176.7530  144.1970 C   0  0  0  0  0  0  0  0  0  0  0  0
  192.2430  174.9680  145.6550 C   0  0  0  0  0  3  0  0  0  0  0  0
  193.1090  176.0780  148.9930 C   0  0  0  0  0  1  0  0  0  0  0  0
  192.3140  175.3450  148.0720 O   0  0  0  0  0  0  0  0  0  0  0  0
  1  6  1  0  0  0  0
  1  8  1  0  0  0  0
  2 12  1  0  0  0  0
  3 10  1  0  0  0  0
  3 14  2  0  0  0  0
  4  8  2  0  0  0  0
  4 15  1  0  0  0  0
  5  1  2  0  0  0  0
  7  4  1  0  0  0  0
  9  5  1  0  0  0  0
  9  7  2  0  0  0  0
 10 11  1  0  0  0  0
 11  7  1  0  0  0  0
 11  2  2  0  0  0  0
 12 15  2  0  0  0  0
 13  2  1  0  0  0  0
 13 35  1  1  0  0  0
 14 13  1  0  0  0  0
 16 17  1  6  0  0  0
 16  3  1  0  0  0  0
 18 16  1  0  0  0  0
 19 18  1  0  0  0  0
 20 19  1  0  0  0  0
 21 19  1  0  0  0  0
 22 21  1  6  0  0  0
 23 25  1  0  0  0  0
 24 22  1  0  0  0  0
 25 22  1  0  0  0  0
 25 28  1  1  0  0  0
 26 23  1  0  0  0  0
 26 24  2  0  0  0  0
 27 33  1  0  0  0  0
 28 27  1  0  0  0  0
 28 34  2  0  0  0  0
 30 32  1  0  0  0  0
 30 31  1  0  0  0  0
 31 29  1  0  0  0  0
 32 27  1  0  0  0  0
 33 29  1  0  0  0  0
 35 40  1  0  0  0  0
 36 37  1  0  0  0  0
 37 43  1  0  0  0  0
 38 41  1  0  0  0  0
 39 36  2  0  0  0  0
 40 38  2  0  0  0  0
 40 39  1  0  0  0  0
 41 37  2  0  0  0  0
 43 42  1  0  0  0  0
M  END
>  <MODEL>
8

>  <REMARK>
 VINA RESULT:      -8.5      2.449      7.089
  Name = 
  9 active torsions:
  status: ('A' for Active; 'I' for Inactive)
    1  A    between atoms: C_1  and  C_34
    2  A    between atoms: C_1  and  C_35
    3  A    between atoms: C_2  and  C_6
    4  A    between atoms: C_2  and  C_13
    5  A    between atoms: C_3  and  C_4
    6  A    between atoms: C_3  and  N_12
    7  A    between atoms: C_6  and  N_12
    8  A    between atoms: C_14  and  C_22
    9  A    between atoms: C_19  and  O_37
                            x       y       z     vdW  Elec       q    Type
                         _______ _______ _______ _____ _____    ______ ____

>  <TORSDO>
F 9

$$$$
=
 OpenBabel10272414053D

 43 48  0  0  1  0  0  0  0  0999 V2000
  185.3390  178.5440  145.7410 C   0  0  0  0  0  0  0  0  0  0  0  0
  182.2460  178.7180  141.7800 C   0  0  0  0  0  0  0  0  0  0  0  0
  183.7640  178.0020  139.5200 C   0  0  0  0  0  0  0  0  0  0  0  0
  183.4260  178.8500  144.2920 C   0  0  0  0  0  0  0  0  0  0  0  0
  186.0960  178.0990  144.6520 C   0  0  0  0  0  3  0  0  0  0  0  0
  185.9560  178.6200  147.0910 C   0  0  0  0  0  1  0  0  0  0  0  0
  184.1850  178.3990  143.1900 C   0  0  0  0  0  0  0  0  0  0  0  0
  184.0050  178.9210  145.5610 C   0  0  0  0  0  3  0  0  0  0  0  0
  185.5220  178.0270  143.3790 C   0  0  0  0  0  3  0  0  0  0  0  0
  184.3160  177.9340  140.8030 O   0  0  0  0  0  0  0  0  0  0  0  0
  183.5890  178.3400  141.9240 C   0  0  0  0  0  0  0  0  0  0  0  0
  181.5390  179.1480  142.8610 N   0  0  0  0  0  0  0  0  0  0  0  0
  181.5700  178.5900  140.4420 C   0  0  1  0  0  3  0  0  0  0  0  0
  182.5200  178.3370  139.3500 N   0  0  0  0  0  0  0  0  0  0  0  0
  182.0960  179.2250  144.0990 C   0  0  0  0  0  3  0  0  0  0  0  0
  184.6050  177.6900  138.3290 C   0  0  1  0  0  3  0  0  0  0  0  0
  183.7340  177.1800  137.1940 C   0  0  0  0  0  1  0  0  0  0  0  0
  185.3620  178.9360  137.8990 C   0  0  0  0  0  2  0  0  0  0  0  0
  186.7740  178.6320  137.6960 N   0  0  0  0  0  0  0  0  0  0  0  0
  186.9220  177.9570  136.4130 C   0  0  0  0  0  1  0  0  0  0  0  0
  187.2600  177.7590  138.7710 C   0  0  0  0  0  2  0  0  0  0  0  0
  188.6070  178.1910  139.3640 C   0  0  2  0  0  3  0  0  0  0  0  0
  190.3760  176.7480  140.1750 C   0  0  0  0  0  2  0  0  0  0  0  0
  189.6540  178.0250  138.3950 N   0  0  0  0  0  0  0  0  0  0  0  0
  188.9820  177.2640  140.5140 C   0  0  1  0  0  3  0  0  0  0  0  0
  190.5980  177.2690  138.8020 C   0  0  0  0  0  3  0  0  0  0  0  0
  189.3920  177.3460  143.0300 N   0  0  0  0  0  0  0  0  0  0  0  0
  188.9790  178.0030  141.8200 C   0  0  0  0  0  0  0  0  0  0  0  0
  190.1220  177.1430  145.6710 S   0  0  0  0  0  0  0  0  0  0  0  0
  191.2340  175.7720  143.5180 C   0  0  0  0  0  2  0  0  0  0  0  0
  191.5850  176.7180  144.6690 C   0  0  0  0  0  2  0  0  0  0  0  0
  189.8050  175.9430  142.9990 C   0  0  0  0  0  2  0  0  0  0  0  0
  189.3680  178.0870  144.2960 C   0  0  0  0  0  2  0  0  0  0  0  0
  188.6040  179.2060  141.8520 O   0  0  0  0  0  0  0  0  0  0  0  0
  180.5420  177.4650  140.5000 C   0  0  0  0  0  2  0  0  0  0  0  0
  180.0000  176.3500  136.9210 C   0  0  0  0  0  3  0  0  0  0  0  0
  180.5960  175.0840  136.9230 C   0  0  0  0  0  0  0  0  0  0  0  0
  181.1670  175.3750  139.2680 C   0  0  0  0  0  3  0  0  0  0  0  0
  179.9870  177.1260  138.0840 C   0  0  0  0  0  3  0  0  0  0  0  0
  180.5730  176.6410  139.2570 C   0  0  0  0  0  0  0  0  0  0  0  0
  181.1800  174.5990  138.1060 C   0  0  0  0  0  3  0  0  0  0  0  0
  181.6400  173.4350  135.4040 C   0  0  0  0  0  1  0  0  0  0  0  0
  180.5930  174.3320  135.7450 O   0  0  0  0  0  0  0  0  0  0  0  0
  1  6  1  0  0  0  0
  2 11  2  0  0  0  0
  2 12  1  0  0  0  0
  3 10  1  0  0  0  0
  4  8  2  0  0  0  0
  5  1  2  0  0  0  0
  7  9  2  0  0  0  0
  7  4  1  0  0  0  0
  8  1  1  0  0  0  0
  9  5  1  0  0  0  0
 10 11  1  0  0  0  0
 11  7  1  0  0  0  0
 12 15  2  0  0  0  0
 13 35  1  1  0  0  0
 13  2  1  0  0  0  0
 14  3  2  0  0  0  0
 14 13  1  0  0  0  0
 15  4  1  0  0  0  0
 16 17  1  6  0  0  0
 16  3  1  0  0  0  0
 18 16  1  0  0  0  0
 19 18  1  0  0  0  0
 19 21  1  0  0  0  0
 20 19  1  0  0  0  0
 22 21  1  6  0  0  0
 22 25  1  0  0  0  0
 23 25  1  0  0  0  0
 24 26  2  0  0  0  0
 24 22  1  0  0  0  0
 25 28  1  1  0  0  0
 26 23  1  0  0  0  0
 27 33  1  0  0  0  0
 28 34  2  0  0  0  0
 28 27  1  0  0  0  0
 30 31  1  0  0  0  0
 31 29  1  0  0  0  0
 32 27  1  0  0  0  0
 32 30  1  0  0  0  0
 33 29  1  0  0  0  0
 36 37  2  0  0  0  0
 36 39  1  0  0  0  0
 37 41  1  0  0  0  0
 39 40  2  0  0  0  0
 40 38  1  0  0  0  0
 40 35  1  0  0  0  0
 41 38  2  0  0  0  0
 42 43  1  0  0  0  0
 43 37  1  0  0  0  0
M  END
>  <MODEL>
9

>  <REMARK>
 VINA RESULT:      -8.4      2.660      7.931
  Name = 
  9 active torsions:
  status: ('A' for Active; 'I' for Inactive)
    1  A    between atoms: C_1  and  C_34
    2  A    between atoms: C_1  and  C_35
    3  A    between atoms: C_2  and  C_6
    4  A    between atoms: C_2  and  C_13
    5  A    between atoms: C_3  and  C_4
    6  A    between atoms: C_3  and  N_12
    7  A    between atoms: C_6  and  N_12
    8  A    between atoms: C_14  and  C_22
    9  A    between atoms: C_19  and  O_37
                            x       y       z     vdW  Elec       q    Type
                         _______ _______ _______ _____ _____    ______ ____

>  <TORSDO>
F 9

$$$$
