=
 OpenBabel10272401303D

 55 59  0  0  1  0  0  0  0  0999 V2000
  192.4310  175.2700  137.8830 N   0  0  0  0  0  0  0  0  0  0  0  0
  196.5090  174.3390  137.0980 C   0  0  0  0  0  3  0  0  0  0  0  0
  193.8160  174.9540  137.6180 C   0  0  0  0  0  0  0  0  0  0  0  0
  194.5240  174.0730  138.4540 C   0  0  0  0  0  3  0  0  0  0  0  0
  195.8170  175.2150  136.2590 C   0  0  0  0  0  3  0  0  0  0  0  0
  195.8650  173.7670  138.1960 C   0  0  0  0  0  3  0  0  0  0  0  0
  194.4780  175.5230  136.5180 C   0  0  0  0  0  3  0  0  0  0  0  0
  191.3990  174.2380  137.7860 C   0  0  0  0  0  2  0  0  0  0  0  0
  191.5870  173.3830  136.5420 C   0  0  0  0  0  2  0  0  0  0  0  0
  192.0060  174.5740  134.3660 C   0  0  0  0  0  1  0  0  0  0  0  0
  189.2050  175.0400  134.3460 O   0  0  0  0  0  0  0  0  0  0  0  0
  189.6580  174.1750  135.1470 C   0  0  0  0  0  0  0  0  0  0  0  0
  191.0720  174.0630  135.3610 N   0  0  0  0  0  0  0  0  0  0  0  0
  188.7170  173.2450  135.8670 C   0  0  1  0  0  3  0  0  0  0  0  0
  185.0070  177.2070  138.2320 O   0  0  0  0  0  1  0  0  0  0  0  0
  182.0120  176.9410  135.6700 C   0  0  0  0  0  0  0  0  0  0  0  0
  184.5380  174.5310  137.0270 C   0  0  0  0  0  2  0  0  0  0  0  0
  181.9180  178.2390  135.1680 O   0  0  0  0  0  0  0  0  0  0  0  0
  186.4070  173.3210  134.9770 C   0  0  0  0  0  1  0  0  0  0  0  0
  183.4740  174.9270  136.0050 C   0  0  0  0  0  2  0  0  0  0  0  0
  187.0310  174.8880  136.8440 C   0  0  0  0  0  0  0  0  0  0  0  0
  185.4870  176.8480  136.9690 C   0  0  2  0  0  3  0  0  0  0  0  0
  187.9360  175.4470  137.5240 O   0  0  0  0  0  0  0  0  0  0  0  0
  184.4750  177.2430  135.8980 C   0  0  0  0  0  2  0  0  0  0  0  0
  180.9590  176.2650  135.8350 O   0  0  0  0  0  1  0  0  0  0  0  0
  183.2960  176.3810  135.9740 N   0  0  0  0  0  0  0  0  0  0  0  0
  187.3580  173.7790  135.9780 N   0  0  0  0  0  0  0  0  0  0  0  0
  185.6980  175.4080  136.9050 N   0  0  0  0  0  0  0  0  0  0  0  0
  187.6990  170.9100  135.7470 C   0  0  0  0  0  3  0  0  0  0  0  0
  187.7760  169.5660  135.3610 C   0  0  0  0  0  3  0  0  0  0  0  0
  189.8630  171.3220  134.7350 C   0  0  0  0  0  3  0  0  0  0  0  0
  189.9380  169.9800  134.3460 C   0  0  0  0  0  3  0  0  0  0  0  0
  188.8950  169.0990  134.6630 C   0  0  0  0  0  3  0  0  0  0  0  0
  188.7430  171.7990  135.4340 C   0  0  0  0  0  0  0  0  0  0  0  0
  192.0280  176.6300  138.2410 C   0  0  0  0  0  2  0  0  0  0  0  0
  190.8570  176.6020  139.2200 C   0  0  0  0  0  2  0  0  0  0  0  0
  191.2170  177.2970  140.5300 C   0  0  0  0  0  2  0  0  0  0  0  0
  190.5840  176.5950  141.7310 C   0  0  0  0  0  2  0  0  0  0  0  0
  186.7980  177.2100  144.6960 C   0  0  1  0  0  3  0  0  0  0  0  0
  189.4280  177.3550  142.4050 C   0  0  2  0  0  0  0  0  0  0  0  0
  189.1890  178.1030  144.7550 C   0  0  0  0  0  2  0  0  0  0  0  0
  187.3770  178.8380  141.9050 C   0  0  0  0  0  2  0  0  0  0  0  0
  188.5270  178.0060  141.3380 C   0  0  0  0  0  2  0  0  0  0  0  0
  189.8820  178.4120  143.4380 C   0  0  1  0  0  3  0  0  0  0  0  0
  188.2950  176.8920  144.5330 C   0  0  2  0  0  3  0  0  0  0  0  0
  186.5170  177.4980  146.1660 C   0  0  0  0  0  1  0  0  0  0  0  0
  191.3850  178.5110  143.6800 C   0  0  0  0  0  1  0  0  0  0  0  0
  188.6250  176.3130  143.1720 C   0  0  0  0  0  2  0  0  0  0  0  0
  186.4060  177.9970  142.4540 O   0  0  0  0  0  0  0  0  0  0  0  0
  186.3170  178.3640  143.7980 C   0  0  1  0  0  3  0  0  0  0  0  0
  184.8750  178.7610  144.1010 C   0  0  0  0  0  2  0  0  0  0  0  0
  184.1200  178.6820  142.9350 O   0  0  0  0  0  0  0  0  0  0  0  0
  182.7940  178.6640  143.3720 C   0  0  0  0  0  2  0  0  0  0  0  0
  181.7600  178.5270  141.4200 C   0  0  0  0  0  1  0  0  0  0  0  0
  182.0030  179.3980  142.4860 O   0  0  0  0  0  0  0  0  0  0  0  0
  1 35  1  0  0  0  0
  2  6  1  0  0  0  0
  3  1  1  0  0  0  0
  3  4  1  0  0  0  0
  5  7  1  0  0  0  0
  5  2  2  0  0  0  0
  6  4  2  0  0  0  0
  7  3  2  0  0  0  0
  8  1  1  0  0  0  0
  9  8  1  0  0  0  0
 10 13  1  0  0  0  0
 11 12  2  0  0  0  0
 12 13  1  0  0  0  0
 13  9  1  0  0  0  0
 14 12  1  6  0  0  0
 14 27  1  0  0  0  0
 16 25  1  0  0  0  0
 16 26  1  0  0  0  0
 18 16  2  0  0  0  0
 19 27  1  0  0  0  0
 20 17  1  0  0  0  0
 21 28  1  0  0  0  0
 21 23  2  0  0  0  0
 22 15  1  1  0  0  0
 24 26  1  0  0  0  0
 24 22  1  0  0  0  0
 26 20  1  0  0  0  0
 27 21  1  0  0  0  0
 28 22  1  0  0  0  0
 28 17  1  0  0  0  0
 30 29  2  0  0  0  0
 31 34  2  0  0  0  0
 32 33  2  0  0  0  0
 32 31  1  0  0  0  0
 33 30  1  0  0  0  0
 34 29  1  0  0  0  0
 34 14  1  0  0  0  0
 35 36  1  0  0  0  0
 36 37  1  0  0  0  0
 37 38  1  0  0  0  0
 39 46  1  1  0  0  0
 40 38  1  6  0  0  0
 40 48  1  0  0  0  0
 40 44  1  0  0  0  0
 42 49  1  0  0  0  0
 43 42  1  0  0  0  0
 43 40  1  0  0  0  0
 44 47  1  1  0  0  0
 44 41  1  0  0  0  0
 45 48  1  6  0  0  0
 45 39  1  0  0  0  0
 45 41  1  0  0  0  0
 49 50  1  0  0  0  0
 50 51  1  1  0  0  0
 50 39  1  0  0  0  0
 52 53  1  0  0  0  0
 52 51  1  0  0  0  0
 54 55  1  0  0  0  0
 55 53  1  0  0  0  0
M  END
>  <MODEL>
1

>  <REMARK>
 VINA RESULT:      -6.8      0.000      0.000
  Name = 
  16 active torsions:
  status: ('A' for Active; 'I' for Inactive)
    1  A    between atoms: C_3  and  O_25
    2  A    between atoms: C_3  and  O_38
    3  A    between atoms: C_6  and  C_22
    4  A    between atoms: C_8  and  C_43
    5  A    between atoms: C_8  and  C_54
    6  A    between atoms: C_19  and  C_45
    7  A    between atoms: C_22  and  C_43
    8  A    between atoms: C_26  and  C_45
    9  A    between atoms: C_27  and  N_51
   10  A    between atoms: C_29  and  O_38
   11  A    between atoms: C_29  and  C_53
   12  A    between atoms: C_35  and  C_40
   13  A    between atoms: C_35  and  N_51
   14  A    between atoms: N_37  and  C_40
   15  A    between atoms: C_45  and  N_49
   16  A    between atoms: N_51  and  C_54
                            x       y       z     vdW  Elec       q    Type
                         _______ _______ _______ _____ _____    ______ ____

>  <TORSDO>
F 16

$$$$
=
 OpenBabel10272401303D

 55 59  0  0  1  0  0  0  0  0999 V2000
  186.7610  174.2770  136.1560 N   0  0  0  0  0  0  0  0  0  0  0  0
  189.1800  171.1140  134.6550 C   0  0  0  0  0  3  0  0  0  0  0  0
  187.5830  173.2020  135.6480 C   0  0  0  0  0  0  0  0  0  0  0  0
  187.2740  171.8620  135.9410 C   0  0  0  0  0  3  0  0  0  0  0  0
  189.4980  172.4400  134.3560 C   0  0  0  0  0  3  0  0  0  0  0  0
  188.0690  170.8230  135.4480 C   0  0  0  0  0  3  0  0  0  0  0  0
  188.7050  173.4800  134.8510 C   0  0  0  0  0  3  0  0  0  0  0  0
  187.1960  175.6690  136.0340 C   0  0  0  0  0  2  0  0  0  0  0  0
  187.7330  176.1980  137.3560 C   0  0  0  0  0  2  0  0  0  0  0  0
  186.4120  178.3310  137.1780 C   0  0  0  0  0  1  0  0  0  0  0  0
  188.9250  179.6360  137.3890 O   0  0  0  0  0  0  0  0  0  0  0  0
  188.8630  178.4120  137.6950 C   0  0  0  0  0  0  0  0  0  0  0  0
  187.6850  177.6540  137.3910 N   0  0  0  0  0  0  0  0  0  0  0  0
  190.0200  177.7480  138.3950 C   0  0  1  0  0  3  0  0  0  0  0  0
  192.0700  176.9460  143.8920 O   0  0  0  0  0  1  0  0  0  0  0  0
  188.7390  177.4950  145.9420 C   0  0  0  0  0  0  0  0  0  0  0  0
  189.5530  176.0760  142.5720 C   0  0  0  0  0  2  0  0  0  0  0  0
  189.0560  178.5760  146.7640 O   0  0  0  0  0  1  0  0  0  0  0  0
  188.3560  177.5550  140.2190 C   0  0  0  0  0  1  0  0  0  0  0  0
  188.5600  176.6370  143.5880 C   0  0  0  0  0  2  0  0  0  0  0  0
  190.7980  177.3620  140.7910 C   0  0  0  0  0  0  0  0  0  0  0  0
  191.2270  177.8280  143.2080 C   0  0  2  0  0  3  0  0  0  0  0  0
  192.0010  177.5430  140.4540 O   0  0  0  0  0  0  0  0  0  0  0  0
  190.2240  178.4430  144.1790 C   0  0  0  0  0  2  0  0  0  0  0  0
  187.9860  176.5830  146.3830 O   0  0  0  0  0  0  0  0  0  0  0  0
  189.2490  177.4380  144.6040 N   0  0  0  0  0  0  0  0  0  0  0  0
  189.7470  177.4640  139.8060 N   0  0  0  0  0  0  0  0  0  0  0  0
  190.4950  177.1150  142.1690 N   0  0  0  0  0  0  0  0  0  0  0  0
  190.8530  175.3400  138.3030 C   0  0  0  0  0  3  0  0  0  0  0  0
  191.4820  174.2940  137.6170 C   0  0  0  0  0  3  0  0  0  0  0  0
  191.1060  176.7660  136.3580 C   0  0  0  0  0  3  0  0  0  0  0  0
  191.7320  175.7190  135.6720 C   0  0  0  0  0  3  0  0  0  0  0  0
  191.9250  174.4820  136.3020 C   0  0  0  0  0  3  0  0  0  0  0  0
  190.6580  176.5840  137.6760 C   0  0  0  0  0  0  0  0  0  0  0  0
  185.4840  173.9990  136.8130 C   0  0  0  0  0  2  0  0  0  0  0  0
  184.3690  173.8570  135.7810 C   0  0  0  0  0  2  0  0  0  0  0  0
  183.0110  174.1990  136.3870 C   0  0  0  0  0  2  0  0  0  0  0  0
  182.5750  175.6190  136.0220 C   0  0  0  0  0  2  0  0  0  0  0  0
  181.9040  179.4140  138.9630 C   0  0  1  0  0  3  0  0  0  0  0  0
  181.9270  176.4230  137.1620 C   0  0  2  0  0  0  0  0  0  0  0  0
  180.5080  178.4510  137.0530 C   0  0  0  0  0  2  0  0  0  0  0  0
  181.2260  176.2750  139.6400 C   0  0  0  0  0  2  0  0  0  0  0  0
  181.9050  175.5870  138.4560 C   0  0  0  0  0  2  0  0  0  0  0  0
  180.5080  176.9470  136.8400 C   0  0  1  0  0  3  0  0  0  0  0  0
  181.8980  178.8500  137.5310 C   0  0  2  0  0  3  0  0  0  0  0  0
  181.2130  180.7720  138.9560 C   0  0  0  0  0  1  0  0  0  0  0  0
  179.9820  176.6450  135.4410 C   0  0  0  0  0  1  0  0  0  0  0  0
  182.8060  177.6480  137.3710 C   0  0  0  0  0  2  0  0  0  0  0  0
  182.0360  177.3060  140.1210 O   0  0  0  0  0  0  0  0  0  0  0  0
  181.2690  178.4660  139.9950 C   0  0  1  0  0  3  0  0  0  0  0  0
  181.1430  179.1190  141.3690 C   0  0  0  0  0  2  0  0  0  0  0  0
  182.2140  178.7250  142.1670 O   0  0  0  0  0  0  0  0  0  0  0  0
  181.8250  179.0520  143.4680 C   0  0  0  0  0  2  0  0  0  0  0  0
  184.0020  178.6600  143.4890 C   0  0  0  0  0  1  0  0  0  0  0  0
  182.9120  178.8990  144.3300 O   0  0  0  0  0  0  0  0  0  0  0  0
  1 35  1  0  0  0  0
  2  6  1  0  0  0  0
  3  4  1  0  0  0  0
  3  1  1  0  0  0  0
  5  2  2  0  0  0  0
  5  7  1  0  0  0  0
  6  4  2  0  0  0  0
  7  3  2  0  0  0  0
  8  1  1  0  0  0  0
  8  9  1  0  0  0  0
  9 13  1  0  0  0  0
 10 13  1  0  0  0  0
 11 12  2  0  0  0  0
 13 12  1  0  0  0  0
 14 12  1  6  0  0  0
 14 27  1  0  0  0  0
 16 25  2  0  0  0  0
 16 18  1  0  0  0  0
 17 20  1  0  0  0  0
 20 26  1  0  0  0  0
 21 28  1  0  0  0  0
 22 15  1  1  0  0  0
 22 24  1  0  0  0  0
 23 21  2  0  0  0  0
 24 26  1  0  0  0  0
 26 16  1  0  0  0  0
 27 19  1  0  0  0  0
 27 21  1  0  0  0  0
 28 17  1  0  0  0  0
 28 22  1  0  0  0  0
 30 29  2  0  0  0  0
 31 34  2  0  0  0  0
 32 33  2  0  0  0  0
 32 31  1  0  0  0  0
 33 30  1  0  0  0  0
 34 29  1  0  0  0  0
 34 14  1  0  0  0  0
 36 37  1  0  0  0  0
 36 35  1  0  0  0  0
 38 37  1  0  0  0  0
 39 46  1  6  0  0  0
 39 50  1  0  0  0  0
 40 38  1  6  0  0  0
 40 48  1  0  0  0  0
 40 43  1  0  0  0  0
 42 49  1  0  0  0  0
 43 42  1  0  0  0  0
 44 47  1  6  0  0  0
 44 41  1  0  0  0  0
 44 40  1  0  0  0  0
 45 41  1  1  0  0  0
 45 39  1  0  0  0  0
 48 45  1  0  0  0  0
 50 49  1  0  0  0  0
 50 51  1  1  0  0  0
 51 52  1  0  0  0  0
 52 53  1  0  0  0  0
 53 55  1  0  0  0  0
 54 55  1  0  0  0  0
M  END
>  <MODEL>
2

>  <REMARK>
 VINA RESULT:      -6.8      2.605      7.884
  Name = 
  16 active torsions:
  status: ('A' for Active; 'I' for Inactive)
    1  A    between atoms: C_3  and  O_25
    2  A    between atoms: C_3  and  O_38
    3  A    between atoms: C_6  and  C_22
    4  A    between atoms: C_8  and  C_43
    5  A    between atoms: C_8  and  C_54
    6  A    between atoms: C_19  and  C_45
    7  A    between atoms: C_22  and  C_43
    8  A    between atoms: C_26  and  C_45
    9  A    between atoms: C_27  and  N_51
   10  A    between atoms: C_29  and  O_38
   11  A    between atoms: C_29  and  C_53
   12  A    between atoms: C_35  and  C_40
   13  A    between atoms: C_35  and  N_51
   14  A    between atoms: N_37  and  C_40
   15  A    between atoms: C_45  and  N_49
   16  A    between atoms: N_51  and  C_54
                            x       y       z     vdW  Elec       q    Type
                         _______ _______ _______ _____ _____    ______ ____

>  <TORSDO>
F 16

$$$$
=
 OpenBabel10272401303D

 55 59  0  0  1  0  0  0  0  0999 V2000
  189.2380  177.8600  140.3390 N   0  0  0  0  0  0  0  0  0  0  0  0
  190.9220  176.8090  144.1040 C   0  0  0  0  0  3  0  0  0  0  0  0
  189.8110  177.5040  141.6170 C   0  0  0  0  0  0  0  0  0  0  0  0
  190.2080  178.4990  142.5280 C   0  0  0  0  0  3  0  0  0  0  0  0
  190.5330  175.8110  143.2080 C   0  0  0  0  0  3  0  0  0  0  0  0
  190.7620  178.1540  143.7660 C   0  0  0  0  0  3  0  0  0  0  0  0
  189.9810  176.1560  141.9710 C   0  0  0  0  0  3  0  0  0  0  0  0
  189.7900  177.3160  139.0980 C   0  0  0  0  0  2  0  0  0  0  0  0
  188.6920  176.7640  138.2000 C   0  0  0  0  0  2  0  0  0  0  0  0
  188.8980  178.9470  136.9680 C   0  0  0  0  0  1  0  0  0  0  0  0
  187.8860  177.5190  134.7330 O   0  0  0  0  0  0  0  0  0  0  0  0
  188.3030  176.8550  135.7230 C   0  0  0  0  0  0  0  0  0  0  0  0
  188.6080  177.5190  136.9580 N   0  0  0  0  0  0  0  0  0  0  0  0
  188.4980  175.3660  135.6080 C   0  0  1  0  0  3  0  0  0  0  0  0
  194.3840  175.9700  135.4050 O   0  0  0  0  0  1  0  0  0  0  0  0
  195.3730  174.0670  138.7220 C   0  0  0  0  0  0  0  0  0  0  0  0
  192.6560  173.6770  136.1730 C   0  0  0  0  0  2  0  0  0  0  0  0
  196.0280  175.0520  139.4600 O   0  0  0  0  0  1  0  0  0  0  0  0
  189.8380  174.0430  137.2160 C   0  0  0  0  0  1  0  0  0  0  0  0
  193.2590  173.3900  137.5470 C   0  0  0  0  0  2  0  0  0  0  0  0
  191.0410  175.5240  135.5770 C   0  0  0  0  0  0  0  0  0  0  0  0
  193.3540  176.0770  136.3450 C   0  0  2  0  0  3  0  0  0  0  0  0
  190.9940  176.4790  134.7520 O   0  0  0  0  0  0  0  0  0  0  0  0
  193.9020  175.8250  137.7450 C   0  0  0  0  0  2  0  0  0  0  0  0
  195.7730  172.8720  138.7950 O   0  0  0  0  0  0  0  0  0  0  0  0
  194.2460  174.4120  137.9080 N   0  0  0  0  0  0  0  0  0  0  0  0
  189.8190  174.9250  136.0600 N   0  0  0  0  0  0  0  0  0  0  0  0
  192.3170  175.0920  136.0630 N   0  0  0  0  0  0  0  0  0  0  0  0
  187.3730  173.1060  135.9670 C   0  0  0  0  0  3  0  0  0  0  0  0
  186.3000  172.3410  136.4410 C   0  0  0  0  0  3  0  0  0  0  0  0
  186.2980  175.1180  136.7880 C   0  0  0  0  0  3  0  0  0  0  0  0
  185.2270  174.3530  137.2640 C   0  0  0  0  0  3  0  0  0  0  0  0
  185.2250  172.9630  137.0880 C   0  0  0  0  0  3  0  0  0  0  0  0
  187.3800  174.5020  136.1400 C   0  0  0  0  0  0  0  0  0  0  0  0
  188.1040  178.7800  140.2560 C   0  0  0  0  0  2  0  0  0  0  0  0
  187.1360  178.5440  141.4130 C   0  0  0  0  0  2  0  0  0  0  0  0
  185.7100  178.9200  141.0220 C   0  0  0  0  0  2  0  0  0  0  0  0
  184.8650  179.2680  142.2480 C   0  0  0  0  0  2  0  0  0  0  0  0
  186.6720  179.1210  146.7450 C   0  0  1  0  0  3  0  0  0  0  0  0
  185.3170  178.6160  143.5670 C   0  0  2  0  0  0  0  0  0  0  0  0
  184.3140  178.7730  145.8270 C   0  0  0  0  0  2  0  0  0  0  0  0
  186.7570  176.7040  144.5260 C   0  0  0  0  0  2  0  0  0  0  0  0
  186.2920  177.4580  143.2810 C   0  0  0  0  0  2  0  0  0  0  0  0
  184.1540  178.1270  144.4610 C   0  0  1  0  0  3  0  0  0  0  0  0
  185.5750  179.6250  145.7900 C   0  0  2  0  0  3  0  0  0  0  0  0
  186.2180  179.3590  148.1790 C   0  0  0  0  0  1  0  0  0  0  0  0
  182.7460  178.4040  143.9450 C   0  0  0  0  0  1  0  0  0  0  0  0
  186.0410  179.7020  144.3500 C   0  0  0  0  0  2  0  0  0  0  0  0
  187.6450  177.4940  145.2590 O   0  0  0  0  0  0  0  0  0  0  0  0
  187.0520  177.6480  146.5140 C   0  0  1  0  0  3  0  0  0  0  0  0
  188.0190  177.1340  147.5770 C   0  0  0  0  0  2  0  0  0  0  0  0
  189.2840  177.6680  147.3460 O   0  0  0  0  0  0  0  0  0  0  0  0
  190.1520  176.5780  147.4480 C   0  0  0  0  0  2  0  0  0  0  0  0
  192.2550  175.8910  147.5010 C   0  0  0  0  0  1  0  0  0  0  0  0
  191.4630  177.0400  147.5820 O   0  0  0  0  0  0  0  0  0  0  0  0
  1  3  1  0  0  0  0
  3  7  2  0  0  0  0
  3  4  1  0  0  0  0
  4  6  2  0  0  0  0
  5  2  2  0  0  0  0
  6  2  1  0  0  0  0
  7  5  1  0  0  0  0
  8  1  1  0  0  0  0
  9  8  1  0  0  0  0
 11 12  2  0  0  0  0
 12 13  1  0  0  0  0
 13 10  1  0  0  0  0
 13  9  1  0  0  0  0
 14 12  1  1  0  0  0
 14 27  1  0  0  0  0
 14 34  1  0  0  0  0
 16 25  2  0  0  0  0
 16 18  1  0  0  0  0
 17 20  1  0  0  0  0
 20 26  1  0  0  0  0
 21 27  1  0  0  0  0
 21 28  1  0  0  0  0
 22 15  1  6  0  0  0
 22 24  1  0  0  0  0
 23 21  2  0  0  0  0
 24 26  1  0  0  0  0
 26 16  1  0  0  0  0
 27 19  1  0  0  0  0
 28 17  1  0  0  0  0
 28 22  1  0  0  0  0
 29 34  2  0  0  0  0
 29 30  1  0  0  0  0
 30 33  2  0  0  0  0
 31 32  2  0  0  0  0
 33 32  1  0  0  0  0
 34 31  1  0  0  0  0
 35  1  1  0  0  0  0
 35 36  1  0  0  0  0
 37 36  1  0  0  0  0
 37 38  1  0  0  0  0
 39 46  1  1  0  0  0
 40 38  1  6  0  0  0
 40 48  1  0  0  0  0
 40 44  1  0  0  0  0
 42 49  1  0  0  0  0
 43 40  1  0  0  0  0
 43 42  1  0  0  0  0
 44 47  1  6  0  0  0
 44 41  1  0  0  0  0
 45 48  1  6  0  0  0
 45 41  1  0  0  0  0
 45 39  1  0  0  0  0
 49 50  1  0  0  0  0
 50 39  1  0  0  0  0
 50 51  1  1  0  0  0
 52 53  1  0  0  0  0
 52 51  1  0  0  0  0
 53 55  1  0  0  0  0
 54 55  1  0  0  0  0
M  END
>  <MODEL>
3

>  <REMARK>
 VINA RESULT:      -6.6      2.872      7.092
  Name = 
  16 active torsions:
  status: ('A' for Active; 'I' for Inactive)
    1  A    between atoms: C_3  and  O_25
    2  A    between atoms: C_3  and  O_38
    3  A    between atoms: C_6  and  C_22
    4  A    between atoms: C_8  and  C_43
    5  A    between atoms: C_8  and  C_54
    6  A    between atoms: C_19  and  C_45
    7  A    between atoms: C_22  and  C_43
    8  A    between atoms: C_26  and  C_45
    9  A    between atoms: C_27  and  N_51
   10  A    between atoms: C_29  and  O_38
   11  A    between atoms: C_29  and  C_53
   12  A    between atoms: C_35  and  C_40
   13  A    between atoms: C_35  and  N_51
   14  A    between atoms: N_37  and  C_40
   15  A    between atoms: C_45  and  N_49
   16  A    between atoms: N_51  and  C_54
                            x       y       z     vdW  Elec       q    Type
                         _______ _______ _______ _____ _____    ______ ____

>  <TORSDO>
F 16

$$$$
=
 OpenBabel10272401303D

 55 59  0  0  1  0  0  0  0  0999 V2000
  190.1350  174.9960  137.2530 N   0  0  0  0  0  0  0  0  0  0  0  0
  193.8060  174.4270  135.1770 C   0  0  0  0  0  3  0  0  0  0  0  0
  191.3820  174.8030  136.5500 C   0  0  0  0  0  0  0  0  0  0  0  0
  192.3660  173.9350  137.0570 C   0  0  0  0  0  3  0  0  0  0  0  0
  192.8380  175.2920  134.6630 C   0  0  0  0  0  3  0  0  0  0  0  0
  193.5720  173.7480  136.3740 C   0  0  0  0  0  3  0  0  0  0  0  0
  191.6330  175.4800  135.3460 C   0  0  0  0  0  3  0  0  0  0  0  0
  188.8990  174.3900  136.7590 C   0  0  0  0  0  2  0  0  0  0  0  0
  187.6740  175.1210  137.2880 C   0  0  0  0  0  2  0  0  0  0  0  0
  186.1960  173.0880  137.3790 C   0  0  0  0  0  1  0  0  0  0  0  0
  184.6050  174.4400  135.4540 O   0  0  0  0  0  0  0  0  0  0  0  0
  185.4720  175.1080  136.0840 C   0  0  0  0  0  0  0  0  0  0  0  0
  186.4490  174.4380  136.8930 N   0  0  0  0  0  0  0  0  0  0  0  0
  185.4750  176.6130  136.0020 C   0  0  1  0  0  3  0  0  0  0  0  0
  180.0100  177.9250  137.8630 O   0  0  0  0  0  1  0  0  0  0  0  0
  180.7630  178.7330  141.6550 C   0  0  0  0  0  0  0  0  0  0  0  0
  182.6490  179.1610  138.4480 C   0  0  0  0  0  2  0  0  0  0  0  0
  179.9820  177.7970  142.3320 O   0  0  0  0  0  1  0  0  0  0  0  0
  185.2450  177.6180  138.2530 C   0  0  0  0  0  1  0  0  0  0  0  0
  182.5890  179.1110  139.9730 C   0  0  0  0  0  2  0  0  0  0  0  0
  183.1690  177.2510  136.8810 C   0  0  0  0  0  0  0  0  0  0  0  0
  181.1140  177.1870  138.3000 C   0  0  2  0  0  3  0  0  0  0  0  0
  182.6130  176.6840  135.8990 O   0  0  0  0  0  0  0  0  0  0  0  0
  181.0960  177.0790  139.8210 C   0  0  0  0  0  2  0  0  0  0  0  0
  180.9120  179.8850  142.1480 O   0  0  0  0  0  0  0  0  0  0  0  0
  181.4040  178.3750  140.4250 N   0  0  0  0  0  0  0  0  0  0  0  0
  184.6080  177.2410  137.0010 N   0  0  0  0  0  0  0  0  0  0  0  0
  182.3480  177.8450  137.8920 N   0  0  0  0  0  0  0  0  0  0  0  0
  187.6500  177.1190  134.7710 C   0  0  0  0  0  3  0  0  0  0  0  0
  188.9150  177.7170  134.7300 C   0  0  0  0  0  3  0  0  0  0  0  0
  187.2930  178.0320  136.9890 C   0  0  0  0  0  3  0  0  0  0  0  0
  188.5570  178.6330  136.9450 C   0  0  0  0  0  3  0  0  0  0  0  0
  189.3710  178.4720  135.8160 C   0  0  0  0  0  3  0  0  0  0  0  0
  186.8280  177.2750  135.9020 C   0  0  0  0  0  0  0  0  0  0  0  0
  190.0770  175.8110  138.4670 C   0  0  0  0  0  2  0  0  0  0  0  0
  191.4770  176.2560  138.8810 C   0  0  0  0  0  2  0  0  0  0  0  0
  191.4200  177.4920  139.7730 C   0  0  0  0  0  2  0  0  0  0  0  0
  191.2710  177.1150  141.2470 C   0  0  0  0  0  2  0  0  0  0  0  0
  187.2610  176.8040  143.9540 C   0  0  1  0  0  3  0  0  0  0  0  0
  189.9860  177.6170  141.9300 C   0  0  2  0  0  0  0  0  0  0  0  0
  189.5080  177.9550  144.3370 C   0  0  0  0  0  2  0  0  0  0  0  0
  187.7960  178.9060  141.4900 C   0  0  0  0  0  2  0  0  0  0  0  0
  189.0770  178.3160  140.9010 C   0  0  0  0  0  2  0  0  0  0  0  0
  190.2350  178.5460  143.1400 C   0  0  1  0  0  3  0  0  0  0  0  0
  188.7940  176.6960  143.8670 C   0  0  2  0  0  3  0  0  0  0  0  0
  186.8550  176.8230  145.4230 C   0  0  0  0  0  1  0  0  0  0  0  0
  191.6940  178.7850  143.5160 C   0  0  0  0  0  1  0  0  0  0  0  0
  189.2800  176.3810  142.4670 C   0  0  0  0  0  2  0  0  0  0  0  0
  186.9100  177.8800  141.8280 O   0  0  0  0  0  0  0  0  0  0  0  0
  186.6910  178.0190  143.2000 C   0  0  1  0  0  3  0  0  0  0  0  0
  185.1940  178.1900  143.4410 C   0  0  0  0  0  2  0  0  0  0  0  0
  184.9830  179.2810  144.2780 O   0  0  0  0  0  0  0  0  0  0  0  0
  183.6040  179.2910  144.5060 C   0  0  0  0  0  2  0  0  0  0  0  0
  184.6040  178.7300  146.4000 C   0  0  0  0  0  1  0  0  0  0  0  0
  183.3560  179.0540  145.8590 O   0  0  0  0  0  0  0  0  0  0  0  0
  1 35  1  0  0  0  0
  2  6  1  0  0  0  0
  3  4  1  0  0  0  0
  3  1  1  0  0  0  0
  5  2  2  0  0  0  0
  5  7  1  0  0  0  0
  6  4  2  0  0  0  0
  7  3  2  0  0  0  0
  8  1  1  0  0  0  0
  8  9  1  0  0  0  0
 11 12  2  0  0  0  0
 12 13  1  0  0  0  0
 13  9  1  0  0  0  0
 13 10  1  0  0  0  0
 14 12  1  1  0  0  0
 14 27  1  0  0  0  0
 16 25  2  0  0  0  0
 16 18  1  0  0  0  0
 17 20  1  0  0  0  0
 20 26  1  0  0  0  0
 21 27  1  0  0  0  0
 21 28  1  0  0  0  0
 22 15  1  1  0  0  0
 22 24  1  0  0  0  0
 23 21  2  0  0  0  0
 24 26  1  0  0  0  0
 26 16  1  0  0  0  0
 27 19  1  0  0  0  0
 28 22  1  0  0  0  0
 28 17  1  0  0  0  0
 29 34  1  0  0  0  0
 30 29  2  0  0  0  0
 30 33  1  0  0  0  0
 32 31  1  0  0  0  0
 33 32  2  0  0  0  0
 34 14  1  0  0  0  0
 34 31  2  0  0  0  0
 35 36  1  0  0  0  0
 36 37  1  0  0  0  0
 37 38  1  0  0  0  0
 39 46  1  1  0  0  0
 40 38  1  6  0  0  0
 40 48  1  0  0  0  0
 40 44  1  0  0  0  0
 42 49  1  0  0  0  0
 43 42  1  0  0  0  0
 43 40  1  0  0  0  0
 44 47  1  1  0  0  0
 44 41  1  0  0  0  0
 45 48  1  6  0  0  0
 45 39  1  0  0  0  0
 45 41  1  0  0  0  0
 49 50  1  0  0  0  0
 50 51  1  6  0  0  0
 50 39  1  0  0  0  0
 51 52  1  0  0  0  0
 52 53  1  0  0  0  0
 53 55  1  0  0  0  0
 55 54  1  0  0  0  0
M  END
>  <MODEL>
4

>  <REMARK>
 VINA RESULT:      -6.2      2.193      4.451
  Name = 
  16 active torsions:
  status: ('A' for Active; 'I' for Inactive)
    1  A    between atoms: C_3  and  O_25
    2  A    between atoms: C_3  and  O_38
    3  A    between atoms: C_6  and  C_22
    4  A    between atoms: C_8  and  C_43
    5  A    between atoms: C_8  and  C_54
    6  A    between atoms: C_19  and  C_45
    7  A    between atoms: C_22  and  C_43
    8  A    between atoms: C_26  and  C_45
    9  A    between atoms: C_27  and  N_51
   10  A    between atoms: C_29  and  O_38
   11  A    between atoms: C_29  and  C_53
   12  A    between atoms: C_35  and  C_40
   13  A    between atoms: C_35  and  N_51
   14  A    between atoms: N_37  and  C_40
   15  A    between atoms: C_45  and  N_49
   16  A    between atoms: N_51  and  C_54
                            x       y       z     vdW  Elec       q    Type
                         _______ _______ _______ _____ _____    ______ ____

>  <TORSDO>
F 16

$$$$
=
 OpenBabel10272401303D

 55 59  0  0  1  0  0  0  0  0999 V2000
  190.6640  174.7680  137.5350 N   0  0  0  0  0  0  0  0  0  0  0  0
  194.6600  174.8170  136.0740 C   0  0  0  0  0  3  0  0  0  0  0  0
  192.0210  174.7840  137.0400 C   0  0  0  0  0  0  0  0  0  0  0  0
  192.9220  173.7600  137.3810 C   0  0  0  0  0  3  0  0  0  0  0  0
  193.7760  175.8400  135.7270 C   0  0  0  0  0  3  0  0  0  0  0  0
  194.2360  173.7760  136.9010 C   0  0  0  0  0  3  0  0  0  0  0  0
  192.4630  175.8250  136.2090 C   0  0  0  0  0  3  0  0  0  0  0  0
  189.7770  173.6410  137.2440 C   0  0  0  0  0  2  0  0  0  0  0  0
  188.3490  174.1080  137.0040 C   0  0  0  0  0  2  0  0  0  0  0  0
  187.5320  171.7340  136.8530 C   0  0  0  0  0  1  0  0  0  0  0  0
  186.4470  172.5080  134.3460 O   0  0  0  0  0  0  0  0  0  0  0  0
  186.8190  173.4180  135.1390 C   0  0  0  0  0  0  0  0  0  0  0  0
  187.5780  173.0850  136.3100 N   0  0  0  0  0  0  0  0  0  0  0  0
  186.4530  174.8540  134.8680 C   0  0  1  0  0  3  0  0  0  0  0  0
  180.6640  174.7440  136.1050 O   0  0  0  0  0  1  0  0  0  0  0  0
  180.7280  176.2150  139.7700 C   0  0  0  0  0  0  0  0  0  0  0  0
  182.7710  176.7600  136.6780 C   0  0  0  0  0  2  0  0  0  0  0  0
  180.1660  175.1880  140.5260 O   0  0  0  0  0  1  0  0  0  0  0  0
  185.6990  176.0290  136.9130 C   0  0  0  0  0  1  0  0  0  0  0  0
  182.5550  176.8900  138.1840 C   0  0  0  0  0  2  0  0  0  0  0  0
  183.9770  174.8990  135.4690 C   0  0  0  0  0  0  0  0  0  0  0  0
  181.8730  174.4220  136.7300 C   0  0  2  0  0  3  0  0  0  0  0  0
  183.7150  174.0740  134.5500 O   0  0  0  0  0  0  0  0  0  0  0  0
  181.7130  174.5100  138.2440 C   0  0  0  0  0  2  0  0  0  0  0  0
  180.4940  177.4150  140.0870 O   0  0  0  0  0  0  0  0  0  0  0  0
  181.5780  175.9060  138.6590 N   0  0  0  0  0  0  0  0  0  0  0  0
  185.3380  175.3250  135.6930 N   0  0  0  0  0  0  0  0  0  0  0  0
  182.9130  175.3540  136.3140 N   0  0  0  0  0  0  0  0  0  0  0  0
  188.8720  175.4690  134.3460 C   0  0  0  0  0  3  0  0  0  0  0  0
  189.9190  176.3970  134.3470 C   0  0  0  0  0  3  0  0  0  0  0  0
  187.3910  177.1430  135.2860 C   0  0  0  0  0  3  0  0  0  0  0  0
  188.4380  178.0720  135.2830 C   0  0  0  0  0  3  0  0  0  0  0  0
  189.7050  177.6980  134.8160 C   0  0  0  0  0  3  0  0  0  0  0  0
  187.5980  175.8370  134.8150 C   0  0  0  0  0  0  0  0  0  0  0  0
  190.1410  175.8820  138.3260 C   0  0  0  0  0  2  0  0  0  0  0  0
  191.2350  176.4670  139.2170 C   0  0  0  0  0  2  0  0  0  0  0  0
  190.6440  177.3850  140.2820 C   0  0  0  0  0  2  0  0  0  0  0  0
  190.1950  176.5990  141.5150 C   0  0  0  0  0  2  0  0  0  0  0  0
  187.1850  177.1200  145.2800 C   0  0  1  0  0  3  0  0  0  0  0  0
  189.1730  177.3140  142.4170 C   0  0  2  0  0  0  0  0  0  0  0  0
  189.4400  178.1810  144.7220 C   0  0  0  0  0  2  0  0  0  0  0  0
  186.9470  178.6160  142.3680 C   0  0  0  0  0  2  0  0  0  0  0  0
  187.9940  177.8360  141.5730 C   0  0  0  0  0  2  0  0  0  0  0  0
  189.7710  178.4600  143.2650 C   0  0  1  0  0  3  0  0  0  0  0  0
  188.6210  176.8990  144.7720 C   0  0  2  0  0  3  0  0  0  0  0  0
  187.2390  177.4740  146.7610 C   0  0  0  0  0  1  0  0  0  0  0  0
  191.2750  178.6790  143.1330 C   0  0  0  0  0  1  0  0  0  0  0  0
  188.6650  176.2660  143.3960 C   0  0  0  0  0  2  0  0  0  0  0  0
  186.2070  177.7430  143.1680 O   0  0  0  0  0  0  0  0  0  0  0  0
  186.4110  178.1820  144.4780 C   0  0  1  0  0  3  0  0  0  0  0  0
  185.0550  178.4940  145.1040 C   0  0  0  0  0  2  0  0  0  0  0  0
  184.6060  179.7280  144.6430 O   0  0  0  0  0  0  0  0  0  0  0  0
  183.2520  179.5310  144.3640 C   0  0  0  0  0  2  0  0  0  0  0  0
  181.8180  179.1520  142.7210 C   0  0  0  0  0  1  0  0  0  0  0  0
  183.1210  178.8700  143.1420 O   0  0  0  0  0  0  0  0  0  0  0  0
  1 35  1  0  0  0  0
  2  6  1  0  0  0  0
  3  4  1  0  0  0  0
  3  1  1  0  0  0  0
  5  2  2  0  0  0  0
  5  7  1  0  0  0  0
  6  4  2  0  0  0  0
  7  3  2  0  0  0  0
  8  1  1  0  0  0  0
  9  8  1  0  0  0  0
 11 12  2  0  0  0  0
 12 13  1  0  0  0  0
 13 10  1  0  0  0  0
 13  9  1  0  0  0  0
 14 12  1  1  0  0  0
 14 27  1  0  0  0  0
 16 25  2  0  0  0  0
 16 18  1  0  0  0  0
 17 20  1  0  0  0  0
 20 26  1  0  0  0  0
 21 27  1  0  0  0  0
 21 28  1  0  0  0  0
 22 15  1  6  0  0  0
 22 24  1  0  0  0  0
 23 21  2  0  0  0  0
 24 26  1  0  0  0  0
 26 16  1  0  0  0  0
 27 19  1  0  0  0  0
 28 17  1  0  0  0  0
 28 22  1  0  0  0  0
 29 30  2  0  0  0  0
 29 34  1  0  0  0  0
 30 33  1  0  0  0  0
 32 31  1  0  0  0  0
 33 32  2  0  0  0  0
 34 14  1  0  0  0  0
 34 31  2  0  0  0  0
 35 36  1  0  0  0  0
 36 37  1  0  0  0  0
 37 38  1  0  0  0  0
 39 46  1  1  0  0  0
 40 38  1  6  0  0  0
 40 44  1  0  0  0  0
 40 48  1  0  0  0  0
 41 45  1  0  0  0  0
 42 49  1  0  0  0  0
 43 42  1  0  0  0  0
 43 40  1  0  0  0  0
 44 47  1  1  0  0  0
 44 41  1  0  0  0  0
 45 48  1  6  0  0  0
 45 39  1  0  0  0  0
 49 50  1  0  0  0  0
 50 51  1  1  0  0  0
 50 39  1  0  0  0  0
 52 51  1  0  0  0  0
 53 52  1  0  0  0  0
 54 55  1  0  0  0  0
 55 53  1  0  0  0  0
M  END
>  <MODEL>
5

>  <REMARK>
 VINA RESULT:      -6.0      1.899      3.475
  Name = 
  16 active torsions:
  status: ('A' for Active; 'I' for Inactive)
    1  A    between atoms: C_3  and  O_25
    2  A    between atoms: C_3  and  O_38
    3  A    between atoms: C_6  and  C_22
    4  A    between atoms: C_8  and  C_43
    5  A    between atoms: C_8  and  C_54
    6  A    between atoms: C_19  and  C_45
    7  A    between atoms: C_22  and  C_43
    8  A    between atoms: C_26  and  C_45
    9  A    between atoms: C_27  and  N_51
   10  A    between atoms: C_29  and  O_38
   11  A    between atoms: C_29  and  C_53
   12  A    between atoms: C_35  and  C_40
   13  A    between atoms: C_35  and  N_51
   14  A    between atoms: N_37  and  C_40
   15  A    between atoms: C_45  and  N_49
   16  A    between atoms: N_51  and  C_54
                            x       y       z     vdW  Elec       q    Type
                         _______ _______ _______ _____ _____    ______ ____

>  <TORSDO>
F 16

$$$$
=
 OpenBabel10272401303D

 55 59  0  0  1  0  0  0  0  0999 V2000
  187.4270  177.5290  138.1250 N   0  0  0  0  0  0  0  0  0  0  0  0
  185.5160  176.5150  134.4610 C   0  0  0  0  0  3  0  0  0  0  0  0
  186.7780  177.1830  136.8810 C   0  0  0  0  0  0  0  0  0  0  0  0
  185.8600  176.1190  136.8210 C   0  0  0  0  0  3  0  0  0  0  0  0
  186.4250  177.5730  134.5060 C   0  0  0  0  0  3  0  0  0  0  0  0
  185.2320  175.7860  135.6170 C   0  0  0  0  0  3  0  0  0  0  0  0
  187.0540  177.9050  135.7100 C   0  0  0  0  0  3  0  0  0  0  0  0
  188.6110  176.7990  138.5760 C   0  0  0  0  0  2  0  0  0  0  0  0
  189.8800  177.3640  137.9540 C   0  0  0  0  0  2  0  0  0  0  0  0
  190.9150  177.3020  140.2450 C   0  0  0  0  0  1  0  0  0  0  0  0
  193.3400  176.7320  138.8840 O   0  0  0  0  0  0  0  0  0  0  0  0
  192.2580  176.6200  138.2430 C   0  0  0  0  0  0  0  0  0  0  0  0
  191.0340  177.1110  138.8060 N   0  0  0  0  0  0  0  0  0  0  0  0
  192.2450  175.9540  136.8910 C   0  0  1  0  0  3  0  0  0  0  0  0
  197.8200  175.7620  134.9070 O   0  0  0  0  0  1  0  0  0  0  0  0
  199.0110  172.3810  136.5660 C   0  0  0  0  0  0  0  0  0  0  0  0
  195.7550  173.6460  135.2140 C   0  0  0  0  0  2  0  0  0  0  0  0
  200.0800  172.7870  137.3630 O   0  0  0  0  0  1  0  0  0  0  0  0
  193.5060  173.8500  137.2280 C   0  0  0  0  0  1  0  0  0  0  0  0
  196.5710  172.6530  136.0390 C   0  0  0  0  0  2  0  0  0  0  0  0
  194.6380  175.7550  136.0390 C   0  0  0  0  0  0  0  0  0  0  0  0
  197.1270  175.5450  136.1020 C   0  0  2  0  0  3  0  0  0  0  0  0
  194.6630  176.9850  135.7550 O   0  0  0  0  0  0  0  0  0  0  0  0
  197.9080  174.5760  136.9840 C   0  0  0  0  0  2  0  0  0  0  0  0
  199.0590  171.2570  135.9950 O   0  0  0  0  0  0  0  0  0  0  0  0
  197.8650  173.2280  136.4180 N   0  0  0  0  0  0  0  0  0  0  0  0
  193.4550  175.1730  136.6270 N   0  0  0  0  0  0  0  0  0  0  0  0
  195.8170  174.9710  135.8230 N   0  0  0  0  0  0  0  0  0  0  0  0
  190.5050  174.1300  137.2770 C   0  0  0  0  0  3  0  0  0  0  0  0
  189.3490  173.4470  136.8810 C   0  0  0  0  0  3  0  0  0  0  0  0
  190.2840  175.6050  135.3650 C   0  0  0  0  0  3  0  0  0  0  0  0
  189.1270  174.9230  134.9720 C   0  0  0  0  0  3  0  0  0  0  0  0
  188.6600  173.8400  135.7290 C   0  0  0  0  0  3  0  0  0  0  0  0
  190.9800  175.2170  136.5210 C   0  0  0  0  0  0  0  0  0  0  0  0
  186.9070  178.6070  138.9670 C   0  0  0  0  0  2  0  0  0  0  0  0
  185.5680  178.2090  139.5830 C   0  0  0  0  0  2  0  0  0  0  0  0
  184.4890  179.2400  139.2670 C   0  0  0  0  0  2  0  0  0  0  0  0
  183.1570  178.8790  139.9240 C   0  0  0  0  0  2  0  0  0  0  0  0
  181.1050  174.7320  138.4750 C   0  0  1  0  0  3  0  0  0  0  0  0
  182.2300  177.9790  139.0860 C   0  0  2  0  0  0  0  0  0  0  0  0
  180.1980  176.7370  139.7700 C   0  0  0  0  0  2  0  0  0  0  0  0
  181.5390  177.4330  136.6620 C   0  0  0  0  0  2  0  0  0  0  0  0
  182.4560  178.2370  137.5840 C   0  0  0  0  0  2  0  0  0  0  0  0
  180.7300  178.1210  139.4330 C   0  0  1  0  0  3  0  0  0  0  0  0
  181.3440  175.7500  139.6050 C   0  0  2  0  0  3  0  0  0  0  0  0
  179.9840  173.7890  138.8960 C   0  0  0  0  0  1  0  0  0  0  0  0
  180.3910  179.0730  140.5750 C   0  0  0  0  0  1  0  0  0  0  0  0
  182.6200  176.5450  139.4150 C   0  0  0  0  0  2  0  0  0  0  0  0
  181.9220  176.0900  136.6610 O   0  0  0  0  0  0  0  0  0  0  0  0
  180.8040  175.3880  137.1160 C   0  0  1  0  0  3  0  0  0  0  0  0
  180.4110  174.3590  136.0590 C   0  0  0  0  0  2  0  0  0  0  0  0
  181.4590  173.4600  135.8800 O   0  0  0  0  0  0  0  0  0  0  0  0
  180.9470  172.4900  135.0140 C   0  0  0  0  0  2  0  0  0  0  0  0
  182.2440  171.4750  136.4930 C   0  0  0  0  0  1  0  0  0  0  0  0
  181.4950  171.2470  135.3350 O   0  0  0  0  0  0  0  0  0  0  0  0
  1  8  1  0  0  0  0
  1 35  1  0  0  0  0
  2  5  2  0  0  0  0
  2  6  1  0  0  0  0
  3  1  1  0  0  0  0
  4  3  1  0  0  0  0
  5  7  1  0  0  0  0
  6  4  2  0  0  0  0
  7  3  2  0  0  0  0
  9  8  1  0  0  0  0
  9 13  1  0  0  0  0
 12 13  1  0  0  0  0
 12 11  2  0  0  0  0
 13 10  1  0  0  0  0
 14 12  1  1  0  0  0
 16 18  1  0  0  0  0
 17 28  1  0  0  0  0
 17 20  1  0  0  0  0
 20 26  1  0  0  0  0
 21 27  1  0  0  0  0
 22 15  1  6  0  0  0
 22 24  1  0  0  0  0
 23 21  2  0  0  0  0
 25 16  2  0  0  0  0
 26 16  1  0  0  0  0
 26 24  1  0  0  0  0
 27 14  1  0  0  0  0
 27 19  1  0  0  0  0
 28 21  1  0  0  0  0
 28 22  1  0  0  0  0
 30 29  1  0  0  0  0
 31 34  1  0  0  0  0
 32 31  2  0  0  0  0
 32 33  1  0  0  0  0
 33 30  2  0  0  0  0
 34 14  1  0  0  0  0
 34 29  2  0  0  0  0
 35 36  1  0  0  0  0
 37 36  1  0  0  0  0
 37 38  1  0  0  0  0
 39 46  1  1  0  0  0
 39 45  1  0  0  0  0
 40 48  1  0  0  0  0
 40 44  1  0  0  0  0
 40 38  1  1  0  0  0
 42 43  1  0  0  0  0
 43 40  1  0  0  0  0
 44 41  1  0  0  0  0
 44 47  1  1  0  0  0
 45 48  1  6  0  0  0
 45 41  1  0  0  0  0
 49 42  1  0  0  0  0
 49 50  1  0  0  0  0
 50 51  1  6  0  0  0
 50 39  1  0  0  0  0
 52 51  1  0  0  0  0
 53 55  1  0  0  0  0
 53 52  1  0  0  0  0
 55 54  1  0  0  0  0
M  END
>  <MODEL>
6

>  <REMARK>
 VINA RESULT:      -5.9      3.611      9.436
  Name = 
  16 active torsions:
  status: ('A' for Active; 'I' for Inactive)
    1  A    between atoms: C_3  and  O_25
    2  A    between atoms: C_3  and  O_38
    3  A    between atoms: C_6  and  C_22
    4  A    between atoms: C_8  and  C_43
    5  A    between atoms: C_8  and  C_54
    6  A    between atoms: C_19  and  C_45
    7  A    between atoms: C_22  and  C_43
    8  A    between atoms: C_26  and  C_45
    9  A    between atoms: C_27  and  N_51
   10  A    between atoms: C_29  and  O_38
   11  A    between atoms: C_29  and  C_53
   12  A    between atoms: C_35  and  C_40
   13  A    between atoms: C_35  and  N_51
   14  A    between atoms: N_37  and  C_40
   15  A    between atoms: C_45  and  N_49
   16  A    between atoms: N_51  and  C_54
                            x       y       z     vdW  Elec       q    Type
                         _______ _______ _______ _____ _____    ______ ____

>  <TORSDO>
F 16

$$$$
=
 OpenBabel10272401303D

 55 59  0  0  1  0  0  0  0  0999 V2000
  187.8200  177.8670  139.1860 N   0  0  0  0  0  0  0  0  0  0  0  0
  183.7500  179.0020  138.6770 C   0  0  0  0  0  3  0  0  0  0  0  0
  186.4370  178.2520  139.0150 C   0  0  0  0  0  0  0  0  0  0  0  0
  185.6120  178.4800  140.1300 C   0  0  0  0  0  3  0  0  0  0  0  0
  184.5590  178.7780  137.5610 C   0  0  0  0  0  3  0  0  0  0  0  0
  184.2740  178.8530  139.9620 C   0  0  0  0  0  3  0  0  0  0  0  0
  185.8950  178.4030  137.7280 C   0  0  0  0  0  3  0  0  0  0  0  0
  188.5910  177.3360  138.0620 C   0  0  0  0  0  2  0  0  0  0  0  0
  188.1570  175.9190  137.7140 C   0  0  0  0  0  2  0  0  0  0  0  0
  190.2110  175.8760  136.2630 C   0  0  0  0  0  1  0  0  0  0  0  0
  188.6220  174.3700  134.4550 O   0  0  0  0  0  0  0  0  0  0  0  0
  188.2040  174.5120  135.6380 C   0  0  0  0  0  0  0  0  0  0  0  0
  188.8430  175.4440  136.5200 N   0  0  0  0  0  0  0  0  0  0  0  0
  187.0420  173.6910  136.1340 C   0  0  1  0  0  3  0  0  0  0  0  0
  181.3640  174.4900  137.6100 O   0  0  0  0  0  1  0  0  0  0  0  0
  180.5570  177.7100  135.4700 C   0  0  0  0  0  0  0  0  0  0  0  0
  182.7860  174.7350  135.0110 C   0  0  0  0  0  2  0  0  0  0  0  0
  180.1820  178.6400  136.4390 O   0  0  0  0  0  1  0  0  0  0  0  0
  185.7450  175.3480  134.8290 C   0  0  0  0  0  1  0  0  0  0  0  0
  182.3440  176.1510  134.6450 C   0  0  0  0  0  2  0  0  0  0  0  0
  184.5800  174.0810  136.6640 C   0  0  0  0  0  0  0  0  0  0  0  0
  182.5200  175.2590  137.4470 C   0  0  2  0  0  3  0  0  0  0  0  0
  184.6650  173.3600  137.6970 O   0  0  0  0  0  0  0  0  0  0  0  0
  182.1420  176.6960  137.1030 C   0  0  0  0  0  2  0  0  0  0  0  0
  179.9820  177.7230  134.3460 O   0  0  0  0  0  0  0  0  0  0  0  0
  181.5990  176.7660  135.7470 N   0  0  0  0  0  0  0  0  0  0  0  0
  185.7440  174.2990  135.8370 N   0  0  0  0  0  0  0  0  0  0  0  0
  183.3320  174.7170  136.3650 N   0  0  0  0  0  0  0  0  0  0  0  0
  188.2670  171.4650  135.9210 C   0  0  0  0  0  3  0  0  0  0  0  0
  188.2750  170.1060  135.5820 C   0  0  0  0  0  3  0  0  0  0  0  0
  185.9110  171.5880  135.3630 C   0  0  0  0  0  3  0  0  0  0  0  0
  185.9190  170.2290  135.0280 C   0  0  0  0  0  3  0  0  0  0  0  0
  187.1030  169.4870  135.1330 C   0  0  0  0  0  3  0  0  0  0  0  0
  187.0820  172.2150  135.8160 C   0  0  0  0  0  0  0  0  0  0  0  0
  188.4760  177.9890  140.4880 C   0  0  0  0  0  2  0  0  0  0  0  0
  189.8940  177.4250  140.4290 C   0  0  0  0  0  2  0  0  0  0  0  0
  190.0120  176.1480  141.2540 C   0  0  0  0  0  2  0  0  0  0  0  0
  190.6290  176.4200  142.6270 C   0  0  0  0  0  2  0  0  0  0  0  0
  188.6430  177.2330  146.9750 C   0  0  1  0  0  3  0  0  0  0  0  0
  189.6940  177.0910  143.6480 C   0  0  2  0  0  0  0  0  0  0  0  0
  190.2430  178.6040  145.5320 C   0  0  0  0  0  2  0  0  0  0  0  0
  187.2360  177.7570  144.0560 C   0  0  0  0  0  2  0  0  0  0  0  0
  188.2400  177.0600  143.1390 C   0  0  0  0  0  2  0  0  0  0  0  0
  190.0980  178.5370  144.0210 C   0  0  1  0  0  3  0  0  0  0  0  0
  189.9030  177.2300  146.0900 C   0  0  2  0  0  3  0  0  0  0  0  0
  188.9520  177.9870  148.2620 C   0  0  0  0  0  1  0  0  0  0  0  0
  191.3760  179.0640  143.3770 C   0  0  0  0  0  1  0  0  0  0  0  0
  189.7970  176.2680  144.9240 C   0  0  0  0  0  2  0  0  0  0  0  0
  187.0270  176.9900  145.2050 O   0  0  0  0  0  0  0  0  0  0  0  0
  187.4040  177.8120  146.2690 C   0  0  1  0  0  3  0  0  0  0  0  0
  186.2190  177.9520  147.2210 C   0  0  0  0  0  2  0  0  0  0  0  0
  185.4060  178.9980  146.7940 O   0  0  0  0  0  0  0  0  0  0  0  0
  184.5970  178.4360  145.8040 C   0  0  0  0  0  2  0  0  0  0  0  0
  183.2490  179.3770  144.3220 C   0  0  0  0  0  1  0  0  0  0  0  0
  183.4170  179.1730  145.6940 O   0  0  0  0  0  0  0  0  0  0  0  0
  1 35  1  0  0  0  0
  2  6  1  0  0  0  0
  3  1  1  0  0  0  0
  3  4  1  0  0  0  0
  5  7  1  0  0  0  0
  5  2  2  0  0  0  0
  6  4  2  0  0  0  0
  7  3  2  0  0  0  0
  8  1  1  0  0  0  0
  9  8  1  0  0  0  0
 10 13  1  0  0  0  0
 11 12  2  0  0  0  0
 12 13  1  0  0  0  0
 13  9  1  0  0  0  0
 14 12  1  6  0  0  0
 16 26  1  0  0  0  0
 16 18  1  0  0  0  0
 17 28  1  0  0  0  0
 19 27  1  0  0  0  0
 20 17  1  0  0  0  0
 20 26  1  0  0  0  0
 21 23  2  0  0  0  0
 22 15  1  6  0  0  0
 24 22  1  0  0  0  0
 25 16  2  0  0  0  0
 26 24  1  0  0  0  0
 27 14  1  0  0  0  0
 27 21  1  0  0  0  0
 28 21  1  0  0  0  0
 28 22  1  0  0  0  0
 30 29  2  0  0  0  0
 31 34  2  0  0  0  0
 32 33  2  0  0  0  0
 32 31  1  0  0  0  0
 33 30  1  0  0  0  0
 34 29  1  0  0  0  0
 34 14  1  0  0  0  0
 36 35  1  0  0  0  0
 36 37  1  0  0  0  0
 37 38  1  0  0  0  0
 39 46  1  1  0  0  0
 40 38  1  6  0  0  0
 40 44  1  0  0  0  0
 40 48  1  0  0  0  0
 41 45  1  0  0  0  0
 42 49  1  0  0  0  0
 43 40  1  0  0  0  0
 43 42  1  0  0  0  0
 44 47  1  6  0  0  0
 44 41  1  0  0  0  0
 45 48  1  6  0  0  0
 45 39  1  0  0  0  0
 49 50  1  0  0  0  0
 50 39  1  0  0  0  0
 50 51  1  1  0  0  0
 52 51  1  0  0  0  0
 53 52  1  0  0  0  0
 54 55  1  0  0  0  0
 55 53  1  0  0  0  0
M  END
>  <MODEL>
7

>  <REMARK>
 VINA RESULT:      -5.8      2.593      4.524
  Name = 
  16 active torsions:
  status: ('A' for Active; 'I' for Inactive)
    1  A    between atoms: C_3  and  O_25
    2  A    between atoms: C_3  and  O_38
    3  A    between atoms: C_6  and  C_22
    4  A    between atoms: C_8  and  C_43
    5  A    between atoms: C_8  and  C_54
    6  A    between atoms: C_19  and  C_45
    7  A    between atoms: C_22  and  C_43
    8  A    between atoms: C_26  and  C_45
    9  A    between atoms: C_27  and  N_51
   10  A    between atoms: C_29  and  O_38
   11  A    between atoms: C_29  and  C_53
   12  A    between atoms: C_35  and  C_40
   13  A    between atoms: C_35  and  N_51
   14  A    between atoms: N_37  and  C_40
   15  A    between atoms: C_45  and  N_49
   16  A    between atoms: N_51  and  C_54
                            x       y       z     vdW  Elec       q    Type
                         _______ _______ _______ _____ _____    ______ ____

>  <TORSDO>
F 16

$$$$
=
 OpenBabel10272401303D

 55 59  0  0  1  0  0  0  0  0999 V2000
  186.5440  174.3530  135.5370 N   0  0  0  0  0  0  0  0  0  0  0  0
  189.6360  171.5000  134.8930 C   0  0  0  0  0  3  0  0  0  0  0  0
  187.5940  173.3840  135.3160 C   0  0  0  0  0  0  0  0  0  0  0  0
  188.7300  173.7170  134.5570 C   0  0  0  0  0  3  0  0  0  0  0  0
  188.5130  171.1560  135.6480 C   0  0  0  0  0  3  0  0  0  0  0  0
  189.7460  172.7790  134.3460 C   0  0  0  0  0  3  0  0  0  0  0  0
  187.4960  172.0930  135.8580 C   0  0  0  0  0  3  0  0  0  0  0  0
  186.8670  175.7460  135.8440 C   0  0  0  0  0  2  0  0  0  0  0  0
  187.3510  175.8980  137.2780 C   0  0  0  0  0  2  0  0  0  0  0  0
  186.6040  178.2980  137.1630 C   0  0  0  0  0  1  0  0  0  0  0  0
  189.0860  178.8910  138.4080 O   0  0  0  0  0  0  0  0  0  0  0  0
  188.6910  177.6910  138.4120 C   0  0  0  0  0  0  0  0  0  0  0  0
  187.5700  177.3010  137.6070 N   0  0  0  0  0  0  0  0  0  0  0  0
  189.3840  176.6690  139.2740 C   0  0  1  0  0  3  0  0  0  0  0  0
  192.8190  173.8890  135.3340 O   0  0  0  0  0  1  0  0  0  0  0  0
  196.2160  175.8160  135.9210 C   0  0  0  0  0  0  0  0  0  0  0  0
  193.3440  174.8190  138.1080 C   0  0  0  0  0  2  0  0  0  0  0  0
  196.4790  176.3690  134.6690 O   0  0  0  0  0  0  0  0  0  0  0  0
  191.8190  177.1080  139.3700 C   0  0  0  0  0  1  0  0  0  0  0  0
  194.6000  175.6430  137.8360 C   0  0  0  0  0  2  0  0  0  0  0  0
  190.9540  175.4920  137.6480 C   0  0  0  0  0  0  0  0  0  0  0  0
  192.5610  175.1970  135.7580 C   0  0  2  0  0  3  0  0  0  0  0  0
  189.9730  175.0310  137.0000 O   0  0  0  0  0  0  0  0  0  0  0  0
  193.7770  176.0780  135.4880 C   0  0  0  0  0  2  0  0  0  0  0  0
  197.1780  175.4150  136.6340 O   0  0  0  0  0  1  0  0  0  0  0  0
  194.8680  175.7280  136.3970 N   0  0  0  0  0  0  0  0  0  0  0  0
  190.7280  176.3360  138.7980 N   0  0  0  0  0  0  0  0  0  0  0  0
  192.2810  175.2110  137.1880 N   0  0  0  0  0  0  0  0  0  0  0  0
  190.0800  176.1280  141.6670 C   0  0  0  0  0  3  0  0  0  0  0  0
  189.9780  176.3520  143.0450 C   0  0  0  0  0  3  0  0  0  0  0  0
  188.4840  177.9070  141.2620 C   0  0  0  0  0  3  0  0  0  0  0  0
  188.3860  178.1340  142.6400 C   0  0  0  0  0  3  0  0  0  0  0  0
  189.1310  177.3530  143.5340 C   0  0  0  0  0  3  0  0  0  0  0  0
  189.3330  176.9070  140.7650 C   0  0  0  0  0  0  0  0  0  0  0  0
  185.1360  173.9600  135.4690 C   0  0  0  0  0  2  0  0  0  0  0  0
  184.6220  173.5680  136.8530 C   0  0  0  0  0  2  0  0  0  0  0  0
  183.1440  173.9090  137.0070 C   0  0  0  0  0  2  0  0  0  0  0  0
  182.8410  175.3290  136.5300 C   0  0  0  0  0  2  0  0  0  0  0  0
  182.2220  179.3140  139.2220 C   0  0  1  0  0  3  0  0  0  0  0  0
  182.1590  176.2420  137.5640 C   0  0  2  0  0  0  0  0  0  0  0  0
  180.9380  178.3700  137.2260 C   0  0  0  0  0  2  0  0  0  0  0  0
  181.2140  176.2790  139.9640 C   0  0  0  0  0  2  0  0  0  0  0  0
  181.9410  175.4780  138.8840 C   0  0  0  0  0  2  0  0  0  0  0  0
  180.8280  176.8620  137.0800 C   0  0  1  0  0  3  0  0  0  0  0  0
  182.3040  178.6790  137.8220 C   0  0  2  0  0  3  0  0  0  0  0  0
  181.6540  180.7210  139.0880 C   0  0  0  0  0  1  0  0  0  0  0  0
  180.4140  176.5320  135.6490 C   0  0  0  0  0  1  0  0  0  0  0  0
  183.1170  177.4000  137.8060 C   0  0  0  0  0  2  0  0  0  0  0  0
  182.0600  177.2650  140.4780 O   0  0  0  0  0  0  0  0  0  0  0  0
  181.4110  178.4750  140.2260 C   0  0  1  0  0  3  0  0  0  0  0  0
  181.2120  179.2070  141.5510 C   0  0  0  0  0  2  0  0  0  0  0  0
  182.0100  178.6180  142.5270 O   0  0  0  0  0  0  0  0  0  0  0  0
  181.9960  179.5250  143.5900 C   0  0  0  0  0  2  0  0  0  0  0  0
  183.8330  178.4070  144.1130 C   0  0  0  0  0  1  0  0  0  0  0  0
  183.2950  179.6970  144.0700 O   0  0  0  0  0  0  0  0  0  0  0  0
  1  8  1  0  0  0  0
  2  5  1  0  0  0  0
  3  1  1  0  0  0  0
  3  7  1  0  0  0  0
  4  3  2  0  0  0  0
  5  7  2  0  0  0  0
  6  4  1  0  0  0  0
  6  2  2  0  0  0  0
  8  9  1  0  0  0  0
  9 13  1  0  0  0  0
 10 13  1  0  0  0  0
 11 12  2  0  0  0  0
 13 12  1  0  0  0  0
 14 12  1  6  0  0  0
 14 34  1  0  0  0  0
 16 26  1  0  0  0  0
 16 25  1  0  0  0  0
 18 16  2  0  0  0  0
 20 17  1  0  0  0  0
 21 27  1  0  0  0  0
 22 15  1  1  0  0  0
 22 28  1  0  0  0  0
 23 21  2  0  0  0  0
 24 22  1  0  0  0  0
 24 26  1  0  0  0  0
 26 20  1  0  0  0  0
 27 14  1  0  0  0  0
 27 19  1  0  0  0  0
 28 21  1  0  0  0  0
 28 17  1  0  0  0  0
 29 30  1  0  0  0  0
 30 33  2  0  0  0  0
 31 32  2  0  0  0  0
 32 33  1  0  0  0  0
 34 31  1  0  0  0  0
 34 29  2  0  0  0  0
 35  1  1  0  0  0  0
 35 36  1  0  0  0  0
 36 37  1  0  0  0  0
 38 37  1  0  0  0  0
 39 46  1  6  0  0  0
 39 50  1  0  0  0  0
 40 38  1  6  0  0  0
 40 48  1  0  0  0  0
 40 43  1  0  0  0  0
 42 49  1  0  0  0  0
 43 42  1  0  0  0  0
 44 47  1  6  0  0  0
 44 41  1  0  0  0  0
 44 40  1  0  0  0  0
 45 41  1  1  0  0  0
 45 39  1  0  0  0  0
 48 45  1  0  0  0  0
 50 49  1  0  0  0  0
 50 51  1  1  0  0  0
 51 52  1  0  0  0  0
 52 53  1  0  0  0  0
 53 55  1  0  0  0  0
 55 54  1  0  0  0  0
M  END
>  <MODEL>
8

>  <REMARK>
 VINA RESULT:      -5.7      2.361      8.416
  Name = 
  16 active torsions:
  status: ('A' for Active; 'I' for Inactive)
    1  A    between atoms: C_3  and  O_25
    2  A    between atoms: C_3  and  O_38
    3  A    between atoms: C_6  and  C_22
    4  A    between atoms: C_8  and  C_43
    5  A    between atoms: C_8  and  C_54
    6  A    between atoms: C_19  and  C_45
    7  A    between atoms: C_22  and  C_43
    8  A    between atoms: C_26  and  C_45
    9  A    between atoms: C_27  and  N_51
   10  A    between atoms: C_29  and  O_38
   11  A    between atoms: C_29  and  C_53
   12  A    between atoms: C_35  and  C_40
   13  A    between atoms: C_35  and  N_51
   14  A    between atoms: N_37  and  C_40
   15  A    between atoms: C_45  and  N_49
   16  A    between atoms: N_51  and  C_54
                            x       y       z     vdW  Elec       q    Type
                         _______ _______ _______ _____ _____    ______ ____

>  <TORSDO>
F 16

$$$$
=
 OpenBabel10272401303D

 55 59  0  0  1  0  0  0  0  0999 V2000
  188.1240  177.7810  140.5850 N   0  0  0  0  0  0  0  0  0  0  0  0
  191.3580  176.5360  143.0540 C   0  0  0  0  0  3  0  0  0  0  0  0
  189.2230  177.3580  141.4220 C   0  0  0  0  0  0  0  0  0  0  0  0
  190.5390  177.7670  141.1410 C   0  0  0  0  0  3  0  0  0  0  0  0
  190.0570  176.1220  143.3450 C   0  0  0  0  0  3  0  0  0  0  0  0
  191.6020  177.3580  141.9530 C   0  0  0  0  0  3  0  0  0  0  0  0
  188.9940  176.5290  142.5320 C   0  0  0  0  0  3  0  0  0  0  0  0
  187.7620  177.0190  139.3890 C   0  0  0  0  0  2  0  0  0  0  0  0
  188.9080  176.9790  138.3900 C   0  0  0  0  0  2  0  0  0  0  0  0
  188.9640  179.2680  137.3480 C   0  0  0  0  0  1  0  0  0  0  0  0
  187.5570  178.0700  135.1920 O   0  0  0  0  0  0  0  0  0  0  0  0
  188.1150  177.3110  136.0330 C   0  0  0  0  0  0  0  0  0  0  0  0
  188.6380  177.8510  137.2540 N   0  0  0  0  0  0  0  0  0  0  0  0
  188.2500  175.8370  135.7490 C   0  0  1  0  0  3  0  0  0  0  0  0
  194.1370  175.9820  135.1360 O   0  0  0  0  0  1  0  0  0  0  0  0
  195.2050  174.0480  138.4090 C   0  0  0  0  0  0  0  0  0  0  0  0
  192.2960  173.8380  136.0590 C   0  0  0  0  0  2  0  0  0  0  0  0
  195.9830  174.9880  139.0850 O   0  0  0  0  0  1  0  0  0  0  0  0
  189.5930  174.4340  137.2840 C   0  0  0  0  0  1  0  0  0  0  0  0
  192.9690  173.5220  137.3930 C   0  0  0  0  0  2  0  0  0  0  0  0
  190.7900  175.7980  135.5420 C   0  0  0  0  0  0  0  0  0  0  0  0
  193.1850  176.1790  136.1410 C   0  0  2  0  0  3  0  0  0  0  0  0
  190.7590  176.7430  134.7050 O   0  0  0  0  0  0  0  0  0  0  0  0
  193.8080  175.9020  137.5050 C   0  0  0  0  0  2  0  0  0  0  0  0
  195.5160  172.8260  138.4760 O   0  0  0  0  0  0  0  0  0  0  0  0
  194.0530  174.4700  137.6680 N   0  0  0  0  0  0  0  0  0  0  0  0
  189.5620  175.3010  136.1170 N   0  0  0  0  0  0  0  0  0  0  0  0
  192.0600  175.2740  135.9480 N   0  0  0  0  0  0  0  0  0  0  0  0
  185.9940  175.4870  136.8850 C   0  0  0  0  0  3  0  0  0  0  0  0
  184.9730  174.6390  137.3300 C   0  0  0  0  0  3  0  0  0  0  0  0
  187.1890  173.5770  135.9910 C   0  0  0  0  0  3  0  0  0  0  0  0
  186.1670  172.7290  136.4330 C   0  0  0  0  0  3  0  0  0  0  0  0
  185.0590  173.2600  137.1070 C   0  0  0  0  0  3  0  0  0  0  0  0
  187.1100  174.9610  136.2090 C   0  0  0  0  0  0  0  0  0  0  0  0
  187.3570  178.9850  140.9050 C   0  0  0  0  0  2  0  0  0  0  0  0
  185.8640  178.6720  140.9560 C   0  0  0  0  0  2  0  0  0  0  0  0
  185.2400  178.7400  139.5660 C   0  0  0  0  0  2  0  0  0  0  0  0
  183.8010  179.2550  139.6200 C   0  0  0  0  0  2  0  0  0  0  0  0
  181.3830  175.1560  138.6940 C   0  0  1  0  0  3  0  0  0  0  0  0
  182.7530  178.3580  138.9380 C   0  0  2  0  0  0  0  0  0  0  0  0
  180.7140  177.3150  139.8830 C   0  0  0  0  0  2  0  0  0  0  0  0
  181.8280  177.6690  136.6310 C   0  0  0  0  0  2  0  0  0  0  0  0
  182.8670  178.4790  137.4060 C   0  0  0  0  0  2  0  0  0  0  0  0
  181.2990  178.6280  139.3890 C   0  0  1  0  0  3  0  0  0  0  0  0
  181.7790  176.2410  139.7110 C   0  0  2  0  0  3  0  0  0  0  0  0
  180.2460  174.3290  139.2810 C   0  0  0  0  0  1  0  0  0  0  0  0
  181.1170  179.6890  140.4690 C   0  0  0  0  0  1  0  0  0  0  0  0
  183.0800  176.9310  139.3540 C   0  0  0  0  0  2  0  0  0  0  0  0
  182.1260  176.3070  136.7130 O   0  0  0  0  0  0  0  0  0  0  0  0
  181.0090  175.7220  137.3130 C   0  0  1  0  0  3  0  0  0  0  0  0
  180.4660  174.6410  136.3810 C   0  0  0  0  0  2  0  0  0  0  0  0
  181.4160  173.6340  136.2400 O   0  0  0  0  0  0  0  0  0  0  0  0
  180.6710  172.4740  136.0140 C   0  0  0  0  0  2  0  0  0  0  0  0
  182.5910  172.0110  135.0150 C   0  0  0  0  0  1  0  0  0  0  0  0
  181.5340  171.4190  135.7130 O   0  0  0  0  0  0  0  0  0  0  0  0
  1 35  1  0  0  0  0
  1  3  1  0  0  0  0
  2  5  1  0  0  0  0
  3  7  1  0  0  0  0
  4  3  2  0  0  0  0
  4  6  1  0  0  0  0
  6  2  2  0  0  0  0
  7  5  2  0  0  0  0
  8  1  1  0  0  0  0
  9  8  1  0  0  0  0
 11 12  2  0  0  0  0
 12 13  1  0  0  0  0
 13 10  1  0  0  0  0
 13  9  1  0  0  0  0
 14 12  1  1  0  0  0
 14 27  1  0  0  0  0
 14 34  1  0  0  0  0
 16 25  2  0  0  0  0
 16 18  1  0  0  0  0
 17 20  1  0  0  0  0
 20 26  1  0  0  0  0
 21 28  1  0  0  0  0
 21 27  1  0  0  0  0
 22 15  1  6  0  0  0
 22 24  1  0  0  0  0
 23 21  2  0  0  0  0
 24 26  1  0  0  0  0
 26 16  1  0  0  0  0
 27 19  1  0  0  0  0
 28 17  1  0  0  0  0
 28 22  1  0  0  0  0
 29 30  1  0  0  0  0
 31 34  1  0  0  0  0
 31 32  2  0  0  0  0
 32 33  1  0  0  0  0
 33 30  2  0  0  0  0
 34 29  2  0  0  0  0
 35 36  1  0  0  0  0
 37 38  1  0  0  0  0
 37 36  1  0  0  0  0
 39 46  1  1  0  0  0
 39 45  1  0  0  0  0
 40 48  1  0  0  0  0
 40 44  1  0  0  0  0
 40 38  1  1  0  0  0
 42 49  1  0  0  0  0
 42 43  1  0  0  0  0
 43 40  1  0  0  0  0
 44 41  1  0  0  0  0
 44 47  1  1  0  0  0
 45 48  1  6  0  0  0
 45 41  1  0  0  0  0
 49 50  1  0  0  0  0
 50 51  1  6  0  0  0
 50 39  1  0  0  0  0
 52 51  1  0  0  0  0
 53 52  1  0  0  0  0
 54 55  1  0  0  0  0
 55 53  1  0  0  0  0
M  END
>  <MODEL>
9

>  <REMARK>
 VINA RESULT:      -5.7      2.935      7.914
  Name = 
  16 active torsions:
  status: ('A' for Active; 'I' for Inactive)
    1  A    between atoms: C_3  and  O_25
    2  A    between atoms: C_3  and  O_38
    3  A    between atoms: C_6  and  C_22
    4  A    between atoms: C_8  and  C_43
    5  A    between atoms: C_8  and  C_54
    6  A    between atoms: C_19  and  C_45
    7  A    between atoms: C_22  and  C_43
    8  A    between atoms: C_26  and  C_45
    9  A    between atoms: C_27  and  N_51
   10  A    between atoms: C_29  and  O_38
   11  A    between atoms: C_29  and  C_53
   12  A    between atoms: C_35  and  C_40
   13  A    between atoms: C_35  and  N_51
   14  A    between atoms: N_37  and  C_40
   15  A    between atoms: C_45  and  N_49
   16  A    between atoms: N_51  and  C_54
                            x       y       z     vdW  Elec       q    Type
                         _______ _______ _______ _____ _____    ______ ____

>  <TORSDO>
F 16

$$$$
