=
 OpenBabel10272400173D

 31 34  0  0  1  0  0  0  0  0999 V2000
  188.6910  178.0030  142.8470 C   0  0  0  0  0  0  0  0  0  0  0  0
  187.7320  178.0380  143.8950 C   0  0  0  0  0  0  0  0  0  0  0  0
  187.1410  177.9140  146.2570 C   0  0  0  0  0  3  0  0  0  0  0  0
  188.1000  177.8770  145.2420 C   0  0  0  0  0  3  0  0  0  0  0  0
  185.9570  178.4130  142.2670 C   0  0  0  0  0  3  0  0  0  0  0  0
  185.7960  178.1120  145.9390 C   0  0  0  0  0  0  0  0  0  0  0  0
  188.2570  178.1810  141.5130 C   0  0  0  0  0  0  0  0  0  0  0  0
  184.7770  178.1510  147.0200 C   0  0  0  0  0  1  0  0  0  0  0  0
  186.8960  178.3890  141.2410 C   0  0  0  0  0  3  0  0  0  0  0  0
  186.3620  178.2380  143.5870 C   0  0  0  0  0  0  0  0  0  0  0  0
  185.4070  178.2740  144.6080 C   0  0  0  0  0  3  0  0  0  0  0  0
  191.8440  178.6000  144.5570 O   0  0  0  0  0  0  0  0  0  0  0  0
  190.1710  177.8020  143.1020 C   0  0  1  0  0  3  0  0  0  0  0  0
  191.3840  177.3860  145.0960 C   0  0  0  0  0  2  0  0  0  0  0  0
  190.8330  179.0290  143.6830 C   0  0  0  0  0  2  0  0  0  0  0  0
  190.4600  176.7140  144.0960 C   0  0  2  0  0  3  0  0  0  0  0  0
  192.0600  174.8360  144.3870 C   0  0  0  0  0  1  0  0  0  0  0  0
  191.1780  175.5730  143.3990 C   0  0  0  0  0  2  0  0  0  0  0  0
  189.2430  178.2120  140.3750 C   0  0  2  0  0  3  0  0  0  0  0  0
  188.6340  178.8250  139.2080 N   0  0  0  0  0  1  0  0  0  0  0  0
  189.7380  176.8140  140.0220 C   0  0  0  0  0  2  0  0  0  0  0  0
  192.1520  177.2850  140.1750 C   0  0  0  0  0  1  0  0  0  0  0  0
  191.0310  176.8910  139.2310 C   0  0  1  0  0  3  0  0  0  0  0  0
  191.3010  175.6140  138.6560 O   0  0  0  0  0  0  0  0  0  0  0  0
  194.3820  175.2720  136.6170 C   0  0  0  0  0  0  0  0  0  0  0  0
  192.4490  175.5190  135.0550 C   0  0  0  0  0  2  0  0  0  0  0  0
  195.6180  175.3250  136.8490 O   0  0  0  0  0  0  0  0  0  0  0  0
  193.4330  174.7810  137.6710 C   0  0  0  0  0  2  0  0  0  0  0  0
  191.6290  175.7710  136.2890 C   0  0  0  0  0  3  0  0  0  0  0  0
  192.0760  175.4170  137.5060 C   0  0  0  0  0  0  0  0  0  0  0  0
  193.8690  175.6870  135.3480 N   0  0  0  0  0  2  0  0  0  0  0  0
  1  2  1  0  0  0  0
  2  4  1  0  0  0  0
  4  3  2  0  0  0  0
  5 10  1  0  0  0  0
  6  3  1  0  0  0  0
  6  8  1  0  0  0  0
  7  1  2  0  0  0  0
  9  7  1  0  0  0  0
  9  5  2  0  0  0  0
 10  2  2  0  0  0  0
 10 11  1  0  0  0  0
 11  6  2  0  0  0  0
 12 14  1  0  0  0  0
 13  1  1  1  0  0  0
 13 15  1  0  0  0  0
 13 16  1  0  0  0  0
 15 12  1  0  0  0  0
 16 18  1  6  0  0  0
 16 14  1  0  0  0  0
 18 17  1  0  0  0  0
 19 20  1  6  0  0  0
 19  7  1  0  0  0  0
 21 19  1  0  0  0  0
 23 21  1  0  0  0  0
 23 22  1  1  0  0  0
 24 23  1  0  0  0  0
 25 27  2  0  0  0  0
 25 28  1  0  0  0  0
 26 31  1  0  0  0  0
 26 29  1  0  0  0  0
 29 30  2  0  0  0  0
 30 28  1  0  0  0  0
 30 24  1  0  0  0  0
 31 25  1  0  0  0  0
M  END
>  <MODEL>
1

>  <REMARK>
 VINA RESULT:      -8.4      0.000      0.000
  Name = 
  7 active torsions:
  status: ('A' for Active; 'I' for Inactive)
    1  A    between atoms: O_3  and  C_9
    2  A    between atoms: O_3  and  C_22
    3  A    between atoms: C_4  and  C_12
    4  A    between atoms: C_9  and  C_23
    5  A    between atoms: C_15  and  C_21
    6  A    between atoms: C_15  and  C_23
    7  A    between atoms: C_27  and  C_28
                            x       y       z     vdW  Elec       q    Type
                         _______ _______ _______ _____ _____    ______ ____

>  <TORSDO>
F 7

$$$$
=
 OpenBabel10272400173D

 31 34  0  0  1  0  0  0  0  0999 V2000
  188.8150  177.9300  142.7900 C   0  0  0  0  0  0  0  0  0  0  0  0
  187.8320  178.0000  143.8150 C   0  0  0  0  0  0  0  0  0  0  0  0
  187.1910  177.9450  146.1660 C   0  0  0  0  0  3  0  0  0  0  0  0
  188.1710  177.8740  145.1740 C   0  0  0  0  0  3  0  0  0  0  0  0
  186.0970  178.3410  142.1390 C   0  0  0  0  0  3  0  0  0  0  0  0
  185.8540  178.1420  145.8140 C   0  0  0  0  0  0  0  0  0  0  0  0
  188.4100  178.0740  141.4420 C   0  0  0  0  0  0  0  0  0  0  0  0
  184.8120  178.2170  146.8710 C   0  0  0  0  0  1  0  0  0  0  0  0
  187.0570  178.2830  141.1340 C   0  0  0  0  0  3  0  0  0  0  0  0
  186.4710  178.2000  143.4720 C   0  0  0  0  0  0  0  0  0  0  0  0
  185.4950  178.2700  144.4700 C   0  0  0  0  0  3  0  0  0  0  0  0
  191.9320  178.5500  144.5560 O   0  0  0  0  0  0  0  0  0  0  0  0
  190.2870  177.7270  143.0830 C   0  0  1  0  0  3  0  0  0  0  0  0
  191.4530  177.3510  145.1120 C   0  0  0  0  0  2  0  0  0  0  0  0
  190.9420  178.9640  143.6500 C   0  0  0  0  0  2  0  0  0  0  0  0
  190.5470  176.6610  144.1070 C   0  0  2  0  0  3  0  0  0  0  0  0
  192.1040  174.7620  144.4840 C   0  0  0  0  0  1  0  0  0  0  0  0
  191.2730  175.5000  143.4520 C   0  0  0  0  0  2  0  0  0  0  0  0
  189.4210  178.0670  140.3260 C   0  0  2  0  0  3  0  0  0  0  0  0
  189.0680  179.0670  139.3320 N   0  0  0  0  0  1  0  0  0  0  0  0
  189.5200  176.6970  139.6650 C   0  0  0  0  0  2  0  0  0  0  0  0
  191.1280  176.4700  137.8110 C   0  0  0  0  0  1  0  0  0  0  0  0
  189.6990  176.8410  138.1650 C   0  0  1  0  0  3  0  0  0  0  0  0
  188.7880  175.9670  137.5020 O   0  0  0  0  0  0  0  0  0  0  0  0
  185.6150  177.8770  137.7300 C   0  0  0  0  0  0  0  0  0  0  0  0
  185.0790  175.5970  136.8630 C   0  0  0  0  0  2  0  0  0  0  0  0
  185.2590  178.9570  138.2700 O   0  0  0  0  0  0  0  0  0  0  0  0
  187.0220  177.7040  137.2360 C   0  0  0  0  0  2  0  0  0  0  0  0
  186.5240  175.2790  137.1300 C   0  0  0  0  0  3  0  0  0  0  0  0
  187.4340  176.2550  137.2910 C   0  0  0  0  0  0  0  0  0  0  0  0
  184.6850  176.8010  137.5880 N   0  0  0  0  0  2  0  0  0  0  0  0
  1  2  1  0  0  0  0
  2  4  1  0  0  0  0
  4  3  2  0  0  0  0
  5 10  1  0  0  0  0
  6  3  1  0  0  0  0
  6  8  1  0  0  0  0
  7  1  2  0  0  0  0
  9  7  1  0  0  0  0
  9  5  2  0  0  0  0
 10  2  2  0  0  0  0
 10 11  1  0  0  0  0
 11  6  2  0  0  0  0
 12 14  1  0  0  0  0
 13  1  1  1  0  0  0
 13 15  1  0  0  0  0
 13 16  1  0  0  0  0
 15 12  1  0  0  0  0
 16 18  1  6  0  0  0
 16 14  1  0  0  0  0
 18 17  1  0  0  0  0
 19 20  1  6  0  0  0
 19  7  1  0  0  0  0
 21 19  1  0  0  0  0
 23 22  1  1  0  0  0
 23 21  1  0  0  0  0
 24 23  1  0  0  0  0
 25 27  2  0  0  0  0
 26 29  1  0  0  0  0
 26 31  1  0  0  0  0
 28 30  1  0  0  0  0
 28 25  1  0  0  0  0
 29 30  2  0  0  0  0
 30 24  1  0  0  0  0
 31 25  1  0  0  0  0
M  END
>  <MODEL>
2

>  <REMARK>
 VINA RESULT:      -8.3      2.393      3.909
  Name = 
  7 active torsions:
  status: ('A' for Active; 'I' for Inactive)
    1  A    between atoms: O_3  and  C_9
    2  A    between atoms: O_3  and  C_22
    3  A    between atoms: C_4  and  C_12
    4  A    between atoms: C_9  and  C_23
    5  A    between atoms: C_15  and  C_21
    6  A    between atoms: C_15  and  C_23
    7  A    between atoms: C_27  and  C_28
                            x       y       z     vdW  Elec       q    Type
                         _______ _______ _______ _____ _____    ______ ____

>  <TORSDO>
F 7

$$$$
=
 OpenBabel10272400173D

 31 34  0  0  1  0  0  0  0  0999 V2000
  188.7010  177.9950  142.8320 C   0  0  0  0  0  0  0  0  0  0  0  0
  187.7350  178.0440  143.8740 C   0  0  0  0  0  0  0  0  0  0  0  0
  187.1310  177.9440  146.2330 C   0  0  0  0  0  3  0  0  0  0  0  0
  188.0960  177.8940  145.2250 C   0  0  0  0  0  3  0  0  0  0  0  0
  185.9720  178.4120  142.2330 C   0  0  0  0  0  3  0  0  0  0  0  0
  185.7890  178.1450  145.9070 C   0  0  0  0  0  0  0  0  0  0  0  0
  188.2750  178.1630  141.4940 C   0  0  0  0  0  0  0  0  0  0  0  0
  184.7640  178.1980  146.9820 C   0  0  0  0  0  1  0  0  0  0  0  0
  186.9170  178.3750  141.2120 C   0  0  0  0  0  3  0  0  0  0  0  0
  186.3690  178.2480  143.5570 C   0  0  0  0  0  0  0  0  0  0  0  0
  185.4080  178.2960  144.5720 C   0  0  0  0  0  3  0  0  0  0  0  0
  191.8430  178.5820  144.5650 O   0  0  0  0  0  0  0  0  0  0  0  0
  190.1790  177.7900  143.0980 C   0  0  1  0  0  3  0  0  0  0  0  0
  191.3760  177.3690  145.1000 C   0  0  0  0  0  2  0  0  0  0  0  0
  190.8390  179.0150  143.6840 C   0  0  0  0  0  2  0  0  0  0  0  0
  190.4570  176.7000  144.0920 C   0  0  2  0  0  3  0  0  0  0  0  0
  192.0770  174.8390  144.3850 C   0  0  0  0  0  1  0  0  0  0  0  0
  191.1770  175.5580  143.3980 C   0  0  0  0  0  2  0  0  0  0  0  0
  189.2680  178.1790  140.3620 C   0  0  2  0  0  3  0  0  0  0  0  0
  188.6700  178.7910  139.1870 N   0  0  0  0  0  1  0  0  0  0  0  0
  189.7530  176.7750  140.0190 C   0  0  0  0  0  2  0  0  0  0  0  0
  192.1760  177.2210  140.0360 C   0  0  0  0  0  1  0  0  0  0  0  0
  191.0000  176.8380  139.1570 C   0  0  1  0  0  3  0  0  0  0  0  0
  191.2240  175.5580  138.5690 O   0  0  0  0  0  0  0  0  0  0  0  0
  189.1350  175.7630  135.5100 C   0  0  0  0  0  0  0  0  0  0  0  0
  189.8920  173.3970  135.7670 C   0  0  0  0  0  2  0  0  0  0  0  0
  188.3500  176.6160  135.0180 O   0  0  0  0  0  0  0  0  0  0  0  0
  190.3030  176.1990  136.3440 C   0  0  0  0  0  2  0  0  0  0  0  0
  190.4560  173.8400  137.0870 C   0  0  0  0  0  3  0  0  0  0  0  0
  190.6630  175.1410  137.3560 C   0  0  0  0  0  0  0  0  0  0  0  0
  188.9160  174.3680  135.2830 N   0  0  0  0  0  2  0  0  0  0  0  0
  1  2  1  0  0  0  0
  2  4  1  0  0  0  0
  4  3  2  0  0  0  0
  5 10  1  0  0  0  0
  6  3  1  0  0  0  0
  6  8  1  0  0  0  0
  7  1  2  0  0  0  0
  9  7  1  0  0  0  0
  9  5  2  0  0  0  0
 10  2  2  0  0  0  0
 10 11  1  0  0  0  0
 11  6  2  0  0  0  0
 12 14  1  0  0  0  0
 13  1  1  1  0  0  0
 13 15  1  0  0  0  0
 13 16  1  0  0  0  0
 15 12  1  0  0  0  0
 16 18  1  6  0  0  0
 16 14  1  0  0  0  0
 18 17  1  0  0  0  0
 19 20  1  6  0  0  0
 19  7  1  0  0  0  0
 21 19  1  0  0  0  0
 23 21  1  0  0  0  0
 23 22  1  1  0  0  0
 24 23  1  0  0  0  0
 25 28  1  0  0  0  0
 26 29  1  0  0  0  0
 27 25  2  0  0  0  0
 28 30  1  0  0  0  0
 29 30  2  0  0  0  0
 30 24  1  0  0  0  0
 31 25  1  0  0  0  0
 31 26  1  0  0  0  0
M  END
>  <MODEL>
3

>  <REMARK>
 VINA RESULT:      -8.3      1.624      2.171
  Name = 
  7 active torsions:
  status: ('A' for Active; 'I' for Inactive)
    1  A    between atoms: O_3  and  C_9
    2  A    between atoms: O_3  and  C_22
    3  A    between atoms: C_4  and  C_12
    4  A    between atoms: C_9  and  C_23
    5  A    between atoms: C_15  and  C_21
    6  A    between atoms: C_15  and  C_23
    7  A    between atoms: C_27  and  C_28
                            x       y       z     vdW  Elec       q    Type
                         _______ _______ _______ _____ _____    ______ ____

>  <TORSDO>
F 7

$$$$
=
 OpenBabel10272400173D

 31 34  0  0  1  0  0  0  0  0999 V2000
  187.7820  178.0260  144.9960 C   0  0  0  0  0  0  0  0  0  0  0  0
  186.3840  178.2260  144.8320 C   0  0  0  0  0  0  0  0  0  0  0  0
  184.1680  178.6700  145.7430 C   0  0  0  0  0  3  0  0  0  0  0  0
  185.5390  178.4780  145.9260 C   0  0  0  0  0  3  0  0  0  0  0  0
  186.6180  177.9350  142.4230 C   0  0  0  0  0  3  0  0  0  0  0  0
  183.6190  178.6130  144.4600 C   0  0  0  0  0  0  0  0  0  0  0  0
  188.5790  177.7860  143.8520 C   0  0  0  0  0  0  0  0  0  0  0  0
  182.1600  178.8170  144.2680 C   0  0  0  0  0  1  0  0  0  0  0  0
  187.9880  177.7490  142.5810 C   0  0  0  0  0  3  0  0  0  0  0  0
  185.8140  178.1710  143.5350 C   0  0  0  0  0  0  0  0  0  0  0  0
  184.4400  178.3640  143.3590 C   0  0  0  0  0  3  0  0  0  0  0  0
  187.9520  177.6380  148.6070 O   0  0  0  0  0  0  0  0  0  0  0  0
  188.4600  178.0810  146.3490 C   0  0  1  0  0  3  0  0  0  0  0  0
  188.6000  176.4960  148.1060 C   0  0  0  0  0  2  0  0  0  0  0  0
  187.4880  178.3310  147.4770 C   0  0  0  0  0  2  0  0  0  0  0  0
  189.1450  176.7980  146.7220 C   0  0  2  0  0  3  0  0  0  0  0  0
  191.3310  175.8030  147.3570 C   0  0  0  0  0  1  0  0  0  0  0  0
  190.6440  177.0270  146.7830 C   0  0  0  0  0  2  0  0  0  0  0  0
  190.0720  177.6290  143.9690 C   0  0  2  0  0  3  0  0  0  0  0  0
  190.7250  178.9060  143.7340 N   0  0  0  0  0  1  0  0  0  0  0  0
  190.6060  176.5900  142.9890 C   0  0  0  0  0  2  0  0  0  0  0  0
  192.4030  177.3210  141.4690 C   0  0  0  0  0  1  0  0  0  0  0  0
  190.8990  177.2280  141.6440 C   0  0  1  0  0  3  0  0  0  0  0  0
  190.3350  176.4180  140.6130 O   0  0  0  0  0  0  0  0  0  0  0  0
  188.6500  178.1550  137.8010 C   0  0  0  0  0  0  0  0  0  0  0  0
  190.3710  176.6220  136.8380 C   0  0  0  0  0  2  0  0  0  0  0  0
  187.6100  178.8530  137.6750 O   0  0  0  0  0  0  0  0  0  0  0  0
  189.4190  178.1640  139.0900 C   0  0  0  0  0  2  0  0  0  0  0  0
  190.5580  176.1310  138.2460 C   0  0  0  0  0  3  0  0  0  0  0  0
  190.1300  176.8510  139.2970 C   0  0  0  0  0  0  0  0  0  0  0  0
  189.1060  177.3410  136.7170 N   0  0  0  0  0  2  0  0  0  0  0  0
  2  1  1  0  0  0  0
  2  4  1  0  0  0  0
  3  4  2  0  0  0  0
  5  9  2  0  0  0  0
  5 10  1  0  0  0  0
  6  3  1  0  0  0  0
  7 19  1  0  0  0  0
  7  1  2  0  0  0  0
  8  6  1  0  0  0  0
  9  7  1  0  0  0  0
 10  2  2  0  0  0  0
 11 10  1  0  0  0  0
 11  6  2  0  0  0  0
 13  1  1  6  0  0  0
 13 16  1  0  0  0  0
 13 15  1  0  0  0  0
 14 12  1  0  0  0  0
 15 12  1  0  0  0  0
 16 18  1  1  0  0  0
 16 14  1  0  0  0  0
 18 17  1  0  0  0  0
 19 20  1  6  0  0  0
 21 19  1  0  0  0  0
 23 22  1  6  0  0  0
 23 21  1  0  0  0  0
 24 23  1  0  0  0  0
 25 28  1  0  0  0  0
 26 29  1  0  0  0  0
 27 25  2  0  0  0  0
 28 30  1  0  0  0  0
 29 30  2  0  0  0  0
 30 24  1  0  0  0  0
 31 26  1  0  0  0  0
 31 25  1  0  0  0  0
M  END
>  <MODEL>
4

>  <REMARK>
 VINA RESULT:      -8.2      2.422      3.782
  Name = 
  7 active torsions:
  status: ('A' for Active; 'I' for Inactive)
    1  A    between atoms: O_3  and  C_9
    2  A    between atoms: O_3  and  C_22
    3  A    between atoms: C_4  and  C_12
    4  A    between atoms: C_9  and  C_23
    5  A    between atoms: C_15  and  C_21
    6  A    between atoms: C_15  and  C_23
    7  A    between atoms: C_27  and  C_28
                            x       y       z     vdW  Elec       q    Type
                         _______ _______ _______ _____ _____    ______ ____

>  <TORSDO>
F 7

$$$$
=
 OpenBabel10272400173D

 31 34  0  0  1  0  0  0  0  0999 V2000
  188.3750  177.1720  142.9990 C   0  0  0  0  0  0  0  0  0  0  0  0
  187.1320  177.6630  143.4830 C   0  0  0  0  0  0  0  0  0  0  0  0
  185.4840  177.9230  145.2610 C   0  0  0  0  0  3  0  0  0  0  0  0
  186.7090  177.4330  144.8050 C   0  0  0  0  0  3  0  0  0  0  0  0
  186.6720  178.6670  141.3110 C   0  0  0  0  0  3  0  0  0  0  0  0
  184.6600  178.6530  144.4020 C   0  0  0  0  0  0  0  0  0  0  0  0
  188.7460  177.4470  141.6620 C   0  0  0  0  0  0  0  0  0  0  0  0
  183.3570  179.1740  144.8890 C   0  0  0  0  0  1  0  0  0  0  0  0
  187.8930  178.1960  140.8370 C   0  0  0  0  0  3  0  0  0  0  0  0
  186.2850  178.4070  142.6220 C   0  0  0  0  0  0  0  0  0  0  0  0
  185.0600  178.8950  143.0850 C   0  0  0  0  0  3  0  0  0  0  0  0
  191.4760  175.4130  143.7110 O   0  0  0  0  0  0  0  0  0  0  0  0
  189.3330  176.3800  143.8640 C   0  0  1  0  0  3  0  0  0  0  0  0
  191.6390  176.6650  144.3300 C   0  0  0  0  0  2  0  0  0  0  0  0
  190.2350  175.4780  143.0570 C   0  0  0  0  0  2  0  0  0  0  0  0
  190.2730  177.2440  144.6530 C   0  0  2  0  0  3  0  0  0  0  0  0
  191.1870  176.5400  146.8530 C   0  0  0  0  0  1  0  0  0  0  0  0
  189.9730  177.0940  146.1330 C   0  0  0  0  0  2  0  0  0  0  0  0
  190.0780  177.0000  141.1210 C   0  0  2  0  0  3  0  0  0  0  0  0
  191.0310  178.0950  141.1840 N   0  0  0  0  0  1  0  0  0  0  0  0
  189.9630  176.5000  139.6860 C   0  0  0  0  0  2  0  0  0  0  0  0
  192.0270  175.9850  138.4420 C   0  0  0  0  0  1  0  0  0  0  0  0
  191.0630  177.0930  138.8250 C   0  0  1  0  0  3  0  0  0  0  0  0
  190.4820  177.6630  137.6540 O   0  0  0  0  0  0  0  0  0  0  0  0
  186.7990  178.0410  137.4070 C   0  0  0  0  0  0  0  0  0  0  0  0
  187.4280  175.8910  136.3020 C   0  0  0  0  0  2  0  0  0  0  0  0
  185.9390  178.7880  137.9420 O   0  0  0  0  0  0  0  0  0  0  0  0
  188.1970  178.5360  137.1780 C   0  0  0  0  0  2  0  0  0  0  0  0
  188.8140  176.1630  136.8150 C   0  0  0  0  0  3  0  0  0  0  0  0
  189.1810  177.3940  137.2110 C   0  0  0  0  0  0  0  0  0  0  0  0
  186.4540  176.7090  137.0180 N   0  0  0  0  0  2  0  0  0  0  0  0
  1  2  1  0  0  0  0
  2  4  1  0  0  0  0
  4  3  2  0  0  0  0
  5 10  1  0  0  0  0
  6  8  1  0  0  0  0
  6  3  1  0  0  0  0
  7  1  2  0  0  0  0
  9  5  2  0  0  0  0
  9  7  1  0  0  0  0
 10 11  1  0  0  0  0
 10  2  2  0  0  0  0
 11  6  2  0  0  0  0
 12 14  1  0  0  0  0
 13  1  1  6  0  0  0
 13 16  1  0  0  0  0
 14 16  1  0  0  0  0
 15 12  1  0  0  0  0
 15 13  1  0  0  0  0
 16 18  1  1  0  0  0
 18 17  1  0  0  0  0
 19 20  1  6  0  0  0
 19  7  1  0  0  0  0
 21 19  1  0  0  0  0
 23 22  1  6  0  0  0
 23 21  1  0  0  0  0
 24 23  1  0  0  0  0
 25 27  2  0  0  0  0
 26 29  1  0  0  0  0
 26 31  1  0  0  0  0
 28 30  1  0  0  0  0
 28 25  1  0  0  0  0
 29 30  2  0  0  0  0
 30 24  1  0  0  0  0
 31 25  1  0  0  0  0
M  END
>  <MODEL>
5

>  <REMARK>
 VINA RESULT:      -8.1      2.348      3.688
  Name = 
  7 active torsions:
  status: ('A' for Active; 'I' for Inactive)
    1  A    between atoms: O_3  and  C_9
    2  A    between atoms: O_3  and  C_22
    3  A    between atoms: C_4  and  C_12
    4  A    between atoms: C_9  and  C_23
    5  A    between atoms: C_15  and  C_21
    6  A    between atoms: C_15  and  C_23
    7  A    between atoms: C_27  and  C_28
                            x       y       z     vdW  Elec       q    Type
                         _______ _______ _______ _____ _____    ______ ____

>  <TORSDO>
F 7

$$$$
=
 OpenBabel10272400173D

 31 34  0  0  1  0  0  0  0  0999 V2000
  186.6870  177.8840  143.5020 C   0  0  0  0  0  0  0  0  0  0  0  0
  187.0080  177.9170  144.8860 C   0  0  0  0  0  0  0  0  0  0  0  0
  188.5610  177.5510  146.7280 C   0  0  0  0  0  3  0  0  0  0  0  0
  188.2660  177.5110  145.3640 C   0  0  0  0  0  3  0  0  0  0  0  0
  184.7890  178.7910  145.3870 C   0  0  0  0  0  3  0  0  0  0  0  0
  187.6000  177.9980  147.6380 C   0  0  0  0  0  0  0  0  0  0  0  0
  185.4060  178.3160  143.0840 C   0  0  0  0  0  0  0  0  0  0  0  0
  187.9160  178.0390  149.0890 C   0  0  0  0  0  1  0  0  0  0  0  0
  184.4760  178.7690  144.0310 C   0  0  0  0  0  3  0  0  0  0  0  0
  186.0420  178.3700  145.8210 C   0  0  0  0  0  0  0  0  0  0  0  0
  186.3440  178.4070  147.1850 C   0  0  0  0  0  3  0  0  0  0  0  0
  189.1580  178.3600  140.8770 O   0  0  0  0  0  0  0  0  0  0  0  0
  187.6710  177.4230  142.4460 C   0  0  1  0  0  3  0  0  0  0  0  0
  189.9200  178.0350  142.0140 C   0  0  0  0  0  2  0  0  0  0  0  0
  187.8280  178.4190  141.3220 C   0  0  0  0  0  2  0  0  0  0  0  0
  189.0630  177.2320  142.9760 C   0  0  2  0  0  3  0  0  0  0  0  0
  190.8680  175.5660  143.3480 C   0  0  0  0  0  1  0  0  0  0  0  0
  189.4300  175.7610  142.9080 C   0  0  0  0  0  2  0  0  0  0  0  0
  185.0410  178.3560  141.6240 C   0  0  2  0  0  3  0  0  0  0  0  0
  185.3480  179.6640  141.0720 N   0  0  0  0  0  1  0  0  0  0  0  0
  183.5660  178.0380  141.4040 C   0  0  0  0  0  2  0  0  0  0  0  0
  181.9110  176.8930  139.9830 C   0  0  0  0  0  1  0  0  0  0  0  0
  183.3720  177.2860  140.1010 C   0  0  1  0  0  3  0  0  0  0  0  0
  183.7390  178.1350  139.0150 O   0  0  0  0  0  0  0  0  0  0  0  0
  186.7320  178.2790  136.8270 C   0  0  0  0  0  0  0  0  0  0  0  0
  185.0890  176.7170  135.7800 C   0  0  0  0  0  2  0  0  0  0  0  0
  187.7440  179.0230  136.7440 O   0  0  0  0  0  0  0  0  0  0  0  0
  186.0750  178.0370  138.1540 C   0  0  0  0  0  2  0  0  0  0  0  0
  184.1490  177.1560  136.8680 C   0  0  0  0  0  3  0  0  0  0  0  0
  184.6040  177.7580  137.9800 C   0  0  0  0  0  0  0  0  0  0  0  0
  186.1940  177.6620  135.6550 N   0  0  0  0  0  2  0  0  0  0  0  0
  1  2  1  0  0  0  0
  2  4  2  0  0  0  0
  2 10  1  0  0  0  0
  3  6  2  0  0  0  0
  4  3  1  0  0  0  0
  5 10  1  0  0  0  0
  6  8  1  0  0  0  0
  7  1  2  0  0  0  0
  7  9  1  0  0  0  0
  9  5  2  0  0  0  0
 10 11  2  0  0  0  0
 11  6  1  0  0  0  0
 12 15  1  0  0  0  0
 12 14  1  0  0  0  0
 13 16  1  0  0  0  0
 13  1  1  1  0  0  0
 14 16  1  0  0  0  0
 15 13  1  0  0  0  0
 16 18  1  6  0  0  0
 18 17  1  0  0  0  0
 19 20  1  1  0  0  0
 19  7  1  0  0  0  0
 21 19  1  0  0  0  0
 23 22  1  6  0  0  0
 23 21  1  0  0  0  0
 24 23  1  0  0  0  0
 25 28  1  0  0  0  0
 26 29  1  0  0  0  0
 27 25  2  0  0  0  0
 29 30  2  0  0  0  0
 30 28  1  0  0  0  0
 30 24  1  0  0  0  0
 31 26  1  0  0  0  0
 31 25  1  0  0  0  0
M  END
>  <MODEL>
6

>  <REMARK>
 VINA RESULT:      -7.8      3.769      5.366
  Name = 
  7 active torsions:
  status: ('A' for Active; 'I' for Inactive)
    1  A    between atoms: O_3  and  C_9
    2  A    between atoms: O_3  and  C_22
    3  A    between atoms: C_4  and  C_12
    4  A    between atoms: C_9  and  C_23
    5  A    between atoms: C_15  and  C_21
    6  A    between atoms: C_15  and  C_23
    7  A    between atoms: C_27  and  C_28
                            x       y       z     vdW  Elec       q    Type
                         _______ _______ _______ _____ _____    ______ ____

>  <TORSDO>
F 7

$$$$
=
 OpenBabel10272400173D

 31 34  0  0  1  0  0  0  0  0999 V2000
  188.3280  178.0190  143.5150 C   0  0  0  0  0  0  0  0  0  0  0  0
  188.2260  177.9080  144.9280 C   0  0  0  0  0  0  0  0  0  0  0  0
  189.2410  177.6790  147.1320 C   0  0  0  0  0  3  0  0  0  0  0  0
  189.3630  177.7880  145.7460 C   0  0  0  0  0  3  0  0  0  0  0  0
  185.7980  178.0470  144.7700 C   0  0  0  0  0  3  0  0  0  0  0  0
  187.9760  177.6890  147.7250 C   0  0  0  0  0  0  0  0  0  0  0  0
  187.1460  178.1480  142.7490 C   0  0  0  0  0  0  0  0  0  0  0  0
  187.8480  177.5730  149.2010 C   0  0  0  0  0  1  0  0  0  0  0  0
  185.8960  178.1660  143.3870 C   0  0  0  0  0  3  0  0  0  0  0  0
  186.9480  177.9180  145.5430 C   0  0  0  0  0  0  0  0  0  0  0  0
  186.8320  177.8080  146.9320 C   0  0  0  0  0  3  0  0  0  0  0  0
  191.9590  178.0430  143.3080 O   0  0  0  0  0  0  0  0  0  0  0  0
  189.6600  178.0260  142.7910 C   0  0  1  0  0  3  0  0  0  0  0  0
  191.6080  176.7040  143.0640 C   0  0  0  0  0  2  0  0  0  0  0  0
  190.7500  178.7020  143.5880 C   0  0  0  0  0  2  0  0  0  0  0  0
  190.1930  176.6500  142.5160 C   0  0  2  0  0  3  0  0  0  0  0  0
  191.2670  177.2880  140.3690 C   0  0  0  0  0  1  0  0  0  0  0  0
  190.2160  176.4090  141.0180 C   0  0  0  0  0  2  0  0  0  0  0  0
  187.2070  178.3290  141.2560 C   0  0  2  0  0  3  0  0  0  0  0  0
  188.2410  179.2910  140.9140 N   0  0  0  0  0  1  0  0  0  0  0  0
  185.8680  178.7900  140.6900 C   0  0  0  0  0  2  0  0  0  0  0  0
  184.2050  178.4790  138.8980 C   0  0  0  0  0  1  0  0  0  0  0  0
  185.6360  178.1920  139.3150 C   0  0  1  0  0  3  0  0  0  0  0  0
  186.5450  178.7870  138.3900 O   0  0  0  0  0  0  0  0  0  0  0  0
  189.2630  176.7670  136.8760 C   0  0  0  0  0  0  0  0  0  0  0  0
  187.8080  177.6060  135.0280 C   0  0  0  0  0  2  0  0  0  0  0  0
  190.3560  176.2920  137.2810 O   0  0  0  0  0  0  0  0  0  0  0  0
  188.1110  176.9350  137.8230 C   0  0  0  0  0  2  0  0  0  0  0  0
  187.1030  178.3960  136.0940 C   0  0  0  0  0  3  0  0  0  0  0  0
  187.2290  178.0800  137.3940 C   0  0  0  0  0  0  0  0  0  0  0  0
  189.1110  177.1590  135.5090 N   0  0  0  0  0  2  0  0  0  0  0  0
  1  2  1  0  0  0  0
  2 10  2  0  0  0  0
  2  4  1  0  0  0  0
  3  6  1  0  0  0  0
  4  3  2  0  0  0  0
  5 10  1  0  0  0  0
  6  8  1  0  0  0  0
  7  9  1  0  0  0  0
  7  1  2  0  0  0  0
  9  5  2  0  0  0  0
 10 11  1  0  0  0  0
 11  6  2  0  0  0  0
 12 15  1  0  0  0  0
 13  1  1  1  0  0  0
 13 15  1  0  0  0  0
 14 12  1  0  0  0  0
 16 18  1  6  0  0  0
 16 13  1  0  0  0  0
 16 14  1  0  0  0  0
 17 18  1  0  0  0  0
 19 20  1  1  0  0  0
 19  7  1  0  0  0  0
 21 19  1  0  0  0  0
 23 22  1  6  0  0  0
 23 21  1  0  0  0  0
 24 23  1  0  0  0  0
 25 27  2  0  0  0  0
 25 28  1  0  0  0  0
 26 31  1  0  0  0  0
 26 29  1  0  0  0  0
 29 30  2  0  0  0  0
 30 28  1  0  0  0  0
 30 24  1  0  0  0  0
 31 25  1  0  0  0  0
M  END
>  <MODEL>
7

>  <REMARK>
 VINA RESULT:      -7.6      2.382      3.829
  Name = 
  7 active torsions:
  status: ('A' for Active; 'I' for Inactive)
    1  A    between atoms: O_3  and  C_9
    2  A    between atoms: O_3  and  C_22
    3  A    between atoms: C_4  and  C_12
    4  A    between atoms: C_9  and  C_23
    5  A    between atoms: C_15  and  C_21
    6  A    between atoms: C_15  and  C_23
    7  A    between atoms: C_27  and  C_28
                            x       y       z     vdW  Elec       q    Type
                         _______ _______ _______ _____ _____    ______ ____

>  <TORSDO>
F 7

$$$$
=
 OpenBabel10272400173D

 31 34  0  0  1  0  0  0  0  0999 V2000
  185.5000  178.5950  140.0890 C   0  0  0  0  0  0  0  0  0  0  0  0
  186.4240  178.3400  139.0390 C   0  0  0  0  0  0  0  0  0  0  0  0
  186.9300  177.9360  136.6890 C   0  0  0  0  0  3  0  0  0  0  0  0
  186.0060  178.1850  137.7060 C   0  0  0  0  0  3  0  0  0  0  0  0
  188.2650  178.3970  140.6360 C   0  0  0  0  0  3  0  0  0  0  0  0
  188.2900  177.8360  136.9910 C   0  0  0  0  0  0  0  0  0  0  0  0
  185.9870  178.7510  141.4080 C   0  0  0  0  0  0  0  0  0  0  0  0
  189.2710  177.5700  135.9070 C   0  0  0  0  0  1  0  0  0  0  0  0
  187.3630  178.6550  141.6630 C   0  0  0  0  0  3  0  0  0  0  0  0
  187.8080  178.2380  139.3300 C   0  0  0  0  0  0  0  0  0  0  0  0
  188.7280  177.9870  138.3080 C   0  0  0  0  0  3  0  0  0  0  0  0
  182.5440  179.5120  138.1820 O   0  0  0  0  0  0  0  0  0  0  0  0
  184.0100  178.7260  139.8500 C   0  0  1  0  0  3  0  0  0  0  0  0
  182.6500  178.1210  138.0050 C   0  0  0  0  0  2  0  0  0  0  0  0
  183.6670  179.8810  138.9390 C   0  0  0  0  0  2  0  0  0  0  0  0
  183.4080  177.5260  139.1790 C   0  0  2  0  0  3  0  0  0  0  0  0
  181.5870  175.8490  139.3800 C   0  0  0  0  0  1  0  0  0  0  0  0
  182.4480  176.8430  140.1350 C   0  0  0  0  0  2  0  0  0  0  0  0
  185.0540  179.0800  142.5430 C   0  0  2  0  0  3  0  0  0  0  0  0
  185.4850  180.3030  143.2000 N   0  0  0  0  0  1  0  0  0  0  0  0
  184.9840  177.9470  143.5610 C   0  0  0  0  0  2  0  0  0  0  0  0
  184.4810  178.6190  145.8770 C   0  0  0  0  0  1  0  0  0  0  0  0
  185.5980  178.3770  144.8800 C   0  0  1  0  0  3  0  0  0  0  0  0
  186.4600  177.3420  145.3510 O   0  0  0  0  0  0  0  0  0  0  0  0
  190.1210  177.2790  145.9500 C   0  0  0  0  0  0  0  0  0  0  0  0
  189.0020  177.9100  148.0920 C   0  0  0  0  0  2  0  0  0  0  0  0
  191.1220  176.8450  145.3220 O   0  0  0  0  0  0  0  0  0  0  0  0
  188.9110  177.7640  145.2060 C   0  0  0  0  0  2  0  0  0  0  0  0
  187.7140  177.6250  147.3720 C   0  0  0  0  0  3  0  0  0  0  0  0
  187.6640  177.5700  146.0300 C   0  0  0  0  0  0  0  0  0  0  0  0
  190.1240  177.3060  147.3800 N   0  0  0  0  0  2  0  0  0  0  0  0
  1  7  1  0  0  0  0
  2 10  1  0  0  0  0
  2  1  2  0  0  0  0
  3  6  1  0  0  0  0
  3  4  2  0  0  0  0
  4  2  1  0  0  0  0
  5  9  1  0  0  0  0
  6 11  2  0  0  0  0
  7  9  2  0  0  0  0
  7 19  1  0  0  0  0
  8  6  1  0  0  0  0
 10  5  2  0  0  0  0
 11 10  1  0  0  0  0
 12 15  1  0  0  0  0
 13  1  1  6  0  0  0
 14 12  1  0  0  0  0
 14 16  1  0  0  0  0
 15 13  1  0  0  0  0
 16 13  1  0  0  0  0
 16 18  1  1  0  0  0
 17 18  1  0  0  0  0
 19 20  1  1  0  0  0
 19 21  1  0  0  0  0
 21 23  1  0  0  0  0
 23 24  1  0  0  0  0
 23 22  1  1  0  0  0
 24 30  1  0  0  0  0
 25 31  1  0  0  0  0
 27 25  2  0  0  0  0
 28 25  1  0  0  0  0
 28 30  1  0  0  0  0
 29 26  1  0  0  0  0
 30 29  2  0  0  0  0
 31 26  1  0  0  0  0
M  END
>  <MODEL>
8

>  <REMARK>
 VINA RESULT:      -7.6      4.062      8.766
  Name = 
  7 active torsions:
  status: ('A' for Active; 'I' for Inactive)
    1  A    between atoms: O_3  and  C_9
    2  A    between atoms: O_3  and  C_22
    3  A    between atoms: C_4  and  C_12
    4  A    between atoms: C_9  and  C_23
    5  A    between atoms: C_15  and  C_21
    6  A    between atoms: C_15  and  C_23
    7  A    between atoms: C_27  and  C_28
                            x       y       z     vdW  Elec       q    Type
                         _______ _______ _______ _____ _____    ______ ____

>  <TORSDO>
F 7

$$$$
=
 OpenBabel10272400173D

 31 34  0  0  1  0  0  0  0  0999 V2000
  186.5830  177.8730  143.4800 C   0  0  0  0  0  0  0  0  0  0  0  0
  186.9160  177.9200  144.8610 C   0  0  0  0  0  0  0  0  0  0  0  0
  188.4850  177.5760  146.6940 C   0  0  0  0  0  3  0  0  0  0  0  0
  188.1790  177.5210  145.3320 C   0  0  0  0  0  3  0  0  0  0  0  0
  184.7000  178.7960  145.3720 C   0  0  0  0  0  3  0  0  0  0  0  0
  187.5320  178.0300  147.6070 C   0  0  0  0  0  0  0  0  0  0  0  0
  185.2980  178.2980  143.0690 C   0  0  0  0  0  0  0  0  0  0  0  0
  187.8600  178.0870  149.0550 C   0  0  0  0  0  1  0  0  0  0  0  0
  184.3750  178.7590  144.0200 C   0  0  0  0  0  3  0  0  0  0  0  0
  185.9580  178.3810  145.7990 C   0  0  0  0  0  0  0  0  0  0  0  0
  186.2710  178.4320  147.1610 C   0  0  0  0  0  3  0  0  0  0  0  0
  189.0570  178.3250  140.8540 O   0  0  0  0  0  0  0  0  0  0  0  0
  187.5590  177.4020  142.4210 C   0  0  1  0  0  3  0  0  0  0  0  0
  189.8160  177.9840  141.9880 C   0  0  0  0  0  2  0  0  0  0  0  0
  187.7290  178.4010  141.3010 C   0  0  0  0  0  2  0  0  0  0  0  0
  188.9490  177.1880  142.9480 C   0  0  2  0  0  3  0  0  0  0  0  0
  190.7170  175.4890  143.3480 C   0  0  0  0  0  1  0  0  0  0  0  0
  189.2950  175.7130  142.8720 C   0  0  0  0  0  2  0  0  0  0  0  0
  184.9200  178.3220  141.6120 C   0  0  2  0  0  3  0  0  0  0  0  0
  185.3340  179.5800  141.0130 N   0  0  0  0  0  1  0  0  0  0  0  0
  183.4210  178.1280  141.4160 C   0  0  0  0  0  2  0  0  0  0  0  0
  183.0030  176.5260  139.5910 C   0  0  0  0  0  1  0  0  0  0  0  0
  183.0880  178.0000  139.9410 C   0  0  1  0  0  3  0  0  0  0  0  0
  181.8360  178.6360  139.6900 O   0  0  0  0  0  0  0  0  0  0  0  0
  181.0710  181.7300  137.7910 C   0  0  0  0  0  0  0  0  0  0  0  0
  180.7280  179.7860  136.2620 C   0  0  0  0  0  2  0  0  0  0  0  0
  180.8770  182.9380  138.0900 O   0  0  0  0  0  0  0  0  0  0  0  0
  181.9890  180.8820  138.6210 C   0  0  0  0  0  2  0  0  0  0  0  0
  180.9730  178.9340  137.4760 C   0  0  0  0  0  3  0  0  0  0  0  0
  181.5710  179.4350  138.5700 C   0  0  0  0  0  0  0  0  0  0  0  0
  180.4120  181.1540  136.6610 N   0  0  0  0  0  2  0  0  0  0  0  0
  1  2  1  0  0  0  0
  2  4  2  0  0  0  0
  2 10  1  0  0  0  0
  3  6  2  0  0  0  0
  4  3  1  0  0  0  0
  5 10  1  0  0  0  0
  6  8  1  0  0  0  0
  7  1  2  0  0  0  0
  7  9  1  0  0  0  0
  9  5  2  0  0  0  0
 10 11  2  0  0  0  0
 11  6  1  0  0  0  0
 12 15  1  0  0  0  0
 12 14  1  0  0  0  0
 13 16  1  0  0  0  0
 13  1  1  1  0  0  0
 14 16  1  0  0  0  0
 15 13  1  0  0  0  0
 16 18  1  6  0  0  0
 18 17  1  0  0  0  0
 19 20  1  1  0  0  0
 19  7  1  0  0  0  0
 21 19  1  0  0  0  0
 23 22  1  1  0  0  0
 23 21  1  0  0  0  0
 24 23  1  0  0  0  0
 25 27  2  0  0  0  0
 25 28  1  0  0  0  0
 26 31  1  0  0  0  0
 26 29  1  0  0  0  0
 29 30  2  0  0  0  0
 30 28  1  0  0  0  0
 30 24  1  0  0  0  0
 31 25  1  0  0  0  0
M  END
>  <MODEL>
9

>  <REMARK>
 VINA RESULT:      -7.5      4.689      7.539
  Name = 
  7 active torsions:
  status: ('A' for Active; 'I' for Inactive)
    1  A    between atoms: O_3  and  C_9
    2  A    between atoms: O_3  and  C_22
    3  A    between atoms: C_4  and  C_12
    4  A    between atoms: C_9  and  C_23
    5  A    between atoms: C_15  and  C_21
    6  A    between atoms: C_15  and  C_23
    7  A    between atoms: C_27  and  C_28
                            x       y       z     vdW  Elec       q    Type
                         _______ _______ _______ _____ _____    ______ ____

>  <TORSDO>
F 7

$$$$
