=
 OpenBabel10272400363D

 31 34  0  0  1  0  0  0  0  0999 V2000
  186.1890  177.2140  135.0600 C   0  0  0  0  0  2  0  0  0  0  0  0
  188.8880  177.8220  137.2240 C   0  0  1  0  0  3  0  0  0  0  0  0
  189.1540  176.3520  137.0250 C   0  0  0  0  0  0  0  0  0  0  0  0
  188.2680  174.0120  137.1330 C   0  0  0  0  0  2  0  0  0  0  0  0
  187.4610  178.3270  136.9780 C   0  0  1  0  0  3  0  0  0  0  0  0
  184.5170  176.9910  136.9280 C   0  0  0  0  0  2  0  0  0  0  0  0
  188.1320  175.3870  136.4810 C   0  0  0  0  0  2  0  0  0  0  0  0
  188.3410  177.7120  139.7110 C   0  0  1  0  0  3  0  0  0  0  0  0
  184.7270  177.3320  135.4610 C   0  0  0  0  0  2  0  0  0  0  0  0
  191.2900  176.9420  138.0270 C   0  0  0  0  0  2  0  0  0  0  0  0
  189.6860  173.4810  136.9350 C   0  0  0  0  0  2  0  0  0  0  0  0
  186.8830  177.8240  139.3250 C   0  0  0  0  0  3  0  0  0  0  0  0
  189.3480  178.2070  138.6510 C   0  0  1  0  0  3  0  0  0  0  0  0
  186.9880  178.4240  135.5250 C   0  0  0  0  0  2  0  0  0  0  0  0
  191.8320  174.0910  137.7850 O   0  0  0  0  0  0  0  0  0  0  0  0
  186.4620  178.0310  138.0690 C   0  0  0  0  0  0  0  0  0  0  0  0
  184.9900  178.1250  137.8240 C   0  0  0  0  0  2  0  0  0  0  0  0
  190.6540  177.7460  139.0140 O   0  0  0  0  0  0  0  0  0  0  0  0
  190.3540  175.9200  137.4370 C   0  0  0  0  0  0  0  0  0  0  0  0
  190.6930  174.4830  137.4200 C   0  0  0  0  0  0  0  0  0  0  0  0
  188.5960  178.3160  141.0920 C   0  0  0  0  0  2  0  0  0  0  0  0
  187.1720  177.3420  142.7670 O   0  0  0  0  0  1  0  0  0  0  0  0
  188.4600  177.2920  142.2220 C   0  0  2  0  0  3  0  0  0  0  0  0
  189.5310  177.4580  143.3180 C   0  0  2  0  0  0  0  0  0  0  0  0
  190.0450  178.7600  143.2670 O   0  0  0  0  0  1  0  0  0  0  0  0
  190.6420  176.4810  143.0340 C   0  0  0  0  0  0  0  0  0  0  0  0
  191.8290  176.8850  142.9010 O   0  0  0  0  0  1  0  0  0  0  0  0
  190.3600  175.1320  142.8440 O   0  0  0  0  0  0  0  0  0  0  0  0
  188.3150  178.3330  145.2140 F   0  0  0  0  0  0  0  0  0  0  0  0
  189.9590  176.8280  145.6140 O   0  0  0  0  0  1  0  0  0  0  0  0
  188.9510  177.2060  144.7230 C   0  0  2  0  0  3  0  0  0  0  0  0
  1  9  1  0  0  0  0
  1 14  1  0  0  0  0
  2  3  1  1  0  0  0
  2 13  1  0  0  0  0
  3 19  2  0  0  0  0
  5 14  1  6  0  0  0
  5  2  1  0  0  0  0
  5 16  1  0  0  0  0
  6 17  1  0  0  0  0
  7  3  1  0  0  0  0
  7  4  1  0  0  0  0
  8 21  1  1  0  0  0
  9  6  1  0  0  0  0
 10 18  1  0  0  0  0
 11  4  1  0  0  0  0
 11 20  1  0  0  0  0
 12  8  1  0  0  0  0
 13 18  1  1  0  0  0
 13  8  1  0  0  0  0
 16 12  2  0  0  0  0
 17 16  1  0  0  0  0
 19 10  1  0  0  0  0
 20 19  1  0  0  0  0
 20 15  2  0  0  0  0
 21 23  1  0  0  0  0
 23 22  1  1  0  0  0
 23 24  1  0  0  0  0
 24 25  1  6  0  0  0
 24 31  1  0  0  0  0
 26 24  1  0  0  0  0
 27 26  1  0  0  0  0
 28 26  2  0  0  0  0
 31 29  1  1  0  0  0
 31 30  1  0  0  0  0
M  END
>  <MODEL>
1

>  <REMARK>
 VINA RESULT:      -6.9      0.000      0.000
  Name = 
  5 active torsions:
  status: ('A' for Active; 'I' for Inactive)
    1  A    between atoms: C_1  and  C_19
    2  A    between atoms: C_9  and  C_19
    3  A    between atoms: C_9  and  C_23
    4  A    between atoms: C_15  and  C_23
    5  A    between atoms: C_19  and  C_22
                            x       y       z     vdW  Elec       q    Type
                         _______ _______ _______ _____ _____    ______ ____

>  <TORSDO>
F 5

$$$$
=
 OpenBabel10272400363D

 31 34  0  0  1  0  0  0  0  0999 V2000
  188.9780  177.6860  148.0840 C   0  0  0  0  0  2  0  0  0  0  0  0
  188.5140  176.5140  144.8070 C   0  0  1  0  0  3  0  0  0  0  0  0
  189.7440  177.3370  144.5220 C   0  0  0  0  0  0  0  0  0  0  0  0
  190.8650  179.5720  144.6560 C   0  0  0  0  0  2  0  0  0  0  0  0
  187.6760  176.8860  146.0350 C   0  0  1  0  0  3  0  0  0  0  0  0
  187.2880  179.5350  147.8470 C   0  0  0  0  0  2  0  0  0  0  0  0
  190.2560  178.4140  145.4440 C   0  0  0  0  0  2  0  0  0  0  0  0
  186.8900  177.8660  143.3810 C   0  0  1  0  0  3  0  0  0  0  0  0
  188.0080  178.6050  148.8110 C   0  0  0  0  0  2  0  0  0  0  0  0
  189.7170  176.0580  142.4540 C   0  0  0  0  0  2  0  0  0  0  0  0
  191.9770  179.0530  143.7450 C   0  0  0  0  0  2  0  0  0  0  0  0
  186.3860  178.4850  144.6660 C   0  0  0  0  0  3  0  0  0  0  0  0
  187.6260  176.5190  143.5380 C   0  0  1  0  0  3  0  0  0  0  0  0
  188.2470  176.5320  147.4110 C   0  0  0  0  0  2  0  0  0  0  0  0
  192.0300  177.6950  141.7820 O   0  0  0  0  0  0  0  0  0  0  0  0
  186.7900  178.0980  145.8840 C   0  0  0  0  0  0  0  0  0  0  0  0
  186.2090  178.7920  147.0750 C   0  0  0  0  0  2  0  0  0  0  0  0
  188.3120  176.2300  142.3150 O   0  0  0  0  0  0  0  0  0  0  0  0
  190.3330  177.1080  143.3410 C   0  0  0  0  0  0  0  0  0  0  0  0
  191.4680  177.9350  142.8830 C   0  0  0  0  0  0  0  0  0  0  0  0
  185.7890  177.8150  142.3220 C   0  0  0  0  0  2  0  0  0  0  0  0
  185.2820  180.1600  142.1570 O   0  0  0  0  0  1  0  0  0  0  0  0
  185.7620  179.0630  141.4340 C   0  0  2  0  0  3  0  0  0  0  0  0
  184.9560  178.8600  140.1360 C   0  0  2  0  0  0  0  0  0  0  0  0
  184.5550  180.1080  139.6420 O   0  0  0  0  0  1  0  0  0  0  0  0
  183.7310  178.0490  140.4710 C   0  0  0  0  0  0  0  0  0  0  0  0
  183.5200  176.9460  139.9000 O   0  0  0  0  0  0  0  0  0  0  0  0
  182.7840  178.5440  141.3620 O   0  0  0  0  0  1  0  0  0  0  0  0
  187.1200  178.0580  139.4220 F   0  0  0  0  0  0  0  0  0  0  0  0
  185.6920  178.8050  137.8320 O   0  0  0  0  0  1  0  0  0  0  0  0
  185.7870  178.1400  139.0570 C   0  0  2  0  0  3  0  0  0  0  0  0
  1  9  1  0  0  0  0
  2  3  1  6  0  0  0
  2  5  1  0  0  0  0
  3  7  1  0  0  0  0
  4  7  1  0  0  0  0
  5 14  1  1  0  0  0
  6  9  1  0  0  0  0
  8 21  1  6  0  0  0
  8 13  1  0  0  0  0
  8 12  1  0  0  0  0
 10 19  1  0  0  0  0
 11  4  1  0  0  0  0
 12 16  2  0  0  0  0
 13 18  1  6  0  0  0
 13  2  1  0  0  0  0
 14  1  1  0  0  0  0
 15 20  2  0  0  0  0
 16  5  1  0  0  0  0
 16 17  1  0  0  0  0
 17  6  1  0  0  0  0
 18 10  1  0  0  0  0
 19  3  2  0  0  0  0
 20 19  1  0  0  0  0
 20 11  1  0  0  0  0
 23 22  1  1  0  0  0
 23 21  1  0  0  0  0
 24 25  1  6  0  0  0
 24 26  1  0  0  0  0
 24 23  1  0  0  0  0
 26 28  1  0  0  0  0
 27 26  2  0  0  0  0
 31 30  1  6  0  0  0
 31 29  1  0  0  0  0
 31 24  1  0  0  0  0
M  END
>  <MODEL>
2

>  <REMARK>
 VINA RESULT:      -6.9      3.576      7.971
  Name = 
  5 active torsions:
  status: ('A' for Active; 'I' for Inactive)
    1  A    between atoms: C_1  and  C_19
    2  A    between atoms: C_9  and  C_19
    3  A    between atoms: C_9  and  C_23
    4  A    between atoms: C_15  and  C_23
    5  A    between atoms: C_19  and  C_22
                            x       y       z     vdW  Elec       q    Type
                         _______ _______ _______ _____ _____    ______ ____

>  <TORSDO>
F 5

$$$$
=
 OpenBabel10272400363D

 31 34  0  0  1  0  0  0  0  0999 V2000
  185.6840  176.8100  134.9050 C   0  0  0  0  0  2  0  0  0  0  0  0
  188.9280  177.1680  136.2020 C   0  0  1  0  0  3  0  0  0  0  0  0
  188.9410  175.6630  136.1180 C   0  0  0  0  0  0  0  0  0  0  0  0
  187.8300  173.5050  136.7330 C   0  0  0  0  0  2  0  0  0  0  0  0
  187.5650  177.8660  136.2780 C   0  0  1  0  0  3  0  0  0  0  0  0
  184.5760  177.0010  137.1570 C   0  0  0  0  0  2  0  0  0  0  0  0
  187.6950  174.8270  135.9790 C   0  0  0  0  0  2  0  0  0  0  0  0
  189.0780  177.3460  138.7410 C   0  0  1  0  0  3  0  0  0  0  0  0
  184.4150  177.1850  135.6560 C   0  0  0  0  0  2  0  0  0  0  0  0
  191.3270  175.9960  136.4500 C   0  0  0  0  0  2  0  0  0  0  0  0
  189.0600  172.7460  136.2370 C   0  0  0  0  0  2  0  0  0  0  0  0
  187.5960  177.6500  138.7370 C   0  0  0  0  0  3  0  0  0  0  0  0
  189.8090  177.5920  137.4030 C   0  0  1  0  0  3  0  0  0  0  0  0
  186.7270  177.9160  134.9970 C   0  0  0  0  0  2  0  0  0  0  0  0
  191.4160  173.0860  136.4190 O   0  0  0  0  0  0  0  0  0  0  0  0
  186.8760  177.8170  137.6190 C   0  0  0  0  0  0  0  0  0  0  0  0
  185.4170  178.1170  137.7570 C   0  0  0  0  0  2  0  0  0  0  0  0
  191.0950  176.9660  137.4650 O   0  0  0  0  0  0  0  0  0  0  0  0
  190.1430  175.0870  136.2510 C   0  0  0  0  0  0  0  0  0  0  0  0
  190.2800  173.6170  136.3190 C   0  0  0  0  0  0  0  0  0  0  0  0
  189.7770  178.0140  139.9240 C   0  0  0  0  0  2  0  0  0  0  0  0
  188.3180  178.9090  141.6120 O   0  0  0  0  0  1  0  0  0  0  0  0
  189.0530  177.7750  141.2530 C   0  0  2  0  0  3  0  0  0  0  0  0
  190.0040  177.3490  142.3880 C   0  0  2  0  0  0  0  0  0  0  0  0
  191.3090  177.2580  141.8880 O   0  0  0  0  0  1  0  0  0  0  0  0
  189.5690  175.9900  142.8730 C   0  0  0  0  0  0  0  0  0  0  0  0
  190.4050  175.0530  142.9770 O   0  0  0  0  0  0  0  0  0  0  0  0
  188.2290  175.7360  143.1420 O   0  0  0  0  0  1  0  0  0  0  0  0
  190.9200  179.3600  143.3650 F   0  0  0  0  0  0  0  0  0  0  0  0
  190.2460  177.7160  144.7670 O   0  0  0  0  0  1  0  0  0  0  0  0
  189.9850  178.3570  143.5530 C   0  0  2  0  0  3  0  0  0  0  0  0
  1 14  1  0  0  0  0
  1  9  1  0  0  0  0
  2  3  1  1  0  0  0
  2  5  1  0  0  0  0
  2 13  1  0  0  0  0
  3 19  2  0  0  0  0
  5 14  1  6  0  0  0
  5 16  1  0  0  0  0
  6 17  1  0  0  0  0
  7  3  1  0  0  0  0
  7  4  1  0  0  0  0
  8 21  1  1  0  0  0
  9  6  1  0  0  0  0
 10 18  1  0  0  0  0
 11 20  1  0  0  0  0
 11  4  1  0  0  0  0
 12  8  1  0  0  0  0
 13 18  1  1  0  0  0
 13  8  1  0  0  0  0
 16 17  1  0  0  0  0
 16 12  2  0  0  0  0
 19 20  1  0  0  0  0
 19 10  1  0  0  0  0
 20 15  2  0  0  0  0
 21 23  1  0  0  0  0
 23 22  1  1  0  0  0
 23 24  1  0  0  0  0
 24 25  1  6  0  0  0
 24 26  1  0  0  0  0
 24 31  1  0  0  0  0
 26 27  2  0  0  0  0
 26 28  1  0  0  0  0
 31 29  1  6  0  0  0
 31 30  1  0  0  0  0
M  END
>  <MODEL>
3

>  <REMARK>
 VINA RESULT:      -6.8      1.310      1.519
  Name = 
  5 active torsions:
  status: ('A' for Active; 'I' for Inactive)
    1  A    between atoms: C_1  and  C_19
    2  A    between atoms: C_9  and  C_19
    3  A    between atoms: C_9  and  C_23
    4  A    between atoms: C_15  and  C_23
    5  A    between atoms: C_19  and  C_22
                            x       y       z     vdW  Elec       q    Type
                         _______ _______ _______ _____ _____    ______ ____

>  <TORSDO>
F 5

$$$$
=
 OpenBabel10272400363D

 31 34  0  0  1  0  0  0  0  0999 V2000
  189.2330  177.7220  148.1320 C   0  0  0  0  0  2  0  0  0  0  0  0
  188.3990  176.4750  144.9560 C   0  0  1  0  0  3  0  0  0  0  0  0
  189.5660  177.3160  144.5090 C   0  0  0  0  0  0  0  0  0  0  0  0
  190.6460  179.5760  144.4660 C   0  0  0  0  0  2  0  0  0  0  0  0
  187.7090  176.8540  146.2710 C   0  0  1  0  0  3  0  0  0  0  0  0
  187.4850  179.5320  148.0710 C   0  0  0  0  0  2  0  0  0  0  0  0
  190.1630  178.4210  145.3430 C   0  0  0  0  0  2  0  0  0  0  0  0
  186.5830  177.7660  143.7170 C   0  0  1  0  0  3  0  0  0  0  0  0
  188.3390  178.6350  148.9550 C   0  0  0  0  0  2  0  0  0  0  0  0
  189.3170  175.9960  142.4830 C   0  0  0  0  0  2  0  0  0  0  0  0
  191.6500  179.0610  143.4350 C   0  0  0  0  0  2  0  0  0  0  0  0
  186.2260  178.3990  145.0430 C   0  0  0  0  0  3  0  0  0  0  0  0
  187.3630  176.4360  143.8050 C   0  0  1  0  0  3  0  0  0  0  0  0
  188.4510  176.5400  147.5730 C   0  0  0  0  0  2  0  0  0  0  0  0
  191.4930  177.6640  141.5040 O   0  0  0  0  0  0  0  0  0  0  0  0
  186.7840  178.0460  146.2080 C   0  0  0  0  0  0  0  0  0  0  0  0
  186.3380  178.7520  147.4490 C   0  0  0  0  0  2  0  0  0  0  0  0
  187.9010  176.1370  142.5130 O   0  0  0  0  0  0  0  0  0  0  0  0
  190.0120  177.0750  143.2690 C   0  0  0  0  0  0  0  0  0  0  0  0
  191.0640  177.9160  142.6610 C   0  0  0  0  0  0  0  0  0  0  0  0
  185.3630  177.6710  142.8010 C   0  0  0  0  0  2  0  0  0  0  0  0
  185.6080  179.9480  142.0670 O   0  0  0  0  0  1  0  0  0  0  0  0
  185.4360  178.6360  141.6130 C   0  0  2  0  0  3  0  0  0  0  0  0
  184.2180  178.5290  140.6750 C   0  0  2  0  0  0  0  0  0  0  0  0
  183.8650  177.1820  140.5280 O   0  0  0  0  0  1  0  0  0  0  0  0
  184.6170  179.0820  139.3310 C   0  0  0  0  0  0  0  0  0  0  0  0
  184.3930  180.2880  139.0450 O   0  0  0  0  0  1  0  0  0  0  0  0
  185.1720  178.2480  138.3660 O   0  0  0  0  0  0  0  0  0  0  0  0
  182.7170  178.9260  142.5270 F   0  0  0  0  0  0  0  0  0  0  0  0
  181.8780  179.0930  140.4300 O   0  0  0  0  0  1  0  0  0  0  0  0
  183.0070  179.3050  141.2270 C   0  0  2  0  0  3  0  0  0  0  0  0
  1  9  1  0  0  0  0
  2  3  1  6  0  0  0
  2  5  1  0  0  0  0
  3  7  1  0  0  0  0
  4  7  1  0  0  0  0
  5 14  1  1  0  0  0
  6  9  1  0  0  0  0
  8 21  1  1  0  0  0
  8 13  1  0  0  0  0
  8 12  1  0  0  0  0
 10 18  1  0  0  0  0
 10 19  1  0  0  0  0
 11  4  1  0  0  0  0
 12 16  2  0  0  0  0
 13 18  1  6  0  0  0
 13  2  1  0  0  0  0
 14  1  1  0  0  0  0
 15 20  2  0  0  0  0
 16  5  1  0  0  0  0
 16 17  1  0  0  0  0
 17  6  1  0  0  0  0
 19  3  2  0  0  0  0
 20 19  1  0  0  0  0
 20 11  1  0  0  0  0
 23 22  1  1  0  0  0
 23 21  1  0  0  0  0
 24 25  1  6  0  0  0
 24 31  1  0  0  0  0
 24 23  1  0  0  0  0
 26 24  1  0  0  0  0
 27 26  1  0  0  0  0
 28 26  2  0  0  0  0
 31 30  1  6  0  0  0
 31 29  1  0  0  0  0
M  END
>  <MODEL>
4

>  <REMARK>
 VINA RESULT:      -6.3      3.972      8.099
  Name = 
  5 active torsions:
  status: ('A' for Active; 'I' for Inactive)
    1  A    between atoms: C_1  and  C_19
    2  A    between atoms: C_9  and  C_19
    3  A    between atoms: C_9  and  C_23
    4  A    between atoms: C_15  and  C_23
    5  A    between atoms: C_19  and  C_22
                            x       y       z     vdW  Elec       q    Type
                         _______ _______ _______ _____ _____    ______ ____

>  <TORSDO>
F 5

$$$$
=
 OpenBabel10272400363D

 31 34  0  0  1  0  0  0  0  0999 V2000
  187.3800  178.0500  136.4300 C   0  0  0  0  0  2  0  0  0  0  0  0
  190.5330  177.6940  137.9340 C   0  0  1  0  0  3  0  0  0  0  0  0
  190.4500  176.2960  137.3760 C   0  0  0  0  0  0  0  0  0  0  0  0
  189.1510  174.1620  137.2130 C   0  0  0  0  0  2  0  0  0  0  0  0
  189.2190  178.4500  138.1600 C   0  0  1  0  0  3  0  0  0  0  0  0
  186.1200  177.6220  138.5670 C   0  0  0  0  0  2  0  0  0  0  0  0
  189.1640  175.6600  136.9140 C   0  0  0  0  0  2  0  0  0  0  0  0
  190.5020  177.0510  140.4010 C   0  0  1  0  0  3  0  0  0  0  0  0
  186.0870  178.2810  137.1970 C   0  0  0  0  0  2  0  0  0  0  0  0
  192.8210  176.2950  137.9160 C   0  0  0  0  0  2  0  0  0  0  0  0
  190.3600  173.4910  136.5640 C   0  0  0  0  0  2  0  0  0  0  0  0
  189.0490  177.4710  140.4200 C   0  0  0  0  0  3  0  0  0  0  0  0
  191.3470  177.6390  139.2510 C   0  0  1  0  0  3  0  0  0  0  0  0
  188.4860  178.9740  136.9230 C   0  0  0  0  0  2  0  0  0  0  0  0
  192.7140  173.5460  136.9620 O   0  0  0  0  0  0  0  0  0  0  0  0
  188.4290  178.0440  139.3800 C   0  0  0  0  0  0  0  0  0  0  0  0
  186.9880  178.4140  139.5330 C   0  0  0  0  0  2  0  0  0  0  0  0
  192.5790  176.9140  139.1740 O   0  0  0  0  0  0  0  0  0  0  0  0
  191.5960  175.6030  137.3780 C   0  0  0  0  0  0  0  0  0  0  0  0
  191.6270  174.1810  136.9800 C   0  0  0  0  0  0  0  0  0  0  0  0
  191.1540  177.2490  141.7690 C   0  0  0  0  0  2  0  0  0  0  0  0
  190.5690  178.9250  143.3910 O   0  0  0  0  0  1  0  0  0  0  0  0
  190.1580  177.7070  142.8400 C   0  0  2  0  0  3  0  0  0  0  0  0
  189.9280  176.6520  143.9390 C   0  0  2  0  0  0  0  0  0  0  0  0
  189.5350  175.4460  143.3450 O   0  0  0  0  0  1  0  0  0  0  0  0
  188.8160  177.1440  144.8300 C   0  0  0  0  0  0  0  0  0  0  0  0
  189.0680  177.5650  145.9910 O   0  0  0  0  0  1  0  0  0  0  0  0
  187.4930  177.0720  144.4070 O   0  0  0  0  0  0  0  0  0  0  0  0
  191.9630  177.5610  144.8720 F   0  0  0  0  0  0  0  0  0  0  0  0
  191.9820  175.4000  144.1970 O   0  0  0  0  0  1  0  0  0  0  0  0
  191.2020  176.4090  144.7700 C   0  0  2  0  0  3  0  0  0  0  0  0
  1 14  1  0  0  0  0
  1  9  1  0  0  0  0
  2  3  1  1  0  0  0
  2  5  1  0  0  0  0
  2 13  1  0  0  0  0
  3 19  2  0  0  0  0
  5 14  1  6  0  0  0
  5 16  1  0  0  0  0
  6 17  1  0  0  0  0
  7  4  1  0  0  0  0
  7  3  1  0  0  0  0
  8 12  1  0  0  0  0
  8 21  1  1  0  0  0
  9  6  1  0  0  0  0
 10 18  1  0  0  0  0
 11 20  1  0  0  0  0
 11  4  1  0  0  0  0
 13 18  1  6  0  0  0
 13  8  1  0  0  0  0
 15 20  2  0  0  0  0
 16 17  1  0  0  0  0
 16 12  2  0  0  0  0
 19 10  1  0  0  0  0
 20 19  1  0  0  0  0
 21 23  1  0  0  0  0
 23 22  1  1  0  0  0
 23 24  1  0  0  0  0
 24 25  1  6  0  0  0
 24 31  1  0  0  0  0
 24 26  1  0  0  0  0
 26 27  1  0  0  0  0
 28 26  2  0  0  0  0
 31 30  1  6  0  0  0
 31 29  1  0  0  0  0
M  END
>  <MODEL>
5

>  <REMARK>
 VINA RESULT:      -6.3      1.418      2.397
  Name = 
  5 active torsions:
  status: ('A' for Active; 'I' for Inactive)
    1  A    between atoms: C_1  and  C_19
    2  A    between atoms: C_9  and  C_19
    3  A    between atoms: C_9  and  C_23
    4  A    between atoms: C_15  and  C_23
    5  A    between atoms: C_19  and  C_22
                            x       y       z     vdW  Elec       q    Type
                         _______ _______ _______ _____ _____    ______ ____

>  <TORSDO>
F 5

$$$$
=
 OpenBabel10272400363D

 31 34  0  0  1  0  0  0  0  0999 V2000
  187.3210  178.0120  136.5560 C   0  0  0  0  0  2  0  0  0  0  0  0
  190.5320  177.6760  137.9380 C   0  0  1  0  0  3  0  0  0  0  0  0
  190.4290  176.2720  137.4010 C   0  0  0  0  0  0  0  0  0  0  0  0
  189.1270  174.1340  137.3170 C   0  0  0  0  0  2  0  0  0  0  0  0
  189.2270  178.4340  138.2070 C   0  0  1  0  0  3  0  0  0  0  0  0
  186.1480  177.6090  138.7460 C   0  0  0  0  0  2  0  0  0  0  0  0
  189.1260  175.6290  136.9990 C   0  0  0  0  0  2  0  0  0  0  0  0
  190.5990  177.0650  140.4130 C   0  0  1  0  0  3  0  0  0  0  0  0
  186.0590  178.2510  137.3700 C   0  0  0  0  0  2  0  0  0  0  0  0
  192.8190  176.2790  137.8470 C   0  0  0  0  0  2  0  0  0  0  0  0
  190.3100  173.4570  136.6290 C   0  0  0  0  0  2  0  0  0  0  0  0
  189.1480  177.4840  140.4840 C   0  0  0  0  0  3  0  0  0  0  0  0
  191.3980  177.6390  139.2220 C   0  0  1  0  0  3  0  0  0  0  0  0
  188.4450  178.9420  136.9920 C   0  0  0  0  0  2  0  0  0  0  0  0
  192.6780  173.5180  136.9330 O   0  0  0  0  0  0  0  0  0  0  0  0
  188.4860  178.0430  139.4610 C   0  0  0  0  0  0  0  0  0  0  0  0
  187.0510  178.4140  139.6660 C   0  0  0  0  0  2  0  0  0  0  0  0
  192.6270  176.9130  139.1060 O   0  0  0  0  0  0  0  0  0  0  0  0
  191.5750  175.5790  137.3670 C   0  0  0  0  0  0  0  0  0  0  0  0
  191.5920  174.1520  136.9860 C   0  0  0  0  0  0  0  0  0  0  0  0
  191.3040  177.2810  141.7520 C   0  0  0  0  0  2  0  0  0  0  0  0
  190.7880  179.1910  143.1170 O   0  0  0  0  0  1  0  0  0  0  0  0
  190.3840  177.8860  142.8160 C   0  0  2  0  0  3  0  0  0  0  0  0
  190.2910  177.0270  144.0910 C   0  0  2  0  0  0  0  0  0  0  0  0
  191.0770  177.6060  145.0960 O   0  0  0  0  0  1  0  0  0  0  0  0
  190.8350  175.6590  143.7700 C   0  0  0  0  0  0  0  0  0  0  0  0
  191.9820  175.3190  144.1690 O   0  0  0  0  0  1  0  0  0  0  0  0
  190.1080  174.7840  142.9710 O   0  0  0  0  0  0  0  0  0  0  0  0
  187.9340  177.0900  143.5640 F   0  0  0  0  0  0  0  0  0  0  0  0
  188.5850  177.8620  145.5910 O   0  0  0  0  0  1  0  0  0  0  0  0
  188.8400  176.9140  144.5960 C   0  0  2  0  0  3  0  0  0  0  0  0
  1 14  1  0  0  0  0
  1  9  1  0  0  0  0
  2  3  1  1  0  0  0
  2  5  1  0  0  0  0
  2 13  1  0  0  0  0
  5 14  1  6  0  0  0
  5 16  1  0  0  0  0
  6 17  1  0  0  0  0
  7  4  1  0  0  0  0
  7  3  1  0  0  0  0
  8 12  1  0  0  0  0
  8 21  1  1  0  0  0
  9  6  1  0  0  0  0
 10 18  1  0  0  0  0
 11 20  1  0  0  0  0
 11  4  1  0  0  0  0
 13 18  1  6  0  0  0
 13  8  1  0  0  0  0
 15 20  2  0  0  0  0
 16 17  1  0  0  0  0
 16 12  2  0  0  0  0
 19  3  2  0  0  0  0
 19 10  1  0  0  0  0
 20 19  1  0  0  0  0
 21 23  1  0  0  0  0
 23 22  1  1  0  0  0
 23 24  1  0  0  0  0
 24 31  1  0  0  0  0
 24 25  1  1  0  0  0
 26 24  1  0  0  0  0
 26 27  1  0  0  0  0
 28 26  2  0  0  0  0
 31 29  1  6  0  0  0
 31 30  1  0  0  0  0
M  END
>  <MODEL>
6

>  <REMARK>
 VINA RESULT:      -6.2      1.412      2.021
  Name = 
  5 active torsions:
  status: ('A' for Active; 'I' for Inactive)
    1  A    between atoms: C_1  and  C_19
    2  A    between atoms: C_9  and  C_19
    3  A    between atoms: C_9  and  C_23
    4  A    between atoms: C_15  and  C_23
    5  A    between atoms: C_19  and  C_22
                            x       y       z     vdW  Elec       q    Type
                         _______ _______ _______ _____ _____    ______ ____

>  <TORSDO>
F 5

$$$$
=
 OpenBabel10272400363D

 31 34  0  0  1  0  0  0  0  0999 V2000
  181.0850  178.6370  138.7350 C   0  0  0  0  0  2  0  0  0  0  0  0
  184.5650  178.9280  139.1060 C   0  0  1  0  0  3  0  0  0  0  0  0
  184.5790  177.5980  138.3960 C   0  0  0  0  0  0  0  0  0  0  0  0
  183.7550  175.2350  138.3270 C   0  0  0  0  0  2  0  0  0  0  0  0
  183.2830  179.3300  139.8430 C   0  0  1  0  0  3  0  0  0  0  0  0
  180.7360  177.7570  141.0670 C   0  0  0  0  0  2  0  0  0  0  0  0
  183.3670  176.7110  138.2690 C   0  0  0  0  0  2  0  0  0  0  0  0
  185.5000  178.1090  141.3320 C   0  0  1  0  0  3  0  0  0  0  0  0
  180.1090  178.4930  139.8930 C   0  0  0  0  0  2  0  0  0  0  0  0
  186.9420  178.1210  138.1620 C   0  0  0  0  0  2  0  0  0  0  0  0
  184.7810  174.9240  137.2380 C   0  0  0  0  0  2  0  0  0  0  0  0
  184.0870  178.1680  141.8670 C   0  0  0  0  0  3  0  0  0  0  0  0
  185.7700  178.9680  140.0780 C   0  0  1  0  0  3  0  0  0  0  0  0
  182.0840  179.7570  138.9910 C   0  0  0  0  0  2  0  0  0  0  0  0
  187.0690  175.5080  136.8850 O   0  0  0  0  0  0  0  0  0  0  0  0
  183.0500  178.6540  141.1720 C   0  0  0  0  0  0  0  0  0  0  0  0
  181.7030  178.6570  141.8220 C   0  0  0  0  0  2  0  0  0  0  0  0
  187.0220  178.5660  139.5110 O   0  0  0  0  0  0  0  0  0  0  0  0
  185.7720  177.2000  137.9350 C   0  0  0  0  0  0  0  0  0  0  0  0
  185.9490  175.8610  137.3370 C   0  0  0  0  0  0  0  0  0  0  0  0
  186.5230  178.3510  142.4410 C   0  0  0  0  0  2  0  0  0  0  0  0
  187.1040  176.4480  143.7900 O   0  0  0  0  0  1  0  0  0  0  0  0
  187.4690  177.1640  142.6450 C   0  0  2  0  0  3  0  0  0  0  0  0
  188.9520  177.5780  142.7010 C   0  0  2  0  0  0  0  0  0  0  0  0
  189.1090  178.8190  142.0710 O   0  0  0  0  0  1  0  0  0  0  0  0
  189.7520  176.5430  141.9520 C   0  0  0  0  0  0  0  0  0  0  0  0
  189.9920  175.4210  142.4740 O   0  0  0  0  0  1  0  0  0  0  0  0
  190.2940  176.8410  140.7060 O   0  0  0  0  0  0  0  0  0  0  0  0
  188.6510  178.5250  144.9030 F   0  0  0  0  0  0  0  0  0  0  0  0
  190.7690  178.1710  144.1850 O   0  0  0  0  0  1  0  0  0  0  0  0
  189.4580  177.6870  144.1520 C   0  0  2  0  0  3  0  0  0  0  0  0
  1 14  1  0  0  0  0
  1  9  1  0  0  0  0
  2  3  1  1  0  0  0
  2  5  1  0  0  0  0
  2 13  1  0  0  0  0
  5 14  1  6  0  0  0
  5 16  1  0  0  0  0
  6 17  1  0  0  0  0
  7  4  1  0  0  0  0
  7  3  1  0  0  0  0
  8 12  1  0  0  0  0
  8 21  1  1  0  0  0
  9  6  1  0  0  0  0
 10 18  1  0  0  0  0
 11 20  1  0  0  0  0
 11  4  1  0  0  0  0
 13 18  1  6  0  0  0
 13  8  1  0  0  0  0
 15 20  2  0  0  0  0
 16 17  1  0  0  0  0
 16 12  2  0  0  0  0
 19 10  1  0  0  0  0
 19  3  2  0  0  0  0
 20 19  1  0  0  0  0
 21 23  1  0  0  0  0
 23 24  1  0  0  0  0
 23 22  1  1  0  0  0
 24 25  1  6  0  0  0
 24 31  1  0  0  0  0
 26 27  1  0  0  0  0
 26 24  1  0  0  0  0
 28 26  2  0  0  0  0
 31 30  1  6  0  0  0
 31 29  1  0  0  0  0
M  END
>  <MODEL>
7

>  <REMARK>
 VINA RESULT:      -6.1      2.757      4.154
  Name = 
  5 active torsions:
  status: ('A' for Active; 'I' for Inactive)
    1  A    between atoms: C_1  and  C_19
    2  A    between atoms: C_9  and  C_19
    3  A    between atoms: C_9  and  C_23
    4  A    between atoms: C_15  and  C_23
    5  A    between atoms: C_19  and  C_22
                            x       y       z     vdW  Elec       q    Type
                         _______ _______ _______ _____ _____    ______ ____

>  <TORSDO>
F 5

$$$$
=
 OpenBabel10272400363D

 31 34  0  0  1  0  0  0  0  0999 V2000
  181.0120  178.6950  138.7620 C   0  0  0  0  0  2  0  0  0  0  0  0
  184.5060  179.0430  138.8450 C   0  0  1  0  0  3  0  0  0  0  0  0
  184.4830  177.7120  138.1390 C   0  0  0  0  0  0  0  0  0  0  0  0
  183.6950  175.3350  138.1420 C   0  0  0  0  0  2  0  0  0  0  0  0
  183.2820  179.4260  139.6850 C   0  0  1  0  0  3  0  0  0  0  0  0
  180.8710  177.8170  141.1160 C   0  0  0  0  0  2  0  0  0  0  0  0
  183.2800  176.8050  138.1140 C   0  0  0  0  0  2  0  0  0  0  0  0
  185.6340  178.2470  140.9880 C   0  0  1  0  0  3  0  0  0  0  0  0
  180.1380  178.5390  139.9960 C   0  0  0  0  0  2  0  0  0  0  0  0
  186.8100  178.2720  137.7110 C   0  0  0  0  0  2  0  0  0  0  0  0
  184.6330  175.0370  136.9730 C   0  0  0  0  0  2  0  0  0  0  0  0
  184.2680  178.2840  141.6380 C   0  0  0  0  0  3  0  0  0  0  0  0
  185.7860  179.1060  139.7150 C   0  0  1  0  0  3  0  0  0  0  0  0
  182.0110  179.8320  138.9330 C   0  0  0  0  0  2  0  0  0  0  0  0
  186.8750  175.6570  136.4320 O   0  0  0  0  0  0  0  0  0  0  0  0
  183.1700  178.7510  141.0300 C   0  0  0  0  0  0  0  0  0  0  0  0
  181.8810  178.7340  141.7880 C   0  0  0  0  0  2  0  0  0  0  0  0
  186.9930  178.7220  139.0480 O   0  0  0  0  0  0  0  0  0  0  0  0
  185.6410  177.3320  137.5830 C   0  0  0  0  0  0  0  0  0  0  0  0
  185.7900  175.9940  136.9740 C   0  0  0  0  0  0  0  0  0  0  0  0
  186.7400  178.5080  142.0100 C   0  0  0  0  0  2  0  0  0  0  0  0
  186.5930  177.4530  144.1650 O   0  0  0  0  0  1  0  0  0  0  0  0
  187.0660  177.2760  142.8600 C   0  0  2  0  0  3  0  0  0  0  0  0
  188.5660  176.9230  142.8580 C   0  0  2  0  0  0  0  0  0  0  0  0
  188.7130  175.5350  142.9770 O   0  0  0  0  0  1  0  0  0  0  0  0
  189.2010  177.5870  144.0530 C   0  0  0  0  0  0  0  0  0  0  0  0
  189.1160  177.0610  145.1950 O   0  0  0  0  0  1  0  0  0  0  0  0
  189.8260  178.8220  143.9190 O   0  0  0  0  0  0  0  0  0  0  0  0
  188.5960  176.9180  140.4420 F   0  0  0  0  0  0  0  0  0  0  0  0
  190.5840  176.9500  141.5250 O   0  0  0  0  0  1  0  0  0  0  0  0
  189.2580  177.3890  141.5630 C   0  0  2  0  0  3  0  0  0  0  0  0
  1 14  1  0  0  0  0
  1  9  1  0  0  0  0
  2  3  1  1  0  0  0
  2  5  1  0  0  0  0
  2 13  1  0  0  0  0
  5 14  1  6  0  0  0
  5 16  1  0  0  0  0
  6 17  1  0  0  0  0
  7  3  1  0  0  0  0
  7  4  1  0  0  0  0
  8 12  1  0  0  0  0
  8 21  1  1  0  0  0
  9  6  1  0  0  0  0
 10 18  1  0  0  0  0
 11 20  1  0  0  0  0
 11  4  1  0  0  0  0
 13 18  1  6  0  0  0
 13  8  1  0  0  0  0
 15 20  2  0  0  0  0
 16 12  2  0  0  0  0
 16 17  1  0  0  0  0
 19 10  1  0  0  0  0
 19  3  2  0  0  0  0
 20 19  1  0  0  0  0
 21 23  1  0  0  0  0
 23 22  1  1  0  0  0
 24 23  1  0  0  0  0
 24 25  1  1  0  0  0
 24 26  1  0  0  0  0
 26 27  1  0  0  0  0
 28 26  2  0  0  0  0
 30 31  1  0  0  0  0
 31 29  1  6  0  0  0
 31 24  1  0  0  0  0
M  END
>  <MODEL>
8

>  <REMARK>
 VINA RESULT:      -5.9      2.874      4.453
  Name = 
  5 active torsions:
  status: ('A' for Active; 'I' for Inactive)
    1  A    between atoms: C_1  and  C_19
    2  A    between atoms: C_9  and  C_19
    3  A    between atoms: C_9  and  C_23
    4  A    between atoms: C_15  and  C_23
    5  A    between atoms: C_19  and  C_22
                            x       y       z     vdW  Elec       q    Type
                         _______ _______ _______ _____ _____    ______ ____

>  <TORSDO>
F 5

$$$$
=
 OpenBabel10272400363D

 31 34  0  0  1  0  0  0  0  0999 V2000
  187.1330  177.5400  146.6470 C   0  0  0  0  0  2  0  0  0  0  0  0
  188.0750  176.6720  143.3770 C   0  0  1  0  0  3  0  0  0  0  0  0
  189.3650  177.3560  143.7510 C   0  0  0  0  0  0  0  0  0  0  0  0
  190.4840  179.4210  144.6200 C   0  0  0  0  0  2  0  0  0  0  0  0
  186.8120  177.0550  144.1570 C   0  0  1  0  0  3  0  0  0  0  0  0
  185.8730  179.5960  145.9240 C   0  0  0  0  0  2  0  0  0  0  0  0
  189.4990  178.2930  144.9240 C   0  0  0  0  0  2  0  0  0  0  0  0
  187.3610  178.3130  141.5610 C   0  0  1  0  0  3  0  0  0  0  0  0
  186.0180  178.5170  146.9860 C   0  0  0  0  0  2  0  0  0  0  0  0
  190.1540  176.2420  141.7400 C   0  0  0  0  0  2  0  0  0  0  0  0
  191.8390  178.8360  144.2250 C   0  0  0  0  0  2  0  0  0  0  0  0
  186.3910  178.8950  142.5660 C   0  0  0  0  0  3  0  0  0  0  0  0
  187.8430  176.8780  141.8590 C   0  0  1  0  0  3  0  0  0  0  0  0
  186.6860  176.5370  145.5920 C   0  0  0  0  0  2  0  0  0  0  0  0
  192.6470  177.6260  142.3320 O   0  0  0  0  0  0  0  0  0  0  0  0
  186.1840  178.3750  143.7830 C   0  0  0  0  0  0  0  0  0  0  0  0
  185.1930  179.0480  144.6790 C   0  0  0  0  0  2  0  0  0  0  0  0
  188.9740  176.5950  141.0280 O   0  0  0  0  0  0  0  0  0  0  0  0
  190.3950  177.1420  142.9230 C   0  0  0  0  0  0  0  0  0  0  0  0
  191.6770  177.8540  143.1010 C   0  0  0  0  0  0  0  0  0  0  0  0
  186.8410  178.4740  140.1330 C   0  0  0  0  0  2  0  0  0  0  0  0
  188.8270  179.1480  138.9560 O   0  0  0  0  0  1  0  0  0  0  0  0
  187.8910  178.1150  139.0760 C   0  0  2  0  0  3  0  0  0  0  0  0
  187.2730  177.7660  137.7080 C   0  0  2  0  0  0  0  0  0  0  0  0
  185.8800  177.8960  137.7840 O   0  0  0  0  0  1  0  0  0  0  0  0
  187.6150  176.3320  137.3960 C   0  0  0  0  0  0  0  0  0  0  0  0
  188.6820  175.8220  137.8310 O   0  0  0  0  0  1  0  0  0  0  0  0
  186.7930  175.5790  136.5650 O   0  0  0  0  0  0  0  0  0  0  0  0
  186.9190  178.7440  135.5270 F   0  0  0  0  0  0  0  0  0  0  0  0
  189.0440  178.2500  136.1320 O   0  0  0  0  0  1  0  0  0  0  0  0
  187.8000  178.6900  136.5930 C   0  0  2  0  0  3  0  0  0  0  0  0
  1  9  1  0  0  0  0
  2  3  1  1  0  0  0
  2  5  1  0  0  0  0
  3  7  1  0  0  0  0
  4  7  1  0  0  0  0
  5 14  1  1  0  0  0
  6  9  1  0  0  0  0
  8 21  1  6  0  0  0
  8 13  1  0  0  0  0
  8 12  1  0  0  0  0
 10 19  1  0  0  0  0
 11  4  1  0  0  0  0
 12 16  2  0  0  0  0
 13 18  1  6  0  0  0
 13  2  1  0  0  0  0
 14  1  1  0  0  0  0
 15 20  2  0  0  0  0
 16  5  1  0  0  0  0
 16 17  1  0  0  0  0
 17  6  1  0  0  0  0
 18 10  1  0  0  0  0
 19 20  1  0  0  0  0
 19  3  2  0  0  0  0
 20 11  1  0  0  0  0
 23 22  1  6  0  0  0
 23 21  1  0  0  0  0
 24 25  1  1  0  0  0
 24 23  1  0  0  0  0
 26 24  1  0  0  0  0
 26 27  1  0  0  0  0
 28 26  2  0  0  0  0
 30 31  1  0  0  0  0
 31 29  1  6  0  0  0
 31 24  1  0  0  0  0
M  END
>  <MODEL>
9

>  <REMARK>
 VINA RESULT:      -5.8      3.082      7.224
  Name = 
  5 active torsions:
  status: ('A' for Active; 'I' for Inactive)
    1  A    between atoms: C_1  and  C_19
    2  A    between atoms: C_9  and  C_19
    3  A    between atoms: C_9  and  C_23
    4  A    between atoms: C_15  and  C_23
    5  A    between atoms: C_19  and  C_22
                            x       y       z     vdW  Elec       q    Type
                         _______ _______ _______ _____ _____    ______ ____

>  <TORSDO>
F 5

$$$$
