=
 OpenBabel10262423543D

 34 39  0  0  1  0  0  0  0  0999 V2000
  190.5570  177.0650  144.7510 C   0  0  1  0  0  3  0  0  0  0  0  0
  188.2550  177.0830  145.9400 C   0  0  2  0  0  3  0  0  0  0  0  0
  188.5960  177.5530  143.4190 C   0  0  0  0  0  0  0  0  0  0  0  0
  186.7300  178.4290  142.1760 C   0  0  0  0  0  0  0  0  0  0  0  0
  190.3980  177.3520  147.2550 C   0  0  0  0  0  2  0  0  0  0  0  0
  189.0330  177.9760  146.9030 C   0  0  0  0  0  2  0  0  0  0  0  0
  186.4100  177.9350  144.4100 C   0  0  0  0  0  0  0  0  0  0  0  0
  189.0590  176.8010  144.6280 C   0  0  1  0  0  3  0  0  0  0  0  0
  185.4460  178.6670  142.4390 C   0  0  0  0  0  3  0  0  0  0  0  0
  191.0830  176.5950  146.0990 C   0  0  0  0  0  2  0  0  0  0  0  0
  190.5620  176.6490  142.1950 C   0  0  0  0  0  2  0  0  0  0  0  0
  191.3170  176.4840  143.5420 C   0  0  0  0  0  2  0  0  0  0  0  0
  186.7600  177.4950  145.8030 C   0  0  0  0  0  2  0  0  0  0  0  0
  187.4660  178.4090  140.9070 C   0  0  0  0  0  3  0  0  0  0  0  0
  188.7760  178.0490  140.9020 C   0  0  0  0  0  0  0  0  0  0  0  0
  185.2600  178.3590  143.8860 C   0  0  0  0  0  0  0  0  0  0  0  0
  187.3610  177.9730  143.3620 C   0  0  1  0  0  3  0  0  0  0  0  0
  189.5140  177.7750  142.2340 C   0  0  0  0  0  0  0  0  0  0  0  0
  188.1620  176.4780  137.7380 C   0  0  0  0  0  2  0  0  0  0  0  0
  189.6180  176.0990  137.4890 C   0  0  0  0  0  2  0  0  0  0  0  0
  189.5100  178.0890  139.6600 N   0  0  0  0  0  0  0  0  0  0  0  0
  190.3470  175.9330  138.8190 C   0  0  0  0  0  2  0  0  0  0  0  0
  189.0030  178.8020  138.4930 C   0  0  0  0  0  2  0  0  0  0  0  0
  190.7060  177.2760  139.4500 C   0  0  0  0  0  2  0  0  0  0  0  0
  187.9240  177.9940  137.7650 C   0  0  0  0  0  2  0  0  0  0  0  0
  183.9850  178.5280  144.6380 C   0  0  0  0  0  2  0  0  0  0  0  0
  183.0470  179.4330  143.8660 C   0  0  0  0  0  2  0  0  0  0  0  0
  181.7710  178.6850  143.5490 C   0  0  0  0  0  2  0  0  0  0  0  0
  180.9710  179.4640  142.5250 C   0  0  0  0  0  2  0  0  0  0  0  0
  179.9820  179.2920  140.0400 O   0  0  0  0  0  0  0  0  0  0  0  0
  179.9890  177.2400  141.3790 O   0  0  0  0  0  0  0  0  0  0  0  0
  180.7540  178.4910  141.0500 S   0  0  0  0  0  0  0  0  0  0  0  0
  183.0210  179.2030  139.9820 O   0  0  0  0  0  1  0  0  0  0  0  0
  182.3370  178.0500  140.3670 C   0  0  0  0  0  2  0  0  0  0  0  0
  1 12  1  6  0  0  0
  1 10  1  0  0  0  0
  2 13  1  6  0  0  0
  2  6  1  0  0  0  0
  4  9  2  0  0  0  0
  6  5  1  0  0  0  0
  7 13  1  0  0  0  0
  8  3  1  6  0  0  0
  8  1  1  0  0  0  0
  8  2  1  0  0  0  0
  9 16  1  0  0  0  0
 10  5  1  0  0  0  0
 11 18  1  0  0  0  0
 11 12  1  0  0  0  0
 14  4  1  0  0  0  0
 15 14  2  0  0  0  0
 15 18  1  0  0  0  0
 16  7  2  0  0  0  0
 16 26  1  0  0  0  0
 17  4  1  6  0  0  0
 17  3  1  0  0  0  0
 17  7  1  0  0  0  0
 18  3  2  0  0  0  0
 19 25  1  0  0  0  0
 20 19  1  0  0  0  0
 20 22  1  0  0  0  0
 21 15  1  0  0  0  0
 22 24  1  0  0  0  0
 23 21  1  0  0  0  0
 24 21  1  0  0  0  0
 25 23  1  0  0  0  0
 27 26  1  0  0  0  0
 28 27  1  0  0  0  0
 29 28  1  0  0  0  0
 30 32  2  0  0  0  0
 32 31  2  0  0  0  0
 32 29  1  0  0  0  0
 33 34  1  0  0  0  0
 34 32  1  0  0  0  0
M  END
>  <MODEL>
1

>  <REMARK>
 VINA RESULT:      -9.7      0.000      0.000
  Name = 
  7 active torsions:
  status: ('A' for Active; 'I' for Inactive)
    1  A    between atoms: C_3  and  C_13
    2  A    between atoms: C_3  and  C_17
    3  A    between atoms: N_12  and  C_28
    4  A    between atoms: C_13  and  C_33
    5  A    between atoms: C_14  and  S_34
    6  A    between atoms: C_17  and  C_29
    7  A    between atoms: C_33  and  S_34
                            x       y       z     vdW  Elec       q    Type
                         _______ _______ _______ _____ _____    ______ ____

>  <TORSDO>
F 7

$$$$
=
 OpenBabel10262423543D

 34 39  0  0  1  0  0  0  0  0999 V2000
  190.4690  177.0700  142.7120 C   0  0  1  0  0  3  0  0  0  0  0  0
  188.6330  177.0590  144.5400 C   0  0  2  0  0  3  0  0  0  0  0  0
  188.2120  177.6530  142.0580 C   0  0  0  0  0  0  0  0  0  0  0  0
  186.0850  178.6170  141.4760 C   0  0  0  0  0  0  0  0  0  0  0  0
  191.0790  177.2310  145.1580 C   0  0  0  0  0  2  0  0  0  0  0  0
  189.6890  177.8910  145.2620 C   0  0  0  0  0  2  0  0  0  0  0  0
  186.4380  178.0130  143.6780 C   0  0  0  0  0  0  0  0  0  0  0  0
  188.9960  176.8330  143.0350 C   0  0  1  0  0  3  0  0  0  0  0  0
  184.9470  178.8590  142.1250 C   0  0  0  0  0  3  0  0  0  0  0  0
  191.3620  176.5250  143.8160 C   0  0  0  0  0  2  0  0  0  0  0  0
  189.6930  176.7860  140.2580 C   0  0  0  0  0  2  0  0  0  0  0  0
  190.8130  176.5420  141.3060 C   0  0  0  0  0  2  0  0  0  0  0  0
  187.1780  177.4980  144.8790 C   0  0  0  0  0  2  0  0  0  0  0  0
  186.4040  178.6510  140.0440 C   0  0  0  0  0  3  0  0  0  0  0  0
  187.6410  178.2740  139.6280 C   0  0  0  0  0  0  0  0  0  0  0  0
  185.1960  178.4800  143.5440 C   0  0  0  0  0  0  0  0  0  0  0  0
  187.0300  178.0920  142.3940 C   0  0  1  0  0  3  0  0  0  0  0  0
  188.7370  177.9230  140.6620 C   0  0  0  0  0  0  0  0  0  0  0  0
  188.2210  175.7380  137.1600 C   0  0  0  0  0  2  0  0  0  0  0  0
  189.4050  176.4470  136.5120 C   0  0  0  0  0  2  0  0  0  0  0  0
  187.9690  178.3670  138.2250 N   0  0  0  0  0  0  0  0  0  0  0  0
  190.0980  177.3450  137.5330 C   0  0  0  0  0  2  0  0  0  0  0  0
  187.0040  178.0180  137.1890 C   0  0  0  0  0  2  0  0  0  0  0  0
  189.3300  178.6430  137.7720 C   0  0  0  0  0  2  0  0  0  0  0  0
  186.8980  176.5000  137.0080 C   0  0  0  0  0  2  0  0  0  0  0  0
  184.2110  178.6280  144.6530 C   0  0  0  0  0  2  0  0  0  0  0  0
  183.0570  179.5010  144.2050 C   0  0  0  0  0  2  0  0  0  0  0  0
  181.8410  178.6370  143.9510 C   0  0  0  0  0  2  0  0  0  0  0  0
  180.8170  179.4290  143.1630 C   0  0  0  0  0  2  0  0  0  0  0  0
  182.1630  178.7480  140.9480 O   0  0  0  0  0  0  0  0  0  0  0  0
  179.9850  179.8240  140.6380 O   0  0  0  0  0  0  0  0  0  0  0  0
  180.7620  178.8520  141.4790 S   0  0  0  0  0  0  0  0  0  0  0  0
  180.0620  176.7530  140.1040 O   0  0  0  0  0  1  0  0  0  0  0  0
  179.9820  177.2530  141.4030 C   0  0  0  0  0  2  0  0  0  0  0  0
  1 12  1  6  0  0  0
  1  8  1  0  0  0  0
  1 10  1  0  0  0  0
  2 13  1  6  0  0  0
  2  6  1  0  0  0  0
  3 17  1  0  0  0  0
  4  9  2  0  0  0  0
  5  6  1  0  0  0  0
  7 13  1  0  0  0  0
  8  3  1  6  0  0  0
  8  2  1  0  0  0  0
  9 16  1  0  0  0  0
 10  5  1  0  0  0  0
 11 18  1  0  0  0  0
 11 12  1  0  0  0  0
 14  4  1  0  0  0  0
 15 14  2  0  0  0  0
 15 18  1  0  0  0  0
 16  7  2  0  0  0  0
 16 26  1  0  0  0  0
 17  4  1  6  0  0  0
 17  7  1  0  0  0  0
 18  3  2  0  0  0  0
 20 19  1  0  0  0  0
 20 22  1  0  0  0  0
 21 15  1  0  0  0  0
 22 24  1  0  0  0  0
 23 21  1  0  0  0  0
 24 21  1  0  0  0  0
 25 19  1  0  0  0  0
 25 23  1  0  0  0  0
 27 26  1  0  0  0  0
 28 27  1  0  0  0  0
 29 28  1  0  0  0  0
 30 32  2  0  0  0  0
 31 32  2  0  0  0  0
 32 29  1  0  0  0  0
 33 34  1  0  0  0  0
 34 32  1  0  0  0  0
M  END
>  <MODEL>
2

>  <REMARK>
 VINA RESULT:      -8.8      1.167      1.792
  Name = 
  7 active torsions:
  status: ('A' for Active; 'I' for Inactive)
    1  A    between atoms: C_3  and  C_13
    2  A    between atoms: C_3  and  C_17
    3  A    between atoms: N_12  and  C_28
    4  A    between atoms: C_13  and  C_33
    5  A    between atoms: C_14  and  S_34
    6  A    between atoms: C_17  and  C_29
    7  A    between atoms: C_33  and  S_34
                            x       y       z     vdW  Elec       q    Type
                         _______ _______ _______ _____ _____    ______ ____

>  <TORSDO>
F 7

$$$$
=
 OpenBabel10262423543D

 34 39  0  0  1  0  0  0  0  0999 V2000
  184.2280  178.3690  144.9130 C   0  0  1  0  0  3  0  0  0  0  0  0
  186.6960  178.5550  144.1450 C   0  0  2  0  0  3  0  0  0  0  0  0
  184.6640  178.6400  142.5470 C   0  0  0  0  0  0  0  0  0  0  0  0
  185.0870  178.5030  140.1820 C   0  0  0  0  0  0  0  0  0  0  0  0
  186.1050  177.5310  146.3810 C   0  0  0  0  0  2  0  0  0  0  0  0
  186.8090  177.3140  145.0260 C   0  0  0  0  0  2  0  0  0  0  0  0
  186.9020  178.5050  141.6110 C   0  0  0  0  0  0  0  0  0  0  0  0
  185.2060  178.9660  143.9050 C   0  0  1  0  0  3  0  0  0  0  0  0
  186.1760  178.4870  139.4140 C   0  0  0  0  0  3  0  0  0  0  0  0
  184.8190  178.3800  146.3150 C   0  0  0  0  0  2  0  0  0  0  0  0
  182.4270  179.3720  143.3470 C   0  0  0  0  0  2  0  0  0  0  0  0
  182.8490  179.0460  144.8060 C   0  0  0  0  0  2  0  0  0  0  0  0
  187.6480  178.5140  142.9140 C   0  0  0  0  0  2  0  0  0  0  0  0
  183.6690  178.6690  139.8400 C   0  0  0  0  0  3  0  0  0  0  0  0
  182.7470  178.7340  140.8350 C   0  0  0  0  0  0  0  0  0  0  0  0
  187.3360  178.4720  140.3500 C   0  0  0  0  0  0  0  0  0  0  0  0
  185.4880  178.5170  141.5420 C   0  0  0  0  0  0  0  0  0  0  0  0
  183.1730  178.5180  142.3070 C   0  0  1  0  0  3  0  0  0  0  0  0
  180.8240  177.1710  138.2440 C   0  0  0  0  0  2  0  0  0  0  0  0
  180.0290  178.4230  137.8890 C   0  0  0  0  0  2  0  0  0  0  0  0
  181.3490  178.8380  140.4910 N   0  0  0  0  0  0  0  0  0  0  0  0
  180.8410  179.6690  138.2310 C   0  0  0  0  0  2  0  0  0  0  0  0
  180.4180  177.7410  140.7310 C   0  0  0  0  0  2  0  0  0  0  0  0
  180.8290  179.9700  139.7280 C   0  0  0  0  0  2  0  0  0  0  0  0
  180.5440  176.6520  139.6600 C   0  0  0  0  0  2  0  0  0  0  0  0
  188.7660  178.4030  139.9370 C   0  0  0  0  0  2  0  0  0  0  0  0
  189.2780  176.9850  140.0850 C   0  0  0  0  0  2  0  0  0  0  0  0
  190.4130  176.9610  141.0860 C   0  0  0  0  0  2  0  0  0  0  0  0
  190.0120  176.1220  142.2820 C   0  0  0  0  0  2  0  0  0  0  0  0
  191.9840  175.5390  144.0010 O   0  0  0  0  0  0  0  0  0  0  0  0
  190.0500  176.7480  144.8960 O   0  0  0  0  0  0  0  0  0  0  0  0
  190.9620  176.6010  143.7100 S   0  0  0  0  0  0  0  0  0  0  0  0
  191.0150  179.1980  143.9020 O   0  0  0  0  0  1  0  0  0  0  0  0
  191.7880  178.1480  143.4070 C   0  0  0  0  0  2  0  0  0  0  0  0
  1 12  1  1  0  0  0
  1 10  1  0  0  0  0
  2 13  1  6  0  0  0
  2  6  1  0  0  0  0
  4 17  1  0  0  0  0
  6  5  1  0  0  0  0
  7 13  1  0  0  0  0
  8  3  1  6  0  0  0
  8  2  1  0  0  0  0
  8  1  1  0  0  0  0
  9  4  2  0  0  0  0
  9 16  1  0  0  0  0
 10  5  1  0  0  0  0
 11 12  1  0  0  0  0
 14  4  1  0  0  0  0
 14 15  2  0  0  0  0
 15 18  1  0  0  0  0
 16  7  2  0  0  0  0
 17  7  1  0  0  0  0
 17  3  2  0  0  0  0
 18  3  1  0  0  0  0
 18 11  1  1  0  0  0
 19 25  1  0  0  0  0
 20 22  1  0  0  0  0
 20 19  1  0  0  0  0
 21 23  1  0  0  0  0
 21 15  1  0  0  0  0
 22 24  1  0  0  0  0
 24 21  1  0  0  0  0
 25 23  1  0  0  0  0
 26 27  1  0  0  0  0
 26 16  1  0  0  0  0
 27 28  1  0  0  0  0
 28 29  1  0  0  0  0
 29 32  1  0  0  0  0
 32 30  2  0  0  0  0
 32 31  2  0  0  0  0
 34 32  1  0  0  0  0
 34 33  1  0  0  0  0
M  END
>  <MODEL>
3

>  <REMARK>
 VINA RESULT:      -8.7      4.215      7.466
  Name = 
  7 active torsions:
  status: ('A' for Active; 'I' for Inactive)
    1  A    between atoms: C_3  and  C_13
    2  A    between atoms: C_3  and  C_17
    3  A    between atoms: N_12  and  C_28
    4  A    between atoms: C_13  and  C_33
    5  A    between atoms: C_14  and  S_34
    6  A    between atoms: C_17  and  C_29
    7  A    between atoms: C_33  and  S_34
                            x       y       z     vdW  Elec       q    Type
                         _______ _______ _______ _____ _____    ______ ____

>  <TORSDO>
F 7

$$$$
=
 OpenBabel10262423543D

 34 39  0  0  1  0  0  0  0  0999 V2000
  189.5650  177.7460  140.3610 C   0  0  1  0  0  3  0  0  0  0  0  0
  189.8830  176.9400  142.8020 C   0  0  2  0  0  3  0  0  0  0  0  0
  187.6500  177.8200  141.8390 C   0  0  0  0  0  0  0  0  0  0  0  0
  185.8610  178.2770  143.3830 C   0  0  0  0  0  0  0  0  0  0  0  0
  191.8660  177.6390  141.3970 C   0  0  0  0  0  2  0  0  0  0  0  0
  191.0790  177.8830  142.7010 C   0  0  0  0  0  2  0  0  0  0  0  0
  187.8320  177.4180  144.2290 C   0  0  0  0  0  0  0  0  0  0  0  0
  188.9240  177.0790  141.5740 C   0  0  1  0  0  3  0  0  0  0  0  0
  185.6690  178.0970  144.6890 C   0  0  0  0  0  2  0  0  0  0  0  0
  190.9990  177.2730  140.1750 C   0  0  0  0  0  2  0  0  0  0  0  0
  187.1590  177.6950  139.4050 C   0  0  0  0  0  2  0  0  0  0  0  0
  188.6800  177.5770  139.1110 C   0  0  0  0  0  2  0  0  0  0  0  0
  189.2470  176.9170  144.2230 C   0  0  0  0  0  2  0  0  0  0  0  0
  184.9250  178.6400  142.3130 C   0  0  0  0  0  3  0  0  0  0  0  0
  185.3650  178.6780  141.0280 C   0  0  0  0  0  0  0  0  0  0  0  0
  186.9530  177.5580  145.2210 C   0  0  0  0  0  0  0  0  0  0  0  0
  187.1790  177.8690  143.0560 C   0  0  0  0  0  0  0  0  0  0  0  0
  186.8620  178.4540  140.7100 C   0  0  0  0  0  0  0  0  0  0  0  0
  182.5280  177.0390  139.5700 C   0  0  0  0  0  2  0  0  0  0  0  0
  182.8560  177.4480  138.1380 C   0  0  0  0  0  2  0  0  0  0  0  0
  184.4550  179.0930  139.9860 N   0  0  0  0  0  0  0  0  0  0  0  0
  184.3600  177.6610  137.9880 C   0  0  0  0  0  2  0  0  0  0  0  0
  183.0760  179.4630  140.2780 C   0  0  0  0  0  2  0  0  0  0  0  0
  184.8120  178.9960  138.5730 C   0  0  0  0  0  2  0  0  0  0  0  0
  182.1920  178.2270  140.4800 C   0  0  0  0  0  2  0  0  0  0  0  0
  187.2210  177.2490  146.6540 C   0  0  0  0  0  2  0  0  0  0  0  0
  187.9690  178.3980  147.2990 C   0  0  0  0  0  2  0  0  0  0  0  0
  189.0690  177.8510  148.1810 C   0  0  0  0  0  2  0  0  0  0  0  0
  189.6690  176.6200  147.5330 C   0  0  0  0  0  2  0  0  0  0  0  0
  191.9390  177.5870  148.5800 O   0  0  0  0  0  0  0  0  0  0  0  0
  191.7820  177.5200  146.1370 O   0  0  0  0  0  0  0  0  0  0  0  0
  191.4370  176.7950  147.4070 S   0  0  0  0  0  0  0  0  0  0  0  0
  192.4330  174.7830  146.0850 O   0  0  0  0  0  1  0  0  0  0  0  0
  192.2140  175.1940  147.4000 C   0  0  0  0  0  2  0  0  0  0  0  0
  1 12  1  6  0  0  0
  1  8  1  0  0  0  0
  2  6  1  1  0  0  0
  2 13  1  0  0  0  0
  3 17  1  0  0  0  0
  4  9  1  0  0  0  0
  5  6  1  0  0  0  0
  7 16  2  0  0  0  0
  8  3  1  1  0  0  0
  8  2  1  0  0  0  0
  9 16  1  0  0  0  0
 10  1  1  0  0  0  0
 10  5  1  0  0  0  0
 11 18  1  0  0  0  0
 12 11  1  0  0  0  0
 13  7  1  0  0  0  0
 14  4  1  0  0  0  0
 15 14  2  0  0  0  0
 16 26  1  0  0  0  0
 17  4  2  0  0  0  0
 17  7  1  0  0  0  0
 18 15  1  0  0  0  0
 18  3  2  0  0  0  0
 19 25  1  0  0  0  0
 20 19  1  0  0  0  0
 21 23  1  0  0  0  0
 21 15  1  0  0  0  0
 22 20  1  0  0  0  0
 22 24  1  0  0  0  0
 23 25  1  0  0  0  0
 24 21  1  0  0  0  0
 26 27  1  0  0  0  0
 27 28  1  0  0  0  0
 29 28  1  0  0  0  0
 31 32  2  0  0  0  0
 32 29  1  0  0  0  0
 32 30  2  0  0  0  0
 33 34  1  0  0  0  0
 34 32  1  0  0  0  0
M  END
>  <MODEL>
4

>  <REMARK>
 VINA RESULT:      -8.6      4.567      6.830
  Name = 
  7 active torsions:
  status: ('A' for Active; 'I' for Inactive)
    1  A    between atoms: C_3  and  C_13
    2  A    between atoms: C_3  and  C_17
    3  A    between atoms: N_12  and  C_28
    4  A    between atoms: C_13  and  C_33
    5  A    between atoms: C_14  and  S_34
    6  A    between atoms: C_17  and  C_29
    7  A    between atoms: C_33  and  S_34
                            x       y       z     vdW  Elec       q    Type
                         _______ _______ _______ _____ _____    ______ ____

>  <TORSDO>
F 7

$$$$
=
 OpenBabel10262423543D

 34 39  0  0  1  0  0  0  0  0999 V2000
  190.6440  177.4700  141.7820 C   0  0  1  0  0  3  0  0  0  0  0  0
  189.1560  177.3040  143.8960 C   0  0  2  0  0  3  0  0  0  0  0  0
  188.2580  177.7870  141.5190 C   0  0  0  0  0  0  0  0  0  0  0  0
  185.9690  178.4970  141.3040 C   0  0  0  0  0  0  0  0  0  0  0  0
  191.6370  177.7580  144.0870 C   0  0  0  0  0  2  0  0  0  0  0  0
  190.2190  178.2640  144.4230 C   0  0  0  0  0  2  0  0  0  0  0  0
  186.7540  177.9910  143.4170 C   0  0  0  0  0  0  0  0  0  0  0  0
  189.2830  177.0820  142.3530 C   0  0  1  0  0  3  0  0  0  0  0  0
  184.9370  178.6290  142.1360 C   0  0  0  0  0  2  0  0  0  0  0  0
  191.7670  177.0540  142.7210 C   0  0  0  0  0  2  0  0  0  0  0  0
  189.5010  177.0430  139.4980 C   0  0  0  0  0  2  0  0  0  0  0  0
  190.8030  176.9490  140.3410 C   0  0  0  0  0  2  0  0  0  0  0  0
  187.7400  177.5890  144.4760 C   0  0  0  0  0  2  0  0  0  0  0  0
  186.0360  178.5320  139.8380 C   0  0  0  0  0  3  0  0  0  0  0  0
  187.2190  178.2820  139.2190 C   0  0  0  0  0  0  0  0  0  0  0  0
  185.4640  178.3150  143.4940 C   0  0  0  0  0  0  0  0  0  0  0  0
  187.1090  178.1020  142.0500 C   0  0  0  0  0  0  0  0  0  0  0  0
  188.5060  178.0780  140.0530 C   0  0  0  0  0  0  0  0  0  0  0  0
  187.9530  175.8170  136.7210 C   0  0  0  0  0  2  0  0  0  0  0  0
  188.8320  176.7340  135.8780 C   0  0  0  0  0  2  0  0  0  0  0  0
  187.2920  178.3750  137.7810 N   0  0  0  0  0  0  0  0  0  0  0  0
  189.4590  177.8100  136.7600 C   0  0  0  0  0  2  0  0  0  0  0  0
  186.2790  177.7740  136.9220 C   0  0  0  0  0  2  0  0  0  0  0  0
  188.4690  178.9190  137.1070 C   0  0  0  0  0  2  0  0  0  0  0  0
  186.4860  176.2630  136.7790 C   0  0  0  0  0  2  0  0  0  0  0  0
  184.6700  178.3810  144.7540 C   0  0  0  0  0  2  0  0  0  0  0  0
  185.3380  179.3220  145.7360 C   0  0  0  0  0  2  0  0  0  0  0  0
  185.6630  178.5730  147.0100 C   0  0  0  0  0  2  0  0  0  0  0  0
  186.9060  179.1670  147.6400 C   0  0  0  0  0  2  0  0  0  0  0  0
  187.6830  176.6040  147.5330 O   0  0  0  0  0  0  0  0  0  0  0  0
  187.6050  177.6510  149.7460 O   0  0  0  0  0  0  0  0  0  0  0  0
  187.9360  177.8720  148.2970 S   0  0  0  0  0  0  0  0  0  0  0  0
  190.3890  177.2150  147.7140 O   0  0  0  0  0  1  0  0  0  0  0  0
  189.6530  178.3180  148.1480 C   0  0  0  0  0  2  0  0  0  0  0  0
  1 12  1  6  0  0  0
  1  8  1  0  0  0  0
  1 10  1  0  0  0  0
  2  6  1  6  0  0  0
  2 13  1  0  0  0  0
  3 17  1  0  0  0  0
  4 17  2  0  0  0  0
  4  9  1  0  0  0  0
  5  6  1  0  0  0  0
  7 16  2  0  0  0  0
  7 13  1  0  0  0  0
  8  3  1  6  0  0  0
  8  2  1  0  0  0  0
  9 16  1  0  0  0  0
 10  5  1  0  0  0  0
 11 18  1  0  0  0  0
 11 12  1  0  0  0  0
 14  4  1  0  0  0  0
 15 14  2  0  0  0  0
 15 18  1  0  0  0  0
 16 26  1  0  0  0  0
 17  7  1  0  0  0  0
 18  3  2  0  0  0  0
 19 25  1  0  0  0  0
 20 19  1  0  0  0  0
 20 22  1  0  0  0  0
 21 15  1  0  0  0  0
 22 24  1  0  0  0  0
 23 21  1  0  0  0  0
 24 21  1  0  0  0  0
 25 23  1  0  0  0  0
 26 27  1  0  0  0  0
 27 28  1  0  0  0  0
 28 29  1  0  0  0  0
 29 32  1  0  0  0  0
 30 32  2  0  0  0  0
 32 31  2  0  0  0  0
 33 34  1  0  0  0  0
 34 32  1  0  0  0  0
M  END
>  <MODEL>
5

>  <REMARK>
 VINA RESULT:      -8.4      3.827      4.951
  Name = 
  7 active torsions:
  status: ('A' for Active; 'I' for Inactive)
    1  A    between atoms: C_3  and  C_13
    2  A    between atoms: C_3  and  C_17
    3  A    between atoms: N_12  and  C_28
    4  A    between atoms: C_13  and  C_33
    5  A    between atoms: C_14  and  S_34
    6  A    between atoms: C_17  and  C_29
    7  A    between atoms: C_33  and  S_34
                            x       y       z     vdW  Elec       q    Type
                         _______ _______ _______ _____ _____    ______ ____

>  <TORSDO>
F 7

$$$$
=
 OpenBabel10262423543D

 34 39  0  0  1  0  0  0  0  0999 V2000
  185.1370  178.1570  144.6650 C   0  0  1  0  0  3  0  0  0  0  0  0
  187.4790  178.3760  143.5780 C   0  0  2  0  0  3  0  0  0  0  0  0
  185.2510  178.5050  142.2720 C   0  0  0  0  0  0  0  0  0  0  0  0
  185.3510  178.4430  139.8680 C   0  0  0  0  0  0  0  0  0  0  0  0
  187.1950  177.2810  145.8400 C   0  0  0  0  0  2  0  0  0  0  0  0
  187.7090  177.1090  144.3960 C   0  0  0  0  0  2  0  0  0  0  0  0
  187.3420  178.4070  141.0380 C   0  0  0  0  0  0  0  0  0  0  0  0
  185.9710  178.7890  143.5530 C   0  0  1  0  0  3  0  0  0  0  0  0
  186.3260  178.4540  138.9610 C   0  0  0  0  0  3  0  0  0  0  0  0
  185.9120  178.1270  145.9740 C   0  0  0  0  0  2  0  0  0  0  0  0
  183.1420  179.2030  143.3890 C   0  0  0  0  0  2  0  0  0  0  0  0
  183.7560  178.8330  144.7660 C   0  0  0  0  0  2  0  0  0  0  0  0
  188.2560  178.3780  142.2290 C   0  0  0  0  0  2  0  0  0  0  0  0
  183.9000  178.6150  139.7250 C   0  0  0  0  0  3  0  0  0  0  0  0
  183.1200  178.6450  140.8370 C   0  0  0  0  0  0  0  0  0  0  0  0
  187.6020  178.4140  139.7310 C   0  0  0  0  0  0  0  0  0  0  0  0
  185.9310  178.4160  141.1620 C   0  0  0  0  0  0  0  0  0  0  0  0
  183.7400  178.3850  142.2310 C   0  0  1  0  0  3  0  0  0  0  0  0
  180.8530  177.0860  138.5380 C   0  0  0  0  0  2  0  0  0  0  0  0
  180.0230  178.3420  138.2930 C   0  0  0  0  0  2  0  0  0  0  0  0
  181.6890  178.7550  140.6880 N   0  0  0  0  0  0  0  0  0  0  0  0
  180.8790  179.5850  138.5180 C   0  0  0  0  0  2  0  0  0  0  0  0
  180.7950  177.6630  141.0560 C   0  0  0  0  0  2  0  0  0  0  0  0
  181.0740  179.8880  140.0020 C   0  0  0  0  0  2  0  0  0  0  0  0
  180.7680  176.5720  139.9810 C   0  0  0  0  0  2  0  0  0  0  0  0
  188.9630  178.3630  139.1260 C   0  0  0  0  0  2  0  0  0  0  0  0
  188.8590  178.4300  137.6170 C   0  0  0  0  0  2  0  0  0  0  0  0
  189.3470  177.1280  137.0200 C   0  0  0  0  0  2  0  0  0  0  0  0
  190.0890  176.3360  138.0770 C   0  0  0  0  0  2  0  0  0  0  0  0
  191.5950  175.8660  135.9100 O   0  0  0  0  0  0  0  0  0  0  0  0
  191.7010  174.2150  137.7170 O   0  0  0  0  0  0  0  0  0  0  0  0
  191.6000  175.6810  137.4000 S   0  0  0  0  0  0  0  0  0  0  0  0
  193.9440  176.7770  137.0960 O   0  0  0  0  0  1  0  0  0  0  0  0
  193.0030  176.5300  138.0950 C   0  0  0  0  0  2  0  0  0  0  0  0
  1 12  1  1  0  0  0
  1 10  1  0  0  0  0
  2 13  1  6  0  0  0
  2  6  1  0  0  0  0
  4 17  1  0  0  0  0
  5 10  1  0  0  0  0
  6  5  1  0  0  0  0
  7 17  1  0  0  0  0
  7 13  1  0  0  0  0
  8  3  1  6  0  0  0
  8  2  1  0  0  0  0
  8  1  1  0  0  0  0
  9 16  1  0  0  0  0
  9  4  2  0  0  0  0
 11 12  1  0  0  0  0
 14  4  1  0  0  0  0
 14 15  2  0  0  0  0
 15 18  1  0  0  0  0
 16  7  2  0  0  0  0
 17  3  2  0  0  0  0
 18  3  1  0  0  0  0
 18 11  1  1  0  0  0
 19 25  1  0  0  0  0
 20 22  1  0  0  0  0
 20 19  1  0  0  0  0
 21 15  1  0  0  0  0
 21 23  1  0  0  0  0
 22 24  1  0  0  0  0
 24 21  1  0  0  0  0
 25 23  1  0  0  0  0
 26 16  1  0  0  0  0
 27 26  1  0  0  0  0
 28 27  1  0  0  0  0
 28 29  1  0  0  0  0
 30 32  2  0  0  0  0
 32 31  2  0  0  0  0
 32 29  1  0  0  0  0
 32 34  1  0  0  0  0
 33 34  1  0  0  0  0
M  END
>  <MODEL>
6

>  <REMARK>
 VINA RESULT:      -8.2      4.603      7.698
  Name = 
  7 active torsions:
  status: ('A' for Active; 'I' for Inactive)
    1  A    between atoms: C_3  and  C_13
    2  A    between atoms: C_3  and  C_17
    3  A    between atoms: N_12  and  C_28
    4  A    between atoms: C_13  and  C_33
    5  A    between atoms: C_14  and  S_34
    6  A    between atoms: C_17  and  C_29
    7  A    between atoms: C_33  and  S_34
                            x       y       z     vdW  Elec       q    Type
                         _______ _______ _______ _____ _____    ______ ____

>  <TORSDO>
F 7

$$$$
=
 OpenBabel10262423543D

 34 39  0  0  1  0  0  0  0  0999 V2000
  185.8320  178.3580  145.0300 C   0  0  1  0  0  3  0  0  0  0  0  0
  184.2200  178.2220  143.0060 C   0  0  2  0  0  3  0  0  0  0  0  0
  186.7990  178.1710  142.8190 C   0  0  0  0  0  0  0  0  0  0  0  0
  187.7730  178.3930  140.6290 C   0  0  0  0  0  0  0  0  0  0  0  0
  183.4450  179.1630  145.2210 C   0  0  0  0  0  2  0  0  0  0  0  0
  183.6190  179.4330  143.7120 C   0  0  0  0  0  2  0  0  0  0  0  0
  185.4690  178.3590  140.7940 C   0  0  0  0  0  0  0  0  0  0  0  0
  185.5940  177.8050  143.6270 C   0  0  1  0  0  3  0  0  0  0  0  0
  187.3010  178.4460  139.3840 C   0  0  0  0  0  3  0  0  0  0  0  0
  184.5570  178.3050  145.8590 C   0  0  0  0  0  2  0  0  0  0  0  0
  188.2120  177.3910  144.7100 C   0  0  0  0  0  2  0  0  0  0  0  0
  187.0420  177.6710  145.6920 C   0  0  0  0  0  2  0  0  0  0  0  0
  184.1210  178.3130  141.4540 C   0  0  0  0  0  2  0  0  0  0  0  0
  189.1410  178.2250  141.1340 C   0  0  0  0  0  3  0  0  0  0  0  0
  189.3470  178.1180  142.4730 C   0  0  0  0  0  0  0  0  0  0  0  0
  185.8160  178.4400  139.5090 C   0  0  0  0  0  0  0  0  0  0  0  0
  186.6790  178.3360  141.5290 C   0  0  0  0  0  0  0  0  0  0  0  0
  188.1680  178.2870  143.4590 C   0  0  1  0  0  3  0  0  0  0  0  0
  190.8420  175.8450  144.8100 C   0  0  0  0  0  2  0  0  0  0  0  0
  191.6720  176.9080  145.5210 C   0  0  0  0  0  2  0  0  0  0  0  0
  190.6990  178.0120  142.9680 N   0  0  0  0  0  0  0  0  0  0  0  0
  190.9930  178.2690  145.3980 C   0  0  0  0  0  2  0  0  0  0  0  0
  191.5750  176.9150  142.5750 C   0  0  0  0  0  2  0  0  0  0  0  0
  191.2010  178.8930  144.0200 C   0  0  0  0  0  2  0  0  0  0  0  0
  191.2510  175.6310  143.3460 C   0  0  0  0  0  2  0  0  0  0  0  0
  184.8630  178.5360  138.3680 C   0  0  0  0  0  2  0  0  0  0  0  0
  184.5950  177.1570  137.8010 C   0  0  0  0  0  2  0  0  0  0  0  0
  185.3950  176.9690  136.5320 C   0  0  0  0  0  2  0  0  0  0  0  0
  186.4720  175.9280  136.7640 C   0  0  0  0  0  2  0  0  0  0  0  0
  187.9570  178.0040  135.9470 O   0  0  0  0  0  0  0  0  0  0  0  0
  188.3450  175.8550  134.8380 O   0  0  0  0  0  0  0  0  0  0  0  0
  188.0360  176.5180  136.1500 S   0  0  0  0  0  0  0  0  0  0  0  0
  190.1080  177.2890  137.5280 O   0  0  0  0  0  1  0  0  0  0  0  0
  189.3310  176.1500  137.3140 C   0  0  0  0  0  2  0  0  0  0  0  0
  1 12  1  1  0  0  0
  1 10  1  0  0  0  0
  2 13  1  6  0  0  0
  2  8  1  0  0  0  0
  2  6  1  0  0  0  0
  3 18  1  0  0  0  0
  4 14  1  0  0  0  0
  4 17  1  0  0  0  0
  5 10  1  0  0  0  0
  6  5  1  0  0  0  0
  7 13  1  0  0  0  0
  7 17  1  0  0  0  0
  8  3  1  6  0  0  0
  8  1  1  0  0  0  0
  9 16  1  0  0  0  0
  9  4  2  0  0  0  0
 11 12  1  0  0  0  0
 14 15  2  0  0  0  0
 15 21  1  0  0  0  0
 15 18  1  0  0  0  0
 16  7  2  0  0  0  0
 17  3  2  0  0  0  0
 18 11  1  1  0  0  0
 19 20  1  0  0  0  0
 21 24  1  0  0  0  0
 22 20  1  0  0  0  0
 23 21  1  0  0  0  0
 23 25  1  0  0  0  0
 24 22  1  0  0  0  0
 25 19  1  0  0  0  0
 26 16  1  0  0  0  0
 27 26  1  0  0  0  0
 28 29  1  0  0  0  0
 28 27  1  0  0  0  0
 30 32  2  0  0  0  0
 31 32  2  0  0  0  0
 32 29  1  0  0  0  0
 32 34  1  0  0  0  0
 34 33  1  0  0  0  0
M  END
>  <MODEL>
7

>  <REMARK>
 VINA RESULT:      -8.2      3.302      6.062
  Name = 
  7 active torsions:
  status: ('A' for Active; 'I' for Inactive)
    1  A    between atoms: C_3  and  C_13
    2  A    between atoms: C_3  and  C_17
    3  A    between atoms: N_12  and  C_28
    4  A    between atoms: C_13  and  C_33
    5  A    between atoms: C_14  and  S_34
    6  A    between atoms: C_17  and  C_29
    7  A    between atoms: C_33  and  S_34
                            x       y       z     vdW  Elec       q    Type
                         _______ _______ _______ _____ _____    ______ ____

>  <TORSDO>
F 7

$$$$
=
 OpenBabel10262423543D

 34 39  0  0  1  0  0  0  0  0999 V2000
  182.1750  178.9200  140.2670 C   0  0  1  0  0  3  0  0  0  0  0  0
  182.4200  179.0400  142.8440 C   0  0  2  0  0  3  0  0  0  0  0  0
  184.3990  178.7310  141.2070 C   0  0  0  0  0  0  0  0  0  0  0  0
  186.5410  178.1420  142.1300 C   0  0  0  0  0  0  0  0  0  0  0  0
  180.2020  178.4600  141.7760 C   0  0  0  0  0  2  0  0  0  0  0  0
  181.3040  178.0040  142.7540 C   0  0  0  0  0  2  0  0  0  0  0  0
  184.7890  178.4940  143.5930 C   0  0  0  0  0  0  0  0  0  0  0  0
  183.0510  179.3400  141.4440 C   0  0  1  0  0  3  0  0  0  0  0  0
  187.0390  178.0130  143.3590 C   0  0  0  0  0  2  0  0  0  0  0  0
  180.7110  179.2310  140.5410 C   0  0  0  0  0  2  0  0  0  0  0  0
  184.2590  179.5260  138.8550 C   0  0  0  0  0  2  0  0  0  0  0  0
  182.7090  179.5120  138.9490 C   0  0  0  0  0  2  0  0  0  0  0  0
  183.3860  178.7900  144.0390 C   0  0  0  0  0  2  0  0  0  0  0  0
  187.2050  178.1850  140.8210 C   0  0  0  0  0  3  0  0  0  0  0  0
  186.4630  178.4120  139.7060 C   0  0  0  0  0  0  0  0  0  0  0  0
  185.8940  178.2270  144.2890 C   0  0  0  0  0  0  0  0  0  0  0  0
  185.1590  178.4410  142.2270 C   0  0  0  0  0  0  0  0  0  0  0  0
  184.9220  178.5090  139.8020 C   0  0  0  0  0  0  0  0  0  0  0  0
  187.3310  175.6980  137.5300 C   0  0  0  0  0  2  0  0  0  0  0  0
  188.6980  176.2580  137.1520 C   0  0  0  0  0  2  0  0  0  0  0  0
  187.1110  178.3950  138.4160 N   0  0  0  0  0  0  0  0  0  0  0  0
  189.2270  177.1460  138.2760 C   0  0  0  0  0  2  0  0  0  0  0  0
  186.3790  178.0770  137.1960 C   0  0  0  0  0  2  0  0  0  0  0  0
  188.5600  178.5200  138.2850 C   0  0  0  0  0  2  0  0  0  0  0  0
  186.1630  176.5670  137.0470 C   0  0  0  0  0  2  0  0  0  0  0  0
  185.9710  178.1290  145.7740 C   0  0  0  0  0  2  0  0  0  0  0  0
  187.0510  177.1450  146.1710 C   0  0  0  0  0  2  0  0  0  0  0  0
  188.2820  177.9010  146.6200 C   0  0  0  0  0  2  0  0  0  0  0  0
  189.4790  176.9720  146.6010 C   0  0  0  0  0  2  0  0  0  0  0  0
  191.9810  177.2870  145.6910 O   0  0  0  0  0  0  0  0  0  0  0  0
  190.2720  178.7910  144.7870 O   0  0  0  0  0  0  0  0  0  0  0  0
  190.5520  177.3860  145.2410 S   0  0  0  0  0  0  0  0  0  0  0  0
  190.2320  176.9810  142.6870 O   0  0  0  0  0  1  0  0  0  0  0  0
  190.2820  176.2660  143.8840 C   0  0  0  0  0  2  0  0  0  0  0  0
  1 12  1  6  0  0  0
  1 10  1  0  0  0  0
  1  8  1  0  0  0  0
  2  6  1  6  0  0  0
  2 13  1  0  0  0  0
  3 17  1  0  0  0  0
  4 17  2  0  0  0  0
  4  9  1  0  0  0  0
  5  6  1  0  0  0  0
  7 13  1  0  0  0  0
  7 16  2  0  0  0  0
  8  3  1  1  0  0  0
  8  2  1  0  0  0  0
  9 16  1  0  0  0  0
 10  5  1  0  0  0  0
 11 12  1  0  0  0  0
 11 18  1  0  0  0  0
 14  4  1  0  0  0  0
 15 18  1  0  0  0  0
 15 14  2  0  0  0  0
 16 26  1  0  0  0  0
 17  7  1  0  0  0  0
 18  3  2  0  0  0  0
 20 19  1  0  0  0  0
 20 22  1  0  0  0  0
 21 15  1  0  0  0  0
 22 24  1  0  0  0  0
 23 21  1  0  0  0  0
 24 21  1  0  0  0  0
 25 23  1  0  0  0  0
 25 19  1  0  0  0  0
 26 27  1  0  0  0  0
 27 28  1  0  0  0  0
 29 28  1  0  0  0  0
 31 32  2  0  0  0  0
 32 30  2  0  0  0  0
 32 29  1  0  0  0  0
 33 34  1  0  0  0  0
 34 32  1  0  0  0  0
M  END
>  <MODEL>
8

>  <REMARK>
 VINA RESULT:      -8.1      3.646      6.809
  Name = 
  7 active torsions:
  status: ('A' for Active; 'I' for Inactive)
    1  A    between atoms: C_3  and  C_13
    2  A    between atoms: C_3  and  C_17
    3  A    between atoms: N_12  and  C_28
    4  A    between atoms: C_13  and  C_33
    5  A    between atoms: C_14  and  S_34
    6  A    between atoms: C_17  and  C_29
    7  A    between atoms: C_33  and  S_34
                            x       y       z     vdW  Elec       q    Type
                         _______ _______ _______ _____ _____    ______ ____

>  <TORSDO>
F 7

$$$$
=
 OpenBabel10262423543D

 34 39  0  0  1  0  0  0  0  0999 V2000
  184.8120  178.1950  144.7820 C   0  0  1  0  0  3  0  0  0  0  0  0
  187.2100  178.3980  143.8230 C   0  0  2  0  0  3  0  0  0  0  0  0
  185.0560  178.5240  142.3960 C   0  0  0  0  0  0  0  0  0  0  0  0
  185.2870  178.4440  140.0020 C   0  0  0  0  0  0  0  0  0  0  0  0
  186.7990  177.3200  146.0730 C   0  0  0  0  0  2  0  0  0  0  0  0
  187.3900  177.1350  144.6610 C   0  0  0  0  0  2  0  0  0  0  0  0
  187.2110  178.4100  141.2790 C   0  0  0  0  0  0  0  0  0  0  0  0
  185.7070  178.8160  143.7130 C   0  0  1  0  0  3  0  0  0  0  0  0
  186.3100  178.4460  139.1490 C   0  0  0  0  0  3  0  0  0  0  0  0
  185.5140  178.1720  146.1320 C   0  0  0  0  0  2  0  0  0  0  0  0
  182.8930  179.2390  143.3920 C   0  0  0  0  0  2  0  0  0  0  0  0
  183.4300  178.8770  144.8040 C   0  0  0  0  0  2  0  0  0  0  0  0
  188.0600  178.3860  142.5180 C   0  0  0  0  0  2  0  0  0  0  0  0
  183.8470  178.6200  139.7790 C   0  0  0  0  0  3  0  0  0  0  0  0
  183.0080  178.6610  140.8470 C   0  0  0  0  0  0  0  0  0  0  0  0
  187.5420  178.4070  139.9880 C   0  0  0  0  0  0  0  0  0  0  0  0
  185.7960  178.4250  141.3250 C   0  0  0  0  0  0  0  0  0  0  0  0
  183.5500  178.4100  142.2740 C   0  0  1  0  0  3  0  0  0  0  0  0
  180.8460  177.0210  138.5040 C   0  0  0  0  0  2  0  0  0  0  0  0
  180.0420  178.2700  138.1620 C   0  0  0  0  0  2  0  0  0  0  0  0
  181.5870  178.7750  140.6200 N   0  0  0  0  0  0  0  0  0  0  0  0
  180.8970  179.5160  138.3770 C   0  0  0  0  0  2  0  0  0  0  0  0
  180.6650  177.7070  140.9880 C   0  0  0  0  0  2  0  0  0  0  0  0
  181.0190  179.8820  139.8540 C   0  0  0  0  0  2  0  0  0  0  0  0
  180.6820  176.5700  139.9610 C   0  0  0  0  0  2  0  0  0  0  0  0
  188.9330  178.3460  139.4580 C   0  0  0  0  0  2  0  0  0  0  0  0
  188.9330  178.6370  137.9720 C   0  0  0  0  0  2  0  0  0  0  0  0
  189.6030  177.4970  137.2350 C   0  0  0  0  0  2  0  0  0  0  0  0
  189.2360  176.1850  137.8970 C   0  0  0  0  0  2  0  0  0  0  0  0
  189.7390  173.6110  137.3420 O   0  0  0  0  0  0  0  0  0  0  0  0
  190.1490  175.2350  135.5540 O   0  0  0  0  0  0  0  0  0  0  0  0
  189.2410  174.8710  136.6950 S   0  0  0  0  0  0  0  0  0  0  0  0
  186.6930  174.5540  137.1360 O   0  0  0  0  0  1  0  0  0  0  0  0
  187.5940  174.6030  136.0730 C   0  0  0  0  0  2  0  0  0  0  0  0
  1 12  1  1  0  0  0
  1 10  1  0  0  0  0
  2 13  1  6  0  0  0
  2  6  1  0  0  0  0
  4 17  1  0  0  0  0
  5 10  1  0  0  0  0
  6  5  1  0  0  0  0
  7 17  1  0  0  0  0
  7 13  1  0  0  0  0
  8  3  1  6  0  0  0
  8  2  1  0  0  0  0
  8  1  1  0  0  0  0
  9 16  1  0  0  0  0
  9  4  2  0  0  0  0
 11 12  1  0  0  0  0
 14  4  1  0  0  0  0
 14 15  2  0  0  0  0
 15 18  1  0  0  0  0
 16  7  2  0  0  0  0
 17  3  2  0  0  0  0
 18  3  1  0  0  0  0
 18 11  1  1  0  0  0
 19 25  1  0  0  0  0
 20 22  1  0  0  0  0
 20 19  1  0  0  0  0
 21 15  1  0  0  0  0
 21 23  1  0  0  0  0
 22 24  1  0  0  0  0
 24 21  1  0  0  0  0
 25 23  1  0  0  0  0
 26 16  1  0  0  0  0
 27 26  1  0  0  0  0
 28 29  1  0  0  0  0
 28 27  1  0  0  0  0
 31 32  2  0  0  0  0
 32 30  2  0  0  0  0
 32 29  1  0  0  0  0
 34 32  1  0  0  0  0
 34 33  1  0  0  0  0
M  END
>  <MODEL>
9

>  <REMARK>
 VINA RESULT:      -7.9      3.685      7.234
  Name = 
  7 active torsions:
  status: ('A' for Active; 'I' for Inactive)
    1  A    between atoms: C_3  and  C_13
    2  A    between atoms: C_3  and  C_17
    3  A    between atoms: N_12  and  C_28
    4  A    between atoms: C_13  and  C_33
    5  A    between atoms: C_14  and  S_34
    6  A    between atoms: C_17  and  C_29
    7  A    between atoms: C_33  and  S_34
                            x       y       z     vdW  Elec       q    Type
                         _______ _______ _______ _____ _____    ______ ____

>  <TORSDO>
F 7

$$$$
