=
 OpenBabel10272415043D

 37 41  0  0  1  0  0  0  0  0999 V2000
  184.9880  179.1070  139.0050 C   0  0  1  0  0  3  0  0  0  0  0  0
  183.1700  179.0270  137.6250 O   0  0  0  0  0  1  0  0  0  0  0  0
  185.0720  176.6580  137.9400 C   0  0  1  0  0  3  0  0  0  0  0  0
  182.7150  175.6800  139.6420 O   0  0  0  0  0  0  0  0  0  0  0  0
  186.1000  176.0320  136.9780 C   0  0  0  0  0  2  0  0  0  0  0  0
  183.4970  179.3900  138.9390 C   0  0  1  0  0  0  0  0  0  0  0  0
  182.5800  176.4380  138.6440 C   0  0  0  0  0  0  0  0  0  0  0  0
  181.2780  178.3940  139.4930 C   0  0  0  0  0  0  0  0  0  0  0  0
  186.5070  178.3540  137.1350 C   0  0  0  0  0  0  0  0  0  0  0  0
  184.2300  178.2450  140.3000 S   0  0  0  0  0  0  0  0  0  0  0  0
  182.1870  179.3850  139.6690 C   0  0  0  0  0  3  0  0  0  0  0  0
  185.4210  178.1000  138.0010 N   0  0  0  0  0  0  0  0  0  0  0  0
  183.5840  176.3730  137.5050 C   0  0  2  0  0  3  0  0  0  0  0  0
  187.0150  177.1460  136.4550 C   0  0  1  0  0  3  0  0  0  0  0  0
  181.4840  177.3220  138.5910 O   0  0  0  0  0  0  0  0  0  0  0  0
  186.9890  179.5060  136.9600 O   0  0  0  0  0  0  0  0  0  0  0  0
  189.3550  177.0480  135.5440 C   0  0  0  0  0  2  0  0  0  0  0  0
  188.4940  176.8940  136.7800 C   0  0  2  0  0  3  0  0  0  0  0  0
  188.7810  175.4960  137.2610 C   0  0  0  0  0  2  0  0  0  0  0  0
  189.7530  174.9630  136.2320 C   0  0  1  0  0  3  0  0  0  0  0  0
  190.3390  176.0470  135.5600 O   0  0  0  0  0  0  0  0  0  0  0  0
  191.1830  174.6100  138.1300 O   0  0  0  0  0  1  0  0  0  0  0  0
  190.8190  174.0930  136.8830 C   0  0  0  0  0  2  0  0  0  0  0  0
  183.9180  176.4150  134.7290 O   0  0  0  0  0  1  0  0  0  0  0  0
  183.5180  175.1470  135.1570 C   0  0  2  0  0  3  0  0  0  0  0  0
  182.1220  175.2480  135.7580 C   0  0  2  0  0  3  0  0  0  0  0  0
  183.3460  175.0930  136.6730 C   0  0  2  0  0  0  0  0  0  0  0  0
  181.3510  173.9850  135.5060 C   0  0  0  0  0  0  0  0  0  0  0  0
  180.3250  173.7320  136.1890 O   0  0  0  0  0  1  0  0  0  0  0  0
  181.7290  173.1180  134.4870 O   0  0  0  0  0  0  0  0  0  0  0  0
  183.5160  173.7140  137.3340 C   0  0  0  0  0  2  0  0  0  0  0  0
  184.7680  173.0260  136.9140 C   0  0  0  0  0  0  0  0  0  0  0  0
  187.0440  172.3930  137.4290 O   0  0  0  0  0  1  0  0  0  0  0  0
  184.8400  172.4950  135.7730 O   0  0  0  0  0  0  0  0  0  0  0  0
  185.8850  172.9860  137.7980 N   0  0  0  0  0  2  0  0  0  0  0  0
  180.1070  177.8990  141.4750 O   0  0  0  0  0  1  0  0  0  0  0  0
  179.9820  178.4840  140.2150 C   0  0  0  0  0  2  0  0  0  0  0  0
  1 10  1  1  0  0  0
  3  5  1  6  0  0  0
  3 12  1  0  0  0  0
  6  2  1  6  0  0  0
  6  1  1  0  0  0  0
  6 11  1  0  0  0  0
  6 10  1  0  0  0  0
  7  4  2  0  0  0  0
  8 11  2  0  0  0  0
  8 37  1  0  0  0  0
  9 12  1  0  0  0  0
 12  1  1  0  0  0  0
 13  3  1  0  0  0  0
 13  7  1  1  0  0  0
 14 18  1  0  0  0  0
 14  5  1  1  0  0  0
 14  9  1  0  0  0  0
 15  7  1  0  0  0  0
 15  8  1  0  0  0  0
 16  9  2  0  0  0  0
 17 21  1  0  0  0  0
 18 17  1  6  0  0  0
 18 19  1  0  0  0  0
 20 23  1  1  0  0  0
 20 19  1  0  0  0  0
 21 20  1  0  0  0  0
 23 22  1  0  0  0  0
 25 24  1  1  0  0  0
 25 26  1  0  0  0  0
 25 27  1  0  0  0  0
 26 28  1  6  0  0  0
 26 27  1  0  0  0  0
 27 31  1  1  0  0  0
 27 13  1  0  0  0  0
 28 29  1  0  0  0  0
 30 28  2  0  0  0  0
 32 31  1  0  0  0  0
 32 35  1  0  0  0  0
 33 35  1  0  0  0  0
 34 32  2  0  0  0  0
 37 36  1  0  0  0  0
M  END
>  <MODEL>
1

>  <REMARK>
 VINA RESULT:      -4.5      0.000      0.000
  Name = 
  7 active torsions:
  status: ('A' for Active; 'I' for Inactive)
    1  A    between atoms: C_1  and  C_5
    2  A    between atoms: C_1  and  C_36
    3  A    between atoms: C_6  and  C_31
    4  A    between atoms: C_11  and  C_33
    5  A    between atoms: C_18  and  C_19
    6  A    between atoms: C_21  and  C_30
    7  A    between atoms: C_29  and  C_36
                            x       y       z     vdW  Elec       q    Type
                         _______ _______ _______ _____ _____    ______ ____

>  <TORSDO>
F 7

$$$$
=
 OpenBabel10272415043D

 37 41  0  0  1  0  0  0  0  0999 V2000
  183.1270  173.5380  136.5960 C   0  0  1  0  0  3  0  0  0  0  0  0
  184.2200  173.7830  134.6050 O   0  0  0  0  0  1  0  0  0  0  0  0
  185.0290  175.3460  137.1010 C   0  0  1  0  0  3  0  0  0  0  0  0
  187.2520  173.2340  137.0500 O   0  0  0  0  0  0  0  0  0  0  0  0
  184.9040  176.8380  137.4640 C   0  0  0  0  0  2  0  0  0  0  0  0
  183.7710  172.7650  135.4580 C   0  0  1  0  0  0  0  0  0  0  0  0
  186.6890  173.6710  136.0100 C   0  0  0  0  0  0  0  0  0  0  0  0
  185.8960  171.6340  134.8020 C   0  0  0  0  0  0  0  0  0  0  0  0
  182.7910  176.0330  136.7790 C   0  0  0  0  0  0  0  0  0  0  0  0
  184.3060  172.4750  137.2820 S   0  0  0  0  0  0  0  0  0  0  0  0
  184.5650  171.5580  135.0550 C   0  0  0  0  0  3  0  0  0  0  0  0
  183.6590  174.9210  136.7160 N   0  0  0  0  0  0  0  0  0  0  0  0
  186.1200  175.0800  135.9960 C   0  0  2  0  0  3  0  0  0  0  0  0
  183.4510  177.2720  137.2370 C   0  0  1  0  0  3  0  0  0  0  0  0
  186.6160  172.8510  134.8660 O   0  0  0  0  0  0  0  0  0  0  0  0
  181.5720  175.9690  136.4660 O   0  0  0  0  0  0  0  0  0  0  0  0
  182.9860  179.3210  138.6150 C   0  0  0  0  0  2  0  0  0  0  0  0
  182.7950  177.8230  138.5110 C   0  0  2  0  0  3  0  0  0  0  0  0
  183.3940  177.2830  139.7840 C   0  0  0  0  0  2  0  0  0  0  0  0
  183.9070  178.5220  140.4840 C   0  0  1  0  0  3  0  0  0  0  0  0
  183.2490  179.6440  139.9560 O   0  0  0  0  0  0  0  0  0  0  0  0
  184.8410  178.8310  142.6760 O   0  0  0  0  0  1  0  0  0  0  0  0
  183.6920  178.4300  141.9880 C   0  0  0  0  0  2  0  0  0  0  0  0
  185.8740  177.3380  134.3650 O   0  0  0  0  0  1  0  0  0  0  0  0
  187.1190  177.3210  134.9970 C   0  0  2  0  0  3  0  0  0  0  0  0
  187.9030  176.1110  134.5080 C   0  0  2  0  0  3  0  0  0  0  0  0
  187.2720  176.1060  135.9090 C   0  0  2  0  0  0  0  0  0  0  0  0
  189.3720  176.4170  134.4730 C   0  0  0  0  0  0  0  0  0  0  0  0
  189.7600  177.6080  134.3460 O   0  0  0  0  0  0  0  0  0  0  0  0
  190.3100  175.4040  134.6350 O   0  0  0  0  0  1  0  0  0  0  0  0
  188.2530  176.2500  137.0850 C   0  0  0  0  0  2  0  0  0  0  0  0
  188.1150  177.5530  137.7920 C   0  0  0  0  0  0  0  0  0  0  0  0
  188.1080  178.7740  139.8790 O   0  0  0  0  0  1  0  0  0  0  0  0
  187.8570  178.5980  137.1380 O   0  0  0  0  0  0  0  0  0  0  0  0
  188.2580  177.6070  139.2090 N   0  0  0  0  0  2  0  0  0  0  0  0
  185.9650  169.2810  134.8860 O   0  0  0  0  0  1  0  0  0  0  0  0
  186.6040  170.4040  134.3600 C   0  0  0  0  0  2  0  0  0  0  0  0
  1 12  1  0  0  0  0
  1 10  1  1  0  0  0
  3  5  1  6  0  0  0
  6  2  1  6  0  0  0
  6  1  1  0  0  0  0
  6 10  1  0  0  0  0
  7  4  2  0  0  0  0
  8 15  1  0  0  0  0
  8 11  2  0  0  0  0
  9 14  1  0  0  0  0
 11  6  1  0  0  0  0
 12  9  1  0  0  0  0
 12  3  1  0  0  0  0
 13  7  1  1  0  0  0
 13  3  1  0  0  0  0
 14  5  1  1  0  0  0
 14 18  1  0  0  0  0
 15  7  1  0  0  0  0
 16  9  2  0  0  0  0
 17 21  1  0  0  0  0
 18 17  1  1  0  0  0
 18 19  1  0  0  0  0
 19 20  1  0  0  0  0
 20 23  1  1  0  0  0
 21 20  1  0  0  0  0
 23 22  1  0  0  0  0
 25 24  1  6  0  0  0
 25 27  1  0  0  0  0
 26 28  1  1  0  0  0
 26 25  1  0  0  0  0
 26 27  1  0  0  0  0
 27 13  1  0  0  0  0
 27 31  1  1  0  0  0
 28 30  1  0  0  0  0
 29 28  2  0  0  0  0
 31 32  1  0  0  0  0
 32 35  1  0  0  0  0
 34 32  2  0  0  0  0
 35 33  1  0  0  0  0
 37  8  1  0  0  0  0
 37 36  1  0  0  0  0
M  END
>  <MODEL>
2

>  <REMARK>
 VINA RESULT:      -4.4      2.405      7.071
  Name = 
  7 active torsions:
  status: ('A' for Active; 'I' for Inactive)
    1  A    between atoms: C_1  and  C_5
    2  A    between atoms: C_1  and  C_36
    3  A    between atoms: C_6  and  C_31
    4  A    between atoms: C_11  and  C_33
    5  A    between atoms: C_18  and  C_19
    6  A    between atoms: C_21  and  C_30
    7  A    between atoms: C_29  and  C_36
                            x       y       z     vdW  Elec       q    Type
                         _______ _______ _______ _____ _____    ______ ____

>  <TORSDO>
F 7

$$$$
=
 OpenBabel10272415043D

 37 41  0  0  1  0  0  0  0  0999 V2000
  191.5540  176.3940  139.6470 C   0  0  1  0  0  3  0  0  0  0  0  0
  190.4830  174.8950  138.2970 O   0  0  0  0  0  1  0  0  0  0  0  0
  189.1670  177.5040  139.1840 C   0  0  1  0  0  3  0  0  0  0  0  0
  189.9040  178.2320  136.2970 O   0  0  0  0  0  0  0  0  0  0  0  0
  188.0040  177.7900  140.1540 C   0  0  0  0  0  2  0  0  0  0  0  0
  191.7180  175.5510  138.3940 C   0  0  1  0  0  0  0  0  0  0  0  0
  189.6250  177.0590  136.6650 C   0  0  0  0  0  0  0  0  0  0  0  0
  191.5570  175.6700  135.9070 C   0  0  0  0  0  0  0  0  0  0  0  0
  189.6000  176.4310  141.2450 C   0  0  0  0  0  0  0  0  0  0  0  0
  192.0150  177.4510  138.3570 S   0  0  0  0  0  0  0  0  0  0  0  0
  192.3050  175.4540  137.0170 C   0  0  0  0  0  3  0  0  0  0  0  0
  190.1280  176.6770  139.9580 N   0  0  0  0  0  0  0  0  0  0  0  0
  188.6850  176.8400  137.8390 C   0  0  2  0  0  3  0  0  0  0  0  0
  188.2930  177.0770  141.4800 C   0  0  1  0  0  3  0  0  0  0  0  0
  190.1740  175.9660  135.9650 O   0  0  0  0  0  0  0  0  0  0  0  0
  190.1910  175.7220  142.1030 O   0  0  0  0  0  0  0  0  0  0  0  0
  189.7810  178.3610  143.0470 C   0  0  0  0  0  2  0  0  0  0  0  0
  188.3490  178.0460  142.6700 C   0  0  2  0  0  3  0  0  0  0  0  0
  187.7450  177.4900  143.9340 C   0  0  0  0  0  2  0  0  0  0  0  0
  188.9010  177.5030  144.9100 C   0  0  1  0  0  3  0  0  0  0  0  0
  189.8730  178.4040  144.4470 O   0  0  0  0  0  0  0  0  0  0  0  0
  187.0490  178.0710  146.3300 O   0  0  0  0  0  1  0  0  0  0  0  0
  188.4340  177.8850  146.3060 C   0  0  0  0  0  2  0  0  0  0  0  0
  186.8360  174.7610  137.5590 O   0  0  0  0  0  1  0  0  0  0  0  0
  186.2480  175.9880  137.2440 C   0  0  2  0  0  3  0  0  0  0  0  0
  186.9380  176.5640  136.0150 C   0  0  2  0  0  3  0  0  0  0  0  0
  187.2330  177.1430  137.4070 C   0  0  2  0  0  0  0  0  0  0  0  0
  185.9650  177.3530  135.1890 C   0  0  0  0  0  0  0  0  0  0  0  0
  186.3900  178.2080  134.3690 O   0  0  0  0  0  0  0  0  0  0  0  0
  184.5990  177.1110  135.2830 O   0  0  0  0  0  1  0  0  0  0  0  0
  186.6260  178.5260  137.6970 C   0  0  0  0  0  2  0  0  0  0  0  0
  185.4150  178.4530  138.5610 C   0  0  0  0  0  0  0  0  0  0  0  0
  184.0770  179.4330  140.3200 O   0  0  0  0  0  1  0  0  0  0  0  0
  184.6370  177.4660  138.4690 O   0  0  0  0  0  0  0  0  0  0  0  0
  185.1540  179.4910  139.5020 N   0  0  0  0  0  2  0  0  0  0  0  0
  193.5430  175.8730  134.6570 O   0  0  0  0  0  1  0  0  0  0  0  0
  192.2000  175.5070  134.5760 C   0  0  0  0  0  2  0  0  0  0  0  0
  1 10  1  6  0  0  0
  1 12  1  0  0  0  0
  3 12  1  0  0  0  0
  3  5  1  1  0  0  0
  4  7  2  0  0  0  0
  6  2  1  6  0  0  0
  6  1  1  0  0  0  0
  8 15  1  0  0  0  0
  8 11  2  0  0  0  0
  9 14  1  0  0  0  0
  9 16  2  0  0  0  0
 10  6  1  0  0  0  0
 11  6  1  0  0  0  0
 12  9  1  0  0  0  0
 13  7  1  6  0  0  0
 13  3  1  0  0  0  0
 14  5  1  6  0  0  0
 14 18  1  0  0  0  0
 15  7  1  0  0  0  0
 17 21  1  0  0  0  0
 18 17  1  1  0  0  0
 18 19  1  0  0  0  0
 19 20  1  0  0  0  0
 20 23  1  1  0  0  0
 21 20  1  0  0  0  0
 23 22  1  0  0  0  0
 25 27  1  0  0  0  0
 25 24  1  1  0  0  0
 26 28  1  6  0  0  0
 26 25  1  0  0  0  0
 26 27  1  0  0  0  0
 27 31  1  1  0  0  0
 27 13  1  0  0  0  0
 28 30  1  0  0  0  0
 29 28  2  0  0  0  0
 31 32  1  0  0  0  0
 32 35  1  0  0  0  0
 34 32  2  0  0  0  0
 35 33  1  0  0  0  0
 37 36  1  0  0  0  0
 37  8  1  0  0  0  0
M  END
>  <MODEL>
3

>  <REMARK>
 VINA RESULT:      -4.1      4.049      7.829
  Name = 
  7 active torsions:
  status: ('A' for Active; 'I' for Inactive)
    1  A    between atoms: C_1  and  C_5
    2  A    between atoms: C_1  and  C_36
    3  A    between atoms: C_6  and  C_31
    4  A    between atoms: C_11  and  C_33
    5  A    between atoms: C_18  and  C_19
    6  A    between atoms: C_21  and  C_30
    7  A    between atoms: C_29  and  C_36
                            x       y       z     vdW  Elec       q    Type
                         _______ _______ _______ _____ _____    ______ ____

>  <TORSDO>
F 7

$$$$
=
 OpenBabel10272415043D

 37 41  0  0  1  0  0  0  0  0999 V2000
  187.2980  178.4370  137.9170 C   0  0  1  0  0  3  0  0  0  0  0  0
  187.4750  176.1620  138.0160 O   0  0  0  0  0  1  0  0  0  0  0  0
  184.9440  177.5480  137.0180 C   0  0  1  0  0  3  0  0  0  0  0  0
  186.1430  176.6390  134.3460 O   0  0  0  0  0  0  0  0  0  0  0  0
  183.5360  177.6820  137.6310 C   0  0  0  0  0  2  0  0  0  0  0  0
  188.1970  177.2690  137.5490 C   0  0  1  0  0  0  0  0  0  0  0  0
  186.3090  176.0130  135.4270 C   0  0  0  0  0  0  0  0  0  0  0  0
  188.7840  175.7600  135.6510 C   0  0  0  0  0  0  0  0  0  0  0  0
  185.1380  178.3790  139.2220 C   0  0  0  0  0  0  0  0  0  0  0  0
  187.6240  178.5370  136.2210 S   0  0  0  0  0  0  0  0  0  0  0  0
  189.1640  176.6970  136.5550 C   0  0  0  0  0  3  0  0  0  0  0  0
  185.8760  178.0340  138.0680 N   0  0  0  0  0  0  0  0  0  0  0  0
  185.2480  176.0870  136.5130 C   0  0  2  0  0  3  0  0  0  0  0  0
  183.6800  178.2080  139.0640 C   0  0  1  0  0  3  0  0  0  0  0  0
  187.4700  175.2340  135.6040 O   0  0  0  0  0  0  0  0  0  0  0  0
  185.6800  178.7870  140.2840 O   0  0  0  0  0  0  0  0  0  0  0  0
  181.8670  179.3800  140.3520 C   0  0  0  0  0  2  0  0  0  0  0  0
  182.9300  179.5300  139.2840 C   0  0  2  0  0  3  0  0  0  0  0  0
  182.1740  180.0080  138.0710 C   0  0  0  0  0  2  0  0  0  0  0  0
  180.7390  180.0510  138.5470 C   0  0  1  0  0  3  0  0  0  0  0  0
  180.7290  180.0970  139.9510 O   0  0  0  0  0  0  0  0  0  0  0  0
  180.7860  182.4040  138.0620 O   0  0  0  0  0  1  0  0  0  0  0  0
  180.0040  181.2490  137.9640 C   0  0  0  0  0  2  0  0  0  0  0  0
  183.7300  174.7810  138.4630 O   0  0  0  0  0  1  0  0  0  0  0  0
  183.2240  174.5160  137.1880 C   0  0  2  0  0  3  0  0  0  0  0  0
  184.2700  173.7450  136.3940 C   0  0  2  0  0  3  0  0  0  0  0  0
  184.0260  175.2340  136.1050 C   0  0  2  0  0  0  0  0  0  0  0  0
  183.6080  172.7950  135.4400 C   0  0  0  0  0  0  0  0  0  0  0  0
  184.2600  172.3210  134.4740 O   0  0  0  0  0  0  0  0  0  0  0  0
  182.2940  172.3890  135.6460 O   0  0  0  0  0  1  0  0  0  0  0  0
  183.2820  175.5470  134.7950 C   0  0  0  0  0  2  0  0  0  0  0  0
  181.9550  176.1820  135.0260 C   0  0  0  0  0  0  0  0  0  0  0  0
  180.6410  178.2050  135.2010 O   0  0  0  0  0  1  0  0  0  0  0  0
  180.9530  175.4650  135.2890 O   0  0  0  0  0  0  0  0  0  0  0  0
  181.8300  177.6010  134.9660 N   0  0  0  0  0  2  0  0  0  0  0  0
  190.9510  176.0080  134.7640 O   0  0  0  0  0  1  0  0  0  0  0  0
  189.8110  175.2050  134.7310 C   0  0  0  0  0  2  0  0  0  0  0  0
  1 10  1  6  0  0  0
  1 12  1  0  0  0  0
  3  5  1  1  0  0  0
  3 12  1  0  0  0  0
  4  7  2  0  0  0  0
  6  1  1  0  0  0  0
  6  2  1  6  0  0  0
  7 15  1  0  0  0  0
  8 11  2  0  0  0  0
  9 16  2  0  0  0  0
 10  6  1  0  0  0  0
 11  6  1  0  0  0  0
 12  9  1  0  0  0  0
 13  7  1  6  0  0  0
 13  3  1  0  0  0  0
 14  5  1  6  0  0  0
 14  9  1  0  0  0  0
 14 18  1  0  0  0  0
 15  8  1  0  0  0  0
 18 19  1  6  0  0  0
 18 17  1  0  0  0  0
 19 20  1  0  0  0  0
 20 23  1  6  0  0  0
 20 21  1  0  0  0  0
 21 17  1  0  0  0  0
 23 22  1  0  0  0  0
 25 24  1  1  0  0  0
 26 28  1  6  0  0  0
 26 25  1  0  0  0  0
 27 31  1  6  0  0  0
 27 26  1  0  0  0  0
 27 13  1  0  0  0  0
 27 25  1  0  0  0  0
 28 30  1  0  0  0  0
 29 28  2  0  0  0  0
 31 32  1  0  0  0  0
 32 34  2  0  0  0  0
 35 32  1  0  0  0  0
 35 33  1  0  0  0  0
 37 36  1  0  0  0  0
 37  8  1  0  0  0  0
M  END
>  <MODEL>
4

>  <REMARK>
 VINA RESULT:      -4.1      2.227      6.814
  Name = 
  7 active torsions:
  status: ('A' for Active; 'I' for Inactive)
    1  A    between atoms: C_1  and  C_5
    2  A    between atoms: C_1  and  C_36
    3  A    between atoms: C_6  and  C_31
    4  A    between atoms: C_11  and  C_33
    5  A    between atoms: C_18  and  C_19
    6  A    between atoms: C_21  and  C_30
    7  A    between atoms: C_29  and  C_36
                            x       y       z     vdW  Elec       q    Type
                         _______ _______ _______ _____ _____    ______ ____

>  <TORSDO>
F 7

$$$$
=
 OpenBabel10272415043D

 37 41  0  0  1  0  0  0  0  0999 V2000
  184.4820  178.7200  140.8770 C   0  0  1  0  0  3  0  0  0  0  0  0
  184.7760  179.7980  138.8850 O   0  0  0  0  0  1  0  0  0  0  0  0
  186.6230  177.5420  139.7950 C   0  0  1  0  0  3  0  0  0  0  0  0
  184.9310  176.0430  137.7230 O   0  0  0  0  0  0  0  0  0  0  0  0
  188.0920  177.5410  140.2590 C   0  0  0  0  0  2  0  0  0  0  0  0
  183.7570  179.1850  139.6260 C   0  0  1  0  0  0  0  0  0  0  0  0
  185.1910  177.2740  137.6430 C   0  0  0  0  0  0  0  0  0  0  0  0
  182.9690  178.3880  137.3970 C   0  0  0  0  0  0  0  0  0  0  0  0
  186.8880  179.1370  141.5190 C   0  0  0  0  0  0  0  0  0  0  0  0
  183.6890  177.3460  140.1870 S   0  0  0  0  0  0  0  0  0  0  0  0
  182.6810  178.8960  138.6210 C   0  0  0  0  0  3  0  0  0  0  0  0
  185.9410  178.5430  140.6550 N   0  0  0  0  0  0  0  0  0  0  0  0
  186.4760  177.8140  138.2500 C   0  0  2  0  0  3  0  0  0  0  0  0
  188.2500  178.5890  141.3670 C   0  0  1  0  0  3  0  0  0  0  0  0
  184.2950  178.1280  136.9710 O   0  0  0  0  0  0  0  0  0  0  0  0
  186.5910  180.0510  142.3340 O   0  0  0  0  0  0  0  0  0  0  0  0
  189.7680  178.9040  143.3460 C   0  0  0  0  0  2  0  0  0  0  0  0
  188.7650  177.9850  142.6820 C   0  0  2  0  0  3  0  0  0  0  0  0
  189.5120  176.6880  142.5020 C   0  0  0  0  0  2  0  0  0  0  0  0
  190.8880  176.9970  143.0460 C   0  0  1  0  0  3  0  0  0  0  0  0
  190.8010  178.1210  143.8840 O   0  0  0  0  0  0  0  0  0  0  0  0
  191.7740  176.1590  145.1170 O   0  0  0  0  0  1  0  0  0  0  0  0
  191.4590  175.8060  143.8010 C   0  0  0  0  0  2  0  0  0  0  0  0
  188.4010  179.7150  137.5470 O   0  0  0  0  0  1  0  0  0  0  0  0
  188.7060  178.4750  136.9820 C   0  0  2  0  0  3  0  0  0  0  0  0
  187.6080  178.1010  135.9940 C   0  0  2  0  0  3  0  0  0  0  0  0
  187.6780  177.4130  137.3660 C   0  0  2  0  0  0  0  0  0  0  0  0
  188.1770  177.3070  134.8550 C   0  0  0  0  0  0  0  0  0  0  0  0
  189.3070  177.6060  134.3870 O   0  0  0  0  0  1  0  0  0  0  0  0
  187.4920  176.2090  134.3460 O   0  0  0  0  0  0  0  0  0  0  0  0
  188.1640  175.9530  137.3580 C   0  0  0  0  0  2  0  0  0  0  0  0
  189.6130  175.8290  137.6780 C   0  0  0  0  0  0  0  0  0  0  0  0
  191.8570  175.3520  136.9150 O   0  0  0  0  0  1  0  0  0  0  0  0
  190.0120  175.9970  138.8610 O   0  0  0  0  0  0  0  0  0  0  0  0
  190.5390  175.5010  136.6460 N   0  0  0  0  0  2  0  0  0  0  0  0
  180.9910  179.2690  136.4720 O   0  0  0  0  0  1  0  0  0  0  0  0
  181.8540  178.1740  136.4370 C   0  0  0  0  0  2  0  0  0  0  0  0
  1 10  1  6  0  0  0
  3  5  1  1  0  0  0
  3 12  1  0  0  0  0
  6  2  1  6  0  0  0
  6 10  1  0  0  0  0
  6  1  1  0  0  0  0
  7  4  2  0  0  0  0
  8 11  2  0  0  0  0
  9 16  2  0  0  0  0
 11  6  1  0  0  0  0
 12  1  1  0  0  0  0
 12  9  1  0  0  0  0
 13  7  1  6  0  0  0
 13  3  1  0  0  0  0
 14  5  1  6  0  0  0
 14  9  1  0  0  0  0
 14 18  1  0  0  0  0
 15  8  1  0  0  0  0
 15  7  1  0  0  0  0
 17 21  1  0  0  0  0
 18 19  1  6  0  0  0
 18 17  1  0  0  0  0
 19 20  1  0  0  0  0
 20 23  1  1  0  0  0
 20 21  1  0  0  0  0
 23 22  1  0  0  0  0
 25 27  1  0  0  0  0
 25 24  1  1  0  0  0
 26 28  1  6  0  0  0
 26 25  1  0  0  0  0
 26 27  1  0  0  0  0
 27 31  1  1  0  0  0
 27 13  1  0  0  0  0
 29 28  1  0  0  0  0
 30 28  2  0  0  0  0
 31 32  1  0  0  0  0
 32 34  2  0  0  0  0
 35 33  1  0  0  0  0
 35 32  1  0  0  0  0
 37 36  1  0  0  0  0
 37  8  1  0  0  0  0
M  END
>  <MODEL>
5

>  <REMARK>
 VINA RESULT:      -4.0      3.573      5.409
  Name = 
  7 active torsions:
  status: ('A' for Active; 'I' for Inactive)
    1  A    between atoms: C_1  and  C_5
    2  A    between atoms: C_1  and  C_36
    3  A    between atoms: C_6  and  C_31
    4  A    between atoms: C_11  and  C_33
    5  A    between atoms: C_18  and  C_19
    6  A    between atoms: C_21  and  C_30
    7  A    between atoms: C_29  and  C_36
                            x       y       z     vdW  Elec       q    Type
                         _______ _______ _______ _____ _____    ______ ____

>  <TORSDO>
F 7

$$$$
=
 OpenBabel10272415043D

 37 41  0  0  1  0  0  0  0  0999 V2000
  192.8890  171.8530  135.1200 C   0  0  1  0  0  3  0  0  0  0  0  0
  194.9370  172.5060  134.3490 O   0  0  0  0  0  1  0  0  0  0  0  0
  193.9110  173.3170  137.1080 C   0  0  1  0  0  3  0  0  0  0  0  0
  195.8960  171.1180  137.9020 O   0  0  0  0  0  0  0  0  0  0  0  0
  193.4510  174.6740  137.6750 C   0  0  0  0  0  2  0  0  0  0  0  0
  194.1620  171.3440  134.4650 C   0  0  1  0  0  0  0  0  0  0  0  0
  196.0420  171.8470  136.8840 C   0  0  0  0  0  0  0  0  0  0  0  0
  196.3430  170.2510  134.9870 C   0  0  0  0  0  0  0  0  0  0  0  0
  192.2770  174.2390  135.6710 C   0  0  0  0  0  0  0  0  0  0  0  0
  193.5030  170.5600  136.0930 S   0  0  0  0  0  0  0  0  0  0  0  0
  195.1480  170.2200  134.3470 C   0  0  0  0  0  3  0  0  0  0  0  0
  193.1050  173.1130  135.8780 N   0  0  0  0  0  0  0  0  0  0  0  0
  195.4680  173.2540  136.8760 C   0  0  2  0  0  3  0  0  0  0  0  0
  192.4020  175.2640  136.7260 C   0  0  1  0  0  3  0  0  0  0  0  0
  196.7570  171.3520  135.7760 O   0  0  0  0  0  0  0  0  0  0  0  0
  191.5110  174.3520  134.6770 O   0  0  0  0  0  0  0  0  0  0  0  0
  190.2340  176.5340  136.6500 C   0  0  0  0  0  2  0  0  0  0  0  0
  191.0580  175.5250  137.4220 C   0  0  2  0  0  3  0  0  0  0  0  0
  191.1930  176.1300  138.7950 C   0  0  0  0  0  2  0  0  0  0  0  0
  190.4640  177.4490  138.6720 C   0  0  1  0  0  3  0  0  0  0  0  0
  189.5990  177.3860  137.5670 O   0  0  0  0  0  0  0  0  0  0  0  0
  188.4960  178.4290  139.6410 O   0  0  0  0  0  1  0  0  0  0  0  0
  189.6910  177.7690  139.9430 C   0  0  0  0  0  2  0  0  0  0  0  0
  196.3150  175.7440  135.9250 O   0  0  0  0  0  1  0  0  0  0  0  0
  196.7960  175.5210  137.2170 C   0  0  2  0  0  3  0  0  0  0  0  0
  197.7470  174.3320  137.1900 C   0  0  2  0  0  3  0  0  0  0  0  0
  196.3320  174.1750  137.7670 C   0  0  2  0  0  0  0  0  0  0  0  0
  198.8340  174.5080  138.2100 C   0  0  0  0  0  0  0  0  0  0  0  0
  199.4960  173.5100  138.5970 O   0  0  0  0  0  0  0  0  0  0  0  0
  199.1550  175.7720  138.6910 O   0  0  0  0  0  1  0  0  0  0  0  0
  196.2440  174.0520  139.2980 C   0  0  0  0  0  2  0  0  0  0  0  0
  195.9860  175.3590  139.9640 C   0  0  0  0  0  0  0  0  0  0  0  0
  196.8310  177.2040  141.2780 O   0  0  0  0  0  1  0  0  0  0  0  0
  194.8280  175.8560  139.9430 O   0  0  0  0  0  0  0  0  0  0  0  0
  197.0460  176.0310  140.6390 N   0  0  0  0  0  2  0  0  0  0  0  0
  198.1540  169.0330  135.8700 O   0  0  0  0  0  1  0  0  0  0  0  0
  197.2870  169.1210  134.7810 C   0  0  0  0  0  2  0  0  0  0  0  0
  1 12  1  0  0  0  0
  1 10  1  1  0  0  0
  3  5  1  6  0  0  0
  6  2  1  1  0  0  0
  6  1  1  0  0  0  0
  6 10  1  0  0  0  0
  7  4  2  0  0  0  0
  8 15  1  0  0  0  0
  9 12  1  0  0  0  0
  9 14  1  0  0  0  0
 11  6  1  0  0  0  0
 11  8  2  0  0  0  0
 12  3  1  0  0  0  0
 13  7  1  1  0  0  0
 13  3  1  0  0  0  0
 13 27  1  0  0  0  0
 14 18  1  0  0  0  0
 14  5  1  1  0  0  0
 15  7  1  0  0  0  0
 16  9  2  0  0  0  0
 17 21  1  0  0  0  0
 18 17  1  6  0  0  0
 18 19  1  0  0  0  0
 20 19  1  0  0  0  0
 20 23  1  1  0  0  0
 21 20  1  0  0  0  0
 22 23  1  0  0  0  0
 25 24  1  6  0  0  0
 25 27  1  0  0  0  0
 26 25  1  0  0  0  0
 26 27  1  0  0  0  0
 26 28  1  1  0  0  0
 27 31  1  1  0  0  0
 28 29  2  0  0  0  0
 28 30  1  0  0  0  0
 31 32  1  0  0  0  0
 32 35  1  0  0  0  0
 34 32  2  0  0  0  0
 35 33  1  0  0  0  0
 37  8  1  0  0  0  0
 37 36  1  0  0  0  0
M  END
>  <MODEL>
6

>  <REMARK>
 VINA RESULT:      -3.9      6.722     12.627
  Name = 
  7 active torsions:
  status: ('A' for Active; 'I' for Inactive)
    1  A    between atoms: C_1  and  C_5
    2  A    between atoms: C_1  and  C_36
    3  A    between atoms: C_6  and  C_31
    4  A    between atoms: C_11  and  C_33
    5  A    between atoms: C_18  and  C_19
    6  A    between atoms: C_21  and  C_30
    7  A    between atoms: C_29  and  C_36
                            x       y       z     vdW  Elec       q    Type
                         _______ _______ _______ _____ _____    ______ ____

>  <TORSDO>
F 7

$$$$
=
 OpenBabel10272415043D

 37 41  0  0  1  0  0  0  0  0999 V2000
  189.9170  177.0040  139.3750 C   0  0  1  0  0  3  0  0  0  0  0  0
  188.1060  175.8870  138.5450 O   0  0  0  0  0  1  0  0  0  0  0  0
  187.8150  178.2770  140.4240 C   0  0  1  0  0  3  0  0  0  0  0  0
  187.1060  179.6090  137.7540 O   0  0  0  0  0  0  0  0  0  0  0  0
  187.3520  178.3810  141.8900 C   0  0  0  0  0  2  0  0  0  0  0  0
  189.3050  176.4580  138.0960 C   0  0  1  0  0  0  0  0  0  0  0  0
  186.8780  178.3940  138.0030 C   0  0  0  0  0  0  0  0  0  0  0  0
  187.9400  177.1400  136.1220 C   0  0  0  0  0  0  0  0  0  0  0  0
  189.0570  176.7520  141.7350 C   0  0  0  0  0  0  0  0  0  0  0  0
  189.8220  178.3060  138.2400 S   0  0  0  0  0  0  0  0  0  0  0  0
  189.1020  176.6520  136.6230 C   0  0  0  0  0  3  0  0  0  0  0  0
  188.9000  177.2620  140.4270 N   0  0  0  0  0  0  0  0  0  0  0  0
  186.6320  177.9520  139.4360 C   0  0  2  0  0  3  0  0  0  0  0  0
  188.1570  177.3770  142.7240 C   0  0  1  0  0  3  0  0  0  0  0  0
  186.8340  177.4670  136.9430 O   0  0  0  0  0  0  0  0  0  0  0  0
  189.8850  175.8470  142.0210 O   0  0  0  0  0  0  0  0  0  0  0  0
  190.4230  178.1000  143.5370 C   0  0  0  0  0  2  0  0  0  0  0  0
  188.9440  178.0510  143.8580 C   0  0  2  0  0  3  0  0  0  0  0  0
  188.8730  177.3110  145.1690 C   0  0  0  0  0  2  0  0  0  0  0  0
  190.3180  176.9710  145.4590 C   0  0  1  0  0  3  0  0  0  0  0  0
  191.1420  177.8260  144.7110 O   0  0  0  0  0  0  0  0  0  0  0  0
  191.9730  176.8400  147.1960 O   0  0  0  0  0  1  0  0  0  0  0  0
  190.6210  177.0940  146.9450 C   0  0  0  0  0  2  0  0  0  0  0  0
  184.3920  176.4130  138.7790 O   0  0  0  0  0  1  0  0  0  0  0  0
  184.0140  177.5490  139.4970 C   0  0  2  0  0  3  0  0  0  0  0  0
  184.3560  178.7860  138.6770 C   0  0  2  0  0  3  0  0  0  0  0  0
  185.2220  178.3980  139.8840 C   0  0  2  0  0  0  0  0  0  0  0  0
  183.3570  179.8770  138.9330 C   0  0  0  0  0  0  0  0  0  0  0  0
  182.1840  179.5820  139.2790 O   0  0  0  0  0  1  0  0  0  0  0  0
  183.7320  181.2130  138.8460 O   0  0  0  0  0  0  0  0  0  0  0  0
  185.0660  179.2850  141.1310 C   0  0  0  0  0  2  0  0  0  0  0  0
  184.2260  178.6520  142.1850 C   0  0  0  0  0  0  0  0  0  0  0  0
  182.1630  178.6420  143.4470 O   0  0  0  0  0  1  0  0  0  0  0  0
  184.6650  177.6610  142.8270 O   0  0  0  0  0  0  0  0  0  0  0  0
  182.9340  179.1810  142.4740 N   0  0  0  0  0  2  0  0  0  0  0  0
  186.7000  178.0640  134.3460 O   0  0  0  0  0  1  0  0  0  0  0  0
  187.7970  177.2570  134.6470 C   0  0  0  0  0  2  0  0  0  0  0  0
  1 10  1  6  0  0  0
  1 12  1  0  0  0  0
  3 12  1  0  0  0  0
  3  5  1  1  0  0  0
  4  7  2  0  0  0  0
  6 10  1  0  0  0  0
  6  2  1  1  0  0  0
  6  1  1  0  0  0  0
  8 11  2  0  0  0  0
  8 15  1  0  0  0  0
  9 16  2  0  0  0  0
  9 14  1  0  0  0  0
 11  6  1  0  0  0  0
 12  9  1  0  0  0  0
 13  7  1  6  0  0  0
 13 27  1  0  0  0  0
 13  3  1  0  0  0  0
 14  5  1  6  0  0  0
 14 18  1  0  0  0  0
 15  7  1  0  0  0  0
 17 21  1  0  0  0  0
 18 17  1  6  0  0  0
 18 19  1  0  0  0  0
 19 20  1  0  0  0  0
 20 23  1  1  0  0  0
 21 20  1  0  0  0  0
 23 22  1  0  0  0  0
 25 24  1  6  0  0  0
 25 27  1  0  0  0  0
 26 28  1  1  0  0  0
 26 25  1  0  0  0  0
 26 27  1  0  0  0  0
 27 31  1  1  0  0  0
 28 29  1  0  0  0  0
 30 28  2  0  0  0  0
 31 32  1  0  0  0  0
 32 35  1  0  0  0  0
 32 34  2  0  0  0  0
 35 33  1  0  0  0  0
 36 37  1  0  0  0  0
 37  8  1  0  0  0  0
M  END
>  <MODEL>
7

>  <REMARK>
 VINA RESULT:      -3.7      4.467      7.230
  Name = 
  7 active torsions:
  status: ('A' for Active; 'I' for Inactive)
    1  A    between atoms: C_1  and  C_5
    2  A    between atoms: C_1  and  C_36
    3  A    between atoms: C_6  and  C_31
    4  A    between atoms: C_11  and  C_33
    5  A    between atoms: C_18  and  C_19
    6  A    between atoms: C_21  and  C_30
    7  A    between atoms: C_29  and  C_36
                            x       y       z     vdW  Elec       q    Type
                         _______ _______ _______ _____ _____    ______ ____

>  <TORSDO>
F 7

$$$$
=
 OpenBabel10272415043D

 37 41  0  0  1  0  0  0  0  0999 V2000
  187.0480  178.0700  147.3580 C   0  0  1  0  0  3  0  0  0  0  0  0
  188.2200  176.2360  146.6640 O   0  0  0  0  0  1  0  0  0  0  0  0
  187.4390  178.4820  144.7470 C   0  0  1  0  0  3  0  0  0  0  0  0
  190.4100  179.1300  145.1460 O   0  0  0  0  0  0  0  0  0  0  0  0
  186.4210  178.5380  143.5910 C   0  0  0  0  0  2  0  0  0  0  0  0
  188.2460  177.1950  147.6860 C   0  0  1  0  0  0  0  0  0  0  0  0
  189.9440  177.9600  145.2010 C   0  0  0  0  0  0  0  0  0  0  0  0
  190.7200  177.0590  147.3970 C   0  0  0  0  0  0  0  0  0  0  0  0
  185.3380  177.7350  145.5310 C   0  0  0  0  0  0  0  0  0  0  0  0
  188.4350  179.0980  147.4720 S   0  0  0  0  0  0  0  0  0  0  0  0
  189.6460  177.1380  148.2210 C   0  0  0  0  0  3  0  0  0  0  0  0
  186.6690  178.0000  145.9230 N   0  0  0  0  0  0  0  0  0  0  0  0
  188.7010  177.6050  144.4010 C   0  0  2  0  0  3  0  0  0  0  0  0
  185.0690  178.0390  144.1120 C   0  0  1  0  0  3  0  0  0  0  0  0
  190.5970  176.9920  145.9880 O   0  0  0  0  0  0  0  0  0  0  0  0
  184.4710  177.2770  146.3220 O   0  0  0  0  0  0  0  0  0  0  0  0
  182.8010  178.7890  144.8930 C   0  0  0  0  0  2  0  0  0  0  0  0
  183.9560  179.0860  143.9600 C   0  0  2  0  0  3  0  0  0  0  0  0
  183.3290  179.1110  142.5900 C   0  0  0  0  0  2  0  0  0  0  0  0
  181.8770  178.7880  142.8620 C   0  0  1  0  0  3  0  0  0  0  0  0
  181.6010  179.0510  144.2140 O   0  0  0  0  0  0  0  0  0  0  0  0
  180.3290  180.6170  142.6780 O   0  0  0  0  0  1  0  0  0  0  0  0
  180.9570  179.5960  141.9580 C   0  0  0  0  0  2  0  0  0  0  0  0
  188.2340  175.2160  143.0270 O   0  0  0  0  0  1  0  0  0  0  0  0
  188.8140  176.1630  142.1810 C   0  0  2  0  0  3  0  0  0  0  0  0
  190.2120  176.4880  142.6910 C   0  0  2  0  0  3  0  0  0  0  0  0
  189.0630  177.4850  142.9030 C   0  0  2  0  0  0  0  0  0  0  0  0
  191.1270  176.8060  141.5440 C   0  0  0  0  0  0  0  0  0  0  0  0
  192.1580  177.4990  141.7400 O   0  0  0  0  0  1  0  0  0  0  0  0
  190.8740  176.2950  140.2760 O   0  0  0  0  0  0  0  0  0  0  0  0
  189.1040  178.7490  142.0270 C   0  0  0  0  0  2  0  0  0  0  0  0
  188.2550  178.6310  140.8090 C   0  0  0  0  0  0  0  0  0  0  0  0
  188.0930  178.6850  138.3970 O   0  0  0  0  0  1  0  0  0  0  0  0
  187.0160  178.4350  140.9240 O   0  0  0  0  0  0  0  0  0  0  0  0
  188.8470  178.7580  139.5190 N   0  0  0  0  0  2  0  0  0  0  0  0
  192.7220  175.8240  147.5120 O   0  0  0  0  0  1  0  0  0  0  0  0
  192.0730  176.9560  148.0040 C   0  0  0  0  0  2  0  0  0  0  0  0
  1 10  1  6  0  0  0
  1  6  1  0  0  0  0
  3  5  1  6  0  0  0
  3 12  1  0  0  0  0
  4  7  2  0  0  0  0
  6  2  1  6  0  0  0
  6 11  1  0  0  0  0
  7 15  1  0  0  0  0
  8 37  1  0  0  0  0
  8 11  2  0  0  0  0
  9 12  1  0  0  0  0
  9 16  2  0  0  0  0
 10  6  1  0  0  0  0
 12  1  1  0  0  0  0
 13  3  1  0  0  0  0
 13  7  1  1  0  0  0
 14  5  1  1  0  0  0
 14  9  1  0  0  0  0
 15  8  1  0  0  0  0
 18 19  1  6  0  0  0
 18 14  1  0  0  0  0
 18 17  1  0  0  0  0
 19 20  1  0  0  0  0
 20 23  1  6  0  0  0
 20 21  1  0  0  0  0
 21 17  1  0  0  0  0
 23 22  1  0  0  0  0
 25 26  1  0  0  0  0
 25 27  1  0  0  0  0
 25 24  1  1  0  0  0
 26 28  1  6  0  0  0
 26 27  1  0  0  0  0
 27 31  1  6  0  0  0
 27 13  1  0  0  0  0
 28 29  1  0  0  0  0
 30 28  2  0  0  0  0
 32 34  2  0  0  0  0
 32 31  1  0  0  0  0
 33 35  1  0  0  0  0
 35 32  1  0  0  0  0
 36 37  1  0  0  0  0
M  END
>  <MODEL>
8

>  <REMARK>
 VINA RESULT:      -3.7      6.562     10.229
  Name = 
  7 active torsions:
  status: ('A' for Active; 'I' for Inactive)
    1  A    between atoms: C_1  and  C_5
    2  A    between atoms: C_1  and  C_36
    3  A    between atoms: C_6  and  C_31
    4  A    between atoms: C_11  and  C_33
    5  A    between atoms: C_18  and  C_19
    6  A    between atoms: C_21  and  C_30
    7  A    between atoms: C_29  and  C_36
                            x       y       z     vdW  Elec       q    Type
                         _______ _______ _______ _____ _____    ______ ____

>  <TORSDO>
F 7

$$$$
=
 OpenBabel10272415043D

 37 41  0  0  1  0  0  0  0  0999 V2000
  190.4140  176.9670  141.8790 C   0  0  1  0  0  3  0  0  0  0  0  0
  189.8690  178.7260  143.2300 O   0  0  0  0  0  1  0  0  0  0  0  0
  187.7880  177.2990  141.5090 C   0  0  1  0  0  3  0  0  0  0  0  0
  187.1060  176.1220  144.2580 O   0  0  0  0  0  0  0  0  0  0  0  0
  187.0140  177.7440  140.2530 C   0  0  0  0  0  2  0  0  0  0  0  0
  190.5700  177.5130  143.2870 C   0  0  1  0  0  0  0  0  0  0  0  0
  187.5810  177.2780  144.1000 C   0  0  0  0  0  0  0  0  0  0  0  0
  189.5930  177.3560  145.5780 C   0  0  0  0  0  0  0  0  0  0  0  0
  189.3250  178.0850  139.8940 C   0  0  0  0  0  0  0  0  0  0  0  0
  189.8520  175.7560  142.9780 S   0  0  0  0  0  0  0  0  0  0  0  0
  190.6560  177.1980  144.7510 C   0  0  0  0  0  3  0  0  0  0  0  0
  189.2210  177.5180  141.1840 N   0  0  0  0  0  0  0  0  0  0  0  0
  187.3040  178.0390  142.8130 C   0  0  2  0  0  3  0  0  0  0  0  0
  188.0230  178.2630  139.2220 C   0  0  1  0  0  3  0  0  0  0  0  0
  188.3470  177.8580  145.1300 O   0  0  0  0  0  0  0  0  0  0  0  0
  190.4270  178.4110  139.3770 O   0  0  0  0  0  0  0  0  0  0  0  0
  188.3440  178.3760  136.7310 C   0  0  0  0  0  2  0  0  0  0  0  0
  187.9620  177.4880  137.8970 C   0  0  2  0  0  3  0  0  0  0  0  0
  186.5840  176.9900  137.5470 C   0  0  0  0  0  2  0  0  0  0  0  0
  186.2880  177.6700  136.2300 C   0  0  1  0  0  3  0  0  0  0  0  0
  187.4990  178.0800  135.6500 O   0  0  0  0  0  0  0  0  0  0  0  0
  185.8880  175.4100  135.5190 O   0  0  0  0  0  1  0  0  0  0  0  0
  185.5290  176.7420  135.2920 C   0  0  0  0  0  2  0  0  0  0  0  0
  186.7420  180.7200  142.2540 O   0  0  0  0  0  1  0  0  0  0  0  0
  185.5660  180.0170  142.5210 C   0  0  2  0  0  3  0  0  0  0  0  0
  185.5990  179.5300  143.9640 C   0  0  2  0  0  3  0  0  0  0  0  0
  185.8430  178.5440  142.8120 C   0  0  2  0  0  0  0  0  0  0  0  0
  184.2140  179.5050  144.5410 C   0  0  0  0  0  0  0  0  0  0  0  0
  183.9730  178.8090  145.5610 O   0  0  0  0  0  1  0  0  0  0  0  0
  183.2050  180.2880  143.9910 O   0  0  0  0  0  0  0  0  0  0  0  0
  184.6980  177.5590  142.5210 C   0  0  0  0  0  2  0  0  0  0  0  0
  183.7940  178.0340  141.4370 C   0  0  0  0  0  0  0  0  0  0  0  0
  181.6000  178.8030  140.7730 O   0  0  0  0  0  1  0  0  0  0  0  0
  184.2150  178.0980  140.2510 O   0  0  0  0  0  0  0  0  0  0  0  0
  182.4500  178.3970  141.7440 N   0  0  0  0  0  2  0  0  0  0  0  0
  188.5250  177.0170  147.6490 O   0  0  0  0  0  1  0  0  0  0  0  0
  189.7710  177.0690  147.0260 C   0  0  0  0  0  2  0  0  0  0  0  0
  1 10  1  1  0  0  0
  1  6  1  0  0  0  0
  3  5  1  6  0  0  0
  3 13  1  0  0  0  0
  6  2  1  1  0  0  0
  6 11  1  0  0  0  0
  7  4  2  0  0  0  0
  7 15  1  0  0  0  0
  8 37  1  0  0  0  0
  9 12  1  0  0  0  0
 10  6  1  0  0  0  0
 11  8  2  0  0  0  0
 12  3  1  0  0  0  0
 12  1  1  0  0  0  0
 13  7  1  1  0  0  0
 14  9  1  0  0  0  0
 14  5  1  1  0  0  0
 15  8  1  0  0  0  0
 16  9  2  0  0  0  0
 18 17  1  6  0  0  0
 18 14  1  0  0  0  0
 19 18  1  0  0  0  0
 20 23  1  6  0  0  0
 20 19  1  0  0  0  0
 21 20  1  0  0  0  0
 21 17  1  0  0  0  0
 23 22  1  0  0  0  0
 25 24  1  1  0  0  0
 25 27  1  0  0  0  0
 25 26  1  0  0  0  0
 26 28  1  6  0  0  0
 27 31  1  6  0  0  0
 27 13  1  0  0  0  0
 27 26  1  0  0  0  0
 28 29  1  0  0  0  0
 30 28  2  0  0  0  0
 32 35  1  0  0  0  0
 32 31  1  0  0  0  0
 33 35  1  0  0  0  0
 34 32  2  0  0  0  0
 37 36  1  0  0  0  0
M  END
>  <MODEL>
9

>  <REMARK>
 VINA RESULT:      -3.2      5.126      7.610
  Name = 
  7 active torsions:
  status: ('A' for Active; 'I' for Inactive)
    1  A    between atoms: C_1  and  C_5
    2  A    between atoms: C_1  and  C_36
    3  A    between atoms: C_6  and  C_31
    4  A    between atoms: C_11  and  C_33
    5  A    between atoms: C_18  and  C_19
    6  A    between atoms: C_21  and  C_30
    7  A    between atoms: C_29  and  C_36
                            x       y       z     vdW  Elec       q    Type
                         _______ _______ _______ _____ _____    ______ ____

>  <TORSDO>
F 7

$$$$
