=
 OpenBabel10272400273D

 31 35  0  0  1  0  0  0  0  0999 V2000
  185.0510  178.5600  144.4220 C   0  0  0  0  0  0  0  0  0  0  0  0
  188.5390  177.6860  143.3380 C   0  0  0  0  0  0  0  0  0  0  0  0
  189.2910  177.3400  144.5900 C   0  0  0  0  0  0  0  0  0  0  0  0
  189.4080  176.8720  146.9790 C   0  0  0  0  0  0  0  0  0  0  0  0
  187.1720  178.0790  143.3170 C   0  0  0  0  0  0  0  0  0  0  0  0
  184.4720  178.8840  143.1950 C   0  0  0  0  0  3  0  0  0  0  0  0
  188.6610  177.1370  145.8290 C   0  0  0  0  0  3  0  0  0  0  0  0
  188.5970  178.0030  140.9160 C   0  0  0  0  0  0  0  0  0  0  0  0
  184.1030  178.6510  145.8900 Cl  0  0  0  0  0  0  0  0  0  0  0  0
  191.3500  177.4080  143.3090 O   0  0  0  0  0  0  0  0  0  0  0  0
  188.7810  176.6840  148.1650 F   0  0  0  0  0  0  0  0  0  0  0  0
  187.2910  178.3690  140.9330 N   0  0  0  0  0  0  0  0  0  0  0  0
  189.2510  177.6690  142.1140 C   0  0  0  0  0  0  0  0  0  0  0  0
  186.3890  178.1640  144.4800 C   0  0  0  0  0  3  0  0  0  0  0  0
  190.8010  176.8170  146.9090 C   0  0  0  0  0  3  0  0  0  0  0  0
  186.5710  178.4180  142.0790 C   0  0  0  0  0  0  0  0  0  0  0  0
  185.2320  178.8140  142.0260 C   0  0  0  0  0  3  0  0  0  0  0  0
  190.6790  177.1890  142.0710 C   0  0  0  0  0  2  0  0  0  0  0  0
  190.6950  177.2490  144.5290 C   0  0  0  0  0  0  0  0  0  0  0  0
  191.4440  177.0060  145.6840 C   0  0  0  0  0  3  0  0  0  0  0  0
  189.3190  177.9890  139.6050 C   0  0  0  0  0  2  0  0  0  0  0  0
  188.9960  179.2750  137.6040 O   0  0  0  0  0  1  0  0  0  0  0  0
  188.3790  178.3680  138.4690 C   0  0  1  0  0  3  0  0  0  0  0  0
  186.9130  174.5710  137.0190 C   0  0  1  0  0  3  0  0  0  0  0  0
  188.7880  176.1330  137.5130 C   0  0  0  0  0  3  0  0  0  0  0  0
  185.7080  177.9570  137.4990 O   0  0  0  0  0  0  0  0  0  0  0  0
  186.5460  173.4650  136.2760 F   0  0  0  0  0  0  0  0  0  0  0  0
  188.3820  174.8970  136.7630 C   0  0  0  0  0  2  0  0  0  0  0  0
  186.5190  177.0130  137.3090 C   0  0  0  0  0  0  0  0  0  0  0  0
  187.9340  177.1460  137.7220 C   0  0  0  0  0  0  0  0  0  0  0  0
  186.0420  175.7620  136.6280 C   0  0  0  0  0  2  0  0  0  0  0  0
  1 14  1  0  0  0  0
  1  9  1  0  0  0  0
  2  3  1  0  0  0  0
  3  7  1  0  0  0  0
  4 11  1  0  0  0  0
  5  2  1  0  0  0  0
  5 14  2  0  0  0  0
  6  1  2  0  0  0  0
  7  4  2  0  0  0  0
  8 12  2  0  0  0  0
  8 13  1  0  0  0  0
 10 19  1  0  0  0  0
 12 16  1  0  0  0  0
 13  2  2  0  0  0  0
 15  4  1  0  0  0  0
 16  5  1  0  0  0  0
 17 16  2  0  0  0  0
 17  6  1  0  0  0  0
 18 13  1  0  0  0  0
 18 10  1  0  0  0  0
 19  3  2  0  0  0  0
 19 20  1  0  0  0  0
 20 15  2  0  0  0  0
 21  8  1  0  0  0  0
 23 22  1  6  0  0  0
 23 21  1  0  0  0  0
 24 27  1  6  0  0  0
 25 30  2  0  0  0  0
 28 24  1  0  0  0  0
 28 25  1  0  0  0  0
 29 26  2  0  0  0  0
 29 30  1  0  0  0  0
 30 23  1  0  0  0  0
 31 24  1  0  0  0  0
 31 29  1  0  0  0  0
M  END
>  <MODEL>
1

>  <REMARK>
 VINA RESULT:     -10.6      0.000      0.000
  Name = 
  3 active torsions:
  status: ('A' for Active; 'I' for Inactive)
    1  A    between atoms: C_9  and  C_22
    2  A    between atoms: C_9  and  C_23
    3  A    between atoms: C_15  and  C_23
                            x       y       z     vdW  Elec       q    Type
                         _______ _______ _______ _____ _____    ______ ____

>  <TORSDO>
F 3

$$$$
=
 OpenBabel10272400273D

 31 35  0  0  1  0  0  0  0  0999 V2000
  185.1570  178.5960  143.8170 C   0  0  0  0  0  0  0  0  0  0  0  0
  188.7290  177.6170  143.2010 C   0  0  0  0  0  0  0  0  0  0  0  0
  189.3140  177.3020  144.5470 C   0  0  0  0  0  0  0  0  0  0  0  0
  189.1270  176.9160  146.9460 C   0  0  0  0  0  0  0  0  0  0  0  0
  187.3850  178.0360  142.9980 C   0  0  0  0  0  0  0  0  0  0  0  0
  184.7400  178.8880  142.5180 C   0  0  0  0  0  3  0  0  0  0  0  0
  188.5330  177.1550  145.7050 C   0  0  0  0  0  3  0  0  0  0  0  0
  189.0910  177.8470  140.7950 C   0  0  0  0  0  0  0  0  0  0  0  0
  184.0390  178.7580  145.1540 Cl  0  0  0  0  0  0  0  0  0  0  0  0
  191.5160  177.2830  143.5270 O   0  0  0  0  0  0  0  0  0  0  0  0
  188.3550  176.7830  148.0510 F   0  0  0  0  0  0  0  0  0  0  0  0
  187.8020  178.2380  140.6400 N   0  0  0  0  0  0  0  0  0  0  0  0
  189.5850  177.5420  142.0750 C   0  0  0  0  0  0  0  0  0  0  0  0
  186.4680  178.1770  144.0530 C   0  0  0  0  0  3  0  0  0  0  0  0
  190.5160  176.8320  147.0500 C   0  0  0  0  0  3  0  0  0  0  0  0
  186.9490  178.3410  141.6860 C   0  0  0  0  0  0  0  0  0  0  0  0
  185.6350  178.7610  141.4550 C   0  0  0  0  0  3  0  0  0  0  0  0
  190.9970  177.0340  142.2240 C   0  0  0  0  0  2  0  0  0  0  0  0
  190.7130  177.1810  144.6620 C   0  0  0  0  0  0  0  0  0  0  0  0
  191.3080  176.9640  145.9080 C   0  0  0  0  0  3  0  0  0  0  0  0
  189.9680  177.7720  139.5850 C   0  0  0  0  0  2  0  0  0  0  0  0
  188.6890  176.7650  137.8210 O   0  0  0  0  0  1  0  0  0  0  0  0
  189.6710  176.5130  138.7820 C   0  0  1  0  0  3  0  0  0  0  0  0
  193.4240  174.7130  137.6240 C   0  0  1  0  0  3  0  0  0  0  0  0
  192.0470  176.7170  138.1610 C   0  0  0  0  0  3  0  0  0  0  0  0
  189.8830  173.9340  137.5400 O   0  0  0  0  0  0  0  0  0  0  0  0
  194.5670  174.2820  136.9790 F   0  0  0  0  0  0  0  0  0  0  0  0
  193.3150  176.2310  137.5180 C   0  0  0  0  0  2  0  0  0  0  0  0
  190.9360  174.6240  137.5680 C   0  0  0  0  0  0  0  0  0  0  0  0
  190.9200  175.9910  138.1370 C   0  0  0  0  0  0  0  0  0  0  0  0
  192.1990  174.0590  136.9870 C   0  0  0  0  0  2  0  0  0  0  0  0
  1 14  1  0  0  0  0
  1  9  1  0  0  0  0
  2  3  1  0  0  0  0
  3 19  2  0  0  0  0
  3  7  1  0  0  0  0
  4 15  1  0  0  0  0
  4 11  1  0  0  0  0
  5  2  1  0  0  0  0
  5 14  2  0  0  0  0
  6  1  2  0  0  0  0
  7  4  2  0  0  0  0
  8 13  1  0  0  0  0
 10 19  1  0  0  0  0
 12  8  2  0  0  0  0
 12 16  1  0  0  0  0
 13 18  1  0  0  0  0
 13  2  2  0  0  0  0
 16  5  1  0  0  0  0
 17 16  2  0  0  0  0
 17  6  1  0  0  0  0
 18 10  1  0  0  0  0
 19 20  1  0  0  0  0
 20 15  2  0  0  0  0
 21  8  1  0  0  0  0
 23 22  1  6  0  0  0
 23 21  1  0  0  0  0
 24 27  1  6  0  0  0
 26 29  2  0  0  0  0
 28 24  1  0  0  0  0
 28 25  1  0  0  0  0
 29 30  1  0  0  0  0
 30 25  2  0  0  0  0
 30 23  1  0  0  0  0
 31 29  1  0  0  0  0
 31 24  1  0  0  0  0
M  END
>  <MODEL>
2

>  <REMARK>
 VINA RESULT:     -10.6      2.481      2.967
  Name = 
  3 active torsions:
  status: ('A' for Active; 'I' for Inactive)
    1  A    between atoms: C_9  and  C_22
    2  A    between atoms: C_9  and  C_23
    3  A    between atoms: C_15  and  C_23
                            x       y       z     vdW  Elec       q    Type
                         _______ _______ _______ _____ _____    ______ ____

>  <TORSDO>
F 3

$$$$
=
 OpenBabel10272400273D

 31 35  0  0  1  0  0  0  0  0999 V2000
  190.0500  176.9150  145.7300 C   0  0  0  0  0  0  0  0  0  0  0  0
  187.6210  178.0580  143.1040 C   0  0  0  0  0  0  0  0  0  0  0  0
  186.3210  178.2980  143.8140 C   0  0  0  0  0  0  0  0  0  0  0  0
  184.9680  178.5080  145.8310 C   0  0  0  0  0  0  0  0  0  0  0  0
  188.8070  177.6090  143.7500 C   0  0  0  0  0  0  0  0  0  0  0  0
  191.1900  176.7010  144.9540 C   0  0  0  0  0  3  0  0  0  0  0  0
  186.2100  178.3370  145.2140 C   0  0  0  0  0  3  0  0  0  0  0  0
  188.8390  178.0100  140.9860 C   0  0  0  0  0  0  0  0  0  0  0  0
  190.0970  176.6220  147.4550 Cl  0  0  0  0  0  0  0  0  0  0  0  0
  185.2320  178.4650  141.6530 O   0  0  0  0  0  0  0  0  0  0  0  0
  184.8830  178.5370  147.1820 F   0  0  0  0  0  0  0  0  0  0  0  0
  189.9510  177.5860  141.6360 N   0  0  0  0  0  0  0  0  0  0  0  0
  187.6500  178.2410  141.7010 C   0  0  0  0  0  0  0  0  0  0  0  0
  188.8700  177.3620  145.1320 C   0  0  0  0  0  3  0  0  0  0  0  0
  183.8150  178.6330  145.0560 C   0  0  0  0  0  3  0  0  0  0  0  0
  189.9700  177.3810  142.9740 C   0  0  0  0  0  0  0  0  0  0  0  0
  191.1480  176.9330  143.5790 C   0  0  0  0  0  3  0  0  0  0  0  0
  186.4450  178.7870  140.9790 C   0  0  0  0  0  2  0  0  0  0  0  0
  185.1530  178.4590  143.0440 C   0  0  0  0  0  0  0  0  0  0  0  0
  183.9080  178.6080  143.6630 C   0  0  0  0  0  3  0  0  0  0  0  0
  188.9050  178.2000  139.5030 C   0  0  0  0  0  2  0  0  0  0  0  0
  187.5620  177.1370  137.8220 O   0  0  0  0  0  1  0  0  0  0  0  0
  188.5530  176.9080  138.7790 C   0  0  1  0  0  3  0  0  0  0  0  0
  192.1410  174.7980  137.6180 C   0  0  1  0  0  3  0  0  0  0  0  0
  190.9720  176.8860  138.3070 C   0  0  0  0  0  3  0  0  0  0  0  0
  188.5460  174.4690  137.2660 O   0  0  0  0  0  0  0  0  0  0  0  0
  193.2650  174.3020  136.9880 F   0  0  0  0  0  0  0  0  0  0  0  0
  192.2140  176.3210  137.6800 C   0  0  0  0  0  2  0  0  0  0  0  0
  189.6670  175.0190  137.4260 C   0  0  0  0  0  0  0  0  0  0  0  0
  189.7720  176.3090  138.1440 C   0  0  0  0  0  0  0  0  0  0  0  0
  190.8920  174.3690  136.8500 C   0  0  0  0  0  2  0  0  0  0  0  0
  1  9  1  0  0  0  0
  2  5  1  0  0  0  0
  2  3  1  0  0  0  0
  3  7  1  0  0  0  0
  4 11  1  0  0  0  0
  5 14  2  0  0  0  0
  6  1  2  0  0  0  0
  7  4  2  0  0  0  0
  8 12  2  0  0  0  0
  8 13  1  0  0  0  0
 10 19  1  0  0  0  0
 12 16  1  0  0  0  0
 13  2  2  0  0  0  0
 14  1  1  0  0  0  0
 15  4  1  0  0  0  0
 16 17  2  0  0  0  0
 16  5  1  0  0  0  0
 17  6  1  0  0  0  0
 18 10  1  0  0  0  0
 18 13  1  0  0  0  0
 19 20  1  0  0  0  0
 19  3  2  0  0  0  0
 20 15  2  0  0  0  0
 21  8  1  0  0  0  0
 23 22  1  6  0  0  0
 23 21  1  0  0  0  0
 24 27  1  6  0  0  0
 24 28  1  0  0  0  0
 26 29  2  0  0  0  0
 28 25  1  0  0  0  0
 29 30  1  0  0  0  0
 30 25  2  0  0  0  0
 30 23  1  0  0  0  0
 31 29  1  0  0  0  0
 31 24  1  0  0  0  0
M  END
>  <MODEL>
3

>  <REMARK>
 VINA RESULT:     -10.1      2.646      4.581
  Name = 
  3 active torsions:
  status: ('A' for Active; 'I' for Inactive)
    1  A    between atoms: C_9  and  C_22
    2  A    between atoms: C_9  and  C_23
    3  A    between atoms: C_15  and  C_23
                            x       y       z     vdW  Elec       q    Type
                         _______ _______ _______ _____ _____    ______ ____

>  <TORSDO>
F 3

$$$$
=
 OpenBabel10272400273D

 31 35  0  0  1  0  0  0  0  0999 V2000
  189.4530  177.5050  141.0140 C   0  0  0  0  0  0  0  0  0  0  0  0
  187.3740  178.1410  144.0750 C   0  0  0  0  0  0  0  0  0  0  0  0
  188.2030  177.6940  145.2440 C   0  0  0  0  0  0  0  0  0  0  0  0
  190.2870  176.9180  146.2420 C   0  0  0  0  0  0  0  0  0  0  0  0
  187.8040  178.0640  142.7210 C   0  0  0  0  0  0  0  0  0  0  0  0
  188.5780  177.9270  140.0130 C   0  0  0  0  0  3  0  0  0  0  0  0
  189.5690  177.3840  145.1380 C   0  0  0  0  0  3  0  0  0  0  0  0
  185.2430  179.0300  143.2760 C   0  0  0  0  0  0  0  0  0  0  0  0
  191.0370  176.8900  140.5920 Cl  0  0  0  0  0  0  0  0  0  0  0  0
  186.2320  177.8810  146.6470 O   0  0  0  0  0  0  0  0  0  0  0  0
  191.6020  176.6200  146.1170 F   0  0  0  0  0  0  0  0  0  0  0  0
  185.6880  178.9470  141.9980 N   0  0  0  0  0  0  0  0  0  0  0  0
  186.0660  178.6180  144.3380 C   0  0  0  0  0  0  0  0  0  0  0  0
  189.0670  177.5720  142.3550 C   0  0  0  0  0  3  0  0  0  0  0  0
  189.6450  176.7450  147.4690 C   0  0  0  0  0  3  0  0  0  0  0  0
  186.9230  178.4830  141.6940 C   0  0  0  0  0  0  0  0  0  0  0  0
  187.3150  178.4140  140.3530 C   0  0  0  0  0  3  0  0  0  0  0  0
  185.5890  178.7890  145.7570 C   0  0  0  0  0  2  0  0  0  0  0  0
  187.5760  177.5460  146.4970 C   0  0  0  0  0  0  0  0  0  0  0  0
  188.2900  177.0590  147.5960 C   0  0  0  0  0  3  0  0  0  0  0  0
  183.8590  179.5450  143.5190 C   0  0  0  0  0  2  0  0  0  0  0  0
  182.0500  178.2850  144.4700 O   0  0  0  0  0  1  0  0  0  0  0  0
  182.8310  178.4390  143.3220 C   0  0  1  0  0  3  0  0  0  0  0  0
  180.8300  179.8600  139.7660 C   0  0  1  0  0  3  0  0  0  0  0  0
  180.9270  179.5660  142.2360 C   0  0  0  0  0  3  0  0  0  0  0  0
  183.3040  177.3770  140.6970 O   0  0  0  0  0  0  0  0  0  0  0  0
  179.9820  180.0880  138.7000 F   0  0  0  0  0  0  0  0  0  0  0  0
  180.0340  179.8730  141.0680 C   0  0  0  0  0  2  0  0  0  0  0  0
  182.3300  178.1670  140.8090 C   0  0  0  0  0  0  0  0  0  0  0  0
  181.9670  178.7260  142.1300 C   0  0  0  0  0  0  0  0  0  0  0  0
  181.5190  178.5080  139.5920 C   0  0  0  0  0  2  0  0  0  0  0  0
  1 14  1  0  0  0  0
  2 13  2  0  0  0  0
  2  3  1  0  0  0  0
  3 19  1  0  0  0  0
  4 15  2  0  0  0  0
  5  2  1  0  0  0  0
  6 17  1  0  0  0  0
  6  1  2  0  0  0  0
  7  3  2  0  0  0  0
  7  4  1  0  0  0  0
  8 21  1  0  0  0  0
  8 13  1  0  0  0  0
  9  1  1  0  0  0  0
 11  4  1  0  0  0  0
 12  8  2  0  0  0  0
 13 18  1  0  0  0  0
 14  5  2  0  0  0  0
 15 20  1  0  0  0  0
 16 12  1  0  0  0  0
 16  5  1  0  0  0  0
 17 16  2  0  0  0  0
 18 10  1  0  0  0  0
 19 10  1  0  0  0  0
 19 20  2  0  0  0  0
 23 21  1  0  0  0  0
 23 22  1  1  0  0  0
 24 27  1  6  0  0  0
 24 28  1  0  0  0  0
 26 29  2  0  0  0  0
 28 25  1  0  0  0  0
 29 30  1  0  0  0  0
 30 25  2  0  0  0  0
 30 23  1  0  0  0  0
 31 24  1  0  0  0  0
 31 29  1  0  0  0  0
M  END
>  <MODEL>
4

>  <REMARK>
 VINA RESULT:      -9.3      3.702      5.789
  Name = 
  3 active torsions:
  status: ('A' for Active; 'I' for Inactive)
    1  A    between atoms: C_9  and  C_22
    2  A    between atoms: C_9  and  C_23
    3  A    between atoms: C_15  and  C_23
                            x       y       z     vdW  Elec       q    Type
                         _______ _______ _______ _____ _____    ______ ____

>  <TORSDO>
F 3

$$$$
=
 OpenBabel10272400273D

 31 35  0  0  1  0  0  0  0  0999 V2000
  189.2580  177.1710  146.2150 C   0  0  0  0  0  0  0  0  0  0  0  0
  187.3730  178.1680  143.1240 C   0  0  0  0  0  0  0  0  0  0  0  0
  185.9600  178.4220  143.5600 C   0  0  0  0  0  0  0  0  0  0  0  0
  184.2450  178.7020  145.2690 C   0  0  0  0  0  0  0  0  0  0  0  0
  188.4150  177.7620  144.0040 C   0  0  0  0  0  0  0  0  0  0  0  0
  190.5260  176.9380  145.6820 C   0  0  0  0  0  3  0  0  0  0  0  0
  185.5820  178.5200  144.9090 C   0  0  0  0  0  3  0  0  0  0  0  0
  188.9750  178.0440  141.2820 C   0  0  0  0  0  0  0  0  0  0  0  0
  188.9740  176.9530  147.9280 Cl  0  0  0  0  0  0  0  0  0  0  0  0
  185.3050  178.4810  141.2250 O   0  0  0  0  0  0  0  0  0  0  0  0
  183.9010  178.7890  146.5760 F   0  0  0  0  0  0  0  0  0  0  0  0
  189.9430  177.6620  142.1520 N   0  0  0  0  0  0  0  0  0  0  0  0
  187.6700  178.2910  141.7450 C   0  0  0  0  0  0  0  0  0  0  0  0
  188.2130  177.5760  145.3820 C   0  0  0  0  0  3  0  0  0  0  0  0
  183.2610  178.7790  144.2820 C   0  0  0  0  0  3  0  0  0  0  0  0
  189.7060  177.5150  143.4760 C   0  0  0  0  0  0  0  0  0  0  0  0
  190.7480  177.1090  144.3150 C   0  0  0  0  0  3  0  0  0  0  0  0
  186.6230  178.7890  140.7820 C   0  0  0  0  0  2  0  0  0  0  0  0
  184.9600  178.5350  142.5740 C   0  0  0  0  0  0  0  0  0  0  0  0
  183.6190  178.6950  142.9350 C   0  0  0  0  0  3  0  0  0  0  0  0
  189.3230  178.1700  139.8320 C   0  0  0  0  0  2  0  0  0  0  0  0
  190.4820  176.1640  140.4630 O   0  0  0  0  0  1  0  0  0  0  0  0
  190.1790  176.9940  139.3800 C   0  0  1  0  0  3  0  0  0  0  0  0
  188.5410  175.2480  135.7830 C   0  0  1  0  0  3  0  0  0  0  0  0
  188.2860  176.6170  137.8470 C   0  0  0  0  0  3  0  0  0  0  0  0
  191.2970  174.6950  138.0750 O   0  0  0  0  0  0  0  0  0  0  0  0
  187.8540  174.5130  134.8370 F   0  0  0  0  0  0  0  0  0  0  0  0
  187.5560  175.8640  136.7720 C   0  0  0  0  0  2  0  0  0  0  0  0
  190.1720  175.0770  137.6580 C   0  0  0  0  0  0  0  0  0  0  0  0
  189.4840  176.2200  138.3000 C   0  0  0  0  0  0  0  0  0  0  0  0
  189.5210  174.3400  136.5240 C   0  0  0  0  0  2  0  0  0  0  0  0
  1  9  1  0  0  0  0
  2  3  1  0  0  0  0
  2  5  1  0  0  0  0
  3  7  1  0  0  0  0
  4 11  1  0  0  0  0
  5 14  1  0  0  0  0
  6  1  1  0  0  0  0
  7  4  2  0  0  0  0
  8 13  1  0  0  0  0
  8 12  2  0  0  0  0
 10 19  1  0  0  0  0
 12 16  1  0  0  0  0
 13  2  2  0  0  0  0
 14  1  2  0  0  0  0
 15  4  1  0  0  0  0
 16  5  2  0  0  0  0
 16 17  1  0  0  0  0
 17  6  2  0  0  0  0
 18 10  1  0  0  0  0
 18 13  1  0  0  0  0
 19 20  1  0  0  0  0
 19  3  2  0  0  0  0
 20 15  2  0  0  0  0
 21  8  1  0  0  0  0
 23 21  1  0  0  0  0
 23 22  1  1  0  0  0
 24 27  1  6  0  0  0
 24 31  1  0  0  0  0
 24 28  1  0  0  0  0
 25 30  2  0  0  0  0
 28 25  1  0  0  0  0
 29 26  2  0  0  0  0
 29 30  1  0  0  0  0
 30 23  1  0  0  0  0
 31 29  1  0  0  0  0
M  END
>  <MODEL>
5

>  <REMARK>
 VINA RESULT:      -9.1      2.213      4.460
  Name = 
  3 active torsions:
  status: ('A' for Active; 'I' for Inactive)
    1  A    between atoms: C_9  and  C_22
    2  A    between atoms: C_9  and  C_23
    3  A    between atoms: C_15  and  C_23
                            x       y       z     vdW  Elec       q    Type
                         _______ _______ _______ _____ _____    ______ ____

>  <TORSDO>
F 3

$$$$
=
 OpenBabel10272400273D

 31 35  0  0  1  0  0  0  0  0999 V2000
  192.5480  176.5250  137.7070 C   0  0  0  0  0  0  0  0  0  0  0  0
  189.2950  177.4540  139.3340 C   0  0  0  0  0  0  0  0  0  0  0  0
  188.2660  177.4570  138.2400 C   0  0  0  0  0  0  0  0  0  0  0  0
  187.5400  177.0050  135.9580 C   0  0  0  0  0  0  0  0  0  0  0  0
  190.6700  177.1520  139.1290 C   0  0  0  0  0  0  0  0  0  0  0  0
  193.4120  176.5840  138.8010 C   0  0  0  0  0  3  0  0  0  0  0  0
  188.5090  176.9300  136.9610 C   0  0  0  0  0  3  0  0  0  0  0  0
  189.8040  177.8570  141.6890 C   0  0  0  0  0  0  0  0  0  0  0  0
  193.1650  176.0970  136.1250 Cl  0  0  0  0  0  0  0  0  0  0  0  0
  186.7240  178.5440  139.7650 O   0  0  0  0  0  0  0  0  0  0  0  0
  187.7970  176.4950  134.7300 F   0  0  0  0  0  0  0  0  0  0  0  0
  191.1060  177.5590  141.4580 N   0  0  0  0  0  0  0  0  0  0  0  0
  188.8750  177.8250  140.6350 C   0  0  0  0  0  0  0  0  0  0  0  0
  191.1910  176.8090  137.8710 C   0  0  0  0  0  3  0  0  0  0  0  0
  186.3150  177.6200  136.2160 C   0  0  0  0  0  3  0  0  0  0  0  0
  191.5600  177.2140  140.2300 C   0  0  0  0  0  0  0  0  0  0  0  0
  192.9180  176.9290  140.0590 C   0  0  0  0  0  3  0  0  0  0  0  0
  187.4180  178.0830  140.9200 C   0  0  0  0  0  2  0  0  0  0  0  0
  187.0120  178.0450  138.4960 C   0  0  0  0  0  0  0  0  0  0  0  0
  186.0520  178.1400  137.4850 C   0  0  0  0  0  3  0  0  0  0  0  0
  189.3930  178.2390  143.0770 C   0  0  0  0  0  2  0  0  0  0  0  0
  189.1270  175.8680  143.3420 O   0  0  0  0  0  1  0  0  0  0  0  0
  188.6190  177.1080  143.7390 C   0  0  1  0  0  3  0  0  0  0  0  0
  188.9110  178.2390  147.8990 C   0  0  1  0  0  3  0  0  0  0  0  0
  189.8180  177.0780  145.8920 C   0  0  0  0  0  3  0  0  0  0  0  0
  186.3570  177.8210  145.3580 O   0  0  0  0  0  0  0  0  0  0  0  0
  188.9610  178.2920  149.2790 F   0  0  0  0  0  0  0  0  0  0  0  0
  189.9000  177.1960  147.3880 C   0  0  0  0  0  2  0  0  0  0  0  0
  187.4480  177.6640  145.9670 C   0  0  0  0  0  0  0  0  0  0  0  0
  188.6620  177.2420  145.2330 C   0  0  0  0  0  0  0  0  0  0  0  0
  187.4960  177.8760  147.4520 C   0  0  0  0  0  2  0  0  0  0  0  0
  1 14  2  0  0  0  0
  1  6  1  0  0  0  0
  2 13  1  0  0  0  0
  3 19  1  0  0  0  0
  3  2  1  0  0  0  0
  4 15  2  0  0  0  0
  4  7  1  0  0  0  0
  5  2  2  0  0  0  0
  5 16  1  0  0  0  0
  6 17  2  0  0  0  0
  7  3  2  0  0  0  0
  8 21  1  0  0  0  0
  9  1  1  0  0  0  0
 10 18  1  0  0  0  0
 11  4  1  0  0  0  0
 12  8  1  0  0  0  0
 13 18  1  0  0  0  0
 13  8  2  0  0  0  0
 14  5  1  0  0  0  0
 15 20  1  0  0  0  0
 16 12  2  0  0  0  0
 17 16  1  0  0  0  0
 19 10  1  0  0  0  0
 20 19  2  0  0  0  0
 21 23  1  0  0  0  0
 23 22  1  1  0  0  0
 23 30  1  0  0  0  0
 24 27  1  1  0  0  0
 25 28  1  0  0  0  0
 26 29  2  0  0  0  0
 28 24  1  0  0  0  0
 29 31  1  0  0  0  0
 30 25  2  0  0  0  0
 30 29  1  0  0  0  0
 31 24  1  0  0  0  0
M  END
>  <MODEL>
6

>  <REMARK>
 VINA RESULT:      -9.0      3.311      8.643
  Name = 
  3 active torsions:
  status: ('A' for Active; 'I' for Inactive)
    1  A    between atoms: C_9  and  C_22
    2  A    between atoms: C_9  and  C_23
    3  A    between atoms: C_15  and  C_23
                            x       y       z     vdW  Elec       q    Type
                         _______ _______ _______ _____ _____    ______ ____

>  <TORSDO>
F 3

$$$$
=
 OpenBabel10272400273D

 31 35  0  0  1  0  0  0  0  0999 V2000
  190.3160  177.6090  140.2670 C   0  0  0  0  0  0  0  0  0  0  0  0
  187.1900  178.1960  142.2620 C   0  0  0  0  0  0  0  0  0  0  0  0
  187.5560  177.9420  143.6960 C   0  0  0  0  0  0  0  0  0  0  0  0
  189.1720  177.5100  145.4680 C   0  0  0  0  0  0  0  0  0  0  0  0
  188.1030  178.0770  141.1780 C   0  0  0  0  0  0  0  0  0  0  0  0
  189.8470  177.8440  138.9740 C   0  0  0  0  0  3  0  0  0  0  0  0
  188.8830  177.8000  144.1330 C   0  0  0  0  0  3  0  0  0  0  0  0
  185.4450  178.7490  140.6440 C   0  0  0  0  0  0  0  0  0  0  0  0
  191.9910  177.1700  140.5250 Cl  0  0  0  0  0  0  0  0  0  0  0  0
  185.1940  177.9790  144.2500 O   0  0  0  0  0  0  0  0  0  0  0  0
  190.4590  177.3720  145.8670 F   0  0  0  0  0  0  0  0  0  0  0  0
  186.3440  178.6310  139.6350 N   0  0  0  0  0  0  0  0  0  0  0  0
  185.8430  178.5220  141.9730 C   0  0  0  0  0  0  0  0  0  0  0  0
  189.4500  177.7230  141.3560 C   0  0  0  0  0  3  0  0  0  0  0  0
  188.1350  177.3460  146.3860 C   0  0  0  0  0  3  0  0  0  0  0  0
  187.6390  178.3060  139.8590 C   0  0  0  0  0  0  0  0  0  0  0  0
  188.5100  178.1900  138.7710 C   0  0  0  0  0  3  0  0  0  0  0  0
  184.8530  178.7320  143.0900 C   0  0  0  0  0  2  0  0  0  0  0  0
  186.5200  177.8070  144.6410 C   0  0  0  0  0  0  0  0  0  0  0  0
  186.8090  177.4940  145.9730 C   0  0  0  0  0  3  0  0  0  0  0  0
  184.0310  179.1010  140.3040 C   0  0  0  0  0  2  0  0  0  0  0  0
  183.0360  177.0080  139.6760 O   0  0  0  0  0  1  0  0  0  0  0  0
  183.5140  178.2210  139.1740 C   0  0  1  0  0  3  0  0  0  0  0  0
  181.0160  180.6690  136.6370 C   0  0  1  0  0  3  0  0  0  0  0  0
  181.8860  180.0490  138.8860 C   0  0  0  0  0  3  0  0  0  0  0  0
  182.5940  177.4040  136.5800 O   0  0  0  0  0  0  0  0  0  0  0  0
  179.9830  181.3010  135.9730 F   0  0  0  0  0  0  0  0  0  0  0  0
  180.8060  180.7830  138.1440 C   0  0  0  0  0  2  0  0  0  0  0  0
  182.0780  178.4540  137.0460 C   0  0  0  0  0  0  0  0  0  0  0  0
  182.4430  178.9300  138.4000 C   0  0  0  0  0  0  0  0  0  0  0  0
  181.0630  179.1980  136.2290 C   0  0  0  0  0  2  0  0  0  0  0  0
  1  9  1  0  0  0  0
  1 14  1  0  0  0  0
  2  3  1  0  0  0  0
  3  7  2  0  0  0  0
  3 19  1  0  0  0  0
  4 11  1  0  0  0  0
  4 15  2  0  0  0  0
  5 14  2  0  0  0  0
  5  2  1  0  0  0  0
  6  1  2  0  0  0  0
  7  4  1  0  0  0  0
  8 13  1  0  0  0  0
 10 19  1  0  0  0  0
 12 16  1  0  0  0  0
 12  8  2  0  0  0  0
 13  2  2  0  0  0  0
 13 18  1  0  0  0  0
 16  5  1  0  0  0  0
 17  6  1  0  0  0  0
 17 16  2  0  0  0  0
 18 10  1  0  0  0  0
 19 20  2  0  0  0  0
 20 15  1  0  0  0  0
 21  8  1  0  0  0  0
 23 22  1  1  0  0  0
 23 21  1  0  0  0  0
 24 27  1  6  0  0  0
 24 28  1  0  0  0  0
 26 29  2  0  0  0  0
 28 25  1  0  0  0  0
 29 30  1  0  0  0  0
 30 25  2  0  0  0  0
 30 23  1  0  0  0  0
 31 24  1  0  0  0  0
 31 29  1  0  0  0  0
M  END
>  <MODEL>
7

>  <REMARK>
 VINA RESULT:      -8.9      3.955      5.531
  Name = 
  3 active torsions:
  status: ('A' for Active; 'I' for Inactive)
    1  A    between atoms: C_9  and  C_22
    2  A    between atoms: C_9  and  C_23
    3  A    between atoms: C_15  and  C_23
                            x       y       z     vdW  Elec       q    Type
                         _______ _______ _______ _____ _____    ______ ____

>  <TORSDO>
F 3

$$$$
=
 OpenBabel10272400273D

 31 35  0  0  1  0  0  0  0  0999 V2000
  190.3790  176.5080  136.7560 C   0  0  0  0  0  0  0  0  0  0  0  0
  188.4060  177.6620  139.7350 C   0  0  0  0  0  0  0  0  0  0  0  0
  187.0140  177.9230  139.2380 C   0  0  0  0  0  0  0  0  0  0  0  0
  185.2790  177.8330  137.5290 C   0  0  0  0  0  0  0  0  0  0  0  0
  189.4710  177.2080  138.9090 C   0  0  0  0  0  0  0  0  0  0  0  0
  191.6370  176.3290  137.3320 C   0  0  0  0  0  3  0  0  0  0  0  0
  186.5660  177.5190  137.9700 C   0  0  0  0  0  3  0  0  0  0  0  0
  189.9760  177.7240  141.6070 C   0  0  0  0  0  0  0  0  0  0  0  0
  190.1410  176.1860  135.0520 Cl  0  0  0  0  0  0  0  0  0  0  0  0
  186.5240  179.0210  141.3460 O   0  0  0  0  0  0  0  0  0  0  0  0
  184.8680  177.4370  136.3010 F   0  0  0  0  0  0  0  0  0  0  0  0
  190.9660  177.2870  140.7900 N   0  0  0  0  0  0  0  0  0  0  0  0
  188.6830  177.9340  141.0970 C   0  0  0  0  0  0  0  0  0  0  0  0
  189.3090  176.9460  137.5380 C   0  0  0  0  0  3  0  0  0  0  0  0
  184.4220  178.5700  138.3480 C   0  0  0  0  0  3  0  0  0  0  0  0
  190.7560  177.0280  139.4780 C   0  0  0  0  0  0  0  0  0  0  0  0
  191.8250  176.5900  138.6900 C   0  0  0  0  0  3  0  0  0  0  0  0
  187.5740  178.3450  142.0320 C   0  0  0  0  0  2  0  0  0  0  0  0
  186.1260  178.6370  140.0670 C   0  0  0  0  0  0  0  0  0  0  0  0
  184.8460  178.9710  139.6160 C   0  0  0  0  0  3  0  0  0  0  0  0
  190.3000  177.9960  143.0420 C   0  0  0  0  0  2  0  0  0  0  0  0
  191.2560  176.0370  144.0470 O   0  0  0  0  0  1  0  0  0  0  0  0
  190.0670  176.7540  143.8910 C   0  0  1  0  0  3  0  0  0  0  0  0
  188.3880  177.0600  147.8610 C   0  0  1  0  0  3  0  0  0  0  0  0
  188.1710  177.2450  145.3870 C   0  0  0  0  0  3  0  0  0  0  0  0
  191.6410  177.1470  146.2590 O   0  0  0  0  0  0  0  0  0  0  0  0
  187.8460  177.4660  149.0640 F   0  0  0  0  0  0  0  0  0  0  0  0
  187.5630  177.6240  146.7080 C   0  0  0  0  0  2  0  0  0  0  0  0
  190.3950  177.2560  146.3980 C   0  0  0  0  0  0  0  0  0  0  0  0
  189.4970  177.1260  145.2270 C   0  0  0  0  0  0  0  0  0  0  0  0
  189.8300  177.5530  147.7570 C   0  0  0  0  0  2  0  0  0  0  0  0
  1  6  2  0  0  0  0
  1 14  1  0  0  0  0
  2 13  2  0  0  0  0
  3  2  1  0  0  0  0
  3 19  1  0  0  0  0
  4  7  1  0  0  0  0
  4 15  2  0  0  0  0
  5 16  1  0  0  0  0
  5  2  1  0  0  0  0
  6 17  1  0  0  0  0
  7  3  2  0  0  0  0
  8 21  1  0  0  0  0
  9  1  1  0  0  0  0
 10 18  1  0  0  0  0
 11  4  1  0  0  0  0
 12  8  2  0  0  0  0
 13  8  1  0  0  0  0
 13 18  1  0  0  0  0
 14  5  2  0  0  0  0
 15 20  1  0  0  0  0
 16 12  1  0  0  0  0
 17 16  2  0  0  0  0
 19 10  1  0  0  0  0
 20 19  2  0  0  0  0
 21 23  1  0  0  0  0
 23 22  1  1  0  0  0
 23 30  1  0  0  0  0
 24 27  1  1  0  0  0
 25 28  1  0  0  0  0
 26 29  2  0  0  0  0
 28 24  1  0  0  0  0
 29 31  1  0  0  0  0
 30 25  2  0  0  0  0
 30 29  1  0  0  0  0
 31 24  1  0  0  0  0
M  END
>  <MODEL>
8

>  <REMARK>
 VINA RESULT:      -8.9      3.153      8.399
  Name = 
  3 active torsions:
  status: ('A' for Active; 'I' for Inactive)
    1  A    between atoms: C_9  and  C_22
    2  A    between atoms: C_9  and  C_23
    3  A    between atoms: C_15  and  C_23
                            x       y       z     vdW  Elec       q    Type
                         _______ _______ _______ _____ _____    ______ ____

>  <TORSDO>
F 3

$$$$
=
 OpenBabel10272400273D

 31 35  0  0  1  0  0  0  0  0999 V2000
  190.1280  177.0390  142.5120 C   0  0  0  0  0  0  0  0  0  0  0  0
  186.6400  178.3240  143.0410 C   0  0  0  0  0  0  0  0  0  0  0  0
  186.3930  178.2660  144.5200 C   0  0  0  0  0  0  0  0  0  0  0  0
  187.1270  177.9340  146.8210 C   0  0  0  0  0  0  0  0  0  0  0  0
  187.8550  177.9180  142.4230 C   0  0  0  0  0  0  0  0  0  0  0  0
  190.2250  177.1140  141.1230 C   0  0  0  0  0  3  0  0  0  0  0  0
  187.4130  178.0360  145.4570 C   0  0  0  0  0  3  0  0  0  0  0  0
  185.7530  178.8160  140.8170 C   0  0  0  0  0  0  0  0  0  0  0  0
  191.4790  176.4450  143.4540 Cl  0  0  0  0  0  0  0  0  0  0  0  0
  184.0420  178.6840  144.0910 O   0  0  0  0  0  0  0  0  0  0  0  0
  188.1250  177.7070  147.7070 F   0  0  0  0  0  0  0  0  0  0  0  0
  186.9270  178.4240  140.2640 N   0  0  0  0  0  0  0  0  0  0  0  0
  185.5790  178.7620  142.2110 C   0  0  0  0  0  0  0  0  0  0  0  0
  188.9530  177.4350  143.1540 C   0  0  0  0  0  3  0  0  0  0  0  0
  185.8100  178.0520  147.2670 C   0  0  0  0  0  3  0  0  0  0  0  0
  187.9660  177.9830  141.0120 C   0  0  0  0  0  0  0  0  0  0  0  0
  189.1450  177.5840  140.3750 C   0  0  0  0  0  3  0  0  0  0  0  0
  184.2980  179.2730  142.8190 C   0  0  0  0  0  2  0  0  0  0  0  0
  185.0730  178.4160  144.9890 C   0  0  0  0  0  0  0  0  0  0  0  0
  184.7840  178.2920  146.3510 C   0  0  0  0  0  3  0  0  0  0  0  0
  184.6540  179.2780  139.9130 C   0  0  0  0  0  2  0  0  0  0  0  0
  182.2800  178.9230  139.8790 O   0  0  0  0  0  1  0  0  0  0  0  0
  183.5150  178.2680  139.8910 C   0  0  1  0  0  3  0  0  0  0  0  0
  184.4890  175.3510  136.8560 C   0  0  1  0  0  3  0  0  0  0  0  0
  184.4080  177.7040  137.6640 C   0  0  0  0  0  3  0  0  0  0  0  0
  182.2760  175.6850  139.7100 O   0  0  0  0  0  0  0  0  0  0  0  0
  184.5660  174.5580  135.7270 F   0  0  0  0  0  0  0  0  0  0  0  0
  184.5530  176.8220  136.4570 C   0  0  0  0  0  2  0  0  0  0  0  0
  183.0000  176.0220  138.7370 C   0  0  0  0  0  0  0  0  0  0  0  0
  183.6400  177.3570  138.7060 C   0  0  0  0  0  0  0  0  0  0  0  0
  183.1800  175.0690  137.5910 C   0  0  0  0  0  2  0  0  0  0  0  0
  1 14  1  0  0  0  0
  1  9  1  0  0  0  0
  2  3  1  0  0  0  0
  3 19  2  0  0  0  0
  3  7  1  0  0  0  0
  4 15  1  0  0  0  0
  4 11  1  0  0  0  0
  5  2  1  0  0  0  0
  5 14  2  0  0  0  0
  6  1  2  0  0  0  0
  7  4  2  0  0  0  0
  8 13  1  0  0  0  0
 10 19  1  0  0  0  0
 12  8  2  0  0  0  0
 12 16  1  0  0  0  0
 13 18  1  0  0  0  0
 13  2  2  0  0  0  0
 16  5  1  0  0  0  0
 17 16  2  0  0  0  0
 17  6  1  0  0  0  0
 18 10  1  0  0  0  0
 19 20  1  0  0  0  0
 20 15  2  0  0  0  0
 21  8  1  0  0  0  0
 23 22  1  6  0  0  0
 23 21  1  0  0  0  0
 24 27  1  6  0  0  0
 24 31  1  0  0  0  0
 25 30  2  0  0  0  0
 28 24  1  0  0  0  0
 28 25  1  0  0  0  0
 29 26  2  0  0  0  0
 30 29  1  0  0  0  0
 30 23  1  0  0  0  0
 31 29  1  0  0  0  0
M  END
>  <MODEL>
9

>  <REMARK>
 VINA RESULT:      -8.8      3.100      4.557
  Name = 
  3 active torsions:
  status: ('A' for Active; 'I' for Inactive)
    1  A    between atoms: C_9  and  C_22
    2  A    between atoms: C_9  and  C_23
    3  A    between atoms: C_15  and  C_23
                            x       y       z     vdW  Elec       q    Type
                         _______ _______ _______ _____ _____    ______ ____

>  <TORSDO>
F 3

$$$$
