=
 OpenBabel10272415323D

 34 37  0  0  1  0  0  0  0  0999 V2000
  182.8620  176.0010  136.6690 C   0  0  1  0  0  3  0  0  0  0  0  0
  187.4000  176.3990  137.9690 O   0  0  0  0  0  1  0  0  0  0  0  0
  185.3300  174.3720  137.4220 C   0  0  0  0  0  3  0  0  0  0  0  0
  182.9950  174.2840  134.9800 O   0  0  0  0  0  0  0  0  0  0  0  0
  182.6250  173.1380  135.6900 C   0  0  0  0  0  2  0  0  0  0  0  0
  184.0750  173.5960  137.6790 C   0  0  0  0  0  2  0  0  0  0  0  0
  182.1840  175.3080  135.4810 C   0  0  0  0  0  2  0  0  0  0  0  0
  183.7940  172.6450  136.5260 C   0  0  0  0  0  2  0  0  0  0  0  0
  186.8400  176.1410  136.7160 C   0  0  2  0  0  3  0  0  0  0  0  0
  186.8790  177.4130  135.8580 C   0  0  2  0  0  3  0  0  0  0  0  0
  185.9870  177.2600  134.6290 C   0  0  0  0  0  2  0  0  0  0  0  0
  185.4390  175.6030  136.8800 C   0  0  0  0  0  0  0  0  0  0  0  0
  184.5130  177.0700  135.0080 C   0  0  0  0  0  2  0  0  0  0  0  0
  184.2920  176.5000  136.4210 C   0  0  1  0  0  3  0  0  0  0  0  0
  182.0070  176.8840  138.9940 C   0  0  2  0  0  3  0  0  0  0  0  0
  183.1550  179.7410  138.8920 C   0  0  0  0  0  2  0  0  0  0  0  0
  184.1750  177.9060  142.0170 C   0  0  0  0  0  2  0  0  0  0  0  0
  182.1430  178.4130  136.8820 C   0  0  1  0  0  3  0  0  0  0  0  0
  181.9770  176.9890  137.4470 C   0  0  1  0  0  3  0  0  0  0  0  0
  185.7370  179.1650  140.9170 C   0  0  2  0  0  3  0  0  0  0  0  0
  182.9450  177.6140  141.1790 C   0  0  0  0  0  2  0  0  0  0  0  0
  186.7620  178.3770  141.4570 O   0  0  0  0  0  1  0  0  0  0  0  0
  183.3020  177.2990  139.7230 C   0  0  2  0  0  3  0  0  0  0  0  0
  181.2660  178.6270  135.6570 C   0  0  0  0  0  1  0  0  0  0  0  0
  180.8790  180.1500  138.1320 C   0  0  0  0  0  2  0  0  0  0  0  0
  184.6120  179.2170  141.7670 O   0  0  0  0  0  0  0  0  0  0  0  0
  185.4120  178.7540  139.5010 C   0  0  0  0  0  0  0  0  0  0  0  0
  184.0110  178.4810  139.0270 C   0  0  2  0  0  3  0  0  0  0  0  0
  186.3200  178.6740  138.6900 O   0  0  0  0  0  0  0  0  0  0  0  0
  182.0380  179.5290  137.9070 C   0  0  0  0  0  0  0  0  0  0  0  0
  181.4600  175.5580  139.4970 C   0  0  0  0  0  1  0  0  0  0  0  0
  188.2790  177.7330  135.4430 C   0  0  0  0  0  0  0  0  0  0  0  0
  188.7350  177.3140  134.3460 O   0  0  0  0  0  0  0  0  0  0  0  0
  189.0820  178.5030  136.2750 O   0  0  0  0  0  1  0  0  0  0  0  0
  1  7  1  6  0  0  0
  3  6  1  0  0  0  0
  4  7  1  0  0  0  0
  4  5  1  0  0  0  0
  5  8  1  0  0  0  0
  8  6  1  0  0  0  0
  9 12  1  0  0  0  0
  9  2  1  1  0  0  0
 10 32  1  6  0  0  0
 10  9  1  0  0  0  0
 11 13  1  0  0  0  0
 11 10  1  0  0  0  0
 12  3  2  0  0  0  0
 14 13  1  6  0  0  0
 14  1  1  0  0  0  0
 14 12  1  0  0  0  0
 15 31  1  6  0  0  0
 15 23  1  0  0  0  0
 18 24  1  6  0  0  0
 18 19  1  0  0  0  0
 18 30  1  0  0  0  0
 19  1  1  6  0  0  0
 19 15  1  0  0  0  0
 20 22  1  1  0  0  0
 20 26  1  0  0  0  0
 21 17  1  0  0  0  0
 23 21  1  1  0  0  0
 26 17  1  0  0  0  0
 27 20  1  0  0  0  0
 28 16  1  1  0  0  0
 28 27  1  0  0  0  0
 28 23  1  0  0  0  0
 29 27  2  0  0  0  0
 30 25  2  0  0  0  0
 30 16  1  0  0  0  0
 32 34  1  0  0  0  0
 33 32  2  0  0  0  0
M  END
>  <MODEL>
1

>  <REMARK>
 VINA RESULT:      -6.2      0.000      0.000
  Name = 
  2 active torsions:
  status: ('A' for Active; 'I' for Inactive)
    1  A    between atoms: C_1  and  C_9
    2  A    between atoms: C_3  and  C_25
                            x       y       z     vdW  Elec       q    Type
                         _______ _______ _______ _____ _____    ______ ____

>  <TORSDO>
F 2

$$$$
=
 OpenBabel10272415323D

 34 37  0  0  1  0  0  0  0  0999 V2000
  181.3520  178.2170  138.7460 C   0  0  1  0  0  3  0  0  0  0  0  0
  185.7560  179.1640  140.2120 O   0  0  0  0  0  1  0  0  0  0  0  0
  183.3800  180.4750  139.0610 C   0  0  0  0  0  3  0  0  0  0  0  0
  180.1090  180.0100  139.7720 O   0  0  0  0  0  0  0  0  0  0  0  0
  179.9850  180.9260  138.7230 C   0  0  0  0  0  2  0  0  0  0  0  0
  182.3780  180.7970  137.9960 C   0  0  0  0  0  2  0  0  0  0  0  0
  179.9820  178.7490  139.1800 C   0  0  0  0  0  2  0  0  0  0  0  0
  181.2840  181.6960  138.5500 C   0  0  0  0  0  2  0  0  0  0  0  0
  184.5330  179.3270  140.8660 C   0  0  2  0  0  3  0  0  0  0  0  0
  184.3380  178.1990  141.8890 C   0  0  2  0  0  3  0  0  0  0  0  0
  182.8900  178.1560  142.3720 C   0  0  0  0  0  2  0  0  0  0  0  0
  183.4140  179.3840  139.8550 C   0  0  0  0  0  0  0  0  0  0  0  0
  181.9120  177.8460  141.2310 C   0  0  0  0  0  2  0  0  0  0  0  0
  182.4380  178.2110  139.8310 C   0  0  1  0  0  3  0  0  0  0  0  0
  181.8050  177.0870  136.4150 C   0  0  2  0  0  3  0  0  0  0  0  0
  184.0170  175.1090  137.2430 C   0  0  0  0  0  2  0  0  0  0  0  0
  185.0560  177.2770  134.3460 C   0  0  0  0  0  2  0  0  0  0  0  0
  181.9180  175.7560  138.6570 C   0  0  1  0  0  3  0  0  0  0  0  0
  181.3210  176.9450  137.8810 C   0  0  1  0  0  3  0  0  0  0  0  0
  186.5610  176.8820  136.0230 C   0  0  2  0  0  3  0  0  0  0  0  0
  183.6290  176.9360  134.7300 C   0  0  0  0  0  2  0  0  0  0  0  0
  187.2310  178.0720  135.7120 O   0  0  0  0  0  1  0  0  0  0  0  0
  183.3060  177.3490  136.1690 C   0  0  2  0  0  3  0  0  0  0  0  0
  180.8860  175.1260  139.5820 C   0  0  0  0  0  1  0  0  0  0  0  0
  182.0650  173.6570  137.3360 C   0  0  0  0  0  2  0  0  0  0  0  0
  185.9300  176.3230  134.8910 O   0  0  0  0  0  0  0  0  0  0  0  0
  185.6410  177.0580  137.2080 C   0  0  0  0  0  0  0  0  0  0  0  0
  184.2010  176.6260  137.1990 C   0  0  2  0  0  3  0  0  0  0  0  0
  186.0930  177.5390  138.2340 O   0  0  0  0  0  0  0  0  0  0  0  0
  182.6720  174.7460  137.8110 C   0  0  0  0  0  0  0  0  0  0  0  0
  180.9160  178.0080  135.5950 C   0  0  0  0  0  1  0  0  0  0  0  0
  185.2650  178.3650  143.0500 C   0  0  0  0  0  0  0  0  0  0  0  0
  186.3140  177.6740  143.1380 O   0  0  0  0  0  0  0  0  0  0  0  0
  184.9650  179.2930  144.0380 O   0  0  0  0  0  1  0  0  0  0  0  0
  1  7  1  1  0  0  0
  1 14  1  0  0  0  0
  3 12  2  0  0  0  0
  5  4  1  0  0  0  0
  6  8  1  0  0  0  0
  6  3  1  0  0  0  0
  7  4  1  0  0  0  0
  8  5  1  0  0  0  0
  9  2  1  6  0  0  0
  9 10  1  0  0  0  0
 10 11  1  0  0  0  0
 10 32  1  1  0  0  0
 12  9  1  0  0  0  0
 13 11  1  0  0  0  0
 14 12  1  0  0  0  0
 14 13  1  1  0  0  0
 15 31  1  1  0  0  0
 15 19  1  0  0  0  0
 16 30  1  0  0  0  0
 17 21  1  0  0  0  0
 17 26  1  0  0  0  0
 18 24  1  6  0  0  0
 19 18  1  0  0  0  0
 19  1  1  1  0  0  0
 20 22  1  6  0  0  0
 20 27  1  0  0  0  0
 23 21  1  6  0  0  0
 23 15  1  0  0  0  0
 23 28  1  0  0  0  0
 25 30  2  0  0  0  0
 26 20  1  0  0  0  0
 27 29  2  0  0  0  0
 28 27  1  0  0  0  0
 28 16  1  6  0  0  0
 30 18  1  0  0  0  0
 32 33  2  0  0  0  0
 32 34  1  0  0  0  0
M  END
>  <MODEL>
2

>  <REMARK>
 VINA RESULT:      -5.5      1.651      6.104
  Name = 
  2 active torsions:
  status: ('A' for Active; 'I' for Inactive)
    1  A    between atoms: C_1  and  C_9
    2  A    between atoms: C_3  and  C_25
                            x       y       z     vdW  Elec       q    Type
                         _______ _______ _______ _____ _____    ______ ____

>  <TORSDO>
F 2

$$$$
=
 OpenBabel10272415323D

 34 37  0  0  1  0  0  0  0  0999 V2000
  182.7000  176.0260  135.9040 C   0  0  1  0  0  3  0  0  0  0  0  0
  186.5220  177.1160  138.4820 O   0  0  0  0  0  1  0  0  0  0  0  0
  184.9040  174.8050  137.6250 C   0  0  0  0  0  3  0  0  0  0  0  0
  183.5060  174.1520  134.6180 O   0  0  0  0  0  0  0  0  0  0  0  0
  183.0140  173.0600  135.3400 C   0  0  0  0  0  2  0  0  0  0  0  0
  183.6970  173.9200  137.5900 C   0  0  0  0  0  2  0  0  0  0  0  0
  182.5010  175.1220  134.6820 C   0  0  0  0  0  2  0  0  0  0  0  0
  183.8800  172.8120  136.5640 C   0  0  0  0  0  2  0  0  0  0  0  0
  186.4230  176.6470  137.1690 C   0  0  2  0  0  3  0  0  0  0  0  0
  186.6420  177.8060  136.1870 C   0  0  2  0  0  3  0  0  0  0  0  0
  186.2130  177.4040  134.7780 C   0  0  0  0  0  2  0  0  0  0  0  0
  185.0900  175.9680  136.9670 C   0  0  0  0  0  0  0  0  0  0  0  0
  184.7150  177.0840  134.7020 C   0  0  0  0  0  2  0  0  0  0  0  0
  184.0900  176.6600  136.0440 C   0  0  1  0  0  3  0  0  0  0  0  0
  180.8330  176.8120  137.5810 C   0  0  2  0  0  3  0  0  0  0  0  0
  181.8490  179.6650  138.1520 C   0  0  0  0  0  2  0  0  0  0  0  0
  181.2950  177.6900  141.3100 C   0  0  0  0  0  2  0  0  0  0  0  0
  181.9290  178.4310  135.8510 C   0  0  1  0  0  3  0  0  0  0  0  0
  181.5370  176.9850  136.2100 C   0  0  1  0  0  3  0  0  0  0  0  0
  183.1730  178.9850  141.1330 C   0  0  2  0  0  3  0  0  0  0  0  0
  180.6130  177.4420  139.9780 C   0  0  0  0  0  2  0  0  0  0  0  0
  183.8310  178.1680  142.0620 O   0  0  0  0  0  1  0  0  0  0  0  0
  181.6220  177.1880  138.8530 C   0  0  2  0  0  3  0  0  0  0  0  0
  181.7340  178.7030  134.3660 C   0  0  0  0  0  1  0  0  0  0  0  0
  180.1980  180.1200  136.4220 C   0  0  0  0  0  2  0  0  0  0  0  0
  181.7780  179.0080  141.3500 O   0  0  0  0  0  0  0  0  0  0  0  0
  183.5630  178.6380  139.7170 C   0  0  0  0  0  0  0  0  0  0  0  0
  182.5570  178.3950  138.6250 C   0  0  2  0  0  3  0  0  0  0  0  0
  184.7480  178.5880  139.4310 O   0  0  0  0  0  0  0  0  0  0  0  0
  181.3350  179.5020  136.7470 C   0  0  0  0  0  0  0  0  0  0  0  0
  180.1320  175.4700  137.7100 C   0  0  0  0  0  1  0  0  0  0  0  0
  188.0720  178.2410  136.1870 C   0  0  0  0  0  0  0  0  0  0  0  0
  188.4220  179.2980  136.7770 O   0  0  0  0  0  1  0  0  0  0  0  0
  189.0230  177.4710  135.5310 O   0  0  0  0  0  0  0  0  0  0  0  0
  1  7  1  6  0  0  0
  1 14  1  0  0  0  0
  4  7  1  0  0  0  0
  4  5  1  0  0  0  0
  5  8  1  0  0  0  0
  6  3  1  0  0  0  0
  8  6  1  0  0  0  0
  9  2  1  1  0  0  0
 10 32  1  6  0  0  0
 10  9  1  0  0  0  0
 11 10  1  0  0  0  0
 12  9  1  0  0  0  0
 12  3  2  0  0  0  0
 13 11  1  0  0  0  0
 14 13  1  6  0  0  0
 14 12  1  0  0  0  0
 15 31  1  1  0  0  0
 15 23  1  0  0  0  0
 17 26  1  0  0  0  0
 18 24  1  6  0  0  0
 18 19  1  0  0  0  0
 18 30  1  0  0  0  0
 19  1  1  1  0  0  0
 19 15  1  0  0  0  0
 20 26  1  0  0  0  0
 20 22  1  1  0  0  0
 21 17  1  0  0  0  0
 23 21  1  1  0  0  0
 25 30  2  0  0  0  0
 27 20  1  0  0  0  0
 28 16  1  1  0  0  0
 28 23  1  0  0  0  0
 28 27  1  0  0  0  0
 29 27  2  0  0  0  0
 30 16  1  0  0  0  0
 32 33  1  0  0  0  0
 34 32  2  0  0  0  0
M  END
>  <MODEL>
3

>  <REMARK>
 VINA RESULT:      -4.7      1.206      1.636
  Name = 
  2 active torsions:
  status: ('A' for Active; 'I' for Inactive)
    1  A    between atoms: C_1  and  C_9
    2  A    between atoms: C_3  and  C_25
                            x       y       z     vdW  Elec       q    Type
                         _______ _______ _______ _____ _____    ______ ____

>  <TORSDO>
F 2

$$$$
=
 OpenBabel10272415323D

 34 37  0  0  1  0  0  0  0  0999 V2000
  191.0100  175.5800  137.1530 C   0  0  1  0  0  3  0  0  0  0  0  0
  187.7690  178.9570  137.8860 O   0  0  0  0  0  1  0  0  0  0  0  0
  188.1020  176.3240  136.6030 C   0  0  0  0  0  3  0  0  0  0  0  0
  189.7600  173.5900  137.6980 O   0  0  0  0  0  0  0  0  0  0  0  0
  189.3690  173.1290  136.4380 C   0  0  0  0  0  2  0  0  0  0  0  0
  188.6120  175.3560  135.5810 C   0  0  0  0  0  2  0  0  0  0  0  0
  191.0540  174.0930  137.5230 C   0  0  0  0  0  2  0  0  0  0  0  0
  188.1870  173.9390  135.9320 C   0  0  0  0  0  2  0  0  0  0  0  0
  187.9890  177.7560  138.5640 C   0  0  2  0  0  3  0  0  0  0  0  0
  188.7110  178.0340  139.8900 C   0  0  2  0  0  3  0  0  0  0  0  0
  189.2570  176.7380  140.4850 C   0  0  0  0  0  2  0  0  0  0  0  0
  188.7570  176.8020  137.6810 C   0  0  0  0  0  0  0  0  0  0  0  0
  190.3080  176.0860  139.5780 C   0  0  0  0  0  2  0  0  0  0  0  0
  190.1900  176.4760  138.0930 C   0  0  1  0  0  3  0  0  0  0  0  0
  193.5680  175.9380  137.6430 C   0  0  2  0  0  3  0  0  0  0  0  0
  194.7520  174.4370  135.2270 C   0  0  0  0  0  2  0  0  0  0  0  0
  196.1630  173.2140  138.4960 C   0  0  0  0  0  2  0  0  0  0  0  0
  192.5990  175.9180  135.2190 C   0  0  1  0  0  3  0  0  0  0  0  0
  192.3520  176.1900  136.7150 C   0  0  1  0  0  3  0  0  0  0  0  0
  195.5980  171.6800  136.8960 C   0  0  2  0  0  3  0  0  0  0  0  0
  195.5670  174.5860  138.2460 C   0  0  0  0  0  2  0  0  0  0  0  0
  195.4220  170.7030  137.8850 O   0  0  0  0  0  1  0  0  0  0  0  0
  194.1260  174.5030  137.7340 C   0  0  2  0  0  3  0  0  0  0  0  0
  191.8770  176.9340  134.3460 C   0  0  0  0  0  1  0  0  0  0  0  0
  194.8010  176.7240  134.3960 C   0  0  0  0  0  2  0  0  0  0  0  0
  196.5570  172.6440  137.2750 O   0  0  0  0  0  0  0  0  0  0  0  0
  194.2780  172.2710  136.4620 C   0  0  0  0  0  0  0  0  0  0  0  0
  194.0280  173.7520  136.3870 C   0  0  2  0  0  3  0  0  0  0  0  0
  193.3820  171.5170  136.1210 O   0  0  0  0  0  0  0  0  0  0  0  0
  194.0530  175.7100  134.8340 C   0  0  0  0  0  0  0  0  0  0  0  0
  193.3990  176.5800  139.0110 C   0  0  0  0  0  1  0  0  0  0  0  0
  187.7970  178.7040  140.8640 C   0  0  0  0  0  0  0  0  0  0  0  0
  188.2400  179.1570  141.9530 O   0  0  0  0  0  1  0  0  0  0  0  0
  186.4470  178.8310  140.5630 O   0  0  0  0  0  0  0  0  0  0  0  0
  1  7  1  1  0  0  0
  1 14  1  0  0  0  0
  3 12  2  0  0  0  0
  5  4  1  0  0  0  0
  6  8  1  0  0  0  0
  6  3  1  0  0  0  0
  7  4  1  0  0  0  0
  8  5  1  0  0  0  0
  9  2  1  6  0  0  0
  9 10  1  0  0  0  0
 10 11  1  0  0  0  0
 10 32  1  1  0  0  0
 12 14  1  0  0  0  0
 12  9  1  0  0  0  0
 13 11  1  0  0  0  0
 14 13  1  1  0  0  0
 15 23  1  0  0  0  0
 15 31  1  1  0  0  0
 18 24  1  6  0  0  0
 18 19  1  0  0  0  0
 19  1  1  1  0  0  0
 19 15  1  0  0  0  0
 20 26  1  0  0  0  0
 20 22  1  1  0  0  0
 21 17  1  0  0  0  0
 23 21  1  6  0  0  0
 25 30  2  0  0  0  0
 26 17  1  0  0  0  0
 27 20  1  0  0  0  0
 28 16  1  6  0  0  0
 28 27  1  0  0  0  0
 28 23  1  0  0  0  0
 29 27  2  0  0  0  0
 30 18  1  0  0  0  0
 30 16  1  0  0  0  0
 32 33  1  0  0  0  0
 34 32  2  0  0  0  0
M  END
>  <MODEL>
4

>  <REMARK>
 VINA RESULT:      -4.6      5.697      9.667
  Name = 
  2 active torsions:
  status: ('A' for Active; 'I' for Inactive)
    1  A    between atoms: C_1  and  C_9
    2  A    between atoms: C_3  and  C_25
                            x       y       z     vdW  Elec       q    Type
                         _______ _______ _______ _____ _____    ______ ____

>  <TORSDO>
F 2

$$$$
=
 OpenBabel10272415323D

 34 37  0  0  1  0  0  0  0  0999 V2000
  183.6950  176.4790  137.6470 C   0  0  1  0  0  3  0  0  0  0  0  0
  181.0050  173.6980  134.9130 O   0  0  0  0  0  1  0  0  0  0  0  0
  182.9810  175.8800  134.7420 C   0  0  0  0  0  3  0  0  0  0  0  0
  185.8190  176.3580  136.5130 O   0  0  0  0  0  0  0  0  0  0  0  0
  185.8220  177.5340  135.7570 C   0  0  0  0  0  2  0  0  0  0  0  0
  183.4860  177.2810  134.8930 C   0  0  0  0  0  2  0  0  0  0  0  0
  185.2100  176.6970  137.7250 C   0  0  0  0  0  2  0  0  0  0  0  0
  184.9580  177.3590  134.5190 C   0  0  0  0  0  2  0  0  0  0  0  0
  182.3540  173.5890  135.2600 C   0  0  2  0  0  3  0  0  0  0  0  0
  182.5260  172.5140  136.3410 C   0  0  2  0  0  3  0  0  0  0  0  0
  183.9130  172.6050  136.9730 C   0  0  0  0  0  2  0  0  0  0  0  0
  182.8810  174.9340  135.6990 C   0  0  0  0  0  0  0  0  0  0  0  0
  184.1330  173.9420  137.6900 C   0  0  0  0  0  2  0  0  0  0  0  0
  183.2450  175.0900  137.1730 C   0  0  1  0  0  3  0  0  0  0  0  0
  183.0000  178.5510  139.1100 C   0  0  2  0  0  3  0  0  0  0  0  0
  179.9820  178.6050  138.4930 C   0  0  0  0  0  2  0  0  0  0  0  0
  181.6300  181.9260  137.8370 C   0  0  0  0  0  2  0  0  0  0  0  0
  181.4530  176.4690  138.8120 C   0  0  1  0  0  3  0  0  0  0  0  0
  182.8880  177.0290  138.8360 C   0  0  1  0  0  3  0  0  0  0  0  0
  180.1020  181.1360  136.3290 C   0  0  2  0  0  3  0  0  0  0  0  0
  182.1320  180.8610  138.7940 C   0  0  0  0  0  2  0  0  0  0  0  0
  180.6970  181.8980  135.3160 O   0  0  0  0  0  1  0  0  0  0  0  0
  182.3650  179.5200  138.0910 C   0  0  2  0  0  3  0  0  0  0  0  0
  181.3900  175.0840  139.4380 C   0  0  0  0  0  1  0  0  0  0  0  0
  179.9830  177.3800  140.5960 C   0  0  0  0  0  2  0  0  0  0  0  0
  180.2590  181.7330  137.5980 O   0  0  0  0  0  0  0  0  0  0  0  0
  180.5520  179.6950  136.2740 C   0  0  0  0  0  0  0  0  0  0  0  0
  181.0680  178.9510  137.4740 C   0  0  2  0  0  3  0  0  0  0  0  0
  180.4600  179.0930  135.2170 O   0  0  0  0  0  0  0  0  0  0  0  0
  180.3830  177.4170  139.3250 C   0  0  0  0  0  0  0  0  0  0  0  0
  184.4070  178.9690  139.5060 C   0  0  0  0  0  1  0  0  0  0  0  0
  182.3040  171.1480  135.7750 C   0  0  0  0  0  0  0  0  0  0  0  0
  181.2320  170.5260  136.0000 O   0  0  0  0  0  1  0  0  0  0  0  0
  183.2900  170.5630  134.9930 O   0  0  0  0  0  0  0  0  0  0  0  0
  1  7  1  1  0  0  0
  3  6  1  0  0  0  0
  3 12  2  0  0  0  0
  4  7  1  0  0  0  0
  5  4  1  0  0  0  0
  8  6  1  0  0  0  0
  8  5  1  0  0  0  0
  9  2  1  1  0  0  0
  9 12  1  0  0  0  0
  9 10  1  0  0  0  0
 10 32  1  6  0  0  0
 10 11  1  0  0  0  0
 11 13  1  0  0  0  0
 12 14  1  0  0  0  0
 14  1  1  0  0  0  0
 14 13  1  6  0  0  0
 15 31  1  6  0  0  0
 16 30  1  0  0  0  0
 17 21  1  0  0  0  0
 18 19  1  0  0  0  0
 18 30  1  0  0  0  0
 18 24  1  1  0  0  0
 19  1  1  6  0  0  0
 19 15  1  0  0  0  0
 20 22  1  6  0  0  0
 20 26  1  0  0  0  0
 23 21  1  1  0  0  0
 23 15  1  0  0  0  0
 26 17  1  0  0  0  0
 27 20  1  0  0  0  0
 27 28  1  0  0  0  0
 28 23  1  0  0  0  0
 28 16  1  1  0  0  0
 29 27  2  0  0  0  0
 30 25  2  0  0  0  0
 32 33  1  0  0  0  0
 34 32  2  0  0  0  0
M  END
>  <MODEL>
5

>  <REMARK>
 VINA RESULT:      -4.1      2.505      5.532
  Name = 
  2 active torsions:
  status: ('A' for Active; 'I' for Inactive)
    1  A    between atoms: C_1  and  C_9
    2  A    between atoms: C_3  and  C_25
                            x       y       z     vdW  Elec       q    Type
                         _______ _______ _______ _____ _____    ______ ____

>  <TORSDO>
F 2

$$$$
=
 OpenBabel10272415323D

 34 37  0  0  1  0  0  0  0  0999 V2000
  192.7050  174.9280  136.4860 C   0  0  1  0  0  3  0  0  0  0  0  0
  189.5470  178.4220  135.9780 O   0  0  0  0  0  1  0  0  0  0  0  0
  190.0910  175.6630  135.0930 C   0  0  0  0  0  3  0  0  0  0  0  0
  191.2640  173.0290  136.8550 O   0  0  0  0  0  0  0  0  0  0  0  0
  191.2070  172.4460  135.5860 C   0  0  0  0  0  2  0  0  0  0  0  0
  190.8140  174.5850  134.3460 C   0  0  0  0  0  2  0  0  0  0  0  0
  192.5780  173.4870  136.9940 C   0  0  0  0  0  2  0  0  0  0  0  0
  190.2450  173.2200  134.7010 C   0  0  0  0  0  2  0  0  0  0  0  0
  189.5190  177.2950  136.8010 C   0  0  2  0  0  3  0  0  0  0  0  0
  189.8670  177.6960  138.2410 C   0  0  2  0  0  3  0  0  0  0  0  0
  190.1720  176.4600  139.0850 C   0  0  0  0  0  2  0  0  0  0  0  0
  190.4520  176.2400  136.2580 C   0  0  0  0  0  0  0  0  0  0  0  0
  191.3980  175.6970  138.5670 C   0  0  0  0  0  2  0  0  0  0  0  0
  191.7040  175.9320  137.0750 C   0  0  1  0  0  3  0  0  0  0  0  0
  195.2140  174.7730  137.2580 C   0  0  2  0  0  3  0  0  0  0  0  0
  196.5100  173.9760  134.5790 C   0  0  0  0  0  2  0  0  0  0  0  0
  197.4110  171.6040  137.3610 C   0  0  0  0  0  2  0  0  0  0  0  0
  194.5300  175.6510  134.8960 C   0  0  1  0  0  3  0  0  0  0  0  0
  194.1420  175.4640  136.3750 C   0  0  1  0  0  3  0  0  0  0  0  0
  196.8820  170.7460  135.3070 C   0  0  2  0  0  3  0  0  0  0  0  0
  196.9860  173.0500  137.5320 C   0  0  0  0  0  2  0  0  0  0  0  0
  196.4980  169.5370  135.9030 O   0  0  0  0  0  1  0  0  0  0  0  0
  195.6120  173.3230  136.9130 C   0  0  2  0  0  3  0  0  0  0  0  0
  194.0170  176.9770  134.3540 C   0  0  0  0  0  1  0  0  0  0  0  0
  196.8800  176.3810  134.5530 C   0  0  0  0  0  2  0  0  0  0  0  0
  197.8820  171.4050  136.0530 O   0  0  0  0  0  0  0  0  0  0  0  0
  195.6850  171.6120  134.9930 C   0  0  0  0  0  0  0  0  0  0  0  0
  195.5940  173.0590  135.3920 C   0  0  2  0  0  3  0  0  0  0  0  0
  194.7630  171.1300  134.3560 O   0  0  0  0  0  0  0  0  0  0  0  0
  195.9900  175.3880  134.5750 C   0  0  0  0  0  0  0  0  0  0  0  0
  194.9540  174.9640  138.7440 C   0  0  0  0  0  1  0  0  0  0  0  0
  188.7560  178.4810  138.8600 C   0  0  0  0  0  0  0  0  0  0  0  0
  188.8260  178.8580  140.0600 O   0  0  0  0  0  1  0  0  0  0  0  0
  187.6370  178.8000  138.1020 O   0  0  0  0  0  0  0  0  0  0  0  0
  1  7  1  1  0  0  0
  1 14  1  0  0  0  0
  3 12  2  0  0  0  0
  4  7  1  0  0  0  0
  5  4  1  0  0  0  0
  6  8  1  0  0  0  0
  6  3  1  0  0  0  0
  8  5  1  0  0  0  0
  9  2  1  6  0  0  0
  9 10  1  0  0  0  0
 10 32  1  1  0  0  0
 10 11  1  0  0  0  0
 12  9  1  0  0  0  0
 12 14  1  0  0  0  0
 13 11  1  0  0  0  0
 14 13  1  1  0  0  0
 15 31  1  1  0  0  0
 17 21  1  0  0  0  0
 18 24  1  1  0  0  0
 18 19  1  0  0  0  0
 19  1  1  6  0  0  0
 19 15  1  0  0  0  0
 20 22  1  1  0  0  0
 20 26  1  0  0  0  0
 23 15  1  0  0  0  0
 23 21  1  6  0  0  0
 25 30  2  0  0  0  0
 26 17  1  0  0  0  0
 27 20  1  0  0  0  0
 27 28  1  0  0  0  0
 28 16  1  6  0  0  0
 28 23  1  0  0  0  0
 29 27  2  0  0  0  0
 30 16  1  0  0  0  0
 30 18  1  0  0  0  0
 32 33  1  0  0  0  0
 34 32  2  0  0  0  0
M  END
>  <MODEL>
6

>  <REMARK>
 VINA RESULT:      -4.0      6.982     11.102
  Name = 
  2 active torsions:
  status: ('A' for Active; 'I' for Inactive)
    1  A    between atoms: C_1  and  C_9
    2  A    between atoms: C_3  and  C_25
                            x       y       z     vdW  Elec       q    Type
                         _______ _______ _______ _____ _____    ______ ____

>  <TORSDO>
F 2

$$$$
=
 OpenBabel10272415323D

 34 37  0  0  1  0  0  0  0  0999 V2000
  187.3160  175.9500  135.9880 C   0  0  1  0  0  3  0  0  0  0  0  0
  191.2460  175.1410  138.5090 O   0  0  0  0  0  1  0  0  0  0  0  0
  188.9280  173.7400  137.3410 C   0  0  0  0  0  3  0  0  0  0  0  0
  187.4280  174.1870  134.3470 O   0  0  0  0  0  0  0  0  0  0  0  0
  186.5730  173.2210  134.8870 C   0  0  0  0  0  2  0  0  0  0  0  0
  187.4880  173.3530  137.2140 C   0  0  0  0  0  2  0  0  0  0  0  0
  186.8280  175.4160  134.6370 C   0  0  0  0  0  2  0  0  0  0  0  0
  187.2820  172.4640  135.9980 C   0  0  0  0  0  2  0  0  0  0  0  0
  191.0040  174.9890  137.1410 C   0  0  2  0  0  3  0  0  0  0  0  0
  191.6300  176.1600  136.3710 C   0  0  2  0  0  3  0  0  0  0  0  0
  191.1040  176.2030  134.9380 C   0  0  0  0  0  2  0  0  0  0  0  0
  189.5200  174.8670  136.8930 C   0  0  0  0  0  0  0  0  0  0  0  0
  189.5910  176.4440  134.8870 C   0  0  0  0  0  2  0  0  0  0  0  0
  188.8400  176.0230  136.1640 C   0  0  1  0  0  3  0  0  0  0  0  0
  185.2570  177.5720  135.7850 C   0  0  2  0  0  3  0  0  0  0  0  0
  183.8800  176.9660  138.4740 C   0  0  0  0  0  2  0  0  0  0  0  0
  181.5380  176.5690  135.5520 C   0  0  0  0  0  2  0  0  0  0  0  0
  186.4550  177.1140  138.0590 C   0  0  1  0  0  3  0  0  0  0  0  0
  186.5630  177.1790  136.5230 C   0  0  1  0  0  3  0  0  0  0  0  0
  181.4930  175.0070  137.2220 C   0  0  2  0  0  3  0  0  0  0  0  0
  182.7810  177.4390  135.5800 C   0  0  0  0  0  2  0  0  0  0  0  0
  180.9850  174.0550  136.3280 O   0  0  0  0  0  1  0  0  0  0  0  0
  184.0390  176.6320  135.9160 C   0  0  2  0  0  3  0  0  0  0  0  0
  187.7230  177.6290  138.7230 C   0  0  0  0  0  1  0  0  0  0  0  0
  185.1360  178.9670  139.0590 C   0  0  0  0  0  2  0  0  0  0  0  0
  181.1120  176.3180  136.8660 O   0  0  0  0  0  0  0  0  0  0  0  0
  182.9800  174.8380  137.4240 C   0  0  0  0  0  0  0  0  0  0  0  0
  183.9570  175.9750  137.3110 C   0  0  2  0  0  3  0  0  0  0  0  0
  183.4080  173.7370  137.7290 O   0  0  0  0  0  0  0  0  0  0  0  0
  185.1820  177.7010  138.6410 C   0  0  0  0  0  0  0  0  0  0  0  0
  185.5060  177.9970  134.3470 C   0  0  0  0  0  1  0  0  0  0  0  0
  193.1210  176.0630  136.3720 C   0  0  0  0  0  0  0  0  0  0  0  0
  193.7140  175.2870  135.5750 O   0  0  0  0  0  0  0  0  0  0  0  0
  193.8590  176.8360  137.2570 O   0  0  0  0  0  1  0  0  0  0  0  0
  1  7  1  6  0  0  0
  1 14  1  0  0  0  0
  4  7  1  0  0  0  0
  4  5  1  0  0  0  0
  5  8  1  0  0  0  0
  6  3  1  0  0  0  0
  8  6  1  0  0  0  0
  9  2  1  1  0  0  0
 10 32  1  6  0  0  0
 10  9  1  0  0  0  0
 11 10  1  0  0  0  0
 12  9  1  0  0  0  0
 12  3  2  0  0  0  0
 13 11  1  0  0  0  0
 14 13  1  6  0  0  0
 14 12  1  0  0  0  0
 15 31  1  6  0  0  0
 15 23  1  0  0  0  0
 15 19  1  0  0  0  0
 16 30  1  0  0  0  0
 17 21  1  0  0  0  0
 17 26  1  0  0  0  0
 18 30  1  0  0  0  0
 18 24  1  1  0  0  0
 19  1  1  6  0  0  0
 19 18  1  0  0  0  0
 20 22  1  6  0  0  0
 20 27  1  0  0  0  0
 23 21  1  1  0  0  0
 23 28  1  0  0  0  0
 26 20  1  0  0  0  0
 27 29  2  0  0  0  0
 28 27  1  0  0  0  0
 28 16  1  1  0  0  0
 30 25  2  0  0  0  0
 32 34  1  0  0  0  0
 33 32  2  0  0  0  0
M  END
>  <MODEL>
7

>  <REMARK>
 VINA RESULT:      -3.7      2.897      5.141
  Name = 
  2 active torsions:
  status: ('A' for Active; 'I' for Inactive)
    1  A    between atoms: C_1  and  C_9
    2  A    between atoms: C_3  and  C_25
                            x       y       z     vdW  Elec       q    Type
                         _______ _______ _______ _____ _____    ______ ____

>  <TORSDO>
F 2

$$$$
=
 OpenBabel10272415323D

 34 37  0  0  1  0  0  0  0  0999 V2000
  190.9750  175.7940  136.0530 C   0  0  1  0  0  3  0  0  0  0  0  0
  195.2670  174.9290  137.8620 O   0  0  0  0  0  1  0  0  0  0  0  0
  192.7950  173.5510  137.0360 C   0  0  0  0  0  3  0  0  0  0  0  0
  190.8220  174.0950  134.3480 O   0  0  0  0  0  0  0  0  0  0  0  0
  190.0710  173.1010  134.9830 C   0  0  0  0  0  2  0  0  0  0  0  0
  191.3540  173.1550  137.1320 C   0  0  0  0  0  2  0  0  0  0  0  0
  190.2730  175.3070  134.7800 C   0  0  0  0  0  2  0  0  0  0  0  0
  190.9550  172.3100  135.9320 C   0  0  0  0  0  2  0  0  0  0  0  0
  194.8050  174.8280  136.5480 C   0  0  2  0  0  3  0  0  0  0  0  0
  195.2910  176.0330  135.7320 C   0  0  2  0  0  3  0  0  0  0  0  0
  194.5380  176.1240  134.4070 C   0  0  0  0  0  2  0  0  0  0  0  0
  193.3010  174.7000  136.5410 C   0  0  0  0  0  0  0  0  0  0  0  0
  193.0350  176.3520  134.6140 C   0  0  0  0  0  2  0  0  0  0  0  0
  192.5060  175.8750  135.9790 C   0  0  1  0  0  3  0  0  0  0  0  0
  189.1210  177.6580  136.0170 C   0  0  2  0  0  3  0  0  0  0  0  0
  187.4760  176.7700  138.4670 C   0  0  0  0  0  2  0  0  0  0  0  0
  185.3480  177.1560  135.3850 C   0  0  0  0  0  2  0  0  0  0  0  0
  190.0770  176.6820  138.2410 C   0  0  1  0  0  3  0  0  0  0  0  0
  190.3140  176.9940  136.7520 C   0  0  1  0  0  3  0  0  0  0  0  0
  185.0040  175.3480  136.7440 C   0  0  2  0  0  3  0  0  0  0  0  0
  186.6690  177.8550  135.6430 C   0  0  0  0  0  2  0  0  0  0  0  0
  184.4720  174.6290  135.6650 O   0  0  0  0  0  1  0  0  0  0  0  0
  187.8050  176.8600  135.9050 C   0  0  2  0  0  3  0  0  0  0  0  0
  191.3350  176.9240  139.0630 C   0  0  0  0  0  1  0  0  0  0  0  0
  188.8850  178.4800  139.4750 C   0  0  0  0  0  2  0  0  0  0  0  0
  184.7930  176.7370  136.6050 O   0  0  0  0  0  0  0  0  0  0  0  0
  186.4440  174.9730  137.0030 C   0  0  0  0  0  0  0  0  0  0  0  0
  187.5410  175.9900  137.1530 C   0  0  2  0  0  3  0  0  0  0  0  0
  186.7280  173.7940  137.1320 O   0  0  0  0  0  0  0  0  0  0  0  0
  188.8310  177.3070  138.8410 C   0  0  0  0  0  0  0  0  0  0  0  0
  189.5290  178.2900  134.6960 C   0  0  0  0  0  1  0  0  0  0  0  0
  196.7630  175.9500  135.4840 C   0  0  0  0  0  0  0  0  0  0  0  0
  197.5810  176.4590  136.2970 O   0  0  0  0  0  1  0  0  0  0  0  0
  197.2320  175.3040  134.3480 O   0  0  0  0  0  0  0  0  0  0  0  0
  1  7  1  6  0  0  0
  3  6  1  0  0  0  0
  4  7  1  0  0  0  0
  4  5  1  0  0  0  0
  5  8  1  0  0  0  0
  8  6  1  0  0  0  0
  9  2  1  1  0  0  0
 10 32  1  6  0  0  0
 10  9  1  0  0  0  0
 11 13  1  0  0  0  0
 11 10  1  0  0  0  0
 12  9  1  0  0  0  0
 12  3  2  0  0  0  0
 14 13  1  6  0  0  0
 14  1  1  0  0  0  0
 14 12  1  0  0  0  0
 15 31  1  6  0  0  0
 15 19  1  0  0  0  0
 16 30  1  0  0  0  0
 17 21  1  0  0  0  0
 17 26  1  0  0  0  0
 18 30  1  0  0  0  0
 18 24  1  1  0  0  0
 19  1  1  6  0  0  0
 19 18  1  0  0  0  0
 20 22  1  6  0  0  0
 20 27  1  0  0  0  0
 23 21  1  1  0  0  0
 23 15  1  0  0  0  0
 23 28  1  0  0  0  0
 26 20  1  0  0  0  0
 27 29  2  0  0  0  0
 27 28  1  0  0  0  0
 28 16  1  1  0  0  0
 30 25  2  0  0  0  0
 32 33  1  0  0  0  0
 34 32  2  0  0  0  0
M  END
>  <MODEL>
8

>  <REMARK>
 VINA RESULT:      -3.7      4.751      7.673
  Name = 
  2 active torsions:
  status: ('A' for Active; 'I' for Inactive)
    1  A    between atoms: C_1  and  C_9
    2  A    between atoms: C_3  and  C_25
                            x       y       z     vdW  Elec       q    Type
                         _______ _______ _______ _____ _____    ______ ____

>  <TORSDO>
F 2

$$$$
=
 OpenBabel10272415323D

 34 37  0  0  1  0  0  0  0  0999 V2000
  181.4100  177.1340  136.7750 C   0  0  1  0  0  3  0  0  0  0  0  0
  184.5480  173.9400  138.3240 O   0  0  0  0  0  1  0  0  0  0  0  0
  182.1540  174.1790  136.6190 C   0  0  0  0  0  3  0  0  0  0  0  0
  181.3080  176.6050  134.4240 O   0  0  0  0  0  0  0  0  0  0  0  0
  180.1560  175.8160  134.3460 C   0  0  0  0  0  2  0  0  0  0  0  0
  180.7000  174.3830  136.3260 C   0  0  0  0  0  2  0  0  0  0  0  0
  181.0150  177.5950  135.3680 C   0  0  0  0  0  2  0  0  0  0  0  0
  180.4590  174.4060  134.8250 C   0  0  0  0  0  2  0  0  0  0  0  0
  184.4900  174.6340  137.1130 C   0  0  2  0  0  3  0  0  0  0  0  0
  185.5130  175.7770  137.1220 C   0  0  2  0  0  3  0  0  0  0  0  0
  185.2470  176.7450  135.9710 C   0  0  0  0  0  2  0  0  0  0  0  0
  183.0830  175.1240  136.8700 C   0  0  0  0  0  0  0  0  0  0  0  0
  183.8770  177.4230  136.0950 C   0  0  0  0  0  2  0  0  0  0  0  0
  182.8530  176.6320  136.9300 C   0  0  1  0  0  3  0  0  0  0  0  0
  181.3870  177.6470  139.3540 C   0  0  2  0  0  3  0  0  0  0  0  0
  182.8510  180.3580  139.3350 C   0  0  0  0  0  2  0  0  0  0  0  0
  184.4460  177.8930  141.6910 C   0  0  0  0  0  2  0  0  0  0  0  0
  181.1320  179.5210  137.5540 C   0  0  1  0  0  3  0  0  0  0  0  0
  180.9330  178.0390  137.9230 C   0  0  1  0  0  3  0  0  0  0  0  0
  185.7930  179.1850  140.3680 C   0  0  2  0  0  3  0  0  0  0  0  0
  183.0000  177.8730  141.2330 C   0  0  0  0  0  2  0  0  0  0  0  0
  186.8070  178.2210  140.4470 O   0  0  0  0  0  1  0  0  0  0  0  0
  182.8810  177.8010  139.7080 C   0  0  2  0  0  3  0  0  0  0  0  0
  179.9820  180.0360  136.7000 C   0  0  0  0  0  1  0  0  0  0  0  0
  180.5350  181.1050  139.3730 C   0  0  0  0  0  2  0  0  0  0  0  0
  184.9750  179.1820  141.5190 O   0  0  0  0  0  0  0  0  0  0  0  0
  185.0240  179.0740  139.0730 C   0  0  0  0  0  0  0  0  0  0  0  0
  183.5220  179.0220  139.0140 C   0  0  2  0  0  3  0  0  0  0  0  0
  185.6440  179.0620  138.0230 O   0  0  0  0  0  0  0  0  0  0  0  0
  181.4820  180.4340  138.7160 C   0  0  0  0  0  0  0  0  0  0  0  0
  180.8220  176.3070  139.7970 C   0  0  0  0  0  1  0  0  0  0  0  0
  186.9080  175.2460  137.0360 C   0  0  0  0  0  0  0  0  0  0  0  0
  187.8260  175.7350  137.7470 O   0  0  0  0  0  1  0  0  0  0  0  0
  187.1910  174.2010  136.1670 O   0  0  0  0  0  0  0  0  0  0  0  0
  1  7  1  6  0  0  0
  1 14  1  0  0  0  0
  3 12  2  0  0  0  0
  4  7  1  0  0  0  0
  5  4  1  0  0  0  0
  5  8  1  0  0  0  0
  6  3  1  0  0  0  0
  8  6  1  0  0  0  0
  9 10  1  0  0  0  0
  9  2  1  1  0  0  0
 10 32  1  6  0  0  0
 11 13  1  0  0  0  0
 11 10  1  0  0  0  0
 12 14  1  0  0  0  0
 12  9  1  0  0  0  0
 14 13  1  6  0  0  0
 15 23  1  0  0  0  0
 15 31  1  6  0  0  0
 18 24  1  1  0  0  0
 18 19  1  0  0  0  0
 18 30  1  0  0  0  0
 19  1  1  6  0  0  0
 19 15  1  0  0  0  0
 20 22  1  1  0  0  0
 20 26  1  0  0  0  0
 21 17  1  0  0  0  0
 23 21  1  1  0  0  0
 26 17  1  0  0  0  0
 27 20  1  0  0  0  0
 28 27  1  0  0  0  0
 28 16  1  1  0  0  0
 28 23  1  0  0  0  0
 29 27  2  0  0  0  0
 30 16  1  0  0  0  0
 30 25  2  0  0  0  0
 32 33  1  0  0  0  0
 34 32  2  0  0  0  0
M  END
>  <MODEL>
9

>  <REMARK>
 VINA RESULT:      -3.7      1.542      2.333
  Name = 
  2 active torsions:
  status: ('A' for Active; 'I' for Inactive)
    1  A    between atoms: C_1  and  C_9
    2  A    between atoms: C_3  and  C_25
                            x       y       z     vdW  Elec       q    Type
                         _______ _______ _______ _____ _____    ______ ____

>  <TORSDO>
F 2

$$$$
