=
 OpenBabel10272415233D

 34 38  0  0  1  0  0  0  0  0999 V2000
  186.8630  178.3430  138.9300 C   0  0  2  0  0  3  0  0  0  0  0  0
  186.9680  175.0410  136.7840 C   0  0  0  0  0  2  0  0  0  0  0  0
  184.9410  176.6420  137.3090 C   0  0  0  0  0  2  0  0  0  0  0  0
  184.7850  179.7870  139.0800 N   0  0  0  0  0  2  0  0  0  0  0  0
  183.3670  179.4670  138.9510 C   0  0  0  0  0  2  0  0  0  0  0  0
  184.5990  177.4890  138.4710 N   0  0  1  0  0  0  0  0  0  0  0  0
  185.4540  178.6720  138.4120 C   0  0  2  0  0  3  0  0  0  0  0  0
  183.2740  178.0670  138.3520 C   0  0  0  0  0  2  0  0  0  0  0  0
  188.4880  175.0580  136.5600 C   0  0  0  0  0  2  0  0  0  0  0  0
  188.9790  176.4760  136.1690 C   0  0  1  0  0  3  0  0  0  0  0  0
  188.5800  178.9170  136.6190 C   0  0  0  0  0  1  0  0  0  0  0  0
  186.4650  176.4340  137.1690 C   0  0  1  0  0  3  0  0  0  0  0  0
  188.7030  177.5410  137.2690 C   0  0  1  0  0  3  0  0  0  0  0  0
  187.4520  177.1720  138.1020 C   0  0  1  0  0  3  0  0  0  0  0  0
  190.4180  176.4960  135.6390 C   0  0  1  0  0  3  0  0  0  0  0  0
  191.4350  176.1270  136.7100 C   0  0  0  0  0  1  0  0  0  0  0  0
  190.5560  175.6330  134.5410 O   0  0  0  0  0  1  0  0  0  0  0  0
  187.0570  178.1070  140.4470 C   0  0  1  0  0  3  0  0  0  0  0  0
  188.5320  177.9460  140.7790 C   0  0  0  0  0  1  0  0  0  0  0  0
  186.2170  179.2970  141.5750 S   0  0  0  0  0  0  0  0  0  0  0  0
  184.3590  179.2470  145.2790 C   0  0  0  0  0  2  0  0  0  0  0  0
  185.3490  178.0870  142.6900 C   0  0  1  0  0  3  0  0  0  0  0  0
  187.5970  177.6080  146.3580 C   0  0  0  0  0  0  0  0  0  0  0  0
  186.4050  178.3370  146.3690 C   0  0  0  0  0  3  0  0  0  0  0  0
  185.6400  178.4780  145.1950 C   0  0  0  0  0  0  0  0  0  0  0  0
  183.0510  178.1360  142.0230 O   0  0  0  0  0  0  0  0  0  0  0  0
  187.2880  177.1700  143.9910 C   0  0  0  0  0  3  0  0  0  0  0  0
  186.1010  177.9130  143.9830 C   0  0  0  0  0  0  0  0  0  0  0  0
  188.0200  177.0010  145.1710 C   0  0  0  0  0  3  0  0  0  0  0  0
  183.8890  178.3570  142.9400 C   0  0  0  0  0  0  0  0  0  0  0  0
  183.4340  178.8650  144.2050 N   0  0  0  0  0  2  0  0  0  0  0  0
  188.4060  177.5080  147.5820 C   0  0  0  0  0  0  0  0  0  0  0  0
  188.0160  178.1890  148.7380 O   0  0  0  0  0  1  0  0  0  0  0  0
  189.4650  176.8230  147.5740 O   0  0  0  0  0  0  0  0  0  0  0  0
  1 18  1  1  0  0  0
  5  4  1  0  0  0  0
  6  3  1  6  0  0  0
  7  6  1  0  0  0  0
  7  1  1  0  0  0  0
  7  4  1  1  0  0  0
  8  6  1  0  0  0  0
  8  5  1  0  0  0  0
  9  2  1  0  0  0  0
 10 15  1  1  0  0  0
 10  9  1  0  0  0  0
 10 13  1  0  0  0  0
 12  2  1  1  0  0  0
 12  3  1  0  0  0  0
 12 14  1  0  0  0  0
 13 11  1  6  0  0  0
 13 14  1  0  0  0  0
 14  1  1  0  0  0  0
 15 16  1  0  0  0  0
 17 15  1  0  0  0  0
 18 19  1  0  0  0  0
 18 20  1  0  0  0  0
 20 22  1  0  0  0  0
 22 30  1  0  0  0  0
 22 28  1  0  0  0  0
 23 24  1  0  0  0  0
 23 32  1  0  0  0  0
 25 21  1  0  0  0  0
 25 24  2  0  0  0  0
 26 30  2  0  0  0  0
 27 29  1  0  0  0  0
 28 27  2  0  0  0  0
 28 25  1  0  0  0  0
 29 23  2  0  0  0  0
 30 31  1  0  0  0  0
 31 21  1  0  0  0  0
 32 33  1  0  0  0  0
 34 32  2  0  0  0  0
M  END
>  <MODEL>
1

>  <REMARK>
 VINA RESULT:      -8.6      0.000      0.000
  Name = 
  5 active torsions:
  status: ('A' for Active; 'I' for Inactive)
    1  A    between atoms: C_1  and  C_8
    2  A    between atoms: C_3  and  C_25
    3  A    between atoms: C_6  and  S_17
    4  A    between atoms: C_7  and  C_11
    5  A    between atoms: C_8  and  S_17
                            x       y       z     vdW  Elec       q    Type
                         _______ _______ _______ _____ _____    ______ ____

>  <TORSDO>
F 5

$$$$
=
 OpenBabel10272415233D

 34 38  0  0  1  0  0  0  0  0999 V2000
  184.1210  178.9540  139.2210 C   0  0  2  0  0  3  0  0  0  0  0  0
  183.1270  175.8070  137.0710 C   0  0  0  0  0  2  0  0  0  0  0  0
  182.0250  178.2000  137.1590 C   0  0  0  0  0  2  0  0  0  0  0  0
  182.9820  181.2000  138.9290 N   0  0  0  0  0  2  0  0  0  0  0  0
  181.6440  181.5590  138.4710 C   0  0  0  0  0  2  0  0  0  0  0  0
  181.8780  179.2030  138.2330 N   0  0  1  0  0  0  0  0  0  0  0  0
  183.1780  179.8490  138.4040 C   0  0  2  0  0  3  0  0  0  0  0  0
  181.0380  180.3140  137.8290 C   0  0  0  0  0  2  0  0  0  0  0  0
  184.4860  175.1020  137.2010 C   0  0  0  0  0  2  0  0  0  0  0  0
  185.6540  176.0950  136.9710 C   0  0  1  0  0  3  0  0  0  0  0  0
  186.3570  178.4750  137.3810 C   0  0  0  0  0  1  0  0  0  0  0  0
  183.2640  177.3020  137.3670 C   0  0  1  0  0  3  0  0  0  0  0  0
  185.6800  177.2570  138.0060 C   0  0  1  0  0  3  0  0  0  0  0  0
  184.2560  177.5780  138.5200 C   0  0  1  0  0  3  0  0  0  0  0  0
  187.0110  175.4060  136.7860 C   0  0  1  0  0  3  0  0  0  0  0  0
  186.9240  173.8970  136.9710 C   0  0  0  0  0  1  0  0  0  0  0  0
  187.5480  175.6950  135.5220 O   0  0  0  0  0  1  0  0  0  0  0  0
  183.8510  178.7850  140.7350 C   0  0  1  0  0  3  0  0  0  0  0  0
  183.4020  177.3640  141.0430 C   0  0  0  0  0  1  0  0  0  0  0  0
  185.1820  179.3540  141.8740 S   0  0  0  0  0  0  0  0  0  0  0  0
  185.6070  179.2710  145.9960 C   0  0  0  0  0  2  0  0  0  0  0  0
  184.8820  178.1840  143.2900 C   0  0  1  0  0  3  0  0  0  0  0  0
  188.6470  177.1700  145.1710 C   0  0  0  0  0  0  0  0  0  0  0  0
  187.7640  178.0390  145.8170 C   0  0  0  0  0  3  0  0  0  0  0  0
  186.5190  178.3570  145.2400 C   0  0  0  0  0  0  0  0  0  0  0  0
  182.6190  178.5650  143.9670 O   0  0  0  0  0  0  0  0  0  0  0  0
  187.0620  176.9440  143.3460 C   0  0  0  0  0  3  0  0  0  0  0  0
  186.1750  177.8270  143.9740 C   0  0  0  0  0  0  0  0  0  0  0  0
  188.2790  176.6020  143.9470 C   0  0  0  0  0  3  0  0  0  0  0  0
  183.8380  178.6150  144.2860 C   0  0  0  0  0  0  0  0  0  0  0  0
  184.2080  179.0830  145.5930 N   0  0  0  0  0  2  0  0  0  0  0  0
  189.9610  176.8840  145.7660 C   0  0  0  0  0  0  0  0  0  0  0  0
  190.0900  176.7510  147.1500 O   0  0  0  0  0  1  0  0  0  0  0  0
  190.9730  176.7840  145.0200 O   0  0  0  0  0  0  0  0  0  0  0  0
  1 18  1  1  0  0  0
  2  9  1  0  0  0  0
  3 12  1  0  0  0  0
  5  4  1  0  0  0  0
  6  3  1  6  0  0  0
  6  7  1  0  0  0  0
  7  4  1  1  0  0  0
  7  1  1  0  0  0  0
  8  6  1  0  0  0  0
  8  5  1  0  0  0  0
 10 15  1  1  0  0  0
 10  9  1  0  0  0  0
 10 13  1  0  0  0  0
 12  2  1  1  0  0  0
 12 14  1  0  0  0  0
 13 11  1  6  0  0  0
 13 14  1  0  0  0  0
 14  1  1  0  0  0  0
 15 16  1  0  0  0  0
 17 15  1  0  0  0  0
 18 19  1  0  0  0  0
 18 20  1  0  0  0  0
 20 22  1  0  0  0  0
 22 28  1  0  0  0  0
 22 30  1  0  0  0  0
 23 32  1  0  0  0  0
 23 24  1  0  0  0  0
 25 24  2  0  0  0  0
 25 21  1  0  0  0  0
 26 30  2  0  0  0  0
 27 29  1  0  0  0  0
 27 28  2  0  0  0  0
 28 25  1  0  0  0  0
 29 23  2  0  0  0  0
 30 31  1  0  0  0  0
 31 21  1  0  0  0  0
 32 33  1  0  0  0  0
 34 32  2  0  0  0  0
M  END
>  <MODEL>
2

>  <REMARK>
 VINA RESULT:      -8.5      2.011      2.824
  Name = 
  5 active torsions:
  status: ('A' for Active; 'I' for Inactive)
    1  A    between atoms: C_1  and  C_8
    2  A    between atoms: C_3  and  C_25
    3  A    between atoms: C_6  and  S_17
    4  A    between atoms: C_7  and  C_11
    5  A    between atoms: C_8  and  S_17
                            x       y       z     vdW  Elec       q    Type
                         _______ _______ _______ _____ _____    ______ ____

>  <TORSDO>
F 5

$$$$
=
 OpenBabel10272415233D

 34 38  0  0  1  0  0  0  0  0999 V2000
  189.3290  176.0970  138.2190 C   0  0  2  0  0  3  0  0  0  0  0  0
  188.0890  178.0580  135.0360 C   0  0  0  0  0  2  0  0  0  0  0  0
  190.3420  176.7490  135.4330 C   0  0  0  0  0  2  0  0  0  0  0  0
  191.4790  174.7530  138.2210 N   0  0  0  0  0  2  0  0  0  0  0  0
  192.7120  174.8910  137.4540 C   0  0  0  0  0  2  0  0  0  0  0  0
  191.1680  176.5060  136.6330 N   0  0  1  0  0  0  0  0  0  0  0  0
  190.4910  175.4820  137.4260 C   0  0  2  0  0  3  0  0  0  0  0  0
  192.4240  175.8550  136.3060 C   0  0  0  0  0  2  0  0  0  0  0  0
  186.6010  178.0360  135.4180 C   0  0  0  0  0  2  0  0  0  0  0  0
  186.1710  176.6300  135.9100 C   0  0  1  0  0  3  0  0  0  0  0  0
  186.9850  174.6420  137.2170 C   0  0  0  0  0  1  0  0  0  0  0  0
  188.8540  176.9660  135.7860 C   0  0  1  0  0  3  0  0  0  0  0  0
  186.9400  176.1680  137.1810 C   0  0  1  0  0  3  0  0  0  0  0  0
  188.3530  176.7960  137.2380 C   0  0  1  0  0  3  0  0  0  0  0  0
  184.6510  176.4610  136.0140 C   0  0  1  0  0  3  0  0  0  0  0  0
  184.0900  177.0400  137.3050 C   0  0  0  0  0  1  0  0  0  0  0  0
  184.0080  177.0500  134.9140 O   0  0  0  0  0  1  0  0  0  0  0  0
  189.6580  177.0100  139.4240 C   0  0  1  0  0  3  0  0  0  0  0  0
  189.1030  178.4090  139.2040 C   0  0  0  0  0  1  0  0  0  0  0  0
  189.2340  176.3510  141.0920 S   0  0  0  0  0  0  0  0  0  0  0  0
  188.6850  177.6510  144.9880 C   0  0  0  0  0  2  0  0  0  0  0  0
  189.2040  177.9490  142.0440 C   0  0  1  0  0  3  0  0  0  0  0  0
  185.2530  178.5930  143.6930 C   0  0  0  0  0  0  0  0  0  0  0  0
  186.3010  178.2130  144.5370 C   0  0  0  0  0  3  0  0  0  0  0  0
  187.6010  178.0300  144.0280 C   0  0  0  0  0  0  0  0  0  0  0  0
  191.4720  178.3530  142.6900 O   0  0  0  0  0  0  0  0  0  0  0  0
  186.7890  178.5880  141.8130 C   0  0  0  0  0  3  0  0  0  0  0  0
  187.8440  178.1910  142.6440 C   0  0  0  0  0  0  0  0  0  0  0  0
  185.5090  178.8070  142.3350 C   0  0  0  0  0  3  0  0  0  0  0  0
  190.2920  178.1220  143.0710 C   0  0  0  0  0  0  0  0  0  0  0  0
  190.0080  178.0240  144.4760 N   0  0  0  0  0  2  0  0  0  0  0  0
  183.8930  178.7350  144.2320 C   0  0  0  0  0  0  0  0  0  0  0  0
  183.7000  178.9790  145.5940 O   0  0  0  0  0  1  0  0  0  0  0  0
  182.9020  178.6120  143.4620 O   0  0  0  0  0  0  0  0  0  0  0  0
  1 18  1  1  0  0  0
  2  9  1  0  0  0  0
  3 12  1  0  0  0  0
  5  4  1  0  0  0  0
  6  3  1  6  0  0  0
  6  7  1  0  0  0  0
  7  1  1  0  0  0  0
  7  4  1  1  0  0  0
  8  6  1  0  0  0  0
  8  5  1  0  0  0  0
  9 10  1  0  0  0  0
 10 15  1  1  0  0  0
 10 13  1  0  0  0  0
 12  2  1  1  0  0  0
 12 14  1  0  0  0  0
 13 11  1  6  0  0  0
 13 14  1  0  0  0  0
 14  1  1  0  0  0  0
 15 16  1  0  0  0  0
 17 15  1  0  0  0  0
 18 20  1  0  0  0  0
 19 18  1  0  0  0  0
 20 22  1  0  0  0  0
 22 28  1  0  0  0  0
 22 30  1  0  0  0  0
 23 32  1  0  0  0  0
 23 24  1  0  0  0  0
 25 24  2  0  0  0  0
 25 21  1  0  0  0  0
 26 30  2  0  0  0  0
 27 29  1  0  0  0  0
 27 28  2  0  0  0  0
 28 25  1  0  0  0  0
 29 23  2  0  0  0  0
 30 31  1  0  0  0  0
 31 21  1  0  0  0  0
 32 33  1  0  0  0  0
 34 32  2  0  0  0  0
M  END
>  <MODEL>
3

>  <REMARK>
 VINA RESULT:      -7.9      3.130      5.443
  Name = 
  5 active torsions:
  status: ('A' for Active; 'I' for Inactive)
    1  A    between atoms: C_1  and  C_8
    2  A    between atoms: C_3  and  C_25
    3  A    between atoms: C_6  and  S_17
    4  A    between atoms: C_7  and  C_11
    5  A    between atoms: C_8  and  S_17
                            x       y       z     vdW  Elec       q    Type
                         _______ _______ _______ _____ _____    ______ ____

>  <TORSDO>
F 5

$$$$
=
 OpenBabel10272415233D

 34 38  0  0  1  0  0  0  0  0999 V2000
  183.4770  177.6300  138.0300 C   0  0  2  0  0  3  0  0  0  0  0  0
  182.3860  175.3360  135.0200 C   0  0  0  0  0  2  0  0  0  0  0  0
  184.7540  176.3390  135.5970 C   0  0  0  0  0  2  0  0  0  0  0  0
  185.8980  178.2680  138.4290 N   0  0  0  0  0  2  0  0  0  0  0  0
  187.0290  178.4090  137.5180 C   0  0  0  0  0  2  0  0  0  0  0  0
  185.1860  177.5880  136.2570 N   0  0  1  0  0  0  0  0  0  0  0  0
  184.9610  177.4220  137.6910 C   0  0  2  0  0  3  0  0  0  0  0  0
  186.6240  177.7670  136.1940 C   0  0  0  0  0  2  0  0  0  0  0  0
  181.1040  174.8130  135.6880 C   0  0  0  0  0  2  0  0  0  0  0  0
  181.3680  174.4080  137.1610 C   0  0  1  0  0  3  0  0  0  0  0  0
  182.6880  175.0560  139.2000 C   0  0  0  0  0  1  0  0  0  0  0  0
  183.3540  175.8870  136.0690 C   0  0  1  0  0  3  0  0  0  0  0  0
  181.8500  175.5950  138.0430 C   0  0  1  0  0  3  0  0  0  0  0  0
  182.6200  176.6400  137.2000 C   0  0  1  0  0  3  0  0  0  0  0  0
  180.2220  173.6030  137.7840 C   0  0  1  0  0  3  0  0  0  0  0  0
  180.4820  172.1030  137.7500 C   0  0  0  0  0  1  0  0  0  0  0  0
  179.9880  174.0100  139.1060 O   0  0  0  0  0  1  0  0  0  0  0  0
  182.8970  179.0630  137.9640 C   0  0  1  0  0  3  0  0  0  0  0  0
  181.6290  179.0890  137.1240 C   0  0  0  0  0  1  0  0  0  0  0  0
  182.6820  179.9350  139.5720 S   0  0  0  0  0  0  0  0  0  0  0  0
  181.0850  179.1660  143.3180 C   0  0  0  0  0  2  0  0  0  0  0  0
  182.2830  178.4730  140.6510 C   0  0  1  0  0  3  0  0  0  0  0  0
  184.7150  178.5930  144.2310 C   0  0  0  0  0  0  0  0  0  0  0  0
  183.3550  178.9090  144.3080 C   0  0  0  0  0  3  0  0  0  0  0  0
  182.5380  178.8440  143.1640 C   0  0  0  0  0  0  0  0  0  0  0  0
  180.0610  177.8190  140.0500 O   0  0  0  0  0  0  0  0  0  0  0  0
  184.4640  178.1680  141.8540 C   0  0  0  0  0  3  0  0  0  0  0  0
  183.1040  178.4980  141.9140 C   0  0  0  0  0  0  0  0  0  0  0  0
  185.2590  178.1950  143.0050 C   0  0  0  0  0  3  0  0  0  0  0  0
  180.8240  178.2590  140.9540 C   0  0  0  0  0  0  0  0  0  0  0  0
  180.2840  178.5520  142.2530 N   0  0  0  0  0  2  0  0  0  0  0  0
  185.5630  178.7090  145.4270 C   0  0  0  0  0  0  0  0  0  0  0  0
  185.0260  179.1860  146.6240 O   0  0  0  0  0  1  0  0  0  0  0  0
  186.7830  178.3980  145.3560 O   0  0  0  0  0  0  0  0  0  0  0  0
  1 18  1  6  0  0  0
  2  9  1  0  0  0  0
  3 12  1  0  0  0  0
  5  4  1  0  0  0  0
  6  3  1  6  0  0  0
  6  7  1  0  0  0  0
  7  1  1  0  0  0  0
  7  4  1  1  0  0  0
  8  6  1  0  0  0  0
  8  5  1  0  0  0  0
  9 10  1  0  0  0  0
 10 15  1  1  0  0  0
 10 13  1  0  0  0  0
 12  2  1  6  0  0  0
 12 14  1  0  0  0  0
 13 11  1  1  0  0  0
 14  1  1  0  0  0  0
 14 13  1  0  0  0  0
 15 17  1  0  0  0  0
 16 15  1  0  0  0  0
 18 20  1  0  0  0  0
 19 18  1  0  0  0  0
 20 22  1  0  0  0  0
 22 30  1  0  0  0  0
 22 28  1  0  0  0  0
 23 24  1  0  0  0  0
 23 32  1  0  0  0  0
 25 21  1  0  0  0  0
 25 24  2  0  0  0  0
 26 30  2  0  0  0  0
 27 28  2  0  0  0  0
 27 29  1  0  0  0  0
 28 25  1  0  0  0  0
 29 23  2  0  0  0  0
 30 31  1  0  0  0  0
 31 21  1  0  0  0  0
 32 33  1  0  0  0  0
 34 32  2  0  0  0  0
M  END
>  <MODEL>
4

>  <REMARK>
 VINA RESULT:      -7.4      3.269      5.512
  Name = 
  5 active torsions:
  status: ('A' for Active; 'I' for Inactive)
    1  A    between atoms: C_1  and  C_8
    2  A    between atoms: C_3  and  C_25
    3  A    between atoms: C_6  and  S_17
    4  A    between atoms: C_7  and  C_11
    5  A    between atoms: C_8  and  S_17
                            x       y       z     vdW  Elec       q    Type
                         _______ _______ _______ _____ _____    ______ ____

>  <TORSDO>
F 5

$$$$
=
 OpenBabel10272415233D

 34 38  0  0  1  0  0  0  0  0999 V2000
  182.5000  178.6150  139.2430 C   0  0  2  0  0  3  0  0  0  0  0  0
  180.4540  175.7500  137.4770 C   0  0  0  0  0  2  0  0  0  0  0  0
  180.2210  178.3660  137.2530 C   0  0  0  0  0  2  0  0  0  0  0  0
  182.1740  181.0610  138.6600 N   0  0  0  0  0  2  0  0  0  0  0  0
  181.0230  181.7910  138.1390 C   0  0  0  0  0  2  0  0  0  0  0  0
  180.4470  179.4820  138.1950 N   0  0  1  0  0  0  0  0  0  0  0  0
  181.8920  179.6700  138.3070 C   0  0  2  0  0  3  0  0  0  0  0  0
  180.0180  180.7540  137.6430 C   0  0  0  0  0  2  0  0  0  0  0  0
  181.5010  174.6510  137.7150 C   0  0  0  0  0  2  0  0  0  0  0  0
  182.9280  175.1580  137.3850 C   0  0  1  0  0  3  0  0  0  0  0  0
  184.3990  177.1940  137.5140 C   0  0  0  0  0  1  0  0  0  0  0  0
  181.0920  177.1370  137.5900 C   0  0  1  0  0  3  0  0  0  0  0  0
  183.3680  176.3590  138.2700 C   0  0  1  0  0  3  0  0  0  0  0  0
  182.1480  177.2000  138.7170 C   0  0  1  0  0  3  0  0  0  0  0  0
  183.9690  174.0360  137.3080 C   0  0  1  0  0  3  0  0  0  0  0  0
  183.3320  172.6670  137.1150 C   0  0  0  0  0  1  0  0  0  0  0  0
  184.8870  174.2780  136.2740 O   0  0  0  0  0  1  0  0  0  0  0  0
  182.2270  178.7300  140.7620 C   0  0  1  0  0  3  0  0  0  0  0  0
  180.7510  178.5150  141.0580 C   0  0  0  0  0  1  0  0  0  0  0  0
  183.3090  177.7300  141.8670 S   0  0  0  0  0  0  0  0  0  0  0  0
  187.4470  177.7090  142.1030 C   0  0  0  0  0  2  0  0  0  0  0  0
  184.7050  178.9390  142.0900 C   0  0  1  0  0  3  0  0  0  0  0  0
  186.7690  178.1190  145.8060 C   0  0  0  0  0  0  0  0  0  0  0  0
  187.3730  177.7820  144.5910 C   0  0  0  0  0  3  0  0  0  0  0  0
  186.7350  178.0690  143.3690 C   0  0  0  0  0  0  0  0  0  0  0  0
  185.2690  179.6800  139.8860 O   0  0  0  0  0  0  0  0  0  0  0  0
  184.8670  179.0150  144.5930 C   0  0  0  0  0  3  0  0  0  0  0  0
  185.4520  178.6660  143.3690 C   0  0  0  0  0  0  0  0  0  0  0  0
  185.5270  178.7620  145.8000 C   0  0  0  0  0  3  0  0  0  0  0  0
  185.6490  179.0730  140.9250 C   0  0  0  0  0  0  0  0  0  0  0  0
  186.9740  178.5190  140.9740 N   0  0  0  0  0  2  0  0  0  0  0  0
  187.4290  177.7710  147.0740 C   0  0  0  0  0  0  0  0  0  0  0  0
  188.3920  176.7600  147.1090 O   0  0  0  0  0  0  0  0  0  0  0  0
  187.1020  178.3760  148.1310 O   0  0  0  0  0  1  0  0  0  0  0  0
  1 18  1  1  0  0  0
  2 12  1  0  0  0  0
  2  9  1  0  0  0  0
  5  4  1  0  0  0  0
  6  3  1  6  0  0  0
  6  7  1  0  0  0  0
  7  4  1  1  0  0  0
  7  1  1  0  0  0  0
  8  5  1  0  0  0  0
  8  6  1  0  0  0  0
 10 15  1  1  0  0  0
 10  9  1  0  0  0  0
 10 13  1  0  0  0  0
 12  3  1  1  0  0  0
 12 14  1  0  0  0  0
 13 11  1  6  0  0  0
 13 14  1  0  0  0  0
 14  1  1  0  0  0  0
 16 15  1  0  0  0  0
 17 15  1  0  0  0  0
 18 19  1  0  0  0  0
 18 20  1  0  0  0  0
 20 22  1  0  0  0  0
 21 25  1  0  0  0  0
 22 28  1  0  0  0  0
 23 32  1  0  0  0  0
 24 23  2  0  0  0  0
 25 28  2  0  0  0  0
 25 24  1  0  0  0  0
 26 30  2  0  0  0  0
 27 29  2  0  0  0  0
 28 27  1  0  0  0  0
 29 23  1  0  0  0  0
 30 31  1  0  0  0  0
 30 22  1  0  0  0  0
 31 21  1  0  0  0  0
 32 33  2  0  0  0  0
 32 34  1  0  0  0  0
M  END
>  <MODEL>
5

>  <REMARK>
 VINA RESULT:      -7.3      3.135      4.647
  Name = 
  5 active torsions:
  status: ('A' for Active; 'I' for Inactive)
    1  A    between atoms: C_1  and  C_8
    2  A    between atoms: C_3  and  C_25
    3  A    between atoms: C_6  and  S_17
    4  A    between atoms: C_7  and  C_11
    5  A    between atoms: C_8  and  S_17
                            x       y       z     vdW  Elec       q    Type
                         _______ _______ _______ _____ _____    ______ ____

>  <TORSDO>
F 5

$$$$
=
 OpenBabel10272415233D

 34 38  0  0  1  0  0  0  0  0999 V2000
  190.6720  176.3460  136.4930 C   0  0  2  0  0  3  0  0  0  0  0  0
  193.5890  173.9300  137.5730 C   0  0  0  0  0  2  0  0  0  0  0  0
  191.0850  173.3760  136.9650 C   0  0  0  0  0  2  0  0  0  0  0  0
  188.4030  175.4800  135.7660 N   0  0  0  0  0  2  0  0  0  0  0  0
  187.6750  174.2610  136.1030 C   0  0  0  0  0  2  0  0  0  0  0  0
  189.8200  174.1230  137.1240 N   0  0  1  0  0  0  0  0  0  0  0  0
  189.7920  175.1540  136.0890 C   0  0  2  0  0  3  0  0  0  0  0  0
  188.6640  173.3160  136.7790 C   0  0  0  0  0  2  0  0  0  0  0  0
  194.7250  174.9020  137.2240 C   0  0  0  0  0  2  0  0  0  0  0  0
  194.4870  175.5660  135.8430 C   0  0  1  0  0  3  0  0  0  0  0  0
  192.6740  176.4620  134.3490 C   0  0  0  0  0  1  0  0  0  0  0  0
  192.3030  174.3160  136.8390 C   0  0  1  0  0  3  0  0  0  0  0  0
  193.1800  176.4080  135.7890 C   0  0  1  0  0  3  0  0  0  0  0  0
  192.1150  175.8480  136.7630 C   0  0  1  0  0  3  0  0  0  0  0  0
  195.7180  176.3040  135.3040 C   0  0  1  0  0  3  0  0  0  0  0  0
  195.5700  177.8170  135.3910 C   0  0  0  0  0  1  0  0  0  0  0  0
  196.8780  175.9040  135.9850 O   0  0  0  0  0  1  0  0  0  0  0  0
  190.1810  177.2760  137.6270 C   0  0  1  0  0  3  0  0  0  0  0  0
  189.3570  178.4230  137.0610 C   0  0  0  0  0  1  0  0  0  0  0  0
  189.3450  176.4600  139.0520 S   0  0  0  0  0  0  0  0  0  0  0  0
  190.0020  176.4330  143.1440 C   0  0  0  0  0  2  0  0  0  0  0  0
  189.8320  177.6460  140.4000 C   0  0  1  0  0  3  0  0  0  0  0  0
  186.5810  178.0530  143.2310 C   0  0  0  0  0  0  0  0  0  0  0  0
  187.7190  177.3220  143.5850 C   0  0  0  0  0  3  0  0  0  0  0  0
  188.8020  177.2040  142.6940 C   0  0  0  0  0  0  0  0  0  0  0  0
  192.2240  177.6080  140.4560 O   0  0  0  0  0  0  0  0  0  0  0  0
  187.5860  178.5390  141.0750 C   0  0  0  0  0  3  0  0  0  0  0  0
  188.7240  177.7950  141.4100 C   0  0  0  0  0  0  0  0  0  0  0  0
  186.5320  178.6840  141.9830 C   0  0  0  0  0  3  0  0  0  0  0  0
  191.1500  177.3690  141.0740 C   0  0  0  0  0  0  0  0  0  0  0  0
  191.2050  176.8350  142.4060 N   0  0  0  0  0  2  0  0  0  0  0  0
  185.4410  178.1290  144.1560 C   0  0  0  0  0  0  0  0  0  0  0  0
  184.1630  178.4130  143.6720 O   0  0  0  0  0  0  0  0  0  0  0  0
  185.6300  177.9590  145.3920 O   0  0  0  0  0  1  0  0  0  0  0  0
  1 14  1  0  0  0  0
  1 18  1  1  0  0  0
  3  6  1  0  0  0  0
  4  5  1  0  0  0  0
  5  8  1  0  0  0  0
  6  8  1  6  0  0  0
  7  4  1  1  0  0  0
  7  1  1  0  0  0  0
  7  6  1  0  0  0  0
  9  2  1  0  0  0  0
 10 15  1  1  0  0  0
 10  9  1  0  0  0  0
 12  3  1  1  0  0  0
 12  2  1  0  0  0  0
 13 11  1  6  0  0  0
 13 10  1  0  0  0  0
 13 14  1  0  0  0  0
 14 12  1  0  0  0  0
 15 16  1  0  0  0  0
 15 17  1  0  0  0  0
 18 20  1  0  0  0  0
 19 18  1  0  0  0  0
 20 22  1  0  0  0  0
 22 30  1  0  0  0  0
 22 28  1  0  0  0  0
 23 24  1  0  0  0  0
 23 32  1  0  0  0  0
 25 21  1  0  0  0  0
 25 24  2  0  0  0  0
 26 30  2  0  0  0  0
 27 28  2  0  0  0  0
 27 29  1  0  0  0  0
 28 25  1  0  0  0  0
 29 23  2  0  0  0  0
 30 31  1  0  0  0  0
 31 21  1  0  0  0  0
 32 34  1  0  0  0  0
 33 32  2  0  0  0  0
M  END
>  <MODEL>
6

>  <REMARK>
 VINA RESULT:      -7.3      3.389      5.750
  Name = 
  5 active torsions:
  status: ('A' for Active; 'I' for Inactive)
    1  A    between atoms: C_1  and  C_8
    2  A    between atoms: C_3  and  C_25
    3  A    between atoms: C_6  and  S_17
    4  A    between atoms: C_7  and  C_11
    5  A    between atoms: C_8  and  S_17
                            x       y       z     vdW  Elec       q    Type
                         _______ _______ _______ _____ _____    ______ ____

>  <TORSDO>
F 5

$$$$
=
 OpenBabel10272415233D

 34 38  0  0  1  0  0  0  0  0999 V2000
  189.2830  175.9900  138.1020 C   0  0  2  0  0  3  0  0  0  0  0  0
  187.9950  177.9070  134.9120 C   0  0  0  0  0  2  0  0  0  0  0  0
  190.2630  176.6200  135.2980 C   0  0  0  0  0  2  0  0  0  0  0  0
  191.4440  174.6620  138.0960 N   0  0  0  0  0  2  0  0  0  0  0  0
  192.6680  174.8010  137.3140 C   0  0  0  0  0  2  0  0  0  0  0  0
  191.1030  176.3950  136.4930 N   0  0  1  0  0  0  0  0  0  0  0  0
  190.4430  175.3750  137.3030 C   0  0  2  0  0  3  0  0  0  0  0  0
  192.3600  175.7510  136.1600 C   0  0  0  0  0  2  0  0  0  0  0  0
  186.5120  177.8780  135.3090 C   0  0  0  0  0  2  0  0  0  0  0  0
  186.0980  176.4740  135.8200 C   0  0  1  0  0  3  0  0  0  0  0  0
  186.9410  174.5060  137.1390 C   0  0  0  0  0  1  0  0  0  0  0  0
  188.7770  176.8280  135.6650 C   0  0  1  0  0  3  0  0  0  0  0  0
  186.8840  176.0310  137.0880 C   0  0  1  0  0  3  0  0  0  0  0  0
  188.2930  176.6710  137.1240 C   0  0  1  0  0  3  0  0  0  0  0  0
  184.5810  176.2940  135.9420 C   0  0  1  0  0  3  0  0  0  0  0  0
  184.0650  176.6440  137.3310 C   0  0  0  0  0  1  0  0  0  0  0  0
  183.9090  177.0660  134.9810 O   0  0  0  0  0  1  0  0  0  0  0  0
  189.6180  176.9170  139.2940 C   0  0  1  0  0  3  0  0  0  0  0  0
  188.9260  178.2620  139.1360 C   0  0  0  0  0  1  0  0  0  0  0  0
  189.3790  176.2080  140.9770 S   0  0  0  0  0  0  0  0  0  0  0  0
  191.0000  176.9750  144.7130 C   0  0  0  0  0  2  0  0  0  0  0  0
  189.9250  177.6670  141.9940 C   0  0  1  0  0  3  0  0  0  0  0  0
  187.4460  177.9940  145.5280 C   0  0  0  0  0  0  0  0  0  0  0  0
  188.7600  177.5320  145.6460 C   0  0  0  0  0  3  0  0  0  0  0  0
  189.5950  177.4490  144.5160 C   0  0  0  0  0  0  0  0  0  0  0  0
  192.2140  178.0380  141.4060 O   0  0  0  0  0  0  0  0  0  0  0  0
  187.7760  178.2720  143.1400 C   0  0  0  0  0  3  0  0  0  0  0  0
  189.0890  177.7950  143.2410 C   0  0  0  0  0  0  0  0  0  0  0  0
  186.9670  178.3900  144.2750 C   0  0  0  0  0  3  0  0  0  0  0  0
  191.3950  177.7300  142.3150 C   0  0  0  0  0  0  0  0  0  0  0  0
  191.8800  177.4430  143.6360 N   0  0  0  0  0  2  0  0  0  0  0  0
  186.5730  178.0320  146.7120 C   0  0  0  0  0  0  0  0  0  0  0  0
  185.1870  178.1110  146.5590 O   0  0  0  0  0  0  0  0  0  0  0  0
  187.0860  178.0160  147.8640 O   0  0  0  0  0  1  0  0  0  0  0  0
  1 18  1  1  0  0  0
  2  9  1  0  0  0  0
  3 12  1  0  0  0  0
  5  4  1  0  0  0  0
  6  3  1  6  0  0  0
  6  7  1  0  0  0  0
  7  4  1  1  0  0  0
  7  1  1  0  0  0  0
  8  6  1  0  0  0  0
  8  5  1  0  0  0  0
  9 10  1  0  0  0  0
 10 15  1  1  0  0  0
 10 13  1  0  0  0  0
 12  2  1  1  0  0  0
 12 14  1  0  0  0  0
 13 14  1  0  0  0  0
 13 11  1  6  0  0  0
 14  1  1  0  0  0  0
 15 16  1  0  0  0  0
 17 15  1  0  0  0  0
 18 20  1  0  0  0  0
 19 18  1  0  0  0  0
 20 22  1  0  0  0  0
 22 30  1  0  0  0  0
 22 28  1  0  0  0  0
 23 24  1  0  0  0  0
 23 32  1  0  0  0  0
 25 21  1  0  0  0  0
 25 24  2  0  0  0  0
 26 30  2  0  0  0  0
 27 28  2  0  0  0  0
 27 29  1  0  0  0  0
 28 25  1  0  0  0  0
 29 23  2  0  0  0  0
 30 31  1  0  0  0  0
 31 21  1  0  0  0  0
 32 34  1  0  0  0  0
 33 32  2  0  0  0  0
M  END
>  <MODEL>
7

>  <REMARK>
 VINA RESULT:      -7.1      3.318      5.410
  Name = 
  5 active torsions:
  status: ('A' for Active; 'I' for Inactive)
    1  A    between atoms: C_1  and  C_8
    2  A    between atoms: C_3  and  C_25
    3  A    between atoms: C_6  and  S_17
    4  A    between atoms: C_7  and  C_11
    5  A    between atoms: C_8  and  S_17
                            x       y       z     vdW  Elec       q    Type
                         _______ _______ _______ _____ _____    ______ ____

>  <TORSDO>
F 5

$$$$
=
 OpenBabel10272415233D

 34 38  0  0  1  0  0  0  0  0999 V2000
  189.6780  177.0300  136.3240 C   0  0  2  0  0  3  0  0  0  0  0  0
  190.3180  173.1440  136.4230 C   0  0  0  0  0  2  0  0  0  0  0  0
  188.1670  174.4760  135.6830 C   0  0  0  0  0  2  0  0  0  0  0  0
  187.5540  178.0210  135.3590 N   0  0  0  0  0  2  0  0  0  0  0  0
  186.2000  177.4900  135.2390 C   0  0  0  0  0  2  0  0  0  0  0  0
  187.5780  175.7600  136.1160 N   0  0  1  0  0  0  0  0  0  0  0  0
  188.3810  176.8270  135.5250 C   0  0  2  0  0  3  0  0  0  0  0  0
  186.2770  175.9910  135.5160 C   0  0  0  0  0  2  0  0  0  0  0  0
  191.8510  173.2460  136.4370 C   0  0  0  0  0  2  0  0  0  0  0  0
  192.3520  174.2780  135.3940 C   0  0  1  0  0  3  0  0  0  0  0  0
  191.7790  176.4910  134.3460 C   0  0  0  0  0  1  0  0  0  0  0  0
  189.6960  174.4380  135.8930 C   0  0  1  0  0  3  0  0  0  0  0  0
  191.8300  175.7190  135.6620 C   0  0  1  0  0  3  0  0  0  0  0  0
  190.4590  175.6920  136.3790 C   0  0  1  0  0  3  0  0  0  0  0  0
  193.8630  174.2060  135.1450 C   0  0  1  0  0  3  0  0  0  0  0  0
  194.6720  174.6090  136.3700 C   0  0  0  0  0  1  0  0  0  0  0  0
  194.2390  172.9180  134.7340 O   0  0  0  0  0  1  0  0  0  0  0  0
  189.5890  177.6820  137.7240 C   0  0  1  0  0  3  0  0  0  0  0  0
  188.9650  179.0660  137.6310 C   0  0  0  0  0  1  0  0  0  0  0  0
  188.8220  176.6650  139.0550 S   0  0  0  0  0  0  0  0  0  0  0  0
  189.2090  176.1870  143.1540 C   0  0  0  0  0  2  0  0  0  0  0  0
  189.3690  177.6510  140.5350 C   0  0  1  0  0  3  0  0  0  0  0  0
  186.0240  178.2330  143.2210 C   0  0  0  0  0  0  0  0  0  0  0  0
  187.0350  177.3290  143.5610 C   0  0  0  0  0  3  0  0  0  0  0  0
  188.1490  177.1480  142.7190 C   0  0  0  0  0  0  0  0  0  0  0  0
  191.7290  177.2910  140.7090 O   0  0  0  0  0  0  0  0  0  0  0  0
  187.2170  178.7700  141.1760 C   0  0  0  0  0  3  0  0  0  0  0  0
  188.2280  177.8550  141.4960 C   0  0  0  0  0  0  0  0  0  0  0  0
  186.1350  178.9730  142.0390 C   0  0  0  0  0  3  0  0  0  0  0  0
  190.5960  177.1430  141.2450 C   0  0  0  0  0  0  0  0  0  0  0  0
  190.4980  176.4900  142.5210 N   0  0  0  0  0  2  0  0  0  0  0  0
  184.8470  178.3770  144.0900 C   0  0  0  0  0  0  0  0  0  0  0  0
  185.0030  178.4590  145.4750 O   0  0  0  0  0  1  0  0  0  0  0  0
  183.6950  178.4010  143.5770 O   0  0  0  0  0  0  0  0  0  0  0  0
  1 14  1  0  0  0  0
  1 18  1  1  0  0  0
  2  9  1  0  0  0  0
  3  6  1  0  0  0  0
  5  4  1  0  0  0  0
  5  8  1  0  0  0  0
  6  8  1  6  0  0  0
  7  4  1  1  0  0  0
  7  6  1  0  0  0  0
  7  1  1  0  0  0  0
 10 15  1  1  0  0  0
 10 13  1  0  0  0  0
 10  9  1  0  0  0  0
 12  3  1  1  0  0  0
 12 14  1  0  0  0  0
 12  2  1  0  0  0  0
 13 11  1  6  0  0  0
 13 14  1  0  0  0  0
 15 16  1  0  0  0  0
 17 15  1  0  0  0  0
 18 20  1  0  0  0  0
 19 18  1  0  0  0  0
 20 22  1  0  0  0  0
 22 30  1  0  0  0  0
 22 28  1  0  0  0  0
 23 24  1  0  0  0  0
 23 32  1  0  0  0  0
 25 21  1  0  0  0  0
 25 24  2  0  0  0  0
 26 30  2  0  0  0  0
 27 28  2  0  0  0  0
 27 29  1  0  0  0  0
 28 25  1  0  0  0  0
 29 23  2  0  0  0  0
 30 31  1  0  0  0  0
 31 21  1  0  0  0  0
 32 33  1  0  0  0  0
 34 32  2  0  0  0  0
M  END
>  <MODEL>
8

>  <REMARK>
 VINA RESULT:      -7.1      3.038      4.757
  Name = 
  5 active torsions:
  status: ('A' for Active; 'I' for Inactive)
    1  A    between atoms: C_1  and  C_8
    2  A    between atoms: C_3  and  C_25
    3  A    between atoms: C_6  and  S_17
    4  A    between atoms: C_7  and  C_11
    5  A    between atoms: C_8  and  S_17
                            x       y       z     vdW  Elec       q    Type
                         _______ _______ _______ _____ _____    ______ ____

>  <TORSDO>
F 5

$$$$
=
 OpenBabel10272415233D

 34 38  0  0  1  0  0  0  0  0999 V2000
  184.6180  176.0030  137.5030 C   0  0  2  0  0  3  0  0  0  0  0  0
  181.3770  177.6490  135.9850 C   0  0  0  0  0  2  0  0  0  0  0  0
  182.0080  175.1020  136.2390 C   0  0  0  0  0  2  0  0  0  0  0  0
  184.8440  173.4940  137.7980 N   0  0  0  0  0  2  0  0  0  0  0  0
  184.2440  172.3740  137.0820 C   0  0  0  0  0  2  0  0  0  0  0  0
  183.2940  174.3750  136.2130 N   0  0  1  0  0  0  0  0  0  0  0  0
  183.9560  174.6160  137.4930 C   0  0  2  0  0  3  0  0  0  0  0  0
  183.1060  172.9360  136.2350 C   0  0  0  0  0  2  0  0  0  0  0  0
  181.5660  179.0100  136.6720 C   0  0  0  0  0  2  0  0  0  0  0  0
  181.9470  178.8340  138.1640 C   0  0  1  0  0  3  0  0  0  0  0  0
  183.2730  177.3730  139.7240 C   0  0  0  0  0  1  0  0  0  0  0  0
  182.1770  176.5630  136.7090 C   0  0  1  0  0  3  0  0  0  0  0  0
  183.2870  178.0700  138.3650 C   0  0  1  0  0  3  0  0  0  0  0  0
  183.5470  177.0820  137.2030 C   0  0  1  0  0  3  0  0  0  0  0  0
  181.8510  180.1330  138.9730 C   0  0  1  0  0  3  0  0  0  0  0  0
  181.4960  181.3320  138.1040 C   0  0  0  0  0  1  0  0  0  0  0  0
  180.9110  180.0060  140.0080 O   0  0  0  0  0  1  0  0  0  0  0  0
  185.8880  176.2220  136.6470 C   0  0  1  0  0  3  0  0  0  0  0  0
  186.0890  177.7010  136.3580 C   0  0  0  0  0  1  0  0  0  0  0  0
  187.4310  175.4160  137.2490 S   0  0  0  0  0  0  0  0  0  0  0  0
  191.2300  176.4160  138.5690 C   0  0  0  0  0  2  0  0  0  0  0  0
  188.5250  176.9170  137.3610 C   0  0  1  0  0  3  0  0  0  0  0  0
  189.3230  177.8360  141.5160 C   0  0  0  0  0  0  0  0  0  0  0  0
  190.3290  177.2710  140.7270 C   0  0  0  0  0  3  0  0  0  0  0  0
  190.1030  176.9940  139.3650 C   0  0  0  0  0  0  0  0  0  0  0  0
  189.6970  177.0130  135.2770 O   0  0  0  0  0  0  0  0  0  0  0  0
  187.8390  177.8330  139.5940 C   0  0  0  0  0  3  0  0  0  0  0  0
  188.8330  177.2500  138.7970 C   0  0  0  0  0  0  0  0  0  0  0  0
  188.0870  178.1420  140.9360 C   0  0  0  0  0  3  0  0  0  0  0  0
  189.7790  176.8780  136.5290 C   0  0  0  0  0  0  0  0  0  0  0  0
  191.0670  176.6870  137.1360 N   0  0  0  0  0  2  0  0  0  0  0  0
  189.5610  178.0770  142.9470 C   0  0  0  0  0  0  0  0  0  0  0  0
  190.7130  178.7470  143.3630 O   0  0  0  0  0  0  0  0  0  0  0  0
  188.7300  177.6530  143.7960 O   0  0  0  0  0  1  0  0  0  0  0  0
  1 18  1  6  0  0  0
  2  9  1  0  0  0  0
  3 12  1  0  0  0  0
  5  4  1  0  0  0  0
  6  8  1  1  0  0  0
  6  3  1  0  0  0  0
  6  7  1  0  0  0  0
  7  1  1  0  0  0  0
  7  4  1  6  0  0  0
  8  5  1  0  0  0  0
  9 10  1  0  0  0  0
 10 13  1  0  0  0  0
 10 15  1  6  0  0  0
 12  2  1  6  0  0  0
 12 14  1  0  0  0  0
 13 11  1  1  0  0  0
 14  1  1  0  0  0  0
 14 13  1  0  0  0  0
 15 17  1  0  0  0  0
 16 15  1  0  0  0  0
 18 20  1  0  0  0  0
 19 18  1  0  0  0  0
 20 22  1  0  0  0  0
 21 25  1  0  0  0  0
 22 28  1  0  0  0  0
 23 32  1  0  0  0  0
 24 23  2  0  0  0  0
 25 24  1  0  0  0  0
 26 30  2  0  0  0  0
 27 29  2  0  0  0  0
 28 25  2  0  0  0  0
 28 27  1  0  0  0  0
 29 23  1  0  0  0  0
 30 31  1  0  0  0  0
 30 22  1  0  0  0  0
 31 21  1  0  0  0  0
 32 33  2  0  0  0  0
 32 34  1  0  0  0  0
M  END
>  <MODEL>
9

>  <REMARK>
 VINA RESULT:      -7.0      3.499      6.869
  Name = 
  5 active torsions:
  status: ('A' for Active; 'I' for Inactive)
    1  A    between atoms: C_1  and  C_8
    2  A    between atoms: C_3  and  C_25
    3  A    between atoms: C_6  and  S_17
    4  A    between atoms: C_7  and  C_11
    5  A    between atoms: C_8  and  S_17
                            x       y       z     vdW  Elec       q    Type
                         _______ _______ _______ _____ _____    ______ ____

>  <TORSDO>
F 5

$$$$
