=
 OpenBabel10272414313D

 43 49  0  0  1  0  0  0  0  0999 V2000
  191.3240  176.2840  146.9260 C   0  0  0  0  0  0  0  0  0  0  0  0
  188.7020  177.8720  142.9230 C   0  0  0  0  0  0  0  0  0  0  0  0
  186.0860  178.3440  143.8630 C   0  0  0  0  0  0  0  0  0  0  0  0
  190.6880  176.9580  144.6610 C   0  0  1  0  0  3  0  0  0  0  0  0
  190.0990  176.5210  147.4080 C   0  0  0  0  0  3  0  0  0  0  0  0
  192.3930  175.7980  147.8380 C   0  0  0  0  0  1  0  0  0  0  0  0
  189.3280  177.2210  145.1540 C   0  0  0  0  0  0  0  0  0  0  0  0
  191.6280  176.5140  145.4980 C   0  0  0  0  0  3  0  0  0  0  0  0
  189.0550  176.9950  146.5450 N   0  0  0  0  0  0  0  0  0  0  0  0
  187.0870  177.8960  144.7390 C   0  0  0  0  0  3  0  0  0  0  0  0
  188.3890  177.6550  144.2930 C   0  0  0  0  0  0  0  0  0  0  0  0
  189.9430  177.6390  142.4620 C   0  0  0  0  0  3  0  0  0  0  0  0
  187.7050  178.3220  142.0400 C   0  0  0  0  0  0  0  0  0  0  0  0
  186.4090  178.5530  142.5190 C   0  0  0  0  0  3  0  0  0  0  0  0
  190.9580  177.1810  143.3130 O   0  0  0  0  0  0  0  0  0  0  0  0
  184.7050  178.5840  144.3440 C   0  0  0  0  0  0  0  0  0  0  0  0
  183.7200  178.8240  143.4700 C   0  0  0  0  0  3  0  0  0  0  0  0
  184.4180  178.5660  145.8150 C   0  0  0  0  0  1  0  0  0  0  0  0
  181.3200  179.1910  142.6810 C   0  0  2  0  0  3  0  0  0  0  0  0
  182.2930  179.0930  143.8630 C   0  0  1  0  0  3  0  0  0  0  0  0
  181.4210  177.9060  143.4880 C   0  0  0  0  0  2  0  0  0  0  0  0
  181.9840  179.0170  141.3950 N   0  0  0  0  0  2  0  0  0  0  0  0
  181.2130  178.0350  140.6470 C   0  0  0  0  0  2  0  0  0  0  0  0
  182.0310  178.2850  138.3040 C   0  0  0  0  0  3  0  0  0  0  0  0
  181.0760  178.4750  139.2230 C   0  0  0  0  0  3  0  0  0  0  0  0
  183.3400  177.6070  138.5970 C   0  0  2  0  0  3  0  0  0  0  0  0
  184.4140  178.6620  138.8400 C   0  0  0  0  0  1  0  0  0  0  0  0
  183.8300  175.3740  137.7690 C   0  0  0  0  0  0  0  0  0  0  0  0
  183.7130  176.6370  137.5040 C   0  0  0  0  0  0  0  0  0  0  0  0
  184.3150  177.0680  136.1770 C   0  0  0  0  0  2  0  0  0  0  0  0
  184.7050  173.6660  136.3730 C   0  0  0  0  0  2  0  0  0  0  0  0
  185.4190  174.7960  135.5850 C   0  0  0  0  0  2  0  0  0  0  0  0
  184.1070  174.1170  137.6790 C   0  0  0  0  0  3  0  0  0  0  0  0
  184.4710  175.9280  135.1350 C   0  0  0  0  0  2  0  0  0  0  0  0
  188.0150  178.5360  140.6910 O   0  0  0  0  0  0  0  0  0  0  0  0
  190.0390  176.9000  138.2130 O   0  0  0  0  0  0  0  0  0  0  0  0
  189.2460  176.3620  137.1840 C   0  0  0  0  0  0  0  0  0  0  0  0
  189.6460  176.9630  135.8450 C   0  0  0  0  0  1  0  0  0  0  0  0
  187.8610  177.8750  138.3950 C   0  0  2  0  0  3  0  0  0  0  0  0
  189.3270  177.9880  138.7580 C   0  0  1  0  0  3  0  0  0  0  0  0
  188.3290  177.4880  139.7860 C   0  0  1  0  0  3  0  0  0  0  0  0
  189.4290  174.8560  137.1330 C   0  0  0  0  0  1  0  0  0  0  0  0
  187.8040  176.6810  137.4870 C   0  0  0  0  0  2  0  0  0  0  0  0
  1  5  1  0  0  0  0
  1  6  1  0  0  0  0
  2 11  1  0  0  0  0
  3 16  1  0  0  0  0
  3 10  2  0  0  0  0
  4  7  1  0  0  0  0
  4  8  1  6  0  0  0
  7  9  1  0  0  0  0
  8  1  2  0  0  0  0
  9  5  2  0  0  0  0
 11 10  1  0  0  0  0
 11  7  2  0  0  0  0
 12  2  2  0  0  0  0
 12 15  1  0  0  0  0
 13 14  2  0  0  0  0
 13  2  1  0  0  0  0
 14  3  1  0  0  0  0
 15  4  1  0  0  0  0
 16 18  1  0  0  0  0
 17 16  2  0  0  0  0
 19 22  1  6  0  0  0
 19 21  1  0  0  0  0
 19 20  1  0  0  0  0
 20 17  1  6  0  0  0
 21 20  1  0  0  0  0
 23 22  1  0  0  0  0
 24 26  1  0  0  0  0
 24 25  2  0  0  0  0
 25 23  1  0  0  0  0
 26 27  1  6  0  0  0
 29 28  2  0  0  0  0
 29 26  1  0  0  0  0
 30 29  1  0  0  0  0
 31 33  1  0  0  0  0
 32 31  1  0  0  0  0
 33 28  2  0  0  0  0
 34 32  1  0  0  0  0
 34 30  1  0  0  0  0
 35 13  1  0  0  0  0
 37 43  1  0  0  0  0
 37 36  1  0  0  0  0
 38 37  1  0  0  0  0
 39 43  1  6  0  0  0
 39 40  1  0  0  0  0
 39 41  1  0  0  0  0
 40 36  1  6  0  0  0
 40 41  1  0  0  0  0
 41 35  1  1  0  0  0
 42 37  1  0  0  0  0
M  END
>  <MODEL>
1

>  <REMARK>
 VINA RESULT:      -9.4      0.000      0.000
  Name = 
  9 active torsions:
  status: ('A' for Active; 'I' for Inactive)
    1  A    between atoms: O_1  and  C_34
    2  A    between atoms: O_1  and  C_35
    3  A    between atoms: C_2  and  C_13
    4  A    between atoms: C_3  and  N_4
    5  A    between atoms: N_4  and  C_15
    6  A    between atoms: C_6  and  C_12
    7  A    between atoms: C_10  and  C_22
    8  A    between atoms: C_14  and  C_22
    9  A    between atoms: C_15  and  C_42
                            x       y       z     vdW  Elec       q    Type
                         _______ _______ _______ _____ _____    ______ ____

>  <TORSDO>
F 9

$$$$
=
 OpenBabel10272414313D

 43 49  0  0  1  0  0  0  0  0999 V2000
  191.0300  176.5650  146.7030 C   0  0  0  0  0  0  0  0  0  0  0  0
  189.2080  177.8720  142.1870 C   0  0  0  0  0  0  0  0  0  0  0  0
  186.4310  178.1970  142.5510 C   0  0  0  0  0  0  0  0  0  0  0  0
  190.8400  177.1360  144.3300 C   0  0  1  0  0  3  0  0  0  0  0  0
  189.7200  176.7350  146.9140 C   0  0  0  0  0  3  0  0  0  0  0  0
  191.9130  176.1750  147.8330 C   0  0  0  0  0  1  0  0  0  0  0  0
  189.3950  177.3230  144.5240 C   0  0  0  0  0  0  0  0  0  0  0  0
  191.6100  176.7770  145.3600 C   0  0  0  0  0  3  0  0  0  0  0  0
  188.8520  177.1170  145.8360 N   0  0  0  0  0  0  0  0  0  0  0  0
  187.2530  177.8400  143.6300 C   0  0  0  0  0  3  0  0  0  0  0  0
  188.6310  177.6720  143.4710 C   0  0  0  0  0  0  0  0  0  0  0  0
  190.5290  177.7090  142.0010 C   0  0  0  0  0  3  0  0  0  0  0  0
  188.3910  178.2330  141.1010 C   0  0  0  0  0  0  0  0  0  0  0  0
  187.0130  178.3910  141.2940 C   0  0  0  0  0  3  0  0  0  0  0  0
  191.3710  177.3400  143.0590 O   0  0  0  0  0  0  0  0  0  0  0  0
  184.9690  178.3600  142.7270 C   0  0  0  0  0  0  0  0  0  0  0  0
  184.1460  178.2360  141.6790 C   0  0  0  0  0  3  0  0  0  0  0  0
  184.4160  178.6720  144.0860 C   0  0  0  0  0  1  0  0  0  0  0  0
  182.0300  179.1130  140.5510 C   0  0  2  0  0  3  0  0  0  0  0  0
  182.6520  178.3980  141.7580 C   0  0  1  0  0  3  0  0  0  0  0  0
  181.9860  177.5970  140.6520 C   0  0  0  0  0  2  0  0  0  0  0  0
  183.0250  179.5120  139.5640 N   0  0  0  0  0  2  0  0  0  0  0  0
  182.3820  180.4650  138.6720 C   0  0  0  0  0  2  0  0  0  0  0  0
  180.6840  179.3130  137.2520 C   0  0  0  0  0  3  0  0  0  0  0  0
  180.9920  180.0060  138.3560 C   0  0  0  0  0  3  0  0  0  0  0  0
  181.6960  178.9160  136.2140 C   0  0  2  0  0  3  0  0  0  0  0  0
  181.0590  178.9940  134.8310 C   0  0  0  0  0  1  0  0  0  0  0  0
  181.5020  176.5500  136.7390 C   0  0  0  0  0  0  0  0  0  0  0  0
  182.2820  177.5580  136.5110 C   0  0  0  0  0  0  0  0  0  0  0  0
  183.7310  177.3480  136.9180 C   0  0  0  0  0  2  0  0  0  0  0  0
  182.0970  174.3980  137.5430 C   0  0  0  0  0  2  0  0  0  0  0  0
  183.3960  175.0540  138.0830 C   0  0  0  0  0  2  0  0  0  0  0  0
  181.0610  175.3870  137.0820 C   0  0  0  0  0  3  0  0  0  0  0  0
  184.1680  175.8620  137.0170 C   0  0  0  0  0  2  0  0  0  0  0  0
  188.9610  178.4300  139.8370 O   0  0  0  0  0  0  0  0  0  0  0  0
  189.2980  176.4700  136.8430 O   0  0  0  0  0  0  0  0  0  0  0  0
  188.5840  177.0450  135.7770 C   0  0  0  0  0  0  0  0  0  0  0  0
  189.5270  177.3610  134.6260 C   0  0  0  0  0  1  0  0  0  0  0  0
  188.7480  178.7140  137.4690 C   0  0  2  0  0  3  0  0  0  0  0  0
  189.6410  177.5170  137.7240 C   0  0  1  0  0  3  0  0  0  0  0  0
  188.4780  177.8070  138.6560 C   0  0  1  0  0  3  0  0  0  0  0  0
  187.5150  176.0800  135.3000 C   0  0  0  0  0  1  0  0  0  0  0  0
  187.9320  178.3090  136.2770 C   0  0  0  0  0  2  0  0  0  0  0  0
  1  5  1  0  0  0  0
  1  6  1  0  0  0  0
  2 11  1  0  0  0  0
  3 16  1  0  0  0  0
  3 10  2  0  0  0  0
  4  7  1  0  0  0  0
  4  8  1  6  0  0  0
  7  9  1  0  0  0  0
  8  1  2  0  0  0  0
  9  5  2  0  0  0  0
 11 10  1  0  0  0  0
 11  7  2  0  0  0  0
 12  2  2  0  0  0  0
 12 15  1  0  0  0  0
 13 14  2  0  0  0  0
 13  2  1  0  0  0  0
 14  3  1  0  0  0  0
 15  4  1  0  0  0  0
 16 18  1  0  0  0  0
 17 16  2  0  0  0  0
 19 22  1  6  0  0  0
 19 21  1  0  0  0  0
 19 20  1  0  0  0  0
 20 17  1  6  0  0  0
 21 20  1  0  0  0  0
 23 22  1  0  0  0  0
 24 25  2  0  0  0  0
 25 23  1  0  0  0  0
 26 27  1  6  0  0  0
 26 29  1  0  0  0  0
 26 24  1  0  0  0  0
 28 33  2  0  0  0  0
 29 28  2  0  0  0  0
 29 30  1  0  0  0  0
 30 34  1  0  0  0  0
 31 32  1  0  0  0  0
 33 31  1  0  0  0  0
 34 32  1  0  0  0  0
 35 13  1  0  0  0  0
 37 43  1  0  0  0  0
 37 36  1  0  0  0  0
 38 37  1  0  0  0  0
 39 43  1  6  0  0  0
 39 40  1  0  0  0  0
 39 41  1  0  0  0  0
 40 36  1  6  0  0  0
 40 41  1  0  0  0  0
 41 35  1  1  0  0  0
 42 37  1  0  0  0  0
M  END
>  <MODEL>
2

>  <REMARK>
 VINA RESULT:      -9.3      1.518      2.004
  Name = 
  9 active torsions:
  status: ('A' for Active; 'I' for Inactive)
    1  A    between atoms: O_1  and  C_34
    2  A    between atoms: O_1  and  C_35
    3  A    between atoms: C_2  and  C_13
    4  A    between atoms: C_3  and  N_4
    5  A    between atoms: N_4  and  C_15
    6  A    between atoms: C_6  and  C_12
    7  A    between atoms: C_10  and  C_22
    8  A    between atoms: C_14  and  C_22
    9  A    between atoms: C_15  and  C_42
                            x       y       z     vdW  Elec       q    Type
                         _______ _______ _______ _____ _____    ______ ____

>  <TORSDO>
F 9

$$$$
=
 OpenBabel10272414313D

 43 49  0  0  1  0  0  0  0  0999 V2000
  191.5020  176.2700  146.9800 C   0  0  0  0  0  0  0  0  0  0  0  0
  187.7670  177.7840  143.9520 C   0  0  0  0  0  0  0  0  0  0  0  0
  188.8470  177.7770  141.3470 C   0  0  0  0  0  0  0  0  0  0  0  0
  189.3370  177.0380  146.1370 C   0  0  0  0  0  0  0  0  0  0  0  0
  192.0370  176.2330  145.7550 C   0  0  0  0  0  3  0  0  0  0  0  0
  192.3240  175.8750  148.1550 C   0  0  0  0  0  1  0  0  0  0  0  0
  189.8940  177.0170  144.7770 C   0  0  0  0  0  0  0  0  0  0  0  0
  190.0980  176.6860  147.1760 C   0  0  0  0  0  3  0  0  0  0  0  0
  191.2580  176.6060  144.6080 N   0  0  0  0  0  2  0  0  0  0  0  0
  189.6320  177.3900  142.4440 C   0  0  0  0  0  3  0  0  0  0  0  0
  189.1160  177.3880  143.7430 C   0  0  0  0  0  0  0  0  0  0  0  0
  187.2460  177.8020  145.1900 C   0  0  0  0  0  3  0  0  0  0  0  0
  186.9730  178.1710  142.8580 C   0  0  0  0  0  0  0  0  0  0  0  0
  187.5210  178.1640  141.5680 C   0  0  0  0  0  3  0  0  0  0  0  0
  188.0110  177.4320  146.3050 O   0  0  0  0  0  0  0  0  0  0  0  0
  189.4070  177.7880  139.9750 C   0  0  0  0  0  0  0  0  0  0  0  0
  188.7010  178.3070  138.9640 C   0  0  0  0  0  3  0  0  0  0  0  0
  190.7660  177.2070  139.7250 C   0  0  0  0  0  1  0  0  0  0  0  0
  188.6000  177.2450  136.6450 C   0  0  2  0  0  3  0  0  0  0  0  0
  189.1790  178.3500  137.5380 C   0  0  1  0  0  3  0  0  0  0  0  0
  188.0130  178.6460  136.6100 C   0  0  0  0  0  2  0  0  0  0  0  0
  187.7030  176.3530  137.3690 N   0  0  0  0  0  2  0  0  0  0  0  0
  188.0990  174.9920  137.0400 C   0  0  0  0  0  2  0  0  0  0  0  0
  186.0380  174.1540  135.9090 C   0  0  0  0  0  3  0  0  0  0  0  0
  187.3270  174.5130  135.8500 C   0  0  0  0  0  3  0  0  0  0  0  0
  185.2240  174.1970  137.1720 C   0  0  2  0  0  3  0  0  0  0  0  0
  184.7860  172.7830  137.5400 C   0  0  0  0  0  1  0  0  0  0  0  0
  182.8500  174.7040  137.0530 C   0  0  0  0  0  0  0  0  0  0  0  0
  184.0650  175.1530  137.0450 C   0  0  0  0  0  0  0  0  0  0  0  0
  184.2130  176.5810  136.5490 C   0  0  0  0  0  2  0  0  0  0  0  0
  180.8540  175.8880  136.5540 C   0  0  0  0  0  2  0  0  0  0  0  0
  181.7500  176.9080  135.8020 C   0  0  0  0  0  2  0  0  0  0  0  0
  181.5660  174.6200  136.9420 C   0  0  0  0  0  3  0  0  0  0  0  0
  182.9250  177.4410  136.6510 C   0  0  0  0  0  2  0  0  0  0  0  0
  185.6440  178.5600  143.0650 O   0  0  0  0  0  0  0  0  0  0  0  0
  183.6500  178.1740  140.1000 O   0  0  0  0  0  0  0  0  0  0  0  0
  182.2780  178.2260  140.4010 C   0  0  0  0  0  0  0  0  0  0  0  0
  181.6160  179.3630  139.6370 C   0  0  0  0  0  1  0  0  0  0  0  0
  183.4290  179.0650  142.3100 C   0  0  2  0  0  3  0  0  0  0  0  0
  184.3200  178.9150  141.0950 C   0  0  1  0  0  3  0  0  0  0  0  0
  184.5530  178.0450  142.3160 C   0  0  1  0  0  3  0  0  0  0  0  0
  181.6210  176.9130  140.0150 C   0  0  0  0  0  1  0  0  0  0  0  0
  182.1310  178.4430  141.8860 C   0  0  0  0  0  2  0  0  0  0  0  0
  1  8  1  0  0  0  0
  1  6  1  0  0  0  0
  2 12  2  0  0  0  0
  3 14  1  0  0  0  0
  3 10  2  0  0  0  0
  4 15  1  0  0  0  0
  4  8  2  0  0  0  0
  5  1  2  0  0  0  0
  7  4  1  0  0  0  0
  9  7  1  0  0  0  0
  9  5  1  0  0  0  0
 10 11  1  0  0  0  0
 11  2  1  0  0  0  0
 11  7  2  0  0  0  0
 12 15  1  0  0  0  0
 13 35  1  0  0  0  0
 13  2  1  0  0  0  0
 14 13  2  0  0  0  0
 16  3  1  0  0  0  0
 17 16  2  0  0  0  0
 18 16  1  0  0  0  0
 19 22  1  1  0  0  0
 19 20  1  0  0  0  0
 20 17  1  1  0  0  0
 21 19  1  0  0  0  0
 21 20  1  0  0  0  0
 23 22  1  0  0  0  0
 24 26  1  0  0  0  0
 25 24  2  0  0  0  0
 25 23  1  0  0  0  0
 26 27  1  6  0  0  0
 29 28  2  0  0  0  0
 29 26  1  0  0  0  0
 30 34  1  0  0  0  0
 30 29  1  0  0  0  0
 31 33  1  0  0  0  0
 32 31  1  0  0  0  0
 32 34  1  0  0  0  0
 33 28  2  0  0  0  0
 36 37  1  0  0  0  0
 37 43  1  0  0  0  0
 38 37  1  0  0  0  0
 39 43  1  6  0  0  0
 39 41  1  0  0  0  0
 40 36  1  6  0  0  0
 40 39  1  0  0  0  0
 40 41  1  0  0  0  0
 41 35  1  1  0  0  0
 42 37  1  0  0  0  0
M  END
>  <MODEL>
3

>  <REMARK>
 VINA RESULT:      -8.9      2.169      5.480
  Name = 
  9 active torsions:
  status: ('A' for Active; 'I' for Inactive)
    1  A    between atoms: O_1  and  C_34
    2  A    between atoms: O_1  and  C_35
    3  A    between atoms: C_2  and  C_13
    4  A    between atoms: C_3  and  N_4
    5  A    between atoms: N_4  and  C_15
    6  A    between atoms: C_6  and  C_12
    7  A    between atoms: C_10  and  C_22
    8  A    between atoms: C_14  and  C_22
    9  A    between atoms: C_15  and  C_42
                            x       y       z     vdW  Elec       q    Type
                         _______ _______ _______ _____ _____    ______ ____

>  <TORSDO>
F 9

$$$$
=
 OpenBabel10272414313D

 43 49  0  0  1  0  0  0  0  0999 V2000
  191.5510  176.2680  147.1070 C   0  0  0  0  0  0  0  0  0  0  0  0
  187.7130  177.6880  144.1620 C   0  0  0  0  0  0  0  0  0  0  0  0
  188.6940  177.5690  141.5210 C   0  0  0  0  0  0  0  0  0  0  0  0
  189.3590  177.0180  146.3150 C   0  0  0  0  0  0  0  0  0  0  0  0
  192.0390  176.1780  145.8650 C   0  0  0  0  0  3  0  0  0  0  0  0
  192.4140  175.9140  148.2650 C   0  0  0  0  0  1  0  0  0  0  0  0
  189.8650  176.9390  144.9380 C   0  0  0  0  0  0  0  0  0  0  0  0
  190.1570  176.7030  147.3380 C   0  0  0  0  0  3  0  0  0  0  0  0
  191.2190  176.5110  144.7340 N   0  0  0  0  0  2  0  0  0  0  0  0
  189.5170  177.2200  142.6020 C   0  0  0  0  0  3  0  0  0  0  0  0
  189.0510  177.2740  143.9190 C   0  0  0  0  0  0  0  0  0  0  0  0
  187.2390  177.7590  145.4170 C   0  0  0  0  0  3  0  0  0  0  0  0
  186.8810  178.0370  143.0830 C   0  0  0  0  0  0  0  0  0  0  0  0
  187.3800  177.9740  141.7760 C   0  0  0  0  0  3  0  0  0  0  0  0
  188.0440  177.4290  146.5160 O   0  0  0  0  0  0  0  0  0  0  0  0
  189.2020  177.5200  140.1300 C   0  0  0  0  0  0  0  0  0  0  0  0
  188.3620  177.6830  139.1000 C   0  0  0  0  0  3  0  0  0  0  0  0
  190.6600  177.2800  139.8810 C   0  0  0  0  0  1  0  0  0  0  0  0
  187.7530  178.2230  136.6800 C   0  0  2  0  0  3  0  0  0  0  0  0
  188.7820  177.6360  137.6560 C   0  0  1  0  0  3  0  0  0  0  0  0
  188.9520  179.0480  137.1210 C   0  0  0  0  0  2  0  0  0  0  0  0
  186.5530  178.7010  137.3540 N   0  0  0  0  0  2  0  0  0  0  0  0
  185.4830  177.7690  137.0310 C   0  0  0  0  0  2  0  0  0  0  0  0
  186.0540  175.6470  135.8500 C   0  0  0  0  0  3  0  0  0  0  0  0
  185.8550  176.9710  135.8210 C   0  0  0  0  0  3  0  0  0  0  0  0
  185.9220  174.8170  137.0970 C   0  0  2  0  0  3  0  0  0  0  0  0
  187.1070  173.8620  137.1960 C   0  0  0  0  0  1  0  0  0  0  0  0
  184.5260  172.8380  136.8850 C   0  0  0  0  0  0  0  0  0  0  0  0
  184.5930  174.1050  137.1450 C   0  0  0  0  0  0  0  0  0  0  0  0
  183.2590  174.8310  137.1250 C   0  0  0  0  0  2  0  0  0  0  0  0
  182.5820  171.5160  136.5620 C   0  0  0  0  0  2  0  0  0  0  0  0
  181.8370  172.8430  136.2560 C   0  0  0  0  0  2  0  0  0  0  0  0
  184.0790  171.6570  136.6180 C   0  0  0  0  0  3  0  0  0  0  0  0
  182.0220  173.9200  137.3470 C   0  0  0  0  0  2  0  0  0  0  0  0
  185.5630  178.4440  143.3240 O   0  0  0  0  0  0  0  0  0  0  0  0
  183.7290  178.1200  140.2510 O   0  0  0  0  0  0  0  0  0  0  0  0
  182.3620  178.3840  140.4450 C   0  0  0  0  0  0  0  0  0  0  0  0
  181.9200  179.5420  139.5630 C   0  0  0  0  0  1  0  0  0  0  0  0
  183.4960  179.1940  142.3770 C   0  0  2  0  0  3  0  0  0  0  0  0
  184.4330  178.8330  141.2440 C   0  0  1  0  0  3  0  0  0  0  0  0
  184.4600  178.0310  142.5310 C   0  0  1  0  0  3  0  0  0  0  0  0
  181.5500  177.1500  140.0960 C   0  0  0  0  0  1  0  0  0  0  0  0
  182.1520  178.7280  141.8980 C   0  0  0  0  0  2  0  0  0  0  0  0
  1  8  1  0  0  0  0
  1  6  1  0  0  0  0
  2 12  2  0  0  0  0
  3 14  1  0  0  0  0
  3 10  2  0  0  0  0
  4 15  1  0  0  0  0
  4  8  2  0  0  0  0
  5  1  2  0  0  0  0
  7  4  1  0  0  0  0
  9  7  1  0  0  0  0
  9  5  1  0  0  0  0
 10 11  1  0  0  0  0
 11  2  1  0  0  0  0
 11  7  2  0  0  0  0
 12 15  1  0  0  0  0
 13 35  1  0  0  0  0
 13  2  1  0  0  0  0
 14 13  2  0  0  0  0
 16  3  1  0  0  0  0
 17 16  2  0  0  0  0
 18 16  1  0  0  0  0
 19 21  1  0  0  0  0
 19 22  1  1  0  0  0
 19 20  1  0  0  0  0
 20 17  1  1  0  0  0
 21 20  1  0  0  0  0
 23 22  1  0  0  0  0
 24 26  1  0  0  0  0
 25 24  2  0  0  0  0
 25 23  1  0  0  0  0
 26 29  1  0  0  0  0
 26 27  1  6  0  0  0
 28 29  2  0  0  0  0
 30 29  1  0  0  0  0
 30 34  1  0  0  0  0
 31 33  1  0  0  0  0
 32 31  1  0  0  0  0
 32 34  1  0  0  0  0
 33 28  2  0  0  0  0
 36 37  1  0  0  0  0
 37 43  1  0  0  0  0
 38 37  1  0  0  0  0
 39 43  1  6  0  0  0
 39 41  1  0  0  0  0
 40 36  1  6  0  0  0
 40 39  1  0  0  0  0
 40 41  1  0  0  0  0
 41 35  1  1  0  0  0
 42 37  1  0  0  0  0
M  END
>  <MODEL>
4

>  <REMARK>
 VINA RESULT:      -8.9      2.151      5.249
  Name = 
  9 active torsions:
  status: ('A' for Active; 'I' for Inactive)
    1  A    between atoms: O_1  and  C_34
    2  A    between atoms: O_1  and  C_35
    3  A    between atoms: C_2  and  C_13
    4  A    between atoms: C_3  and  N_4
    5  A    between atoms: N_4  and  C_15
    6  A    between atoms: C_6  and  C_12
    7  A    between atoms: C_10  and  C_22
    8  A    between atoms: C_14  and  C_22
    9  A    between atoms: C_15  and  C_42
                            x       y       z     vdW  Elec       q    Type
                         _______ _______ _______ _____ _____    ______ ____

>  <TORSDO>
F 9

$$$$
=
 OpenBabel10272414313D

 43 49  0  0  1  0  0  0  0  0999 V2000
  191.4820  176.2400  146.8920 C   0  0  0  0  0  0  0  0  0  0  0  0
  187.6680  177.7220  143.9470 C   0  0  0  0  0  0  0  0  0  0  0  0
  188.6680  177.6500  141.3110 C   0  0  0  0  0  0  0  0  0  0  0  0
  189.2980  177.0090  146.0990 C   0  0  0  0  0  0  0  0  0  0  0  0
  191.9780  176.1720  145.6530 C   0  0  0  0  0  3  0  0  0  0  0  0
  192.3360  175.8620  148.0500 C   0  0  0  0  0  1  0  0  0  0  0  0
  189.8130  176.9540  144.7240 C   0  0  0  0  0  0  0  0  0  0  0  0
  190.0870  176.6730  147.1220 C   0  0  0  0  0  3  0  0  0  0  0  0
  191.1680  176.5270  144.5220 N   0  0  0  0  0  2  0  0  0  0  0  0
  189.4830  177.2790  142.3920 C   0  0  0  0  0  3  0  0  0  0  0  0
  189.0070  177.3090  143.7060 C   0  0  0  0  0  0  0  0  0  0  0  0
  187.1850  177.7700  145.2000 C   0  0  0  0  0  3  0  0  0  0  0  0
  186.8450  178.0920  142.8690 C   0  0  0  0  0  0  0  0  0  0  0  0
  187.3530  178.0530  141.5640 C   0  0  0  0  0  3  0  0  0  0  0  0
  187.9810  177.4180  146.2980 O   0  0  0  0  0  0  0  0  0  0  0  0
  189.1860  177.6260  139.9230 C   0  0  0  0  0  0  0  0  0  0  0  0
  188.3860  177.9530  138.9000 C   0  0  0  0  0  3  0  0  0  0  0  0
  190.6090  177.2270  139.6690 C   0  0  0  0  0  1  0  0  0  0  0  0
  187.8250  177.2650  136.5070 C   0  0  2  0  0  3  0  0  0  0  0  0
  188.8180  177.9450  137.4590 C   0  0  1  0  0  3  0  0  0  0  0  0
  187.8590  178.7800  136.6280 C   0  0  0  0  0  2  0  0  0  0  0  0
  186.6540  176.7420  137.2000 N   0  0  0  0  0  2  0  0  0  0  0  0
  186.1900  175.5910  136.4420 C   0  0  0  0  0  2  0  0  0  0  0  0
  187.5970  173.5340  136.5540 C   0  0  0  0  0  3  0  0  0  0  0  0
  186.6630  174.3290  137.0930 C   0  0  0  0  0  3  0  0  0  0  0  0
  188.2730  173.8200  135.2430 C   0  0  2  0  0  3  0  0  0  0  0  0
  188.1820  172.5900  134.3470 C   0  0  0  0  0  1  0  0  0  0  0  0
  190.2660  174.1350  136.5990 C   0  0  0  0  0  0  0  0  0  0  0  0
  189.6920  174.2890  135.4480 C   0  0  0  0  0  0  0  0  0  0  0  0
  190.3920  175.2590  134.5120 C   0  0  0  0  0  2  0  0  0  0  0  0
  192.3340  175.0400  137.3300 C   0  0  0  0  0  2  0  0  0  0  0  0
  192.1700  176.0970  136.2050 C   0  0  0  0  0  2  0  0  0  0  0  0
  191.0980  174.2210  137.5820 C   0  0  0  0  0  3  0  0  0  0  0  0
  191.8980  175.4810  134.8150 C   0  0  0  0  0  2  0  0  0  0  0  0
  185.5250  178.4980  143.1080 O   0  0  0  0  0  0  0  0  0  0  0  0
  183.4700  178.3360  140.1640 O   0  0  0  0  0  0  0  0  0  0  0  0
  182.1050  178.3690  140.4960 C   0  0  0  0  0  0  0  0  0  0  0  0
  181.4330  179.5620  139.8310 C   0  0  0  0  0  1  0  0  0  0  0  0
  183.2980  179.0620  142.4380 C   0  0  2  0  0  3  0  0  0  0  0  0
  184.1640  179.0010  141.1970 C   0  0  1  0  0  3  0  0  0  0  0  0
  184.4180  178.0420  142.3460 C   0  0  1  0  0  3  0  0  0  0  0  0
  181.4350  177.0910  140.0280 C   0  0  0  0  0  1  0  0  0  0  0  0
  181.9890  178.4770  141.9950 C   0  0  0  0  0  2  0  0  0  0  0  0
  1  8  1  0  0  0  0
  1  6  1  0  0  0  0
  2 12  2  0  0  0  0
  3 14  1  0  0  0  0
  3 10  2  0  0  0  0
  4 15  1  0  0  0  0
  4  8  2  0  0  0  0
  5  1  2  0  0  0  0
  7  4  1  0  0  0  0
  9  7  1  0  0  0  0
  9  5  1  0  0  0  0
 10 11  1  0  0  0  0
 11  2  1  0  0  0  0
 11  7  2  0  0  0  0
 12 15  1  0  0  0  0
 13 35  1  0  0  0  0
 13  2  1  0  0  0  0
 14 13  2  0  0  0  0
 16  3  1  0  0  0  0
 17 16  2  0  0  0  0
 18 16  1  0  0  0  0
 19 21  1  0  0  0  0
 19 22  1  1  0  0  0
 19 20  1  0  0  0  0
 20 17  1  1  0  0  0
 21 20  1  0  0  0  0
 23 25  1  0  0  0  0
 23 22  1  0  0  0  0
 24 25  2  0  0  0  0
 26 27  1  6  0  0  0
 26 29  1  0  0  0  0
 26 24  1  0  0  0  0
 28 33  2  0  0  0  0
 29 28  2  0  0  0  0
 30 34  1  0  0  0  0
 30 29  1  0  0  0  0
 31 33  1  0  0  0  0
 32 31  1  0  0  0  0
 34 32  1  0  0  0  0
 36 37  1  0  0  0  0
 37 43  1  0  0  0  0
 38 37  1  0  0  0  0
 39 43  1  6  0  0  0
 40 36  1  6  0  0  0
 40 41  1  0  0  0  0
 40 39  1  0  0  0  0
 41 39  1  0  0  0  0
 41 35  1  1  0  0  0
 42 37  1  0  0  0  0
M  END
>  <MODEL>
5

>  <REMARK>
 VINA RESULT:      -8.8      2.304      6.149
  Name = 
  9 active torsions:
  status: ('A' for Active; 'I' for Inactive)
    1  A    between atoms: O_1  and  C_34
    2  A    between atoms: O_1  and  C_35
    3  A    between atoms: C_2  and  C_13
    4  A    between atoms: C_3  and  N_4
    5  A    between atoms: N_4  and  C_15
    6  A    between atoms: C_6  and  C_12
    7  A    between atoms: C_10  and  C_22
    8  A    between atoms: C_14  and  C_22
    9  A    between atoms: C_15  and  C_42
                            x       y       z     vdW  Elec       q    Type
                         _______ _______ _______ _____ _____    ______ ____

>  <TORSDO>
F 9

$$$$
=
 OpenBabel10272414313D

 43 49  0  0  1  0  0  0  0  0999 V2000
  190.9720  178.0520  143.0500 C   0  0  0  0  0  0  0  0  0  0  0  0
  190.4640  176.9620  138.1540 C   0  0  0  0  0  0  0  0  0  0  0  0
  187.7260  177.3110  137.5750 C   0  0  0  0  0  0  0  0  0  0  0  0
  191.4340  177.4090  140.7340 C   0  0  1  0  0  3  0  0  0  0  0  0
  189.6730  178.2500  142.8020 C   0  0  0  0  0  3  0  0  0  0  0  0
  191.5050  178.2860  144.4180 C   0  0  0  0  0  1  0  0  0  0  0  0
  190.0100  177.6070  140.4280 C   0  0  0  0  0  0  0  0  0  0  0  0
  191.8860  177.6170  141.9730 C   0  0  0  0  0  3  0  0  0  0  0  0
  189.1400  178.0330  141.4870 N   0  0  0  0  0  0  0  0  0  0  0  0
  188.2160  177.5470  138.8690 C   0  0  0  0  0  3  0  0  0  0  0  0
  189.5690  177.3790  139.1770 C   0  0  0  0  0  0  0  0  0  0  0  0
  191.7690  176.7830  138.4220 C   0  0  0  0  0  3  0  0  0  0  0  0
  189.9820  176.7260  136.8540 C   0  0  0  0  0  0  0  0  0  0  0  0
  188.6200  176.9020  136.5790 C   0  0  0  0  0  3  0  0  0  0  0  0
  192.2820  177.0000  139.7080 O   0  0  0  0  0  0  0  0  0  0  0  0
  186.2880  177.4800  137.2620 C   0  0  0  0  0  0  0  0  0  0  0  0
  185.4310  177.8580  138.2170 C   0  0  0  0  0  3  0  0  0  0  0  0
  185.7970  177.2190  135.8690 C   0  0  0  0  0  1  0  0  0  0  0  0
  183.1010  177.8630  139.2610 C   0  0  2  0  0  3  0  0  0  0  0  0
  183.9540  178.0430  137.9980 C   0  0  1  0  0  3  0  0  0  0  0  0
  183.4640  179.2560  138.7700 C   0  0  0  0  0  2  0  0  0  0  0  0
  183.9010  177.5310  140.4330 N   0  0  0  0  0  2  0  0  0  0  0  0
  183.7630  178.6350  141.3700 C   0  0  0  0  0  2  0  0  0  0  0  0
  185.6760  179.0680  142.9130 C   0  0  0  0  0  3  0  0  0  0  0  0
  185.1130  179.1890  141.7030 C   0  0  0  0  0  3  0  0  0  0  0  0
  185.0190  178.3600  144.0640 C   0  0  2  0  0  3  0  0  0  0  0  0
  183.8960  179.2290  144.6190 C   0  0  0  0  0  1  0  0  0  0  0  0
  185.9310  178.4460  146.3160 C   0  0  0  0  0  0  0  0  0  0  0  0
  186.0280  177.9690  145.1150 C   0  0  0  0  0  0  0  0  0  0  0  0
  187.3680  177.3340  144.7880 C   0  0  0  0  0  2  0  0  0  0  0  0
  187.5120  178.2890  148.0790 C   0  0  0  0  0  2  0  0  0  0  0  0
  188.5750  178.0070  146.9850 C   0  0  0  0  0  2  0  0  0  0  0  0
  186.1920  178.7690  147.5380 C   0  0  0  0  0  3  0  0  0  0  0  0
  188.1820  176.8630  146.0230 C   0  0  0  0  0  2  0  0  0  0  0  0
  190.8650  176.3160  135.8480 O   0  0  0  0  0  0  0  0  0  0  0  0
  191.1790  172.7530  136.1940 O   0  0  0  0  0  0  0  0  0  0  0  0
  192.0290  172.2200  135.2110 C   0  0  0  0  0  0  0  0  0  0  0  0
  193.2020  171.5040  135.8640 C   0  0  0  0  0  1  0  0  0  0  0  0
  192.3840  174.5760  135.2180 C   0  0  2  0  0  3  0  0  0  0  0  0
  191.5720  174.0910  136.4020 C   0  0  1  0  0  3  0  0  0  0  0  0
  190.9280  174.9850  135.3580 C   0  0  1  0  0  3  0  0  0  0  0  0
  191.2590  171.2380  134.3480 C   0  0  0  0  0  1  0  0  0  0  0  0
  192.5270  173.3570  134.3540 C   0  0  0  0  0  2  0  0  0  0  0  0
  1  6  1  0  0  0  0
  2 12  2  0  0  0  0
  2 11  1  0  0  0  0
  3 10  2  0  0  0  0
  4  8  1  1  0  0  0
  5  1  1  0  0  0  0
  7  4  1  0  0  0  0
  7  9  1  0  0  0  0
  8  1  2  0  0  0  0
  9  5  2  0  0  0  0
 10 11  1  0  0  0  0
 11  7  2  0  0  0  0
 12 15  1  0  0  0  0
 13  2  1  0  0  0  0
 14 13  2  0  0  0  0
 14  3  1  0  0  0  0
 15  4  1  0  0  0  0
 16  3  1  0  0  0  0
 16 17  2  0  0  0  0
 18 16  1  0  0  0  0
 19 22  1  1  0  0  0
 20 17  1  1  0  0  0
 20 21  1  0  0  0  0
 20 19  1  0  0  0  0
 21 19  1  0  0  0  0
 22 23  1  0  0  0  0
 23 25  1  0  0  0  0
 24 26  1  0  0  0  0
 25 24  2  0  0  0  0
 26 27  1  1  0  0  0
 26 29  1  0  0  0  0
 28 33  2  0  0  0  0
 29 28  2  0  0  0  0
 30 29  1  0  0  0  0
 30 34  1  0  0  0  0
 32 31  1  0  0  0  0
 33 31  1  0  0  0  0
 34 32  1  0  0  0  0
 35 13  1  0  0  0  0
 37 38  1  0  0  0  0
 37 36  1  0  0  0  0
 39 43  1  6  0  0  0
 39 41  1  0  0  0  0
 39 40  1  0  0  0  0
 40 36  1  6  0  0  0
 41 35  1  1  0  0  0
 41 40  1  0  0  0  0
 42 37  1  0  0  0  0
 43 37  1  0  0  0  0
M  END
>  <MODEL>
6

>  <REMARK>
 VINA RESULT:      -8.7      2.457      6.654
  Name = 
  9 active torsions:
  status: ('A' for Active; 'I' for Inactive)
    1  A    between atoms: O_1  and  C_34
    2  A    between atoms: O_1  and  C_35
    3  A    between atoms: C_2  and  C_13
    4  A    between atoms: C_3  and  N_4
    5  A    between atoms: N_4  and  C_15
    6  A    between atoms: C_6  and  C_12
    7  A    between atoms: C_10  and  C_22
    8  A    between atoms: C_14  and  C_22
    9  A    between atoms: C_15  and  C_42
                            x       y       z     vdW  Elec       q    Type
                         _______ _______ _______ _____ _____    ______ ____

>  <TORSDO>
F 9

$$$$
=
 OpenBabel10272414313D

 43 49  0  0  1  0  0  0  0  0999 V2000
  195.3050  173.9540  135.5230 C   0  0  0  0  0  0  0  0  0  0  0  0
  191.8800  176.2110  138.4550 C   0  0  0  0  0  0  0  0  0  0  0  0
  189.3700  175.3950  137.4610 C   0  0  0  0  0  0  0  0  0  0  0  0
  194.2360  175.3080  137.2600 C   0  0  0  0  0  0  0  0  0  0  0  0
  194.1310  173.5290  135.0440 C   0  0  0  0  0  3  0  0  0  0  0  0
  196.5690  173.4820  134.8990 C   0  0  0  0  0  1  0  0  0  0  0  0
  192.9280  174.8690  136.7530 C   0  0  0  0  0  0  0  0  0  0  0  0
  195.3570  174.8760  136.6770 C   0  0  0  0  0  3  0  0  0  0  0  0
  192.8990  173.9700  135.6350 N   0  0  0  0  0  2  0  0  0  0  0  0
  190.5540  174.9320  136.8690 C   0  0  0  0  0  3  0  0  0  0  0  0
  191.8080  175.3250  137.3450 C   0  0  0  0  0  0  0  0  0  0  0  0
  193.0710  176.6140  138.9290 C   0  0  0  0  0  3  0  0  0  0  0  0
  190.6970  176.6780  139.0550 C   0  0  0  0  0  0  0  0  0  0  0  0
  189.4560  176.2660  138.5530 C   0  0  0  0  0  3  0  0  0  0  0  0
  194.2690  176.1760  138.3480 O   0  0  0  0  0  0  0  0  0  0  0  0
  188.0450  174.9820  136.9410 C   0  0  0  0  0  0  0  0  0  0  0  0
  187.0060  175.8230  137.0010 C   0  0  0  0  0  3  0  0  0  0  0  0
  187.8730  173.6130  136.3540 C   0  0  0  0  0  1  0  0  0  0  0  0
  184.5870  176.5970  136.7400 C   0  0  2  0  0  3  0  0  0  0  0  0
  185.6230  175.4890  136.5120 C   0  0  1  0  0  3  0  0  0  0  0  0
  185.2360  176.4210  135.3770 C   0  0  0  0  0  2  0  0  0  0  0  0
  185.1540  177.7630  137.4080 N   0  0  0  0  0  2  0  0  0  0  0  0
  184.2230  178.1450  138.4590 C   0  0  0  0  0  2  0  0  0  0  0  0
  184.7340  179.2440  140.6400 C   0  0  0  0  0  3  0  0  0  0  0  0
  184.8270  179.2230  139.3040 C   0  0  0  0  0  3  0  0  0  0  0  0
  184.0200  178.1880  141.4370 C   0  0  2  0  0  3  0  0  0  0  0  0
  182.5230  178.4800  141.4380 C   0  0  0  0  0  1  0  0  0  0  0  0
  183.9410  178.5490  143.8400 C   0  0  0  0  0  0  0  0  0  0  0  0
  184.5920  178.0700  142.8280 C   0  0  0  0  0  0  0  0  0  0  0  0
  186.0500  177.7450  143.1030 C   0  0  0  0  0  2  0  0  0  0  0  0
  184.7040  178.8100  146.0720 C   0  0  0  0  0  2  0  0  0  0  0  0
  186.1430  178.7420  145.4970 C   0  0  0  0  0  2  0  0  0  0  0  0
  183.6340  178.9600  145.0240 C   0  0  0  0  0  3  0  0  0  0  0  0
  186.3920  177.5100  144.5990 C   0  0  0  0  0  2  0  0  0  0  0  0
  190.7690  177.5500  140.1490 O   0  0  0  0  0  0  0  0  0  0  0  0
  190.0190  176.3690  143.4590 O   0  0  0  0  0  0  0  0  0  0  0  0
  190.7890  177.0400  144.4240 C   0  0  0  0  0  0  0  0  0  0  0  0
  189.8810  177.7460  145.4210 C   0  0  0  0  0  1  0  0  0  0  0  0
  190.9590  178.3050  142.4130 C   0  0  2  0  0  3  0  0  0  0  0  0
  189.8840  177.2390  142.3570 C   0  0  1  0  0  3  0  0  0  0  0  0
  191.1050  177.1300  141.4630 C   0  0  1  0  0  3  0  0  0  0  0  0
  191.6640  176.0430  145.1610 C   0  0  0  0  0  1  0  0  0  0  0  0
  191.6610  178.0440  143.7140 C   0  0  0  0  0  2  0  0  0  0  0  0
  1  8  1  0  0  0  0
  2 12  2  0  0  0  0
  2 13  1  0  0  0  0
  3 14  1  0  0  0  0
  4 15  1  0  0  0  0
  5  1  2  0  0  0  0
  5  9  1  0  0  0  0
  6  1  1  0  0  0  0
  7  4  1  0  0  0  0
  7 11  2  0  0  0  0
  8  4  2  0  0  0  0
  9  7  1  0  0  0  0
 10 11  1  0  0  0  0
 10  3  2  0  0  0  0
 11  2  1  0  0  0  0
 13 35  1  0  0  0  0
 14 13  2  0  0  0  0
 15 12  1  0  0  0  0
 16 17  2  0  0  0  0
 16  3  1  0  0  0  0
 18 16  1  0  0  0  0
 19 22  1  1  0  0  0
 20 19  1  0  0  0  0
 20 17  1  1  0  0  0
 21 20  1  0  0  0  0
 21 19  1  0  0  0  0
 22 23  1  0  0  0  0
 23 25  1  0  0  0  0
 24 26  1  0  0  0  0
 25 24  2  0  0  0  0
 26 27  1  1  0  0  0
 26 29  1  0  0  0  0
 28 33  2  0  0  0  0
 29 30  1  0  0  0  0
 29 28  2  0  0  0  0
 30 34  1  0  0  0  0
 32 31  1  0  0  0  0
 33 31  1  0  0  0  0
 34 32  1  0  0  0  0
 36 37  1  0  0  0  0
 37 42  1  0  0  0  0
 37 38  1  0  0  0  0
 39 43  1  1  0  0  0
 40 39  1  0  0  0  0
 40 36  1  1  0  0  0
 41 35  1  6  0  0  0
 41 40  1  0  0  0  0
 41 39  1  0  0  0  0
 43 37  1  0  0  0  0
M  END
>  <MODEL>
7

>  <REMARK>
 VINA RESULT:      -8.5      3.295      7.977
  Name = 
  9 active torsions:
  status: ('A' for Active; 'I' for Inactive)
    1  A    between atoms: O_1  and  C_34
    2  A    between atoms: O_1  and  C_35
    3  A    between atoms: C_2  and  C_13
    4  A    between atoms: C_3  and  N_4
    5  A    between atoms: N_4  and  C_15
    6  A    between atoms: C_6  and  C_12
    7  A    between atoms: C_10  and  C_22
    8  A    between atoms: C_14  and  C_22
    9  A    between atoms: C_15  and  C_42
                            x       y       z     vdW  Elec       q    Type
                         _______ _______ _______ _____ _____    ______ ____

>  <TORSDO>
F 9

$$$$
=
 OpenBabel10272414313D

 43 49  0  0  1  0  0  0  0  0999 V2000
  190.1530  177.8790  143.1490 C   0  0  0  0  0  0  0  0  0  0  0  0
  192.1050  176.6780  138.6590 C   0  0  0  0  0  0  0  0  0  0  0  0
  189.8990  176.1440  136.9860 C   0  0  0  0  0  0  0  0  0  0  0  0
  191.7160  177.4110  141.3250 C   0  0  0  0  0  0  0  0  0  0  0  0
  189.0850  177.6560  142.3750 C   0  0  0  0  0  3  0  0  0  0  0  0
  189.9630  178.2710  144.5700 C   0  0  0  0  0  1  0  0  0  0  0  0
  190.5650  177.1500  140.4480 C   0  0  0  0  0  0  0  0  0  0  0  0
  191.5190  177.7530  142.6000 C   0  0  0  0  0  3  0  0  0  0  0  0
  189.2470  177.2810  140.9990 N   0  0  0  0  0  2  0  0  0  0  0  0
  189.7030  176.5240  138.3220 C   0  0  0  0  0  3  0  0  0  0  0  0
  190.7830  176.7920  139.1680 C   0  0  0  0  0  0  0  0  0  0  0  0
  193.1640  176.9200  139.4500 C   0  0  0  0  0  3  0  0  0  0  0  0
  192.3100  176.3000  137.3200 C   0  0  0  0  0  0  0  0  0  0  0  0
  191.2060  176.0360  136.4990 C   0  0  0  0  0  3  0  0  0  0  0  0
  192.9970  177.2890  140.7920 O   0  0  0  0  0  0  0  0  0  0  0  0
  188.7480  175.8500  136.1010 C   0  0  0  0  0  0  0  0  0  0  0  0
  187.5090  176.1960  136.4700 C   0  0  0  0  0  3  0  0  0  0  0  0
  188.9770  175.1570  134.7910 C   0  0  0  0  0  1  0  0  0  0  0  0
  184.9600  176.2840  136.3450 C   0  0  2  0  0  3  0  0  0  0  0  0
  186.2790  175.9280  135.6460 C   0  0  1  0  0  3  0  0  0  0  0  0
  185.5730  177.2350  135.3300 C   0  0  0  0  0  2  0  0  0  0  0  0
  185.1640  176.8040  137.6920 N   0  0  0  0  0  2  0  0  0  0  0  0
  184.1240  177.7930  137.9280 C   0  0  0  0  0  2  0  0  0  0  0  0
  184.4600  179.1720  139.9800 C   0  0  0  0  0  3  0  0  0  0  0  0
  184.6920  178.9570  138.6780 C   0  0  0  0  0  3  0  0  0  0  0  0
  183.6120  178.2690  140.8310 C   0  0  2  0  0  3  0  0  0  0  0  0
  182.1500  178.6880  140.7130 C   0  0  0  0  0  1  0  0  0  0  0  0
  183.3000  178.5760  143.2220 C   0  0  0  0  0  0  0  0  0  0  0  0
  184.0980  178.2420  142.2580 C   0  0  0  0  0  0  0  0  0  0  0  0
  185.5690  178.1960  142.6360 C   0  0  0  0  0  2  0  0  0  0  0  0
  183.8430  178.9480  145.5020 C   0  0  0  0  0  2  0  0  0  0  0  0
  185.3060  179.1610  145.0300 C   0  0  0  0  0  2  0  0  0  0  0  0
  182.8400  178.9070  144.3820 C   0  0  0  0  0  3  0  0  0  0  0  0
  185.8440  178.0100  144.1520 C   0  0  0  0  0  2  0  0  0  0  0  0
  193.6130  176.1890  136.8190 O   0  0  0  0  0  0  0  0  0  0  0  0
  194.2640  172.6540  136.7970 O   0  0  0  0  0  0  0  0  0  0  0  0
  195.5790  172.3830  136.3830 C   0  0  0  0  0  0  0  0  0  0  0  0
  196.3250  171.6230  137.4710 C   0  0  0  0  0  1  0  0  0  0  0  0
  195.4910  174.7060  136.9020 C   0  0  2  0  0  3  0  0  0  0  0  0
  194.2660  173.9450  137.3650 C   0  0  1  0  0  3  0  0  0  0  0  0
  194.1390  174.9890  136.2710 C   0  0  1  0  0  3  0  0  0  0  0  0
  195.5540  171.5490  135.1160 C   0  0  0  0  0  1  0  0  0  0  0  0
  196.2640  173.6970  136.1050 C   0  0  0  0  0  2  0  0  0  0  0  0
  1  6  1  0  0  0  0
  2 11  1  0  0  0  0
  2 12  2  0  0  0  0
  3 10  2  0  0  0  0
  4  8  2  0  0  0  0
  5  1  2  0  0  0  0
  7  9  1  0  0  0  0
  7  4  1  0  0  0  0
  8  1  1  0  0  0  0
  9  5  1  0  0  0  0
 10 11  1  0  0  0  0
 11  7  2  0  0  0  0
 12 15  1  0  0  0  0
 13  2  1  0  0  0  0
 14  3  1  0  0  0  0
 14 13  2  0  0  0  0
 15  4  1  0  0  0  0
 16 17  2  0  0  0  0
 16  3  1  0  0  0  0
 18 16  1  0  0  0  0
 19 22  1  1  0  0  0
 20 19  1  0  0  0  0
 20 17  1  1  0  0  0
 21 20  1  0  0  0  0
 21 19  1  0  0  0  0
 22 23  1  0  0  0  0
 23 25  1  0  0  0  0
 24 26  1  0  0  0  0
 25 24  2  0  0  0  0
 26 27  1  1  0  0  0
 26 29  1  0  0  0  0
 28 33  2  0  0  0  0
 29 30  1  0  0  0  0
 29 28  2  0  0  0  0
 30 34  1  0  0  0  0
 32 31  1  0  0  0  0
 33 31  1  0  0  0  0
 34 32  1  0  0  0  0
 35 13  1  0  0  0  0
 37 36  1  0  0  0  0
 37 38  1  0  0  0  0
 39 43  1  6  0  0  0
 39 40  1  0  0  0  0
 40 36  1  6  0  0  0
 41 35  1  1  0  0  0
 41 39  1  0  0  0  0
 41 40  1  0  0  0  0
 42 37  1  0  0  0  0
 43 37  1  0  0  0  0
M  END
>  <MODEL>
8

>  <REMARK>
 VINA RESULT:      -8.5      3.405      7.016
  Name = 
  9 active torsions:
  status: ('A' for Active; 'I' for Inactive)
    1  A    between atoms: O_1  and  C_34
    2  A    between atoms: O_1  and  C_35
    3  A    between atoms: C_2  and  C_13
    4  A    between atoms: C_3  and  N_4
    5  A    between atoms: N_4  and  C_15
    6  A    between atoms: C_6  and  C_12
    7  A    between atoms: C_10  and  C_22
    8  A    between atoms: C_14  and  C_22
    9  A    between atoms: C_15  and  C_42
                            x       y       z     vdW  Elec       q    Type
                         _______ _______ _______ _____ _____    ______ ____

>  <TORSDO>
F 9

$$$$
=
 OpenBabel10272414313D

 43 49  0  0  1  0  0  0  0  0999 V2000
  184.6270  178.4430  138.1880 C   0  0  0  0  0  0  0  0  0  0  0  0
  189.0800  176.2360  137.3410 C   0  0  0  0  0  0  0  0  0  0  0  0
  190.7320  177.0040  139.4940 C   0  0  0  0  0  0  0  0  0  0  0  0
  186.4390  177.1320  137.1950 C   0  0  1  0  0  3  0  0  0  0  0  0
  185.3770  178.8060  139.2340 C   0  0  0  0  0  3  0  0  0  0  0  0
  183.2180  178.9100  138.0960 C   0  0  0  0  0  1  0  0  0  0  0  0
  187.2950  177.5170  138.3260 C   0  0  0  0  0  0  0  0  0  0  0  0
  185.1800  177.5710  137.1310 C   0  0  0  0  0  3  0  0  0  0  0  0
  186.7370  178.3610  139.3440 N   0  0  0  0  0  0  0  0  0  0  0  0
  189.4010  177.4440  139.4260 C   0  0  0  0  0  3  0  0  0  0  0  0
  188.5660  177.0760  138.3680 C   0  0  0  0  0  0  0  0  0  0  0  0
  188.3040  175.8740  136.3060 C   0  0  0  0  0  3  0  0  0  0  0  0
  190.4110  175.7900  137.4030 C   0  0  0  0  0  0  0  0  0  0  0  0
  191.2230  176.1780  138.4770 C   0  0  0  0  0  3  0  0  0  0  0  0
  186.9750  176.3090  136.2080 O   0  0  0  0  0  0  0  0  0  0  0  0
  191.6130  177.4100  140.6140 C   0  0  0  0  0  0  0  0  0  0  0  0
  191.1100  177.5650  141.8440 C   0  0  0  0  0  3  0  0  0  0  0  0
  193.0710  177.6530  140.3600 C   0  0  0  0  0  1  0  0  0  0  0  0
  191.0850  178.4540  144.2370 C   0  0  2  0  0  3  0  0  0  0  0  0
  191.9210  177.9870  143.0390 C   0  0  1  0  0  3  0  0  0  0  0  0
  191.6560  177.0460  144.2020 C   0  0  0  0  0  2  0  0  0  0  0  0
  189.6530  178.4110  143.9700 N   0  0  0  0  0  2  0  0  0  0  0  0
  188.9990  178.0410  145.2160 C   0  0  0  0  0  2  0  0  0  0  0  0
  186.6980  177.0990  145.0120 C   0  0  0  0  0  3  0  0  0  0  0  0
  188.0260  176.9310  144.9680 C   0  0  0  0  0  3  0  0  0  0  0  0
  186.0380  178.4170  145.3080 C   0  0  2  0  0  3  0  0  0  0  0  0
  185.5140  178.4110  146.7400 C   0  0  0  0  0  1  0  0  0  0  0  0
  183.7520  178.9610  144.6870 C   0  0  0  0  0  0  0  0  0  0  0  0
  184.9660  178.7350  144.2960 C   0  0  0  0  0  0  0  0  0  0  0  0
  185.1170  178.4600  142.8100 C   0  0  0  0  0  2  0  0  0  0  0  0
  181.8030  179.1630  143.3470 C   0  0  0  0  0  2  0  0  0  0  0  0
  182.5840  178.3960  142.2480 C   0  0  0  0  0  2  0  0  0  0  0  0
  182.4760  179.1520  144.6940 C   0  0  0  0  0  3  0  0  0  0  0  0
  183.9640  179.0120  141.9280 C   0  0  0  0  0  2  0  0  0  0  0  0
  190.9150  174.9620  136.3920 O   0  0  0  0  0  0  0  0  0  0  0  0
  194.3650  173.9830  136.1580 O   0  0  0  0  0  0  0  0  0  0  0  0
  194.4860  172.6420  135.7530 C   0  0  0  0  0  0  0  0  0  0  0  0
  195.2860  172.5550  134.4610 C   0  0  0  0  0  1  0  0  0  0  0  0
  192.2400  173.2940  135.2990 C   0  0  2  0  0  3  0  0  0  0  0  0
  193.1410  174.4610  135.6470 C   0  0  1  0  0  3  0  0  0  0  0  0
  192.0080  174.0750  136.5800 C   0  0  1  0  0  3  0  0  0  0  0  0
  195.1910  171.8450  136.8350 C   0  0  0  0  0  1  0  0  0  0  0  0
  193.1000  172.0880  135.5440 C   0  0  0  0  0  2  0  0  0  0  0  0
  1  5  1  0  0  0  0
  2 13  1  0  0  0  0
  2 11  1  0  0  0  0
  3 16  1  0  0  0  0
  4  8  1  6  0  0  0
  4  7  1  0  0  0  0
  5  9  2  0  0  0  0
  6  1  1  0  0  0  0
  7 11  2  0  0  0  0
  7  9  1  0  0  0  0
  8  1  2  0  0  0  0
 10  3  2  0  0  0  0
 11 10  1  0  0  0  0
 12  2  2  0  0  0  0
 13 14  2  0  0  0  0
 14  3  1  0  0  0  0
 15 12  1  0  0  0  0
 15  4  1  0  0  0  0
 16 17  2  0  0  0  0
 18 16  1  0  0  0  0
 19 22  1  6  0  0  0
 20 17  1  6  0  0  0
 20 21  1  0  0  0  0
 20 19  1  0  0  0  0
 21 19  1  0  0  0  0
 22 23  1  0  0  0  0
 24 26  1  0  0  0  0
 25 24  2  0  0  0  0
 25 23  1  0  0  0  0
 26 27  1  1  0  0  0
 28 33  2  0  0  0  0
 29 28  2  0  0  0  0
 29 26  1  0  0  0  0
 30 29  1  0  0  0  0
 31 33  1  0  0  0  0
 32 31  1  0  0  0  0
 34 32  1  0  0  0  0
 34 30  1  0  0  0  0
 35 13  1  0  0  0  0
 37 36  1  0  0  0  0
 37 42  1  0  0  0  0
 38 37  1  0  0  0  0
 39 43  1  1  0  0  0
 39 40  1  0  0  0  0
 39 41  1  0  0  0  0
 40 36  1  1  0  0  0
 40 41  1  0  0  0  0
 41 35  1  6  0  0  0
 43 37  1  0  0  0  0
M  END
>  <MODEL>
9

>  <REMARK>
 VINA RESULT:      -8.5      2.814      8.090
  Name = 
  9 active torsions:
  status: ('A' for Active; 'I' for Inactive)
    1  A    between atoms: O_1  and  C_34
    2  A    between atoms: O_1  and  C_35
    3  A    between atoms: C_2  and  C_13
    4  A    between atoms: C_3  and  N_4
    5  A    between atoms: N_4  and  C_15
    6  A    between atoms: C_6  and  C_12
    7  A    between atoms: C_10  and  C_22
    8  A    between atoms: C_14  and  C_22
    9  A    between atoms: C_15  and  C_42
                            x       y       z     vdW  Elec       q    Type
                         _______ _______ _______ _____ _____    ______ ____

>  <TORSDO>
F 9

$$$$
