=
 OpenBabel10272415283D

 34 39  0  0  0  0  0  0  0  0999 V2000
  183.3070  178.4690  141.3900 C   0  0  0  0  0  0  0  0  0  0  0  0
  180.9190  179.1290  139.2250 C   0  0  0  0  0  1  0  0  0  0  0  0
  183.6350  178.7870  143.8150 C   0  0  0  0  0  0  0  0  0  0  0  0
  184.1130  178.3820  142.5450 C   0  0  0  0  0  3  0  0  0  0  0  0
  181.5460  179.3700  142.7890 C   0  0  0  0  0  0  0  0  0  0  0  0
  180.2950  179.8510  142.6910 N   0  0  0  0  0  0  0  0  0  0  0  0
  182.3260  179.2860  143.9370 C   0  0  0  0  0  3  0  0  0  0  0  0
  180.9680  179.2830  140.7050 C   0  0  0  0  0  0  0  0  0  0  0  0
  182.0120  178.9850  141.5600 C   0  0  0  0  0  0  0  0  0  0  0  0
  179.9830  179.7830  141.4250 O   0  0  0  0  0  0  0  0  0  0  0  0
  187.8640  177.3890  144.1850 C   0  0  0  0  0  3  0  0  0  0  0  0
  186.3650  178.2060  146.3620 N   0  0  0  0  0  0  0  0  0  0  0  0
  190.2830  176.9150  146.9520 C   0  0  0  0  0  0  0  0  0  0  0  0
  189.7350  176.9330  145.6620 C   0  0  0  0  0  3  0  0  0  0  0  0
  188.4210  177.3650  145.4620 C   0  0  0  0  0  0  0  0  0  0  0  0
  184.4440  178.6970  144.9980 N   0  0  0  0  0  2  0  0  0  0  0  0
  188.1880  177.7700  147.8460 C   0  0  0  0  0  3  0  0  0  0  0  0
  187.6430  177.7860  146.5600 C   0  0  0  0  0  0  0  0  0  0  0  0
  189.5030  177.3350  148.0400 C   0  0  0  0  0  3  0  0  0  0  0  0
  185.7980  178.2360  145.1250 C   0  0  0  0  0  0  0  0  0  0  0  0
  186.5500  177.8240  144.0130 C   0  0  0  0  0  3  0  0  0  0  0  0
  191.6680  176.4600  147.1570 C   0  0  0  0  0  0  0  0  0  0  0  0
  192.2120  175.6790  146.3320 O   0  0  0  0  0  0  0  0  0  0  0  0
  192.3900  176.8900  148.2650 O   0  0  0  0  0  1  0  0  0  0  0  0
  183.3010  176.3280  138.3080 C   0  0  0  0  0  3  0  0  0  0  0  0
  183.6900  177.2380  137.1920 C   0  0  0  0  0  2  0  0  0  0  0  0
  185.1260  177.6310  137.2840 C   0  0  0  0  0  0  0  0  0  0  0  0
  185.6060  178.3200  138.3210 C   0  0  0  0  0  3  0  0  0  0  0  0
  183.3350  176.6970  139.5870 C   0  0  0  0  0  3  0  0  0  0  0  0
  184.8620  178.6630  139.5520 C   0  0  0  0  0  3  0  0  0  0  0  0
  183.8270  178.0000  140.0930 C   0  0  0  0  0  0  0  0  0  0  0  0
  185.9850  177.3540  136.1840 N   0  0  0  0  0  0  0  0  0  0  0  0
  186.9500  177.7650  135.1250 C   0  0  0  0  0  2  0  0  0  0  0  0
  186.6140  176.4310  135.1960 C   0  0  0  0  0  2  0  0  0  0  0  0
  1  9  1  0  0  0  0
  1  4  2  0  0  0  0
  2  8  1  0  0  0  0
  3  7  2  0  0  0  0
  3 16  1  0  0  0  0
  4  3  1  0  0  0  0
  5  7  1  0  0  0  0
  6  5  2  0  0  0  0
  8 10  1  0  0  0  0
  8  9  2  0  0  0  0
  9  5  1  0  0  0  0
 10  6  1  0  0  0  0
 11 15  1  0  0  0  0
 12 18  1  0  0  0  0
 13 22  1  0  0  0  0
 13 19  1  0  0  0  0
 14 13  2  0  0  0  0
 15 14  1  0  0  0  0
 15 18  2  0  0  0  0
 16 20  1  0  0  0  0
 17 19  2  0  0  0  0
 18 17  1  0  0  0  0
 20 12  2  0  0  0  0
 21 11  2  0  0  0  0
 21 20  1  0  0  0  0
 22 24  1  0  0  0  0
 23 22  2  0  0  0  0
 25 29  2  0  0  0  0
 26 27  1  0  0  0  0
 26 25  1  0  0  0  0
 27 28  2  0  0  0  0
 28 30  1  0  0  0  0
 29 31  1  0  0  0  0
 30 31  2  0  0  0  0
 31  1  1  0  0  0  0
 32 27  1  0  0  0  0
 33 34  1  0  0  0  0
 33 32  1  0  0  0  0
 34 32  1  0  0  0  0
M  END
>  <MODEL>
1

>  <REMARK>
 VINA RESULT:     -10.5      0.000      0.000
  Name = 
  4 active torsions:
  status: ('A' for Active; 'I' for Inactive)
    1  A    between atoms: C_1  and  C_34
    2  A    between atoms: N_3  and  C_25
    3  A    between atoms: C_7  and  C_11
    4  A    between atoms: C_8  and  N_18
                            x       y       z     vdW  Elec       q    Type
                         _______ _______ _______ _____ _____    ______ ____

>  <TORSDO>
F 4

$$$$
=
 OpenBabel10272415283D

 34 39  0  0  0  0  0  0  0  0999 V2000
  188.0470  177.9030  144.8160 C   0  0  0  0  0  0  0  0  0  0  0  0
  190.6510  176.9960  146.6120 C   0  0  0  0  0  1  0  0  0  0  0  0
  185.6500  178.2940  145.2480 C   0  0  0  0  0  0  0  0  0  0  0  0
  186.7490  178.2110  144.3590 C   0  0  0  0  0  3  0  0  0  0  0  0
  187.1340  177.7600  147.0550 C   0  0  0  0  0  0  0  0  0  0  0  0
  187.5190  177.4740  148.3110 N   0  0  0  0  0  0  0  0  0  0  0  0
  185.8490  178.0670  146.6210 C   0  0  0  0  0  3  0  0  0  0  0  0
  189.2470  177.2960  147.0060 C   0  0  0  0  0  0  0  0  0  0  0  0
  188.1940  177.6730  146.1940 C   0  0  0  0  0  0  0  0  0  0  0  0
  188.7950  177.2000  148.2410 O   0  0  0  0  0  0  0  0  0  0  0  0
  184.0760  178.3040  141.0640 C   0  0  0  0  0  3  0  0  0  0  0  0
  182.5230  178.9980  143.2470 N   0  0  0  0  0  0  0  0  0  0  0  0
  180.8480  179.1070  139.4320 C   0  0  0  0  0  0  0  0  0  0  0  0
  182.1850  178.7220  139.6020 C   0  0  0  0  0  3  0  0  0  0  0  0
  182.7480  178.6850  140.8810 C   0  0  0  0  0  0  0  0  0  0  0  0
  184.3250  178.6130  144.7940 N   0  0  0  0  0  2  0  0  0  0  0  0
  180.6390  179.4180  141.8370 C   0  0  0  0  0  3  0  0  0  0  0  0
  181.9720  179.0350  142.0040 C   0  0  0  0  0  0  0  0  0  0  0  0
  180.0800  179.4540  140.5550 C   0  0  0  0  0  3  0  0  0  0  0  0
  183.8180  178.6310  143.4510 C   0  0  0  0  0  0  0  0  0  0  0  0
  184.6140  178.2750  142.3510 C   0  0  0  0  0  3  0  0  0  0  0  0
  180.2580  179.1440  138.0840 C   0  0  0  0  0  0  0  0  0  0  0  0
  179.9820  180.2450  137.5380 O   0  0  0  0  0  1  0  0  0  0  0  0
  180.0030  177.9610  137.3980 O   0  0  0  0  0  0  0  0  0  0  0  0
  191.5530  178.6180  143.6810 C   0  0  0  0  0  3  0  0  0  0  0  0
  191.9990  177.3850  142.9700 C   0  0  0  0  0  2  0  0  0  0  0  0
  191.2870  177.2170  141.6690 C   0  0  0  0  0  0  0  0  0  0  0  0
  189.9650  177.0560  141.6020 C   0  0  0  0  0  3  0  0  0  0  0  0
  190.3010  178.7970  144.1010 C   0  0  0  0  0  3  0  0  0  0  0  0
  189.0210  177.1570  142.7350 C   0  0  0  0  0  3  0  0  0  0  0  0
  189.1730  177.8670  143.8660 C   0  0  0  0  0  0  0  0  0  0  0  0
  192.0550  177.1200  140.4760 N   0  0  0  0  0  0  0  0  0  0  0  0
  192.2240  176.7660  139.0370 C   0  0  0  0  0  2  0  0  0  0  0  0
  193.3150  177.2920  139.6950 C   0  0  0  0  0  2  0  0  0  0  0  0
  1  9  1  0  0  0  0
  2  8  1  0  0  0  0
  3  7  2  0  0  0  0
  4  1  2  0  0  0  0
  4  3  1  0  0  0  0
  5  6  2  0  0  0  0
  7  5  1  0  0  0  0
  8 10  1  0  0  0  0
  9  8  2  0  0  0  0
  9  5  1  0  0  0  0
 10  6  1  0  0  0  0
 11 21  2  0  0  0  0
 12 20  2  0  0  0  0
 13 14  2  0  0  0  0
 13 19  1  0  0  0  0
 14 15  1  0  0  0  0
 15 11  1  0  0  0  0
 15 18  2  0  0  0  0
 16  3  1  0  0  0  0
 17 18  1  0  0  0  0
 18 12  1  0  0  0  0
 19 17  2  0  0  0  0
 20 16  1  0  0  0  0
 21 20  1  0  0  0  0
 22 13  1  0  0  0  0
 23 22  1  0  0  0  0
 24 22  2  0  0  0  0
 25 29  2  0  0  0  0
 26 25  1  0  0  0  0
 27 26  1  0  0  0  0
 28 27  2  0  0  0  0
 28 30  1  0  0  0  0
 30 31  2  0  0  0  0
 31 29  1  0  0  0  0
 31  1  1  0  0  0  0
 32 27  1  0  0  0  0
 33 34  1  0  0  0  0
 33 32  1  0  0  0  0
 34 32  1  0  0  0  0
M  END
>  <MODEL>
2

>  <REMARK>
 VINA RESULT:      -9.5      2.895      8.882
  Name = 
  4 active torsions:
  status: ('A' for Active; 'I' for Inactive)
    1  A    between atoms: C_1  and  C_34
    2  A    between atoms: N_3  and  C_25
    3  A    between atoms: C_7  and  C_11
    4  A    between atoms: C_8  and  N_18
                            x       y       z     vdW  Elec       q    Type
                         _______ _______ _______ _____ _____    ______ ____

>  <TORSDO>
F 4

$$$$
=
 OpenBabel10272415283D

 34 39  0  0  0  0  0  0  0  0999 V2000
  183.1200  178.7060  141.1190 C   0  0  0  0  0  0  0  0  0  0  0  0
  179.9820  179.3970  141.8260 C   0  0  0  0  0  1  0  0  0  0  0  0
  185.1820  178.3180  142.4160 C   0  0  0  0  0  0  0  0  0  0  0  0
  184.5090  178.4650  141.1800 C   0  0  0  0  0  3  0  0  0  0  0  0
  183.0900  178.6560  143.5400 C   0  0  0  0  0  0  0  0  0  0  0  0
  182.2360  178.8170  144.5650 N   0  0  0  0  0  0  0  0  0  0  0  0
  184.4570  178.4130  143.6170 C   0  0  0  0  0  3  0  0  0  0  0  0
  181.1390  179.0860  142.7090 C   0  0  0  0  0  0  0  0  0  0  0  0
  182.4410  178.8040  142.3440 C   0  0  0  0  0  0  0  0  0  0  0  0
  181.0740  179.0740  144.0270 O   0  0  0  0  0  0  0  0  0  0  0  0
  187.6490  177.3750  146.0230 C   0  0  0  0  0  3  0  0  0  0  0  0
  188.7340  177.6000  143.4870 N   0  0  0  0  0  0  0  0  0  0  0  0
  191.2340  176.7400  146.7090 C   0  0  0  0  0  0  0  0  0  0  0  0
  189.8580  176.9120  146.9130 C   0  0  0  0  0  3  0  0  0  0  0  0
  189.0180  177.2010  145.8340 C   0  0  0  0  0  0  0  0  0  0  0  0
  186.5940  178.0660  142.4900 N   0  0  0  0  0  2  0  0  0  0  0  0
  190.9250  177.1470  144.3300 C   0  0  0  0  0  3  0  0  0  0  0  0
  189.5540  177.3190  144.5350 C   0  0  0  0  0  0  0  0  0  0  0  0
  191.7610  176.8590  145.4130 C   0  0  0  0  0  3  0  0  0  0  0  0
  187.3940  177.7760  143.6470 C   0  0  0  0  0  0  0  0  0  0  0  0
  186.8320  177.6620  144.9290 C   0  0  0  0  0  3  0  0  0  0  0  0
  192.1150  176.4350  147.8480 C   0  0  0  0  0  0  0  0  0  0  0  0
  192.6650  175.3060  147.9450 O   0  0  0  0  0  0  0  0  0  0  0  0
  192.3490  177.3930  148.8280 O   0  0  0  0  0  1  0  0  0  0  0  0
  181.0740  177.4280  138.2440 C   0  0  0  0  0  3  0  0  0  0  0  0
  180.1800  178.5590  137.8590 C   0  0  0  0  0  2  0  0  0  0  0  0
  180.9470  179.6660  137.2170 C   0  0  0  0  0  0  0  0  0  0  0  0
  181.9000  180.3360  137.8660 C   0  0  0  0  0  3  0  0  0  0  0  0
  182.0530  177.5520  139.1390 C   0  0  0  0  0  3  0  0  0  0  0  0
  182.4240  180.0120  139.2090 C   0  0  0  0  0  3  0  0  0  0  0  0
  182.4480  178.8110  139.8110 C   0  0  0  0  0  0  0  0  0  0  0  0
  180.5760  180.0870  135.9090 N   0  0  0  0  0  0  0  0  0  0  0  0
  180.0120  181.0800  134.9500 C   0  0  0  0  0  2  0  0  0  0  0  0
  180.4490  179.8770  134.4380 C   0  0  0  0  0  2  0  0  0  0  0  0
  1  4  2  0  0  0  0
  1  9  1  0  0  0  0
  2  8  1  0  0  0  0
  3 16  1  0  0  0  0
  3  7  2  0  0  0  0
  4  3  1  0  0  0  0
  5  7  1  0  0  0  0
  5  6  2  0  0  0  0
  8 10  1  0  0  0  0
  9  8  2  0  0  0  0
  9  5  1  0  0  0  0
 10  6  1  0  0  0  0
 12 20  2  0  0  0  0
 12 18  1  0  0  0  0
 13 14  1  0  0  0  0
 13 22  1  0  0  0  0
 15 11  1  0  0  0  0
 15 14  2  0  0  0  0
 16 20  1  0  0  0  0
 17 18  2  0  0  0  0
 17 19  1  0  0  0  0
 18 15  1  0  0  0  0
 19 13  2  0  0  0  0
 20 21  1  0  0  0  0
 21 11  2  0  0  0  0
 22 23  2  0  0  0  0
 22 24  1  0  0  0  0
 25 29  2  0  0  0  0
 26 25  1  0  0  0  0
 27 26  1  0  0  0  0
 27 28  2  0  0  0  0
 28 30  1  0  0  0  0
 29 31  1  0  0  0  0
 30 31  2  0  0  0  0
 31  1  1  0  0  0  0
 32 27  1  0  0  0  0
 33 32  1  0  0  0  0
 34 33  1  0  0  0  0
 34 32  1  0  0  0  0
M  END
>  <MODEL>
3

>  <REMARK>
 VINA RESULT:      -9.3      2.503      3.197
  Name = 
  4 active torsions:
  status: ('A' for Active; 'I' for Inactive)
    1  A    between atoms: C_1  and  C_34
    2  A    between atoms: N_3  and  C_25
    3  A    between atoms: C_7  and  C_11
    4  A    between atoms: C_8  and  N_18
                            x       y       z     vdW  Elec       q    Type
                         _______ _______ _______ _____ _____    ______ ____

>  <TORSDO>
F 4

$$$$
=
 OpenBabel10272415283D

 34 39  0  0  0  0  0  0  0  0999 V2000
  189.8740  176.7830  138.1690 C   0  0  0  0  0  0  0  0  0  0  0  0
  189.6700  177.2080  134.9130 C   0  0  0  0  0  1  0  0  0  0  0  0
  188.6230  177.5800  140.1390 C   0  0  0  0  0  0  0  0  0  0  0  0
  189.7000  176.8620  139.5670 C   0  0  0  0  0  3  0  0  0  0  0  0
  187.8860  178.1450  137.9280 C   0  0  0  0  0  0  0  0  0  0  0  0
  187.1420  178.7240  136.9700 N   0  0  0  0  0  0  0  0  0  0  0  0
  187.6980  178.2290  139.3030 C   0  0  0  0  0  3  0  0  0  0  0  0
  188.7870  177.6720  136.0170 C   0  0  0  0  0  0  0  0  0  0  0  0
  188.9330  177.4570  137.3750 C   0  0  0  0  0  0  0  0  0  0  0  0
  187.7140  178.4170  135.8360 O   0  0  0  0  0  0  0  0  0  0  0  0
  191.5180  176.5690  143.3920 C   0  0  0  0  0  3  0  0  0  0  0  0
  188.9460  177.4550  143.9020 N   0  0  0  0  0  0  0  0  0  0  0  0
  191.4630  176.5440  147.0970 C   0  0  0  0  0  0  0  0  0  0  0  0
  191.9200  176.4020  145.7790 C   0  0  0  0  0  3  0  0  0  0  0  0
  191.0770  176.7060  144.7070 C   0  0  0  0  0  0  0  0  0  0  0  0
  188.4320  177.6630  141.5610 N   0  0  0  0  0  2  0  0  0  0  0  0
  189.3080  177.3030  146.2600 C   0  0  0  0  0  3  0  0  0  0  0  0
  189.7630  177.1590  144.9480 C   0  0  0  0  0  0  0  0  0  0  0  0
  190.1550  176.9960  147.3300 C   0  0  0  0  0  3  0  0  0  0  0  0
  189.3530  177.3260  142.6090 C   0  0  0  0  0  0  0  0  0  0  0  0
  190.6560  176.8800  142.3390 C   0  0  0  0  0  3  0  0  0  0  0  0
  192.3550  176.2230  148.2230 C   0  0  0  0  0  0  0  0  0  0  0  0
  192.7350  175.0380  148.4180 O   0  0  0  0  0  0  0  0  0  0  0  0
  192.7880  177.2270  149.0820 O   0  0  0  0  0  1  0  0  0  0  0  0
  191.3900  173.8340  136.4080 C   0  0  0  0  0  3  0  0  0  0  0  0
  192.4490  174.4010  135.5250 C   0  0  0  0  0  2  0  0  0  0  0  0
  193.6070  174.9090  136.3170 C   0  0  0  0  0  0  0  0  0  0  0  0
  193.4810  175.9050  137.1950 C   0  0  0  0  0  3  0  0  0  0  0  0
  190.7270  174.5660  137.3040 C   0  0  0  0  0  3  0  0  0  0  0  0
  192.2120  176.5400  137.6090 C   0  0  0  0  0  3  0  0  0  0  0  0
  190.9850  175.9910  137.6100 C   0  0  0  0  0  0  0  0  0  0  0  0
  194.9020  174.3840  136.0510 N   0  0  0  0  0  0  0  0  0  0  0  0
  196.2630  174.4650  135.4460 C   0  0  0  0  0  2  0  0  0  0  0  0
  195.9490  173.3270  136.1570 C   0  0  0  0  0  2  0  0  0  0  0  0
  1  4  2  0  0  0  0
  2  8  1  0  0  0  0
  3 16  1  0  0  0  0
  4  3  1  0  0  0  0
  5  7  1  0  0  0  0
  6  5  2  0  0  0  0
  7  3  2  0  0  0  0
  8  9  2  0  0  0  0
  9  5  1  0  0  0  0
  9  1  1  0  0  0  0
 10  8  1  0  0  0  0
 10  6  1  0  0  0  0
 11 15  1  0  0  0  0
 12 18  1  0  0  0  0
 13 19  1  0  0  0  0
 13 22  1  0  0  0  0
 14 13  2  0  0  0  0
 15 18  2  0  0  0  0
 15 14  1  0  0  0  0
 16 20  1  0  0  0  0
 17 19  2  0  0  0  0
 18 17  1  0  0  0  0
 20 12  2  0  0  0  0
 21 20  1  0  0  0  0
 21 11  2  0  0  0  0
 22 23  2  0  0  0  0
 22 24  1  0  0  0  0
 25 29  2  0  0  0  0
 26 27  1  0  0  0  0
 26 25  1  0  0  0  0
 27 28  2  0  0  0  0
 28 30  1  0  0  0  0
 29 31  1  0  0  0  0
 30 31  2  0  0  0  0
 31  1  1  0  0  0  0
 32 34  1  0  0  0  0
 32 27  1  0  0  0  0
 33 32  1  0  0  0  0
 33 34  1  0  0  0  0
M  END
>  <MODEL>
4

>  <REMARK>
 VINA RESULT:      -9.2      4.848      6.854
  Name = 
  4 active torsions:
  status: ('A' for Active; 'I' for Inactive)
    1  A    between atoms: C_1  and  C_34
    2  A    between atoms: N_3  and  C_25
    3  A    between atoms: C_7  and  C_11
    4  A    between atoms: C_8  and  N_18
                            x       y       z     vdW  Elec       q    Type
                         _______ _______ _______ _____ _____    ______ ____

>  <TORSDO>
F 4

$$$$
=
 OpenBabel10272415283D

 34 39  0  0  0  0  0  0  0  0999 V2000
  189.7290  176.6640  137.6080 C   0  0  0  0  0  0  0  0  0  0  0  0
  190.5450  176.5410  134.4220 C   0  0  0  0  0  1  0  0  0  0  0  0
  187.8800  177.6290  138.9250 C   0  0  0  0  0  0  0  0  0  0  0  0
  189.1180  176.9470  138.8480 C   0  0  0  0  0  3  0  0  0  0  0  0
  187.8540  177.7550  136.5300 C   0  0  0  0  0  0  0  0  0  0  0  0
  187.4240  178.0920  135.3020 N   0  0  0  0  0  0  0  0  0  0  0  0
  187.2370  178.0370  137.7430 C   0  0  0  0  0  3  0  0  0  0  0  0
  189.3360  177.0800  135.1030 C   0  0  0  0  0  0  0  0  0  0  0  0
  189.0550  177.1010  136.4560 C   0  0  0  0  0  0  0  0  0  0  0  0
  188.3390  177.6700  134.4720 O   0  0  0  0  0  0  0  0  0  0  0  0
  189.5390  177.1460  143.0480 C   0  0  0  0  0  3  0  0  0  0  0  0
  186.9720  178.0620  142.5670 N   0  0  0  0  0  0  0  0  0  0  0  0
  188.2960  177.6640  146.4990 C   0  0  0  0  0  0  0  0  0  0  0  0
  189.1460  177.3360  145.4340 C   0  0  0  0  0  3  0  0  0  0  0  0
  188.7040  177.4680  144.1150 C   0  0  0  0  0  0  0  0  0  0  0  0
  187.2460  177.9170  140.1810 N   0  0  0  0  0  2  0  0  0  0  0  0
  186.5510  178.2630  144.9120 C   0  0  0  0  0  3  0  0  0  0  0  0
  187.3990  177.9340  143.8520 C   0  0  0  0  0  0  0  0  0  0  0  0
  186.9980  178.1270  146.2300 C   0  0  0  0  0  3  0  0  0  0  0  0
  187.7690  177.7510  141.5080 C   0  0  0  0  0  0  0  0  0  0  0  0
  189.0730  177.2870  141.7400 C   0  0  0  0  0  3  0  0  0  0  0  0
  188.7660  177.5240  147.8870 C   0  0  0  0  0  0  0  0  0  0  0  0
  189.9960  177.4120  148.1360 O   0  0  0  0  0  0  0  0  0  0  0  0
  187.8560  177.5150  148.9380 O   0  0  0  0  0  1  0  0  0  0  0  0
  191.9000  173.7110  136.7990 C   0  0  0  0  0  3  0  0  0  0  0  0
  193.1880  174.2860  136.3140 C   0  0  0  0  0  2  0  0  0  0  0  0
  193.9510  174.9280  137.4240 C   0  0  0  0  0  0  0  0  0  0  0  0
  193.4720  175.9730  138.0990 C   0  0  0  0  0  3  0  0  0  0  0  0
  190.9260  174.4560  137.3200 C   0  0  0  0  0  3  0  0  0  0  0  0
  192.1160  176.5450  137.9630 C   0  0  0  0  0  3  0  0  0  0  0  0
  190.9980  175.9140  137.5670 C   0  0  0  0  0  0  0  0  0  0  0  0
  195.2730  174.4770  137.6960 N   0  0  0  0  0  0  0  0  0  0  0  0
  196.3410  173.9960  138.6190 C   0  0  0  0  0  2  0  0  0  0  0  0
  196.6610  174.1220  137.2840 C   0  0  0  0  0  2  0  0  0  0  0  0
  1  4  2  0  0  0  0
  2  8  1  0  0  0  0
  3 16  1  0  0  0  0
  4  3  1  0  0  0  0
  5  7  1  0  0  0  0
  6  5  2  0  0  0  0
  7  3  2  0  0  0  0
  8  9  2  0  0  0  0
  9  5  1  0  0  0  0
  9  1  1  0  0  0  0
 10  8  1  0  0  0  0
 10  6  1  0  0  0  0
 11 15  1  0  0  0  0
 12 18  1  0  0  0  0
 13 22  1  0  0  0  0
 14 13  2  0  0  0  0
 15 14  1  0  0  0  0
 16 20  1  0  0  0  0
 17 19  2  0  0  0  0
 18 15  2  0  0  0  0
 18 17  1  0  0  0  0
 19 13  1  0  0  0  0
 20 21  1  0  0  0  0
 20 12  2  0  0  0  0
 21 11  2  0  0  0  0
 22 23  2  0  0  0  0
 22 24  1  0  0  0  0
 25 29  2  0  0  0  0
 26 25  1  0  0  0  0
 26 27  1  0  0  0  0
 27 32  1  0  0  0  0
 27 28  2  0  0  0  0
 29 31  1  0  0  0  0
 30 28  1  0  0  0  0
 31  1  1  0  0  0  0
 31 30  2  0  0  0  0
 32 33  1  0  0  0  0
 34 32  1  0  0  0  0
 34 33  1  0  0  0  0
M  END
>  <MODEL>
5

>  <REMARK>
 VINA RESULT:      -8.8      5.074      7.343
  Name = 
  4 active torsions:
  status: ('A' for Active; 'I' for Inactive)
    1  A    between atoms: C_1  and  C_34
    2  A    between atoms: N_3  and  C_25
    3  A    between atoms: C_7  and  C_11
    4  A    between atoms: C_8  and  N_18
                            x       y       z     vdW  Elec       q    Type
                         _______ _______ _______ _____ _____    ______ ____

>  <TORSDO>
F 4

$$$$
=
 OpenBabel10272415283D

 34 39  0  0  0  0  0  0  0  0999 V2000
  183.2090  178.0910  140.6820 C   0  0  0  0  0  0  0  0  0  0  0  0
  179.9940  178.7230  140.9880 C   0  0  0  0  0  1  0  0  0  0  0  0
  185.2250  178.4690  142.0530 C   0  0  0  0  0  0  0  0  0  0  0  0
  184.6070  178.0250  140.8590 C   0  0  0  0  0  3  0  0  0  0  0  0
  183.0580  179.0510  142.9010 C   0  0  0  0  0  0  0  0  0  0  0  0
  182.1420  179.5450  143.7510 N   0  0  0  0  0  0  0  0  0  0  0  0
  184.4330  178.9880  143.0930 C   0  0  0  0  0  3  0  0  0  0  0  0
  181.1240  178.9150  141.9380 C   0  0  0  0  0  0  0  0  0  0  0  0
  182.4620  178.6270  141.7430 C   0  0  0  0  0  0  0  0  0  0  0  0
  180.9930  179.4470  143.1370 O   0  0  0  0  0  0  0  0  0  0  0  0
  187.4710  177.1870  145.6990 C   0  0  0  0  0  3  0  0  0  0  0  0
  188.7340  178.0430  143.3900 N   0  0  0  0  0  0  0  0  0  0  0  0
  191.0350  176.9220  146.6790 C   0  0  0  0  0  0  0  0  0  0  0  0
  189.6360  176.8640  146.7460 C   0  0  0  0  0  3  0  0  0  0  0  0
  188.8630  177.2400  145.6450 C   0  0  0  0  0  0  0  0  0  0  0  0
  186.6460  178.4000  142.2460 N   0  0  0  0  0  2  0  0  0  0  0  0
  190.8830  177.7360  144.3900 C   0  0  0  0  0  3  0  0  0  0  0  0
  189.4890  177.6790  144.4600 C   0  0  0  0  0  0  0  0  0  0  0  0
  191.6520  177.3600  145.4960 C   0  0  0  0  0  3  0  0  0  0  0  0
  187.3730  178.0030  143.4190 C   0  0  0  0  0  0  0  0  0  0  0  0
  186.7230  177.5680  144.5850 C   0  0  0  0  0  3  0  0  0  0  0  0
  191.8450  176.5250  147.8410 C   0  0  0  0  0  0  0  0  0  0  0  0
  192.2610  175.3410  147.9550 O   0  0  0  0  0  0  0  0  0  0  0  0
  192.1620  177.4540  148.8250 O   0  0  0  0  0  1  0  0  0  0  0  0
  182.0510  178.3370  137.1200 C   0  0  0  0  0  3  0  0  0  0  0  0
  182.4130  177.0330  136.4940 C   0  0  0  0  0  2  0  0  0  0  0  0
  181.5620  175.9230  137.0140 C   0  0  0  0  0  0  0  0  0  0  0  0
  181.5660  175.5710  138.3000 C   0  0  0  0  0  3  0  0  0  0  0  0
  182.1740  178.5720  138.4260 C   0  0  0  0  0  3  0  0  0  0  0  0
  182.2700  176.2790  139.3900 C   0  0  0  0  0  3  0  0  0  0  0  0
  182.5990  177.5800  139.4410 C   0  0  0  0  0  0  0  0  0  0  0  0
  180.8030  175.1520  136.0890 N   0  0  0  0  0  0  0  0  0  0  0  0
  179.9860  175.0000  134.8510 C   0  0  0  0  0  2  0  0  0  0  0  0
  180.2080  173.8710  135.6090 C   0  0  0  0  0  2  0  0  0  0  0  0
  1  4  2  0  0  0  0
  1  9  1  0  0  0  0
  2  8  1  0  0  0  0
  3 16  1  0  0  0  0
  3  7  2  0  0  0  0
  4  3  1  0  0  0  0
  5  7  1  0  0  0  0
  5  6  2  0  0  0  0
  8 10  1  0  0  0  0
  9  8  2  0  0  0  0
  9  5  1  0  0  0  0
 10  6  1  0  0  0  0
 12 20  2  0  0  0  0
 12 18  1  0  0  0  0
 13 14  1  0  0  0  0
 13 22  1  0  0  0  0
 15 11  1  0  0  0  0
 15 14  2  0  0  0  0
 16 20  1  0  0  0  0
 17 18  2  0  0  0  0
 17 19  1  0  0  0  0
 18 15  1  0  0  0  0
 19 13  2  0  0  0  0
 20 21  1  0  0  0  0
 21 11  2  0  0  0  0
 22 23  2  0  0  0  0
 22 24  1  0  0  0  0
 25 29  2  0  0  0  0
 26 27  1  0  0  0  0
 26 25  1  0  0  0  0
 27 28  2  0  0  0  0
 28 30  1  0  0  0  0
 29 31  1  0  0  0  0
 30 31  2  0  0  0  0
 31  1  1  0  0  0  0
 32 27  1  0  0  0  0
 33 34  1  0  0  0  0
 33 32  1  0  0  0  0
 34 32  1  0  0  0  0
M  END
>  <MODEL>
6

>  <REMARK>
 VINA RESULT:      -8.6      2.162      3.052
  Name = 
  4 active torsions:
  status: ('A' for Active; 'I' for Inactive)
    1  A    between atoms: C_1  and  C_34
    2  A    between atoms: N_3  and  C_25
    3  A    between atoms: C_7  and  C_11
    4  A    between atoms: C_8  and  N_18
                            x       y       z     vdW  Elec       q    Type
                         _______ _______ _______ _____ _____    ______ ____

>  <TORSDO>
F 4

$$$$
=
 OpenBabel10272415283D

 34 39  0  0  0  0  0  0  0  0999 V2000
  184.6710  178.4960  142.0030 C   0  0  0  0  0  0  0  0  0  0  0  0
  181.7300  179.1060  143.3480 C   0  0  0  0  0  1  0  0  0  0  0  0
  186.9810  178.2590  142.8340 C   0  0  0  0  0  0  0  0  0  0  0  0
  186.0500  178.3100  141.7700 C   0  0  0  0  0  3  0  0  0  0  0  0
  185.1690  178.5800  144.3720 C   0  0  0  0  0  0  0  0  0  0  0  0
  184.5510  178.7660  145.5510 N   0  0  0  0  0  0  0  0  0  0  0  0
  186.5300  178.3930  144.1590 C   0  0  0  0  0  3  0  0  0  0  0  0
  183.0650  178.8890  143.9700 C   0  0  0  0  0  0  0  0  0  0  0  0
  184.2700  178.6360  143.3420 C   0  0  0  0  0  0  0  0  0  0  0  0
  183.2880  178.9480  145.2690 O   0  0  0  0  0  0  0  0  0  0  0  0
  189.0660  177.2580  139.0080 C   0  0  0  0  0  3  0  0  0  0  0  0
  190.4110  177.5610  141.4080 N   0  0  0  0  0  0  0  0  0  0  0  0
  192.5610  176.5990  137.9700 C   0  0  0  0  0  0  0  0  0  0  0  0
  191.1710  176.7660  137.9060 C   0  0  0  0  0  3  0  0  0  0  0  0
  190.4480  177.0880  139.0580 C   0  0  0  0  0  0  0  0  0  0  0  0
  188.3870  178.0640  142.6080 N   0  0  0  0  0  2  0  0  0  0  0  0
  192.5020  177.0820  140.3540 C   0  0  0  0  0  3  0  0  0  0  0  0
  191.1170  177.2470  140.2890 C   0  0  0  0  0  0  0  0  0  0  0  0
  193.2210  176.7590  139.1990 C   0  0  0  0  0  3  0  0  0  0  0  0
  189.0600  177.7300  141.3850 C   0  0  0  0  0  0  0  0  0  0  0  0
  188.3680  177.5800  140.1730 C   0  0  0  0  0  3  0  0  0  0  0  0
  193.3180  176.2600  136.7540 C   0  0  0  0  0  0  0  0  0  0  0  0
  192.8990  175.3680  135.9700 O   0  0  0  0  0  0  0  0  0  0  0  0
  194.5040  176.9240  136.4590 O   0  0  0  0  0  1  0  0  0  0  0  0
  181.7940  177.1880  139.9770 C   0  0  0  0  0  3  0  0  0  0  0  0
  181.0410  178.3960  139.5330 C   0  0  0  0  0  2  0  0  0  0  0  0
  181.8040  179.1700  138.5110 C   0  0  0  0  0  0  0  0  0  0  0  0
  182.9870  179.7230  138.7810 C   0  0  0  0  0  3  0  0  0  0  0  0
  182.9690  177.2580  140.6020 C   0  0  0  0  0  3  0  0  0  0  0  0
  183.7620  179.5460  140.0270 C   0  0  0  0  0  3  0  0  0  0  0  0
  183.7270  178.5020  140.8710 C   0  0  0  0  0  0  0  0  0  0  0  0
  181.2020  179.4130  137.2450 N   0  0  0  0  0  0  0  0  0  0  0  0
  180.7670  178.9850  135.8840 C   0  0  0  0  0  2  0  0  0  0  0  0
  180.5180  180.2900  136.2510 C   0  0  0  0  0  2  0  0  0  0  0  0
  1  9  1  0  0  0  0
  2  8  1  0  0  0  0
  3  7  2  0  0  0  0
  4  1  2  0  0  0  0
  4  3  1  0  0  0  0
  5  6  2  0  0  0  0
  7  5  1  0  0  0  0
  8 10  1  0  0  0  0
  9  8  2  0  0  0  0
  9  5  1  0  0  0  0
 10  6  1  0  0  0  0
 11 15  1  0  0  0  0
 11 21  2  0  0  0  0
 13 19  1  0  0  0  0
 14 13  2  0  0  0  0
 14 15  1  0  0  0  0
 15 18  2  0  0  0  0
 16  3  1  0  0  0  0
 18 17  1  0  0  0  0
 18 12  1  0  0  0  0
 19 17  2  0  0  0  0
 20 12  2  0  0  0  0
 20 16  1  0  0  0  0
 21 20  1  0  0  0  0
 22 13  1  0  0  0  0
 23 22  2  0  0  0  0
 24 22  1  0  0  0  0
 25 29  2  0  0  0  0
 26 25  1  0  0  0  0
 27 28  2  0  0  0  0
 27 26  1  0  0  0  0
 28 30  1  0  0  0  0
 29 31  1  0  0  0  0
 30 31  2  0  0  0  0
 31  1  1  0  0  0  0
 32 27  1  0  0  0  0
 33 34  1  0  0  0  0
 33 32  1  0  0  0  0
 34 32  1  0  0  0  0
M  END
>  <MODEL>
7

>  <REMARK>
 VINA RESULT:      -8.5      4.406      6.011
  Name = 
  4 active torsions:
  status: ('A' for Active; 'I' for Inactive)
    1  A    between atoms: C_1  and  C_34
    2  A    between atoms: N_3  and  C_25
    3  A    between atoms: C_7  and  C_11
    4  A    between atoms: C_8  and  N_18
                            x       y       z     vdW  Elec       q    Type
                         _______ _______ _______ _____ _____    ______ ____

>  <TORSDO>
F 4

$$$$
=
 OpenBabel10272415283D

 34 39  0  0  0  0  0  0  0  0999 V2000
  187.9640  177.6790  145.1440 C   0  0  0  0  0  0  0  0  0  0  0  0
  187.0260  178.3810  148.2190 C   0  0  0  0  0  1  0  0  0  0  0  0
  190.0930  177.1330  144.0250 C   0  0  0  0  0  0  0  0  0  0  0  0
  188.7040  177.4000  143.9750 C   0  0  0  0  0  3  0  0  0  0  0  0
  190.0160  177.4220  146.4040 C   0  0  0  0  0  0  0  0  0  0  0  0
  190.4710  177.5150  147.6660 N   0  0  0  0  0  0  0  0  0  0  0  0
  190.7580  177.1410  145.2630 C   0  0  0  0  0  3  0  0  0  0  0  0
  188.3460  177.9680  147.6680 C   0  0  0  0  0  0  0  0  0  0  0  0
  188.6740  177.6880  146.3550 C   0  0  0  0  0  0  0  0  0  0  0  0
  189.4390  177.8440  148.3960 O   0  0  0  0  0  0  0  0  0  0  0  0
  188.7580  177.2560  139.7600 C   0  0  0  0  0  3  0  0  0  0  0  0
  191.3200  176.5200  140.5030 N   0  0  0  0  0  0  0  0  0  0  0  0
  190.2910  176.5350  136.4650 C   0  0  0  0  0  0  0  0  0  0  0  0
  189.3450  176.9000  137.4330 C   0  0  0  0  0  3  0  0  0  0  0  0
  189.6880  176.8950  138.7880 C   0  0  0  0  0  0  0  0  0  0  0  0
  190.8550  176.8420  142.8420 N   0  0  0  0  0  2  0  0  0  0  0  0
  191.9330  176.1610  138.2210 C   0  0  0  0  0  3  0  0  0  0  0  0
  190.9890  176.5240  139.1850 C   0  0  0  0  0  0  0  0  0  0  0  0
  191.5840  176.1660  136.8660 C   0  0  0  0  0  3  0  0  0  0  0  0
  190.4280  176.8660  141.4720 C   0  0  0  0  0  0  0  0  0  0  0  0
  189.1260  177.2430  141.1060 C   0  0  0  0  0  3  0  0  0  0  0  0
  189.9250  176.5420  135.0390 C   0  0  0  0  0  0  0  0  0  0  0  0
  189.7660  177.6310  134.4260 O   0  0  0  0  0  1  0  0  0  0  0  0
  189.7530  175.3450  134.3540 O   0  0  0  0  0  0  0  0  0  0  0  0
  184.4990  178.0620  146.5360 C   0  0  0  0  0  3  0  0  0  0  0  0
  183.8840  179.1820  145.7670 C   0  0  0  0  0  2  0  0  0  0  0  0
  183.6010  178.7840  144.3570 C   0  0  0  0  0  0  0  0  0  0  0  0
  184.5720  178.4310  143.5140 C   0  0  0  0  0  3  0  0  0  0  0  0
  185.6830  177.5360  146.2250 C   0  0  0  0  0  3  0  0  0  0  0  0
  185.9970  178.2470  143.8610 C   0  0  0  0  0  3  0  0  0  0  0  0
  186.5110  177.9120  145.0560 C   0  0  0  0  0  0  0  0  0  0  0  0
  182.2680  178.8870  143.8710 N   0  0  0  0  0  0  0  0  0  0  0  0
  181.2450  179.4080  142.9190 C   0  0  0  0  0  2  0  0  0  0  0  0
  180.8140  178.5600  143.9170 C   0  0  0  0  0  2  0  0  0  0  0  0
  1  9  1  0  0  0  0
  3  7  2  0  0  0  0
  4  3  1  0  0  0  0
  4  1  2  0  0  0  0
  5  6  2  0  0  0  0
  6 10  1  0  0  0  0
  7  5  1  0  0  0  0
  8  2  1  0  0  0  0
  8 10  1  0  0  0  0
  9  5  1  0  0  0  0
  9  8  2  0  0  0  0
 11 21  2  0  0  0  0
 12 20  2  0  0  0  0
 13 19  2  0  0  0  0
 13 14  1  0  0  0  0
 14 15  2  0  0  0  0
 15 18  1  0  0  0  0
 15 11  1  0  0  0  0
 16  3  1  0  0  0  0
 17 18  2  0  0  0  0
 18 12  1  0  0  0  0
 19 17  1  0  0  0  0
 20 16  1  0  0  0  0
 21 20  1  0  0  0  0
 22 13  1  0  0  0  0
 23 22  1  0  0  0  0
 24 22  2  0  0  0  0
 26 25  1  0  0  0  0
 27 26  1  0  0  0  0
 28 30  1  0  0  0  0
 28 27  2  0  0  0  0
 29 25  2  0  0  0  0
 30 31  2  0  0  0  0
 31  1  1  0  0  0  0
 31 29  1  0  0  0  0
 32 34  1  0  0  0  0
 32 27  1  0  0  0  0
 33 32  1  0  0  0  0
 33 34  1  0  0  0  0
M  END
>  <MODEL>
8

>  <REMARK>
 VINA RESULT:      -8.4      4.305      8.873
  Name = 
  4 active torsions:
  status: ('A' for Active; 'I' for Inactive)
    1  A    between atoms: C_1  and  C_34
    2  A    between atoms: N_3  and  C_25
    3  A    between atoms: C_7  and  C_11
    4  A    between atoms: C_8  and  N_18
                            x       y       z     vdW  Elec       q    Type
                         _______ _______ _______ _____ _____    ______ ____

>  <TORSDO>
F 4

$$$$
=
 OpenBabel10272415283D

 34 39  0  0  0  0  0  0  0  0999 V2000
  186.7270  178.3000  144.1460 C   0  0  0  0  0  0  0  0  0  0  0  0
  185.1790  178.3830  147.0490 C   0  0  0  0  0  1  0  0  0  0  0  0
  186.0950  178.6830  141.7930 C   0  0  0  0  0  0  0  0  0  0  0  0
  187.0460  178.3090  142.7720 C   0  0  0  0  0  3  0  0  0  0  0  0
  184.4990  179.0390  143.5470 C   0  0  0  0  0  0  0  0  0  0  0  0
  183.3170  179.3220  144.1210 N   0  0  0  0  0  0  0  0  0  0  0  0
  184.7990  179.0570  142.1900 C   0  0  0  0  0  3  0  0  0  0  0  0
  184.7100  178.7300  145.6790 C   0  0  0  0  0  0  0  0  0  0  0  0
  185.4180  178.6700  144.4930 C   0  0  0  0  0  0  0  0  0  0  0  0
  183.4830  179.1250  145.4020 O   0  0  0  0  0  0  0  0  0  0  0  0
  189.5680  176.7960  139.7040 C   0  0  0  0  0  3  0  0  0  0  0  0
  187.6500  178.2810  138.3720 N   0  0  0  0  0  0  0  0  0  0  0  0
  190.8180  176.6380  136.2200 C   0  0  0  0  0  0  0  0  0  0  0  0
  190.7290  176.4380  137.6040 C   0  0  0  0  0  3  0  0  0  0  0  0
  189.6680  176.9880  138.3280 C   0  0  0  0  0  0  0  0  0  0  0  0
  186.4100  178.7020  140.3910 N   0  0  0  0  0  2  0  0  0  0  0  0
  188.7670  177.9460  136.2850 C   0  0  0  0  0  3  0  0  0  0  0  0
  188.6810  177.7470  137.6650 C   0  0  0  0  0  0  0  0  0  0  0  0
  189.8320  177.3940  135.5660 C   0  0  0  0  0  3  0  0  0  0  0  0
  187.5310  178.1100  139.7170 C   0  0  0  0  0  0  0  0  0  0  0  0
  188.4980  177.3570  140.4030 C   0  0  0  0  0  3  0  0  0  0  0  0
  191.9370  176.0560  135.4620 C   0  0  0  0  0  0  0  0  0  0  0  0
  191.7360  175.5070  134.3460 O   0  0  0  0  0  0  0  0  0  0  0  0
  193.2300  176.1080  135.9700 O   0  0  0  0  0  1  0  0  0  0  0  0
  188.1690  178.0660  147.6030 C   0  0  0  0  0  3  0  0  0  0  0  0
  188.8360  176.7340  147.6660 C   0  0  0  0  0  2  0  0  0  0  0  0
  190.0660  176.6980  146.8210 C   0  0  0  0  0  0  0  0  0  0  0  0
  190.0210  176.8720  145.5000 C   0  0  0  0  0  3  0  0  0  0  0  0
  187.6660  178.5710  146.4780 C   0  0  0  0  0  3  0  0  0  0  0  0
  188.8270  177.2520  144.7160 C   0  0  0  0  0  3  0  0  0  0  0  0
  187.7570  177.9450  145.1390 C   0  0  0  0  0  0  0  0  0  0  0  0
  191.3060  176.3650  147.4320 N   0  0  0  0  0  0  0  0  0  0  0  0
  192.5060  175.4950  147.5990 C   0  0  0  0  0  2  0  0  0  0  0  0
  192.4130  176.6110  148.4010 C   0  0  0  0  0  2  0  0  0  0  0  0
  1  9  1  0  0  0  0
  1 31  1  0  0  0  0
  3  7  2  0  0  0  0
  3  4  1  0  0  0  0
  4  1  2  0  0  0  0
  5  6  2  0  0  0  0
  5  9  1  0  0  0  0
  6 10  1  0  0  0  0
  7  5  1  0  0  0  0
  8  2  1  0  0  0  0
  9  8  2  0  0  0  0
 10  8  1  0  0  0  0
 11 21  2  0  0  0  0
 12 20  2  0  0  0  0
 13 14  1  0  0  0  0
 14 15  2  0  0  0  0
 15 11  1  0  0  0  0
 16  3  1  0  0  0  0
 17 18  2  0  0  0  0
 18 15  1  0  0  0  0
 18 12  1  0  0  0  0
 19 13  2  0  0  0  0
 19 17  1  0  0  0  0
 20 16  1  0  0  0  0
 20 21  1  0  0  0  0
 22 24  1  0  0  0  0
 22 13  1  0  0  0  0
 23 22  2  0  0  0  0
 25 26  1  0  0  0  0
 27 32  1  0  0  0  0
 27 26  1  0  0  0  0
 28 27  2  0  0  0  0
 29 25  2  0  0  0  0
 30 31  2  0  0  0  0
 30 28  1  0  0  0  0
 31 29  1  0  0  0  0
 32 33  1  0  0  0  0
 32 34  1  0  0  0  0
 33 34  1  0  0  0  0
M  END
>  <MODEL>
9

>  <REMARK>
 VINA RESULT:      -8.4      3.878      8.722
  Name = 
  4 active torsions:
  status: ('A' for Active; 'I' for Inactive)
    1  A    between atoms: C_1  and  C_34
    2  A    between atoms: N_3  and  C_25
    3  A    between atoms: C_7  and  C_11
    4  A    between atoms: C_8  and  N_18
                            x       y       z     vdW  Elec       q    Type
                         _______ _______ _______ _____ _____    ______ ____

>  <TORSDO>
F 4

$$$$
