=
 OpenBabel10272413483D

 30 34  0  0  1  0  0  0  0  0999 V2000
  185.1310  176.9880  135.9820 C   0  0  0  0  0  2  0  0  0  0  0  0
  184.8570  178.8080  138.7050 C   0  0  0  0  0  0  0  0  0  0  0  0
  180.6580  175.8450  134.5500 C   0  0  0  0  0  2  0  0  0  0  0  0
  185.7800  175.7860  135.3080 C   0  0  0  0  0  2  0  0  0  0  0  0
  184.6840  176.6680  137.3990 C   0  0  0  0  0  2  0  0  0  0  0  0
  188.5050  172.5890  135.9350 C   0  0  0  0  0  2  0  0  0  0  0  0
  182.7970  172.2320  135.4780 O   0  0  0  0  0  0  0  0  0  0  0  0
  187.1290  175.4200  135.9370 C   0  0  1  0  0  0  0  0  0  0  0  0
  187.1660  173.1480  136.3730 C   0  0  0  0  0  0  0  0  0  0  0  0
  181.9920  175.3020  135.0740 C   0  0  0  0  0  2  0  0  0  0  0  0
  179.9820  176.8840  135.4550 C   0  0  0  0  0  2  0  0  0  0  0  0
  187.1740  174.4370  136.9520 O   0  0  0  0  0  0  0  0  0  0  0  0
  188.1830  175.3280  135.0080 O   0  0  0  0  0  0  0  0  0  0  0  0
  184.3150  179.9640  139.1640 N   0  0  0  0  0  0  0  0  0  0  0  0
  183.5370  172.8310  136.3030 C   0  0  0  0  0  0  0  0  0  0  0  0
  183.1470  174.0870  136.8570 N   0  0  0  0  0  2  0  0  0  0  0  0
  187.8730  172.1260  137.2380 C   0  0  0  0  0  2  0  0  0  0  0  0
  186.2430  178.5550  138.9200 N   0  0  0  0  0  1  0  0  0  0  0  0
  182.6960  178.1970  137.8200 C   0  0  0  0  0  0  0  0  0  0  0  0
  183.0040  180.2520  138.9590 C   0  0  0  0  0  3  0  0  0  0  0  0
  185.9100  172.6270  135.6800 C   0  0  0  0  0  2  0  0  0  0  0  0
  184.0580  177.8840  138.0120 C   0  0  0  0  0  0  0  0  0  0  0  0
  181.6400  175.8490  137.5820 C   0  0  0  0  0  2  0  0  0  0  0  0
  180.9660  177.7630  136.1680 C   0  0  0  0  0  3  0  0  0  0  0  0
  181.9120  174.7740  136.5130 C   0  0  1  0  0  3  0  0  0  0  0  0
  184.8450  172.2460  136.6940 C   0  0  0  0  0  2  0  0  0  0  0  0
  188.2670  176.3790  135.9460 C   0  0  1  0  0  3  0  0  0  0  0  0
  182.2110  179.3770  138.2910 N   0  0  0  0  0  0  0  0  0  0  0  0
  181.7710  177.2820  137.1220 C   0  0  0  0  0  0  0  0  0  0  0  0
  187.9490  177.5820  135.3130 O   0  0  0  0  0  1  0  0  0  0  0  0
  1  5  1  0  0  0  0
  2 18  1  0  0  0  0
  2 14  1  0  0  0  0
  3 10  1  0  0  0  0
  3 11  1  0  0  0  0
  4  1  1  0  0  0  0
  5 22  1  0  0  0  0
  6  9  1  0  0  0  0
  6 17  1  0  0  0  0
  7 15  2  0  0  0  0
  8  4  1  6  0  0  0
  8 27  1  0  0  0  0
  8 12  1  0  0  0  0
  9 12  1  0  0  0  0
  9 17  1  0  0  0  0
 11 24  1  0  0  0  0
 13  8  1  0  0  0  0
 13 27  1  0  0  0  0
 15 26  1  0  0  0  0
 15 16  1  0  0  0  0
 19 22  1  0  0  0  0
 19 28  2  0  0  0  0
 20 14  2  0  0  0  0
 21  9  1  0  0  0  0
 21 26  1  0  0  0  0
 22  2  2  0  0  0  0
 24 29  2  0  0  0  0
 25 10  1  6  0  0  0
 25 16  1  0  0  0  0
 25 23  1  0  0  0  0
 27 30  1  6  0  0  0
 28 20  1  0  0  0  0
 29 23  1  0  0  0  0
 29 19  1  0  0  0  0
M  END
>  <MODEL>
1

>  <REMARK>
 VINA RESULT:      -5.8      0.000      0.000
  Name = 
  0 active torsions:
  status: ('A' for Active; 'I' for Inactive)
                            x       y       z     vdW  Elec       q    Type
                         _______ _______ _______ _____ _____    ______ ____

>  <TORSDO>
F 0

$$$$
=
 OpenBabel10272413483D

 30 34  0  0  1  0  0  0  0  0999 V2000
  189.0340  174.6660  137.2650 C   0  0  0  0  0  2  0  0  0  0  0  0
  186.8490  176.4340  135.5610 C   0  0  0  0  0  0  0  0  0  0  0  0
  189.8740  177.0080  141.4100 C   0  0  0  0  0  2  0  0  0  0  0  0
  190.3780  173.9480  137.2630 C   0  0  0  0  0  2  0  0  0  0  0  0
  189.1130  176.0140  136.5680 C   0  0  0  0  0  2  0  0  0  0  0  0
  193.7350  173.0130  134.8350 C   0  0  0  0  0  2  0  0  0  0  0  0
  193.5390  176.7620  139.1730 O   0  0  0  0  0  0  0  0  0  0  0  0
  190.7980  173.4990  135.8590 C   0  0  1  0  0  0  0  0  0  0  0  0
  192.9830  174.1600  135.4780 C   0  0  0  0  0  0  0  0  0  0  0  0
  190.4810  176.5260  140.0870 C   0  0  0  0  0  2  0  0  0  0  0  0
  188.6570  177.9320  141.2640 C   0  0  0  0  0  2  0  0  0  0  0  0
  191.6360  174.3370  135.0870 O   0  0  0  0  0  0  0  0  0  0  0  0
  191.1250  172.1320  135.7740 O   0  0  0  0  0  0  0  0  0  0  0  0
  185.5900  176.9360  135.6410 N   0  0  0  0  0  0  0  0  0  0  0  0
  192.9170  176.7120  138.0790 C   0  0  0  0  0  0  0  0  0  0  0  0
  191.5640  177.1560  137.9850 N   0  0  0  0  0  2  0  0  0  0  0  0
  193.9500  174.4360  134.3460 C   0  0  0  0  0  2  0  0  0  0  0  0
  187.2180  175.6530  134.4280 N   0  0  0  0  0  1  0  0  0  0  0  0
  187.3380  177.4420  137.7000 C   0  0  0  0  0  0  0  0  0  0  0  0
  185.1940  177.6650  136.7150 C   0  0  0  0  0  3  0  0  0  0  0  0
  193.4540  174.6500  136.8450 C   0  0  0  0  0  2  0  0  0  0  0  0
  187.7660  176.6720  136.5970 C   0  0  0  0  0  0  0  0  0  0  0  0
  189.5700  178.4160  138.5670 C   0  0  0  0  0  2  0  0  0  0  0  0
  187.8010  177.5860  140.0820 C   0  0  0  0  0  3  0  0  0  0  0  0
  190.8020  177.6680  139.1120 C   0  0  1  0  0  3  0  0  0  0  0  0
  193.5810  176.1640  136.8680 C   0  0  0  0  0  2  0  0  0  0  0  0
  189.9740  172.5440  135.0690 C   0  0  1  0  0  3  0  0  0  0  0  0
  186.0600  177.9080  137.7300 N   0  0  0  0  0  0  0  0  0  0  0  0
  188.2330  177.7630  138.8290 C   0  0  0  0  0  0  0  0  0  0  0  0
  188.8390  172.1250  135.7660 O   0  0  0  0  0  1  0  0  0  0  0  0
  2 14  2  0  0  0  0
  2 22  1  0  0  0  0
  4  1  1  0  0  0  0
  5 22  1  0  0  0  0
  5  1  1  0  0  0  0
  6  9  1  0  0  0  0
  8  4  1  1  0  0  0
  9 21  1  0  0  0  0
 10  3  1  0  0  0  0
 11  3  1  0  0  0  0
 12  9  1  0  0  0  0
 12  8  1  0  0  0  0
 13  8  1  0  0  0  0
 14 20  1  0  0  0  0
 15  7  2  0  0  0  0
 16 15  1  0  0  0  0
 16 25  1  0  0  0  0
 17  6  1  0  0  0  0
 17  9  1  0  0  0  0
 18  2  1  0  0  0  0
 19 28  1  0  0  0  0
 19 29  1  0  0  0  0
 20 28  2  0  0  0  0
 21 26  1  0  0  0  0
 22 19  2  0  0  0  0
 23 29  1  0  0  0  0
 24 11  1  0  0  0  0
 25 23  1  6  0  0  0
 25 10  1  0  0  0  0
 26 15  1  0  0  0  0
 27 30  1  1  0  0  0
 27 13  1  0  0  0  0
 27  8  1  0  0  0  0
 29 24  2  0  0  0  0
M  END
>  <MODEL>
2

>  <REMARK>
 VINA RESULT:      -5.6      4.054      7.179
  Name = 
  0 active torsions:
  status: ('A' for Active; 'I' for Inactive)
                            x       y       z     vdW  Elec       q    Type
                         _______ _______ _______ _____ _____    ______ ____

>  <TORSDO>
F 0

$$$$
=
 OpenBabel10272413483D

 30 34  0  0  1  0  0  0  0  0999 V2000
  189.1910  175.8980  136.2390 C   0  0  0  0  0  2  0  0  0  0  0  0
  188.1260  172.8000  135.9730 C   0  0  0  0  0  0  0  0  0  0  0  0
  193.9030  175.9060  135.1640 C   0  0  0  0  0  2  0  0  0  0  0  0
  189.2640  177.1550  137.0960 C   0  0  0  0  0  2  0  0  0  0  0  0
  189.4500  174.6420  137.0550 C   0  0  0  0  0  2  0  0  0  0  0  0
  188.1140  178.7950  140.8420 C   0  0  0  0  0  2  0  0  0  0  0  0
  193.3900  177.2290  139.2240 O   0  0  0  0  0  0  0  0  0  0  0  0
  188.1100  177.2460  138.1010 C   0  0  1  0  0  0  0  0  0  0  0  0
  188.9700  177.7250  140.1950 C   0  0  0  0  0  0  0  0  0  0  0  0
  192.8590  176.1470  136.2600 C   0  0  0  0  0  2  0  0  0  0  0  0
  193.8790  174.5030  134.5440 C   0  0  0  0  0  2  0  0  0  0  0  0
  188.2980  176.7570  139.4150 O   0  0  0  0  0  0  0  0  0  0  0  0
  187.3990  178.4590  138.0410 O   0  0  0  0  0  0  0  0  0  0  0  0
  188.0200  171.7830  135.0800 N   0  0  0  0  0  0  0  0  0  0  0  0
  192.3220  176.5740  139.3470 C   0  0  0  0  0  0  0  0  0  0  0  0
  192.0200  175.4950  138.4630 N   0  0  0  0  0  2  0  0  0  0  0  0
  188.6190  177.6210  141.6650 C   0  0  0  0  0  2  0  0  0  0  0  0
  186.9710  173.2160  136.6960 N   0  0  0  0  0  1  0  0  0  0  0  0
  190.4660  172.9900  135.4080 C   0  0  0  0  0  0  0  0  0  0  0  0
  189.0910  171.3720  134.3560 C   0  0  0  0  0  3  0  0  0  0  0  0
  190.4360  178.0500  139.9170 C   0  0  0  0  0  2  0  0  0  0  0  0
  189.3610  173.4400  136.1630 C   0  0  0  0  0  0  0  0  0  0  0  0
  192.4520  173.6740  136.9150 C   0  0  0  0  0  2  0  0  0  0  0  0
  192.4960  173.9290  134.4550 C   0  0  0  0  0  3  0  0  0  0  0  0
  192.8800  175.0830  137.3660 C   0  0  1  0  0  3  0  0  0  0  0  0
  191.3440  176.9340  140.4060 C   0  0  0  0  0  2  0  0  0  0  0  0
  186.6920  177.3010  137.6530 C   0  0  1  0  0  3  0  0  0  0  0  0
  190.2960  171.9750  134.5190 N   0  0  0  0  0  0  0  0  0  0  0  0
  191.8090  173.5860  135.5510 C   0  0  0  0  0  0  0  0  0  0  0  0
  186.5780  177.2820  136.2620 O   0  0  0  0  0  1  0  0  0  0  0  0
  1  5  1  0  0  0  0
  1  4  1  0  0  0  0
  2 22  1  0  0  0  0
  2 18  1  0  0  0  0
  3 10  1  0  0  0  0
  6 17  1  0  0  0  0
  7 15  2  0  0  0  0
  8  4  1  6  0  0  0
  8 12  1  0  0  0  0
  9  6  1  0  0  0  0
  9 17  1  0  0  0  0
 11  3  1  0  0  0  0
 12  9  1  0  0  0  0
 13  8  1  0  0  0  0
 14  2  2  0  0  0  0
 15 26  1  0  0  0  0
 16 15  1  0  0  0  0
 19 29  1  0  0  0  0
 19 22  2  0  0  0  0
 20 28  2  0  0  0  0
 20 14  1  0  0  0  0
 21  9  1  0  0  0  0
 21 26  1  0  0  0  0
 22  5  1  0  0  0  0
 23 25  1  0  0  0  0
 24 11  1  0  0  0  0
 24 29  2  0  0  0  0
 25 10  1  6  0  0  0
 25 16  1  0  0  0  0
 27 30  1  6  0  0  0
 27 13  1  0  0  0  0
 27  8  1  0  0  0  0
 28 19  1  0  0  0  0
 29 23  1  0  0  0  0
M  END
>  <MODEL>
3

>  <REMARK>
 VINA RESULT:      -5.5      4.475      8.856
  Name = 
  0 active torsions:
  status: ('A' for Active; 'I' for Inactive)
                            x       y       z     vdW  Elec       q    Type
                         _______ _______ _______ _____ _____    ______ ____

>  <TORSDO>
F 0

$$$$
=
 OpenBabel10272413483D

 30 34  0  0  1  0  0  0  0  0999 V2000
  185.2430  177.7250  137.3030 C   0  0  0  0  0  2  0  0  0  0  0  0
  183.7920  174.8550  136.6290 C   0  0  0  0  0  0  0  0  0  0  0  0
  189.6100  177.6610  135.2300 C   0  0  0  0  0  2  0  0  0  0  0  0
  185.6360  178.7400  138.3700 C   0  0  0  0  0  2  0  0  0  0  0  0
  185.5130  176.2990  137.7550 C   0  0  0  0  0  2  0  0  0  0  0  0
  185.4660  179.5370  142.5390 C   0  0  0  0  0  2  0  0  0  0  0  0
  190.0860  178.0330  139.4880 O   0  0  0  0  0  0  0  0  0  0  0  0
  184.7270  178.6730  139.6030 C   0  0  1  0  0  0  0  0  0  0  0  0
  186.0430  178.5910  141.5050 C   0  0  0  0  0  0  0  0  0  0  0  0
  188.8430  177.7110  136.5570 C   0  0  0  0  0  2  0  0  0  0  0  0
  189.2960  176.4450  134.3470 C   0  0  0  0  0  2  0  0  0  0  0  0
  185.1180  177.8800  140.7070 O   0  0  0  0  0  0  0  0  0  0  0  0
  184.1650  179.9130  139.9630 O   0  0  0  0  0  0  0  0  0  0  0  0
  183.3890  174.0830  135.5880 N   0  0  0  0  0  0  0  0  0  0  0  0
  188.9950  177.4430  139.7050 C   0  0  0  0  0  0  0  0  0  0  0  0
  188.3970  176.6220  138.7020 N   0  0  0  0  0  2  0  0  0  0  0  0
  185.9860  178.1720  142.9590 C   0  0  0  0  0  2  0  0  0  0  0  0
  182.8640  175.1690  137.6630 N   0  0  0  0  0  1  0  0  0  0  0  0
  185.9750  175.0110  135.6100 C   0  0  0  0  0  0  0  0  0  0  0  0
  184.2360  173.7800  134.5720 C   0  0  0  0  0  3  0  0  0  0  0  0
  187.4490  178.8710  140.9830 C   0  0  0  0  0  2  0  0  0  0  0  0
  185.1060  175.3470  136.6700 C   0  0  0  0  0  0  0  0  0  0  0  0
  188.2910  175.1860  136.7450 C   0  0  0  0  0  2  0  0  0  0  0  0
  187.8660  176.0040  134.4500 C   0  0  0  0  0  3  0  0  0  0  0  0
  188.9630  176.4200  137.3790 C   0  0  1  0  0  3  0  0  0  0  0  0
  188.3010  177.6120  141.0070 C   0  0  0  0  0  2  0  0  0  0  0  0
  183.2650  178.9280  139.5050 C   0  0  1  0  0  3  0  0  0  0  0  0
  185.5110  174.2440  134.5870 N   0  0  0  0  0  0  0  0  0  0  0  0
  187.3800  175.4630  135.5720 C   0  0  0  0  0  0  0  0  0  0  0  0
  182.8700  179.2410  138.2030 O   0  0  0  0  0  1  0  0  0  0  0  0
  1  5  1  0  0  0  0
  1  4  1  0  0  0  0
  2 22  1  0  0  0  0
  2 18  1  0  0  0  0
  3 10  1  0  0  0  0
  6 17  1  0  0  0  0
  7 15  2  0  0  0  0
  8  4  1  6  0  0  0
  8 13  1  0  0  0  0
  8 12  1  0  0  0  0
  9  6  1  0  0  0  0
  9 17  1  0  0  0  0
 11 24  1  0  0  0  0
 11  3  1  0  0  0  0
 12  9  1  0  0  0  0
 14  2  2  0  0  0  0
 15 26  1  0  0  0  0
 16 15  1  0  0  0  0
 19 22  2  0  0  0  0
 20 28  2  0  0  0  0
 20 14  1  0  0  0  0
 21 26  1  0  0  0  0
 21  9  1  0  0  0  0
 22  5  1  0  0  0  0
 23 25  1  0  0  0  0
 24 29  2  0  0  0  0
 25 10  1  6  0  0  0
 25 16  1  0  0  0  0
 27 30  1  6  0  0  0
 27  8  1  0  0  0  0
 27 13  1  0  0  0  0
 28 19  1  0  0  0  0
 29 19  1  0  0  0  0
 29 23  1  0  0  0  0
M  END
>  <MODEL>
4

>  <REMARK>
 VINA RESULT:      -5.5      3.294      6.942
  Name = 
  0 active torsions:
  status: ('A' for Active; 'I' for Inactive)
                            x       y       z     vdW  Elec       q    Type
                         _______ _______ _______ _____ _____    ______ ____

>  <TORSDO>
F 0

$$$$
=
 OpenBabel10272413483D

 30 34  0  0  1  0  0  0  0  0999 V2000
  183.6220  177.9210  138.1040 C   0  0  0  0  0  2  0  0  0  0  0  0
  182.5460  174.8960  137.4020 C   0  0  0  0  0  0  0  0  0  0  0  0
  187.4500  178.7860  135.2820 C   0  0  0  0  0  2  0  0  0  0  0  0
  184.0490  178.9070  139.1840 C   0  0  0  0  0  2  0  0  0  0  0  0
  184.2000  176.5360  138.3450 C   0  0  0  0  0  2  0  0  0  0  0  0
  184.5740  179.3510  143.3760 C   0  0  0  0  0  2  0  0  0  0  0  0
  188.6870  178.9210  139.3990 O   0  0  0  0  0  0  0  0  0  0  0  0
  183.4220  178.5890  140.5470 C   0  0  1  0  0  0  0  0  0  0  0  0
  185.0810  178.6010  142.1600 C   0  0  0  0  0  0  0  0  0  0  0  0
  186.9610  178.6000  136.7230 C   0  0  0  0  0  2  0  0  0  0  0  0
  187.1680  177.6030  134.3460 C   0  0  0  0  0  2  0  0  0  0  0  0
  184.1430  177.7990  141.4710 O   0  0  0  0  0  0  0  0  0  0  0  0
  182.7500  179.6800  141.1320 O   0  0  0  0  0  0  0  0  0  0  0  0
  182.0750  174.1440  136.3740 N   0  0  0  0  0  0  0  0  0  0  0  0
  187.7680  178.1320  139.7450 C   0  0  0  0  0  0  0  0  0  0  0  0
  187.1240  177.2940  138.7850 N   0  0  0  0  0  2  0  0  0  0  0  0
  185.3790  178.0730  143.5480 C   0  0  0  0  0  2  0  0  0  0  0  0
  181.8000  174.9640  138.6140 N   0  0  0  0  0  1  0  0  0  0  0  0
  184.4330  175.5120  136.0280 C   0  0  0  0  0  0  0  0  0  0  0  0
  182.7440  174.0720  135.1960 C   0  0  0  0  0  3  0  0  0  0  0  0
  186.2950  179.1640  141.4250 C   0  0  0  0  0  2  0  0  0  0  0  0
  183.7460  175.6090  137.2570 C   0  0  0  0  0  0  0  0  0  0  0  0
  186.8680  176.0110  136.7380 C   0  0  0  0  0  2  0  0  0  0  0  0
  185.8760  176.9080  134.6580 C   0  0  0  0  0  3  0  0  0  0  0  0
  187.4450  177.2940  137.3670 C   0  0  1  0  0  3  0  0  0  0  0  0
  187.3250  178.0780  141.1620 C   0  0  0  0  0  2  0  0  0  0  0  0
  181.9470  178.5870  140.7430 C   0  0  1  0  0  3  0  0  0  0  0  0
  183.9060  174.7530  135.0300 N   0  0  0  0  0  0  0  0  0  0  0  0
  185.7120  176.2080  135.7850 C   0  0  0  0  0  0  0  0  0  0  0  0
  181.2600  178.9210  139.5740 O   0  0  0  0  0  1  0  0  0  0  0  0
  1  5  1  0  0  0  0
  1  4  1  0  0  0  0
  2 18  1  0  0  0  0
  3 10  1  0  0  0  0
  6 17  1  0  0  0  0
  7 15  2  0  0  0  0
  8  4  1  6  0  0  0
  8 27  1  0  0  0  0
  8 13  1  0  0  0  0
  8 12  1  0  0  0  0
  9  6  1  0  0  0  0
  9 17  1  0  0  0  0
 11 24  1  0  0  0  0
 11  3  1  0  0  0  0
 12  9  1  0  0  0  0
 14  2  2  0  0  0  0
 15 26  1  0  0  0  0
 16 15  1  0  0  0  0
 19 22  2  0  0  0  0
 20 14  1  0  0  0  0
 21  9  1  0  0  0  0
 22  2  1  0  0  0  0
 22  5  1  0  0  0  0
 23 25  1  0  0  0  0
 24 29  2  0  0  0  0
 25 10  1  6  0  0  0
 25 16  1  0  0  0  0
 26 21  1  0  0  0  0
 27 30  1  6  0  0  0
 27 13  1  0  0  0  0
 28 20  2  0  0  0  0
 28 19  1  0  0  0  0
 29 19  1  0  0  0  0
 29 23  1  0  0  0  0
M  END
>  <MODEL>
5

>  <REMARK>
 VINA RESULT:      -5.5      3.361      6.811
  Name = 
  0 active torsions:
  status: ('A' for Active; 'I' for Inactive)
                            x       y       z     vdW  Elec       q    Type
                         _______ _______ _______ _____ _____    ______ ____

>  <TORSDO>
F 0

$$$$
=
 OpenBabel10272413483D

 30 34  0  0  1  0  0  0  0  0999 V2000
  186.2160  178.2790  137.0830 C   0  0  0  0  0  2  0  0  0  0  0  0
  185.0580  178.7890  140.1160 C   0  0  0  0  0  0  0  0  0  0  0  0
  182.5100  176.8160  134.3460 C   0  0  0  0  0  2  0  0  0  0  0  0
  187.2740  177.6100  136.2140 C   0  0  0  0  0  2  0  0  0  0  0  0
  185.6980  177.3430  138.1630 C   0  0  0  0  0  2  0  0  0  0  0  0
  190.7080  175.1130  136.3450 C   0  0  0  0  0  2  0  0  0  0  0  0
  185.4720  173.7000  134.4740 O   0  0  0  0  0  0  0  0  0  0  0  0
  188.5740  177.3390  136.9800 C   0  0  1  0  0  0  0  0  0  0  0  0
  189.2180  175.1450  136.6200 C   0  0  0  0  0  0  0  0  0  0  0  0
  183.8630  176.4240  134.9530 C   0  0  0  0  0  2  0  0  0  0  0  0
  181.4440  177.2440  135.3640 C   0  0  0  0  0  2  0  0  0  0  0  0
  188.7690  176.0760  137.5850 O   0  0  0  0  0  0  0  0  0  0  0  0
  189.7230  177.8520  136.3480 O   0  0  0  0  0  0  0  0  0  0  0  0
  184.1430  179.5240  140.7980 N   0  0  0  0  0  0  0  0  0  0  0  0
  185.8860  174.0820  135.6010 C   0  0  0  0  0  0  0  0  0  0  0  0
  185.0730  174.9030  136.4380 N   0  0  0  0  0  2  0  0  0  0  0  0
  190.0720  174.0530  137.2300 C   0  0  0  0  0  2  0  0  0  0  0  0
  186.4150  178.7870  140.5510 N   0  0  0  0  0  1  0  0  0  0  0  0
  183.3100  178.1040  138.5980 C   0  0  0  0  0  0  0  0  0  0  0  0
  182.8460  179.5700  140.4020 C   0  0  0  0  0  3  0  0  0  0  0  0
  188.2750  174.6690  135.5190 C   0  0  0  0  0  2  0  0  0  0  0  0
  184.6660  178.0530  138.9860 C   0  0  0  0  0  0  0  0  0  0  0  0
  183.0320  175.8620  137.3420 C   0  0  0  0  0  2  0  0  0  0  0  0
  182.0220  177.9730  136.5400 C   0  0  0  0  0  3  0  0  0  0  0  0
  183.7490  175.3750  136.0680 C   0  0  1  0  0  3  0  0  0  0  0  0
  187.2430  173.6970  136.0660 C   0  0  0  0  0  2  0  0  0  0  0  0
  189.3690  178.4460  137.5780 C   0  0  1  0  0  3  0  0  0  0  0  0
  182.4410  178.8690  139.3130 N   0  0  0  0  0  0  0  0  0  0  0  0
  182.7970  177.3520  137.4360 C   0  0  0  0  0  0  0  0  0  0  0  0
  188.7990  179.6970  137.3320 O   0  0  0  0  0  1  0  0  0  0  0  0
  1  5  1  0  0  0  0
  2 18  1  0  0  0  0
  2 14  1  0  0  0  0
  3 10  1  0  0  0  0
  3 11  1  0  0  0  0
  4  1  1  0  0  0  0
  5 22  1  0  0  0  0
  6  9  1  0  0  0  0
  6 17  1  0  0  0  0
  7 15  2  0  0  0  0
  8  4  1  6  0  0  0
  8 27  1  0  0  0  0
  8 12  1  0  0  0  0
  9 17  1  0  0  0  0
  9 12  1  0  0  0  0
 11 24  1  0  0  0  0
 13  8  1  0  0  0  0
 13 27  1  0  0  0  0
 15 26  1  0  0  0  0
 15 16  1  0  0  0  0
 19 22  1  0  0  0  0
 19 28  2  0  0  0  0
 20 14  2  0  0  0  0
 21 26  1  0  0  0  0
 21  9  1  0  0  0  0
 22  2  2  0  0  0  0
 23 29  1  0  0  0  0
 24 29  2  0  0  0  0
 25 10  1  6  0  0  0
 25 16  1  0  0  0  0
 25 23  1  0  0  0  0
 27 30  1  6  0  0  0
 28 20  1  0  0  0  0
 29 19  1  0  0  0  0
M  END
>  <MODEL>
6

>  <REMARK>
 VINA RESULT:      -5.4      1.843      2.276
  Name = 
  0 active torsions:
  status: ('A' for Active; 'I' for Inactive)
                            x       y       z     vdW  Elec       q    Type
                         _______ _______ _______ _____ _____    ______ ____

>  <TORSDO>
F 0

$$$$
=
 OpenBabel10272413483D

 30 34  0  0  1  0  0  0  0  0999 V2000
  183.9650  176.7850  138.4010 C   0  0  0  0  0  2  0  0  0  0  0  0
  187.1700  177.3520  137.9500 C   0  0  0  0  0  0  0  0  0  0  0  0
  182.4740  173.9470  134.7840 C   0  0  0  0  0  2  0  0  0  0  0  0
  182.5860  177.3790  138.6590 C   0  0  0  0  0  2  0  0  0  0  0  0
  184.7380  177.5840  137.3640 C   0  0  0  0  0  2  0  0  0  0  0  0
  180.5090  181.0370  139.2530 C   0  0  0  0  0  2  0  0  0  0  0  0
  180.3440  177.6790  134.6040 O   0  0  0  0  0  0  0  0  0  0  0  0
  182.6570  178.7380  139.3660 C   0  0  1  0  0  0  0  0  0  0  0  0
  181.3100  180.2450  138.2390 C   0  0  0  0  0  0  0  0  0  0  0  0
  182.3460  175.3270  135.4400 C   0  0  0  0  0  2  0  0  0  0  0  0
  183.8950  173.5680  134.3460 C   0  0  0  0  0  2  0  0  0  0  0  0
  182.6400  179.9210  138.5920 O   0  0  0  0  0  0  0  0  0  0  0  0
  181.8770  178.8120  140.5360 O   0  0  0  0  0  0  0  0  0  0  0  0
  188.3610  176.7100  137.8400 N   0  0  0  0  0  0  0  0  0  0  0  0
  181.2920  178.2950  135.1610 C   0  0  0  0  0  0  0  0  0  0  0  0
  182.6080  177.7450  135.1830 N   0  0  0  0  0  2  0  0  0  0  0  0
  181.1140  181.7340  138.0450 C   0  0  0  0  0  2  0  0  0  0  0  0
  187.0360  178.4140  138.8910 N   0  0  0  0  0  1  0  0  0  0  0  0
  186.2750  175.8920  136.2490 C   0  0  0  0  0  0  0  0  0  0  0  0
  188.5230  175.6790  136.9720 C   0  0  0  0  0  3  0  0  0  0  0  0
  180.5470  179.3730  137.2450 C   0  0  0  0  0  2  0  0  0  0  0  0
  186.0840  176.9580  137.1530 C   0  0  0  0  0  0  0  0  0  0  0  0
  184.4890  176.3940  134.4490 C   0  0  0  0  0  2  0  0  0  0  0  0
  184.9510  174.1050  135.2660 C   0  0  0  0  0  3  0  0  0  0  0  0
  182.9570  176.4580  134.6030 C   0  0  1  0  0  3  0  0  0  0  0  0
  181.0430  179.6000  135.8270 C   0  0  0  0  0  2  0  0  0  0  0  0
  183.2750  178.8830  140.7110 C   0  0  1  0  0  3  0  0  0  0  0  0
  187.4880  175.2770  136.1920 N   0  0  0  0  0  0  0  0  0  0  0  0
  185.2000  175.4160  135.3560 C   0  0  0  0  0  0  0  0  0  0  0  0
  183.7340  177.6640  141.2150 O   0  0  0  0  0  1  0  0  0  0  0  0
  1  4  1  0  0  0  0
  2 18  1  0  0  0  0
  3 10  1  0  0  0  0
  5  1  1  0  0  0  0
  7 15  2  0  0  0  0
  8  4  1  6  0  0  0
  8 13  1  0  0  0  0
  8 27  1  0  0  0  0
  9 12  1  0  0  0  0
  9  6  1  0  0  0  0
 11  3  1  0  0  0  0
 11 24  1  0  0  0  0
 12  8  1  0  0  0  0
 13 27  1  0  0  0  0
 14  2  1  0  0  0  0
 15 16  1  0  0  0  0
 15 26  1  0  0  0  0
 17  9  1  0  0  0  0
 17  6  1  0  0  0  0
 19 22  1  0  0  0  0
 20 14  2  0  0  0  0
 21  9  1  0  0  0  0
 22  5  1  0  0  0  0
 22  2  2  0  0  0  0
 23 29  1  0  0  0  0
 24 29  2  0  0  0  0
 25 23  1  1  0  0  0
 25 16  1  0  0  0  0
 25 10  1  0  0  0  0
 26 21  1  0  0  0  0
 27 30  1  1  0  0  0
 28 19  2  0  0  0  0
 28 20  1  0  0  0  0
 29 19  1  0  0  0  0
M  END
>  <MODEL>
7

>  <REMARK>
 VINA RESULT:      -5.3      3.171      6.331
  Name = 
  0 active torsions:
  status: ('A' for Active; 'I' for Inactive)
                            x       y       z     vdW  Elec       q    Type
                         _______ _______ _______ _____ _____    ______ ____

>  <TORSDO>
F 0

$$$$
=
 OpenBabel10272413483D

 30 34  0  0  1  0  0  0  0  0999 V2000
  185.0780  177.1540  138.1950 C   0  0  0  0  0  2  0  0  0  0  0  0
  187.5800  178.2190  136.3490 C   0  0  0  0  0  0  0  0  0  0  0  0
  184.5650  172.4230  137.3460 C   0  0  0  0  0  2  0  0  0  0  0  0
  183.6290  177.3540  138.6220 C   0  0  0  0  0  2  0  0  0  0  0  0
  185.2540  177.3330  136.6960 C   0  0  0  0  0  2  0  0  0  0  0  0
  180.2180  179.8200  138.0510 C   0  0  0  0  0  2  0  0  0  0  0  0
  180.9680  174.4580  136.1540 O   0  0  0  0  0  0  0  0  0  0  0  0
  183.1700  178.8080  138.4710 C   0  0  1  0  0  0  0  0  0  0  0  0
  181.1460  178.8470  137.3510 C   0  0  0  0  0  0  0  0  0  0  0  0
  183.9140  173.8060  137.2210 C   0  0  0  0  0  2  0  0  0  0  0  0
  185.9280  172.2850  136.6550 C   0  0  0  0  0  2  0  0  0  0  0  0
  182.5110  179.2050  137.2840 O   0  0  0  0  0  0  0  0  0  0  0  0
  182.6100  179.3520  139.6430 O   0  0  0  0  0  0  0  0  0  0  0  0
  188.9050  178.0200  136.1320 N   0  0  0  0  0  0  0  0  0  0  0  0
  181.5970  175.5240  135.9250 C   0  0  0  0  0  0  0  0  0  0  0  0
  183.0090  175.5110  135.7170 N   0  0  0  0  0  2  0  0  0  0  0  0
  180.2690  179.7720  136.5330 C   0  0  0  0  0  2  0  0  0  0  0  0
  187.1070  179.5380  136.6060 N   0  0  0  0  0  1  0  0  0  0  0  0
  187.2250  175.8460  136.0850 C   0  0  0  0  0  0  0  0  0  0  0  0
  189.3980  176.7760  135.9060 C   0  0  0  0  0  3  0  0  0  0  0  0
  180.7350  177.3780  137.2970 C   0  0  0  0  0  2  0  0  0  0  0  0
  186.6940  177.1300  136.3340 C   0  0  0  0  0  0  0  0  0  0  0  0
  185.1790  174.6060  135.1060 C   0  0  0  0  0  2  0  0  0  0  0  0
  186.7380  173.5470  136.7080 C   0  0  0  0  0  3  0  0  0  0  0  0
  183.8230  174.3070  135.7730 C   0  0  1  0  0  3  0  0  0  0  0  0
  180.8760  176.8230  135.8890 C   0  0  0  0  0  2  0  0  0  0  0  0
  183.8310  179.9130  139.2160 C   0  0  1  0  0  3  0  0  0  0  0  0
  188.5640  175.7060  135.8880 N   0  0  0  0  0  0  0  0  0  0  0  0
  186.3740  174.6410  136.0310 C   0  0  0  0  0  0  0  0  0  0  0  0
  184.8580  179.4520  140.0420 O   0  0  0  0  0  1  0  0  0  0  0  0
  1  4  1  0  0  0  0
  2 18  1  0  0  0  0
  5  1  1  0  0  0  0
  8  4  1  1  0  0  0
  8 27  1  0  0  0  0
  8 13  1  0  0  0  0
  9  6  1  0  0  0  0
 10  3  1  0  0  0  0
 11 24  1  0  0  0  0
 11  3  1  0  0  0  0
 12  9  1  0  0  0  0
 12  8  1  0  0  0  0
 14  2  2  0  0  0  0
 15  7  2  0  0  0  0
 16 25  1  0  0  0  0
 16 15  1  0  0  0  0
 17  9  1  0  0  0  0
 17  6  1  0  0  0  0
 19 22  2  0  0  0  0
 20 14  1  0  0  0  0
 21  9  1  0  0  0  0
 22  2  1  0  0  0  0
 22  5  1  0  0  0  0
 23 29  1  0  0  0  0
 25 23  1  1  0  0  0
 25 10  1  0  0  0  0
 26 15  1  0  0  0  0
 26 21  1  0  0  0  0
 27 13  1  0  0  0  0
 27 30  1  1  0  0  0
 28 20  2  0  0  0  0
 28 19  1  0  0  0  0
 29 19  1  0  0  0  0
 29 24  2  0  0  0  0
M  END
>  <MODEL>
8

>  <REMARK>
 VINA RESULT:      -5.3      2.706      6.051
  Name = 
  0 active torsions:
  status: ('A' for Active; 'I' for Inactive)
                            x       y       z     vdW  Elec       q    Type
                         _______ _______ _______ _____ _____    ______ ____

>  <TORSDO>
F 0

$$$$
=
 OpenBabel10272413483D

 30 34  0  0  1  0  0  0  0  0999 V2000
  185.0500  175.6620  135.8300 C   0  0  0  0  0  2  0  0  0  0  0  0
  185.0510  172.4180  136.3510 C   0  0  0  0  0  0  0  0  0  0  0  0
  189.5710  176.9480  134.6990 C   0  0  0  0  0  2  0  0  0  0  0  0
  184.6640  177.0410  136.3520 C   0  0  0  0  0  2  0  0  0  0  0  0
  185.6460  174.7910  136.9240 C   0  0  0  0  0  2  0  0  0  0  0  0
  182.8170  179.0570  139.6020 C   0  0  0  0  0  2  0  0  0  0  0  0
  188.4080  178.9560  138.3200 O   0  0  0  0  0  0  0  0  0  0  0  0
  183.4810  176.9870  137.3250 C   0  0  1  0  0  0  0  0  0  0  0  0
  184.0090  178.2030  139.2220 C   0  0  0  0  0  0  0  0  0  0  0  0
  188.4370  177.0890  135.7220 C   0  0  0  0  0  2  0  0  0  0  0  0
  190.0360  175.5080  134.4430 C   0  0  0  0  0  2  0  0  0  0  0  0
  183.7320  176.9130  138.7150 O   0  0  0  0  0  0  0  0  0  0  0  0
  182.4240  177.8520  136.9820 O   0  0  0  0  0  0  0  0  0  0  0  0
  185.3320  171.2400  135.7370 N   0  0  0  0  0  0  0  0  0  0  0  0
  187.5990  178.0380  138.6200 C   0  0  0  0  0  0  0  0  0  0  0  0
  187.7140  176.7420  138.0330 N   0  0  0  0  0  2  0  0  0  0  0  0
  183.6180  178.3430  140.6780 C   0  0  0  0  0  2  0  0  0  0  0  0
  183.7810  172.5950  136.9710 N   0  0  0  0  0  1  0  0  0  0  0  0
  187.2380  173.2190  135.7140 C   0  0  0  0  0  0  0  0  0  0  0  0
  186.5220  171.0400  135.1160 C   0  0  0  0  0  3  0  0  0  0  0  0
  185.3080  178.9110  138.8460 C   0  0  0  0  0  2  0  0  0  0  0  0
  186.0030  173.4500  136.3560 C   0  0  0  0  0  0  0  0  0  0  0  0
  188.8030  174.8490  136.9710 C   0  0  0  0  0  2  0  0  0  0  0  0
  188.9170  174.5120  134.5230 C   0  0  0  0  0  3  0  0  0  0  0  0
  188.7280  176.3850  137.0550 C   0  0  1  0  0  3  0  0  0  0  0  0
  186.4930  178.3010  139.5760 C   0  0  0  0  0  2  0  0  0  0  0  0
  182.1510  176.4700  136.9030 C   0  0  1  0  0  3  0  0  0  0  0  0
  187.4580  172.0230  135.1050 N   0  0  0  0  0  0  0  0  0  0  0  0
  188.3090  174.2350  135.6820 C   0  0  0  0  0  0  0  0  0  0  0  0
  182.1360  176.0840  135.5610 O   0  0  0  0  0  1  0  0  0  0  0  0
  1  4  1  0  0  0  0
  1  5  1  0  0  0  0
  2 22  1  0  0  0  0
  2 18  1  0  0  0  0
  3 10  1  0  0  0  0
  6 17  1  0  0  0  0
  7 15  2  0  0  0  0
  8  4  1  6  0  0  0
  8 12  1  0  0  0  0
  9  6  1  0  0  0  0
  9 17  1  0  0  0  0
 11 24  1  0  0  0  0
 11  3  1  0  0  0  0
 12  9  1  0  0  0  0
 13  8  1  0  0  0  0
 14  2  2  0  0  0  0
 15 26  1  0  0  0  0
 16 15  1  0  0  0  0
 19 22  2  0  0  0  0
 20 14  1  0  0  0  0
 21  9  1  0  0  0  0
 21 26  1  0  0  0  0
 22  5  1  0  0  0  0
 23 25  1  0  0  0  0
 24 29  2  0  0  0  0
 25 10  1  6  0  0  0
 25 16  1  0  0  0  0
 27 30  1  6  0  0  0
 27 13  1  0  0  0  0
 27  8  1  0  0  0  0
 28 20  2  0  0  0  0
 28 19  1  0  0  0  0
 29 19  1  0  0  0  0
 29 23  1  0  0  0  0
M  END
>  <MODEL>
9

>  <REMARK>
 VINA RESULT:      -5.3      2.528      7.189
  Name = 
  0 active torsions:
  status: ('A' for Active; 'I' for Inactive)
                            x       y       z     vdW  Elec       q    Type
                         _______ _______ _______ _____ _____    ______ ____

>  <TORSDO>
F 0

$$$$
