=
 OpenBabel10272415183D

 34 39  0  0  1  0  0  0  0  0999 V2000
  187.6050  177.6920  144.3670 C   0  0  0  0  0  0  0  0  0  0  0  0
  184.1080  178.6940  145.6140 C   0  0  0  0  0  3  0  0  0  0  0  0
  186.1700  178.1980  146.7030 N   0  0  0  0  0  0  0  0  0  0  0  0
  189.7960  177.0530  143.4490 C   0  0  0  0  0  0  0  0  0  0  0  0
  188.4390  177.4090  143.2580 C   0  0  0  0  0  3  0  0  0  0  0  0
  189.4970  177.2600  145.8180 C   0  0  0  0  0  0  0  0  0  0  0  0
  189.7850  177.2670  147.4720 S   0  0  0  0  0  0  0  0  0  0  0  0
  190.3400  176.9740  144.7480 C   0  0  0  0  0  3  0  0  0  0  0  0
  187.4760  177.8530  146.7770 C   0  0  0  0  0  0  0  0  0  0  0  0
  188.1850  177.6030  145.6240 C   0  0  0  0  0  0  0  0  0  0  0  0
  188.2110  177.7150  147.9550 C   0  0  0  0  0  3  0  0  0  0  0  0
  183.1780  178.8920  144.6890 C   0  0  0  0  0  3  0  0  0  0  0  0
  183.2630  178.7900  143.2290 C   0  0  0  0  0  0  0  0  0  0  0  0
  184.3670  178.4590  142.5620 C   0  0  0  0  0  3  0  0  0  0  0  0
  185.5220  178.3090  145.5000 C   0  0  0  0  0  0  0  0  0  0  0  0
  185.7080  178.1280  143.0480 C   0  0  0  0  0  3  0  0  0  0  0  0
  186.2330  178.0530  144.2780 C   0  0  0  0  0  0  0  0  0  0  0  0
  182.0740  179.0670  142.4740 N   0  0  0  0  0  0  0  0  0  0  0  0
  181.8890  178.5020  141.2570 O   0  0  0  0  0  0  0  0  0  0  0  0
  181.1190  179.8940  142.9630 O   0  0  0  0  0  0  0  0  0  0  0  0
  190.6550  176.7380  142.2640 C   0  0  0  0  0  2  0  0  0  0  0  0
  190.2700  176.2960  138.5080 C   0  0  0  0  0  3  0  0  0  0  0  0
  189.4750  178.1750  140.5440 C   0  0  0  0  0  2  0  0  0  0  0  0
  187.5920  178.1340  136.6790 C   0  0  2  0  0  3  0  0  0  0  0  0
  188.8430  177.2490  136.7630 C   0  0  0  0  0  2  0  0  0  0  0  0
  189.3990  177.2440  138.1550 C   0  0  0  0  0  0  0  0  0  0  0  0
  187.2880  178.0300  139.2370 C   0  0  0  0  0  2  0  0  0  0  0  0
  188.8070  178.2010  139.1650 C   0  0  1  0  0  3  0  0  0  0  0  0
  186.6310  177.8630  137.8500 C   0  0  0  0  0  2  0  0  0  0  0  0
  189.8850  176.7600  140.9430 C   0  0  1  0  0  3  0  0  0  0  0  0
  190.6580  176.1360  139.8740 N   0  0  0  0  0  2  0  0  0  0  0  0
  186.9140  177.9270  135.4100 N   0  0  0  0  0  0  0  0  0  0  0  0
  187.5610  178.0030  134.3460 O   0  0  0  0  0  0  0  0  0  0  0  0
  185.5830  177.5800  135.3760 O   0  0  0  0  0  0  0  0  0  0  0  0
  1 10  1  0  0  0  0
  3  9  1  0  0  0  0
  4  8  2  0  0  0  0
  5  4  1  0  0  0  0
  5  1  2  0  0  0  0
  6  7  1  0  0  0  0
  7 11  1  0  0  0  0
  8  6  1  0  0  0  0
  9 11  2  0  0  0  0
 10  6  2  0  0  0  0
 10  9  1  0  0  0  0
 12  2  2  0  0  0  0
 13 12  1  0  0  0  0
 14 16  1  0  0  0  0
 14 13  2  0  0  0  0
 15  2  1  0  0  0  0
 15  3  2  0  0  0  0
 16 17  2  0  0  0  0
 17  1  1  0  0  0  0
 17 15  1  0  0  0  0
 18 20  2  0  0  0  0
 18 13  1  0  0  0  0
 19 18  2  0  0  0  0
 21  4  1  0  0  0  0
 22 31  1  0  0  0  0
 23 30  1  0  0  0  0
 24 32  1  6  0  0  0
 24 25  1  0  0  0  0
 24 29  1  0  0  0  0
 25 26  1  0  0  0  0
 26 22  2  0  0  0  0
 26 28  1  0  0  0  0
 28 27  1  1  0  0  0
 28 23  1  0  0  0  0
 29 27  1  0  0  0  0
 30 21  1  1  0  0  0
 31 30  1  0  0  0  0
 33 32  2  0  0  0  0
 34 32  2  0  0  0  0
M  END
>  <MODEL>
1

>  <REMARK>
 VINA RESULT:     -11.0      0.000      0.000
  Name = 
  4 active torsions:
  status: ('A' for Active; 'I' for Inactive)
    1  A    between atoms: N_3  and  C_25
    2  A    between atoms: C_7  and  N_11
    3  A    between atoms: C_8  and  C_18
    4  A    between atoms: C_18  and  C_30
                            x       y       z     vdW  Elec       q    Type
                         _______ _______ _______ _____ _____    ______ ____

>  <TORSDO>
F 4

$$$$
=
 OpenBabel10272415183D

 34 39  0  0  1  0  0  0  0  0999 V2000
  187.5890  177.8590  144.7900 C   0  0  0  0  0  0  0  0  0  0  0  0
  190.9120  176.8210  143.1570 C   0  0  0  0  0  3  0  0  0  0  0  0
  190.2040  177.1190  145.4130 N   0  0  0  0  0  0  0  0  0  0  0  0
  185.4140  178.5370  145.7170 C   0  0  0  0  0  0  0  0  0  0  0  0
  186.2410  178.2480  144.6050 C   0  0  0  0  0  3  0  0  0  0  0  0
  187.2500  178.0560  147.1810 C   0  0  0  0  0  0  0  0  0  0  0  0
  188.1810  177.8400  148.5620 S   0  0  0  0  0  0  0  0  0  0  0  0
  185.9210  178.4420  147.0300 C   0  0  0  0  0  3  0  0  0  0  0  0
  189.3340  177.4130  146.4060 C   0  0  0  0  0  0  0  0  0  0  0  0
  188.0420  177.7790  146.0990 C   0  0  0  0  0  0  0  0  0  0  0  0
  189.6230  177.3850  147.7710 C   0  0  0  0  0  3  0  0  0  0  0  0
  190.9340  176.7640  141.8310 C   0  0  0  0  0  3  0  0  0  0  0  0
  189.8720  177.0380  140.8580 C   0  0  0  0  0  0  0  0  0  0  0  0
  188.6360  177.4130  141.1790 C   0  0  0  0  0  3  0  0  0  0  0  0
  189.8360  177.1730  144.0930 C   0  0  0  0  0  0  0  0  0  0  0  0
  188.0230  177.6430  142.4900 C   0  0  0  0  0  3  0  0  0  0  0  0
  188.4960  177.5530  143.7400 C   0  0  0  0  0  0  0  0  0  0  0  0
  190.1940  176.8910  139.4660 N   0  0  0  0  0  0  0  0  0  0  0  0
  189.9000  177.8790  138.5870 O   0  0  0  0  0  0  0  0  0  0  0  0
  190.7950  175.7660  139.0090 O   0  0  0  0  0  0  0  0  0  0  0  0
  183.9970  178.9660  145.4990 C   0  0  0  0  0  2  0  0  0  0  0  0
  181.6410  178.9810  142.5150 C   0  0  0  0  0  3  0  0  0  0  0  0
  184.2960  178.0580  143.1530 C   0  0  0  0  0  2  0  0  0  0  0  0
  182.9810  178.4490  139.0780 C   0  0  2  0  0  3  0  0  0  0  0  0
  181.8520  178.6070  140.1060 C   0  0  0  0  0  2  0  0  0  0  0  0
  182.3920  178.5430  141.5030 C   0  0  0  0  0  0  0  0  0  0  0  0
  184.7470  179.0640  140.8520 C   0  0  0  0  0  2  0  0  0  0  0  0
  183.8420  178.1610  141.6930 C   0  0  1  0  0  3  0  0  0  0  0  0
  184.1940  179.3250  139.4350 C   0  0  0  0  0  2  0  0  0  0  0  0
  183.6430  179.1300  144.0210 C   0  0  1  0  0  3  0  0  0  0  0  0
  182.1960  179.1300  143.8240 N   0  0  0  0  0  2  0  0  0  0  0  0
  182.4970  178.7730  137.7460 N   0  0  0  0  0  0  0  0  0  0  0  0
  182.6680  177.9620  136.8140 O   0  0  0  0  0  0  0  0  0  0  0  0
  181.7910  179.9320  137.5210 O   0  0  0  0  0  0  0  0  0  0  0  0
  1 10  1  0  0  0  0
  2 15  1  0  0  0  0
  3  9  1  0  0  0  0
  4  8  2  0  0  0  0
  5  1  2  0  0  0  0
  5  4  1  0  0  0  0
  6  7  1  0  0  0  0
  8  6  1  0  0  0  0
  9 11  2  0  0  0  0
 10  9  1  0  0  0  0
 10  6  2  0  0  0  0
 11  7  1  0  0  0  0
 12  2  2  0  0  0  0
 13 14  2  0  0  0  0
 13 12  1  0  0  0  0
 14 16  1  0  0  0  0
 15  3  2  0  0  0  0
 16 17  2  0  0  0  0
 17 15  1  0  0  0  0
 17  1  1  0  0  0  0
 18 13  1  0  0  0  0
 19 18  2  0  0  0  0
 20 18  2  0  0  0  0
 21  4  1  0  0  0  0
 22 31  1  0  0  0  0
 23 30  1  0  0  0  0
 24 32  1  6  0  0  0
 24 29  1  0  0  0  0
 24 25  1  0  0  0  0
 25 26  1  0  0  0  0
 26 28  1  0  0  0  0
 26 22  2  0  0  0  0
 28 27  1  6  0  0  0
 28 23  1  0  0  0  0
 29 27  1  0  0  0  0
 30 21  1  1  0  0  0
 31 30  1  0  0  0  0
 33 32  2  0  0  0  0
 34 32  2  0  0  0  0
M  END
>  <MODEL>
2

>  <REMARK>
 VINA RESULT:     -10.8      2.521      6.029
  Name = 
  4 active torsions:
  status: ('A' for Active; 'I' for Inactive)
    1  A    between atoms: N_3  and  C_25
    2  A    between atoms: C_7  and  N_11
    3  A    between atoms: C_8  and  C_18
    4  A    between atoms: C_18  and  C_30
                            x       y       z     vdW  Elec       q    Type
                         _______ _______ _______ _____ _____    ______ ____

>  <TORSDO>
F 4

$$$$
=
 OpenBabel10272415183D

 34 39  0  0  1  0  0  0  0  0999 V2000
  189.0400  177.6550  144.1220 C   0  0  0  0  0  0  0  0  0  0  0  0
  191.5860  177.0390  141.3080 C   0  0  0  0  0  3  0  0  0  0  0  0
  191.6460  176.7730  143.6750 N   0  0  0  0  0  0  0  0  0  0  0  0
  187.3280  178.0930  145.8330 C   0  0  0  0  0  0  0  0  0  0  0  0
  187.7380  178.0840  144.4790 C   0  0  0  0  0  3  0  0  0  0  0  0
  189.4810  177.2570  146.4700 C   0  0  0  0  0  0  0  0  0  0  0  0
  190.7760  176.7030  147.3860 S   0  0  0  0  0  0  0  0  0  0  0  0
  188.2100  177.6740  146.8510 C   0  0  0  0  0  3  0  0  0  0  0  0
  191.1570  176.8170  144.9360 C   0  0  0  0  0  0  0  0  0  0  0  0
  189.8700  177.2520  145.1570 C   0  0  0  0  0  0  0  0  0  0  0  0
  191.8550  176.4510  146.0880 C   0  0  0  0  0  3  0  0  0  0  0  0
  191.1890  177.3100  140.0710 C   0  0  0  0  0  3  0  0  0  0  0  0
  189.9030  177.8210  139.5850 C   0  0  0  0  0  0  0  0  0  0  0  0
  188.8650  178.1110  140.3670 C   0  0  0  0  0  3  0  0  0  0  0  0
  190.8910  177.1540  142.5960 C   0  0  0  0  0  0  0  0  0  0  0  0
  188.7140  178.0120  141.8210 C   0  0  0  0  0  3  0  0  0  0  0  0
  189.5440  177.6140  142.7940 C   0  0  0  0  0  0  0  0  0  0  0  0
  189.7600  178.0210  138.1710 N   0  0  0  0  0  0  0  0  0  0  0  0
  189.0400  179.0660  137.6960 O   0  0  0  0  0  0  0  0  0  0  0  0
  190.3410  177.1720  137.2890 O   0  0  0  0  0  0  0  0  0  0  0  0
  185.9540  178.5690  146.1910 C   0  0  0  0  0  2  0  0  0  0  0  0
  182.6730  179.0740  144.3370 C   0  0  0  0  0  3  0  0  0  0  0  0
  185.2330  177.8310  143.8770 C   0  0  0  0  0  2  0  0  0  0  0  0
  182.5470  178.6910  140.6320 C   0  0  2  0  0  3  0  0  0  0  0  0
  181.9160  178.8790  142.0190 C   0  0  0  0  0  2  0  0  0  0  0  0
  182.9280  178.6450  143.1000 C   0  0  0  0  0  0  0  0  0  0  0  0
  184.9120  178.9710  141.6170 C   0  0  0  0  0  2  0  0  0  0  0  0
  184.2820  178.1000  142.7060 C   0  0  1  0  0  3  0  0  0  0  0  0
  183.9060  179.4040  140.5300 C   0  0  0  0  0  2  0  0  0  0  0  0
  185.0950  178.8900  144.9670 C   0  0  1  0  0  3  0  0  0  0  0  0
  183.6930  179.0560  145.3390 N   0  0  0  0  0  2  0  0  0  0  0  0
  181.6430  179.1710  139.6000 N   0  0  0  0  0  0  0  0  0  0  0  0
  180.4100  179.0680  139.7620 O   0  0  0  0  0  0  0  0  0  0  0  0
  182.1330  179.8000  138.4780 O   0  0  0  0  0  0  0  0  0  0  0  0
  1  5  2  0  0  0  0
  1 10  1  0  0  0  0
  2 15  1  0  0  0  0
  3  9  1  0  0  0  0
  4 21  1  0  0  0  0
  4  8  2  0  0  0  0
  5  4  1  0  0  0  0
  6  8  1  0  0  0  0
  6  7  1  0  0  0  0
  9 10  1  0  0  0  0
  9 11  2  0  0  0  0
 10  6  2  0  0  0  0
 11  7  1  0  0  0  0
 12  2  2  0  0  0  0
 13 12  1  0  0  0  0
 13 14  2  0  0  0  0
 14 16  1  0  0  0  0
 15 17  1  0  0  0  0
 15  3  2  0  0  0  0
 16 17  2  0  0  0  0
 17  1  1  0  0  0  0
 18 13  1  0  0  0  0
 19 18  2  0  0  0  0
 20 18  2  0  0  0  0
 22 31  1  0  0  0  0
 23 30  1  0  0  0  0
 24 32  1  6  0  0  0
 24 25  1  0  0  0  0
 25 26  1  0  0  0  0
 26 22  2  0  0  0  0
 28 27  1  6  0  0  0
 28 26  1  0  0  0  0
 28 23  1  0  0  0  0
 29 24  1  0  0  0  0
 29 27  1  0  0  0  0
 30 31  1  0  0  0  0
 30 21  1  1  0  0  0
 32 33  2  0  0  0  0
 34 32  2  0  0  0  0
M  END
>  <MODEL>
3

>  <REMARK>
 VINA RESULT:     -10.7      2.117      6.401
  Name = 
  4 active torsions:
  status: ('A' for Active; 'I' for Inactive)
    1  A    between atoms: N_3  and  C_25
    2  A    between atoms: C_7  and  N_11
    3  A    between atoms: C_8  and  C_18
    4  A    between atoms: C_18  and  C_30
                            x       y       z     vdW  Elec       q    Type
                         _______ _______ _______ _____ _____    ______ ____

>  <TORSDO>
F 4

$$$$
=
 OpenBabel10272415183D

 34 39  0  0  1  0  0  0  0  0999 V2000
  187.0480  178.0450  143.6650 C   0  0  0  0  0  0  0  0  0  0  0  0
  188.0520  177.4160  147.3230 C   0  0  0  0  0  3  0  0  0  0  0  0
  186.0300  178.0940  146.2600 N   0  0  0  0  0  0  0  0  0  0  0  0
  186.5270  178.4200  141.2900 C   0  0  0  0  0  0  0  0  0  0  0  0
  187.4450  178.0600  142.3060 C   0  0  0  0  0  3  0  0  0  0  0  0
  184.8380  178.7440  142.9600 C   0  0  0  0  0  0  0  0  0  0  0  0
  183.3780  179.0940  143.7110 S   0  0  0  0  0  0  0  0  0  0  0  0
  185.2000  178.7700  141.6160 C   0  0  0  0  0  3  0  0  0  0  0  0
  185.2320  178.4190  145.2170 C   0  0  0  0  0  0  0  0  0  0  0  0
  185.7330  178.3950  143.9360 C   0  0  0  0  0  0  0  0  0  0  0  0
  183.8900  178.7960  145.3110 C   0  0  0  0  0  3  0  0  0  0  0  0
  189.3050  177.0400  147.5430 C   0  0  0  0  0  3  0  0  0  0  0  0
  190.4030  176.8170  146.5960 C   0  0  0  0  0  0  0  0  0  0  0  0
  190.3010  176.9690  145.2780 C   0  0  0  0  0  3  0  0  0  0  0  0
  187.3410  177.7360  146.0780 C   0  0  0  0  0  0  0  0  0  0  0  0
  189.1580  177.3710  144.4530 C   0  0  0  0  0  3  0  0  0  0  0  0
  187.8960  177.7020  144.7530 C   0  0  0  0  0  0  0  0  0  0  0  0
  191.6700  176.4070  147.1330 N   0  0  0  0  0  0  0  0  0  0  0  0
  192.1880  177.0320  148.2180 O   0  0  0  0  0  0  0  0  0  0  0  0
  192.3660  175.3920  146.5680 O   0  0  0  0  0  0  0  0  0  0  0  0
  186.9720  178.4480  139.8620 C   0  0  0  0  0  2  0  0  0  0  0  0
  190.6680  177.6270  140.2070 C   0  0  0  0  0  3  0  0  0  0  0  0
  188.6550  177.6490  138.1450 C   0  0  0  0  0  2  0  0  0  0  0  0
  192.3620  175.5330  137.6310 C   0  0  2  0  0  3  0  0  0  0  0  0
  192.3380  176.4380  138.8700 C   0  0  0  0  0  2  0  0  0  0  0  0
  190.9920  177.0790  139.0340 C   0  0  0  0  0  0  0  0  0  0  0  0
  189.7870  175.4280  137.5970 C   0  0  0  0  0  2  0  0  0  0  0  0
  189.9800  176.9110  137.9250 C   0  0  1  0  0  3  0  0  0  0  0  0
  191.1120  174.6390  137.5620 C   0  0  0  0  0  2  0  0  0  0  0  0
  188.2310  177.6170  139.6110 C   0  0  1  0  0  3  0  0  0  0  0  0
  189.3300  178.0570  140.4650 N   0  0  0  0  0  2  0  0  0  0  0  0
  193.5670  174.7210  137.6260 N   0  0  0  0  0  0  0  0  0  0  0  0
  193.5380  173.5760  137.1300 O   0  0  0  0  0  0  0  0  0  0  0  0
  194.7550  175.2280  138.1000 O   0  0  0  0  0  0  0  0  0  0  0  0
  1 10  1  0  0  0  0
  1 17  1  0  0  0  0
  2 12  2  0  0  0  0
  4  8  2  0  0  0  0
  4  5  1  0  0  0  0
  5  1  2  0  0  0  0
  6  7  1  0  0  0  0
  6 10  2  0  0  0  0
  7 11  1  0  0  0  0
  8  6  1  0  0  0  0
  9 11  2  0  0  0  0
  9  3  1  0  0  0  0
 10  9  1  0  0  0  0
 13 18  1  0  0  0  0
 13 12  1  0  0  0  0
 14 13  2  0  0  0  0
 15  3  2  0  0  0  0
 15  2  1  0  0  0  0
 16 17  2  0  0  0  0
 16 14  1  0  0  0  0
 17 15  1  0  0  0  0
 18 19  2  0  0  0  0
 20 18  2  0  0  0  0
 21  4  1  0  0  0  0
 22 31  1  0  0  0  0
 23 30  1  0  0  0  0
 24 32  1  1  0  0  0
 24 25  1  0  0  0  0
 25 26  1  0  0  0  0
 26 22  2  0  0  0  0
 28 27  1  1  0  0  0
 28 23  1  0  0  0  0
 28 26  1  0  0  0  0
 29 27  1  0  0  0  0
 29 24  1  0  0  0  0
 30 21  1  6  0  0  0
 30 31  1  0  0  0  0
 32 34  2  0  0  0  0
 33 32  2  0  0  0  0
M  END
>  <MODEL>
4

>  <REMARK>
 VINA RESULT:     -10.2      4.244      5.942
  Name = 
  4 active torsions:
  status: ('A' for Active; 'I' for Inactive)
    1  A    between atoms: N_3  and  C_25
    2  A    between atoms: C_7  and  N_11
    3  A    between atoms: C_8  and  C_18
    4  A    between atoms: C_18  and  C_30
                            x       y       z     vdW  Elec       q    Type
                         _______ _______ _______ _____ _____    ______ ____

>  <TORSDO>
F 4

$$$$
=
 OpenBabel10272415183D

 34 39  0  0  1  0  0  0  0  0999 V2000
  184.4610  178.6780  142.1510 C   0  0  0  0  0  0  0  0  0  0  0  0
  185.4030  178.4920  138.4270 C   0  0  0  0  0  3  0  0  0  0  0  0
  183.3360  178.6640  139.6000 N   0  0  0  0  0  0  0  0  0  0  0  0
  183.9830  178.7850  144.5610 C   0  0  0  0  0  0  0  0  0  0  0  0
  184.9080  178.6920  143.4940 C   0  0  0  0  0  3  0  0  0  0  0  0
  182.1890  178.8490  142.9740 C   0  0  0  0  0  0  0  0  0  0  0  0
  180.6540  178.9230  142.2960 S   0  0  0  0  0  0  0  0  0  0  0  0
  182.5990  178.8650  144.3040 C   0  0  0  0  0  3  0  0  0  0  0  0
  182.5360  178.7520  140.6880 C   0  0  0  0  0  0  0  0  0  0  0  0
  183.0910  178.7590  141.9480 C   0  0  0  0  0  0  0  0  0  0  0  0
  181.1430  178.8380  140.6640 C   0  0  0  0  0  3  0  0  0  0  0  0
  186.6960  178.3980  138.1420 C   0  0  0  0  0  3  0  0  0  0  0  0
  187.8580  178.3510  139.0350 C   0  0  0  0  0  0  0  0  0  0  0  0
  187.7870  178.4000  140.3630 C   0  0  0  0  0  3  0  0  0  0  0  0
  184.6990  178.5800  139.7140 C   0  0  0  0  0  0  0  0  0  0  0  0
  186.6260  178.5060  141.2500 C   0  0  0  0  0  3  0  0  0  0  0  0
  185.3100  178.5840  141.0150 C   0  0  0  0  0  0  0  0  0  0  0  0
  189.1560  178.2450  138.4300 N   0  0  0  0  0  0  0  0  0  0  0  0
  190.1990  177.7390  139.1310 O   0  0  0  0  0  0  0  0  0  0  0  0
  189.3600  178.6480  137.1530 O   0  0  0  0  0  0  0  0  0  0  0  0
  184.4760  178.7800  145.9750 C   0  0  0  0  0  2  0  0  0  0  0  0
  187.5610  177.6750  147.9030 C   0  0  0  0  0  3  0  0  0  0  0  0
  186.9220  178.7690  145.3140 C   0  0  0  0  0  2  0  0  0  0  0  0
  190.7240  176.9180  146.0830 C   0  0  2  0  0  3  0  0  0  0  0  0
  189.8850  177.1450  147.3480 C   0  0  0  0  0  2  0  0  0  0  0  0
  188.5430  177.7150  146.9990 C   0  0  0  0  0  0  0  0  0  0  0  0
  188.6120  176.9930  144.6080 C   0  0  0  0  0  2  0  0  0  0  0  0
  188.2950  178.1400  145.5700 C   0  0  1  0  0  3  0  0  0  0  0  0
  189.9030  176.2330  144.9770 C   0  0  0  0  0  2  0  0  0  0  0  0
  185.8300  178.0870  146.1340 C   0  0  1  0  0  3  0  0  0  0  0  0
  186.2210  178.0150  147.5380 N   0  0  0  0  0  2  0  0  0  0  0  0
  191.9050  176.1300  146.3990 N   0  0  0  0  0  0  0  0  0  0  0  0
  192.4750  176.2870  147.4980 O   0  0  0  0  0  0  0  0  0  0  0  0
  192.3570  175.1670  145.5270 O   0  0  0  0  0  0  0  0  0  0  0  0
  1  5  1  0  0  0  0
  2 15  1  0  0  0  0
  3 15  2  0  0  0  0
  3  9  1  0  0  0  0
  4 21  1  0  0  0  0
  5  4  2  0  0  0  0
  6  8  2  0  0  0  0
  7  6  1  0  0  0  0
  8  4  1  0  0  0  0
  9 10  1  0  0  0  0
 10  1  2  0  0  0  0
 10  6  1  0  0  0  0
 11  9  2  0  0  0  0
 11  7  1  0  0  0  0
 12  2  2  0  0  0  0
 12 13  1  0  0  0  0
 13 14  2  0  0  0  0
 14 16  1  0  0  0  0
 15 17  1  0  0  0  0
 17 16  2  0  0  0  0
 17  1  1  0  0  0  0
 18 13  1  0  0  0  0
 18 19  2  0  0  0  0
 20 18  2  0  0  0  0
 23 28  1  0  0  0  0
 23 30  1  0  0  0  0
 24 32  1  1  0  0  0
 24 25  1  0  0  0  0
 26 25  1  0  0  0  0
 26 22  2  0  0  0  0
 27 29  1  0  0  0  0
 28 27  1  6  0  0  0
 28 26  1  0  0  0  0
 29 24  1  0  0  0  0
 30 21  1  1  0  0  0
 30 31  1  0  0  0  0
 31 22  1  0  0  0  0
 32 33  2  0  0  0  0
 34 32  2  0  0  0  0
M  END
>  <MODEL>
5

>  <REMARK>
 VINA RESULT:      -9.8      4.059      8.184
  Name = 
  4 active torsions:
  status: ('A' for Active; 'I' for Inactive)
    1  A    between atoms: N_3  and  C_25
    2  A    between atoms: C_7  and  N_11
    3  A    between atoms: C_8  and  C_18
    4  A    between atoms: C_18  and  C_30
                            x       y       z     vdW  Elec       q    Type
                         _______ _______ _______ _____ _____    ______ ____

>  <TORSDO>
F 4

$$$$
=
 OpenBabel10272415183D

 34 39  0  0  1  0  0  0  0  0999 V2000
  184.4610  178.5030  142.2680 C   0  0  0  0  0  0  0  0  0  0  0  0
  184.8490  178.3850  146.0920 C   0  0  0  0  0  3  0  0  0  0  0  0
  183.0080  178.7810  144.6310 N   0  0  0  0  0  0  0  0  0  0  0  0
  184.3390  178.5560  139.8120 C   0  0  0  0  0  0  0  0  0  0  0  0
  185.0860  178.3870  141.0030 C   0  0  0  0  0  3  0  0  0  0  0  0
  182.3730  178.9490  141.1240 C   0  0  0  0  0  0  0  0  0  0  0  0
  180.7870  179.2760  141.5730 S   0  0  0  0  0  0  0  0  0  0  0  0
  182.9590  178.8430  139.8660 C   0  0  0  0  0  3  0  0  0  0  0  0
  182.3860  178.9220  143.4380 C   0  0  0  0  0  0  0  0  0  0  0  0
  183.1030  178.7840  142.2710 C   0  0  0  0  0  0  0  0  0  0  0  0
  181.0310  179.2070  143.2600 C   0  0  0  0  0  3  0  0  0  0  0  0
  186.0630  178.1300  146.5620 C   0  0  0  0  0  3  0  0  0  0  0  0
  187.3180  177.8790  145.8460 C   0  0  0  0  0  0  0  0  0  0  0  0
  187.4370  177.8680  144.5210 C   0  0  0  0  0  3  0  0  0  0  0  0
  184.3470  178.5030  144.7160 C   0  0  0  0  0  0  0  0  0  0  0  0
  186.4350  178.0840  143.4740 C   0  0  0  0  0  3  0  0  0  0  0  0
  185.1240  178.3540  143.5160 C   0  0  0  0  0  0  0  0  0  0  0  0
  188.4930  177.6300  146.6330 N   0  0  0  0  0  0  0  0  0  0  0  0
  189.5120  176.8940  146.1290 O   0  0  0  0  0  0  0  0  0  0  0  0
  188.6030  178.1250  147.8900 O   0  0  0  0  0  0  0  0  0  0  0  0
  185.0230  178.4490  138.4850 C   0  0  0  0  0  2  0  0  0  0  0  0
  188.6790  178.3960  139.5260 C   0  0  0  0  0  3  0  0  0  0  0  0
  187.0930  177.7300  137.2130 C   0  0  0  0  0  2  0  0  0  0  0  0
  191.1210  176.2930  137.6530 C   0  0  2  0  0  3  0  0  0  0  0  0
  190.7300  177.3540  138.6920 C   0  0  0  0  0  2  0  0  0  0  0  0
  189.2920  177.7490  138.5330 C   0  0  0  0  0  0  0  0  0  0  0  0
  188.6440  175.7050  137.2500 C   0  0  0  0  0  2  0  0  0  0  0  0
  188.5360  177.2290  137.3320 C   0  0  1  0  0  3  0  0  0  0  0  0
  190.0620  175.1810  137.5580 C   0  0  0  0  0  2  0  0  0  0  0  0
  186.4230  177.8410  138.5800 C   0  0  1  0  0  3  0  0  0  0  0  0
  187.2650  178.6020  139.4980 N   0  0  0  0  0  2  0  0  0  0  0  0
  192.4210  175.7290  137.9760 N   0  0  0  0  0  0  0  0  0  0  0  0
  192.6580  174.5330  137.7120 O   0  0  0  0  0  0  0  0  0  0  0  0
  193.4140  176.5200  138.5060 O   0  0  0  0  0  0  0  0  0  0  0  0
  1 10  1  0  0  0  0
  1 17  1  0  0  0  0
  2 12  2  0  0  0  0
  3 15  2  0  0  0  0
  4  8  2  0  0  0  0
  4  5  1  0  0  0  0
  5  1  2  0  0  0  0
  6  7  1  0  0  0  0
  6 10  2  0  0  0  0
  7 11  1  0  0  0  0
  8  6  1  0  0  0  0
  9  3  1  0  0  0  0
 10  9  1  0  0  0  0
 11  9  2  0  0  0  0
 13 12  1  0  0  0  0
 13 18  1  0  0  0  0
 14 13  2  0  0  0  0
 15  2  1  0  0  0  0
 16 17  2  0  0  0  0
 16 14  1  0  0  0  0
 17 15  1  0  0  0  0
 18 20  2  0  0  0  0
 19 18  2  0  0  0  0
 21  4  1  0  0  0  0
 23 30  1  0  0  0  0
 24 32  1  1  0  0  0
 24 25  1  0  0  0  0
 26 25  1  0  0  0  0
 26 22  2  0  0  0  0
 27 28  1  0  0  0  0
 27 29  1  0  0  0  0
 28 23  1  1  0  0  0
 28 26  1  0  0  0  0
 29 24  1  0  0  0  0
 30 21  1  6  0  0  0
 30 31  1  0  0  0  0
 31 22  1  0  0  0  0
 32 34  2  0  0  0  0
 33 32  2  0  0  0  0
M  END
>  <MODEL>
6

>  <REMARK>
 VINA RESULT:      -9.4      3.836      5.787
  Name = 
  4 active torsions:
  status: ('A' for Active; 'I' for Inactive)
    1  A    between atoms: N_3  and  C_25
    2  A    between atoms: C_7  and  N_11
    3  A    between atoms: C_8  and  C_18
    4  A    between atoms: C_18  and  C_30
                            x       y       z     vdW  Elec       q    Type
                         _______ _______ _______ _____ _____    ______ ____

>  <TORSDO>
F 4

$$$$
=
 OpenBabel10272415183D

 34 39  0  0  1  0  0  0  0  0999 V2000
  186.1250  178.2320  142.6650 C   0  0  0  0  0  0  0  0  0  0  0  0
  187.7420  177.4610  146.0680 C   0  0  0  0  0  3  0  0  0  0  0  0
  185.5540  178.1240  145.3920 N   0  0  0  0  0  0  0  0  0  0  0  0
  185.2060  178.7040  140.4330 C   0  0  0  0  0  0  0  0  0  0  0  0
  186.2890  178.3260  141.2620 C   0  0  0  0  0  3  0  0  0  0  0  0
  183.8120  178.8930  142.3740 C   0  0  0  0  0  0  0  0  0  0  0  0
  182.4900  179.1590  143.3740 S   0  0  0  0  0  0  0  0  0  0  0  0
  183.9440  178.9950  140.9920 C   0  0  0  0  0  3  0  0  0  0  0  0
  184.5850  178.4730  144.5150 C   0  0  0  0  0  0  0  0  0  0  0  0
  184.8660  178.5270  143.1680 C   0  0  0  0  0  0  0  0  0  0  0  0
  183.2700  178.8010  144.8490 C   0  0  0  0  0  3  0  0  0  0  0  0
  189.0220  177.1150  146.0560 C   0  0  0  0  0  3  0  0  0  0  0  0
  189.9510  176.9740  144.9300 C   0  0  0  0  0  0  0  0  0  0  0  0
  189.6260  177.1870  143.6570 C   0  0  0  0  0  3  0  0  0  0  0  0
  186.8250  177.8180  144.9770 C   0  0  0  0  0  0  0  0  0  0  0  0
  188.3530  177.5900  143.0550 C   0  0  0  0  0  3  0  0  0  0  0  0
  187.1510  177.8650  143.5780 C   0  0  0  0  0  0  0  0  0  0  0  0
  191.2990  176.5800  145.2280 N   0  0  0  0  0  0  0  0  0  0  0  0
  191.9080  177.0200  146.3550 O   0  0  0  0  0  0  0  0  0  0  0  0
  191.9840  175.7640  144.3900 O   0  0  0  0  0  0  0  0  0  0  0  0
  185.4050  178.8160  138.9540 C   0  0  0  0  0  2  0  0  0  0  0  0
  188.9340  178.2940  137.6390 C   0  0  0  0  0  3  0  0  0  0  0  0
  186.2740  177.3260  137.0970 C   0  0  0  0  0  2  0  0  0  0  0  0
  189.7470  175.2580  135.6350 C   0  0  2  0  0  3  0  0  0  0  0  0
  190.0590  176.6370  136.2320 C   0  0  0  0  0  2  0  0  0  0  0  0
  188.8200  177.2650  136.7960 C   0  0  0  0  0  0  0  0  0  0  0  0
  187.5500  175.1200  136.9760 C   0  0  0  0  0  2  0  0  0  0  0  0
  187.4940  176.5860  136.5400 C   0  0  1  0  0  3  0  0  0  0  0  0
  188.8680  174.4210  136.5790 C   0  0  0  0  0  2  0  0  0  0  0  0
  186.5790  177.9780  138.4430 C   0  0  1  0  0  3  0  0  0  0  0  0
  187.7960  178.7790  138.3540 N   0  0  0  0  0  2  0  0  0  0  0  0
  190.9810  174.5520  135.3320 N   0  0  0  0  0  0  0  0  0  0  0  0
  192.0680  175.1630  135.3700 O   0  0  0  0  0  0  0  0  0  0  0  0
  190.9670  173.2010  135.0710 O   0  0  0  0  0  0  0  0  0  0  0  0
  1 10  1  0  0  0  0
  1 17  1  0  0  0  0
  4  8  2  0  0  0  0
  4  5  1  0  0  0  0
  5  1  2  0  0  0  0
  6 10  2  0  0  0  0
  6  7  1  0  0  0  0
  7 11  1  0  0  0  0
  8  6  1  0  0  0  0
  9 11  2  0  0  0  0
  9  3  1  0  0  0  0
 10  9  1  0  0  0  0
 12  2  2  0  0  0  0
 13 18  1  0  0  0  0
 13 12  1  0  0  0  0
 14 13  2  0  0  0  0
 15  3  2  0  0  0  0
 15  2  1  0  0  0  0
 16 17  2  0  0  0  0
 16 14  1  0  0  0  0
 17 15  1  0  0  0  0
 18 19  2  0  0  0  0
 20 18  2  0  0  0  0
 21  4  1  0  0  0  0
 22 31  1  0  0  0  0
 23 30  1  0  0  0  0
 24 32  1  1  0  0  0
 24 25  1  0  0  0  0
 24 29  1  0  0  0  0
 25 26  1  0  0  0  0
 26 22  2  0  0  0  0
 28 26  1  0  0  0  0
 28 27  1  1  0  0  0
 28 23  1  0  0  0  0
 29 27  1  0  0  0  0
 30 21  1  6  0  0  0
 31 30  1  0  0  0  0
 32 33  2  0  0  0  0
 34 32  2  0  0  0  0
M  END
>  <MODEL>
7

>  <REMARK>
 VINA RESULT:      -9.4      3.842      5.644
  Name = 
  4 active torsions:
  status: ('A' for Active; 'I' for Inactive)
    1  A    between atoms: N_3  and  C_25
    2  A    between atoms: C_7  and  N_11
    3  A    between atoms: C_8  and  C_18
    4  A    between atoms: C_18  and  C_30
                            x       y       z     vdW  Elec       q    Type
                         _______ _______ _______ _____ _____    ______ ____

>  <TORSDO>
F 4

$$$$
=
 OpenBabel10272415183D

 34 39  0  0  1  0  0  0  0  0999 V2000
  187.9970  177.9290  143.4390 C   0  0  0  0  0  0  0  0  0  0  0  0
  188.5930  177.2100  147.1690 C   0  0  0  0  0  3  0  0  0  0  0  0
  186.7050  177.9370  145.9100 N   0  0  0  0  0  0  0  0  0  0  0  0
  187.7390  178.3610  141.0310 C   0  0  0  0  0  0  0  0  0  0  0  0
  188.5380  177.9680  142.1310 C   0  0  0  0  0  3  0  0  0  0  0  0
  185.8840  178.6720  142.5160 C   0  0  0  0  0  0  0  0  0  0  0  0
  184.3540  179.0250  143.1130 S   0  0  0  0  0  0  0  0  0  0  0  0
  186.3880  178.7220  141.2200 C   0  0  0  0  0  3  0  0  0  0  0  0
  186.0270  178.2950  144.7950 C   0  0  0  0  0  0  0  0  0  0  0  0
  186.6640  178.2910  143.5740 C   0  0  0  0  0  0  0  0  0  0  0  0
  184.6880  178.6870  144.7520 C   0  0  0  0  0  3  0  0  0  0  0  0
  189.8110  176.8130  147.5140 C   0  0  0  0  0  3  0  0  0  0  0  0
  191.0020  176.5960  146.6860 C   0  0  0  0  0  0  0  0  0  0  0  0
  191.0440  176.7780  145.3680 C   0  0  0  0  0  3  0  0  0  0  0  0
  188.0240  177.5660  145.8620 C   0  0  0  0  0  0  0  0  0  0  0  0
  190.0020  177.2120  144.4340 C   0  0  0  0  0  3  0  0  0  0  0  0
  188.7180  177.5530  144.6040 C   0  0  0  0  0  0  0  0  0  0  0  0
  192.1990  176.1580  147.3470 N   0  0  0  0  0  0  0  0  0  0  0  0
  192.6430  176.8000  148.4540 O   0  0  0  0  0  0  0  0  0  0  0  0
  192.9020  175.1000  146.8780 O   0  0  0  0  0  0  0  0  0  0  0  0
  188.3360  178.4140  139.6600 C   0  0  0  0  0  2  0  0  0  0  0  0
  189.3610  175.5910  137.3280 C   0  0  0  0  0  3  0  0  0  0  0  0
  187.1070  177.3440  137.7200 C   0  0  0  0  0  2  0  0  0  0  0  0
  186.7750  173.7650  135.3620 C   0  0  2  0  0  3  0  0  0  0  0  0
  188.2190  174.1180  135.7430 C   0  0  0  0  0  2  0  0  0  0  0  0
  188.2550  175.3250  136.6310 C   0  0  0  0  0  0  0  0  0  0  0  0
  185.8640  175.1490  137.3370 C   0  0  0  0  0  2  0  0  0  0  0  0
  186.9690  176.0900  136.8510 C   0  0  1  0  0  3  0  0  0  0  0  0
  185.8450  173.8000  136.5870 C   0  0  0  0  0  2  0  0  0  0  0  0
  188.1040  177.1340  138.8560 C   0  0  1  0  0  3  0  0  0  0  0  0
  189.3610  176.6050  138.3360 N   0  0  0  0  0  2  0  0  0  0  0  0
  186.7280  172.4570  134.7280 N   0  0  0  0  0  0  0  0  0  0  0  0
  185.6320  171.9910  134.3570 O   0  0  0  0  0  0  0  0  0  0  0  0
  187.8880  171.7630  134.4720 O   0  0  0  0  0  0  0  0  0  0  0  0
  1 10  1  0  0  0  0
  1 17  1  0  0  0  0
  2 12  2  0  0  0  0
  4  8  2  0  0  0  0
  4  5  1  0  0  0  0
  5  1  2  0  0  0  0
  6  7  1  0  0  0  0
  6 10  2  0  0  0  0
  7 11  1  0  0  0  0
  8  6  1  0  0  0  0
  9  3  1  0  0  0  0
 10  9  1  0  0  0  0
 11  9  2  0  0  0  0
 13 18  1  0  0  0  0
 13 12  1  0  0  0  0
 14 13  2  0  0  0  0
 15  3  2  0  0  0  0
 15  2  1  0  0  0  0
 16 17  2  0  0  0  0
 16 14  1  0  0  0  0
 17 15  1  0  0  0  0
 18 19  2  0  0  0  0
 20 18  2  0  0  0  0
 21  4  1  0  0  0  0
 22 31  1  0  0  0  0
 23 30  1  0  0  0  0
 24 32  1  1  0  0  0
 24 25  1  0  0  0  0
 24 29  1  0  0  0  0
 25 26  1  0  0  0  0
 26 28  1  0  0  0  0
 26 22  2  0  0  0  0
 28 27  1  1  0  0  0
 28 23  1  0  0  0  0
 29 27  1  0  0  0  0
 30 21  1  6  0  0  0
 31 30  1  0  0  0  0
 33 32  2  0  0  0  0
 34 32  2  0  0  0  0
M  END
>  <MODEL>
8

>  <REMARK>
 VINA RESULT:      -9.3      4.295      5.767
  Name = 
  4 active torsions:
  status: ('A' for Active; 'I' for Inactive)
    1  A    between atoms: N_3  and  C_25
    2  A    between atoms: C_7  and  N_11
    3  A    between atoms: C_8  and  C_18
    4  A    between atoms: C_18  and  C_30
                            x       y       z     vdW  Elec       q    Type
                         _______ _______ _______ _____ _____    ______ ____

>  <TORSDO>
F 4

$$$$
=
 OpenBabel10272415183D

 34 39  0  0  1  0  0  0  0  0999 V2000
  187.4690  178.0010  139.3480 C   0  0  0  0  0  0  0  0  0  0  0  0
  183.7260  178.7530  138.8860 C   0  0  0  0  0  3  0  0  0  0  0  0
  185.5350  178.3880  137.3770 N   0  0  0  0  0  0  0  0  0  0  0  0
  189.8460  177.5290  139.7700 C   0  0  0  0  0  0  0  0  0  0  0  0
  188.5400  177.7890  140.2490 C   0  0  0  0  0  3  0  0  0  0  0  0
  189.0310  177.6870  137.5220 C   0  0  0  0  0  0  0  0  0  0  0  0
  188.9570  177.7020  135.8440 S   0  0  0  0  0  0  0  0  0  0  0  0
  190.1030  177.4760  138.3840 C   0  0  0  0  0  3  0  0  0  0  0  0
  186.8150  178.1300  137.0230 C   0  0  0  0  0  0  0  0  0  0  0  0
  187.7710  177.9390  137.9950 C   0  0  0  0  0  0  0  0  0  0  0  0
  187.2880  178.0350  135.7130 C   0  0  0  0  0  3  0  0  0  0  0  0
  183.0060  178.9010  139.9900 C   0  0  0  0  0  3  0  0  0  0  0  0
  183.4110  178.8240  141.3980 C   0  0  0  0  0  0  0  0  0  0  0  0
  184.6510  178.5760  141.8100 C   0  0  0  0  0  3  0  0  0  0  0  0
  185.1540  178.4660  138.6920 C   0  0  0  0  0  0  0  0  0  0  0  0
  185.8760  178.3270  141.0450 C   0  0  0  0  0  3  0  0  0  0  0  0
  186.1280  178.2730  139.7310 C   0  0  0  0  0  0  0  0  0  0  0  0
  182.3960  179.0320  142.3920 N   0  0  0  0  0  0  0  0  0  0  0  0
  182.7150  179.0220  143.7090 O   0  0  0  0  0  0  0  0  0  0  0  0
  181.1060  179.2400  142.0330 O   0  0  0  0  0  0  0  0  0  0  0  0
  190.9670  177.3260  140.7400 C   0  0  0  0  0  2  0  0  0  0  0  0
  191.6000  177.7130  144.4700 C   0  0  0  0  0  3  0  0  0  0  0  0
  189.6590  176.4740  142.7350 C   0  0  0  0  0  2  0  0  0  0  0  0
  188.8280  177.1550  146.8980 C   0  0  2  0  0  3  0  0  0  0  0  0
  190.2940  177.4030  146.5160 C   0  0  0  0  0  2  0  0  0  0  0  0
  190.4950  177.2290  145.0400 C   0  0  0  0  0  0  0  0  0  0  0  0
  188.0810  177.5040  144.4560 C   0  0  0  0  0  2  0  0  0  0  0  0
  189.3490  176.6790  144.2220 C   0  0  1  0  0  3  0  0  0  0  0  0
  187.8660  177.8760  145.9380 C   0  0  0  0  0  2  0  0  0  0  0  0
  190.5570  177.5820  142.1910 C   0  0  1  0  0  3  0  0  0  0  0  0
  191.7280  177.7520  143.0470 N   0  0  0  0  0  2  0  0  0  0  0  0
  188.5880  177.5780  148.2680 N   0  0  0  0  0  0  0  0  0  0  0  0
  187.5920  177.1450  148.8820 O   0  0  0  0  0  0  0  0  0  0  0  0
  189.4860  178.3960  148.9150 O   0  0  0  0  0  0  0  0  0  0  0  0
  1 17  1  0  0  0  0
  1  5  1  0  0  0  0
  2 12  2  0  0  0  0
  3 15  2  0  0  0  0
  4  5  2  0  0  0  0
  4 21  1  0  0  0  0
  6 10  1  0  0  0  0
  6  8  2  0  0  0  0
  7  6  1  0  0  0  0
  8  4  1  0  0  0  0
  9  3  1  0  0  0  0
  9 10  1  0  0  0  0
 10  1  2  0  0  0  0
 11  7  1  0  0  0  0
 11  9  2  0  0  0  0
 12 13  1  0  0  0  0
 13 14  2  0  0  0  0
 13 18  1  0  0  0  0
 15  2  1  0  0  0  0
 15 17  1  0  0  0  0
 16 14  1  0  0  0  0
 17 16  2  0  0  0  0
 18 19  2  0  0  0  0
 20 18  2  0  0  0  0
 22 26  2  0  0  0  0
 24 32  1  1  0  0  0
 25 24  1  0  0  0  0
 26 25  1  0  0  0  0
 27 29  1  0  0  0  0
 28 23  1  6  0  0  0
 28 27  1  0  0  0  0
 28 26  1  0  0  0  0
 29 24  1  0  0  0  0
 30 21  1  6  0  0  0
 30 23  1  0  0  0  0
 30 31  1  0  0  0  0
 31 22  1  0  0  0  0
 32 33  2  0  0  0  0
 32 34  2  0  0  0  0
M  END
>  <MODEL>
9

>  <REMARK>
 VINA RESULT:      -9.3      3.470      7.396
  Name = 
  4 active torsions:
  status: ('A' for Active; 'I' for Inactive)
    1  A    between atoms: N_3  and  C_25
    2  A    between atoms: C_7  and  N_11
    3  A    between atoms: C_8  and  C_18
    4  A    between atoms: C_18  and  C_30
                            x       y       z     vdW  Elec       q    Type
                         _______ _______ _______ _____ _____    ______ ____

>  <TORSDO>
F 4

$$$$
