=
 OpenBabel10272400453D

 25 26  0  0  1  0  0  0  0  0999 V2000
  187.0170  177.6550  145.1700 N   0  0  0  0  0  0  0  0  0  0  0  0
  188.0660  177.2560  144.4290 C   0  0  0  0  0  0  0  0  0  0  0  0
  189.4430  177.7900  147.5830 C   0  0  0  0  0  1  0  0  0  0  0  0
  188.7410  177.6390  146.4660 C   0  0  0  0  0  0  0  0  0  0  0  0
  190.4730  176.8730  144.8490 C   0  0  2  0  0  3  0  0  0  0  0  0
  191.5950  176.8280  145.8320 C   0  0  0  0  0  1  0  0  0  0  0  0
  187.9730  176.9090  143.1860 N   0  0  0  0  0  1  0  0  0  0  0  0
  187.4170  177.8940  146.4090 N   0  0  0  0  0  0  0  0  0  0  0  0
  189.2160  177.2240  145.2140 C   0  0  0  0  0  0  0  0  0  0  0  0
  185.6410  177.8050  144.7050 C   0  0  1  0  0  3  0  0  0  0  0  0
  183.4700  179.4490  143.6120 C   0  0  0  0  0  2  0  0  0  0  0  0
  184.8750  178.8000  145.5850 C   0  0  1  0  0  3  0  0  0  0  0  0
  183.4510  178.9840  145.0650 C   0  0  0  0  0  2  0  0  0  0  0  0
  184.2010  178.4280  142.7480 C   0  0  0  0  0  2  0  0  0  0  0  0
  184.8210  178.3140  146.9530 N   0  0  0  0  0  1  0  0  0  0  0  0
  185.6330  178.2550  143.2430 C   0  0  0  0  0  2  0  0  0  0  0  0
  190.8150  176.4860  143.4450 C   0  0  0  0  0  2  0  0  0  0  0  0
  191.3240  177.6960  142.6770 C   0  0  0  0  0  2  0  0  0  0  0  0
  191.8900  177.2750  141.3300 C   0  0  0  0  0  2  0  0  0  0  0  0
  189.7160  177.9730  140.2520 N   0  0  0  0  0  2  0  0  0  0  0  0
  190.7940  177.0400  140.3470 C   0  0  0  0  0  0  0  0  0  0  0  0
  190.8150  176.0060  139.6280 O   0  0  0  0  0  0  0  0  0  0  0  0
  187.3450  178.3710  139.9520 C   0  0  0  0  0  1  0  0  0  0  0  0
  188.8870  178.5030  138.0260 C   0  0  0  0  0  1  0  0  0  0  0  0
  188.6000  177.7920  139.3340 C   0  0  0  0  0  3  0  0  0  0  0  0
  1  8  1  0  0  0  0
  2  1  1  0  0  0  0
  2  9  2  0  0  0  0
  4  3  1  0  0  0  0
  5  9  1  0  0  0  0
  5  6  1  1  0  0  0
  7  2  1  0  0  0  0
  8  4  2  0  0  0  0
  9  4  1  0  0  0  0
 10 16  1  6  0  0  0
 10  1  1  0  0  0  0
 10 12  1  0  0  0  0
 11 13  1  0  0  0  0
 12 15  1  1  0  0  0
 13 12  1  0  0  0  0
 14 16  1  0  0  0  0
 14 11  1  0  0  0  0
 17  5  1  0  0  0  0
 18 17  1  0  0  0  0
 19 18  1  0  0  0  0
 20 21  1  0  0  0  0
 21 19  1  0  0  0  0
 22 21  2  0  0  0  0
 24 25  1  0  0  0  0
 25 23  1  0  0  0  0
 25 20  1  0  0  0  0
M  END
>  <MODEL>
1

>  <REMARK>
 VINA RESULT:      -8.6      0.000      0.000
  Name = 
  6 active torsions:
  status: ('A' for Active; 'I' for Inactive)
    1  A    between atoms: N_1  and  C_5
    2  A    between atoms: N_2  and  C_21
    3  A    between atoms: C_6  and  C_15
    4  A    between atoms: C_6  and  C_23
    5  A    between atoms: C_13  and  C_20
    6  A    between atoms: C_20  and  C_23
                            x       y       z     vdW  Elec       q    Type
                         _______ _______ _______ _____ _____    ______ ____

>  <TORSDO>
F 6

$$$$
=
 OpenBabel10272400453D

 25 26  0  0  1  0  0  0  0  0999 V2000
  188.3510  177.5770  141.9360 N   0  0  0  0  0  0  0  0  0  0  0  0
  187.8690  177.3210  143.1650 C   0  0  0  0  0  0  0  0  0  0  0  0
  185.4390  179.3690  141.7410 C   0  0  0  0  0  1  0  0  0  0  0  0
  186.4620  178.6050  142.1060 C   0  0  0  0  0  0  0  0  0  0  0  0
  185.8360  177.9500  144.4250 C   0  0  2  0  0  3  0  0  0  0  0  0
  184.5120  178.6390  144.4290 C   0  0  0  0  0  1  0  0  0  0  0  0
  188.4590  176.5460  144.0180 N   0  0  0  0  0  1  0  0  0  0  0  0
  187.5050  178.3590  141.2850 N   0  0  0  0  0  0  0  0  0  0  0  0
  186.6440  177.9600  143.3370 C   0  0  0  0  0  0  0  0  0  0  0  0
  189.6050  177.0770  141.3810 C   0  0  1  0  0  3  0  0  0  0  0  0
  192.2300  177.5440  140.1540 C   0  0  0  0  0  2  0  0  0  0  0  0
  189.7370  177.4610  139.9020 C   0  0  1  0  0  3  0  0  0  0  0  0
  191.0710  176.9740  139.3410 C   0  0  0  0  0  2  0  0  0  0  0  0
  192.1030  177.1190  141.6130 C   0  0  0  0  0  2  0  0  0  0  0  0
  188.6550  176.8650  139.1360 N   0  0  0  0  0  1  0  0  0  0  0  0
  190.7840  177.6220  142.1890 C   0  0  0  0  0  2  0  0  0  0  0  0
  186.2060  177.2300  145.6840 C   0  0  0  0  0  2  0  0  0  0  0  0
  186.7500  178.2130  146.7090 C   0  0  0  0  0  2  0  0  0  0  0  0
  187.4400  177.4750  147.8440 C   0  0  0  0  0  2  0  0  0  0  0  0
  189.7460  176.6900  147.1760 N   0  0  0  0  0  2  0  0  0  0  0  0
  188.9160  177.6800  147.7880 C   0  0  0  0  0  0  0  0  0  0  0  0
  189.4210  178.7120  148.3050 O   0  0  0  0  0  0  0  0  0  0  0  0
  191.8290  175.5330  147.6100 C   0  0  0  0  0  1  0  0  0  0  0  0
  191.6280  177.0600  145.6780 C   0  0  0  0  0  1  0  0  0  0  0  0
  191.1950  176.8130  147.1100 C   0  0  0  0  0  3  0  0  0  0  0  0
  1  2  1  0  0  0  0
  2  9  2  0  0  0  0
  2  7  1  0  0  0  0
  3  4  1  0  0  0  0
  4  9  1  0  0  0  0
  5  6  1  6  0  0  0
  5 17  1  0  0  0  0
  8  1  1  0  0  0  0
  8  4  2  0  0  0  0
  9  5  1  0  0  0  0
 10  1  1  1  0  0  0
 10 16  1  0  0  0  0
 11 14  1  0  0  0  0
 12 15  1  6  0  0  0
 12 10  1  0  0  0  0
 13 12  1  0  0  0  0
 13 11  1  0  0  0  0
 14 16  1  0  0  0  0
 17 18  1  0  0  0  0
 18 19  1  0  0  0  0
 20 21  1  0  0  0  0
 21 19  1  0  0  0  0
 21 22  2  0  0  0  0
 24 25  1  0  0  0  0
 25 20  1  0  0  0  0
 25 23  1  0  0  0  0
M  END
>  <MODEL>
2

>  <REMARK>
 VINA RESULT:      -8.6      2.570      6.914
  Name = 
  6 active torsions:
  status: ('A' for Active; 'I' for Inactive)
    1  A    between atoms: N_1  and  C_5
    2  A    between atoms: N_2  and  C_21
    3  A    between atoms: C_6  and  C_15
    4  A    between atoms: C_6  and  C_23
    5  A    between atoms: C_13  and  C_20
    6  A    between atoms: C_20  and  C_23
                            x       y       z     vdW  Elec       q    Type
                         _______ _______ _______ _____ _____    ______ ____

>  <TORSDO>
F 6

$$$$
=
 OpenBabel10272400453D

 25 26  0  0  1  0  0  0  0  0999 V2000
  186.4790  178.6230  141.7440 N   0  0  0  0  0  0  0  0  0  0  0  0
  187.3470  177.8130  142.3760 C   0  0  0  0  0  0  0  0  0  0  0  0
  188.8950  178.4570  139.3220 C   0  0  0  0  0  1  0  0  0  0  0  0
  188.1580  178.3350  140.4200 C   0  0  0  0  0  0  0  0  0  0  0  0
  189.5550  176.8360  141.8360 C   0  0  2  0  0  3  0  0  0  0  0  0
  190.7010  176.7460  140.8830 C   0  0  0  0  0  1  0  0  0  0  0  0
  187.1680  177.3700  143.5780 N   0  0  0  0  0  1  0  0  0  0  0  0
  186.9600  178.9440  140.5540 N   0  0  0  0  0  0  0  0  0  0  0  0
  188.4590  177.5880  141.5670 C   0  0  0  0  0  0  0  0  0  0  0  0
  185.2030  179.0950  142.2710 C   0  0  1  0  0  3  0  0  0  0  0  0
  182.8330  178.7230  143.9630 C   0  0  0  0  0  2  0  0  0  0  0  0
  184.0610  178.1610  141.8500 C   0  0  1  0  0  3  0  0  0  0  0  0
  182.7370  178.6370  142.4430 C   0  0  0  0  0  2  0  0  0  0  0  0
  183.9460  179.6860  144.3610 C   0  0  0  0  0  2  0  0  0  0  0  0
  183.9500  178.1340  140.4020 N   0  0  0  0  0  1  0  0  0  0  0  0
  185.2790  179.2060  143.7950 C   0  0  0  0  0  2  0  0  0  0  0  0
  189.7000  176.0680  143.1110 C   0  0  0  0  0  2  0  0  0  0  0  0
  191.0840  176.2890  143.7020 C   0  0  0  0  0  2  0  0  0  0  0  0
  191.0770  177.4750  144.6520 C   0  0  0  0  0  2  0  0  0  0  0  0
  189.1060  177.8640  146.1840 N   0  0  0  0  0  2  0  0  0  0  0  0
  190.3110  177.1540  145.8910 C   0  0  0  0  0  0  0  0  0  0  0  0
  190.7490  176.2770  146.6830 O   0  0  0  0  0  0  0  0  0  0  0  0
  188.9480  178.3660  148.5490 C   0  0  0  0  0  1  0  0  0  0  0  0
  186.9020  178.1070  147.1870 C   0  0  0  0  0  1  0  0  0  0  0  0
  188.3250  177.6210  147.3870 C   0  0  0  0  0  3  0  0  0  0  0  0
  1  2  1  0  0  0  0
  2  7  1  0  0  0  0
  3  4  1  0  0  0  0
  4  8  2  0  0  0  0
  4  9  1  0  0  0  0
  5  6  1  1  0  0  0
  5 17  1  0  0  0  0
  8  1  1  0  0  0  0
  9  5  1  0  0  0  0
  9  2  2  0  0  0  0
 10  1  1  1  0  0  0
 10 16  1  0  0  0  0
 11 14  1  0  0  0  0
 12 15  1  6  0  0  0
 12 10  1  0  0  0  0
 12 13  1  0  0  0  0
 13 11  1  0  0  0  0
 16 14  1  0  0  0  0
 17 18  1  0  0  0  0
 18 19  1  0  0  0  0
 19 21  1  0  0  0  0
 20 25  1  0  0  0  0
 21 20  1  0  0  0  0
 21 22  2  0  0  0  0
 24 25  1  0  0  0  0
 25 23  1  0  0  0  0
M  END
>  <MODEL>
3

>  <REMARK>
 VINA RESULT:      -8.4      2.258      5.111
  Name = 
  6 active torsions:
  status: ('A' for Active; 'I' for Inactive)
    1  A    between atoms: N_1  and  C_5
    2  A    between atoms: N_2  and  C_21
    3  A    between atoms: C_6  and  C_15
    4  A    between atoms: C_6  and  C_23
    5  A    between atoms: C_13  and  C_20
    6  A    between atoms: C_20  and  C_23
                            x       y       z     vdW  Elec       q    Type
                         _______ _______ _______ _____ _____    ______ ____

>  <TORSDO>
F 6

$$$$
=
 OpenBabel10272400453D

 25 26  0  0  1  0  0  0  0  0999 V2000
  189.3020  177.3630  142.4270 N   0  0  0  0  0  0  0  0  0  0  0  0
  188.3840  177.2920  143.4060 C   0  0  0  0  0  0  0  0  0  0  0  0
  191.3480  177.9650  145.1070 C   0  0  0  0  0  1  0  0  0  0  0  0
  190.3310  177.7180  144.2900 C   0  0  0  0  0  0  0  0  0  0  0  0
  188.4130  177.5320  145.8680 C   0  0  2  0  0  3  0  0  0  0  0  0
  189.1940  177.8520  147.1000 C   0  0  0  0  0  1  0  0  0  0  0  0
  187.1220  177.0980  143.1920 N   0  0  0  0  0  1  0  0  0  0  0  0
  190.4900  177.6180  142.9540 N   0  0  0  0  0  0  0  0  0  0  0  0
  188.9890  177.5140  144.6410 C   0  0  0  0  0  0  0  0  0  0  0  0
  189.0540  177.1950  140.9990 C   0  0  1  0  0  3  0  0  0  0  0  0
  189.6970  177.7910  138.1980 C   0  0  0  0  0  2  0  0  0  0  0  0
  188.6530  178.5290  140.3550 C   0  0  1  0  0  3  0  0  0  0  0  0
  188.4390  178.3530  138.8540 C   0  0  0  0  0  2  0  0  0  0  0  0
  190.0560  176.4470  138.8240 C   0  0  0  0  0  2  0  0  0  0  0  0
  187.4250  179.0200  140.9550 N   0  0  0  0  0  1  0  0  0  0  0  0
  190.2970  176.6170  140.3200 C   0  0  0  0  0  2  0  0  0  0  0  0
  186.9570  177.2560  146.0670 C   0  0  0  0  0  2  0  0  0  0  0  0
  186.2550  178.4990  146.5950 C   0  0  0  0  0  2  0  0  0  0  0  0
  184.7520  178.3860  146.4050 C   0  0  0  0  0  2  0  0  0  0  0  0
  183.0960  178.6230  144.5130 N   0  0  0  0  0  2  0  0  0  0  0  0
  184.3350  179.0050  145.1140 C   0  0  0  0  0  0  0  0  0  0  0  0
  185.0940  179.8380  144.5500 O   0  0  0  0  0  0  0  0  0  0  0  0
  183.3310  178.4350  142.1090 C   0  0  0  0  0  1  0  0  0  0  0  0
  181.1410  178.9880  143.1100 C   0  0  0  0  0  1  0  0  0  0  0  0
  182.6410  179.1660  143.2410 C   0  0  0  0  0  3  0  0  0  0  0  0
  1  8  1  0  0  0  0
  1  2  1  0  0  0  0
  2  9  2  0  0  0  0
  4  9  1  0  0  0  0
  4  3  1  0  0  0  0
  5 17  1  0  0  0  0
  5  6  1  6  0  0  0
  7  2  1  0  0  0  0
  8  4  2  0  0  0  0
  9  5  1  0  0  0  0
 10 16  1  6  0  0  0
 10  1  1  0  0  0  0
 11 14  1  0  0  0  0
 11 13  1  0  0  0  0
 12 15  1  1  0  0  0
 12 10  1  0  0  0  0
 13 12  1  0  0  0  0
 14 16  1  0  0  0  0
 17 18  1  0  0  0  0
 19 18  1  0  0  0  0
 20 21  1  0  0  0  0
 21 19  1  0  0  0  0
 22 21  2  0  0  0  0
 23 25  1  0  0  0  0
 24 25  1  0  0  0  0
 25 20  1  0  0  0  0
M  END
>  <MODEL>
4

>  <REMARK>
 VINA RESULT:      -8.4      2.311      6.012
  Name = 
  6 active torsions:
  status: ('A' for Active; 'I' for Inactive)
    1  A    between atoms: N_1  and  C_5
    2  A    between atoms: N_2  and  C_21
    3  A    between atoms: C_6  and  C_15
    4  A    between atoms: C_6  and  C_23
    5  A    between atoms: C_13  and  C_20
    6  A    between atoms: C_20  and  C_23
                            x       y       z     vdW  Elec       q    Type
                         _______ _______ _______ _____ _____    ______ ____

>  <TORSDO>
F 6

$$$$
=
 OpenBabel10272400453D

 25 26  0  0  1  0  0  0  0  0999 V2000
  185.4730  178.2990  144.1610 N   0  0  0  0  0  0  0  0  0  0  0  0
  186.6600  177.7240  144.4260 C   0  0  0  0  0  0  0  0  0  0  0  0
  185.9370  179.4960  147.3360 C   0  0  0  0  0  1  0  0  0  0  0  0
  186.0340  178.8890  146.1600 C   0  0  0  0  0  0  0  0  0  0  0  0
  188.2100  177.6940  146.3530 C   0  0  2  0  0  3  0  0  0  0  0  0
  188.4850  178.0990  147.7640 C   0  0  0  0  0  1  0  0  0  0  0  0
  187.2690  176.9300  143.6060 N   0  0  0  0  0  1  0  0  0  0  0  0
  185.0850  179.0120  145.2070 N   0  0  0  0  0  0  0  0  0  0  0  0
  187.0780  178.0690  145.7090 C   0  0  0  0  0  0  0  0  0  0  0  0
  184.7100  178.1670  142.9250 C   0  0  1  0  0  3  0  0  0  0  0  0
  183.4420  179.3520  140.5570 C   0  0  0  0  0  2  0  0  0  0  0  0
  183.3760  178.9180  143.0260 C   0  0  1  0  0  3  0  0  0  0  0  0
  182.6030  178.8140  141.7130 C   0  0  0  0  0  2  0  0  0  0  0  0
  184.7450  178.5680  140.4480 C   0  0  0  0  0  2  0  0  0  0  0  0
  182.5700  178.3560  144.0960 N   0  0  0  0  0  1  0  0  0  0  0  0
  185.5360  178.6870  141.7470 C   0  0  0  0  0  2  0  0  0  0  0  0
  189.2470  176.8330  145.7040 C   0  0  0  0  0  2  0  0  0  0  0  0
  190.3530  177.6970  145.1170 C   0  0  0  0  0  2  0  0  0  0  0  0
  191.3550  176.8410  144.3590 C   0  0  0  0  0  2  0  0  0  0  0  0
  190.6930  177.3220  141.9700 N   0  0  0  0  0  2  0  0  0  0  0  0
  190.7880  176.3950  143.0540 C   0  0  0  0  0  0  0  0  0  0  0  0
  190.3720  175.2120  142.9280 O   0  0  0  0  0  0  0  0  0  0  0  0
  188.9370  177.8530  140.3870 C   0  0  0  0  0  1  0  0  0  0  0  0
  191.1650  177.1430  139.5890 C   0  0  0  0  0  1  0  0  0  0  0  0
  190.1260  176.9620  140.6780 C   0  0  0  0  0  3  0  0  0  0  0  0
  1  2  1  0  0  0  0
  1  8  1  0  0  0  0
  2  9  2  0  0  0  0
  4  3  1  0  0  0  0
  5  6  1  1  0  0  0
  7  2  1  0  0  0  0
  8  4  2  0  0  0  0
  9  4  1  0  0  0  0
  9  5  1  0  0  0  0
 10 16  1  6  0  0  0
 10 12  1  0  0  0  0
 10  1  1  0  0  0  0
 11 13  1  0  0  0  0
 12 15  1  1  0  0  0
 13 12  1  0  0  0  0
 14 11  1  0  0  0  0
 14 16  1  0  0  0  0
 17  5  1  0  0  0  0
 18 17  1  0  0  0  0
 19 18  1  0  0  0  0
 20 21  1  0  0  0  0
 21 19  1  0  0  0  0
 22 21  2  0  0  0  0
 23 25  1  0  0  0  0
 24 25  1  0  0  0  0
 25 20  1  0  0  0  0
M  END
>  <MODEL>
5

>  <REMARK>
 VINA RESULT:      -8.2      1.711      2.746
  Name = 
  6 active torsions:
  status: ('A' for Active; 'I' for Inactive)
    1  A    between atoms: N_1  and  C_5
    2  A    between atoms: N_2  and  C_21
    3  A    between atoms: C_6  and  C_15
    4  A    between atoms: C_6  and  C_23
    5  A    between atoms: C_13  and  C_20
    6  A    between atoms: C_20  and  C_23
                            x       y       z     vdW  Elec       q    Type
                         _______ _______ _______ _____ _____    ______ ____

>  <TORSDO>
F 6

$$$$
=
 OpenBabel10272400453D

 25 26  0  0  1  0  0  0  0  0999 V2000
  187.3250  177.7880  142.1450 N   0  0  0  0  0  0  0  0  0  0  0  0
  187.2390  177.5080  143.4570 C   0  0  0  0  0  0  0  0  0  0  0  0
  184.4610  179.5230  142.8630 C   0  0  0  0  0  1  0  0  0  0  0  0
  185.5580  178.7750  142.8910 C   0  0  0  0  0  0  0  0  0  0  0  0
  185.6680  178.0800  145.2800 C   0  0  2  0  0  3  0  0  0  0  0  0
  184.3950  178.7410  145.6930 C   0  0  0  0  0  1  0  0  0  0  0  0
  188.0700  176.7350  144.0800 N   0  0  0  0  0  1  0  0  0  0  0  0
  186.3100  178.5600  141.7910 N   0  0  0  0  0  0  0  0  0  0  0  0
  186.1120  178.1200  144.0000 C   0  0  0  0  0  0  0  0  0  0  0  0
  188.3630  177.3210  141.2310 C   0  0  1  0  0  3  0  0  0  0  0  0
  190.9530  177.6770  139.8960 C   0  0  0  0  0  2  0  0  0  0  0  0
  188.5260  178.2890  140.0520 C   0  0  1  0  0  3  0  0  0  0  0  0
  189.6430  177.8170  139.1250 C   0  0  0  0  0  2  0  0  0  0  0  0
  190.7810  176.6820  141.0390 C   0  0  0  0  0  2  0  0  0  0  0  0
  187.2860  178.3670  139.2990 N   0  0  0  0  0  1  0  0  0  0  0  0
  189.6840  177.1570  141.9850 C   0  0  0  0  0  2  0  0  0  0  0  0
  186.4090  177.3530  146.3570 C   0  0  0  0  0  2  0  0  0  0  0  0
  187.0690  178.3470  147.3010 C   0  0  0  0  0  2  0  0  0  0  0  0
  187.8760  177.6200  148.3640 C   0  0  0  0  0  2  0  0  0  0  0  0
  189.9100  176.8210  147.0990 N   0  0  0  0  0  2  0  0  0  0  0  0
  189.3350  177.7010  148.0670 C   0  0  0  0  0  0  0  0  0  0  0  0
  190.0520  178.5260  148.6930 O   0  0  0  0  0  0  0  0  0  0  0  0
  192.0090  175.6760  147.4920 C   0  0  0  0  0  1  0  0  0  0  0  0
  191.5250  176.6740  145.2840 C   0  0  0  0  0  1  0  0  0  0  0  0
  191.3310  176.8270  146.7800 C   0  0  0  0  0  3  0  0  0  0  0  0
  1  2  1  0  0  0  0
  2  9  2  0  0  0  0
  2  7  1  0  0  0  0
  3  4  1  0  0  0  0
  4  9  1  0  0  0  0
  5  6  1  6  0  0  0
  5 17  1  0  0  0  0
  8  1  1  0  0  0  0
  8  4  2  0  0  0  0
  9  5  1  0  0  0  0
 10 16  1  1  0  0  0
 10  1  1  0  0  0  0
 11 14  1  0  0  0  0
 12 15  1  6  0  0  0
 12 10  1  0  0  0  0
 13 11  1  0  0  0  0
 13 12  1  0  0  0  0
 14 16  1  0  0  0  0
 17 18  1  0  0  0  0
 18 19  1  0  0  0  0
 20 21  1  0  0  0  0
 21 19  1  0  0  0  0
 21 22  2  0  0  0  0
 24 25  1  0  0  0  0
 25 20  1  0  0  0  0
 25 23  1  0  0  0  0
M  END
>  <MODEL>
6

>  <REMARK>
 VINA RESULT:      -8.2      2.530      6.611
  Name = 
  6 active torsions:
  status: ('A' for Active; 'I' for Inactive)
    1  A    between atoms: N_1  and  C_5
    2  A    between atoms: N_2  and  C_21
    3  A    between atoms: C_6  and  C_15
    4  A    between atoms: C_6  and  C_23
    5  A    between atoms: C_13  and  C_20
    6  A    between atoms: C_20  and  C_23
                            x       y       z     vdW  Elec       q    Type
                         _______ _______ _______ _____ _____    ______ ____

>  <TORSDO>
F 6

$$$$
=
 OpenBabel10272400453D

 25 26  0  0  1  0  0  0  0  0999 V2000
  188.1260  177.9140  145.6340 N   0  0  0  0  0  0  0  0  0  0  0  0
  187.5220  178.0410  144.4400 C   0  0  0  0  0  0  0  0  0  0  0  0
  184.9140  178.4020  146.7190 C   0  0  0  0  0  1  0  0  0  0  0  0
  186.0280  178.2460  146.0130 C   0  0  0  0  0  0  0  0  0  0  0  0
  185.2060  178.4420  143.6710 C   0  0  2  0  0  3  0  0  0  0  0  0
  183.7860  178.7320  144.0280 C   0  0  0  0  0  1  0  0  0  0  0  0
  188.1560  178.0130  143.3110 N   0  0  0  0  0  1  0  0  0  0  0  0
  187.2260  178.0330  146.5980 N   0  0  0  0  0  0  0  0  0  0  0  0
  186.1580  178.2590  144.6170 C   0  0  0  0  0  0  0  0  0  0  0  0
  189.5490  177.6850  145.8610 C   0  0  1  0  0  3  0  0  0  0  0  0
  191.8020  175.8810  146.3930 C   0  0  0  0  0  2  0  0  0  0  0  0
  189.7910  177.1020  147.2590 C   0  0  1  0  0  3  0  0  0  0  0  0
  191.2780  176.8240  147.4710 C   0  0  0  0  0  2  0  0  0  0  0  0
  191.5880  176.4940  145.0130 C   0  0  0  0  0  2  0  0  0  0  0  0
  189.3350  178.0380  148.2730 N   0  0  0  0  0  1  0  0  0  0  0  0
  190.1030  176.7530  144.7820 C   0  0  0  0  0  2  0  0  0  0  0  0
  185.5170  178.3900  142.2090 C   0  0  0  0  0  2  0  0  0  0  0  0
  184.2300  178.3230  141.4000 C   0  0  0  0  0  2  0  0  0  0  0  0
  184.3450  179.1650  140.1410 C   0  0  0  0  0  2  0  0  0  0  0  0
  186.3630  178.5140  138.7680 N   0  0  0  0  0  2  0  0  0  0  0  0
  184.9650  178.3790  139.0350 C   0  0  0  0  0  0  0  0  0  0  0  0
  184.2450  177.6240  138.3290 O   0  0  0  0  0  0  0  0  0  0  0  0
  187.4780  178.7880  136.6350 C   0  0  0  0  0  1  0  0  0  0  0  0
  188.2360  177.0570  138.2280 C   0  0  0  0  0  1  0  0  0  0  0  0
  187.0280  177.7980  137.6890 C   0  0  0  0  0  3  0  0  0  0  0  0
  1 10  1  0  0  0  0
  1  8  1  0  0  0  0
  2  9  2  0  0  0  0
  2  1  1  0  0  0  0
  4  8  2  0  0  0  0
  4  3  1  0  0  0  0
  5  6  1  1  0  0  0
  5  9  1  0  0  0  0
  7  2  1  0  0  0  0
  9  4  1  0  0  0  0
 10 16  1  6  0  0  0
 10 12  1  0  0  0  0
 11 13  1  0  0  0  0
 12 13  1  0  0  0  0
 12 15  1  1  0  0  0
 14 11  1  0  0  0  0
 16 14  1  0  0  0  0
 17  5  1  0  0  0  0
 18 17  1  0  0  0  0
 19 18  1  0  0  0  0
 20 21  1  0  0  0  0
 21 19  1  0  0  0  0
 22 21  2  0  0  0  0
 23 25  1  0  0  0  0
 25 24  1  0  0  0  0
 25 20  1  0  0  0  0
M  END
>  <MODEL>
7

>  <REMARK>
 VINA RESULT:      -8.2      2.218      5.393
  Name = 
  6 active torsions:
  status: ('A' for Active; 'I' for Inactive)
    1  A    between atoms: N_1  and  C_5
    2  A    between atoms: N_2  and  C_21
    3  A    between atoms: C_6  and  C_15
    4  A    between atoms: C_6  and  C_23
    5  A    between atoms: C_13  and  C_20
    6  A    between atoms: C_20  and  C_23
                            x       y       z     vdW  Elec       q    Type
                         _______ _______ _______ _____ _____    ______ ____

>  <TORSDO>
F 6

$$$$
=
 OpenBabel10272400453D

 25 26  0  0  1  0  0  0  0  0999 V2000
  187.8360  177.6960  144.6500 N   0  0  0  0  0  0  0  0  0  0  0  0
  186.9890  178.1110  143.6920 C   0  0  0  0  0  0  0  0  0  0  0  0
  185.0600  178.2040  146.5910 C   0  0  0  0  0  1  0  0  0  0  0  0
  185.9470  178.1070  145.6070 C   0  0  0  0  0  0  0  0  0  0  0  0
  184.6260  178.8390  143.6270 C   0  0  2  0  0  3  0  0  0  0  0  0
  183.3790  179.1610  144.3820 C   0  0  0  0  0  1  0  0  0  0  0  0
  187.3290  178.2630  142.4530 N   0  0  0  0  0  1  0  0  0  0  0  0
  187.2120  177.6870  145.8170 N   0  0  0  0  0  0  0  0  0  0  0  0
  185.7440  178.3940  144.2490 C   0  0  0  0  0  0  0  0  0  0  0  0
  189.2320  177.3160  144.4590 C   0  0  1  0  0  3  0  0  0  0  0  0
  191.7480  177.4680  142.9550 C   0  0  0  0  0  2  0  0  0  0  0  0
  189.4160  176.5640  143.1350 C   0  0  1  0  0  3  0  0  0  0  0  0
  190.8860  176.2090  142.9220 C   0  0  0  0  0  2  0  0  0  0  0  0
  191.5820  178.1800  144.2930 C   0  0  0  0  0  2  0  0  0  0  0  0
  188.6300  175.3420  143.1450 N   0  0  0  0  0  1  0  0  0  0  0  0
  190.1200  178.5610  144.5040 C   0  0  0  0  0  2  0  0  0  0  0  0
  184.5730  179.0610  142.1480 C   0  0  0  0  0  2  0  0  0  0  0  0
  183.5410  178.1400  141.5160 C   0  0  0  0  0  2  0  0  0  0  0  0
  182.9920  178.7500  140.2370 C   0  0  0  0  0  2  0  0  0  0  0  0
  184.8120  178.0080  138.6510 N   0  0  0  0  0  2  0  0  0  0  0  0
  184.0970  179.0690  139.2880 C   0  0  0  0  0  0  0  0  0  0  0  0
  184.4090  180.2720  139.0780 O   0  0  0  0  0  0  0  0  0  0  0  0
  187.2270  177.9950  138.4540 C   0  0  0  0  0  1  0  0  0  0  0  0
  185.8150  177.3140  136.5450 C   0  0  0  0  0  1  0  0  0  0  0  0
  185.9190  178.2470  137.7350 C   0  0  0  0  0  3  0  0  0  0  0  0
  1  8  1  0  0  0  0
  2  9  2  0  0  0  0
  2  1  1  0  0  0  0
  4  8  2  0  0  0  0
  4  3  1  0  0  0  0
  5  9  1  0  0  0  0
  5  6  1  1  0  0  0
  7  2  1  0  0  0  0
  9  4  1  0  0  0  0
 10 16  1  6  0  0  0
 10  1  1  0  0  0  0
 11 14  1  0  0  0  0
 12 15  1  1  0  0  0
 12 10  1  0  0  0  0
 13 11  1  0  0  0  0
 13 12  1  0  0  0  0
 14 16  1  0  0  0  0
 17  5  1  0  0  0  0
 18 17  1  0  0  0  0
 19 18  1  0  0  0  0
 20 21  1  0  0  0  0
 21 19  1  0  0  0  0
 22 21  2  0  0  0  0
 24 25  1  0  0  0  0
 25 23  1  0  0  0  0
 25 20  1  0  0  0  0
M  END
>  <MODEL>
8

>  <REMARK>
 VINA RESULT:      -8.0      2.481      5.728
  Name = 
  6 active torsions:
  status: ('A' for Active; 'I' for Inactive)
    1  A    between atoms: N_1  and  C_5
    2  A    between atoms: N_2  and  C_21
    3  A    between atoms: C_6  and  C_15
    4  A    between atoms: C_6  and  C_23
    5  A    between atoms: C_13  and  C_20
    6  A    between atoms: C_20  and  C_23
                            x       y       z     vdW  Elec       q    Type
                         _______ _______ _______ _____ _____    ______ ____

>  <TORSDO>
F 6

$$$$
=
 OpenBabel10272400453D

 25 26  0  0  1  0  0  0  0  0999 V2000
  185.6080  178.4760  144.7830 N   0  0  0  0  0  0  0  0  0  0  0  0
  185.5160  178.3470  143.4480 C   0  0  0  0  0  0  0  0  0  0  0  0
  182.2220  178.8700  144.4510 C   0  0  0  0  0  1  0  0  0  0  0  0
  183.5240  178.6900  144.2660 C   0  0  0  0  0  0  0  0  0  0  0  0
  183.6770  178.4150  141.7950 C   0  0  2  0  0  3  0  0  0  0  0  0
  182.2270  178.6410  141.5240 C   0  0  0  0  0  1  0  0  0  0  0  0
  186.5390  178.1810  142.6730 N   0  0  0  0  0  1  0  0  0  0  0  0
  184.4030  178.6810  145.2910 N   0  0  0  0  0  0  0  0  0  0  0  0
  184.1880  178.4760  143.0490 C   0  0  0  0  0  0  0  0  0  0  0  0
  186.8340  178.4100  145.5730 C   0  0  1  0  0  3  0  0  0  0  0  0
  188.6010  177.0060  147.4500 C   0  0  0  0  0  2  0  0  0  0  0  0
  186.5130  178.3420  147.0710 C   0  0  1  0  0  3  0  0  0  0  0  0
  187.7990  178.2280  147.8870 C   0  0  0  0  0  2  0  0  0  0  0  0
  188.9430  177.1100  145.9670 C   0  0  0  0  0  2  0  0  0  0  0  0
  185.7970  179.5390  147.4800 N   0  0  0  0  0  1  0  0  0  0  0  0
  187.6650  177.2000  145.1410 C   0  0  0  0  0  2  0  0  0  0  0  0
  184.5340  178.1420  140.6000 C   0  0  0  0  0  2  0  0  0  0  0  0
  184.2370  179.1510  139.5000 C   0  0  0  0  0  2  0  0  0  0  0  0
  184.3040  178.4880  138.1340 C   0  0  0  0  0  2  0  0  0  0  0  0
  186.8250  178.5740  138.2480 N   0  0  0  0  0  2  0  0  0  0  0  0
  185.6360  177.8520  137.9210 C   0  0  0  0  0  0  0  0  0  0  0  0
  185.7010  176.6950  137.4270 O   0  0  0  0  0  0  0  0  0  0  0  0
  188.9730  178.9900  137.2070 C   0  0  0  0  0  1  0  0  0  0  0  0
  188.8450  177.8150  139.3760 C   0  0  0  0  0  1  0  0  0  0  0  0
  188.1580  178.0250  138.0410 C   0  0  0  0  0  3  0  0  0  0  0  0
  1  8  1  0  0  0  0
  2  1  1  0  0  0  0
  4  3  1  0  0  0  0
  4  8  2  0  0  0  0
  5  6  1  6  0  0  0
  5  9  1  0  0  0  0
  7  2  1  0  0  0  0
  9  2  2  0  0  0  0
  9  4  1  0  0  0  0
 10  1  1  6  0  0  0
 10 12  1  0  0  0  0
 11 13  1  0  0  0  0
 12 15  1  1  0  0  0
 12 13  1  0  0  0  0
 14 11  1  0  0  0  0
 16 10  1  0  0  0  0
 16 14  1  0  0  0  0
 17  5  1  0  0  0  0
 18 17  1  0  0  0  0
 19 18  1  0  0  0  0
 21 19  1  0  0  0  0
 21 20  1  0  0  0  0
 22 21  2  0  0  0  0
 23 25  1  0  0  0  0
 25 20  1  0  0  0  0
 25 24  1  0  0  0  0
M  END
>  <MODEL>
9

>  <REMARK>
 VINA RESULT:      -7.9      2.288      5.382
  Name = 
  6 active torsions:
  status: ('A' for Active; 'I' for Inactive)
    1  A    between atoms: N_1  and  C_5
    2  A    between atoms: N_2  and  C_21
    3  A    between atoms: C_6  and  C_15
    4  A    between atoms: C_6  and  C_23
    5  A    between atoms: C_13  and  C_20
    6  A    between atoms: C_20  and  C_23
                            x       y       z     vdW  Elec       q    Type
                         _______ _______ _______ _____ _____    ______ ____

>  <TORSDO>
F 6

$$$$
