=
 OpenBabel10272400283D

 31 35  0  0  0  0  0  0  0  0999 V2000
  185.0990  178.4670  144.4060 C   0  0  0  0  0  0  0  0  0  0  0  0
  188.7160  177.4570  144.1040 C   0  0  0  0  0  0  0  0  0  0  0  0
  189.2410  177.3720  145.4300 C   0  0  0  0  0  0  0  0  0  0  0  0
  188.5820  177.2620  138.8420 O   0  0  0  0  0  0  0  0  0  0  0  0
  189.7440  176.9580  139.2280 C   0  0  0  0  0  0  0  0  0  0  0  0
  189.0190  177.5410  147.8590 C   0  0  0  0  0  0  0  0  0  0  0  0
  187.3700  177.8140  143.7840 C   0  0  0  0  0  0  0  0  0  0  0  0
  184.7300  178.5090  143.0620 C   0  0  0  0  0  3  0  0  0  0  0  0
  188.4710  177.6350  146.5770 C   0  0  0  0  0  3  0  0  0  0  0  0
  189.1500  177.2320  141.7020 C   0  0  0  0  0  0  0  0  0  0  0  0
  184.1050  178.7880  145.4610 C   0  0  0  0  0  1  0  0  0  0  0  0
  191.4020  176.7360  144.5200 C   0  0  0  0  0  3  0  0  0  0  0  0
  188.2320  177.8080  148.9710 O   0  0  0  0  0  1  0  0  0  0  0  0
  187.8630  177.5750  141.4420 N   0  0  0  0  0  0  0  0  0  0  0  0
  189.6000  177.1670  143.0270 C   0  0  0  0  0  0  0  0  0  0  0  0
  190.0550  176.9350  140.6290 N   0  0  0  0  0  2  0  0  0  0  0  0
  186.4060  178.1240  144.7600 C   0  0  0  0  0  3  0  0  0  0  0  0
  190.3560  177.1800  148.0210 C   0  0  0  0  0  3  0  0  0  0  0  0
  186.9760  177.8630  142.4240 C   0  0  0  0  0  0  0  0  0  0  0  0
  185.6670  178.2080  142.0740 C   0  0  0  0  0  3  0  0  0  0  0  0
  190.8940  176.8220  143.2680 N   0  0  0  0  0  0  0  0  0  0  0  0
  190.5980  177.0070  145.6190 C   0  0  0  0  0  0  0  0  0  0  0  0
  191.1450  176.9130  146.9020 C   0  0  0  0  0  3  0  0  0  0  0  0
  192.7350  175.9660  136.3150 C   0  0  0  0  0  0  0  0  0  0  0  0
  190.4180  176.1150  136.9900 C   0  0  0  0  0  3  0  0  0  0  0  0
  192.5910  177.2880  139.7140 F   0  0  0  0  0  0  0  0  0  0  0  0
  193.6700  175.6500  135.3880 F   0  0  0  0  0  0  0  0  0  0  0  0
  191.3810  175.7880  136.0320 C   0  0  0  0  0  3  0  0  0  0  0  0
  192.1690  176.8010  138.5200 C   0  0  0  0  0  0  0  0  0  0  0  0
  190.7950  176.6240  138.2420 C   0  0  0  0  0  0  0  0  0  0  0  0
  193.1270  176.4710  137.5570 C   0  0  0  0  0  3  0  0  0  0  0  0
  1 17  1  0  0  0  0
  1 11  1  0  0  0  0
  2  3  1  0  0  0  0
  3 22  2  0  0  0  0
  3  9  1  0  0  0  0
  4  5  2  0  0  0  0
  5 16  1  0  0  0  0
  6 18  1  0  0  0  0
  6 13  1  0  0  0  0
  7  2  1  0  0  0  0
  7 17  2  0  0  0  0
  8  1  2  0  0  0  0
  9  6  2  0  0  0  0
 10 15  1  0  0  0  0
 12 22  1  0  0  0  0
 14 10  2  0  0  0  0
 14 19  1  0  0  0  0
 15 21  1  0  0  0  0
 15  2  2  0  0  0  0
 16 10  1  0  0  0  0
 19  7  1  0  0  0  0
 20 19  2  0  0  0  0
 20  8  1  0  0  0  0
 21 12  2  0  0  0  0
 22 23  1  0  0  0  0
 23 18  2  0  0  0  0
 24 31  1  0  0  0  0
 25 30  2  0  0  0  0
 27 24  1  0  0  0  0
 28 24  2  0  0  0  0
 28 25  1  0  0  0  0
 29 26  1  0  0  0  0
 30 29  1  0  0  0  0
 30  5  1  0  0  0  0
 31 29  2  0  0  0  0
M  END
>  <MODEL>
1

>  <REMARK>
 VINA RESULT:     -11.8      0.000      0.000
  Name = 
  1 active torsions:
  status: ('A' for Active; 'I' for Inactive)
    1  A    between atoms: C_9  and  C_22
                            x       y       z     vdW  Elec       q    Type
                         _______ _______ _______ _____ _____    ______ ____

>  <TORSDO>
F 1

$$$$
=
 OpenBabel10272400283D

 31 35  0  0  0  0  0  0  0  0999 V2000
  185.0830  178.4880  144.4290 C   0  0  0  0  0  0  0  0  0  0  0  0
  188.6820  177.4500  144.0360 C   0  0  0  0  0  0  0  0  0  0  0  0
  189.2390  177.3530  145.3480 C   0  0  0  0  0  0  0  0  0  0  0  0
  188.4210  177.2830  138.7770 O   0  0  0  0  0  0  0  0  0  0  0  0
  189.5880  176.9670  139.1340 C   0  0  0  0  0  0  0  0  0  0  0  0
  189.0760  177.5110  147.7830 C   0  0  0  0  0  0  0  0  0  0  0  0
  187.3330  177.8200  143.7500 C   0  0  0  0  0  0  0  0  0  0  0  0
  184.6820  178.5410  143.0950 C   0  0  0  0  0  3  0  0  0  0  0  0
  188.4990  177.6170  146.5150 C   0  0  0  0  0  3  0  0  0  0  0  0
  189.0560  177.2330  141.6230 C   0  0  0  0  0  0  0  0  0  0  0  0
  184.1170  178.8130  145.5100 C   0  0  0  0  0  1  0  0  0  0  0  0
  191.3710  176.7040  144.3830 C   0  0  0  0  0  3  0  0  0  0  0  0
  188.3190  177.7790  148.9140 O   0  0  0  0  0  1  0  0  0  0  0  0
  187.7670  177.5880  141.3950 N   0  0  0  0  0  0  0  0  0  0  0  0
  189.5370  177.1570  142.9360 C   0  0  0  0  0  0  0  0  0  0  0  0
  189.9330  176.9340  140.5260 N   0  0  0  0  0  2  0  0  0  0  0  0
  186.3950  178.1320  144.7500 C   0  0  0  0  0  3  0  0  0  0  0  0
  190.4140  177.1380  147.9100 C   0  0  0  0  0  3  0  0  0  0  0  0
  186.9060  177.8780  142.3990 C   0  0  0  0  0  0  0  0  0  0  0  0
  185.5920  178.2360  142.0840 C   0  0  0  0  0  3  0  0  0  0  0  0
  190.8340  176.8000  143.1440 N   0  0  0  0  0  0  0  0  0  0  0  0
  190.5970  176.9750  145.5020 C   0  0  0  0  0  0  0  0  0  0  0  0
  191.1730  176.8710  146.7720 C   0  0  0  0  0  3  0  0  0  0  0  0
  192.6190  175.9980  136.2540 C   0  0  0  0  0  0  0  0  0  0  0  0
  191.9640  176.5990  138.5030 C   0  0  0  0  0  3  0  0  0  0  0  0
  188.9880  176.3550  136.3570 F   0  0  0  0  0  0  0  0  0  0  0  0
  193.5840  175.6930  135.3540 F   0  0  0  0  0  0  0  0  0  0  0  0
  192.9600  176.2840  137.5760 C   0  0  0  0  0  3  0  0  0  0  0  0
  190.2760  176.3380  136.7810 C   0  0  0  0  0  0  0  0  0  0  0  0
  190.6130  176.6300  138.1210 C   0  0  0  0  0  0  0  0  0  0  0  0
  191.2800  176.0250  135.8580 C   0  0  0  0  0  3  0  0  0  0  0  0
  1 17  1  0  0  0  0
  1 11  1  0  0  0  0
  2  3  1  0  0  0  0
  3 22  2  0  0  0  0
  3  9  1  0  0  0  0
  4  5  2  0  0  0  0
  5 16  1  0  0  0  0
  6 18  1  0  0  0  0
  6 13  1  0  0  0  0
  7  2  1  0  0  0  0
  7 17  2  0  0  0  0
  8  1  2  0  0  0  0
  9  6  2  0  0  0  0
 10 15  1  0  0  0  0
 12 22  1  0  0  0  0
 14 10  2  0  0  0  0
 14 19  1  0  0  0  0
 15 21  1  0  0  0  0
 15  2  2  0  0  0  0
 16 10  1  0  0  0  0
 19  7  1  0  0  0  0
 20 19  2  0  0  0  0
 20  8  1  0  0  0  0
 21 12  2  0  0  0  0
 22 23  1  0  0  0  0
 23 18  2  0  0  0  0
 24 28  1  0  0  0  0
 26 29  1  0  0  0  0
 27 24  1  0  0  0  0
 28 25  2  0  0  0  0
 29 30  2  0  0  0  0
 30 25  1  0  0  0  0
 30  5  1  0  0  0  0
 31 24  2  0  0  0  0
 31 29  1  0  0  0  0
M  END
>  <MODEL>
2

>  <REMARK>
 VINA RESULT:     -11.8      0.881      1.255
  Name = 
  1 active torsions:
  status: ('A' for Active; 'I' for Inactive)
    1  A    between atoms: C_9  and  C_22
                            x       y       z     vdW  Elec       q    Type
                         _______ _______ _______ _____ _____    ______ ____

>  <TORSDO>
F 1

$$$$
=
 OpenBabel10272400283D

 31 35  0  0  0  0  0  0  0  0999 V2000
  191.4460  176.1660  145.7850 C   0  0  0  0  0  0  0  0  0  0  0  0
  188.2650  177.4800  144.2550 C   0  0  0  0  0  0  0  0  0  0  0  0
  187.4110  177.8730  145.3320 C   0  0  0  0  0  0  0  0  0  0  0  0
  189.8910  176.6550  139.3140 O   0  0  0  0  0  0  0  0  0  0  0  0
  188.7310  177.1490  139.2800 C   0  0  0  0  0  0  0  0  0  0  0  0
  186.9170  178.1470  147.7100 C   0  0  0  0  0  0  0  0  0  0  0  0
  189.5720  176.9280  144.4150 C   0  0  0  0  0  0  0  0  0  0  0  0
  192.1640  175.8300  144.6390 C   0  0  0  0  0  3  0  0  0  0  0  0
  187.7780  177.7520  146.6840 C   0  0  0  0  0  3  0  0  0  0  0  0
  188.5600  177.2890  141.8290 C   0  0  0  0  0  0  0  0  0  0  0  0
  192.0430  175.9480  147.1280 C   0  0  0  0  0  1  0  0  0  0  0  0
  185.7190  178.5500  143.7260 C   0  0  0  0  0  3  0  0  0  0  0  0
  187.3100  178.0140  149.0350 O   0  0  0  0  0  1  0  0  0  0  0  0
  189.7970  176.7680  142.0250 N   0  0  0  0  0  0  0  0  0  0  0  0
  187.7740  177.6530  142.9300 C   0  0  0  0  0  0  0  0  0  0  0  0
  188.0490  177.4710  140.5010 N   0  0  0  0  0  2  0  0  0  0  0  0
  190.1640  176.7090  145.6720 C   0  0  0  0  0  3  0  0  0  0  0  0
  185.6620  178.6730  147.4040 C   0  0  0  0  0  3  0  0  0  0  0  0
  190.3180  176.5790  143.2610 C   0  0  0  0  0  0  0  0  0  0  0  0
  191.6010  176.0360  143.3800 C   0  0  0  0  0  3  0  0  0  0  0  0
  186.5360  178.1750  142.7140 N   0  0  0  0  0  0  0  0  0  0  0  0
  186.1300  178.4100  145.0440 C   0  0  0  0  0  0  0  0  0  0  0  0
  185.2690  178.8040  146.0720 C   0  0  0  0  0  3  0  0  0  0  0  0
  186.7530  177.8020  135.5280 C   0  0  0  0  0  0  0  0  0  0  0  0
  187.1370  176.4600  137.5030 C   0  0  0  0  0  3  0  0  0  0  0  0
  189.2150  179.4910  137.6280 F   0  0  0  0  0  0  0  0  0  0  0  0
  186.1220  177.9970  134.3460 F   0  0  0  0  0  0  0  0  0  0  0  0
  186.4850  176.6600  136.2830 C   0  0  0  0  0  3  0  0  0  0  0  0
  188.3280  178.5520  137.2120 C   0  0  0  0  0  0  0  0  0  0  0  0
  188.0630  177.3990  137.9840 C   0  0  0  0  0  0  0  0  0  0  0  0
  187.6720  178.7450  135.9920 C   0  0  0  0  0  3  0  0  0  0  0  0
  1 11  1  0  0  0  0
  2  7  1  0  0  0  0
  2  3  1  0  0  0  0
  3  9  1  0  0  0  0
  5  4  2  0  0  0  0
  5 16  1  0  0  0  0
  6 13  1  0  0  0  0
  7 17  2  0  0  0  0
  8  1  2  0  0  0  0
  9  6  2  0  0  0  0
 10 14  2  0  0  0  0
 10 15  1  0  0  0  0
 12 22  1  0  0  0  0
 14 19  1  0  0  0  0
 15  2  2  0  0  0  0
 16 10  1  0  0  0  0
 17  1  1  0  0  0  0
 18  6  1  0  0  0  0
 19 20  2  0  0  0  0
 19  7  1  0  0  0  0
 20  8  1  0  0  0  0
 21 15  1  0  0  0  0
 21 12  2  0  0  0  0
 22  3  2  0  0  0  0
 22 23  1  0  0  0  0
 23 18  2  0  0  0  0
 24 31  2  0  0  0  0
 24 28  1  0  0  0  0
 25 30  1  0  0  0  0
 27 24  1  0  0  0  0
 28 25  2  0  0  0  0
 29 26  1  0  0  0  0
 29 30  2  0  0  0  0
 30  5  1  0  0  0  0
 31 29  1  0  0  0  0
M  END
>  <MODEL>
3

>  <REMARK>
 VINA RESULT:     -11.1      2.499      4.610
  Name = 
  1 active torsions:
  status: ('A' for Active; 'I' for Inactive)
    1  A    between atoms: C_9  and  C_22
                            x       y       z     vdW  Elec       q    Type
                         _______ _______ _______ _____ _____    ______ ____

>  <TORSDO>
F 1

$$$$
=
 OpenBabel10272400283D

 31 35  0  0  0  0  0  0  0  0999 V2000
  186.7620  178.1980  147.2010 C   0  0  0  0  0  0  0  0  0  0  0  0
  187.5960  177.9680  143.5350 C   0  0  0  0  0  0  0  0  0  0  0  0
  189.0000  177.7250  143.4370 C   0  0  0  0  0  0  0  0  0  0  0  0
  182.6250  178.7880  141.9990 O   0  0  0  0  0  0  0  0  0  0  0  0
  183.3450  178.6390  140.9740 C   0  0  0  0  0  0  0  0  0  0  0  0
  191.2070  177.3680  144.4270 C   0  0  0  0  0  0  0  0  0  0  0  0
  186.8810  178.1200  144.7620 C   0  0  0  0  0  0  0  0  0  0  0  0
  185.3900  178.4330  147.1400 C   0  0  0  0  0  3  0  0  0  0  0  0
  189.8370  177.6070  144.5610 C   0  0  0  0  0  3  0  0  0  0  0  0
  185.4790  178.3050  142.3450 C   0  0  0  0  0  0  0  0  0  0  0  0
  187.4450  178.1120  148.5180 C   0  0  0  0  0  1  0  0  0  0  0  0
  188.8150  177.7000  141.0160 C   0  0  0  0  0  3  0  0  0  0  0  0
  192.0060  177.2580  145.5570 O   0  0  0  0  0  1  0  0  0  0  0  0
  184.8380  178.4430  143.5330 N   0  0  0  0  0  0  0  0  0  0  0  0
  186.8600  178.0670  142.3210 C   0  0  0  0  0  0  0  0  0  0  0  0
  184.7530  178.4010  141.1110 N   0  0  0  0  0  2  0  0  0  0  0  0
  187.4970  178.0440  146.0240 C   0  0  0  0  0  3  0  0  0  0  0  0
  191.7720  177.2420  143.1580 C   0  0  0  0  0  3  0  0  0  0  0  0
  185.4840  178.3600  144.7200 C   0  0  0  0  0  0  0  0  0  0  0  0
  184.7530  178.5130  145.9020 C   0  0  0  0  0  3  0  0  0  0  0  0
  187.4850  177.9320  141.1200 N   0  0  0  0  0  0  0  0  0  0  0  0
  189.5960  177.5920  142.1570 C   0  0  0  0  0  0  0  0  0  0  0  0
  190.9670  177.3540  142.0250 C   0  0  0  0  0  3  0  0  0  0  0  0
  181.5870  178.9250  137.0690 C   0  0  0  0  0  0  0  0  0  0  0  0
  182.1870  179.9230  139.1890 C   0  0  0  0  0  3  0  0  0  0  0  0
  183.2400  176.4010  139.1230 F   0  0  0  0  0  0  0  0  0  0  0  0
  181.0300  179.0280  135.8400 F   0  0  0  0  0  0  0  0  0  0  0  0
  181.6120  180.0300  137.9200 C   0  0  0  0  0  3  0  0  0  0  0  0
  182.7160  177.5970  138.7550 C   0  0  0  0  0  0  0  0  0  0  0  0
  182.7460  178.7100  139.6230 C   0  0  0  0  0  0  0  0  0  0  0  0
  182.1380  177.7120  137.4870 C   0  0  0  0  0  3  0  0  0  0  0  0
  1 11  1  0  0  0  0
  2  7  1  0  0  0  0
  3  2  1  0  0  0  0
  3  9  1  0  0  0  0
  5 16  1  0  0  0  0
  5  4  2  0  0  0  0
  6  9  2  0  0  0  0
  6 13  1  0  0  0  0
  7 17  1  0  0  0  0
  8  1  1  0  0  0  0
 10 14  2  0  0  0  0
 12 21  2  0  0  0  0
 12 22  1  0  0  0  0
 14 19  1  0  0  0  0
 15 10  1  0  0  0  0
 15  2  2  0  0  0  0
 16 10  1  0  0  0  0
 17  1  2  0  0  0  0
 18  6  1  0  0  0  0
 19  7  2  0  0  0  0
 19 20  1  0  0  0  0
 20  8  2  0  0  0  0
 21 15  1  0  0  0  0
 22  3  2  0  0  0  0
 23 22  1  0  0  0  0
 23 18  2  0  0  0  0
 24 31  2  0  0  0  0
 24 28  1  0  0  0  0
 25 30  1  0  0  0  0
 27 24  1  0  0  0  0
 28 25  2  0  0  0  0
 29 26  1  0  0  0  0
 29 30  2  0  0  0  0
 30  5  1  0  0  0  0
 31 29  1  0  0  0  0
M  END
>  <MODEL>
4

>  <REMARK>
 VINA RESULT:     -10.9      4.174      6.414
  Name = 
  1 active torsions:
  status: ('A' for Active; 'I' for Inactive)
    1  A    between atoms: C_9  and  C_22
                            x       y       z     vdW  Elec       q    Type
                         _______ _______ _______ _____ _____    ______ ____

>  <TORSDO>
F 1

$$$$
=
 OpenBabel10272400283D

 31 35  0  0  0  0  0  0  0  0999 V2000
  188.6300  177.6110  146.9070 C   0  0  0  0  0  0  0  0  0  0  0  0
  187.3250  177.9030  143.3850 C   0  0  0  0  0  0  0  0  0  0  0  0
  185.9510  178.2860  143.4760 C   0  0  0  0  0  0  0  0  0  0  0  0
  191.9310  176.5790  141.1990 O   0  0  0  0  0  0  0  0  0  0  0  0
  191.0940  176.7940  140.2800 C   0  0  0  0  0  0  0  0  0  0  0  0
  183.9480  178.8680  144.7510 C   0  0  0  0  0  0  0  0  0  0  0  0
  188.1840  177.6860  144.5060 C   0  0  0  0  0  0  0  0  0  0  0  0
  189.9510  177.2390  146.6630 C   0  0  0  0  0  3  0  0  0  0  0  0
  185.2930  178.4930  144.7010 C   0  0  0  0  0  3  0  0  0  0  0  0
  189.2130  177.3490  141.9240 C   0  0  0  0  0  0  0  0  0  0  0  0
  188.1480  177.7720  148.3030 C   0  0  0  0  0  1  0  0  0  0  0  0
  185.8020  178.2780  141.0520 C   0  0  0  0  0  3  0  0  0  0  0  0
  183.3280  179.0640  145.9770 O   0  0  0  0  0  1  0  0  0  0  0  0
  189.9950  177.1530  143.0150 N   0  0  0  0  0  0  0  0  0  0  0  0
  187.8730  177.7240  142.0840 C   0  0  0  0  0  0  0  0  0  0  0  0
  189.7490  177.1740  140.6040 N   0  0  0  0  0  2  0  0  0  0  0  0
  187.7580  177.8310  145.8380 C   0  0  0  0  0  3  0  0  0  0  0  0
  183.2290  179.0430  143.5690 C   0  0  0  0  0  3  0  0  0  0  0  0
  189.5300  177.3080  144.2770 C   0  0  0  0  0  0  0  0  0  0  0  0
  190.3990  177.0890  145.3510 C   0  0  0  0  0  3  0  0  0  0  0  0
  187.1040  177.9150  140.9780 N   0  0  0  0  0  0  0  0  0  0  0  0
  185.2000  178.4700  142.2870 C   0  0  0  0  0  0  0  0  0  0  0  0
  183.8540  178.8450  142.3390 C   0  0  0  0  0  3  0  0  0  0  0  0
  192.1660  176.3930  136.1440 C   0  0  0  0  0  0  0  0  0  0  0  0
  190.4930  176.6220  137.8750 C   0  0  0  0  0  3  0  0  0  0  0  0
  193.8480  176.5800  139.3770 F   0  0  0  0  0  0  0  0  0  0  0  0
  192.4920  176.2680  134.8360 F   0  0  0  0  0  0  0  0  0  0  0  0
  190.8280  176.4930  136.5250 C   0  0  0  0  0  3  0  0  0  0  0  0
  192.8440  176.5540  138.4670 C   0  0  0  0  0  0  0  0  0  0  0  0
  191.4910  176.6560  138.8620 C   0  0  0  0  0  0  0  0  0  0  0  0
  193.1700  176.4240  137.1130 C   0  0  0  0  0  3  0  0  0  0  0  0
  1 11  1  0  0  0  0
  2  3  1  0  0  0  0
  2  7  1  0  0  0  0
  3  9  1  0  0  0  0
  5 16  1  0  0  0  0
  5  4  2  0  0  0  0
  6 13  1  0  0  0  0
  7 17  1  0  0  0  0
  8  1  1  0  0  0  0
  9  6  2  0  0  0  0
 10 15  1  0  0  0  0
 10 14  2  0  0  0  0
 12 22  1  0  0  0  0
 14 19  1  0  0  0  0
 15  2  2  0  0  0  0
 16 10  1  0  0  0  0
 17  1  2  0  0  0  0
 18  6  1  0  0  0  0
 19  7  2  0  0  0  0
 19 20  1  0  0  0  0
 20  8  2  0  0  0  0
 21 12  2  0  0  0  0
 21 15  1  0  0  0  0
 22 23  1  0  0  0  0
 22  3  2  0  0  0  0
 23 18  2  0  0  0  0
 24 28  2  0  0  0  0
 24 31  1  0  0  0  0
 25 30  2  0  0  0  0
 27 24  1  0  0  0  0
 28 25  1  0  0  0  0
 29 30  1  0  0  0  0
 29 26  1  0  0  0  0
 30  5  1  0  0  0  0
 31 29  2  0  0  0  0
M  END
>  <MODEL>
5

>  <REMARK>
 VINA RESULT:     -10.7      1.586      4.177
  Name = 
  1 active torsions:
  status: ('A' for Active; 'I' for Inactive)
    1  A    between atoms: C_9  and  C_22
                            x       y       z     vdW  Elec       q    Type
                         _______ _______ _______ _____ _____    ______ ____

>  <TORSDO>
F 1

$$$$
=
 OpenBabel10272400283D

 31 35  0  0  0  0  0  0  0  0999 V2000
  186.8710  177.8990  145.3890 C   0  0  0  0  0  0  0  0  0  0  0  0
  187.3320  178.1310  141.6580 C   0  0  0  0  0  0  0  0  0  0  0  0
  188.7080  177.8540  141.3860 C   0  0  0  0  0  0  0  0  0  0  0  0
  182.2810  179.3210  140.7580 O   0  0  0  0  0  0  0  0  0  0  0  0
  182.8900  179.2850  139.6550 C   0  0  0  0  0  0  0  0  0  0  0  0
  190.9810  177.2930  142.0900 C   0  0  0  0  0  0  0  0  0  0  0  0
  186.7480  178.1440  142.9610 C   0  0  0  0  0  0  0  0  0  0  0  0
  185.5120  178.1880  145.5000 C   0  0  0  0  0  3  0  0  0  0  0  0
  189.6430  177.5590  142.3940 C   0  0  0  0  0  3  0  0  0  0  0  0
  185.1290  178.6970  140.7450 C   0  0  0  0  0  0  0  0  0  0  0  0
  187.6730  177.6150  146.6070 C   0  0  0  0  0  1  0  0  0  0  0  0
  188.2870  178.1590  139.0130 C   0  0  0  0  0  3  0  0  0  0  0  0
  191.8790  177.0050  143.1080 O   0  0  0  0  0  1  0  0  0  0  0  0
  184.6140  178.6980  142.0000 N   0  0  0  0  0  0  0  0  0  0  0  0
  186.4870  178.4170  140.5490 C   0  0  0  0  0  0  0  0  0  0  0  0
  184.2920  178.9820  139.6140 N   0  0  0  0  0  2  0  0  0  0  0  0
  187.4800  177.8790  144.1330 C   0  0  0  0  0  3  0  0  0  0  0  0
  191.4130  177.3170  140.7640 C   0  0  0  0  0  3  0  0  0  0  0  0
  185.3670  178.4350  143.0940 C   0  0  0  0  0  0  0  0  0  0  0  0
  184.7620  178.4540  144.3550 C   0  0  0  0  0  3  0  0  0  0  0  0
  186.9860  178.4210  139.2830 N   0  0  0  0  0  0  0  0  0  0  0  0
  189.1690  177.8730  140.0450 C   0  0  0  0  0  0  0  0  0  0  0  0
  190.5080  177.6070  139.7430 C   0  0  0  0  0  3  0  0  0  0  0  0
  180.8110  179.9970  135.9680 C   0  0  0  0  0  0  0  0  0  0  0  0
  182.1050  178.5530  137.4140 C   0  0  0  0  0  3  0  0  0  0  0  0
  181.5650  181.8000  139.0500 F   0  0  0  0  0  0  0  0  0  0  0  0
  180.1580  180.2090  134.8020 F   0  0  0  0  0  0  0  0  0  0  0  0
  181.4310  178.7710  136.2090 C   0  0  0  0  0  3  0  0  0  0  0  0
  181.5360  180.7950  138.1410 C   0  0  0  0  0  0  0  0  0  0  0  0
  182.1670  179.5570  138.3930 C   0  0  0  0  0  0  0  0  0  0  0  0
  180.8640  181.0060  136.9320 C   0  0  0  0  0  3  0  0  0  0  0  0
  1  8  1  0  0  0  0
  1 11  1  0  0  0  0
  2  7  1  0  0  0  0
  3  2  1  0  0  0  0
  3  9  1  0  0  0  0
  5  4  2  0  0  0  0
  6  9  2  0  0  0  0
  6 13  1  0  0  0  0
  7 19  2  0  0  0  0
  7 17  1  0  0  0  0
 10 14  2  0  0  0  0
 12 21  2  0  0  0  0
 12 22  1  0  0  0  0
 14 19  1  0  0  0  0
 15 10  1  0  0  0  0
 15  2  2  0  0  0  0
 16  5  1  0  0  0  0
 16 10  1  0  0  0  0
 17  1  2  0  0  0  0
 18  6  1  0  0  0  0
 19 20  1  0  0  0  0
 20  8  2  0  0  0  0
 21 15  1  0  0  0  0
 22  3  2  0  0  0  0
 23 22  1  0  0  0  0
 23 18  2  0  0  0  0
 24 28  2  0  0  0  0
 24 31  1  0  0  0  0
 25 30  2  0  0  0  0
 27 24  1  0  0  0  0
 28 25  1  0  0  0  0
 29 30  1  0  0  0  0
 29 26  1  0  0  0  0
 30  5  1  0  0  0  0
 31 29  2  0  0  0  0
M  END
>  <MODEL>
6

>  <REMARK>
 VINA RESULT:     -10.5      4.947      7.279
  Name = 
  1 active torsions:
  status: ('A' for Active; 'I' for Inactive)
    1  A    between atoms: C_9  and  C_22
                            x       y       z     vdW  Elec       q    Type
                         _______ _______ _______ _____ _____    ______ ____

>  <TORSDO>
F 1

$$$$
=
 OpenBabel10272400283D

 31 35  0  0  0  0  0  0  0  0999 V2000
  190.5270  176.8750  142.8510 C   0  0  0  0  0  0  0  0  0  0  0  0
  187.0290  178.0460  143.6140 C   0  0  0  0  0  0  0  0  0  0  0  0
  186.8850  178.0450  145.0360 C   0  0  0  0  0  0  0  0  0  0  0  0
  185.7560  178.6600  138.5390 O   0  0  0  0  0  0  0  0  0  0  0  0
  184.7610  178.9760  139.2470 C   0  0  0  0  0  0  0  0  0  0  0  0
  187.7410  177.6730  147.2950 C   0  0  0  0  0  0  0  0  0  0  0  0
  188.2150  177.6640  142.9160 C   0  0  0  0  0  0  0  0  0  0  0  0
  190.5180  176.9270  141.4580 C   0  0  0  0  0  3  0  0  0  0  0  0
  187.9180  177.6610  145.9090 C   0  0  0  0  0  3  0  0  0  0  0  0
  185.9800  178.4810  141.4410 C   0  0  0  0  0  0  0  0  0  0  0  0
  191.7470  176.4310  143.5720 C   0  0  0  0  0  1  0  0  0  0  0  0
  184.6010  178.8360  144.7930 C   0  0  0  0  0  3  0  0  0  0  0  0
  188.7800  177.2870  148.1300 O   0  0  0  0  0  1  0  0  0  0  0  0
  187.1270  178.1100  140.8180 N   0  0  0  0  0  0  0  0  0  0  0  0
  185.9070  178.4570  142.8400 C   0  0  0  0  0  0  0  0  0  0  0  0
  184.8390  178.8990  140.6770 N   0  0  0  0  0  2  0  0  0  0  0  0
  189.3860  177.2400  143.5700 C   0  0  0  0  0  3  0  0  0  0  0  0
  186.5200  178.0710  147.8390 C   0  0  0  0  0  3  0  0  0  0  0  0
  188.2260  177.7100  141.5000 C   0  0  0  0  0  0  0  0  0  0  0  0
  189.3710  177.3440  140.7850 C   0  0  0  0  0  3  0  0  0  0  0  0
  184.7480  178.8320  143.4470 N   0  0  0  0  0  0  0  0  0  0  0  0
  185.6520  178.4470  145.6110 C   0  0  0  0  0  0  0  0  0  0  0  0
  185.4770  178.4580  146.9980 C   0  0  0  0  0  3  0  0  0  0  0  0
  181.1260  180.3630  137.4330 C   0  0  0  0  0  0  0  0  0  0  0  0
  183.0530  180.7370  138.8460 C   0  0  0  0  0  3  0  0  0  0  0  0
  183.1310  177.3140  137.5070 F   0  0  0  0  0  0  0  0  0  0  0  0
  179.9820  180.8120  136.8660 F   0  0  0  0  0  0  0  0  0  0  0  0
  181.8730  181.2020  138.2610 C   0  0  0  0  0  3  0  0  0  0  0  0
  182.7430  178.5870  137.7690 C   0  0  0  0  0  0  0  0  0  0  0  0
  183.5050  179.4290  138.6090 C   0  0  0  0  0  0  0  0  0  0  0  0
  181.5620  179.0590  137.1880 C   0  0  0  0  0  3  0  0  0  0  0  0
  1 17  1  0  0  0  0
  1 11  1  0  0  0  0
  2  3  1  0  0  0  0
  3 22  2  0  0  0  0
  3  9  1  0  0  0  0
  4  5  2  0  0  0  0
  5 16  1  0  0  0  0
  6 18  1  0  0  0  0
  6 13  1  0  0  0  0
  7 17  2  0  0  0  0
  7  2  1  0  0  0  0
  8  1  2  0  0  0  0
  9  6  2  0  0  0  0
 10 15  1  0  0  0  0
 12 22  1  0  0  0  0
 14 10  2  0  0  0  0
 14 19  1  0  0  0  0
 15 21  1  0  0  0  0
 15  2  2  0  0  0  0
 16 10  1  0  0  0  0
 19  7  1  0  0  0  0
 20  8  1  0  0  0  0
 20 19  2  0  0  0  0
 21 12  2  0  0  0  0
 22 23  1  0  0  0  0
 23 18  2  0  0  0  0
 24 28  1  0  0  0  0
 26 29  1  0  0  0  0
 27 24  1  0  0  0  0
 28 25  2  0  0  0  0
 29 30  2  0  0  0  0
 30 25  1  0  0  0  0
 30  5  1  0  0  0  0
 31 24  2  0  0  0  0
 31 29  1  0  0  0  0
M  END
>  <MODEL>
7

>  <REMARK>
 VINA RESULT:     -10.4      4.178      6.760
  Name = 
  1 active torsions:
  status: ('A' for Active; 'I' for Inactive)
    1  A    between atoms: C_9  and  C_22
                            x       y       z     vdW  Elec       q    Type
                         _______ _______ _______ _____ _____    ______ ____

>  <TORSDO>
F 1

$$$$
=
 OpenBabel10272400283D

 31 35  0  0  0  0  0  0  0  0999 V2000
  183.5920  179.0190  139.4410 C   0  0  0  0  0  0  0  0  0  0  0  0
  187.2370  178.1160  139.7410 C   0  0  0  0  0  0  0  0  0  0  0  0
  187.7620  178.0380  138.4150 C   0  0  0  0  0  0  0  0  0  0  0  0
  187.1180  177.9440  145.0040 O   0  0  0  0  0  0  0  0  0  0  0  0
  188.2880  177.6740  144.6180 C   0  0  0  0  0  0  0  0  0  0  0  0
  187.5300  178.1870  135.9850 C   0  0  0  0  0  0  0  0  0  0  0  0
  185.8820  178.4350  140.0620 C   0  0  0  0  0  0  0  0  0  0  0  0
  183.2240  179.0570  140.7850 C   0  0  0  0  0  3  0  0  0  0  0  0
  186.9820  178.2720  137.2680 C   0  0  0  0  0  3  0  0  0  0  0  0
  187.6810  177.9160  142.1440 C   0  0  0  0  0  0  0  0  0  0  0  0
  182.5870  179.3040  138.3850 C   0  0  0  0  0  1  0  0  0  0  0  0
  189.9410  177.4710  139.3240 C   0  0  0  0  0  3  0  0  0  0  0  0
  186.7340  178.4230  134.8730 O   0  0  0  0  0  1  0  0  0  0  0  0
  186.3860  178.2230  142.4050 N   0  0  0  0  0  0  0  0  0  0  0  0
  188.1300  177.8570  140.8180 C   0  0  0  0  0  0  0  0  0  0  0  0
  188.5970  177.6510  143.2170 N   0  0  0  0  0  2  0  0  0  0  0  0
  184.9070  178.7100  139.0860 C   0  0  0  0  0  3  0  0  0  0  0  0
  188.8780  177.8640  135.8220 C   0  0  0  0  0  3  0  0  0  0  0  0
  185.4890  178.4790  141.4230 C   0  0  0  0  0  0  0  0  0  0  0  0
  184.1710  178.7880  141.7730 C   0  0  0  0  0  3  0  0  0  0  0  0
  189.4330  177.5470  140.5760 N   0  0  0  0  0  0  0  0  0  0  0  0
  189.1290  177.7110  138.2250 C   0  0  0  0  0  0  0  0  0  0  0  0
  189.6750  177.6260  136.9410 C   0  0  0  0  0  3  0  0  0  0  0  0
  191.4190  176.7870  147.4160 C   0  0  0  0  0  0  0  0  0  0  0  0
  190.5790  176.8720  145.1490 C   0  0  0  0  0  3  0  0  0  0  0  0
  188.0020  178.0690  147.4830 F   0  0  0  0  0  0  0  0  0  0  0  0
  192.4140  176.5040  148.2880 F   0  0  0  0  0  0  0  0  0  0  0  0
  191.6070  176.5790  146.0490 C   0  0  0  0  0  3  0  0  0  0  0  0
  189.1690  177.5840  146.9890 C   0  0  0  0  0  0  0  0  0  0  0  0
  189.3500  177.3770  145.6030 C   0  0  0  0  0  0  0  0  0  0  0  0
  190.2020  177.2880  147.8830 C   0  0  0  0  0  3  0  0  0  0  0  0
  1  8  1  0  0  0  0
  2  7  1  0  0  0  0
  2 15  1  0  0  0  0
  3  2  2  0  0  0  0
  5  4  2  0  0  0  0
  5 30  1  0  0  0  0
  6  9  2  0  0  0  0
  7 19  2  0  0  0  0
  8 20  2  0  0  0  0
  9  3  1  0  0  0  0
 10 14  2  0  0  0  0
 10 16  1  0  0  0  0
 11  1  1  0  0  0  0
 12 21  1  0  0  0  0
 13  6  1  0  0  0  0
 15 10  1  0  0  0  0
 16  5  1  0  0  0  0
 17  1  2  0  0  0  0
 17  7  1  0  0  0  0
 18  6  1  0  0  0  0
 18 23  2  0  0  0  0
 19 20  1  0  0  0  0
 19 14  1  0  0  0  0
 21 15  2  0  0  0  0
 22  3  1  0  0  0  0
 22 12  2  0  0  0  0
 23 22  1  0  0  0  0
 24 31  1  0  0  0  0
 24 27  1  0  0  0  0
 25 30  2  0  0  0  0
 25 28  1  0  0  0  0
 28 24  2  0  0  0  0
 29 26  1  0  0  0  0
 29 31  2  0  0  0  0
 30 29  1  0  0  0  0
M  END
>  <MODEL>
8

>  <REMARK>
 VINA RESULT:     -10.3      3.482      7.823
  Name = 
  1 active torsions:
  status: ('A' for Active; 'I' for Inactive)
    1  A    between atoms: C_9  and  C_22
                            x       y       z     vdW  Elec       q    Type
                         _______ _______ _______ _____ _____    ______ ____

>  <TORSDO>
F 1

$$$$
=
 OpenBabel10272400283D

 31 35  0  0  0  0  0  0  0  0999 V2000
  185.6240  178.7300  141.7310 C   0  0  0  0  0  0  0  0  0  0  0  0
  189.0890  177.3990  142.3680 C   0  0  0  0  0  0  0  0  0  0  0  0
  189.2650  177.3440  143.7850 C   0  0  0  0  0  0  0  0  0  0  0  0
  190.2230  176.9180  137.2470 O   0  0  0  0  0  0  0  0  0  0  0  0
  191.2200  176.5380  137.9190 C   0  0  0  0  0  0  0  0  0  0  0  0
  188.4750  177.6680  146.0760 C   0  0  0  0  0  0  0  0  0  0  0  0
  187.9030  177.8510  141.7130 C   0  0  0  0  0  0  0  0  0  0  0  0
  185.5990  178.7280  140.3370 C   0  0  0  0  0  3  0  0  0  0  0  0
  188.2680  177.7370  144.6960 C   0  0  0  0  0  3  0  0  0  0  0  0
  190.0710  177.0020  140.1580 C   0  0  0  0  0  0  0  0  0  0  0  0
  184.4380  179.1950  142.4960 C   0  0  0  0  0  1  0  0  0  0  0  0
  191.5100  176.4750  143.4610 C   0  0  0  0  0  3  0  0  0  0  0  0
  187.4710  178.0640  146.9490 O   0  0  0  0  0  1  0  0  0  0  0  0
  188.9260  177.4380  139.5750 N   0  0  0  0  0  0  0  0  0  0  0  0
  190.1760  176.9730  141.5540 C   0  0  0  0  0  0  0  0  0  0  0  0
  191.1770  176.5680  139.3530 N   0  0  0  0  0  2  0  0  0  0  0  0
  186.7650  178.2970  142.4090 C   0  0  0  0  0  3  0  0  0  0  0  0
  189.6920  177.2040  146.5770 C   0  0  0  0  0  3  0  0  0  0  0  0
  187.8590  177.8560  140.2970 C   0  0  0  0  0  0  0  0  0  0  0  0
  186.7140  178.2920  139.6230 C   0  0  0  0  0  3  0  0  0  0  0  0
  191.3330  176.5330  142.1200 N   0  0  0  0  0  0  0  0  0  0  0  0
  190.4940  176.8750  144.3170 C   0  0  0  0  0  0  0  0  0  0  0  0
  190.6990  176.8080  145.6980 C   0  0  0  0  0  3  0  0  0  0  0  0
  194.8020  175.1420  136.0110 C   0  0  0  0  0  0  0  0  0  0  0  0
  193.5450  175.6650  138.0100 C   0  0  0  0  0  3  0  0  0  0  0  0
  191.5050  176.3610  135.0320 F   0  0  0  0  0  0  0  0  0  0  0  0
  195.9370  174.6990  135.4210 F   0  0  0  0  0  0  0  0  0  0  0  0
  194.7170  175.2080  137.4020 C   0  0  0  0  0  3  0  0  0  0  0  0
  192.5380  175.9910  135.8280 C   0  0  0  0  0  0  0  0  0  0  0  0
  192.4420  176.0610  137.2360 C   0  0  0  0  0  0  0  0  0  0  0  0
  193.7150  175.5330  135.2270 C   0  0  0  0  0  3  0  0  0  0  0  0
  1 17  1  0  0  0  0
  1 11  1  0  0  0  0
  2  3  1  0  0  0  0
  3 22  2  0  0  0  0
  3  9  1  0  0  0  0
  4  5  2  0  0  0  0
  5 16  1  0  0  0  0
  6 18  1  0  0  0  0
  6 13  1  0  0  0  0
  7  2  1  0  0  0  0
  7 17  2  0  0  0  0
  8  1  2  0  0  0  0
  9  6  2  0  0  0  0
 10 15  1  0  0  0  0
 12 22  1  0  0  0  0
 14 10  2  0  0  0  0
 14 19  1  0  0  0  0
 15 21  1  0  0  0  0
 15  2  2  0  0  0  0
 16 10  1  0  0  0  0
 19  7  1  0  0  0  0
 20 19  2  0  0  0  0
 20  8  1  0  0  0  0
 21 12  2  0  0  0  0
 22 23  1  0  0  0  0
 23 18  2  0  0  0  0
 24 28  1  0  0  0  0
 26 29  1  0  0  0  0
 27 24  1  0  0  0  0
 28 25  2  0  0  0  0
 29 30  2  0  0  0  0
 30  5  1  0  0  0  0
 30 25  1  0  0  0  0
 31 29  1  0  0  0  0
 31 24  2  0  0  0  0
M  END
>  <MODEL>
9

>  <REMARK>
 VINA RESULT:      -9.5      1.663      2.375
  Name = 
  1 active torsions:
  status: ('A' for Active; 'I' for Inactive)
    1  A    between atoms: C_9  and  C_22
                            x       y       z     vdW  Elec       q    Type
                         _______ _______ _______ _____ _____    ______ ____

>  <TORSDO>
F 1

$$$$
