=
 OpenBabel10272413553D

 30 33  0  0  1  0  0  0  0  0999 V2000
  185.9420  178.5430  142.1610 C   0  0  0  0  0  2  0  0  0  0  0  0
  183.4250  178.7250  142.0170 C   0  0  0  0  0  0  0  0  0  0  0  0
  185.6340  178.5310  146.4360 C   0  0  0  0  0  3  0  0  0  0  0  0
  186.9450  177.6940  142.9500 C   0  0  2  0  0  3  0  0  0  0  0  0
  186.7700  178.3190  147.2200 C   0  0  0  0  0  3  0  0  0  0  0  0
  182.1750  178.8410  142.6300 C   0  0  0  0  0  3  0  0  0  0  0  0
  183.4970  178.7790  140.5280 C   0  0  0  0  0  1  0  0  0  0  0  0
  185.6850  178.3520  145.0440 C   0  0  0  0  0  0  0  0  0  0  0  0
  182.0660  178.8110  144.0210 C   0  0  0  0  0  3  0  0  0  0  0  0
  184.5830  178.5670  142.8040 C   0  0  0  0  0  0  0  0  0  0  0  0
  186.9010  177.9710  144.4380 C   0  0  0  0  0  0  0  0  0  0  0  0
  187.9650  177.9140  146.6230 C   0  0  0  0  0  3  0  0  0  0  0  0
  188.0260  177.7300  145.2410 C   0  0  0  0  0  3  0  0  0  0  0  0
  183.2090  178.6640  144.8070 C   0  0  0  0  0  3  0  0  0  0  0  0
  184.4730  178.5430  144.2110 C   0  0  0  0  0  0  0  0  0  0  0  0
  188.2920  177.8270  142.3840 N   0  0  0  0  0  0  0  0  0  0  0  0
  191.6040  177.2260  144.0970 C   0  0  0  0  0  3  0  0  0  0  0  0
  190.4960  179.2870  143.5830 O   0  0  0  0  0  1  0  0  0  0  0  0
  189.4480  177.1670  142.9610 C   0  0  0  0  0  0  0  0  0  0  0  0
  189.5440  175.7650  142.9170 C   0  0  0  0  0  3  0  0  0  0  0  0
  190.5060  177.8980  143.5510 C   0  0  0  0  0  0  0  0  0  0  0  0
  191.6740  175.8330  144.0550 C   0  0  0  0  0  3  0  0  0  0  0  0
  190.6450  175.1020  143.4610 C   0  0  0  0  0  3  0  0  0  0  0  0
  188.4060  178.6740  141.2040 C   0  0  0  0  0  2  0  0  0  0  0  0
  189.0880  177.9140  140.0780 C   0  0  0  0  0  2  0  0  0  0  0  0
  188.9800  178.6920  138.7800 C   0  0  0  0  0  2  0  0  0  0  0  0
  188.2730  177.9020  137.7840 N   0  0  0  0  0  2  0  0  0  0  0  0
  186.1880  178.8360  138.2660 O   0  0  0  0  0  0  0  0  0  0  0  0
  186.8660  178.0270  137.5800 C   0  0  0  0  0  0  0  0  0  0  0  0
  186.2250  177.2290  136.5920 N   0  0  0  0  0  1  0  0  0  0  0  0
  1 10  1  0  0  0  0
  1  4  1  0  0  0  0
  2  6  2  0  0  0  0
  2 10  1  0  0  0  0
  3  5  1  0  0  0  0
  4 16  1  6  0  0  0
  4 11  1  0  0  0  0
  6  9  1  0  0  0  0
  7  2  1  0  0  0  0
  8  3  2  0  0  0  0
  9 14  2  0  0  0  0
 10 15  2  0  0  0  0
 11  8  1  0  0  0  0
 11 13  2  0  0  0  0
 12  5  2  0  0  0  0
 13 12  1  0  0  0  0
 15 14  1  0  0  0  0
 15  8  1  0  0  0  0
 16 19  1  0  0  0  0
 19 21  1  0  0  0  0
 20 19  2  0  0  0  0
 20 23  1  0  0  0  0
 21 18  1  0  0  0  0
 21 17  2  0  0  0  0
 22 17  1  0  0  0  0
 23 22  2  0  0  0  0
 24 16  1  0  0  0  0
 25 24  1  0  0  0  0
 26 25  1  0  0  0  0
 27 26  1  0  0  0  0
 29 27  1  0  0  0  0
 29 28  2  0  0  0  0
 30 29  1  0  0  0  0
M  END
>  <MODEL>
1

>  <REMARK>
 VINA RESULT:      -9.9      0.000      0.000
  Name = 
  6 active torsions:
  status: ('A' for Active; 'I' for Inactive)
    1  A    between atoms: C_4  and  N_13
    2  A    between atoms: N_7  and  C_16
    3  A    between atoms: C_8  and  N_13
    4  A    between atoms: N_13  and  C_27
    5  A    between atoms: C_16  and  C_30
    6  A    between atoms: C_27  and  C_30
                            x       y       z     vdW  Elec       q    Type
                         _______ _______ _______ _____ _____    ______ ____

>  <TORSDO>
F 6

$$$$
=
 OpenBabel10272413553D

 30 33  0  0  1  0  0  0  0  0999 V2000
  185.9030  178.5900  142.1520 C   0  0  0  0  0  2  0  0  0  0  0  0
  183.3860  178.7510  141.9950 C   0  0  0  0  0  0  0  0  0  0  0  0
  185.5700  178.5240  146.4250 C   0  0  0  0  0  3  0  0  0  0  0  0
  186.9090  177.7410  142.9370 C   0  0  2  0  0  3  0  0  0  0  0  0
  186.7030  178.3130  147.2140 C   0  0  0  0  0  3  0  0  0  0  0  0
  182.1300  178.8490  142.6010 C   0  0  0  0  0  3  0  0  0  0  0  0
  183.4660  178.8240  140.5080 C   0  0  0  0  0  1  0  0  0  0  0  0
  185.6310  178.3630  145.0310 C   0  0  0  0  0  0  0  0  0  0  0  0
  182.0140  178.8010  143.9910 C   0  0  0  0  0  3  0  0  0  0  0  0
  184.5400  178.5940  142.7870 C   0  0  0  0  0  0  0  0  0  0  0  0
  186.8540  178.0000  144.4280 C   0  0  0  0  0  0  0  0  0  0  0  0
  187.9050  177.9260  146.6190 C   0  0  0  0  0  3  0  0  0  0  0  0
  187.9760  177.7600  145.2350 C   0  0  0  0  0  3  0  0  0  0  0  0
  183.1530  178.6550  144.7830 C   0  0  0  0  0  3  0  0  0  0  0  0
  184.4220  178.5530  144.1940 C   0  0  0  0  0  0  0  0  0  0  0  0
  188.2580  177.8930  142.3810 N   0  0  0  0  0  0  0  0  0  0  0  0
  191.5740  177.2390  144.0680 C   0  0  0  0  0  3  0  0  0  0  0  0
  190.4770  179.3170  143.5980 O   0  0  0  0  0  1  0  0  0  0  0  0
  189.4120  177.2150  142.9400 C   0  0  0  0  0  0  0  0  0  0  0  0
  189.4990  175.8140  142.8700 C   0  0  0  0  0  3  0  0  0  0  0  0
  190.4770  177.9280  143.5390 C   0  0  0  0  0  0  0  0  0  0  0  0
  191.6340  175.8470  143.9990 C   0  0  0  0  0  3  0  0  0  0  0  0
  190.5980  175.1340  143.3970 C   0  0  0  0  0  3  0  0  0  0  0  0
  188.3760  178.7790  141.2300 C   0  0  0  0  0  2  0  0  0  0  0  0
  188.4280  177.9650  139.9470 C   0  0  0  0  0  2  0  0  0  0  0  0
  189.8420  177.9430  139.3980 C   0  0  0  0  0  2  0  0  0  0  0  0
  190.3190  176.5730  139.3080 N   0  0  0  0  0  2  0  0  0  0  0  0
  190.6790  176.6630  137.0020 O   0  0  0  0  0  0  0  0  0  0  0  0
  190.7250  175.9930  138.0680 C   0  0  0  0  0  0  0  0  0  0  0  0
  191.1830  174.6480  138.0360 N   0  0  0  0  0  1  0  0  0  0  0  0
  1 10  1  0  0  0  0
  1  4  1  0  0  0  0
  2  6  2  0  0  0  0
  2 10  1  0  0  0  0
  3  5  1  0  0  0  0
  4 16  1  6  0  0  0
  4 11  1  0  0  0  0
  6  9  1  0  0  0  0
  7  2  1  0  0  0  0
  8  3  2  0  0  0  0
  9 14  2  0  0  0  0
 10 15  2  0  0  0  0
 11  8  1  0  0  0  0
 11 13  2  0  0  0  0
 12  5  2  0  0  0  0
 13 12  1  0  0  0  0
 15 14  1  0  0  0  0
 15  8  1  0  0  0  0
 16 19  1  0  0  0  0
 19 21  1  0  0  0  0
 20 19  2  0  0  0  0
 20 23  1  0  0  0  0
 21 18  1  0  0  0  0
 21 17  2  0  0  0  0
 22 17  1  0  0  0  0
 23 22  2  0  0  0  0
 24 16  1  0  0  0  0
 25 24  1  0  0  0  0
 26 25  1  0  0  0  0
 27 26  1  0  0  0  0
 28 29  2  0  0  0  0
 29 27  1  0  0  0  0
 30 29  1  0  0  0  0
M  END
>  <MODEL>
2

>  <REMARK>
 VINA RESULT:      -9.9      1.523      1.728
  Name = 
  6 active torsions:
  status: ('A' for Active; 'I' for Inactive)
    1  A    between atoms: C_4  and  N_13
    2  A    between atoms: N_7  and  C_16
    3  A    between atoms: C_8  and  N_13
    4  A    between atoms: N_13  and  C_27
    5  A    between atoms: C_16  and  C_30
    6  A    between atoms: C_27  and  C_30
                            x       y       z     vdW  Elec       q    Type
                         _______ _______ _______ _____ _____    ______ ____

>  <TORSDO>
F 6

$$$$
=
 OpenBabel10272413553D

 30 33  0  0  1  0  0  0  0  0999 V2000
  186.1710  178.4810  142.2510 C   0  0  0  0  0  2  0  0  0  0  0  0
  183.7310  178.6950  141.6260 C   0  0  0  0  0  0  0  0  0  0  0  0
  185.0560  178.6020  146.3880 C   0  0  0  0  0  3  0  0  0  0  0  0
  186.9880  177.6420  143.2390 C   0  0  2  0  0  3  0  0  0  0  0  0
  186.0180  178.3970  147.3790 C   0  0  0  0  0  3  0  0  0  0  0  0
  182.3890  178.8480  141.9850 C   0  0  0  0  0  3  0  0  0  0  0  0
  184.0850  178.7040  140.1760 C   0  0  0  0  0  1  0  0  0  0  0  0
  185.3670  178.3810  145.0360 C   0  0  0  0  0  0  0  0  0  0  0  0
  182.0180  178.8620  143.3300 C   0  0  0  0  0  3  0  0  0  0  0  0
  184.7150  178.5450  142.6220 C   0  0  0  0  0  0  0  0  0  0  0  0
  186.6680  177.9650  144.6830 C   0  0  0  0  0  0  0  0  0  0  0  0
  187.2960  177.9580  147.0320 C   0  0  0  0  0  3  0  0  0  0  0  0
  187.6150  177.7310  145.6920 C   0  0  0  0  0  3  0  0  0  0  0  0
  182.9870  178.7210  144.3240 C   0  0  0  0  0  3  0  0  0  0  0  0
  184.3390  178.5650  143.9830 C   0  0  0  0  0  0  0  0  0  0  0  0
  188.4200  177.7390  142.9370 N   0  0  0  0  0  0  0  0  0  0  0  0
  190.3670  176.5660  139.9200 C   0  0  0  0  0  3  0  0  0  0  0  0
  190.3780  175.7380  142.1680 O   0  0  0  0  0  1  0  0  0  0  0  0
  188.9420  177.6300  141.5870 C   0  0  0  0  0  0  0  0  0  0  0  0
  188.5230  178.5420  140.6030 C   0  0  0  0  0  3  0  0  0  0  0  0
  189.8870  176.6390  141.2320 C   0  0  0  0  0  0  0  0  0  0  0  0
  189.9290  177.4730  138.9540 C   0  0  0  0  0  3  0  0  0  0  0  0
  189.0100  178.4640  139.2970 C   0  0  0  0  0  3  0  0  0  0  0  0
  189.3000  177.9440  144.0810 C   0  0  0  0  0  2  0  0  0  0  0  0
  190.4610  178.8460  143.6940 C   0  0  0  0  0  2  0  0  0  0  0  0
  191.7690  178.2510  144.1790 C   0  0  0  0  0  2  0  0  0  0  0  0
  191.6250  177.7780  145.5460 N   0  0  0  0  0  2  0  0  0  0  0  0
  192.0390  175.5440  145.0040 O   0  0  0  0  0  0  0  0  0  0  0  0
  191.7740  176.4010  145.8890 C   0  0  0  0  0  0  0  0  0  0  0  0
  191.6220  175.9920  147.2430 N   0  0  0  0  0  1  0  0  0  0  0  0
  1 10  1  0  0  0  0
  1  4  1  0  0  0  0
  2  6  2  0  0  0  0
  2 10  1  0  0  0  0
  3  5  1  0  0  0  0
  4 16  1  1  0  0  0
  4 11  1  0  0  0  0
  6  9  1  0  0  0  0
  7  2  1  0  0  0  0
  8  3  2  0  0  0  0
  9 14  2  0  0  0  0
 10 15  2  0  0  0  0
 11  8  1  0  0  0  0
 11 13  2  0  0  0  0
 12  5  2  0  0  0  0
 13 12  1  0  0  0  0
 15 14  1  0  0  0  0
 15  8  1  0  0  0  0
 16 24  1  0  0  0  0
 17 21  1  0  0  0  0
 19 16  1  0  0  0  0
 20 19  1  0  0  0  0
 21 19  2  0  0  0  0
 21 18  1  0  0  0  0
 22 23  1  0  0  0  0
 22 17  2  0  0  0  0
 23 20  2  0  0  0  0
 25 24  1  0  0  0  0
 25 26  1  0  0  0  0
 26 27  1  0  0  0  0
 27 29  1  0  0  0  0
 28 29  2  0  0  0  0
 29 30  1  0  0  0  0
M  END
>  <MODEL>
3

>  <REMARK>
 VINA RESULT:      -9.5      2.324      4.435
  Name = 
  6 active torsions:
  status: ('A' for Active; 'I' for Inactive)
    1  A    between atoms: C_4  and  N_13
    2  A    between atoms: N_7  and  C_16
    3  A    between atoms: C_8  and  N_13
    4  A    between atoms: N_13  and  C_27
    5  A    between atoms: C_16  and  C_30
    6  A    between atoms: C_27  and  C_30
                            x       y       z     vdW  Elec       q    Type
                         _______ _______ _______ _____ _____    ______ ____

>  <TORSDO>
F 6

$$$$
=
 OpenBabel10272413553D

 30 33  0  0  1  0  0  0  0  0999 V2000
  187.5130  178.1320  142.0760 C   0  0  0  0  0  2  0  0  0  0  0  0
  186.5970  178.3560  139.7310 C   0  0  0  0  0  0  0  0  0  0  0  0
  183.6580  179.1980  143.6170 C   0  0  0  0  0  3  0  0  0  0  0  0
  187.0560  177.4730  143.3820 C   0  0  2  0  0  3  0  0  0  0  0  0
  183.4150  179.1500  144.9920 C   0  0  0  0  0  3  0  0  0  0  0  0
  185.5530  178.6640  138.8550 C   0  0  0  0  0  3  0  0  0  0  0  0
  187.9360  178.0350  139.1590 C   0  0  0  0  0  1  0  0  0  0  0  0
  184.8480  178.6760  143.0850 C   0  0  0  0  0  0  0  0  0  0  0  0
  184.2890  178.9860  139.3510 C   0  0  0  0  0  3  0  0  0  0  0  0
  186.3740  178.3610  141.1220 C   0  0  0  0  0  0  0  0  0  0  0  0
  185.8090  178.1150  143.9540 C   0  0  0  0  0  0  0  0  0  0  0  0
  184.3520  178.5700  145.8460 C   0  0  0  0  0  3  0  0  0  0  0  0
  185.5370  178.0440  145.3290 C   0  0  0  0  0  3  0  0  0  0  0  0
  184.0620  179.0020  140.7270 C   0  0  0  0  0  3  0  0  0  0  0  0
  185.0960  178.6930  141.6230 C   0  0  0  0  0  0  0  0  0  0  0  0
  188.1600  177.4150  144.3460 N   0  0  0  0  0  0  0  0  0  0  0  0
  191.6630  177.0060  142.9940 C   0  0  0  0  0  3  0  0  0  0  0  0
  189.8550  175.4350  143.0690 O   0  0  0  0  0  1  0  0  0  0  0  0
  189.5360  177.6850  143.9730 C   0  0  0  0  0  0  0  0  0  0  0  0
  190.1040  178.9370  144.2630 C   0  0  0  0  0  3  0  0  0  0  0  0
  190.3410  176.7090  143.3400 C   0  0  0  0  0  0  0  0  0  0  0  0
  192.2040  178.2600  143.2800 C   0  0  0  0  0  3  0  0  0  0  0  0
  191.4260  179.2250  143.9180 C   0  0  0  0  0  3  0  0  0  0  0  0
  187.7950  177.0610  145.7120 C   0  0  0  0  0  2  0  0  0  0  0  0
  188.3940  178.0590  146.6900 C   0  0  0  0  0  2  0  0  0  0  0  0
  189.2480  177.3380  147.7150 C   0  0  0  0  0  2  0  0  0  0  0  0
  190.1360  176.3970  147.0510 N   0  0  0  0  0  2  0  0  0  0  0  0
  192.0500  177.1500  148.1570 O   0  0  0  0  0  0  0  0  0  0  0  0
  191.5360  176.3580  147.3220 C   0  0  0  0  0  0  0  0  0  0  0  0
  192.3590  175.4180  146.6440 N   0  0  0  0  0  1  0  0  0  0  0  0
  1  4  1  0  0  0  0
  2 10  1  0  0  0  0
  3  5  1  0  0  0  0
  4 11  1  0  0  0  0
  4 16  1  1  0  0  0
  5 12  2  0  0  0  0
  6  9  1  0  0  0  0
  6  2  2  0  0  0  0
  7  2  1  0  0  0  0
  8  3  2  0  0  0  0
  8 11  1  0  0  0  0
  9 14  2  0  0  0  0
 10 15  2  0  0  0  0
 10  1  1  0  0  0  0
 11 13  2  0  0  0  0
 13 12  1  0  0  0  0
 14 15  1  0  0  0  0
 15  8  1  0  0  0  0
 16 24  1  0  0  0  0
 17 22  2  0  0  0  0
 17 21  1  0  0  0  0
 18 21  1  0  0  0  0
 19 20  1  0  0  0  0
 19 16  1  0  0  0  0
 21 19  2  0  0  0  0
 22 23  1  0  0  0  0
 23 20  2  0  0  0  0
 24 25  1  0  0  0  0
 25 26  1  0  0  0  0
 27 29  1  0  0  0  0
 27 26  1  0  0  0  0
 29 28  2  0  0  0  0
 30 29  1  0  0  0  0
M  END
>  <MODEL>
4

>  <REMARK>
 VINA RESULT:      -8.6      2.668      5.407
  Name = 
  6 active torsions:
  status: ('A' for Active; 'I' for Inactive)
    1  A    between atoms: C_4  and  N_13
    2  A    between atoms: N_7  and  C_16
    3  A    between atoms: C_8  and  N_13
    4  A    between atoms: N_13  and  C_27
    5  A    between atoms: C_16  and  C_30
    6  A    between atoms: C_27  and  C_30
                            x       y       z     vdW  Elec       q    Type
                         _______ _______ _______ _____ _____    ______ ____

>  <TORSDO>
F 6

$$$$
=
 OpenBabel10272413553D

 30 33  0  0  1  0  0  0  0  0999 V2000
  187.4250  178.1780  141.0390 C   0  0  0  0  0  2  0  0  0  0  0  0
  185.5690  178.2110  142.7550 C   0  0  0  0  0  0  0  0  0  0  0  0
  190.2680  177.7200  144.2150 C   0  0  0  0  0  3  0  0  0  0  0  0
  188.6670  177.3200  140.7720 C   0  0  2  0  0  3  0  0  0  0  0  0
  191.6160  177.5050  143.9230 C   0  0  0  0  0  3  0  0  0  0  0  0
  185.1370  178.1850  144.0840 C   0  0  0  0  0  3  0  0  0  0  0  0
  184.5560  178.4170  141.6800 C   0  0  0  0  0  1  0  0  0  0  0  0
  189.3030  177.6850  143.1950 C   0  0  0  0  0  0  0  0  0  0  0  0
  186.0550  178.0100  145.1200 C   0  0  0  0  0  3  0  0  0  0  0  0
  186.9360  178.0500  142.4560 C   0  0  0  0  0  0  0  0  0  0  0  0
  189.7080  177.4450  141.8640 C   0  0  0  0  0  0  0  0  0  0  0  0
  192.0120  177.2390  142.6120 C   0  0  0  0  0  3  0  0  0  0  0  0
  191.0620  177.1980  141.5900 C   0  0  0  0  0  3  0  0  0  0  0  0
  187.4120  177.8590  144.8330 C   0  0  0  0  0  3  0  0  0  0  0  0
  187.8660  177.8790  143.5050 C   0  0  0  0  0  0  0  0  0  0  0  0
  189.2070  177.5950  139.4360 N   0  0  0  0  0  0  0  0  0  0  0  0
  190.1080  174.6960  137.1900 C   0  0  0  0  0  3  0  0  0  0  0  0
  187.9530  175.5270  137.8300 O   0  0  0  0  0  1  0  0  0  0  0  0
  189.9690  176.6150  138.6860 C   0  0  0  0  0  0  0  0  0  0  0  0
  191.3730  176.6260  138.7530 C   0  0  0  0  0  3  0  0  0  0  0  0
  189.3380  175.6230  137.9000 C   0  0  0  0  0  0  0  0  0  0  0  0
  191.5010  174.7310  137.2590 C   0  0  0  0  0  3  0  0  0  0  0  0
  192.1340  175.6940  138.0440 C   0  0  0  0  0  3  0  0  0  0  0  0
  188.9380  178.9240  138.9020 C   0  0  0  0  0  2  0  0  0  0  0  0
  189.1840  178.9460  137.4020 C   0  0  0  0  0  2  0  0  0  0  0  0
  187.8680  178.8460  136.6540 C   0  0  0  0  0  2  0  0  0  0  0  0
  186.7650  178.7520  137.5980 N   0  0  0  0  0  2  0  0  0  0  0  0
  185.5260  177.2790  136.2740 O   0  0  0  0  0  0  0  0  0  0  0  0
  185.6170  177.9440  137.3410 C   0  0  0  0  0  0  0  0  0  0  0  0
  184.5670  177.8880  138.2970 N   0  0  0  0  0  1  0  0  0  0  0  0
  1 10  1  0  0  0  0
  2  6  1  0  0  0  0
  4 16  1  6  0  0  0
  4  1  1  0  0  0  0
  4 11  1  0  0  0  0
  5  3  1  0  0  0  0
  6  9  2  0  0  0  0
  7  2  1  0  0  0  0
  8 15  1  0  0  0  0
  8  3  2  0  0  0  0
 10  2  2  0  0  0  0
 10 15  1  0  0  0  0
 11  8  1  0  0  0  0
 12  5  2  0  0  0  0
 13 11  2  0  0  0  0
 13 12  1  0  0  0  0
 14  9  1  0  0  0  0
 15 14  2  0  0  0  0
 17 22  2  0  0  0  0
 17 21  1  0  0  0  0
 18 21  1  0  0  0  0
 19 20  1  0  0  0  0
 19 16  1  0  0  0  0
 21 19  2  0  0  0  0
 22 23  1  0  0  0  0
 23 20  2  0  0  0  0
 24 16  1  0  0  0  0
 25 24  1  0  0  0  0
 26 25  1  0  0  0  0
 26 27  1  0  0  0  0
 28 29  2  0  0  0  0
 29 27  1  0  0  0  0
 29 30  1  0  0  0  0
M  END
>  <MODEL>
5

>  <REMARK>
 VINA RESULT:      -8.4      2.171      4.281
  Name = 
  6 active torsions:
  status: ('A' for Active; 'I' for Inactive)
    1  A    between atoms: C_4  and  N_13
    2  A    between atoms: N_7  and  C_16
    3  A    between atoms: C_8  and  N_13
    4  A    between atoms: N_13  and  C_27
    5  A    between atoms: C_16  and  C_30
    6  A    between atoms: C_27  and  C_30
                            x       y       z     vdW  Elec       q    Type
                         _______ _______ _______ _____ _____    ______ ____

>  <TORSDO>
F 6

$$$$
=
 OpenBabel10272413553D

 30 33  0  0  1  0  0  0  0  0999 V2000
  186.9430  177.8660  143.3410 C   0  0  0  0  0  2  0  0  0  0  0  0
  185.0910  178.4380  144.9620 C   0  0  0  0  0  0  0  0  0  0  0  0
  184.2220  178.5300  140.0960 C   0  0  0  0  0  3  0  0  0  0  0  0
  187.5030  178.4670  142.0470 C   0  0  2  0  0  3  0  0  0  0  0  0
  184.6800  178.4890  138.7780 C   0  0  0  0  0  3  0  0  0  0  0  0
  183.7630  178.7870  145.2230 C   0  0  0  0  0  3  0  0  0  0  0  0
  185.9960  178.1700  146.1180 C   0  0  0  0  0  1  0  0  0  0  0  0
  185.1290  178.5010  141.1680 C   0  0  0  0  0  0  0  0  0  0  0  0
  182.8800  179.0300  144.1700 C   0  0  0  0  0  3  0  0  0  0  0  0
  185.5460  178.3390  143.6340 C   0  0  0  0  0  0  0  0  0  0  0  0
  186.5130  178.4130  140.9020 C   0  0  0  0  0  0  0  0  0  0  0  0
  186.0490  178.4310  138.5160 C   0  0  0  0  0  3  0  0  0  0  0  0
  186.9610  178.4050  139.5720 C   0  0  0  0  0  3  0  0  0  0  0  0
  183.3200  178.9260  142.8510 C   0  0  0  0  0  3  0  0  0  0  0  0
  184.6500  178.5790  142.5690 C   0  0  0  0  0  0  0  0  0  0  0  0
  188.7950  177.8590  141.7120 N   0  0  0  0  0  0  0  0  0  0  0  0
  191.3510  176.4070  144.0840 C   0  0  0  0  0  3  0  0  0  0  0  0
  189.6990  175.3010  142.7460 O   0  0  0  0  0  1  0  0  0  0  0  0
  189.8740  177.7400  142.6740 C   0  0  0  0  0  0  0  0  0  0  0  0
  190.4990  178.8980  143.1670 C   0  0  0  0  0  3  0  0  0  0  0  0
  190.3070  176.4820  143.1560 C   0  0  0  0  0  0  0  0  0  0  0  0
  191.9670  177.5680  144.5510 C   0  0  0  0  0  3  0  0  0  0  0  0
  191.5380  178.8150  144.0960 C   0  0  0  0  0  3  0  0  0  0  0  0
  188.9390  177.3840  140.3410 C   0  0  0  0  0  2  0  0  0  0  0  0
  190.3750  177.5600  139.8740 C   0  0  0  0  0  2  0  0  0  0  0  0
  190.9030  176.2590  139.3030 C   0  0  0  0  0  2  0  0  0  0  0  0
  191.7020  176.5240  138.1170 N   0  0  0  0  0  2  0  0  0  0  0  0
  193.7320  176.5410  139.2710 O   0  0  0  0  0  0  0  0  0  0  0  0
  193.1220  176.6530  138.1750 C   0  0  0  0  0  0  0  0  0  0  0  0
  193.8550  176.9130  136.9840 N   0  0  0  0  0  1  0  0  0  0  0  0
  1 10  1  0  0  0  0
  2  6  1  0  0  0  0
  2  7  1  0  0  0  0
  3  8  1  0  0  0  0
  4 16  1  6  0  0  0
  4  1  1  0  0  0  0
  5  3  2  0  0  0  0
  8 15  1  0  0  0  0
  9  6  2  0  0  0  0
 10  2  2  0  0  0  0
 11  8  2  0  0  0  0
 11  4  1  0  0  0  0
 12  5  1  0  0  0  0
 12 13  2  0  0  0  0
 13 11  1  0  0  0  0
 14  9  1  0  0  0  0
 15 14  2  0  0  0  0
 15 10  1  0  0  0  0
 16 19  1  0  0  0  0
 17 22  1  0  0  0  0
 18 21  1  0  0  0  0
 19 21  1  0  0  0  0
 19 20  2  0  0  0  0
 20 23  1  0  0  0  0
 21 17  2  0  0  0  0
 23 22  2  0  0  0  0
 24 16  1  0  0  0  0
 25 24  1  0  0  0  0
 26 25  1  0  0  0  0
 27 29  1  0  0  0  0
 27 26  1  0  0  0  0
 29 28  2  0  0  0  0
 30 29  1  0  0  0  0
M  END
>  <MODEL>
6

>  <REMARK>
 VINA RESULT:      -8.3      2.295      4.334
  Name = 
  6 active torsions:
  status: ('A' for Active; 'I' for Inactive)
    1  A    between atoms: C_4  and  N_13
    2  A    between atoms: N_7  and  C_16
    3  A    between atoms: C_8  and  N_13
    4  A    between atoms: N_13  and  C_27
    5  A    between atoms: C_16  and  C_30
    6  A    between atoms: C_27  and  C_30
                            x       y       z     vdW  Elec       q    Type
                         _______ _______ _______ _____ _____    ______ ____

>  <TORSDO>
F 6

$$$$
=
 OpenBabel10272413553D

 30 33  0  0  1  0  0  0  0  0999 V2000
  186.9290  177.8120  143.4420 C   0  0  0  0  0  2  0  0  0  0  0  0
  185.0420  178.4140  145.0120 C   0  0  0  0  0  0  0  0  0  0  0  0
  184.3170  178.5470  140.1220 C   0  0  0  0  0  3  0  0  0  0  0  0
  187.5380  178.4080  142.1680 C   0  0  2  0  0  3  0  0  0  0  0  0
  184.8130  178.5030  138.8180 C   0  0  0  0  0  3  0  0  0  0  0  0
  183.7150  178.7890  145.2350 C   0  0  0  0  0  3  0  0  0  0  0  0
  185.9070  178.1220  146.1910 C   0  0  0  0  0  1  0  0  0  0  0  0
  185.1930  178.4950  141.2200 C   0  0  0  0  0  0  0  0  0  0  0  0
  182.8670  179.0550  144.1580 C   0  0  0  0  0  3  0  0  0  0  0  0
  185.5330  178.3120  143.6960 C   0  0  0  0  0  0  0  0  0  0  0  0
  186.5810  178.3790  140.9940 C   0  0  0  0  0  0  0  0  0  0  0  0
  186.1870  178.4180  138.5960 C   0  0  0  0  0  3  0  0  0  0  0  0
  187.0670  178.3690  139.6780 C   0  0  0  0  0  3  0  0  0  0  0  0
  183.3440  178.9480  142.8520 C   0  0  0  0  0  3  0  0  0  0  0  0
  184.6740  178.5760  142.6070 C   0  0  0  0  0  0  0  0  0  0  0  0
  188.8270  177.7750  141.8670 N   0  0  0  0  0  0  0  0  0  0  0  0
  191.2900  176.2850  144.3110 C   0  0  0  0  0  3  0  0  0  0  0  0
  189.6480  175.2060  142.9400 O   0  0  0  0  0  1  0  0  0  0  0  0
  189.8790  177.6390  142.8570 C   0  0  0  0  0  0  0  0  0  0  0  0
  190.5160  178.7870  143.3580 C   0  0  0  0  0  3  0  0  0  0  0  0
  190.2720  176.3760  143.3570 C   0  0  0  0  0  0  0  0  0  0  0  0
  191.9200  177.4350  144.7870 C   0  0  0  0  0  3  0  0  0  0  0  0
  191.5300  178.6880  144.3130 C   0  0  0  0  0  3  0  0  0  0  0  0
  188.9970  177.2940  140.5020 C   0  0  0  0  0  2  0  0  0  0  0  0
  190.4500  177.4270  140.0770 C   0  0  0  0  0  2  0  0  0  0  0  0
  190.5920  177.1330  138.5960 C   0  0  0  0  0  2  0  0  0  0  0  0
  190.7530  175.7030  138.3850 N   0  0  0  0  0  2  0  0  0  0  0  0
  188.9750  175.5460  136.8780 O   0  0  0  0  0  0  0  0  0  0  0  0
  189.9030  174.9680  137.5060 C   0  0  0  0  0  0  0  0  0  0  0  0
  190.1040  173.5700  137.3360 N   0  0  0  0  0  1  0  0  0  0  0  0
  1 10  1  0  0  0  0
  2  6  1  0  0  0  0
  2  7  1  0  0  0  0
  3  8  1  0  0  0  0
  4 16  1  6  0  0  0
  4  1  1  0  0  0  0
  5  3  2  0  0  0  0
  8 15  1  0  0  0  0
  9  6  2  0  0  0  0
 10  2  2  0  0  0  0
 11  8  2  0  0  0  0
 11  4  1  0  0  0  0
 12  5  1  0  0  0  0
 12 13  2  0  0  0  0
 13 11  1  0  0  0  0
 14  9  1  0  0  0  0
 15 14  2  0  0  0  0
 15 10  1  0  0  0  0
 16 19  1  0  0  0  0
 17 22  1  0  0  0  0
 18 21  1  0  0  0  0
 19 21  1  0  0  0  0
 19 20  2  0  0  0  0
 20 23  1  0  0  0  0
 21 17  2  0  0  0  0
 23 22  2  0  0  0  0
 24 16  1  0  0  0  0
 25 24  1  0  0  0  0
 26 25  1  0  0  0  0
 27 26  1  0  0  0  0
 28 29  2  0  0  0  0
 29 27  1  0  0  0  0
 30 29  1  0  0  0  0
M  END
>  <MODEL>
7

>  <REMARK>
 VINA RESULT:      -8.3      2.019      3.896
  Name = 
  6 active torsions:
  status: ('A' for Active; 'I' for Inactive)
    1  A    between atoms: C_4  and  N_13
    2  A    between atoms: N_7  and  C_16
    3  A    between atoms: C_8  and  N_13
    4  A    between atoms: N_13  and  C_27
    5  A    between atoms: C_16  and  C_30
    6  A    between atoms: C_27  and  C_30
                            x       y       z     vdW  Elec       q    Type
                         _______ _______ _______ _____ _____    ______ ____

>  <TORSDO>
F 6

$$$$
=
 OpenBabel10272413553D

 30 33  0  0  1  0  0  0  0  0999 V2000
  184.9440  177.9660  141.8270 C   0  0  0  0  0  2  0  0  0  0  0  0
  186.2170  178.0520  144.0080 C   0  0  0  0  0  0  0  0  0  0  0  0
  181.3610  178.9770  143.9520 C   0  0  0  0  0  3  0  0  0  0  0  0
  183.9120  178.8480  141.1150 C   0  0  2  0  0  3  0  0  0  0  0  0
  180.1780  179.2250  143.2530 C   0  0  0  0  0  3  0  0  0  0  0  0
  186.2500  178.2240  145.3950 C   0  0  0  0  0  3  0  0  0  0  0  0
  187.4750  177.6560  143.3100 C   0  0  0  0  0  1  0  0  0  0  0  0
  182.5770  178.8300  143.2660 C   0  0  0  0  0  0  0  0  0  0  0  0
  185.0920  178.5780  146.0880 C   0  0  0  0  0  3  0  0  0  0  0  0
  185.0140  178.2460  143.3030 C   0  0  0  0  0  0  0  0  0  0  0  0
  182.5940  178.9200  141.8570 C   0  0  0  0  0  0  0  0  0  0  0  0
  180.2000  179.3430  141.8630 C   0  0  0  0  0  3  0  0  0  0  0  0
  181.4040  179.2030  141.1700 C   0  0  0  0  0  3  0  0  0  0  0  0
  183.8950  178.7640  145.3980 C   0  0  0  0  0  3  0  0  0  0  0  0
  183.8410  178.5990  144.0060 C   0  0  0  0  0  0  0  0  0  0  0  0
  183.7570  178.4350  139.7160 N   0  0  0  0  0  0  0  0  0  0  0  0
  180.6850  177.1640  137.9240 C   0  0  0  0  0  3  0  0  0  0  0  0
  181.7550  179.3040  137.8020 O   0  0  0  0  0  1  0  0  0  0  0  0
  182.6730  177.5790  139.2720 C   0  0  0  0  0  0  0  0  0  0  0  0
  182.5470  176.2830  139.8020 C   0  0  0  0  0  3  0  0  0  0  0  0
  181.7150  178.0190  138.3280 C   0  0  0  0  0  0  0  0  0  0  0  0
  180.5840  175.8770  138.4520 C   0  0  0  0  0  3  0  0  0  0  0  0
  181.5130  175.4370  139.3950 C   0  0  0  0  0  3  0  0  0  0  0  0
  184.7670  178.9310  138.7900 C   0  0  0  0  0  2  0  0  0  0  0  0
  185.2400  177.8080  137.8800 C   0  0  0  0  0  2  0  0  0  0  0  0
  186.5920  178.1510  137.2850 C   0  0  0  0  0  2  0  0  0  0  0  0
  187.6540  177.6780  138.1590 N   0  0  0  0  0  2  0  0  0  0  0  0
  188.9830  179.5760  137.8630 O   0  0  0  0  0  0  0  0  0  0  0  0
  188.8300  178.4490  138.4040 C   0  0  0  0  0  0  0  0  0  0  0  0
  189.8390  177.9390  139.2670 N   0  0  0  0  0  1  0  0  0  0  0  0
  1 10  1  0  0  0  0
  2  6  1  0  0  0  0
  4 16  1  6  0  0  0
  4  1  1  0  0  0  0
  4 11  1  0  0  0  0
  5  3  2  0  0  0  0
  6  9  2  0  0  0  0
  7  2  1  0  0  0  0
  8  3  1  0  0  0  0
  8 15  1  0  0  0  0
 10 15  1  0  0  0  0
 10  2  2  0  0  0  0
 11  8  2  0  0  0  0
 12  5  1  0  0  0  0
 13 11  1  0  0  0  0
 13 12  2  0  0  0  0
 14  9  1  0  0  0  0
 15 14  2  0  0  0  0
 17 21  2  0  0  0  0
 17 22  1  0  0  0  0
 18 21  1  0  0  0  0
 19 16  1  0  0  0  0
 19 20  2  0  0  0  0
 21 19  1  0  0  0  0
 22 23  2  0  0  0  0
 23 20  1  0  0  0  0
 24 16  1  0  0  0  0
 25 24  1  0  0  0  0
 26 25  1  0  0  0  0
 26 27  1  0  0  0  0
 27 29  1  0  0  0  0
 28 29  2  0  0  0  0
 29 30  1  0  0  0  0
M  END
>  <MODEL>
8

>  <REMARK>
 VINA RESULT:      -8.0      2.364      6.372
  Name = 
  6 active torsions:
  status: ('A' for Active; 'I' for Inactive)
    1  A    between atoms: C_4  and  N_13
    2  A    between atoms: N_7  and  C_16
    3  A    between atoms: C_8  and  N_13
    4  A    between atoms: N_13  and  C_27
    5  A    between atoms: C_16  and  C_30
    6  A    between atoms: C_27  and  C_30
                            x       y       z     vdW  Elec       q    Type
                         _______ _______ _______ _____ _____    ______ ____

>  <TORSDO>
F 6

$$$$
=
 OpenBabel10272413553D

 30 33  0  0  1  0  0  0  0  0999 V2000
  187.5540  178.1260  141.2810 C   0  0  0  0  0  2  0  0  0  0  0  0
  185.5270  178.5300  142.7360 C   0  0  0  0  0  0  0  0  0  0  0  0
  189.7920  177.1060  144.7930 C   0  0  0  0  0  3  0  0  0  0  0  0
  188.6260  177.0380  141.1580 C   0  0  2  0  0  3  0  0  0  0  0  0
  191.0980  176.6250  144.6770 C   0  0  0  0  0  3  0  0  0  0  0  0
  184.9220  178.5900  143.9940 C   0  0  0  0  0  3  0  0  0  0  0  0
  184.7300  178.9360  141.5420 C   0  0  0  0  0  1  0  0  0  0  0  0
  188.9870  177.2660  143.6530 C   0  0  0  0  0  0  0  0  0  0  0  0
  185.6380  178.2340  145.1380 C   0  0  0  0  0  3  0  0  0  0  0  0
  186.8620  178.0990  142.6170 C   0  0  0  0  0  0  0  0  0  0  0  0
  189.5130  176.9500  142.3820 C   0  0  0  0  0  0  0  0  0  0  0  0
  191.6080  176.2860  143.4230 C   0  0  0  0  0  3  0  0  0  0  0  0
  190.8160  176.4370  142.2840 C   0  0  0  0  0  3  0  0  0  0  0  0
  186.9640  177.8140  145.0290 C   0  0  0  0  0  3  0  0  0  0  0  0
  187.5880  177.7440  143.7750 C   0  0  0  0  0  0  0  0  0  0  0  0
  189.3860  177.1990  139.9140 N   0  0  0  0  0  0  0  0  0  0  0  0
  187.9910  178.4530  136.6350 C   0  0  0  0  0  3  0  0  0  0  0  0
  189.0570  179.6600  138.4090 O   0  0  0  0  0  1  0  0  0  0  0  0
  188.7490  177.2430  138.6110 C   0  0  0  0  0  0  0  0  0  0  0  0
  188.2310  176.0630  138.0500 C   0  0  0  0  0  3  0  0  0  0  0  0
  188.6110  178.4510  137.8890 C   0  0  0  0  0  0  0  0  0  0  0  0
  187.4950  177.2690  136.0900 C   0  0  0  0  0  3  0  0  0  0  0  0
  187.6110  176.0730  136.7990 C   0  0  0  0  0  3  0  0  0  0  0  0
  190.8320  177.3080  140.0610 C   0  0  0  0  0  2  0  0  0  0  0  0
  191.5300  176.5930  138.9150 C   0  0  0  0  0  2  0  0  0  0  0  0
  192.9890  177.0030  138.8530 C   0  0  0  0  0  2  0  0  0  0  0  0
  193.8020  175.8810  138.4120 N   0  0  0  0  0  2  0  0  0  0  0  0
  193.5560  176.3680  136.1410 O   0  0  0  0  0  0  0  0  0  0  0  0
  194.0460  175.6210  137.0300 C   0  0  0  0  0  0  0  0  0  0  0  0
  194.8490  174.5100  136.6530 N   0  0  0  0  0  1  0  0  0  0  0  0
  1 10  1  0  0  0  0
  2  6  1  0  0  0  0
  4 16  1  6  0  0  0
  4  1  1  0  0  0  0
  4 11  1  0  0  0  0
  5  3  1  0  0  0  0
  6  9  2  0  0  0  0
  7  2  1  0  0  0  0
  8 15  1  0  0  0  0
  8  3  2  0  0  0  0
 10  2  2  0  0  0  0
 10 15  1  0  0  0  0
 11  8  1  0  0  0  0
 12  5  2  0  0  0  0
 13 11  2  0  0  0  0
 13 12  1  0  0  0  0
 14  9  1  0  0  0  0
 15 14  2  0  0  0  0
 16 24  1  0  0  0  0
 17 21  1  0  0  0  0
 19 16  1  0  0  0  0
 20 19  1  0  0  0  0
 21 18  1  0  0  0  0
 21 19  2  0  0  0  0
 22 17  2  0  0  0  0
 22 23  1  0  0  0  0
 23 20  2  0  0  0  0
 25 24  1  0  0  0  0
 26 25  1  0  0  0  0
 27 26  1  0  0  0  0
 28 29  2  0  0  0  0
 29 27  1  0  0  0  0
 30 29  1  0  0  0  0
M  END
>  <MODEL>
9

>  <REMARK>
 VINA RESULT:      -7.8      3.023      5.146
  Name = 
  6 active torsions:
  status: ('A' for Active; 'I' for Inactive)
    1  A    between atoms: C_4  and  N_13
    2  A    between atoms: N_7  and  C_16
    3  A    between atoms: C_8  and  N_13
    4  A    between atoms: N_13  and  C_27
    5  A    between atoms: C_16  and  C_30
    6  A    between atoms: C_27  and  C_30
                            x       y       z     vdW  Elec       q    Type
                         _______ _______ _______ _____ _____    ______ ____

>  <TORSDO>
F 6

$$$$
