=
 OpenBabel10272400353D

 31 34  0  0  1  0  0  0  0  0999 V2000
  188.3510  177.5540  147.7580 C   0  0  0  0  0  0  0  0  0  0  0  0
  187.0770  178.0270  144.2410 C   0  0  0  0  0  0  0  0  0  0  0  0
  185.6760  178.3190  144.3420 C   0  0  0  0  0  0  0  0  0  0  0  0
  191.7070  176.7920  142.0420 O   0  0  0  0  0  0  0  0  0  0  0  0
  190.9390  177.2460  141.1510 C   0  0  0  0  0  0  0  0  0  0  0  0
  183.6410  178.6750  145.6510 C   0  0  0  0  0  3  0  0  0  0  0  0
  187.9330  177.7810  145.3590 C   0  0  0  0  0  0  0  0  0  0  0  0
  189.6970  177.2860  147.5130 C   0  0  0  0  0  3  0  0  0  0  0  0
  185.0040  178.3890  145.5760 C   0  0  0  0  0  3  0  0  0  0  0  0
  189.0250  177.6900  142.7810 C   0  0  0  0  0  0  0  0  0  0  0  0
  187.8860  177.5800  149.0300 F   0  0  0  0  0  0  0  0  0  0  0  0
  185.5240  178.4970  141.9130 C   0  0  0  0  0  3  0  0  0  0  0  0
  182.9120  178.9000  144.4870 C   0  0  0  0  0  3  0  0  0  0  0  0
  189.7980  177.4670  143.8720 N   0  0  0  0  0  0  0  0  0  0  0  0
  187.6580  177.9780  142.9400 C   0  0  0  0  0  0  0  0  0  0  0  0
  189.6010  177.6470  141.4660 N   0  0  0  0  0  2  0  0  0  0  0  0
  187.4830  177.7980  146.6920 C   0  0  0  0  0  3  0  0  0  0  0  0
  182.8100  179.0640  142.1240 F   0  0  0  0  0  0  0  0  0  0  0  0
  189.3050  177.5020  145.1310 C   0  0  0  0  0  0  0  0  0  0  0  0
  190.1720  177.2600  146.2020 C   0  0  0  0  0  3  0  0  0  0  0  0
  186.8760  178.2130  141.8040 C   0  0  0  0  0  3  0  0  0  0  0  0
  184.9140  178.5530  143.1630 C   0  0  0  0  0  0  0  0  0  0  0  0
  183.5410  178.8410  143.2450 C   0  0  0  0  0  0  0  0  0  0  0  0
  192.8910  177.0330  139.6140 C   0  0  0  0  0  1  0  0  0  0  0  0
  191.3970  177.3130  139.7300 C   0  0  1  0  0  3  0  0  0  0  0  0
  191.2760  175.2620  138.4640 O   0  0  0  0  0  1  0  0  0  0  0  0
  190.5540  176.4000  138.8340 C   0  0  2  0  0  3  0  0  0  0  0  0
  190.0720  177.1260  137.5860 C   0  0  0  0  0  2  0  0  0  0  0  0
  188.9180  178.0150  137.8990 C   0  0  0  0  0  0  0  0  0  0  0  0
  188.9860  179.4040  137.6030 N   0  0  0  0  0  1  0  0  0  0  0  0
  187.8750  177.5340  138.4150 O   0  0  0  0  0  0  0  0  0  0  0  0
  1 11  1  0  0  0  0
  2  3  1  0  0  0  0
  2  7  1  0  0  0  0
  3  9  1  0  0  0  0
  5 16  1  0  0  0  0
  5  4  2  0  0  0  0
  7 17  1  0  0  0  0
  8  1  1  0  0  0  0
  9  6  2  0  0  0  0
 10 15  1  0  0  0  0
 10 14  2  0  0  0  0
 12 22  1  0  0  0  0
 13  6  1  0  0  0  0
 14 19  1  0  0  0  0
 15  2  2  0  0  0  0
 16 10  1  0  0  0  0
 17  1  2  0  0  0  0
 18 23  1  0  0  0  0
 19  7  2  0  0  0  0
 19 20  1  0  0  0  0
 20  8  2  0  0  0  0
 21 12  2  0  0  0  0
 21 15  1  0  0  0  0
 22 23  1  0  0  0  0
 22  3  2  0  0  0  0
 23 13  2  0  0  0  0
 25 24  1  1  0  0  0
 25  5  1  0  0  0  0
 27 26  1  6  0  0  0
 27 25  1  0  0  0  0
 28 29  1  0  0  0  0
 28 27  1  0  0  0  0
 29 31  2  0  0  0  0
 30 29  1  0  0  0  0
M  END
>  <MODEL>
1

>  <REMARK>
 VINA RESULT:     -11.3      0.000      0.000
  Name = 
  4 active torsions:
  status: ('A' for Active; 'I' for Inactive)
    1  A    between atoms: C_1  and  C_24
    2  A    between atoms: C_9  and  C_22
    3  A    between atoms: C_19  and  C_22
    4  A    between atoms: C_19  and  C_24
                            x       y       z     vdW  Elec       q    Type
                         _______ _______ _______ _____ _____    ______ ____

>  <TORSDO>
F 4

$$$$
=
 OpenBabel10272400353D

 31 34  0  0  1  0  0  0  0  0999 V2000
  190.6140  176.8700  146.6080 C   0  0  0  0  0  0  0  0  0  0  0  0
  187.8820  177.6380  144.1270 C   0  0  0  0  0  0  0  0  0  0  0  0
  186.7170  177.9920  144.8870 C   0  0  0  0  0  0  0  0  0  0  0  0
  190.8350  176.3250  139.9620 O   0  0  0  0  0  0  0  0  0  0  0  0
  189.7770  176.8740  139.5550 C   0  0  0  0  0  0  0  0  0  0  0  0
  185.5660  178.3600  147.0130 C   0  0  0  0  0  3  0  0  0  0  0  0
  189.1410  177.2760  144.7000 C   0  0  0  0  0  0  0  0  0  0  0  0
  191.6640  176.5520  145.7480 C   0  0  0  0  0  3  0  0  0  0  0  0
  186.7090  178.0120  146.2940 C   0  0  0  0  0  3  0  0  0  0  0  0
  188.8870  177.3030  141.9100 C   0  0  0  0  0  0  0  0  0  0  0  0
  190.8020  176.8340  147.9490 F   0  0  0  0  0  0  0  0  0  0  0  0
  185.4600  178.3380  142.8250 C   0  0  0  0  0  3  0  0  0  0  0  0
  184.3950  178.6980  146.3390 C   0  0  0  0  0  3  0  0  0  0  0  0
  190.0620  176.9700  142.4990 N   0  0  0  0  0  0  0  0  0  0  0  0
  187.7810  177.6480  142.7050 C   0  0  0  0  0  0  0  0  0  0  0  0
  188.7760  177.3200  140.4780 N   0  0  0  0  0  2  0  0  0  0  0  0
  189.3690  177.2270  146.0870 C   0  0  0  0  0  3  0  0  0  0  0  0
  183.2110  179.0230  144.3110 F   0  0  0  0  0  0  0  0  0  0  0  0
  190.2210  176.9460  143.8420 C   0  0  0  0  0  0  0  0  0  0  0  0
  191.4670  176.5910  144.3680 C   0  0  0  0  0  3  0  0  0  0  0  0
  186.5780  177.9960  142.0810 C   0  0  0  0  0  3  0  0  0  0  0  0
  185.5110  178.3410  144.2160 C   0  0  0  0  0  0  0  0  0  0  0  0
  184.3630  178.6900  144.9460 C   0  0  0  0  0  0  0  0  0  0  0  0
  190.7220  176.5620  137.2690 C   0  0  0  0  0  1  0  0  0  0  0  0
  189.5190  177.0140  138.0900 C   0  0  1  0  0  3  0  0  0  0  0  0
  188.5040  175.0440  137.1350 O   0  0  0  0  0  1  0  0  0  0  0  0
  188.2270  176.2980  137.6850 C   0  0  2  0  0  3  0  0  0  0  0  0
  187.4130  177.1210  136.6960 C   0  0  0  0  0  2  0  0  0  0  0  0
  187.0250  178.4320  137.2870 C   0  0  0  0  0  0  0  0  0  0  0  0
  186.1100  178.4820  138.3750 N   0  0  0  0  0  1  0  0  0  0  0  0
  187.5160  179.4970  136.8310 O   0  0  0  0  0  0  0  0  0  0  0  0
  1 11  1  0  0  0  0
  2  7  1  0  0  0  0
  2  3  1  0  0  0  0
  3  9  1  0  0  0  0
  5  4  2  0  0  0  0
  5 16  1  0  0  0  0
  7 17  2  0  0  0  0
  8  1  2  0  0  0  0
  9  6  2  0  0  0  0
 10 14  2  0  0  0  0
 10 15  1  0  0  0  0
 12 22  1  0  0  0  0
 13  6  1  0  0  0  0
 14 19  1  0  0  0  0
 15  2  2  0  0  0  0
 16 10  1  0  0  0  0
 17  1  1  0  0  0  0
 18 23  1  0  0  0  0
 19 20  2  0  0  0  0
 19  7  1  0  0  0  0
 20  8  1  0  0  0  0
 21 15  1  0  0  0  0
 21 12  2  0  0  0  0
 22  3  2  0  0  0  0
 22 23  1  0  0  0  0
 23 13  2  0  0  0  0
 25 24  1  6  0  0  0
 25  5  1  0  0  0  0
 27 26  1  6  0  0  0
 27 25  1  0  0  0  0
 28 29  1  0  0  0  0
 28 27  1  0  0  0  0
 29 30  1  0  0  0  0
 31 29  2  0  0  0  0
M  END
>  <MODEL>
2

>  <REMARK>
 VINA RESULT:     -11.2      1.647      2.150
  Name = 
  4 active torsions:
  status: ('A' for Active; 'I' for Inactive)
    1  A    between atoms: C_1  and  C_24
    2  A    between atoms: C_9  and  C_22
    3  A    between atoms: C_19  and  C_22
    4  A    between atoms: C_19  and  C_24
                            x       y       z     vdW  Elec       q    Type
                         _______ _______ _______ _____ _____    ______ ____

>  <TORSDO>
F 4

$$$$
=
 OpenBabel10272400353D

 31 34  0  0  1  0  0  0  0  0999 V2000
  183.8920  178.7860  144.4710 C   0  0  0  0  0  0  0  0  0  0  0  0
  187.5580  177.9080  144.4850 C   0  0  0  0  0  0  0  0  0  0  0  0
  187.9600  177.8230  145.8600 C   0  0  0  0  0  0  0  0  0  0  0  0
  187.9760  178.1380  139.2350 O   0  0  0  0  0  0  0  0  0  0  0  0
  189.0370  177.6480  139.7080 C   0  0  0  0  0  0  0  0  0  0  0  0
  187.4810  177.9620  148.2540 C   0  0  0  0  0  3  0  0  0  0  0  0
  186.2330  178.2210  144.0490 C   0  0  0  0  0  0  0  0  0  0  0  0
  183.6410  178.8290  143.1000 C   0  0  0  0  0  3  0  0  0  0  0  0
  187.0690  178.0490  146.9250 C   0  0  0  0  0  3  0  0  0  0  0  0
  188.2080  177.7370  142.1210 C   0  0  0  0  0  0  0  0  0  0  0  0
  182.8930  179.0330  145.3510 F   0  0  0  0  0  0  0  0  0  0  0  0
  190.2350  177.2670  145.1750 C   0  0  0  0  0  3  0  0  0  0  0  0
  188.8030  177.6450  148.5550 C   0  0  0  0  0  3  0  0  0  0  0  0
  186.9370  178.0340  141.7560 N   0  0  0  0  0  0  0  0  0  0  0  0
  188.5430  177.6620  143.4840 C   0  0  0  0  0  0  0  0  0  0  0  0
  189.2070  177.4850  141.1210 N   0  0  0  0  0  2  0  0  0  0  0  0
  185.1740  178.4850  144.9360 C   0  0  0  0  0  3  0  0  0  0  0  0
  191.0000  177.1060  147.8440 F   0  0  0  0  0  0  0  0  0  0  0  0
  185.9580  178.2740  142.6590 C   0  0  0  0  0  0  0  0  0  0  0  0
  184.6720  178.5740  142.1970 C   0  0  0  0  0  3  0  0  0  0  0  0
  189.8580  177.3470  143.8440 C   0  0  0  0  0  3  0  0  0  0  0  0
  189.3080  177.5000  146.1860 C   0  0  0  0  0  0  0  0  0  0  0  0
  189.7170  177.4140  147.5280 C   0  0  0  0  0  0  0  0  0  0  0  0
  191.4320  176.9670  139.5870 C   0  0  0  0  0  1  0  0  0  0  0  0
  190.1670  177.2860  138.7990 C   0  0  1  0  0  3  0  0  0  0  0  0
  190.5030  174.9990  138.1060 O   0  0  0  0  0  1  0  0  0  0  0  0
  189.7670  176.1570  137.8440 C   0  0  2  0  0  3  0  0  0  0  0  0
  189.9510  176.5610  136.3880 C   0  0  0  0  0  2  0  0  0  0  0  0
  188.6470  176.9260  135.7670 C   0  0  0  0  0  0  0  0  0  0  0  0
  187.4300  176.4690  136.3430 N   0  0  0  0  0  1  0  0  0  0  0  0
  188.6210  177.6510  134.7390 O   0  0  0  0  0  0  0  0  0  0  0  0
  1 17  1  0  0  0  0
  1 11  1  0  0  0  0
  2  3  1  0  0  0  0
  3 22  2  0  0  0  0
  3  9  1  0  0  0  0
  4  5  2  0  0  0  0
  5 16  1  0  0  0  0
  6 13  1  0  0  0  0
  7  2  1  0  0  0  0
  7 17  2  0  0  0  0
  8  1  2  0  0  0  0
  9  6  2  0  0  0  0
 10 15  1  0  0  0  0
 12 22  1  0  0  0  0
 14 10  2  0  0  0  0
 14 19  1  0  0  0  0
 15 21  1  0  0  0  0
 15  2  2  0  0  0  0
 16 10  1  0  0  0  0
 19  7  1  0  0  0  0
 20 19  2  0  0  0  0
 20  8  1  0  0  0  0
 21 12  2  0  0  0  0
 22 23  1  0  0  0  0
 23 18  1  0  0  0  0
 23 13  2  0  0  0  0
 25 24  1  1  0  0  0
 25  5  1  0  0  0  0
 27 26  1  1  0  0  0
 27 25  1  0  0  0  0
 28 27  1  0  0  0  0
 29 30  1  0  0  0  0
 29 28  1  0  0  0  0
 31 29  2  0  0  0  0
M  END
>  <MODEL>
3

>  <REMARK>
 VINA RESULT:     -11.0      1.670      4.494
  Name = 
  4 active torsions:
  status: ('A' for Active; 'I' for Inactive)
    1  A    between atoms: C_1  and  C_24
    2  A    between atoms: C_9  and  C_22
    3  A    between atoms: C_19  and  C_22
    4  A    between atoms: C_19  and  C_24
                            x       y       z     vdW  Elec       q    Type
                         _______ _______ _______ _____ _____    ______ ____

>  <TORSDO>
F 4

$$$$
=
 OpenBabel10272400353D

 31 34  0  0  1  0  0  0  0  0999 V2000
  184.6210  178.5920  145.4960 C   0  0  0  0  0  0  0  0  0  0  0  0
  188.0350  177.6870  144.1780 C   0  0  0  0  0  0  0  0  0  0  0  0
  188.8620  177.4120  145.3180 C   0  0  0  0  0  0  0  0  0  0  0  0
  186.7150  178.6260  139.1610 O   0  0  0  0  0  0  0  0  0  0  0  0
  187.8440  178.0670  139.1880 C   0  0  0  0  0  0  0  0  0  0  0  0
  189.2050  177.2280  147.7320 C   0  0  0  0  0  3  0  0  0  0  0  0
  186.6590  178.0690  144.2510 C   0  0  0  0  0  0  0  0  0  0  0  0
  183.9360  178.8250  144.3040 C   0  0  0  0  0  3  0  0  0  0  0  0
  188.3840  177.4990  146.6380 C   0  0  0  0  0  3  0  0  0  0  0  0
  187.8610  177.8340  141.7310 C   0  0  0  0  0  0  0  0  0  0  0  0
  183.9820  178.7270  146.6820 F   0  0  0  0  0  0  0  0  0  0  0  0
  190.7510  176.9330  143.8500 C   0  0  0  0  0  3  0  0  0  0  0  0
  190.5330  176.8610  147.5320 C   0  0  0  0  0  3  0  0  0  0  0  0
  186.5580  178.1900  141.8500 N   0  0  0  0  0  0  0  0  0  0  0  0
  188.6210  177.5710  142.8830 C   0  0  0  0  0  0  0  0  0  0  0  0
  188.4600  177.7110  140.4310 N   0  0  0  0  0  2  0  0  0  0  0  0
  185.9660  178.2190  145.4650 C   0  0  0  0  0  3  0  0  0  0  0  0
  192.3410  176.4030  146.0680 F   0  0  0  0  0  0  0  0  0  0  0  0
  185.9460  178.3140  143.0500 C   0  0  0  0  0  0  0  0  0  0  0  0
  184.5980  178.6850  143.0850 C   0  0  0  0  0  3  0  0  0  0  0  0
  189.9620  177.1980  142.7420 C   0  0  0  0  0  3  0  0  0  0  0  0
  190.2220  177.0350  145.1330 C   0  0  0  0  0  0  0  0  0  0  0  0
  191.0450  176.7630  146.2390 C   0  0  0  0  0  0  0  0  0  0  0  0
  189.0780  179.1260  137.2990 C   0  0  0  0  0  1  0  0  0  0  0  0
  188.5900  177.8210  137.9170 C   0  0  1  0  0  3  0  0  0  0  0  0
  190.9390  177.4590  138.3340 O   0  0  0  0  0  1  0  0  0  0  0  0
  189.7200  176.8090  138.1270 C   0  0  2  0  0  3  0  0  0  0  0  0
  189.8450  175.8530  136.9490 C   0  0  0  0  0  2  0  0  0  0  0  0
  190.3030  174.5080  137.3990 C   0  0  0  0  0  0  0  0  0  0  0  0
  189.4720  173.3700  137.2040 N   0  0  0  0  0  1  0  0  0  0  0  0
  191.4300  174.3760  137.9400 O   0  0  0  0  0  0  0  0  0  0  0  0
  1 11  1  0  0  0  0
  2  7  1  0  0  0  0
  2  3  1  0  0  0  0
  3  9  1  0  0  0  0
  4  5  2  0  0  0  0
  5 16  1  0  0  0  0
  7 17  2  0  0  0  0
  8  1  2  0  0  0  0
  9  6  2  0  0  0  0
 10 14  2  0  0  0  0
 10 15  1  0  0  0  0
 12 22  1  0  0  0  0
 13  6  1  0  0  0  0
 14 19  1  0  0  0  0
 15  2  2  0  0  0  0
 16 10  1  0  0  0  0
 17  1  1  0  0  0  0
 18 23  1  0  0  0  0
 19 20  2  0  0  0  0
 19  7  1  0  0  0  0
 20  8  1  0  0  0  0
 21 15  1  0  0  0  0
 21 12  2  0  0  0  0
 22  3  2  0  0  0  0
 22 23  1  0  0  0  0
 23 13  2  0  0  0  0
 25 24  1  1  0  0  0
 25 27  1  0  0  0  0
 25  5  1  0  0  0  0
 27 26  1  6  0  0  0
 28 29  1  0  0  0  0
 28 27  1  0  0  0  0
 29 31  2  0  0  0  0
 30 29  1  0  0  0  0
M  END
>  <MODEL>
4

>  <REMARK>
 VINA RESULT:     -10.9      2.112      4.891
  Name = 
  4 active torsions:
  status: ('A' for Active; 'I' for Inactive)
    1  A    between atoms: C_1  and  C_24
    2  A    between atoms: C_9  and  C_22
    3  A    between atoms: C_19  and  C_22
    4  A    between atoms: C_19  and  C_24
                            x       y       z     vdW  Elec       q    Type
                         _______ _______ _______ _____ _____    ______ ____

>  <TORSDO>
F 4

$$$$
=
 OpenBabel10272400353D

 31 34  0  0  1  0  0  0  0  0999 V2000
  190.6780  176.8860  146.1750 C   0  0  0  0  0  0  0  0  0  0  0  0
  187.7490  177.7520  143.9650 C   0  0  0  0  0  0  0  0  0  0  0  0
  186.6480  178.0560  144.8340 C   0  0  0  0  0  0  0  0  0  0  0  0
  190.3620  176.6810  139.5140 O   0  0  0  0  0  0  0  0  0  0  0  0
  189.2700  177.2400  139.2220 C   0  0  0  0  0  0  0  0  0  0  0  0
  185.6710  178.3040  147.0620 C   0  0  0  0  0  3  0  0  0  0  0  0
  189.0520  177.3740  144.4150 C   0  0  0  0  0  0  0  0  0  0  0  0
  191.6570  176.6240  145.2170 C   0  0  0  0  0  3  0  0  0  0  0  0
  186.7540  178.0040  146.2360 C   0  0  0  0  0  3  0  0  0  0  0  0
  188.5730  177.5400  141.6600 C   0  0  0  0  0  0  0  0  0  0  0  0
  190.9750  176.7850  147.4920 F   0  0  0  0  0  0  0  0  0  0  0  0
  185.2250  178.4930  142.9010 C   0  0  0  0  0  3  0  0  0  0  0  0
  184.4470  178.6630  146.5040 C   0  0  0  0  0  3  0  0  0  0  0  0
  189.7930  177.1890  142.1340 N   0  0  0  0  0  0  0  0  0  0  0  0
  187.5320  177.8330  142.5580 C   0  0  0  0  0  0  0  0  0  0  0  0
  188.3450  177.6280  140.2440 N   0  0  0  0  0  2  0  0  0  0  0  0
  189.3930  177.2570  145.7750 C   0  0  0  0  0  3  0  0  0  0  0  0
  183.1010  179.0800  144.5970 F   0  0  0  0  0  0  0  0  0  0  0  0
  190.0610  177.0980  143.4570 C   0  0  0  0  0  0  0  0  0  0  0  0
  191.3480  176.7300  143.8620 C   0  0  0  0  0  3  0  0  0  0  0  0
  186.2810  178.2000  142.0530 C   0  0  0  0  0  3  0  0  0  0  0  0
  185.3900  178.4260  144.2810 C   0  0  0  0  0  0  0  0  0  0  0  0
  184.3020  178.7260  145.1190 C   0  0  0  0  0  0  0  0  0  0  0  0
  189.1520  178.8890  137.3560 C   0  0  0  0  0  1  0  0  0  0  0  0
  188.8940  177.4510  137.7910 C   0  0  1  0  0  3  0  0  0  0  0  0
  189.8180  176.9650  135.6150 O   0  0  0  0  0  1  0  0  0  0  0  0
  189.5810  176.4260  136.8830 C   0  0  2  0  0  3  0  0  0  0  0  0
  188.7590  175.1520  136.7500 C   0  0  0  0  0  2  0  0  0  0  0  0
  189.6340  173.9470  136.7880 C   0  0  0  0  0  0  0  0  0  0  0  0
  189.3790  172.8530  135.9150 N   0  0  0  0  0  1  0  0  0  0  0  0
  190.6070  173.9000  137.5830 O   0  0  0  0  0  0  0  0  0  0  0  0
  1 11  1  0  0  0  0
  2  7  1  0  0  0  0
  2  3  1  0  0  0  0
  3  9  1  0  0  0  0
  5  4  2  0  0  0  0
  5 16  1  0  0  0  0
  7 17  2  0  0  0  0
  8  1  2  0  0  0  0
  9  6  2  0  0  0  0
 10 14  2  0  0  0  0
 10 15  1  0  0  0  0
 12 22  1  0  0  0  0
 13  6  1  0  0  0  0
 14 19  1  0  0  0  0
 15  2  2  0  0  0  0
 16 10  1  0  0  0  0
 17  1  1  0  0  0  0
 18 23  1  0  0  0  0
 19 20  2  0  0  0  0
 19  7  1  0  0  0  0
 20  8  1  0  0  0  0
 21 15  1  0  0  0  0
 21 12  2  0  0  0  0
 22  3  2  0  0  0  0
 22 23  1  0  0  0  0
 23 13  2  0  0  0  0
 25 24  1  6  0  0  0
 25  5  1  0  0  0  0
 27 26  1  6  0  0  0
 27 25  1  0  0  0  0
 28 29  1  0  0  0  0
 28 27  1  0  0  0  0
 29 31  2  0  0  0  0
 30 29  1  0  0  0  0
M  END
>  <MODEL>
5

>  <REMARK>
 VINA RESULT:     -10.6      2.064      2.809
  Name = 
  4 active torsions:
  status: ('A' for Active; 'I' for Inactive)
    1  A    between atoms: C_1  and  C_24
    2  A    between atoms: C_9  and  C_22
    3  A    between atoms: C_19  and  C_22
    4  A    between atoms: C_19  and  C_24
                            x       y       z     vdW  Elec       q    Type
                         _______ _______ _______ _____ _____    ______ ____

>  <TORSDO>
F 4

$$$$
=
 OpenBabel10272400353D

 31 34  0  0  1  0  0  0  0  0999 V2000
  191.3780  177.3070  141.4040 C   0  0  0  0  0  0  0  0  0  0  0  0
  188.2550  177.8030  143.4560 C   0  0  0  0  0  0  0  0  0  0  0  0
  188.6230  177.6040  144.8290 C   0  0  0  0  0  0  0  0  0  0  0  0
  185.1780  178.4620  139.2260 O   0  0  0  0  0  0  0  0  0  0  0  0
  184.5190  178.7540  140.2600 C   0  0  0  0  0  0  0  0  0  0  0  0
  190.2710  177.0940  146.5620 C   0  0  0  0  0  3  0  0  0  0  0  0
  189.1610  177.7040  142.3540 C   0  0  0  0  0  0  0  0  0  0  0  0
  190.8830  177.5300  140.1200 C   0  0  0  0  0  3  0  0  0  0  0  0
  189.9350  177.2830  145.2220 C   0  0  0  0  0  3  0  0  0  0  0  0
  186.4770  178.3230  141.8410 C   0  0  0  0  0  0  0  0  0  0  0  0
  192.6870  177.0080  141.5830 F   0  0  0  0  0  0  0  0  0  0  0  0
  186.3260  178.0460  145.5230 C   0  0  0  0  0  3  0  0  0  0  0  0
  189.2980  177.2210  147.5490 C   0  0  0  0  0  3  0  0  0  0  0  0
  187.3730  178.2210  140.8300 N   0  0  0  0  0  0  0  0  0  0  0  0
  186.8960  178.1230  143.1680 C   0  0  0  0  0  0  0  0  0  0  0  0
  185.1060  178.6480  141.5620 N   0  0  0  0  0  2  0  0  0  0  0  0
  190.5240  177.3930  142.5050 C   0  0  0  0  0  3  0  0  0  0  0  0
  187.0540  177.6580  148.1790 F   0  0  0  0  0  0  0  0  0  0  0  0
  188.6760  177.9240  141.0400 C   0  0  0  0  0  0  0  0  0  0  0  0
  189.5350  177.8380  139.9390 C   0  0  0  0  0  3  0  0  0  0  0  0
  185.9600  178.2390  144.2010 C   0  0  0  0  0  3  0  0  0  0  0  0
  187.6410  177.7300  145.8520 C   0  0  0  0  0  0  0  0  0  0  0  0
  187.9860  177.5380  147.2000 C   0  0  0  0  0  0  0  0  0  0  0  0
  182.6150  179.1320  138.6960 C   0  0  0  0  0  1  0  0  0  0  0  0
  183.0850  179.1580  140.1460 C   0  0  1  0  0  3  0  0  0  0  0  0
  181.4650  177.3790  140.3370 O   0  0  0  0  0  1  0  0  0  0  0  0
  182.1990  178.3160  141.0690 C   0  0  2  0  0  3  0  0  0  0  0  0
  181.2500  179.1840  141.8840 C   0  0  0  0  0  2  0  0  0  0  0  0
  181.3230  178.8410  143.3310 C   0  0  0  0  0  0  0  0  0  0  0  0
  180.1510  178.4400  144.0300 N   0  0  0  0  0  1  0  0  0  0  0  0
  182.4260  178.8920  143.9350 O   0  0  0  0  0  0  0  0  0  0  0  0
  1 11  1  0  0  0  0
  1 17  1  0  0  0  0
  2  3  1  0  0  0  0
  3  9  2  0  0  0  0
  3 22  1  0  0  0  0
  4  5  2  0  0  0  0
  5 16  1  0  0  0  0
  6 13  2  0  0  0  0
  7 17  2  0  0  0  0
  7  2  1  0  0  0  0
  8  1  2  0  0  0  0
  9  6  1  0  0  0  0
 10 15  1  0  0  0  0
 12 22  1  0  0  0  0
 14 19  1  0  0  0  0
 14 10  2  0  0  0  0
 15  2  2  0  0  0  0
 15 21  1  0  0  0  0
 16 10  1  0  0  0  0
 19  7  1  0  0  0  0
 20  8  1  0  0  0  0
 20 19  2  0  0  0  0
 21 12  2  0  0  0  0
 22 23  2  0  0  0  0
 23 13  1  0  0  0  0
 23 18  1  0  0  0  0
 25 24  1  6  0  0  0
 25  5  1  0  0  0  0
 25 27  1  0  0  0  0
 27 26  1  6  0  0  0
 27 28  1  0  0  0  0
 28 29  1  0  0  0  0
 29 31  2  0  0  0  0
 29 30  1  0  0  0  0
M  END
>  <MODEL>
6

>  <REMARK>
 VINA RESULT:     -10.0      3.514      6.783
  Name = 
  4 active torsions:
  status: ('A' for Active; 'I' for Inactive)
    1  A    between atoms: C_1  and  C_24
    2  A    between atoms: C_9  and  C_22
    3  A    between atoms: C_19  and  C_22
    4  A    between atoms: C_19  and  C_24
                            x       y       z     vdW  Elec       q    Type
                         _______ _______ _______ _____ _____    ______ ____

>  <TORSDO>
F 4

$$$$
=
 OpenBabel10272400353D

 31 34  0  0  1  0  0  0  0  0999 V2000
  188.8360  178.0270  147.7580 C   0  0  0  0  0  0  0  0  0  0  0  0
  188.1030  177.9050  144.0620 C   0  0  0  0  0  0  0  0  0  0  0  0
  189.3570  177.6980  143.3970 C   0  0  0  0  0  0  0  0  0  0  0  0
  182.9850  178.9980  144.7020 O   0  0  0  0  0  0  0  0  0  0  0  0
  183.1850  178.6640  143.5030 C   0  0  0  0  0  0  0  0  0  0  0  0
  191.7810  177.3780  143.4250 C   0  0  0  0  0  3  0  0  0  0  0  0
  187.9490  178.0100  145.4800 C   0  0  0  0  0  0  0  0  0  0  0  0
  187.5540  178.2240  148.2710 C   0  0  0  0  0  3  0  0  0  0  0  0
  190.5730  177.5790  144.0930 C   0  0  0  0  0  3  0  0  0  0  0  0
  185.6750  178.2240  143.8580 C   0  0  0  0  0  0  0  0  0  0  0  0
  189.8940  177.9350  148.5980 F   0  0  0  0  0  0  0  0  0  0  0  0
  188.2270  177.7150  141.2340 C   0  0  0  0  0  3  0  0  0  0  0  0
  191.8030  177.2890  142.0360 C   0  0  0  0  0  3  0  0  0  0  0  0
  185.5780  178.3130  145.2070 N   0  0  0  0  0  0  0  0  0  0  0  0
  186.9290  178.0140  143.2600 C   0  0  0  0  0  0  0  0  0  0  0  0
  184.4980  178.3280  143.0400 N   0  0  0  0  0  2  0  0  0  0  0  0
  189.0270  177.9210  146.3790 C   0  0  0  0  0  3  0  0  0  0  0  0
  190.6640  177.3110  139.9570 F   0  0  0  0  0  0  0  0  0  0  0  0
  186.6540  178.2150  146.0210 C   0  0  0  0  0  0  0  0  0  0  0  0
  186.4670  178.3180  147.4030 C   0  0  0  0  0  3  0  0  0  0  0  0
  187.0110  177.9170  141.8670 C   0  0  0  0  0  3  0  0  0  0  0  0
  189.3990  177.6040  141.9770 C   0  0  0  0  0  0  0  0  0  0  0  0
  190.6190  177.4010  141.3100 C   0  0  0  0  0  0  0  0  0  0  0  0
  180.9010  179.5380  143.0160 C   0  0  0  0  0  1  0  0  0  0  0  0
  182.0570  178.6750  142.5230 C   0  0  1  0  0  3  0  0  0  0  0  0
  181.5070  179.6620  140.3910 O   0  0  0  0  0  1  0  0  0  0  0  0
  182.5410  179.0780  141.1270 C   0  0  2  0  0  3  0  0  0  0  0  0
  183.1040  177.8890  140.3610 C   0  0  0  0  0  2  0  0  0  0  0  0
  184.1440  178.3250  139.3890 C   0  0  0  0  0  0  0  0  0  0  0  0
  184.8570  179.5380  139.6020 N   0  0  0  0  0  1  0  0  0  0  0  0
  184.4030  177.6140  138.3830 O   0  0  0  0  0  0  0  0  0  0  0  0
  1  8  1  0  0  0  0
  1 11  1  0  0  0  0
  2  7  1  0  0  0  0
  3  2  1  0  0  0  0
  3  9  1  0  0  0  0
  5  4  2  0  0  0  0
  6  9  2  0  0  0  0
  7 19  2  0  0  0  0
  7 17  1  0  0  0  0
 10 14  2  0  0  0  0
 12 21  2  0  0  0  0
 12 22  1  0  0  0  0
 13  6  1  0  0  0  0
 14 19  1  0  0  0  0
 15 10  1  0  0  0  0
 15  2  2  0  0  0  0
 16  5  1  0  0  0  0
 16 10  1  0  0  0  0
 17  1  2  0  0  0  0
 18 23  1  0  0  0  0
 19 20  1  0  0  0  0
 20  8  2  0  0  0  0
 21 15  1  0  0  0  0
 22  3  2  0  0  0  0
 23 22  1  0  0  0  0
 23 13  2  0  0  0  0
 25 24  1  1  0  0  0
 25  5  1  0  0  0  0
 27 26  1  6  0  0  0
 27 25  1  0  0  0  0
 28 27  1  0  0  0  0
 29 30  1  0  0  0  0
 29 28  1  0  0  0  0
 31 29  2  0  0  0  0
M  END
>  <MODEL>
7

>  <REMARK>
 VINA RESULT:      -9.7      3.321      6.200
  Name = 
  4 active torsions:
  status: ('A' for Active; 'I' for Inactive)
    1  A    between atoms: C_1  and  C_24
    2  A    between atoms: C_9  and  C_22
    3  A    between atoms: C_19  and  C_22
    4  A    between atoms: C_19  and  C_24
                            x       y       z     vdW  Elec       q    Type
                         _______ _______ _______ _____ _____    ______ ____

>  <TORSDO>
F 4

$$$$
=
 OpenBabel10272400353D

 31 34  0  0  1  0  0  0  0  0999 V2000
  190.5930  177.6630  140.8030 C   0  0  0  0  0  0  0  0  0  0  0  0
  188.2420  177.6380  143.7500 C   0  0  0  0  0  0  0  0  0  0  0  0
  189.0400  177.3930  144.9170 C   0  0  0  0  0  0  0  0  0  0  0  0
  183.9430  178.2010  140.7490 O   0  0  0  0  0  0  0  0  0  0  0  0
  183.6180  178.3410  141.9590 C   0  0  0  0  0  0  0  0  0  0  0  0
  191.1900  176.9720  146.0030 C   0  0  0  0  0  3  0  0  0  0  0  0
  188.7600  177.7240  142.4200 C   0  0  0  0  0  0  0  0  0  0  0  0
  189.7010  177.9100  139.7610 C   0  0  0  0  0  3  0  0  0  0  0  0
  190.4330  177.2080  144.8560 C   0  0  0  0  0  3  0  0  0  0  0  0
  186.0050  178.0460  142.8160 C   0  0  0  0  0  0  0  0  0  0  0  0
  191.9140  177.5140  140.5430 F   0  0  0  0  0  0  0  0  0  0  0  0
  187.0470  177.5060  146.3200 C   0  0  0  0  0  3  0  0  0  0  0  0
  190.5690  176.9140  147.2480 C   0  0  0  0  0  3  0  0  0  0  0  0
  186.5440  178.1210  141.5740 N   0  0  0  0  0  0  0  0  0  0  0  0
  186.8370  177.8100  143.9240 C   0  0  0  0  0  0  0  0  0  0  0  0
  184.5920  178.2200  143.0020 N   0  0  0  0  0  2  0  0  0  0  0  0
  190.1250  177.5710  142.1150 C   0  0  0  0  0  3  0  0  0  0  0  0
  188.6060  177.0320  148.5730 F   0  0  0  0  0  0  0  0  0  0  0  0
  187.8690  177.9700  141.3450 C   0  0  0  0  0  0  0  0  0  0  0  0
  188.3420  178.0640  140.0330 C   0  0  0  0  0  3  0  0  0  0  0  0
  186.2660  177.7410  145.1990 C   0  0  0  0  0  3  0  0  0  0  0  0
  188.4220  177.3310  146.1980 C   0  0  0  0  0  0  0  0  0  0  0  0
  189.1900  177.0920  147.3500 C   0  0  0  0  0  0  0  0  0  0  0  0
  182.0690  179.1630  143.7310 C   0  0  0  0  0  1  0  0  0  0  0  0
  182.1890  178.5740  142.3300 C   0  0  1  0  0  3  0  0  0  0  0  0
  180.5560  180.2890  141.8640 O   0  0  0  0  0  1  0  0  0  0  0  0
  181.4750  179.4200  141.2710 C   0  0  2  0  0  3  0  0  0  0  0  0
  180.7650  178.5500  140.2420 C   0  0  0  0  0  2  0  0  0  0  0  0
  181.1010  178.9820  138.8570 C   0  0  0  0  0  0  0  0  0  0  0  0
  181.8800  180.1520  138.6430 N   0  0  0  0  0  1  0  0  0  0  0  0
  180.7060  178.3030  137.8730 O   0  0  0  0  0  0  0  0  0  0  0  0
  1 17  1  0  0  0  0
  2 15  2  0  0  0  0
  2  3  1  0  0  0  0
  3 22  1  0  0  0  0
  4  5  2  0  0  0  0
  5 25  1  0  0  0  0
  5 16  1  0  0  0  0
  6 13  2  0  0  0  0
  7  2  1  0  0  0  0
  8 20  1  0  0  0  0
  8  1  2  0  0  0  0
  9  3  2  0  0  0  0
  9  6  1  0  0  0  0
 10 16  1  0  0  0  0
 10 15  1  0  0  0  0
 11  1  1  0  0  0  0
 13 23  1  0  0  0  0
 14 10  2  0  0  0  0
 15 21  1  0  0  0  0
 17  7  2  0  0  0  0
 19 14  1  0  0  0  0
 19  7  1  0  0  0  0
 20 19  2  0  0  0  0
 21 12  2  0  0  0  0
 22 12  1  0  0  0  0
 22 23  2  0  0  0  0
 23 18  1  0  0  0  0
 25 24  1  1  0  0  0
 27 26  1  1  0  0  0
 27 25  1  0  0  0  0
 28 27  1  0  0  0  0
 29 28  1  0  0  0  0
 30 29  1  0  0  0  0
 31 29  2  0  0  0  0
M  END
>  <MODEL>
8

>  <REMARK>
 VINA RESULT:      -9.6      3.604      7.142
  Name = 
  4 active torsions:
  status: ('A' for Active; 'I' for Inactive)
    1  A    between atoms: C_1  and  C_24
    2  A    between atoms: C_9  and  C_22
    3  A    between atoms: C_19  and  C_22
    4  A    between atoms: C_19  and  C_24
                            x       y       z     vdW  Elec       q    Type
                         _______ _______ _______ _____ _____    ______ ____

>  <TORSDO>
F 4

$$$$
=
 OpenBabel10272400353D

 31 34  0  0  1  0  0  0  0  0999 V2000
  185.3790  178.2680  146.6660 C   0  0  0  0  0  0  0  0  0  0  0  0
  185.0880  178.4690  142.9130 C   0  0  0  0  0  0  0  0  0  0  0  0
  183.7070  178.7210  142.6160 C   0  0  0  0  0  0  0  0  0  0  0  0
  190.1550  177.2510  142.1200 O   0  0  0  0  0  0  0  0  0  0  0  0
  189.6480  177.6200  141.0260 C   0  0  0  0  0  0  0  0  0  0  0  0
  181.3900  179.0910  143.3070 C   0  0  0  0  0  3  0  0  0  0  0  0
  185.6160  178.3250  144.2330 C   0  0  0  0  0  0  0  0  0  0  0  0
  186.7460  178.0300  146.8080 C   0  0  0  0  0  3  0  0  0  0  0  0
  182.7270  178.8470  143.6180 C   0  0  0  0  0  3  0  0  0  0  0  0
  187.3600  178.1050  142.0510 C   0  0  0  0  0  0  0  0  0  0  0  0
  184.5900  178.3610  147.7630 F   0  0  0  0  0  0  0  0  0  0  0  0
  184.2080  178.7350  140.2280 C   0  0  0  0  0  3  0  0  0  0  0  0
  180.9960  179.2160  141.9780 C   0  0  0  0  0  3  0  0  0  0  0  0
  187.8160  177.9790  143.3220 N   0  0  0  0  0  0  0  0  0  0  0  0
  185.9970  178.3560  141.8200 C   0  0  0  0  0  0  0  0  0  0  0  0
  188.2680  177.9960  140.9440 N   0  0  0  0  0  2  0  0  0  0  0  0
  184.8250  178.4140  145.3930 C   0  0  0  0  0  3  0  0  0  0  0  0
  181.5290  179.2230  139.6670 F   0  0  0  0  0  0  0  0  0  0  0  0
  187.0030  178.0780  144.3990 C   0  0  0  0  0  0  0  0  0  0  0  0
  187.5550  177.9360  145.6760 C   0  0  0  0  0  3  0  0  0  0  0  0
  185.5440  178.4910  140.5040 C   0  0  0  0  0  3  0  0  0  0  0  0
  183.2850  178.8510  141.2620 C   0  0  0  0  0  0  0  0  0  0  0  0
  181.9360  179.0970  140.9550 C   0  0  0  0  0  0  0  0  0  0  0  0
  191.9280  177.2850  140.0740 C   0  0  0  0  0  1  0  0  0  0  0  0
  190.4680  177.6110  139.7770 C   0  0  1  0  0  3  0  0  0  0  0  0
  190.6210  175.5180  138.5850 O   0  0  0  0  0  1  0  0  0  0  0  0
  189.8590  176.6810  138.7230 C   0  0  2  0  0  3  0  0  0  0  0  0
  189.7310  177.3710  137.3720 C   0  0  0  0  0  2  0  0  0  0  0  0
  188.5620  178.2940  137.3530 C   0  0  0  0  0  0  0  0  0  0  0  0
  187.2410  177.7710  137.2920 N   0  0  0  0  0  1  0  0  0  0  0  0
  188.7420  179.5380  137.4040 O   0  0  0  0  0  0  0  0  0  0  0  0
  1  8  1  0  0  0  0
  1 11  1  0  0  0  0
  2  7  1  0  0  0  0
  3  2  1  0  0  0  0
  3  9  1  0  0  0  0
  5  4  2  0  0  0  0
  6  9  2  0  0  0  0
  7 19  2  0  0  0  0
  7 17  1  0  0  0  0
 10 14  2  0  0  0  0
 12 21  2  0  0  0  0
 12 22  1  0  0  0  0
 13  6  1  0  0  0  0
 14 19  1  0  0  0  0
 15 10  1  0  0  0  0
 15  2  2  0  0  0  0
 16  5  1  0  0  0  0
 16 10  1  0  0  0  0
 17  1  2  0  0  0  0
 18 23  1  0  0  0  0
 19 20  1  0  0  0  0
 20  8  2  0  0  0  0
 21 15  1  0  0  0  0
 22  3  2  0  0  0  0
 23 22  1  0  0  0  0
 23 13  2  0  0  0  0
 25 24  1  1  0  0  0
 25  5  1  0  0  0  0
 27 26  1  6  0  0  0
 27 25  1  0  0  0  0
 28 27  1  0  0  0  0
 29 28  1  0  0  0  0
 29 31  2  0  0  0  0
 30 29  1  0  0  0  0
M  END
>  <MODEL>
9

>  <REMARK>
 VINA RESULT:      -9.6      1.620      2.346
  Name = 
  4 active torsions:
  status: ('A' for Active; 'I' for Inactive)
    1  A    between atoms: C_1  and  C_24
    2  A    between atoms: C_9  and  C_22
    3  A    between atoms: C_19  and  C_22
    4  A    between atoms: C_19  and  C_24
                            x       y       z     vdW  Elec       q    Type
                         _______ _______ _______ _____ _____    ______ ____

>  <TORSDO>
F 4

$$$$
