=
 OpenBabel10272413413D

 30 36  0  0  1  0  0  0  0  0999 V2000
  188.7320  177.7690  139.3080 C   0  0  0  0  0  0  0  0  0  0  0  0
  188.4250  178.8690  137.0400 C   0  0  0  0  0  0  0  0  0  0  0  0
  184.7990  177.5440  137.5710 N   0  0  0  0  0  0  0  0  0  0  0  0
  187.6900  178.1620  140.1650 C   0  0  0  0  0  0  0  0  0  0  0  0
  189.9770  177.4150  139.8380 C   0  0  0  0  0  3  0  0  0  0  0  0
  189.6240  177.7460  143.7900 S   0  0  0  0  0  0  0  0  0  0  0  0
  185.6550  179.4410  142.0760 C   0  0  1  0  0  3  0  0  0  0  0  0
  189.1320  177.7790  142.0690 C   0  0  0  0  0  0  0  0  0  0  0  0
  191.3810  177.1230  141.8500 N   0  0  0  0  0  2  0  0  0  0  0  0
  184.6970  178.9630  141.0670 N   0  0  2  0  0  0  0  0  0  0  0  0
  184.3260  177.8860  138.8850 C   0  0  0  0  0  0  0  0  0  0  0  0
  190.1610  177.4520  141.2180 C   0  0  0  0  0  0  0  0  0  0  0  0
  187.8630  178.1350  141.5670 C   0  0  0  0  0  0  0  0  0  0  0  0
  187.9030  178.8160  135.7160 N   0  0  0  0  0  0  0  0  0  0  0  0
  183.6980  178.3130  141.8820 C   0  0  0  0  0  2  0  0  0  0  0  0
  184.9270  179.8250  143.2180 O   0  0  0  0  0  0  0  0  0  0  0  0
  191.5740  175.8160  143.8850 C   0  0  0  0  0  1  0  0  0  0  0  0
  188.9190  179.9410  137.4790 O   0  0  0  0  0  0  0  0  0  0  0  0
  185.9640  177.0710  137.2450 C   0  0  0  0  0  0  0  0  0  0  0  0
  187.2500  177.7820  135.2820 C   0  0  0  0  0  3  0  0  0  0  0  0
  191.3100  177.1900  143.3040 C   0  0  2  0  0  3  0  0  0  0  0  0
  188.4950  177.5980  137.8340 C   0  0  2  0  0  3  0  0  0  0  0  0
  186.4820  178.5340  139.5930 O   0  0  0  0  0  0  0  0  0  0  0  0
  183.0890  178.0700  139.0400 O   0  0  0  0  0  0  0  0  0  0  0  0
  185.2500  178.0320  140.0700 C   0  0  1  0  0  3  0  0  0  0  0  0
  183.7370  179.0720  143.1860 C   0  0  0  0  0  2  0  0  0  0  0  0
  186.6200  177.8170  143.5620 O   0  0  0  0  0  0  0  0  0  0  0  0
  186.9140  176.5840  136.1440 C   0  0  1  0  0  3  0  0  0  0  0  0
  187.3970  176.5540  137.5060 C   0  0  2  0  0  3  0  0  0  0  0  0
  186.7250  178.4330  142.4670 C   0  0  0  0  0  0  0  0  0  0  0  0
  1  5  2  0  0  0  0
  1  4  1  0  0  0  0
  2 18  2  0  0  0  0
  3 11  1  0  0  0  0
  4 13  2  0  0  0  0
  5 12  1  0  0  0  0
  7 30  1  1  0  0  0
  7 16  1  0  0  0  0
  8  6  1  0  0  0  0
  9 21  1  0  0  0  0
 10 15  1  1  0  0  0
 10  7  1  0  0  0  0
 11 24  2  0  0  0  0
 12  9  1  0  0  0  0
 12  8  2  0  0  0  0
 13  8  1  0  0  0  0
 13 30  1  0  0  0  0
 14  2  1  0  0  0  0
 15 26  1  0  0  0  0
 19  3  2  0  0  0  0
 20 14  2  0  0  0  0
 21  6  1  0  0  0  0
 21 17  1  1  0  0  0
 22  2  1  1  0  0  0
 22  1  1  0  0  0  0
 23 25  1  0  0  0  0
 23  4  1  0  0  0  0
 25 11  1  6  0  0  0
 25 10  1  0  0  0  0
 26 16  1  0  0  0  0
 28 20  1  6  0  0  0
 28 19  1  0  0  0  0
 28 29  1  0  0  0  0
 29 19  1  1  0  0  0
 29 22  1  0  0  0  0
 30 27  2  0  0  0  0
M  END
>  <MODEL>
1

>  <REMARK>
 VINA RESULT:      -8.7      0.000      0.000
  Name = 
  0 active torsions:
  status: ('A' for Active; 'I' for Inactive)
                            x       y       z     vdW  Elec       q    Type
                         _______ _______ _______ _____ _____    ______ ____

>  <TORSDO>
F 0

$$$$
=
 OpenBabel10272413413D

 30 36  0  0  1  0  0  0  0  0999 V2000
  189.8190  177.2030  142.0640 C   0  0  0  0  0  0  0  0  0  0  0  0
  190.7820  175.5220  143.7060 C   0  0  0  0  0  0  0  0  0  0  0  0
  189.1150  177.9670  146.2420 N   0  0  0  0  0  0  0  0  0  0  0  0
  188.4790  177.4670  142.3930 C   0  0  0  0  0  0  0  0  0  0  0  0
  190.2520  177.3320  140.7400 C   0  0  0  0  0  3  0  0  0  0  0  0
  187.0780  178.5330  138.6570 S   0  0  0  0  0  0  0  0  0  0  0  0
  185.4560  177.6100  142.9100 C   0  0  1  0  0  3  0  0  0  0  0  0
  188.0410  178.0450  140.0860 C   0  0  0  0  0  0  0  0  0  0  0  0
  189.6750  177.8790  138.4000 N   0  0  0  0  0  2  0  0  0  0  0  0
  185.8990  177.9660  144.2670 N   0  0  2  0  0  0  0  0  0  0  0  0
  187.7670  178.2650  145.8410 C   0  0  0  0  0  0  0  0  0  0  0  0
  189.3400  177.7300  139.7650 C   0  0  0  0  0  0  0  0  0  0  0  0
  187.5750  177.9320  141.4120 C   0  0  0  0  0  0  0  0  0  0  0  0
  191.4830  175.2590  144.9170 N   0  0  0  0  0  0  0  0  0  0  0  0
  185.0910  179.1260  144.5550 C   0  0  0  0  0  2  0  0  0  0  0  0
  184.0780  177.8880  142.8170 O   0  0  0  0  0  0  0  0  0  0  0  0
  188.9160  179.6970  136.9830 C   0  0  0  0  0  1  0  0  0  0  0  0
  190.2310  174.5780  143.0800 O   0  0  0  0  0  0  0  0  0  0  0  0
  190.1750  177.9230  145.4930 C   0  0  0  0  0  0  0  0  0  0  0  0
  191.9300  176.2190  145.6670 C   0  0  0  0  0  3  0  0  0  0  0  0
  188.5640  178.3520  137.5860 C   0  0  2  0  0  3  0  0  0  0  0  0
  190.8320  176.9080  143.1340 C   0  0  2  0  0  3  0  0  0  0  0  0
  188.0880  177.2960  143.7130 O   0  0  0  0  0  0  0  0  0  0  0  0
  186.9260  178.5260  146.7420 O   0  0  0  0  0  0  0  0  0  0  0  0
  187.3320  178.2760  144.3950 C   0  0  1  0  0  3  0  0  0  0  0  0
  183.8260  178.9000  143.7640 C   0  0  0  0  0  2  0  0  0  0  0  0
  185.6400  179.2860  141.1960 O   0  0  0  0  0  0  0  0  0  0  0  0
  191.6860  177.6860  145.3800 C   0  0  1  0  0  3  0  0  0  0  0  0
  190.9740  178.0460  144.1760 C   0  0  2  0  0  3  0  0  0  0  0  0
  186.1970  178.3230  141.7890 C   0  0  0  0  0  0  0  0  0  0  0  0
  1  4  1  0  0  0  0
  2 14  1  0  0  0  0
  4 23  1  0  0  0  0
  5  1  2  0  0  0  0
  6  8  1  0  0  0  0
  7 30  1  6  0  0  0
  7 10  1  0  0  0  0
  8 13  1  0  0  0  0
  9 12  1  0  0  0  0
 10 25  1  0  0  0  0
 10 15  1  6  0  0  0
 11  3  1  0  0  0  0
 11 24  2  0  0  0  0
 12  8  2  0  0  0  0
 12  5  1  0  0  0  0
 13 30  1  0  0  0  0
 13  4  2  0  0  0  0
 14 20  2  0  0  0  0
 16  7  1  0  0  0  0
 16 26  1  0  0  0  0
 18  2  2  0  0  0  0
 19  3  2  0  0  0  0
 21 17  1  1  0  0  0
 21  9  1  0  0  0  0
 21  6  1  0  0  0  0
 22  1  1  1  0  0  0
 22  2  1  0  0  0  0
 22 29  1  0  0  0  0
 25 23  1  6  0  0  0
 25 11  1  0  0  0  0
 26 15  1  0  0  0  0
 27 30  2  0  0  0  0
 28 19  1  0  0  0  0
 28 20  1  6  0  0  0
 29 28  1  0  0  0  0
 29 19  1  1  0  0  0
M  END
>  <MODEL>
2

>  <REMARK>
 VINA RESULT:      -7.4      2.576      6.199
  Name = 
  0 active torsions:
  status: ('A' for Active; 'I' for Inactive)
                            x       y       z     vdW  Elec       q    Type
                         _______ _______ _______ _____ _____    ______ ____

>  <TORSDO>
F 0

$$$$
=
 OpenBabel10272413413D

 30 36  0  0  1  0  0  0  0  0999 V2000
  184.1250  179.0890  139.4720 C   0  0  0  0  0  0  0  0  0  0  0  0
  182.2190  180.6150  138.7740 C   0  0  0  0  0  0  0  0  0  0  0  0
  180.4680  178.7590  141.7200 N   0  0  0  0  0  0  0  0  0  0  0  0
  184.2880  179.1490  140.8660 C   0  0  0  0  0  0  0  0  0  0  0  0
  185.2180  178.7860  138.6530 C   0  0  0  0  0  3  0  0  0  0  0  0
  188.2980  178.1890  141.1050 S   0  0  0  0  0  0  0  0  0  0  0  0
  184.8580  179.7070  143.8310 C   0  0  1  0  0  3  0  0  0  0  0  0
  186.6140  178.5400  140.6060 C   0  0  0  0  0  0  0  0  0  0  0  0
  187.6230  178.2370  138.5010 N   0  0  0  0  0  2  0  0  0  0  0  0
  183.4380  179.3470  143.9730 N   0  0  2  0  0  0  0  0  0  0  0  0
  181.3190  178.7410  142.8790 C   0  0  0  0  0  0  0  0  0  0  0  0
  186.4570  178.5410  139.2400 C   0  0  0  0  0  0  0  0  0  0  0  0
  185.5310  178.8340  141.4600 C   0  0  0  0  0  0  0  0  0  0  0  0
  180.8340  180.7910  138.4900 N   0  0  0  0  0  0  0  0  0  0  0  0
  183.4720  178.4130  145.0730 C   0  0  0  0  0  2  0  0  0  0  0  0
  185.4300  179.7340  145.1180 O   0  0  0  0  0  0  0  0  0  0  0  0
  189.2500  176.5480  139.1210 C   0  0  0  0  0  1  0  0  0  0  0  0
  182.9790  181.6170  138.8460 O   0  0  0  0  0  0  0  0  0  0  0  0
  180.8010  178.5210  140.4870 C   0  0  0  0  0  0  0  0  0  0  0  0
  179.9940  179.8040  138.5590 C   0  0  0  0  0  3  0  0  0  0  0  0
  188.7820  177.9720  139.3430 C   0  0  2  0  0  3  0  0  0  0  0  0
  182.7640  179.2200  138.8480 C   0  0  2  0  0  3  0  0  0  0  0  0
  183.1830  179.4820  141.6360 O   0  0  0  0  0  0  0  0  0  0  0  0
  180.7720  178.7270  144.0140 O   0  0  0  0  0  0  0  0  0  0  0  0
  182.8250  178.7360  142.7820 C   0  0  1  0  0  3  0  0  0  0  0  0
  184.6490  178.8630  145.9030 C   0  0  0  0  0  2  0  0  0  0  0  0
  186.4320  177.9300  143.4580 O   0  0  0  0  0  0  0  0  0  0  0  0
  180.3760  178.4120  139.0170 C   0  0  1  0  0  3  0  0  0  0  0  0
  181.7600  178.1440  139.3350 C   0  0  2  0  0  3  0  0  0  0  0  0
  185.6640  178.7810  142.9340 C   0  0  0  0  0  0  0  0  0  0  0  0
  1  4  1  0  0  0  0
  2 18  2  0  0  0  0
  3 11  1  0  0  0  0
  4 13  2  0  0  0  0
  4 23  1  0  0  0  0
  5 12  1  0  0  0  0
  5  1  2  0  0  0  0
  7 30  1  6  0  0  0
  7 10  1  0  0  0  0
  7 16  1  0  0  0  0
  8  6  1  0  0  0  0
  8 13  1  0  0  0  0
  9 12  1  0  0  0  0
  9 21  1  0  0  0  0
 10 15  1  1  0  0  0
 11 24  2  0  0  0  0
 12  8  2  0  0  0  0
 13 30  1  0  0  0  0
 14 20  2  0  0  0  0
 14  2  1  0  0  0  0
 15 26  1  0  0  0  0
 16 26  1  0  0  0  0
 19  3  2  0  0  0  0
 21 17  1  1  0  0  0
 21  6  1  0  0  0  0
 22  2  1  1  0  0  0
 22 29  1  0  0  0  0
 22  1  1  0  0  0  0
 25 23  1  6  0  0  0
 25 11  1  0  0  0  0
 25 10  1  0  0  0  0
 28 20  1  6  0  0  0
 28 29  1  0  0  0  0
 28 19  1  0  0  0  0
 29 19  1  1  0  0  0
 30 27  2  0  0  0  0
M  END
>  <MODEL>
3

>  <REMARK>
 VINA RESULT:      -7.2      2.949      4.917
  Name = 
  0 active torsions:
  status: ('A' for Active; 'I' for Inactive)
                            x       y       z     vdW  Elec       q    Type
                         _______ _______ _______ _____ _____    ______ ____

>  <TORSDO>
F 0

$$$$
=
 OpenBabel10272413413D

 30 36  0  0  1  0  0  0  0  0999 V2000
  185.4870  178.3140  138.5170 C   0  0  0  0  0  0  0  0  0  0  0  0
  183.6160  179.9720  138.9620 C   0  0  0  0  0  0  0  0  0  0  0  0
  183.6380  178.1410  142.4020 N   0  0  0  0  0  0  0  0  0  0  0  0
  186.3870  178.3230  139.5960 C   0  0  0  0  0  0  0  0  0  0  0  0
  185.9320  177.9690  137.2370 C   0  0  0  0  0  3  0  0  0  0  0  0
  189.8030  177.1150  137.6120 S   0  0  0  0  0  0  0  0  0  0  0  0
  188.5190  178.7590  141.7620 C   0  0  1  0  0  3  0  0  0  0  0  0
  188.1480  177.5820  138.1110 C   0  0  0  0  0  0  0  0  0  0  0  0
  187.8210  177.2800  135.8000 N   0  0  0  0  0  2  0  0  0  0  0  0
  187.3880  178.4810  142.6600 N   0  0  2  0  0  0  0  0  0  0  0  0
  184.9790  178.0370  142.9070 C   0  0  0  0  0  0  0  0  0  0  0  0
  187.2710  177.6320  137.0540 C   0  0  0  0  0  0  0  0  0  0  0  0
  187.7290  177.9160  139.4160 C   0  0  0  0  0  0  0  0  0  0  0  0
  182.3160  180.2400  139.4790 N   0  0  0  0  0  0  0  0  0  0  0  0
  187.9530  177.5150  143.5700 C   0  0  0  0  0  2  0  0  0  0  0  0
  189.7010  178.7140  142.5260 O   0  0  0  0  0  0  0  0  0  0  0  0
  189.4060  175.4770  135.4450 C   0  0  0  0  0  1  0  0  0  0  0  0
  184.3560  180.9240  138.5980 O   0  0  0  0  0  0  0  0  0  0  0  0
  183.2260  177.9190  141.1890 C   0  0  0  0  0  0  0  0  0  0  0  0
  181.5860  179.3050  140.0050 C   0  0  0  0  0  3  0  0  0  0  0  0
  189.2310  176.9200  135.8730 C   0  0  2  0  0  3  0  0  0  0  0  0
  184.0180  178.5450  138.7380 C   0  0  2  0  0  3  0  0  0  0  0  0
  185.9080  178.7000  140.8410 O   0  0  0  0  0  0  0  0  0  0  0  0
  185.1420  178.0240  144.1570 O   0  0  0  0  0  0  0  0  0  0  0  0
  186.1850  177.9440  142.0030 C   0  0  1  0  0  3  0  0  0  0  0  0
  189.4200  177.8700  143.6180 C   0  0  0  0  0  2  0  0  0  0  0  0
  189.5120  176.9010  140.6040 O   0  0  0  0  0  0  0  0  0  0  0  0
  182.0620  177.8800  140.1920 C   0  0  1  0  0  3  0  0  0  0  0  0
  183.3740  177.5190  139.7040 C   0  0  2  0  0  3  0  0  0  0  0  0
  188.6410  177.8120  140.5780 C   0  0  0  0  0  0  0  0  0  0  0  0
  1  4  1  0  0  0  0
  2 14  1  0  0  0  0
  3 11  1  0  0  0  0
  4 23  1  0  0  0  0
  5  1  2  0  0  0  0
  6  8  1  0  0  0  0
  7 30  1  6  0  0  0
  7 16  1  0  0  0  0
  7 10  1  0  0  0  0
  8 13  1  0  0  0  0
  9 21  1  0  0  0  0
  9 12  1  0  0  0  0
 10 15  1  1  0  0  0
 11 24  2  0  0  0  0
 12  5  1  0  0  0  0
 12  8  2  0  0  0  0
 13  4  2  0  0  0  0
 13 30  1  0  0  0  0
 14 20  2  0  0  0  0
 15 26  1  0  0  0  0
 16 26  1  0  0  0  0
 18  2  2  0  0  0  0
 19  3  2  0  0  0  0
 21 17  1  1  0  0  0
 21  6  1  0  0  0  0
 22  1  1  1  0  0  0
 22  2  1  0  0  0  0
 22 29  1  0  0  0  0
 25 23  1  6  0  0  0
 25 10  1  0  0  0  0
 25 11  1  0  0  0  0
 28 20  1  6  0  0  0
 28 19  1  0  0  0  0
 29 28  1  0  0  0  0
 29 19  1  1  0  0  0
 30 27  2  0  0  0  0
M  END
>  <MODEL>
4

>  <REMARK>
 VINA RESULT:      -7.0      2.283      5.082
  Name = 
  0 active torsions:
  status: ('A' for Active; 'I' for Inactive)
                            x       y       z     vdW  Elec       q    Type
                         _______ _______ _______ _____ _____    ______ ____

>  <TORSDO>
F 0

$$$$
=
 OpenBabel10272413413D

 30 36  0  0  1  0  0  0  0  0999 V2000
  187.6460  177.9340  139.5440 C   0  0  0  0  0  0  0  0  0  0  0  0
  188.8940  178.6140  137.4390 C   0  0  0  0  0  0  0  0  0  0  0  0
  185.8770  176.7760  135.7930 N   0  0  0  0  0  0  0  0  0  0  0  0
  186.2870  178.2640  139.4110 C   0  0  0  0  0  0  0  0  0  0  0  0
  188.2330  177.8830  140.8130 C   0  0  0  0  0  3  0  0  0  0  0  0
  185.3290  178.7330  143.4010 S   0  0  0  0  0  0  0  0  0  0  0  0
  183.4590  179.4420  139.2100 C   0  0  1  0  0  3  0  0  0  0  0  0
  186.1070  178.4240  141.8180 C   0  0  0  0  0  0  0  0  0  0  0  0
  187.9490  178.1410  143.2540 N   0  0  0  0  0  2  0  0  0  0  0  0
  183.4310  178.6610  137.9630 N   0  0  2  0  0  0  0  0  0  0  0  0
  184.6400  177.2240  136.3720 C   0  0  0  0  0  0  0  0  0  0  0  0
  187.4500  178.1560  141.9320 C   0  0  0  0  0  0  0  0  0  0  0  0
  185.4830  178.4760  140.5540 C   0  0  0  0  0  0  0  0  0  0  0  0
  189.3880  178.2760  136.1470 N   0  0  0  0  0  0  0  0  0  0  0  0
  182.1640  177.9780  138.0630 C   0  0  0  0  0  2  0  0  0  0  0  0
  182.1440  179.8600  139.4900 O   0  0  0  0  0  0  0  0  0  0  0  0
  186.7790  177.2050  145.1620 C   0  0  0  0  0  1  0  0  0  0  0  0
  188.9380  179.8090  137.8360 O   0  0  0  0  0  0  0  0  0  0  0  0
  186.9780  176.4690  136.4120 C   0  0  0  0  0  0  0  0  0  0  0  0
  189.2220  177.0910  135.6430 C   0  0  0  0  0  3  0  0  0  0  0  0
  186.9270  178.4100  144.2560 C   0  0  2  0  0  3  0  0  0  0  0  0
  188.4560  177.5070  138.3520 C   0  0  2  0  0  3  0  0  0  0  0  0
  185.7560  178.3320  138.1320 O   0  0  0  0  0  0  0  0  0  0  0  0
  183.6090  177.2120  135.6480 O   0  0  0  0  0  0  0  0  0  0  0  0
  184.5350  177.7020  137.8010 C   0  0  1  0  0  3  0  0  0  0  0  0
  181.3010  178.9170  138.8700 C   0  0  0  0  0  2  0  0  0  0  0  0
  183.2390  178.2490  141.2850 O   0  0  0  0  0  0  0  0  0  0  0  0
  188.4330  175.9950  136.3280 C   0  0  1  0  0  3  0  0  0  0  0  0
  187.8880  176.2520  137.6410 C   0  0  2  0  0  3  0  0  0  0  0  0
  184.0270  178.7040  140.4120 C   0  0  0  0  0  0  0  0  0  0  0  0
  1  5  1  0  0  0  0
  2 18  2  0  0  0  0
  3 11  1  0  0  0  0
  3 19  2  0  0  0  0
  4  1  2  0  0  0  0
  4 13  1  0  0  0  0
  5 12  2  0  0  0  0
  6 21  1  0  0  0  0
  7 16  1  1  0  0  0
  7 30  1  0  0  0  0
  8 12  1  0  0  0  0
  8  6  1  0  0  0  0
  9 21  1  0  0  0  0
 10 15  1  1  0  0  0
 10  7  1  0  0  0  0
 12  9  1  0  0  0  0
 13  8  2  0  0  0  0
 14  2  1  0  0  0  0
 15 26  1  0  0  0  0
 20 14  2  0  0  0  0
 21 17  1  1  0  0  0
 22  2  1  6  0  0  0
 22  1  1  0  0  0  0
 23  4  1  0  0  0  0
 24 11  2  0  0  0  0
 25 11  1  6  0  0  0
 25 10  1  0  0  0  0
 25 23  1  0  0  0  0
 26 16  1  0  0  0  0
 28 20  1  6  0  0  0
 28 19  1  0  0  0  0
 28 29  1  0  0  0  0
 29 19  1  6  0  0  0
 29 22  1  0  0  0  0
 30 13  1  0  0  0  0
 30 27  2  0  0  0  0
M  END
>  <MODEL>
5

>  <REMARK>
 VINA RESULT:      -7.0      2.300      3.040
  Name = 
  0 active torsions:
  status: ('A' for Active; 'I' for Inactive)
                            x       y       z     vdW  Elec       q    Type
                         _______ _______ _______ _____ _____    ______ ____

>  <TORSDO>
F 0

$$$$
=
 OpenBabel10272413413D

 30 36  0  0  1  0  0  0  0  0999 V2000
  187.9040  177.9720  142.5330 C   0  0  0  0  0  0  0  0  0  0  0  0
  190.0900  178.4580  143.7320 C   0  0  0  0  0  0  0  0  0  0  0  0
  191.4340  176.0800  140.9520 N   0  0  0  0  0  0  0  0  0  0  0  0
  188.0830  178.1300  141.1490 C   0  0  0  0  0  0  0  0  0  0  0  0
  186.6430  178.1750  143.1040 C   0  0  0  0  0  3  0  0  0  0  0  0
  184.2080  179.0870  140.0880 S   0  0  0  0  0  0  0  0  0  0  0  0
  188.4550  178.9530  138.2140 C   0  0  1  0  0  3  0  0  0  0  0  0
  185.7280  178.6290  140.9170 C   0  0  0  0  0  0  0  0  0  0  0  0
  184.2680  178.7660  142.7580 N   0  0  0  0  0  2  0  0  0  0  0  0
  189.5690  177.9950  138.2880 N   0  0  2  0  0  0  0  0  0  0  0  0
  190.9270  176.4740  139.6660 C   0  0  0  0  0  0  0  0  0  0  0  0
  185.5770  178.5280  142.2800 C   0  0  0  0  0  0  0  0  0  0  0  0
  186.9840  178.4230  140.3100 C   0  0  0  0  0  0  0  0  0  0  0  0
  191.3170  177.9840  144.2780 N   0  0  0  0  0  0  0  0  0  0  0  0
  189.3650  177.2020  137.0990 C   0  0  0  0  0  2  0  0  0  0  0  0
  188.2390  179.2640  136.8580 O   0  0  0  0  0  0  0  0  0  0  0  0
  182.2390  178.0060  141.6670 C   0  0  0  0  0  1  0  0  0  0  0  0
  189.8780  179.6960  143.6420 O   0  0  0  0  0  0  0  0  0  0  0  0
  190.7780  175.9900  142.0700 C   0  0  0  0  0  0  0  0  0  0  0  0
  191.6360  176.7270  144.2460 C   0  0  0  0  0  3  0  0  0  0  0  0
  183.3170  179.0710  141.6990 C   0  0  2  0  0  3  0  0  0  0  0  0
  189.0190  177.4600  143.4010 C   0  0  2  0  0  3  0  0  0  0  0  0
  189.3570  177.9470  140.6320 O   0  0  0  0  0  0  0  0  0  0  0  0
  191.6400  176.2420  138.6530 O   0  0  0  0  0  0  0  0  0  0  0  0
  189.5870  177.1470  139.4910 C   0  0  1  0  0  3  0  0  0  0  0  0
  188.7080  178.1540  136.1300 C   0  0  0  0  0  2  0  0  0  0  0  0
  186.2240  178.0680  138.0930 O   0  0  0  0  0  0  0  0  0  0  0  0
  190.7910  175.6670  143.5690 C   0  0  1  0  0  3  0  0  0  0  0  0
  189.5310  176.0590  142.9810 C   0  0  2  0  0  3  0  0  0  0  0  0
  187.1560  178.4690  138.8400 C   0  0  0  0  0  0  0  0  0  0  0  0
  1  5  1  0  0  0  0
  2 14  1  0  0  0  0
  3 19  2  0  0  0  0
  4  1  2  0  0  0  0
  6  8  1  0  0  0  0
  6 21  1  0  0  0  0
  7 16  1  6  0  0  0
  7 10  1  0  0  0  0
  7 30  1  0  0  0  0
  8 12  1  0  0  0  0
 10 15  1  6  0  0  0
 10 25  1  0  0  0  0
 11  3  1  0  0  0  0
 12  9  1  0  0  0  0
 12  5  2  0  0  0  0
 13  8  2  0  0  0  0
 13  4  1  0  0  0  0
 18  2  2  0  0  0  0
 19 28  1  0  0  0  0
 20 14  2  0  0  0  0
 21 17  1  6  0  0  0
 21  9  1  0  0  0  0
 22  1  1  6  0  0  0
 22  2  1  0  0  0  0
 23  4  1  0  0  0  0
 24 11  2  0  0  0  0
 25 11  1  1  0  0  0
 25 23  1  0  0  0  0
 26 16  1  0  0  0  0
 26 15  1  0  0  0  0
 27 30  2  0  0  0  0
 28 20  1  1  0  0  0
 29 19  1  6  0  0  0
 29 22  1  0  0  0  0
 29 28  1  0  0  0  0
 30 13  1  0  0  0  0
M  END
>  <MODEL>
6

>  <REMARK>
 VINA RESULT:      -6.4      2.452      6.557
  Name = 
  0 active torsions:
  status: ('A' for Active; 'I' for Inactive)
                            x       y       z     vdW  Elec       q    Type
                         _______ _______ _______ _____ _____    ______ ____

>  <TORSDO>
F 0

$$$$
=
 OpenBabel10272413413D

 30 36  0  0  1  0  0  0  0  0999 V2000
  183.3490  176.2980  137.2640 C   0  0  0  0  0  0  0  0  0  0  0  0
  181.6420  178.1680  137.4560 C   0  0  0  0  0  0  0  0  0  0  0  0
  183.6730  178.8600  140.7100 N   0  0  0  0  0  0  0  0  0  0  0  0
  184.6360  176.8120  137.4930 C   0  0  0  0  0  0  0  0  0  0  0  0
  183.1790  175.1710  136.4520 C   0  0  0  0  0  3  0  0  0  0  0  0
  186.8340  174.0830  135.3060 S   0  0  0  0  0  0  0  0  0  0  0  0
  187.4170  178.1130  137.5400 C   0  0  1  0  0  3  0  0  0  0  0  0
  185.5690  175.0310  136.1480 C   0  0  0  0  0  0  0  0  0  0  0  0
  184.2350  173.4370  135.0440 N   0  0  0  0  0  2  0  0  0  0  0  0
  186.9360  178.6420  138.8250 N   0  0  2  0  0  0  0  0  0  0  0  0
  185.0830  178.8610  140.4300 C   0  0  0  0  0  0  0  0  0  0  0  0
  184.3010  174.5700  135.8850 C   0  0  0  0  0  0  0  0  0  0  0  0
  185.7750  176.1600  136.9680 C   0  0  0  0  0  0  0  0  0  0  0  0
  180.7280  178.9130  138.2550 N   0  0  0  0  0  0  0  0  0  0  0  0
  188.0450  178.3590  139.7030 C   0  0  0  0  0  2  0  0  0  0  0  0
  188.8040  178.3450  137.4660 O   0  0  0  0  0  0  0  0  0  0  0  0
  185.7680  171.5590  135.1360 C   0  0  0  0  0  1  0  0  0  0  0  0
  181.9150  178.5530  136.2880 O   0  0  0  0  0  0  0  0  0  0  0  0
  182.7800  178.0160  140.2860 C   0  0  0  0  0  0  0  0  0  0  0  0
  180.5390  178.6380  139.5090 C   0  0  0  0  0  3  0  0  0  0  0  0
  185.5450  172.9640  134.6160 C   0  0  2  0  0  3  0  0  0  0  0  0
  182.1550  176.8610  137.9830 C   0  0  2  0  0  3  0  0  0  0  0  0
  184.7530  177.9480  138.2790 O   0  0  0  0  0  0  0  0  0  0  0  0
  185.8260  179.5890  141.1410 O   0  0  0  0  0  0  0  0  0  0  0  0
  185.6950  178.0300  139.3290 C   0  0  1  0  0  3  0  0  0  0  0  0
  189.2530  178.4110  138.7990 C   0  0  0  0  0  2  0  0  0  0  0  0
  188.0680  175.8010  137.4530 O   0  0  0  0  0  0  0  0  0  0  0  0
  181.3130  177.5720  140.2560 C   0  0  1  0  0  3  0  0  0  0  0  0
  182.2690  176.7710  139.5260 C   0  0  2  0  0  3  0  0  0  0  0  0
  187.1340  176.6360  137.3120 C   0  0  0  0  0  0  0  0  0  0  0  0
  1  4  1  0  0  0  0
  2 22  1  0  0  0  0
  2 14  1  0  0  0  0
  4 23  1  0  0  0  0
  5  1  2  0  0  0  0
  6  8  1  0  0  0  0
  7 30  1  1  0  0  0
  7 10  1  0  0  0  0
  8 13  1  0  0  0  0
  9 12  1  0  0  0  0
 10 25  1  0  0  0  0
 10 15  1  1  0  0  0
 11  3  1  0  0  0  0
 11 24  2  0  0  0  0
 12  8  2  0  0  0  0
 12  5  1  0  0  0  0
 13 30  1  0  0  0  0
 13  4  2  0  0  0  0
 14 20  2  0  0  0  0
 16  7  1  0  0  0  0
 16 26  1  0  0  0  0
 18  2  2  0  0  0  0
 19  3  2  0  0  0  0
 21  9  1  0  0  0  0
 21 17  1  1  0  0  0
 21  6  1  0  0  0  0
 22  1  1  6  0  0  0
 22 29  1  0  0  0  0
 25 23  1  6  0  0  0
 25 11  1  0  0  0  0
 26 15  1  0  0  0  0
 28 20  1  6  0  0  0
 28 19  1  0  0  0  0
 29 28  1  0  0  0  0
 29 19  1  6  0  0  0
 30 27  2  0  0  0  0
M  END
>  <MODEL>
7

>  <REMARK>
 VINA RESULT:      -6.3      3.229      6.739
  Name = 
  0 active torsions:
  status: ('A' for Active; 'I' for Inactive)
                            x       y       z     vdW  Elec       q    Type
                         _______ _______ _______ _____ _____    ______ ____

>  <TORSDO>
F 0

$$$$
=
 OpenBabel10272413413D

 30 36  0  0  1  0  0  0  0  0999 V2000
  184.8350  178.4730  142.5960 C   0  0  0  0  0  0  0  0  0  0  0  0
  185.2850  179.7540  144.7420 C   0  0  0  0  0  0  0  0  0  0  0  0
  188.3860  177.3940  144.7790 N   0  0  0  0  0  0  0  0  0  0  0  0
  186.0070  178.4270  141.8220 C   0  0  0  0  0  0  0  0  0  0  0  0
  183.5830  178.4130  141.9740 C   0  0  0  0  0  3  0  0  0  0  0  0
  184.3090  178.0590  138.0750 S   0  0  0  0  0  0  0  0  0  0  0  0
  188.4640  178.7880  140.0170 C   0  0  1  0  0  3  0  0  0  0  0  0
  184.6610  178.1990  139.8250 C   0  0  0  0  0  0  0  0  0  0  0  0
  182.3080  178.2460  139.8640 N   0  0  0  0  0  2  0  0  0  0  0  0
  189.1610  178.2090  141.1760 N   0  0  2  0  0  0  0  0  0  0  0  0
  189.0340  177.3970  143.4960 C   0  0  0  0  0  0  0  0  0  0  0  0
  183.5210  178.3020  140.5870 C   0  0  0  0  0  0  0  0  0  0  0  0
  185.9370  178.2490  140.4220 C   0  0  0  0  0  0  0  0  0  0  0  0
  185.6690  179.7470  146.1130 N   0  0  0  0  0  0  0  0  0  0  0  0
  189.9800  177.1930  140.5590 C   0  0  0  0  0  2  0  0  0  0  0  0
  189.3550  178.7820  138.9270 O   0  0  0  0  0  0  0  0  0  0  0  0
  181.8880  176.7680  137.9860 C   0  0  0  0  0  1  0  0  0  0  0  0
  185.1640  180.8480  144.1280 O   0  0  0  0  0  0  0  0  0  0  0  0
  187.1120  177.3230  145.0250 C   0  0  0  0  0  0  0  0  0  0  0  0
  185.9530  178.6440  146.7350 C   0  0  0  0  0  3  0  0  0  0  0  0
  182.5030  178.0800  138.4300 C   0  0  2  0  0  3  0  0  0  0  0  0
  184.9010  178.4550  144.0970 C   0  0  2  0  0  3  0  0  0  0  0  0
  187.2240  178.5200  142.4790 O   0  0  0  0  0  0  0  0  0  0  0  0
  190.2780  177.1970  143.4610 O   0  0  0  0  0  0  0  0  0  0  0  0
  188.2850  177.6260  142.2050 C   0  0  1  0  0  3  0  0  0  0  0  0
  190.2640  177.7360  139.1800 C   0  0  0  0  0  2  0  0  0  0  0  0
  187.1740  177.3080  138.6300 O   0  0  0  0  0  0  0  0  0  0  0  0
  185.9820  177.2880  146.0600 C   0  0  1  0  0  3  0  0  0  0  0  0
  185.6140  177.2020  144.6660 C   0  0  2  0  0  3  0  0  0  0  0  0
  187.1760  178.0800  139.6270 C   0  0  0  0  0  0  0  0  0  0  0  0
  2 14  1  0  0  0  0
  3 19  2  0  0  0  0
  4 23  1  0  0  0  0
  4  1  2  0  0  0  0
  5  1  1  0  0  0  0
  6 21  1  0  0  0  0
  6  8  1  0  0  0  0
  7 16  1  6  0  0  0
  7 10  1  0  0  0  0
  8 13  2  0  0  0  0
  8 12  1  0  0  0  0
  9 12  1  0  0  0  0
 10 15  1  6  0  0  0
 10 25  1  0  0  0  0
 11  3  1  0  0  0  0
 12  5  2  0  0  0  0
 13  4  1  0  0  0  0
 14 20  2  0  0  0  0
 16 26  1  0  0  0  0
 18  2  2  0  0  0  0
 19 28  1  0  0  0  0
 21 17  1  1  0  0  0
 21  9  1  0  0  0  0
 22  1  1  6  0  0  0
 22 29  1  0  0  0  0
 22  2  1  0  0  0  0
 24 11  2  0  0  0  0
 25 23  1  1  0  0  0
 25 11  1  0  0  0  0
 26 15  1  0  0  0  0
 27 30  2  0  0  0  0
 28 20  1  6  0  0  0
 29 19  1  6  0  0  0
 29 28  1  0  0  0  0
 30  7  1  0  0  0  0
 30 13  1  0  0  0  0
M  END
>  <MODEL>
8

>  <REMARK>
 VINA RESULT:      -6.3      2.793      7.284
  Name = 
  0 active torsions:
  status: ('A' for Active; 'I' for Inactive)
                            x       y       z     vdW  Elec       q    Type
                         _______ _______ _______ _____ _____    ______ ____

>  <TORSDO>
F 0

$$$$
=
 OpenBabel10272413413D

 30 36  0  0  1  0  0  0  0  0999 V2000
  187.8100  176.5740  137.0870 C   0  0  0  0  0  0  0  0  0  0  0  0
  188.7170  174.5130  135.9130 C   0  0  0  0  0  0  0  0  0  0  0  0
  192.0940  176.2040  136.8730 N   0  0  0  0  0  0  0  0  0  0  0  0
  188.4740  176.7460  138.3130 C   0  0  0  0  0  0  0  0  0  0  0  0
  186.5030  177.0470  136.9270 C   0  0  0  0  0  3  0  0  0  0  0  0
  185.5280  178.7710  140.3810 S   0  0  0  0  0  0  0  0  0  0  0  0
  189.6430  176.7610  141.1520 C   0  0  1  0  0  3  0  0  0  0  0  0
  186.5430  177.9180  139.1780 C   0  0  0  0  0  0  0  0  0  0  0  0
  184.5630  178.1980  137.9360 N   0  0  0  0  0  2  0  0  0  0  0  0
  190.9190  176.7410  140.4190 N   0  0  2  0  0  0  0  0  0  0  0  0
  192.0800  176.6040  138.2540 C   0  0  0  0  0  0  0  0  0  0  0  0
  185.8820  177.6930  137.9930 C   0  0  0  0  0  0  0  0  0  0  0  0
  187.8620  177.4590  139.3690 C   0  0  0  0  0  0  0  0  0  0  0  0
  189.6400  173.9340  134.9950 N   0  0  0  0  0  0  0  0  0  0  0  0
  191.6620  177.7870  141.0790 C   0  0  0  0  0  2  0  0  0  0  0  0
  189.9210  177.0600  142.5000 O   0  0  0  0  0  0  0  0  0  0  0  0
  183.8590  180.3300  138.8570 C   0  0  0  0  0  1  0  0  0  0  0  0
  188.0000  173.7700  136.6360 O   0  0  0  0  0  0  0  0  0  0  0  0
  191.1500  176.3560  135.9930 C   0  0  0  0  0  0  0  0  0  0  0  0
  190.5000  174.6590  134.3470 C   0  0  0  0  0  3  0  0  0  0  0  0
  184.1550  178.8750  139.1600 C   0  0  2  0  0  3  0  0  0  0  0  0
  188.5250  176.0000  135.8960 C   0  0  2  0  0  3  0  0  0  0  0  0
  189.7570  176.2330  138.4350 O   0  0  0  0  0  0  0  0  0  0  0  0
  193.1760  176.6200  138.8760 O   0  0  0  0  0  0  0  0  0  0  0  0
  190.8140  177.0000  138.9740 C   0  0  1  0  0  3  0  0  0  0  0  0
  191.1290  177.7840  142.4910 C   0  0  0  0  0  2  0  0  0  0  0  0
  188.4220  178.8300  141.2200 O   0  0  0  0  0  0  0  0  0  0  0  0
  190.6600  176.1500  134.5550 C   0  0  1  0  0  3  0  0  0  0  0  0
  189.7700  176.8210  135.4750 C   0  0  2  0  0  3  0  0  0  0  0  0
  188.6130  177.7420  140.6130 C   0  0  0  0  0  0  0  0  0  0  0  0
  1  4  1  0  0  0  0
  2 18  2  0  0  0  0
  3 11  1  0  0  0  0
  4 23  1  0  0  0  0
  4 13  2  0  0  0  0
  5  1  2  0  0  0  0
  5 12  1  0  0  0  0
  7 30  1  6  0  0  0
  7 16  1  0  0  0  0
  8 13  1  0  0  0  0
  8  6  1  0  0  0  0
  9 12  1  0  0  0  0
  9 21  1  0  0  0  0
 10 15  1  1  0  0  0
 10  7  1  0  0  0  0
 11 24  2  0  0  0  0
 12  8  2  0  0  0  0
 13 30  1  0  0  0  0
 14  2  1  0  0  0  0
 15 26  1  0  0  0  0
 19  3  2  0  0  0  0
 20 14  2  0  0  0  0
 21 17  1  6  0  0  0
 21  6  1  0  0  0  0
 22  2  1  1  0  0  0
 22  1  1  0  0  0  0
 23 25  1  0  0  0  0
 25 11  1  6  0  0  0
 25 10  1  0  0  0  0
 26 16  1  0  0  0  0
 28 20  1  1  0  0  0
 28 29  1  0  0  0  0
 28 19  1  0  0  0  0
 29 22  1  0  0  0  0
 29 19  1  1  0  0  0
 30 27  2  0  0  0  0
M  END
>  <MODEL>
9

>  <REMARK>
 VINA RESULT:      -6.3      3.039      5.871
  Name = 
  0 active torsions:
  status: ('A' for Active; 'I' for Inactive)
                            x       y       z     vdW  Elec       q    Type
                         _______ _______ _______ _____ _____    ______ ____

>  <TORSDO>
F 0

$$$$
