=
 OpenBabel10272401123D

 27 31  0  0  0  0  0  0  0  0999 V2000
  186.4020  178.7940  141.2600 N   0  0  0  0  0  0  0  0  0  0  0  0
  185.8710  178.5110  143.6460 C   0  0  0  0  0  0  0  0  0  0  0  0
  187.9510  177.2100  143.2220 N   0  0  0  0  0  0  0  0  0  0  0  0
  186.6760  178.5780  147.7240 C   0  0  0  0  0  3  0  0  0  0  0  0
  188.0570  177.9690  149.5700 F   0  0  0  0  0  0  0  0  0  0  0  0
  185.0580  179.1380  144.5430 N   0  0  0  0  0  0  0  0  0  0  0  0
  188.6920  177.2810  147.3780 C   0  0  0  0  0  3  0  0  0  0  0  0
  191.0430  176.3310  139.8500 F   0  0  0  0  0  0  0  0  0  0  0  0
  188.4410  177.2520  146.0030 C   0  0  0  0  0  3  0  0  0  0  0  0
  189.9320  176.9880  140.2590 C   0  0  0  0  0  0  0  0  0  0  0  0
  187.3040  177.8850  145.4780 C   0  0  0  0  0  0  0  0  0  0  0  0
  185.4870  178.4590  142.2690 N   0  0  0  0  0  0  0  0  0  0  0  0
  187.8110  177.9420  148.2380 C   0  0  0  0  0  0  0  0  0  0  0  0
  186.4220  178.5490  146.3510 C   0  0  0  0  0  0  0  0  0  0  0  0
  187.6020  178.3220  141.0970 C   0  0  0  0  0  0  0  0  0  0  0  0
  187.0350  177.8820  144.0990 C   0  0  0  0  0  0  0  0  0  0  0  0
  189.3710  176.7050  141.5040 C   0  0  0  0  0  3  0  0  0  0  0  0
  185.3250  179.1630  145.8490 N   0  0  0  0  0  0  0  0  0  0  0  0
  189.3780  177.9860  139.4630 C   0  0  0  0  0  3  0  0  0  0  0  0
  188.2190  178.6360  139.8790 C   0  0  0  0  0  3  0  0  0  0  0  0
  188.2350  177.3840  141.9640 C   0  0  0  0  0  0  0  0  0  0  0  0
  181.4200  178.1860  141.1830 N   0  0  0  0  0  0  0  0  0  0  0  0
  184.0960  178.3420  141.9040 C   0  0  0  0  0  0  0  0  0  0  0  0
  183.7150  177.7460  140.6910 C   0  0  0  0  0  3  0  0  0  0  0  0
  182.3630  177.6740  140.3490 C   0  0  0  0  0  3  0  0  0  0  0  0
  181.7580  178.7790  142.3590 C   0  0  0  0  0  3  0  0  0  0  0  0
  183.0990  178.8710  142.7370 C   0  0  0  0  0  3  0  0  0  0  0  0
  1 12  1  0  0  0  0
  2 16  2  0  0  0  0
  2  6  1  0  0  0  0
  3 16  1  0  0  0  0
  4 13  1  0  0  0  0
  6 18  2  0  0  0  0
  7 13  2  0  0  0  0
  8 10  1  0  0  0  0
  9  7  1  0  0  0  0
 10 17  2  0  0  0  0
 11  9  2  0  0  0  0
 11 14  1  0  0  0  0
 12  2  1  0  0  0  0
 13  5  1  0  0  0  0
 14  4  2  0  0  0  0
 15  1  2  0  0  0  0
 15 21  1  0  0  0  0
 16 11  1  0  0  0  0
 17 21  1  0  0  0  0
 18 14  1  0  0  0  0
 19 20  2  0  0  0  0
 19 10  1  0  0  0  0
 20 15  1  0  0  0  0
 21  3  2  0  0  0  0
 22 26  1  0  0  0  0
 23 12  1  0  0  0  0
 23 27  1  0  0  0  0
 24 23  2  0  0  0  0
 25 24  1  0  0  0  0
 25 22  2  0  0  0  0
 26 27  2  0  0  0  0
M  END
>  <MODEL>
1

>  <REMARK>
 VINA RESULT:     -10.0      0.000      0.000
  Name = 
  1 active torsions:
  status: ('A' for Active; 'I' for Inactive)
    1  A    between atoms: C_9  and  N_15
                            x       y       z     vdW  Elec       q    Type
                         _______ _______ _______ _____ _____    ______ ____

>  <TORSDO>
F 1

$$$$
=
 OpenBabel10272401123D

 27 31  0  0  0  0  0  0  0  0999 V2000
  186.7850  178.8930  140.2010 N   0  0  0  0  0  0  0  0  0  0  0  0
  185.9020  178.6270  142.4830 C   0  0  0  0  0  0  0  0  0  0  0  0
  187.9670  177.2440  142.3550 N   0  0  0  0  0  0  0  0  0  0  0  0
  186.1060  178.6530  146.6350 C   0  0  0  0  0  3  0  0  0  0  0  0
  187.1790  177.9860  148.6570 F   0  0  0  0  0  0  0  0  0  0  0  0
  184.9920  179.2840  143.2570 N   0  0  0  0  0  0  0  0  0  0  0  0
  188.0980  177.2770  146.5750 C   0  0  0  0  0  3  0  0  0  0  0  0
  191.4810  176.2470  139.4620 F   0  0  0  0  0  0  0  0  0  0  0  0
  188.0490  177.2610  145.1780 C   0  0  0  0  0  3  0  0  0  0  0  0
  190.3490  176.9480  139.7110 C   0  0  0  0  0  0  0  0  0  0  0  0
  187.0260  177.9400  144.4980 C   0  0  0  0  0  0  0  0  0  0  0  0
  185.7200  178.5930  141.0640 N   0  0  0  0  0  0  0  0  0  0  0  0
  187.1280  177.9720  147.3030 C   0  0  0  0  0  0  0  0  0  0  0  0
  186.0540  178.6380  145.2390 C   0  0  0  0  0  0  0  0  0  0  0  0
  187.9760  178.3730  140.2110 C   0  0  0  0  0  0  0  0  0  0  0  0
  186.9610  177.9510  143.0940 C   0  0  0  0  0  0  0  0  0  0  0  0
  189.6020  176.6850  140.8580 C   0  0  0  0  0  3  0  0  0  0  0  0
  185.0660  179.2960  144.5880 N   0  0  0  0  0  0  0  0  0  0  0  0
  189.9570  177.9690  138.8500 C   0  0  0  0  0  3  0  0  0  0  0  0
  188.7750  178.6650  139.0980 C   0  0  0  0  0  3  0  0  0  0  0  0
  188.4380  177.4080  141.1530 C   0  0  0  0  0  0  0  0  0  0  0  0
  181.8680  178.3870  139.3560 N   0  0  0  0  0  0  0  0  0  0  0  0
  184.3930  178.5330  140.5000 C   0  0  0  0  0  0  0  0  0  0  0  0
  183.4790  177.5480  140.9060 C   0  0  0  0  0  3  0  0  0  0  0  0
  182.2120  177.4940  140.3210 C   0  0  0  0  0  3  0  0  0  0  0  0
  182.7360  179.3440  138.9320 C   0  0  0  0  0  3  0  0  0  0  0  0
  184.0120  179.4310  139.4920 C   0  0  0  0  0  3  0  0  0  0  0  0
  1 15  2  0  0  0  0
  1 12  1  0  0  0  0
  2 16  2  0  0  0  0
  2  6  1  0  0  0  0
  3 16  1  0  0  0  0
  4 13  1  0  0  0  0
  6 18  2  0  0  0  0
  7 13  2  0  0  0  0
  8 10  1  0  0  0  0
  9  7  1  0  0  0  0
 10 17  2  0  0  0  0
 11  9  2  0  0  0  0
 11 14  1  0  0  0  0
 12  2  1  0  0  0  0
 13  5  1  0  0  0  0
 14  4  2  0  0  0  0
 15 21  1  0  0  0  0
 16 11  1  0  0  0  0
 17 21  1  0  0  0  0
 18 14  1  0  0  0  0
 19 20  2  0  0  0  0
 19 10  1  0  0  0  0
 20 15  1  0  0  0  0
 21  3  2  0  0  0  0
 22 25  1  0  0  0  0
 23 24  1  0  0  0  0
 23 12  1  0  0  0  0
 25 24  2  0  0  0  0
 26 22  2  0  0  0  0
 26 27  1  0  0  0  0
 27 23  2  0  0  0  0
M  END
>  <MODEL>
2

>  <REMARK>
 VINA RESULT:      -9.9      1.111      1.403
  Name = 
  1 active torsions:
  status: ('A' for Active; 'I' for Inactive)
    1  A    between atoms: C_9  and  N_15
                            x       y       z     vdW  Elec       q    Type
                         _______ _______ _______ _____ _____    ______ ____

>  <TORSDO>
F 1

$$$$
=
 OpenBabel10272401123D

 27 31  0  0  0  0  0  0  0  0999 V2000
  189.9660  178.1450  142.1900 N   0  0  0  0  0  0  0  0  0  0  0  0
  187.5640  178.2120  141.6580 C   0  0  0  0  0  0  0  0  0  0  0  0
  187.7500  177.3890  144.0000 N   0  0  0  0  0  0  0  0  0  0  0  0
  183.5900  179.2600  142.2830 C   0  0  0  0  0  3  0  0  0  0  0  0
  181.6780  179.3680  143.7040 F   0  0  0  0  0  0  0  0  0  0  0  0
  186.7970  178.7880  140.6890 N   0  0  0  0  0  0  0  0  0  0  0  0
  183.7000  178.4400  144.5590 C   0  0  0  0  0  3  0  0  0  0  0  0
  190.9230  176.6360  147.3280 F   0  0  0  0  0  0  0  0  0  0  0  0
  185.0390  178.0860  144.3700 C   0  0  0  0  0  3  0  0  0  0  0  0
  190.6370  177.0750  146.0790 C   0  0  0  0  0  0  0  0  0  0  0  0
  185.6640  178.3140  143.1340 C   0  0  0  0  0  0  0  0  0  0  0  0
  188.8990  177.8030  141.3460 N   0  0  0  0  0  0  0  0  0  0  0  0
  182.9760  179.0260  143.5170 C   0  0  0  0  0  0  0  0  0  0  0  0
  184.9270  178.9050  142.0900 C   0  0  0  0  0  0  0  0  0  0  0  0
  190.0480  177.9510  143.4720 C   0  0  0  0  0  0  0  0  0  0  0  0
  187.0120  177.9790  142.9210 C   0  0  0  0  0  0  0  0  0  0  0  0
  189.3540  176.9130  145.5590 C   0  0  0  0  0  3  0  0  0  0  0  0
  185.5250  179.1290  140.8970 N   0  0  0  0  0  0  0  0  0  0  0  0
  191.6070  177.7380  145.3330 C   0  0  0  0  0  3  0  0  0  0  0  0
  191.3120  178.1600  144.0380 C   0  0  0  0  0  3  0  0  0  0  0  0
  189.0220  177.3770  144.2790 C   0  0  0  0  0  0  0  0  0  0  0  0
  189.8170  176.2330  137.5390 N   0  0  0  0  0  0  0  0  0  0  0  0
  189.2150  177.2890  140.0350 C   0  0  0  0  0  0  0  0  0  0  0  0
  188.2580  177.2880  139.0080 C   0  0  0  0  0  3  0  0  0  0  0  0
  188.5820  176.7560  137.7580 C   0  0  0  0  0  3  0  0  0  0  0  0
  190.7620  176.2090  138.5170 C   0  0  0  0  0  3  0  0  0  0  0  0
  190.4770  176.7310  139.7800 C   0  0  0  0  0  3  0  0  0  0  0  0
  1 15  2  0  0  0  0
  2 16  1  0  0  0  0
  3 21  2  0  0  0  0
  4 13  2  0  0  0  0
  6 18  1  0  0  0  0
  6  2  2  0  0  0  0
  9  7  2  0  0  0  0
 10  8  1  0  0  0  0
 11  9  1  0  0  0  0
 12  2  1  0  0  0  0
 12  1  1  0  0  0  0
 13  5  1  0  0  0  0
 13  7  1  0  0  0  0
 14  4  1  0  0  0  0
 14 11  1  0  0  0  0
 15 20  1  0  0  0  0
 15 21  1  0  0  0  0
 16 11  2  0  0  0  0
 16  3  1  0  0  0  0
 17 10  2  0  0  0  0
 18 14  2  0  0  0  0
 19 10  1  0  0  0  0
 20 19  2  0  0  0  0
 21 17  1  0  0  0  0
 22 25  2  0  0  0  0
 22 26  1  0  0  0  0
 23 12  1  0  0  0  0
 24 23  2  0  0  0  0
 25 24  1  0  0  0  0
 26 27  2  0  0  0  0
 27 23  1  0  0  0  0
M  END
>  <MODEL>
3

>  <REMARK>
 VINA RESULT:      -9.7      2.705      5.675
  Name = 
  1 active torsions:
  status: ('A' for Active; 'I' for Inactive)
    1  A    between atoms: C_9  and  N_15
                            x       y       z     vdW  Elec       q    Type
                         _______ _______ _______ _____ _____    ______ ____

>  <TORSDO>
F 1

$$$$
=
 OpenBabel10272401123D

 27 31  0  0  0  0  0  0  0  0999 V2000
  189.6700  177.9740  140.3310 N   0  0  0  0  0  0  0  0  0  0  0  0
  187.2670  178.2920  140.7610 C   0  0  0  0  0  0  0  0  0  0  0  0
  188.1680  176.9970  142.6870 N   0  0  0  0  0  0  0  0  0  0  0  0
  183.9520  179.4260  143.0000 C   0  0  0  0  0  3  0  0  0  0  0  0
  182.7070  179.3550  145.0320 F   0  0  0  0  0  0  0  0  0  0  0  0
  186.2880  179.1000  140.2630 N   0  0  0  0  0  0  0  0  0  0  0  0
  184.7600  178.1520  144.8950 C   0  0  0  0  0  3  0  0  0  0  0  0
  192.1910  175.3910  144.4010 F   0  0  0  0  0  0  0  0  0  0  0  0
  185.8840  177.7650  144.1600 C   0  0  0  0  0  3  0  0  0  0  0  0
  191.5380  176.0930  143.4440 C   0  0  0  0  0  0  0  0  0  0  0  0
  186.0500  178.2030  142.8380 C   0  0  0  0  0  0  0  0  0  0  0  0
  188.3360  177.8770  139.9060 N   0  0  0  0  0  0  0  0  0  0  0  0
  183.7950  178.9810  144.3160 C   0  0  0  0  0  0  0  0  0  0  0  0
  185.0740  179.0390  142.2630 C   0  0  0  0  0  0  0  0  0  0  0  0
  190.1770  177.5170  141.4370 C   0  0  0  0  0  0  0  0  0  0  0  0
  187.1770  177.8390  142.0810 C   0  0  0  0  0  0  0  0  0  0  0  0
  190.1450  176.1180  143.4250 C   0  0  0  0  0  3  0  0  0  0  0  0
  185.2310  179.4660  140.9880 N   0  0  0  0  0  0  0  0  0  0  0  0
  192.2560  176.8350  142.5110 C   0  0  0  0  0  3  0  0  0  0  0  0
  191.5760  177.5300  141.5130 C   0  0  0  0  0  3  0  0  0  0  0  0
  189.4410  176.8530  142.4610 C   0  0  0  0  0  0  0  0  0  0  0  0
  187.6930  177.1120  135.8070 N   0  0  0  0  0  0  0  0  0  0  0  0
  188.0930  177.6240  138.5060 C   0  0  0  0  0  0  0  0  0  0  0  0
  187.3540  176.5050  138.0920 C   0  0  0  0  0  3  0  0  0  0  0  0
  187.1600  176.2670  136.7290 C   0  0  0  0  0  3  0  0  0  0  0  0
  188.4230  178.1980  136.1770 C   0  0  0  0  0  3  0  0  0  0  0  0
  188.6390  178.4700  137.5300 C   0  0  0  0  0  3  0  0  0  0  0  0
  1 15  2  0  0  0  0
  2 16  1  0  0  0  0
  4 13  2  0  0  0  0
  6  2  2  0  0  0  0
  6 18  1  0  0  0  0
  9  7  2  0  0  0  0
 10  8  1  0  0  0  0
 11  9  1  0  0  0  0
 12  1  1  0  0  0  0
 12  2  1  0  0  0  0
 13  7  1  0  0  0  0
 13  5  1  0  0  0  0
 14 11  1  0  0  0  0
 14  4  1  0  0  0  0
 15 20  1  0  0  0  0
 15 21  1  0  0  0  0
 16  3  1  0  0  0  0
 16 11  2  0  0  0  0
 17 10  2  0  0  0  0
 18 14  2  0  0  0  0
 19 10  1  0  0  0  0
 20 19  2  0  0  0  0
 21  3  2  0  0  0  0
 21 17  1  0  0  0  0
 22 26  2  0  0  0  0
 22 25  1  0  0  0  0
 23 12  1  0  0  0  0
 24 23  1  0  0  0  0
 25 24  2  0  0  0  0
 26 27  1  0  0  0  0
 27 23  2  0  0  0  0
M  END
>  <MODEL>
4

>  <REMARK>
 VINA RESULT:      -9.1      2.962      4.874
  Name = 
  1 active torsions:
  status: ('A' for Active; 'I' for Inactive)
    1  A    between atoms: C_9  and  N_15
                            x       y       z     vdW  Elec       q    Type
                         _______ _______ _______ _____ _____    ______ ____

>  <TORSDO>
F 1

$$$$
=
 OpenBabel10272401123D

 27 31  0  0  0  0  0  0  0  0999 V2000
  187.8720  178.7680  140.7000 N   0  0  0  0  0  0  0  0  0  0  0  0
  188.2440  177.9470  142.9910 C   0  0  0  0  0  0  0  0  0  0  0  0
  189.7210  176.6030  141.5060 N   0  0  0  0  0  0  0  0  0  0  0  0
  190.5360  176.9130  146.3020 C   0  0  0  0  0  3  0  0  0  0  0  0
  192.3730  175.7330  147.2580 F   0  0  0  0  0  0  0  0  0  0  0  0
  187.9670  178.4040  144.2450 N   0  0  0  0  0  0  0  0  0  0  0  0
  191.9850  175.5590  144.9130 C   0  0  0  0  0  3  0  0  0  0  0  0
  191.0750  176.3060  137.0570 F   0  0  0  0  0  0  0  0  0  0  0  0
  191.2310  175.9000  143.7870 C   0  0  0  0  0  3  0  0  0  0  0  0
  190.3480  176.9420  138.0060 C   0  0  0  0  0  0  0  0  0  0  0  0
  190.1200  176.7490  143.9090 C   0  0  0  0  0  0  0  0  0  0  0  0
  187.3640  178.2780  141.9130 N   0  0  0  0  0  0  0  0  0  0  0  0
  191.6380  176.0650  146.1690 C   0  0  0  0  0  0  0  0  0  0  0  0
  189.7780  177.2540  145.1790 C   0  0  0  0  0  0  0  0  0  0  0  0
  188.8070  178.2390  139.9700 C   0  0  0  0  0  0  0  0  0  0  0  0
  189.3520  177.1170  142.7920 C   0  0  0  0  0  0  0  0  0  0  0  0
  190.2600  176.4110  139.2910 C   0  0  0  0  0  3  0  0  0  0  0  0
  188.7090  178.0750  145.3020 N   0  0  0  0  0  0  0  0  0  0  0  0
  189.7320  178.1550  137.7160 C   0  0  0  0  0  3  0  0  0  0  0  0
  188.9620  178.7880  138.6900 C   0  0  0  0  0  3  0  0  0  0  0  0
  189.5330  177.0580  140.3010 C   0  0  0  0  0  0  0  0  0  0  0  0
  183.2200  178.6700  142.6040 N   0  0  0  0  0  0  0  0  0  0  0  0
  185.9430  178.3900  142.1410 C   0  0  0  0  0  0  0  0  0  0  0  0
  185.0600  178.6620  141.0830 C   0  0  0  0  0  3  0  0  0  0  0  0
  183.6940  178.7950  141.3360 C   0  0  0  0  0  3  0  0  0  0  0  0
  184.0510  178.4180  143.6510 C   0  0  0  0  0  3  0  0  0  0  0  0
  185.4240  178.2780  143.4390 C   0  0  0  0  0  3  0  0  0  0  0  0
  1 12  1  0  0  0  0
  2  6  1  0  0  0  0
  3 16  1  0  0  0  0
  6 18  2  0  0  0  0
  7 13  2  0  0  0  0
  8 10  1  0  0  0  0
  9 11  2  0  0  0  0
  9  7  1  0  0  0  0
 10 17  2  0  0  0  0
 11 14  1  0  0  0  0
 12 23  1  0  0  0  0
 12  2  1  0  0  0  0
 13  4  1  0  0  0  0
 13  5  1  0  0  0  0
 14 18  1  0  0  0  0
 14  4  2  0  0  0  0
 15 21  1  0  0  0  0
 15  1  2  0  0  0  0
 16  2  2  0  0  0  0
 16 11  1  0  0  0  0
 17 21  1  0  0  0  0
 19 10  1  0  0  0  0
 19 20  2  0  0  0  0
 20 15  1  0  0  0  0
 21  3  2  0  0  0  0
 22 26  1  0  0  0  0
 23 27  1  0  0  0  0
 24 25  1  0  0  0  0
 24 23  2  0  0  0  0
 25 22  2  0  0  0  0
 27 26  2  0  0  0  0
M  END
>  <MODEL>
5

>  <REMARK>
 VINA RESULT:      -9.0      2.309      2.985
  Name = 
  1 active torsions:
  status: ('A' for Active; 'I' for Inactive)
    1  A    between atoms: C_9  and  N_15
                            x       y       z     vdW  Elec       q    Type
                         _______ _______ _______ _____ _____    ______ ____

>  <TORSDO>
F 1

$$$$
=
 OpenBabel10272401123D

 27 31  0  0  0  0  0  0  0  0999 V2000
  189.7570  176.7890  140.8770 N   0  0  0  0  0  0  0  0  0  0  0  0
  187.8950  177.6690  142.2260 C   0  0  0  0  0  0  0  0  0  0  0  0
  187.5740  178.5410  139.9170 N   0  0  0  0  0  0  0  0  0  0  0  0
  183.9020  178.4040  143.1200 C   0  0  0  0  0  3  0  0  0  0  0  0
  181.7540  179.2120  142.4770 F   0  0  0  0  0  0  0  0  0  0  0  0
  187.3510  177.3770  143.4410 N   0  0  0  0  0  0  0  0  0  0  0  0
  183.5390  179.2990  140.8990 C   0  0  0  0  0  3  0  0  0  0  0  0
  189.3890  178.2070  135.6390 F   0  0  0  0  0  0  0  0  0  0  0  0
  184.8760  179.0540  140.5780 C   0  0  0  0  0  3  0  0  0  0  0  0
  189.4030  177.8190  136.9360 C   0  0  0  0  0  0  0  0  0  0  0  0
  185.7390  178.4840  141.5260 C   0  0  0  0  0  0  0  0  0  0  0  0
  189.2950  177.4650  142.0170 N   0  0  0  0  0  0  0  0  0  0  0  0
  183.0520  178.9750  142.1690 C   0  0  0  0  0  0  0  0  0  0  0  0
  185.2400  178.1600  142.8030 C   0  0  0  0  0  0  0  0  0  0  0  0
  189.4570  177.0420  139.6380 C   0  0  0  0  0  0  0  0  0  0  0  0
  187.0850  178.2160  141.2250 C   0  0  0  0  0  0  0  0  0  0  0  0
  188.5740  178.4480  137.8620 C   0  0  0  0  0  3  0  0  0  0  0  0
  186.0680  177.6080  143.7210 N   0  0  0  0  0  0  0  0  0  0  0  0
  190.2050  176.7550  137.3370 C   0  0  0  0  0  3  0  0  0  0  0  0
  190.2350  176.3810  138.6790 C   0  0  0  0  0  3  0  0  0  0  0  0
  188.5500  178.0530  139.2070 C   0  0  0  0  0  0  0  0  0  0  0  0
  191.9830  178.1480  145.1970 N   0  0  0  0  0  0  0  0  0  0  0  0
  190.2330  177.6890  143.0920 C   0  0  0  0  0  0  0  0  0  0  0  0
  190.6330  176.6380  143.9330 C   0  0  0  0  0  3  0  0  0  0  0  0
  191.5170  176.8890  144.9830 C   0  0  0  0  0  3  0  0  0  0  0  0
  191.6050  179.1890  144.4070 C   0  0  0  0  0  3  0  0  0  0  0  0
  190.7220  178.9790  143.3460 C   0  0  0  0  0  3  0  0  0  0  0  0
  1 12  1  0  0  0  0
  2  6  1  0  0  0  0
  3 16  1  0  0  0  0
  6 18  2  0  0  0  0
  7 13  1  0  0  0  0
  8 10  1  0  0  0  0
  9  7  2  0  0  0  0
  9 11  1  0  0  0  0
 10 19  1  0  0  0  0
 10 17  2  0  0  0  0
 11 14  2  0  0  0  0
 12  2  1  0  0  0  0
 12 23  1  0  0  0  0
 13  5  1  0  0  0  0
 13  4  2  0  0  0  0
 14  4  1  0  0  0  0
 14 18  1  0  0  0  0
 15  1  2  0  0  0  0
 16 11  1  0  0  0  0
 16  2  2  0  0  0  0
 17 21  1  0  0  0  0
 19 20  2  0  0  0  0
 20 15  1  0  0  0  0
 21 15  1  0  0  0  0
 21  3  2  0  0  0  0
 23 27  2  0  0  0  0
 23 24  1  0  0  0  0
 24 25  2  0  0  0  0
 25 22  1  0  0  0  0
 26 22  2  0  0  0  0
 27 26  1  0  0  0  0
M  END
>  <MODEL>
6

>  <REMARK>
 VINA RESULT:      -8.9      3.249      6.042
  Name = 
  1 active torsions:
  status: ('A' for Active; 'I' for Inactive)
    1  A    between atoms: C_9  and  N_15
                            x       y       z     vdW  Elec       q    Type
                         _______ _______ _______ _____ _____    ______ ____

>  <TORSDO>
F 1

$$$$
=
 OpenBabel10272401123D

 27 31  0  0  0  0  0  0  0  0999 V2000
  187.1580  177.2290  142.2220 N   0  0  0  0  0  0  0  0  0  0  0  0
  189.3940  176.8810  143.1910 C   0  0  0  0  0  0  0  0  0  0  0  0
  188.0750  178.1430  144.8830 N   0  0  0  0  0  0  0  0  0  0  0  0
  192.0940  175.6730  146.1120 C   0  0  0  0  0  3  0  0  0  0  0  0
  192.8330  175.6900  148.3780 F   0  0  0  0  0  0  0  0  0  0  0  0
  190.4590  176.0760  142.9150 N   0  0  0  0  0  0  0  0  0  0  0  0
  190.8720  176.9140  147.7950 C   0  0  0  0  0  3  0  0  0  0  0  0
  183.7680  179.7470  145.6510 F   0  0  0  0  0  0  0  0  0  0  0  0
  189.9510  177.3250  146.8290 C   0  0  0  0  0  3  0  0  0  0  0  0
  184.6230  179.0600  144.8570 C   0  0  0  0  0  0  0  0  0  0  0  0
  190.0950  176.9160  145.4940 C   0  0  0  0  0  0  0  0  0  0  0  0
  188.5540  177.3230  142.1200 N   0  0  0  0  0  0  0  0  0  0  0  0
  191.9430  176.0890  147.4380 C   0  0  0  0  0  0  0  0  0  0  0  0
  191.1760  176.0850  145.1430 C   0  0  0  0  0  0  0  0  0  0  0  0
  186.4090  177.6670  143.1890 C   0  0  0  0  0  0  0  0  0  0  0  0
  189.1760  177.3060  144.5050 C   0  0  0  0  0  0  0  0  0  0  0  0
  185.9830  179.0230  145.1610 C   0  0  0  0  0  3  0  0  0  0  0  0
  191.3180  175.6860  143.8570 N   0  0  0  0  0  0  0  0  0  0  0  0
  184.1400  178.3440  143.7660 C   0  0  0  0  0  3  0  0  0  0  0  0
  185.0300  177.6630  142.9380 C   0  0  0  0  0  3  0  0  0  0  0  0
  186.8890  178.3030  144.3710 C   0  0  0  0  0  0  0  0  0  0  0  0
  190.1770  178.0790  138.2990 N   0  0  0  0  0  0  0  0  0  0  0  0
  189.1160  177.6040  140.8200 C   0  0  0  0  0  0  0  0  0  0  0  0
  188.4350  178.4140  139.8980 C   0  0  0  0  0  3  0  0  0  0  0  0
  188.9870  178.6440  138.6370 C   0  0  0  0  0  3  0  0  0  0  0  0
  190.8550  177.2800  139.1670 C   0  0  0  0  0  3  0  0  0  0  0  0
  190.3350  177.0260  140.4380 C   0  0  0  0  0  3  0  0  0  0  0  0
  1 15  2  0  0  0  0
  2 16  1  0  0  0  0
  4 13  2  0  0  0  0
  6  2  2  0  0  0  0
  6 18  1  0  0  0  0
  9  7  2  0  0  0  0
 10 17  2  0  0  0  0
 10  8  1  0  0  0  0
 11  9  1  0  0  0  0
 12  1  1  0  0  0  0
 12  2  1  0  0  0  0
 13  7  1  0  0  0  0
 13  5  1  0  0  0  0
 14 11  1  0  0  0  0
 14  4  1  0  0  0  0
 15 21  1  0  0  0  0
 16  3  1  0  0  0  0
 16 11  2  0  0  0  0
 18 14  2  0  0  0  0
 19 10  1  0  0  0  0
 20 15  1  0  0  0  0
 20 19  2  0  0  0  0
 21  3  2  0  0  0  0
 21 17  1  0  0  0  0
 22 25  2  0  0  0  0
 22 26  1  0  0  0  0
 23 12  1  0  0  0  0
 24 23  2  0  0  0  0
 25 24  1  0  0  0  0
 26 27  2  0  0  0  0
 27 23  1  0  0  0  0
M  END
>  <MODEL>
7

>  <REMARK>
 VINA RESULT:      -8.5      2.947      5.684
  Name = 
  1 active torsions:
  status: ('A' for Active; 'I' for Inactive)
    1  A    between atoms: C_9  and  N_15
                            x       y       z     vdW  Elec       q    Type
                         _______ _______ _______ _____ _____    ______ ____

>  <TORSDO>
F 1

$$$$
=
 OpenBabel10272401123D

 27 31  0  0  0  0  0  0  0  0999 V2000
  189.5930  176.4240  143.0270 N   0  0  0  0  0  0  0  0  0  0  0  0
  187.6880  177.3590  144.2730 C   0  0  0  0  0  0  0  0  0  0  0  0
  187.6790  178.4540  142.0380 N   0  0  0  0  0  0  0  0  0  0  0  0
  183.7040  178.3930  144.8580 C   0  0  0  0  0  3  0  0  0  0  0  0
  181.7100  179.4560  144.0970 F   0  0  0  0  0  0  0  0  0  0  0  0
  187.0000  177.0180  145.4000 N   0  0  0  0  0  0  0  0  0  0  0  0
  183.6460  179.5070  142.7080 C   0  0  0  0  0  3  0  0  0  0  0  0
  189.8830  178.3170  137.9350 F   0  0  0  0  0  0  0  0  0  0  0  0
  184.9830  179.1630  142.4910 C   0  0  0  0  0  3  0  0  0  0  0  0
  189.7320  177.8190  139.1850 C   0  0  0  0  0  0  0  0  0  0  0  0
  185.6930  178.4340  143.4570 C   0  0  0  0  0  0  0  0  0  0  0  0
  189.0790  177.0410  144.1770 N   0  0  0  0  0  0  0  0  0  0  0  0
  183.0070  179.1230  143.8900 C   0  0  0  0  0  0  0  0  0  0  0  0
  185.0410  178.0500  144.6450 C   0  0  0  0  0  0  0  0  0  0  0  0
  189.4440  176.8110  141.7950 C   0  0  0  0  0  0  0  0  0  0  0  0
  187.0340  178.0650  143.2590 C   0  0  0  0  0  0  0  0  0  0  0  0
  188.8700  178.4420  140.0860 C   0  0  0  0  0  3  0  0  0  0  0  0
  185.7200  177.3450  145.5790 N   0  0  0  0  0  0  0  0  0  0  0  0
  190.3940  176.6530  139.5560 C   0  0  0  0  0  3  0  0  0  0  0  0
  190.2550  176.1630  140.8530 C   0  0  0  0  0  3  0  0  0  0  0  0
  188.6760  177.9380  141.3790 C   0  0  0  0  0  0  0  0  0  0  0  0
  191.4960  177.1040  147.6350 N   0  0  0  0  0  0  0  0  0  0  0  0
  189.9190  177.0810  145.3510 C   0  0  0  0  0  0  0  0  0  0  0  0
  191.2030  176.5130  145.3400 C   0  0  0  0  0  3  0  0  0  0  0  0
  191.9820  176.5380  146.4990 C   0  0  0  0  0  3  0  0  0  0  0  0
  190.2520  177.6510  147.6800 C   0  0  0  0  0  3  0  0  0  0  0  0
  189.4420  177.6450  146.5430 C   0  0  0  0  0  3  0  0  0  0  0  0
  1 12  1  0  0  0  0
  2  6  1  0  0  0  0
  3 16  1  0  0  0  0
  6 18  2  0  0  0  0
  7 13  1  0  0  0  0
  8 10  1  0  0  0  0
  9  7  2  0  0  0  0
  9 11  1  0  0  0  0
 10 19  1  0  0  0  0
 10 17  2  0  0  0  0
 11 14  2  0  0  0  0
 12  2  1  0  0  0  0
 12 23  1  0  0  0  0
 13  5  1  0  0  0  0
 13  4  2  0  0  0  0
 14  4  1  0  0  0  0
 14 18  1  0  0  0  0
 15  1  2  0  0  0  0
 16 11  1  0  0  0  0
 16  2  2  0  0  0  0
 17 21  1  0  0  0  0
 19 20  2  0  0  0  0
 20 15  1  0  0  0  0
 21 15  1  0  0  0  0
 21  3  2  0  0  0  0
 22 26  1  0  0  0  0
 23 27  1  0  0  0  0
 24 23  2  0  0  0  0
 24 25  1  0  0  0  0
 25 22  2  0  0  0  0
 27 26  2  0  0  0  0
M  END
>  <MODEL>
8

>  <REMARK>
 VINA RESULT:      -8.5      2.664      5.714
  Name = 
  1 active torsions:
  status: ('A' for Active; 'I' for Inactive)
    1  A    between atoms: C_9  and  N_15
                            x       y       z     vdW  Elec       q    Type
                         _______ _______ _______ _____ _____    ______ ____

>  <TORSDO>
F 1

$$$$
=
 OpenBabel10272401123D

 27 31  0  0  0  0  0  0  0  0999 V2000
  187.6960  177.0420  143.1750 N   0  0  0  0  0  0  0  0  0  0  0  0
  185.4990  178.1150  142.8930 C   0  0  0  0  0  0  0  0  0  0  0  0
  186.8630  178.7570  140.9120 N   0  0  0  0  0  0  0  0  0  0  0  0
  181.9980  179.0680  140.8630 C   0  0  0  0  0  3  0  0  0  0  0  0
  180.8940  179.8760  138.9110 F   0  0  0  0  0  0  0  0  0  0  0  0
  184.2650  177.9660  143.4520 N   0  0  0  0  0  0  0  0  0  0  0  0
  183.2740  179.7430  138.9190 C   0  0  0  0  0  3  0  0  0  0  0  0
  191.0080  177.9310  138.9520 F   0  0  0  0  0  0  0  0  0  0  0  0
  184.4620  179.4230  139.5820 C   0  0  0  0  0  3  0  0  0  0  0  0
  190.1270  177.6760  139.9480 C   0  0  0  0  0  0  0  0  0  0  0  0
  184.4270  178.9240  140.8940 C   0  0  0  0  0  0  0  0  0  0  0  0
  186.6620  177.8450  143.6800 N   0  0  0  0  0  0  0  0  0  0  0  0
  182.0440  179.5660  139.5580 C   0  0  0  0  0  0  0  0  0  0  0  0
  183.1830  178.7490  141.5300 C   0  0  0  0  0  0  0  0  0  0  0  0
  188.3130  177.1770  142.0390 C   0  0  0  0  0  0  0  0  0  0  0  0
  185.6050  178.5830  141.5800 C   0  0  0  0  0  0  0  0  0  0  0  0
  188.9550  178.4230  140.0520 C   0  0  0  0  0  3  0  0  0  0  0  0
  183.1450  178.2660  142.7940 N   0  0  0  0  0  0  0  0  0  0  0  0
  190.3630  176.6330  140.8380 C   0  0  0  0  0  3  0  0  0  0  0  0
  189.4660  176.3970  141.8780 C   0  0  0  0  0  3  0  0  0  0  0  0
  188.0140  178.1680  141.0590 C   0  0  0  0  0  0  0  0  0  0  0  0
  186.7510  178.7690  147.7960 N   0  0  0  0  0  0  0  0  0  0  0  0
  186.6740  178.1460  145.0910 C   0  0  0  0  0  0  0  0  0  0  0  0
  185.7510  179.0480  145.6450 C   0  0  0  0  0  3  0  0  0  0  0  0
  185.8040  179.3450  147.0080 C   0  0  0  0  0  3  0  0  0  0  0  0
  187.6660  177.9010  147.2860 C   0  0  0  0  0  3  0  0  0  0  0  0
  187.6450  177.5780  145.9280 C   0  0  0  0  0  3  0  0  0  0  0  0
  1 12  1  0  0  0  0
  2  6  1  0  0  0  0
  2 12  1  0  0  0  0
  3 21  2  0  0  0  0
  3 16  1  0  0  0  0
  4 14  1  0  0  0  0
  5 13  1  0  0  0  0
  7 13  1  0  0  0  0
  7  9  2  0  0  0  0
  8 10  1  0  0  0  0
  9 11  1  0  0  0  0
 10 17  2  0  0  0  0
 10 19  1  0  0  0  0
 11 14  2  0  0  0  0
 11 16  1  0  0  0  0
 12 23  1  0  0  0  0
 13  4  2  0  0  0  0
 14 18  1  0  0  0  0
 15  1  2  0  0  0  0
 16  2  2  0  0  0  0
 17 21  1  0  0  0  0
 18  6  2  0  0  0  0
 19 20  2  0  0  0  0
 20 15  1  0  0  0  0
 21 15  1  0  0  0  0
 23 24  2  0  0  0  0
 23 27  1  0  0  0  0
 24 25  1  0  0  0  0
 25 22  2  0  0  0  0
 26 22  1  0  0  0  0
 27 26  2  0  0  0  0
M  END
>  <MODEL>
9

>  <REMARK>
 VINA RESULT:      -8.5      2.498      5.871
  Name = 
  1 active torsions:
  status: ('A' for Active; 'I' for Inactive)
    1  A    between atoms: C_9  and  N_15
                            x       y       z     vdW  Elec       q    Type
                         _______ _______ _______ _____ _____    ______ ____

>  <TORSDO>
F 1

$$$$
