=
 OpenBabel10262423493D

 34 39  0  0  1  0  0  0  0  0999 V2000
  186.5840  176.8690  136.9590 C   0  0  0  0  0  0  0  0  0  0  0  0
  188.4340  178.4720  136.9560 C   0  0  0  0  0  0  0  0  0  0  0  0
  186.4070  178.7740  138.5360 C   0  0  1  0  0  3  0  0  0  0  0  0
  186.0120  178.5250  140.9860 C   0  0  0  0  0  0  0  0  0  0  0  0
  188.5910  176.5950  135.4240 C   0  0  0  0  0  3  0  0  0  0  0  0
  189.1090  177.7310  135.8890 C   0  0  0  0  0  3  0  0  0  0  0  0
  188.1760  178.0420  140.2920 C   0  0  0  0  0  3  0  0  0  0  0  0
  187.1260  178.0030  137.4520 C   0  0  0  0  0  0  0  0  0  0  0  0
  186.8020  178.1980  142.4280 S   0  0  0  0  0  0  0  0  0  0  0  0
  187.3290  175.9890  135.9830 C   0  0  0  0  0  2  0  0  0  0  0  0
  184.8670  178.6190  138.4160 C   0  0  2  0  0  3  0  0  0  0  0  0
  185.2900  176.4360  137.4040 N   0  0  0  0  0  0  0  0  0  0  0  0
  188.9630  179.5150  137.4220 O   0  0  0  0  0  0  0  0  0  0  0  0
  184.6600  178.9610  140.8410 N   0  0  0  0  0  0  0  0  0  0  0  0
  184.1160  179.0770  139.6590 C   0  0  0  0  0  0  0  0  0  0  0  0
  188.2780  177.8770  141.6740 C   0  0  0  0  0  0  0  0  0  0  0  0
  186.8740  178.3920  139.9160 C   0  0  0  0  0  0  0  0  0  0  0  0
  184.4940  177.1970  138.0950 C   0  0  0  0  0  3  0  0  0  0  0  0
  181.0670  180.9810  138.4620 C   0  0  0  0  0  0  0  0  0  0  0  0
  180.0820  180.4970  139.3280 C   0  0  0  0  0  3  0  0  0  0  0  0
  182.7240  179.5660  139.5420 C   0  0  0  0  0  0  0  0  0  0  0  0
  180.4130  179.5520  140.3010 C   0  0  0  0  0  3  0  0  0  0  0  0
  182.3800  180.5170  138.5690 C   0  0  0  0  0  3  0  0  0  0  0  0
  181.7280  179.0880  140.4080 C   0  0  0  0  0  3  0  0  0  0  0  0
  180.7470  181.8980  137.5190 F   0  0  0  0  0  0  0  0  0  0  0  0
  189.4680  177.5200  142.3760 N   0  0  0  0  0  2  0  0  0  0  0  0
  189.9390  178.2740  143.5280 C   0  0  0  0  0  2  0  0  0  0  0  0
  187.9300  177.6950  145.5130 F   0  0  0  0  0  0  0  0  0  0  0  0
  190.1540  177.3380  144.7040 C   0  0  2  0  0  3  0  0  0  0  0  0
  189.2620  177.7640  145.8770 C   0  0  2  0  0  3  0  0  0  0  0  0
  190.9860  176.7810  147.4080 C   0  0  0  0  0  2  0  0  0  0  0  0
  191.7750  176.3880  146.1630 C   0  0  0  0  0  2  0  0  0  0  0  0
  191.5600  177.3750  145.1070 N   0  0  0  0  0  2  0  0  0  0  0  0
  189.5010  176.8410  147.0680 C   0  0  0  0  0  2  0  0  0  0  0  0
  1 12  1  0  0  0  0
  1  8  2  0  0  0  0
  2 13  2  0  0  0  0
  2  8  1  0  0  0  0
  3  8  1  6  0  0  0
  3 17  1  0  0  0  0
  4  9  1  0  0  0  0
  5  6  2  0  0  0  0
  5 10  1  0  0  0  0
  6  2  1  0  0  0  0
  7 16  2  0  0  0  0
 10  1  1  0  0  0  0
 11 18  1  1  0  0  0
 11  3  1  0  0  0  0
 11 15  1  0  0  0  0
 12 18  2  0  0  0  0
 14  4  1  0  0  0  0
 15 14  2  0  0  0  0
 16 26  1  0  0  0  0
 16  9  1  0  0  0  0
 17  7  1  0  0  0  0
 17  4  2  0  0  0  0
 19 23  2  0  0  0  0
 19 20  1  0  0  0  0
 20 22  2  0  0  0  0
 21 15  1  0  0  0  0
 21 24  2  0  0  0  0
 22 24  1  0  0  0  0
 23 21  1  0  0  0  0
 25 19  1  0  0  0  0
 26 27  1  0  0  0  0
 29 27  1  6  0  0  0
 29 33  1  0  0  0  0
 29 30  1  0  0  0  0
 30 28  1  6  0  0  0
 30 34  1  0  0  0  0
 32 31  1  0  0  0  0
 33 32  1  0  0  0  0
 34 31  1  0  0  0  0
M  END
>  <MODEL>
1

>  <REMARK>
 VINA RESULT:      -8.5      0.000      0.000
  Name = 
  4 active torsions:
  status: ('A' for Active; 'I' for Inactive)
    1  A    between atoms: C_3  and  C_13
    2  A    between atoms: C_3  and  N_17
    3  A    between atoms: C_12  and  C_28
    4  A    between atoms: N_17  and  C_29
                            x       y       z     vdW  Elec       q    Type
                         _______ _______ _______ _____ _____    ______ ____

>  <TORSDO>
F 4

$$$$
=
 OpenBabel10262423493D

 34 39  0  0  1  0  0  0  0  0999 V2000
  191.8450  174.2560  137.3500 C   0  0  0  0  0  0  0  0  0  0  0  0
  193.4940  176.0530  137.5580 C   0  0  0  0  0  0  0  0  0  0  0  0
  190.9560  176.5510  137.6470 C   0  0  1  0  0  3  0  0  0  0  0  0
  189.3340  177.2000  139.4280 C   0  0  0  0  0  0  0  0  0  0  0  0
  194.3440  173.7970  137.2740 C   0  0  0  0  0  3  0  0  0  0  0  0
  194.5930  175.1000  137.3920 C   0  0  0  0  0  3  0  0  0  0  0  0
  191.5200  176.9070  140.1580 C   0  0  0  0  0  3  0  0  0  0  0  0
  192.1000  175.5720  137.5020 C   0  0  0  0  0  0  0  0  0  0  0  0
  189.2440  177.6130  141.0500 S   0  0  0  0  0  0  0  0  0  0  0  0
  192.9500  173.2260  137.3470 C   0  0  0  0  0  2  0  0  0  0  0  0
  189.6990  176.0720  136.8740 C   0  0  2  0  0  3  0  0  0  0  0  0
  190.4910  173.7910  137.2460 N   0  0  0  0  0  0  0  0  0  0  0  0
  193.7480  177.2750  137.7230 O   0  0  0  0  0  0  0  0  0  0  0  0
  188.2760  177.2790  138.4730 N   0  0  0  0  0  0  0  0  0  0  0  0
  188.4310  176.8240  137.2590 C   0  0  0  0  0  0  0  0  0  0  0  0
  190.8810  177.3120  141.3300 C   0  0  0  0  0  0  0  0  0  0  0  0
  190.6200  176.8290  139.0880 C   0  0  0  0  0  0  0  0  0  0  0  0
  189.4860  174.5940  137.0580 C   0  0  0  0  0  3  0  0  0  0  0  0
  185.1670  176.2290  135.4280 C   0  0  0  0  0  0  0  0  0  0  0  0
  185.2320  177.2000  134.4260 C   0  0  0  0  0  3  0  0  0  0  0  0
  187.3250  176.9540  136.2830 C   0  0  0  0  0  0  0  0  0  0  0  0
  186.3390  178.0480  134.3460 C   0  0  0  0  0  3  0  0  0  0  0  0
  186.2080  176.1070  136.3520 C   0  0  0  0  0  3  0  0  0  0  0  0
  187.3820  177.9250  135.2710 C   0  0  0  0  0  3  0  0  0  0  0  0
  184.0940  175.4070  135.5050 F   0  0  0  0  0  0  0  0  0  0  0  0
  191.5160  177.4880  142.5960 N   0  0  0  0  0  2  0  0  0  0  0  0
  191.3900  176.5070  143.6640 C   0  0  0  0  0  2  0  0  0  0  0  0
  192.4100  176.5120  146.3600 F   0  0  0  0  0  0  0  0  0  0  0  0
  190.6610  177.1210  144.8460 C   0  0  2  0  0  3  0  0  0  0  0  0
  191.0510  176.3900  146.1350 C   0  0  2  0  0  3  0  0  0  0  0  0
  188.7960  177.0020  147.0420 C   0  0  0  0  0  2  0  0  0  0  0  0
  188.5300  177.7180  145.7210 C   0  0  0  0  0  2  0  0  0  0  0  0
  189.2170  177.0240  144.6330 N   0  0  0  0  0  2  0  0  0  0  0  0
  190.2950  176.9900  147.3180 C   0  0  0  0  0  2  0  0  0  0  0  0
  1  8  2  0  0  0  0
  2 13  2  0  0  0  0
  3  8  1  1  0  0  0
  3 17  1  0  0  0  0
  4  9  1  0  0  0  0
  5 10  1  0  0  0  0
  5  6  2  0  0  0  0
  6  2  1  0  0  0  0
  7 16  2  0  0  0  0
  8  2  1  0  0  0  0
  9 16  1  0  0  0  0
 10  1  1  0  0  0  0
 11 18  1  1  0  0  0
 11 15  1  0  0  0  0
 11  3  1  0  0  0  0
 12  1  1  0  0  0  0
 14  4  1  0  0  0  0
 15 14  2  0  0  0  0
 16 26  1  0  0  0  0
 17  4  2  0  0  0  0
 17  7  1  0  0  0  0
 18 12  2  0  0  0  0
 19 25  1  0  0  0  0
 19 23  1  0  0  0  0
 20 19  2  0  0  0  0
 21 23  2  0  0  0  0
 21 15  1  0  0  0  0
 22 20  1  0  0  0  0
 22 24  2  0  0  0  0
 24 21  1  0  0  0  0
 26 27  1  0  0  0  0
 29 27  1  6  0  0  0
 29 30  1  0  0  0  0
 30 28  1  1  0  0  0
 30 34  1  0  0  0  0
 31 34  1  0  0  0  0
 32 31  1  0  0  0  0
 33 29  1  0  0  0  0
 33 32  1  0  0  0  0
M  END
>  <MODEL>
2

>  <REMARK>
 VINA RESULT:      -8.3      3.992      5.217
  Name = 
  4 active torsions:
  status: ('A' for Active; 'I' for Inactive)
    1  A    between atoms: C_3  and  C_13
    2  A    between atoms: C_3  and  N_17
    3  A    between atoms: C_12  and  C_28
    4  A    between atoms: N_17  and  C_29
                            x       y       z     vdW  Elec       q    Type
                         _______ _______ _______ _____ _____    ______ ____

>  <TORSDO>
F 4

$$$$
=
 OpenBabel10262423493D

 34 39  0  0  1  0  0  0  0  0999 V2000
  186.6690  176.7350  137.3890 C   0  0  0  0  0  0  0  0  0  0  0  0
  188.5580  178.2220  137.8490 C   0  0  0  0  0  0  0  0  0  0  0  0
  186.1800  178.7780  138.7070 C   0  0  1  0  0  3  0  0  0  0  0  0
  185.0460  178.7670  140.9280 C   0  0  0  0  0  0  0  0  0  0  0  0
  189.0160  176.2130  136.5660 C   0  0  0  0  0  3  0  0  0  0  0  0
  189.4610  177.3530  137.0920 C   0  0  0  0  0  3  0  0  0  0  0  0
  187.2710  178.1010  140.9660 C   0  0  0  0  0  3  0  0  0  0  0  0
  187.1270  177.8750  137.9490 C   0  0  0  0  0  0  0  0  0  0  0  0
  185.3340  178.5210  142.5610 S   0  0  0  0  0  0  0  0  0  0  0  0
  187.5990  175.7320  136.7490 C   0  0  0  0  0  2  0  0  0  0  0  0
  184.7410  178.7020  138.1300 C   0  0  2  0  0  3  0  0  0  0  0  0
  185.2700  176.4180  137.4420 N   0  0  0  0  0  0  0  0  0  0  0  0
  189.0050  179.2700  138.3860 O   0  0  0  0  0  0  0  0  0  0  0  0
  183.8410  179.2650  140.3460 N   0  0  0  0  0  0  0  0  0  0  0  0
  183.6900  179.3100  139.0490 C   0  0  0  0  0  0  0  0  0  0  0  0
  186.9380  178.0510  142.3190 C   0  0  0  0  0  0  0  0  0  0  0  0
  186.1760  178.4910  140.1850 C   0  0  0  0  0  0  0  0  0  0  0  0
  184.3680  177.2820  137.8030 C   0  0  0  0  0  3  0  0  0  0  0  0
  181.0250  181.7730  137.9580 C   0  0  0  0  0  0  0  0  0  0  0  0
  180.0710  180.9180  137.4020 C   0  0  0  0  0  3  0  0  0  0  0  0
  182.4430  179.8660  138.4790 C   0  0  0  0  0  0  0  0  0  0  0  0
  180.2950  179.5390  137.3830 C   0  0  0  0  0  3  0  0  0  0  0  0
  182.2050  181.2490  138.4940 C   0  0  0  0  0  3  0  0  0  0  0  0
  181.4760  179.0160  137.9190 C   0  0  0  0  0  3  0  0  0  0  0  0
  180.8080  183.1090  137.9770 F   0  0  0  0  0  0  0  0  0  0  0  0
  187.8260  177.6880  143.3750 N   0  0  0  0  0  2  0  0  0  0  0  0
  189.2410  178.0290  143.3430 C   0  0  0  0  0  2  0  0  0  0  0  0
  191.9830  177.3490  143.9130 F   0  0  0  0  0  0  0  0  0  0  0  0
  189.8220  177.9520  144.7430 C   0  0  2  0  0  3  0  0  0  0  0  0
  190.9780  176.9460  144.7720 C   0  0  2  0  0  3  0  0  0  0  0  0
  190.4300  176.5430  147.1850 C   0  0  0  0  0  2  0  0  0  0  0  0
  189.3210  177.5810  147.0400 C   0  0  0  0  0  2  0  0  0  0  0  0
  188.7780  177.5420  145.6830 N   0  0  0  0  0  2  0  0  0  0  0  0
  191.5420  176.8470  146.1870 C   0  0  0  0  0  2  0  0  0  0  0  0
  1 12  1  0  0  0  0
  1  8  2  0  0  0  0
  2  8  1  0  0  0  0
  2 13  2  0  0  0  0
  3  8  1  6  0  0  0
  3 17  1  0  0  0  0
  4  9  1  0  0  0  0
  5 10  1  0  0  0  0
  5  6  2  0  0  0  0
  6  2  1  0  0  0  0
  7 16  2  0  0  0  0
 10  1  1  0  0  0  0
 11 18  1  1  0  0  0
 11  3  1  0  0  0  0
 11 15  1  0  0  0  0
 12 18  2  0  0  0  0
 14  4  1  0  0  0  0
 15 14  2  0  0  0  0
 16  9  1  0  0  0  0
 16 26  1  0  0  0  0
 17  4  2  0  0  0  0
 17  7  1  0  0  0  0
 19 25  1  0  0  0  0
 19 23  1  0  0  0  0
 20 19  2  0  0  0  0
 21 23  2  0  0  0  0
 21 15  1  0  0  0  0
 22 20  1  0  0  0  0
 22 24  2  0  0  0  0
 24 21  1  0  0  0  0
 27 26  1  0  0  0  0
 29 27  1  6  0  0  0
 29 30  1  0  0  0  0
 29 33  1  0  0  0  0
 30 28  1  6  0  0  0
 30 34  1  0  0  0  0
 32 31  1  0  0  0  0
 33 32  1  0  0  0  0
 34 31  1  0  0  0  0
M  END
>  <MODEL>
3

>  <REMARK>
 VINA RESULT:      -8.0      1.428      1.620
  Name = 
  4 active torsions:
  status: ('A' for Active; 'I' for Inactive)
    1  A    between atoms: C_3  and  C_13
    2  A    between atoms: C_3  and  N_17
    3  A    between atoms: C_12  and  C_28
    4  A    between atoms: N_17  and  C_29
                            x       y       z     vdW  Elec       q    Type
                         _______ _______ _______ _____ _____    ______ ____

>  <TORSDO>
F 4

$$$$
=
 OpenBabel10262423493D

 34 39  0  0  1  0  0  0  0  0999 V2000
  188.2540  177.1020  135.2000 C   0  0  0  0  0  0  0  0  0  0  0  0
  186.3580  176.2370  136.4830 C   0  0  0  0  0  0  0  0  0  0  0  0
  188.7930  175.6680  137.1500 C   0  0  1  0  0  3  0  0  0  0  0  0
  190.3330  176.3380  138.9930 C   0  0  0  0  0  0  0  0  0  0  0  0
  185.8530  177.6510  134.5750 C   0  0  0  0  0  3  0  0  0  0  0  0
  185.4120  176.8870  135.5740 C   0  0  0  0  0  3  0  0  0  0  0  0
  188.2320  177.3260  139.0700 C   0  0  0  0  0  3  0  0  0  0  0  0
  187.8070  176.3560  136.2320 C   0  0  0  0  0  0  0  0  0  0  0  0
  190.3920  177.2330  140.4090 S   0  0  0  0  0  0  0  0  0  0  0  0
  187.3170  177.9240  134.3470 C   0  0  0  0  0  2  0  0  0  0  0  0
  190.0930  175.2790  136.3950 C   0  0  2  0  0  3  0  0  0  0  0  0
  189.6610  177.1800  134.9240 N   0  0  0  0  0  0  0  0  0  0  0  0
  185.9260  175.5640  137.4550 O   0  0  0  0  0  0  0  0  0  0  0  0
  191.3490  175.4640  138.4990 N   0  0  0  0  0  0  0  0  0  0  0  0
  191.2400  174.9040  137.3240 C   0  0  0  0  0  0  0  0  0  0  0  0
  188.8250  177.8320  140.2260 C   0  0  0  0  0  0  0  0  0  0  0  0
  189.1120  176.4920  138.3680 C   0  0  0  0  0  0  0  0  0  0  0  0
  190.5290  176.3840  135.4730 C   0  0  0  0  0  3  0  0  0  0  0  0
  194.6100  173.2340  136.8670 C   0  0  0  0  0  0  0  0  0  0  0  0
  194.2920  172.2140  135.9670 C   0  0  0  0  0  3  0  0  0  0  0  0
  192.2930  173.9740  136.8590 C   0  0  0  0  0  0  0  0  0  0  0  0
  192.9800  172.0710  135.5090 C   0  0  0  0  0  3  0  0  0  0  0  0
  193.6150  174.1090  137.3110 C   0  0  0  0  0  3  0  0  0  0  0  0
  191.9850  172.9470  135.9520 C   0  0  0  0  0  3  0  0  0  0  0  0
  195.8810  173.3730  137.3110 F   0  0  0  0  0  0  0  0  0  0  0  0
  188.1970  178.7120  141.1570 N   0  0  0  0  0  2  0  0  0  0  0  0
  186.9070  178.4070  141.7560 C   0  0  0  0  0  2  0  0  0  0  0  0
  184.8310  178.0490  143.7250 F   0  0  0  0  0  0  0  0  0  0  0  0
  187.1070  177.6900  143.0790 C   0  0  2  0  0  3  0  0  0  0  0  0
  186.1390  178.2500  144.1270 C   0  0  2  0  0  3  0  0  0  0  0  0
  187.8290  177.6290  145.8700 C   0  0  0  0  0  2  0  0  0  0  0  0
  188.6980  177.0830  144.7410 C   0  0  0  0  0  2  0  0  0  0  0  0
  188.4880  177.8700  143.5270 N   0  0  0  0  0  2  0  0  0  0  0  0
  186.3620  177.5490  145.4640 C   0  0  0  0  0  2  0  0  0  0  0  0
  1  8  2  0  0  0  0
  2 13  2  0  0  0  0
  3  8  1  6  0  0  0
  3 17  1  0  0  0  0
  4  9  1  0  0  0  0
  5  6  2  0  0  0  0
  6  2  1  0  0  0  0
  7 16  2  0  0  0  0
  8  2  1  0  0  0  0
 10  5  1  0  0  0  0
 10  1  1  0  0  0  0
 11 18  1  1  0  0  0
 11  3  1  0  0  0  0
 11 15  1  0  0  0  0
 12  1  1  0  0  0  0
 12 18  2  0  0  0  0
 14  4  1  0  0  0  0
 15 14  2  0  0  0  0
 16  9  1  0  0  0  0
 16 26  1  0  0  0  0
 17  4  2  0  0  0  0
 17  7  1  0  0  0  0
 19 25  1  0  0  0  0
 19 23  1  0  0  0  0
 20 19  2  0  0  0  0
 21 23  2  0  0  0  0
 21 15  1  0  0  0  0
 22 24  2  0  0  0  0
 22 20  1  0  0  0  0
 24 21  1  0  0  0  0
 26 27  1  0  0  0  0
 29 27  1  6  0  0  0
 29 33  1  0  0  0  0
 29 30  1  0  0  0  0
 30 28  1  6  0  0  0
 30 34  1  0  0  0  0
 32 31  1  0  0  0  0
 33 32  1  0  0  0  0
 34 31  1  0  0  0  0
M  END
>  <MODEL>
4

>  <REMARK>
 VINA RESULT:      -7.9      4.102      7.736
  Name = 
  4 active torsions:
  status: ('A' for Active; 'I' for Inactive)
    1  A    between atoms: C_3  and  C_13
    2  A    between atoms: C_3  and  N_17
    3  A    between atoms: C_12  and  C_28
    4  A    between atoms: N_17  and  C_29
                            x       y       z     vdW  Elec       q    Type
                         _______ _______ _______ _____ _____    ______ ____

>  <TORSDO>
F 4

$$$$
=
 OpenBabel10262423493D

 34 39  0  0  1  0  0  0  0  0999 V2000
  192.5410  176.5470  138.4450 C   0  0  0  0  0  0  0  0  0  0  0  0
  191.3050  174.6910  137.4360 C   0  0  0  0  0  0  0  0  0  0  0  0
  190.3460  175.9940  139.4550 C   0  0  1  0  0  3  0  0  0  0  0  0
  188.5090  177.6480  139.7930 C   0  0  0  0  0  0  0  0  0  0  0  0
  193.4540  175.2540  136.4560 C   0  0  0  0  0  3  0  0  0  0  0  0
  192.3860  174.4570  136.4770 C   0  0  0  0  0  3  0  0  0  0  0  0
  188.7770  176.9200  137.6020 C   0  0  0  0  0  3  0  0  0  0  0  0
  191.4450  175.7600  138.4440 C   0  0  0  0  0  0  0  0  0  0  0  0
  187.2570  178.4180  138.9870 S   0  0  0  0  0  0  0  0  0  0  0  0
  193.5960  176.4460  137.3670 C   0  0  0  0  0  2  0  0  0  0  0  0
  190.9110  176.5640  140.7840 C   0  0  2  0  0  3  0  0  0  0  0  0
  192.7030  177.5550  139.4540 N   0  0  0  0  0  0  0  0  0  0  0  0
  190.2780  173.9640  137.4070 O   0  0  0  0  0  0  0  0  0  0  0  0
  188.7630  177.6850  141.1970 N   0  0  0  0  0  0  0  0  0  0  0  0
  189.8360  177.1360  141.7000 C   0  0  0  0  0  0  0  0  0  0  0  0
  187.6710  177.7620  137.4880 C   0  0  0  0  0  0  0  0  0  0  0  0
  189.2540  176.8820  138.9190 C   0  0  0  0  0  0  0  0  0  0  0  0
  191.9590  177.6090  140.5180 C   0  0  0  0  0  3  0  0  0  0  0  0
  189.2550  177.6640  145.4070 C   0  0  0  0  0  0  0  0  0  0  0  0
  190.4660  177.2170  145.9420 C   0  0  0  0  0  3  0  0  0  0  0  0
  190.0510  177.1620  143.1640 C   0  0  0  0  0  0  0  0  0  0  0  0
  191.4710  176.7450  145.0950 C   0  0  0  0  0  3  0  0  0  0  0  0
  189.0490  177.6360  144.0250 C   0  0  0  0  0  3  0  0  0  0  0  0
  191.2650  176.7180  143.7120 C   0  0  0  0  0  3  0  0  0  0  0  0
  188.2800  178.1220  146.2270 F   0  0  0  0  0  0  0  0  0  0  0  0
  186.9530  178.0210  136.2820 N   0  0  0  0  0  2  0  0  0  0  0  0
  186.1220  177.0090  135.6480 C   0  0  0  0  0  2  0  0  0  0  0  0
  187.2710  174.4400  136.2740 F   0  0  0  0  0  0  0  0  0  0  0  0
  185.5660  176.0640  136.6980 C   0  0  2  0  0  3  0  0  0  0  0  0
  185.9000  174.6160  136.3250 C   0  0  2  0  0  3  0  0  0  0  0  0
  183.8260  173.9300  137.5530 C   0  0  0  0  0  2  0  0  0  0  0  0
  183.6100  175.4050  137.8810 C   0  0  0  0  0  2  0  0  0  0  0  0
  184.1160  176.2350  136.7900 N   0  0  0  0  0  2  0  0  0  0  0  0
  185.3150  173.6660  137.3670 C   0  0  0  0  0  2  0  0  0  0  0  0
  1 12  1  0  0  0  0
  2  8  1  0  0  0  0
  3  8  1  6  0  0  0
  3 11  1  0  0  0  0
  4 14  1  0  0  0  0
  5  6  2  0  0  0  0
  5 10  1  0  0  0  0
  6  2  1  0  0  0  0
  7 17  1  0  0  0  0
  8  1  2  0  0  0  0
  9  4  1  0  0  0  0
 10  1  1  0  0  0  0
 11 18  1  6  0  0  0
 11 15  1  0  0  0  0
 12 18  2  0  0  0  0
 13  2  2  0  0  0  0
 14 15  2  0  0  0  0
 15 21  1  0  0  0  0
 16  7  2  0  0  0  0
 16  9  1  0  0  0  0
 17  3  1  0  0  0  0
 17  4  2  0  0  0  0
 19 20  1  0  0  0  0
 19 25  1  0  0  0  0
 21 24  2  0  0  0  0
 21 23  1  0  0  0  0
 22 20  2  0  0  0  0
 23 19  2  0  0  0  0
 24 22  1  0  0  0  0
 26 16  1  0  0  0  0
 27 26  1  0  0  0  0
 29 27  1  6  0  0  0
 29 33  1  0  0  0  0
 30 28  1  1  0  0  0
 30 29  1  0  0  0  0
 30 34  1  0  0  0  0
 31 32  1  0  0  0  0
 33 32  1  0  0  0  0
 34 31  1  0  0  0  0
M  END
>  <MODEL>
5

>  <REMARK>
 VINA RESULT:      -7.7      3.630      8.269
  Name = 
  4 active torsions:
  status: ('A' for Active; 'I' for Inactive)
    1  A    between atoms: C_3  and  C_13
    2  A    between atoms: C_3  and  N_17
    3  A    between atoms: C_12  and  C_28
    4  A    between atoms: N_17  and  C_29
                            x       y       z     vdW  Elec       q    Type
                         _______ _______ _______ _____ _____    ______ ____

>  <TORSDO>
F 4

$$$$
=
 OpenBabel10262423493D

 34 39  0  0  1  0  0  0  0  0999 V2000
  192.3460  177.1760  139.6230 C   0  0  0  0  0  0  0  0  0  0  0  0
  191.0590  175.4690  138.4310 C   0  0  0  0  0  0  0  0  0  0  0  0
  190.2630  176.3890  140.7150 C   0  0  1  0  0  3  0  0  0  0  0  0
  188.4330  177.9000  141.4810 C   0  0  0  0  0  0  0  0  0  0  0  0
  193.0970  176.2580  137.3750 C   0  0  0  0  0  3  0  0  0  0  0  0
  192.0520  175.4320  137.3560 C   0  0  0  0  0  3  0  0  0  0  0  0
  188.5130  177.5500  139.1860 C   0  0  0  0  0  3  0  0  0  0  0  0
  191.2700  176.3620  139.5870 C   0  0  0  0  0  0  0  0  0  0  0  0
  187.0970  178.7480  140.9270 S   0  0  0  0  0  0  0  0  0  0  0  0
  193.2980  177.2890  138.4560 C   0  0  0  0  0  2  0  0  0  0  0  0
  190.9360  176.7530  142.0660 C   0  0  2  0  0  3  0  0  0  0  0  0
  192.5790  178.0100  140.7670 N   0  0  0  0  0  0  0  0  0  0  0  0
  190.0480  174.7210  138.3720 O   0  0  0  0  0  0  0  0  0  0  0  0
  188.8140  177.7160  142.8450 N   0  0  0  0  0  0  0  0  0  0  0  0
  189.9390  177.1300  143.1540 C   0  0  0  0  0  0  0  0  0  0  0  0
  187.3850  178.3610  139.3100 C   0  0  0  0  0  0  0  0  0  0  0  0
  189.1090  177.3140  140.4310 C   0  0  0  0  0  0  0  0  0  0  0  0
  191.9350  177.8640  141.8870 C   0  0  0  0  0  3  0  0  0  0  0  0
  189.7250  177.1060  146.9370 C   0  0  0  0  0  0  0  0  0  0  0  0
  190.9540  176.5370  147.2790 C   0  0  0  0  0  3  0  0  0  0  0  0
  190.2870  176.9230  144.5780 C   0  0  0  0  0  0  0  0  0  0  0  0
  191.8520  176.1610  146.2780 C   0  0  0  0  0  3  0  0  0  0  0  0
  189.3940  177.2980  145.5930 C   0  0  0  0  0  3  0  0  0  0  0  0
  191.5200  176.3540  144.9330 C   0  0  0  0  0  3  0  0  0  0  0  0
  188.8540  177.4710  147.9070 F   0  0  0  0  0  0  0  0  0  0  0  0
  186.5540  178.7890  138.2310 N   0  0  0  0  0  2  0  0  0  0  0  0
  185.4770  177.9590  137.7120 C   0  0  0  0  0  2  0  0  0  0  0  0
  185.3430  175.1170  137.2480 F   0  0  0  0  0  0  0  0  0  0  0  0
  185.9170  177.2880  136.4230 C   0  0  2  0  0  3  0  0  0  0  0  0
  186.3820  175.8570  136.7130 C   0  0  2  0  0  3  0  0  0  0  0  0
  187.9000  176.0570  134.7290 C   0  0  0  0  0  2  0  0  0  0  0  0
  187.3450  177.4640  134.5280 C   0  0  0  0  0  2  0  0  0  0  0  0
  187.0080  178.0560  135.8210 N   0  0  0  0  0  2  0  0  0  0  0  0
  186.8520  175.1940  135.4220 C   0  0  0  0  0  2  0  0  0  0  0  0
  1 12  1  0  0  0  0
  2  8  1  0  0  0  0
  3  8  1  6  0  0  0
  3 11  1  0  0  0  0
  4 14  1  0  0  0  0
  5 10  1  0  0  0  0
  6  5  2  0  0  0  0
  6  2  1  0  0  0  0
  7 16  2  0  0  0  0
  7 17  1  0  0  0  0
  8  1  2  0  0  0  0
  9  4  1  0  0  0  0
 10  1  1  0  0  0  0
 11 18  1  6  0  0  0
 11 15  1  0  0  0  0
 12 18  2  0  0  0  0
 13  2  2  0  0  0  0
 14 15  2  0  0  0  0
 15 21  1  0  0  0  0
 16  9  1  0  0  0  0
 17  3  1  0  0  0  0
 17  4  2  0  0  0  0
 19 20  1  0  0  0  0
 19 25  1  0  0  0  0
 21 24  2  0  0  0  0
 21 23  1  0  0  0  0
 22 20  2  0  0  0  0
 23 19  2  0  0  0  0
 24 22  1  0  0  0  0
 26 16  1  0  0  0  0
 27 26  1  0  0  0  0
 29 30  1  0  0  0  0
 29 27  1  1  0  0  0
 30 28  1  6  0  0  0
 31 34  1  0  0  0  0
 32 31  1  0  0  0  0
 32 33  1  0  0  0  0
 33 29  1  0  0  0  0
 34 30  1  0  0  0  0
M  END
>  <MODEL>
6

>  <REMARK>
 VINA RESULT:      -7.6      3.097      8.544
  Name = 
  4 active torsions:
  status: ('A' for Active; 'I' for Inactive)
    1  A    between atoms: C_3  and  C_13
    2  A    between atoms: C_3  and  N_17
    3  A    between atoms: C_12  and  C_28
    4  A    between atoms: N_17  and  C_29
                            x       y       z     vdW  Elec       q    Type
                         _______ _______ _______ _____ _____    ______ ____

>  <TORSDO>
F 4

$$$$
=
 OpenBabel10262423493D

 34 39  0  0  1  0  0  0  0  0999 V2000
  190.3430  177.2650  144.9300 C   0  0  0  0  0  0  0  0  0  0  0  0
  190.7850  175.1150  143.8460 C   0  0  0  0  0  0  0  0  0  0  0  0
  188.7980  176.6000  143.1080 C   0  0  1  0  0  3  0  0  0  0  0  0
  188.2830  178.0230  141.1260 C   0  0  0  0  0  0  0  0  0  0  0  0
  192.2910  175.7890  145.6260 C   0  0  0  0  0  3  0  0  0  0  0  0
  191.9220  174.8700  144.7340 C   0  0  0  0  0  3  0  0  0  0  0  0
  190.3570  176.9780  141.0650 C   0  0  0  0  0  3  0  0  0  0  0  0
  189.9900  176.3480  144.0040 C   0  0  0  0  0  0  0  0  0  0  0  0
  188.8830  178.4700  139.6250 S   0  0  0  0  0  0  0  0  0  0  0  0
  191.6070  177.1260  145.7460 C   0  0  0  0  0  2  0  0  0  0  0  0
  187.7210  177.4570  143.8260 C   0  0  2  0  0  3  0  0  0  0  0  0
  189.5440  178.4420  145.1200 N   0  0  0  0  0  0  0  0  0  0  0  0
  190.4820  174.2620  142.9710 O   0  0  0  0  0  0  0  0  0  0  0  0
  186.9910  178.3320  141.6480 N   0  0  0  0  0  0  0  0  0  0  0  0
  186.6730  178.0270  142.8780 C   0  0  0  0  0  0  0  0  0  0  0  0
  190.3330  177.6320  139.8330 C   0  0  0  0  0  0  0  0  0  0  0  0
  189.1900  177.2280  141.7970 C   0  0  0  0  0  0  0  0  0  0  0  0
  188.3570  178.5750  144.6070 C   0  0  0  0  0  3  0  0  0  0  0  0
  182.9540  178.7450  142.9560 C   0  0  0  0  0  0  0  0  0  0  0  0
  182.7340  178.9100  144.3260 C   0  0  0  0  0  3  0  0  0  0  0  0
  185.3130  178.3290  143.3770 C   0  0  0  0  0  0  0  0  0  0  0  0
  183.7970  178.7880  145.2230 C   0  0  0  0  0  3  0  0  0  0  0  0
  184.2370  178.4550  142.4840 C   0  0  0  0  0  3  0  0  0  0  0  0
  185.0810  178.4990  144.7510 C   0  0  0  0  0  3  0  0  0  0  0  0
  181.9230  178.8630  142.0860 F   0  0  0  0  0  0  0  0  0  0  0  0
  191.3690  177.5830  138.8530 N   0  0  0  0  0  2  0  0  0  0  0  0
  192.3820  176.5380  138.8540 C   0  0  0  0  0  2  0  0  0  0  0  0
  191.3060  174.1260  137.6990 F   0  0  0  0  0  0  0  0  0  0  0  0
  192.6560  176.0830  137.4310 C   0  0  2  0  0  3  0  0  0  0  0  0
  192.5730  174.5550  137.3490 C   0  0  2  0  0  3  0  0  0  0  0  0
  194.2080  174.6730  135.4520 C   0  0  0  0  0  2  0  0  0  0  0  0
  194.1900  176.1900  135.6160 C   0  0  0  0  0  2  0  0  0  0  0  0
  193.9860  176.5350  137.0220 N   0  0  0  0  0  2  0  0  0  0  0  0
  192.8780  174.0970  135.9250 C   0  0  0  0  0  2  0  0  0  0  0  0
  1 12  1  0  0  0  0
  1 10  1  0  0  0  0
  2  8  1  0  0  0  0
  2  6  1  0  0  0  0
  3 17  1  6  0  0  0
  3 11  1  0  0  0  0
  3  8  1  0  0  0  0
  4 14  1  0  0  0  0
  4 17  2  0  0  0  0
  5 10  1  0  0  0  0
  6  5  2  0  0  0  0
  7 17  1  0  0  0  0
  8  1  2  0  0  0  0
  9 16  1  0  0  0  0
  9  4  1  0  0  0  0
 11 18  1  6  0  0  0
 13  2  2  0  0  0  0
 14 15  2  0  0  0  0
 15 21  1  0  0  0  0
 15 11  1  0  0  0  0
 16  7  2  0  0  0  0
 18 12  2  0  0  0  0
 19 20  1  0  0  0  0
 20 22  2  0  0  0  0
 21 24  2  0  0  0  0
 23 19  2  0  0  0  0
 23 21  1  0  0  0  0
 24 22  1  0  0  0  0
 25 19  1  0  0  0  0
 26 27  1  0  0  0  0
 26 16  1  0  0  0  0
 29 27  1  1  0  0  0
 30 29  1  0  0  0  0
 30 28  1  6  0  0  0
 31 32  1  0  0  0  0
 31 34  1  0  0  0  0
 32 33  1  0  0  0  0
 33 29  1  0  0  0  0
 34 30  1  0  0  0  0
M  END
>  <MODEL>
7

>  <REMARK>
 VINA RESULT:      -7.6      3.964      7.368
  Name = 
  4 active torsions:
  status: ('A' for Active; 'I' for Inactive)
    1  A    between atoms: C_3  and  C_13
    2  A    between atoms: C_3  and  N_17
    3  A    between atoms: C_12  and  C_28
    4  A    between atoms: N_17  and  C_29
                            x       y       z     vdW  Elec       q    Type
                         _______ _______ _______ _____ _____    ______ ____

>  <TORSDO>
F 4

$$$$
=
 OpenBabel10262423493D

 34 39  0  0  1  0  0  0  0  0999 V2000
  192.2620  177.1490  139.5360 C   0  0  0  0  0  0  0  0  0  0  0  0
  190.9960  175.4380  138.3270 C   0  0  0  0  0  0  0  0  0  0  0  0
  190.1470  176.3850  140.5810 C   0  0  1  0  0  3  0  0  0  0  0  0
  188.3070  177.9140  141.2860 C   0  0  0  0  0  0  0  0  0  0  0  0
  193.0660  176.2060  137.3170 C   0  0  0  0  0  3  0  0  0  0  0  0
  192.0170  175.3860  137.2790 C   0  0  0  0  0  3  0  0  0  0  0  0
  188.4440  177.5420  138.9960 C   0  0  0  0  0  3  0  0  0  0  0  0
  191.1830  176.3410  139.4800 C   0  0  0  0  0  0  0  0  0  0  0  0
  186.9910  178.7640  140.6890 S   0  0  0  0  0  0  0  0  0  0  0  0
  193.2450  177.2470  138.3930 C   0  0  0  0  0  2  0  0  0  0  0  0
  190.7880  176.7570  141.9450 C   0  0  2  0  0  3  0  0  0  0  0  0
  192.4710  177.9930  140.6780 N   0  0  0  0  0  0  0  0  0  0  0  0
  189.9830  174.6960  138.2480 O   0  0  0  0  0  0  0  0  0  0  0  0
  188.6520  177.7400  142.6600 N   0  0  0  0  0  0  0  0  0  0  0  0
  189.7650  177.1500  143.0040 C   0  0  0  0  0  0  0  0  0  0  0  0
  187.3180  178.3610  139.0830 C   0  0  0  0  0  0  0  0  0  0  0  0
  189.0070  177.3140  140.2580 C   0  0  0  0  0  0  0  0  0  0  0  0
  191.7970  177.8610  141.7820 C   0  0  0  0  0  3  0  0  0  0  0  0
  191.5860  176.2000  146.1880 C   0  0  0  0  0  0  0  0  0  0  0  0
  190.6560  176.5780  147.1600 C   0  0  0  0  0  3  0  0  0  0  0  0
  190.0750  176.9550  144.4380 C   0  0  0  0  0  0  0  0  0  0  0  0
  189.4370  177.1410  146.7780 C   0  0  0  0  0  3  0  0  0  0  0  0
  191.2960  176.3880  144.8340 C   0  0  0  0  0  3  0  0  0  0  0  0
  189.1470  177.3290  145.4230 C   0  0  0  0  0  3  0  0  0  0  0  0
  192.7680  175.6540  146.5580 F   0  0  0  0  0  0  0  0  0  0  0  0
  186.5180  178.7820  137.9800 N   0  0  0  0  0  2  0  0  0  0  0  0
  185.4690  177.9430  137.4230 C   0  0  0  0  0  2  0  0  0  0  0  0
  184.1920  175.3890  137.8210 F   0  0  0  0  0  0  0  0  0  0  0  0
  184.4050  177.6800  138.4740 C   0  0  2  0  0  3  0  0  0  0  0  0
  183.4750  176.5560  138.0050 C   0  0  2  0  0  3  0  0  0  0  0  0
  181.6690  177.6160  139.3830 C   0  0  0  0  0  2  0  0  0  0  0  0
  182.6930  178.6690  139.7970 C   0  0  0  0  0  2  0  0  0  0  0  0
  183.6350  178.9030  138.7050 N   0  0  0  0  0  2  0  0  0  0  0  0
  182.3890  176.3140  139.0490 C   0  0  0  0  0  2  0  0  0  0  0  0
  1 12  1  0  0  0  0
  2  8  1  0  0  0  0
  3  8  1  6  0  0  0
  3 11  1  0  0  0  0
  4 14  1  0  0  0  0
  5 10  1  0  0  0  0
  6  5  2  0  0  0  0
  6  2  1  0  0  0  0
  7 16  2  0  0  0  0
  7 17  1  0  0  0  0
  8  1  2  0  0  0  0
  9  4  1  0  0  0  0
 10  1  1  0  0  0  0
 11 18  1  6  0  0  0
 11 15  1  0  0  0  0
 12 18  2  0  0  0  0
 13  2  2  0  0  0  0
 14 15  2  0  0  0  0
 15 21  1  0  0  0  0
 16  9  1  0  0  0  0
 17  3  1  0  0  0  0
 17  4  2  0  0  0  0
 19 25  1  0  0  0  0
 19 20  1  0  0  0  0
 21 23  1  0  0  0  0
 21 24  2  0  0  0  0
 22 20  2  0  0  0  0
 23 19  2  0  0  0  0
 24 22  1  0  0  0  0
 26 16  1  0  0  0  0
 27 26  1  0  0  0  0
 29 27  1  6  0  0  0
 29 33  1  0  0  0  0
 30 28  1  1  0  0  0
 30 29  1  0  0  0  0
 30 34  1  0  0  0  0
 31 32  1  0  0  0  0
 33 32  1  0  0  0  0
 34 31  1  0  0  0  0
M  END
>  <MODEL>
8

>  <REMARK>
 VINA RESULT:      -7.4      2.889      8.405
  Name = 
  4 active torsions:
  status: ('A' for Active; 'I' for Inactive)
    1  A    between atoms: C_3  and  C_13
    2  A    between atoms: C_3  and  N_17
    3  A    between atoms: C_12  and  C_28
    4  A    between atoms: N_17  and  C_29
                            x       y       z     vdW  Elec       q    Type
                         _______ _______ _______ _____ _____    ______ ____

>  <TORSDO>
F 4

$$$$
=
 OpenBabel10262423493D

 34 39  0  0  1  0  0  0  0  0999 V2000
  190.3600  177.2270  144.8510 C   0  0  0  0  0  0  0  0  0  0  0  0
  190.7850  175.0450  143.8280 C   0  0  0  0  0  0  0  0  0  0  0  0
  188.8280  176.5370  143.0270 C   0  0  1  0  0  3  0  0  0  0  0  0
  188.3590  177.9160  141.0020 C   0  0  0  0  0  0  0  0  0  0  0  0
  192.2780  175.7430  145.6100 C   0  0  0  0  0  3  0  0  0  0  0  0
  191.9070  174.8070  144.7370 C   0  0  0  0  0  3  0  0  0  0  0  0
  190.4180  176.8410  140.9950 C   0  0  0  0  0  3  0  0  0  0  0  0
  190.0050  176.2920  143.9450 C   0  0  0  0  0  0  0  0  0  0  0  0
  188.9830  178.3160  139.4990 S   0  0  0  0  0  0  0  0  0  0  0  0
  191.6110  177.0930  145.6870 C   0  0  0  0  0  2  0  0  0  0  0  0
  187.7550  177.4280  143.7080 C   0  0  2  0  0  3  0  0  0  0  0  0
  189.5750  178.4200  145.0000 N   0  0  0  0  0  0  0  0  0  0  0  0
  190.4810  174.1740  142.9710 O   0  0  0  0  0  0  0  0  0  0  0  0
  187.0640  178.2560  141.5000 N   0  0  0  0  0  0  0  0  0  0  0  0
  186.7270  177.9870  142.7330 C   0  0  0  0  0  0  0  0  0  0  0  0
  190.4190  177.4640  139.7460 C   0  0  0  0  0  0  0  0  0  0  0  0
  189.2460  177.1260  141.7050 C   0  0  0  0  0  0  0  0  0  0  0  0
  188.3960  178.5560  144.4690 C   0  0  0  0  0  3  0  0  0  0  0  0
  183.8160  178.7870  145.0220 C   0  0  0  0  0  0  0  0  0  0  0  0
  182.7760  178.9450  144.1010 C   0  0  0  0  0  3  0  0  0  0  0  0
  185.3640  178.3200  143.2060 C   0  0  0  0  0  0  0  0  0  0  0  0
  183.0240  178.7900  142.7350 C   0  0  0  0  0  3  0  0  0  0  0  0
  185.1030  178.4770  144.5760 C   0  0  0  0  0  3  0  0  0  0  0  0
  184.3130  178.4780  142.2900 C   0  0  0  0  0  3  0  0  0  0  0  0
  183.5760  178.9380  146.3460 F   0  0  0  0  0  0  0  0  0  0  0  0
  191.4660  177.3750  138.7820 N   0  0  0  0  0  2  0  0  0  0  0  0
  191.2370  176.8620  137.4400 C   0  0  0  0  0  2  0  0  0  0  0  0
  191.7850  174.0460  137.7220 F   0  0  0  0  0  0  0  0  0  0  0  0
  190.1650  175.7880  137.4730 C   0  0  2  0  0  3  0  0  0  0  0  0
  190.7310  174.4700  136.9340 C   0  0  2  0  0  3  0  0  0  0  0  0
  188.4050  173.8910  136.2000 C   0  0  0  0  0  2  0  0  0  0  0  0
  187.9560  175.2240  136.7930 C   0  0  0  0  0  2  0  0  0  0  0  0
  189.0240  176.2120  136.6610 N   0  0  0  0  0  2  0  0  0  0  0  0
  189.6430  173.3990  136.9410 C   0  0  0  0  0  2  0  0  0  0  0  0
  1 12  1  0  0  0  0
  1 10  1  0  0  0  0
  2  8  1  0  0  0  0
  2  6  1  0  0  0  0
  3 17  1  6  0  0  0
  3 11  1  0  0  0  0
  3  8  1  0  0  0  0
  4 14  1  0  0  0  0
  4 17  2  0  0  0  0
  5 10  1  0  0  0  0
  6  5  2  0  0  0  0
  7 17  1  0  0  0  0
  8  1  2  0  0  0  0
  9 16  1  0  0  0  0
  9  4  1  0  0  0  0
 11 18  1  6  0  0  0
 13  2  2  0  0  0  0
 14 15  2  0  0  0  0
 15 21  1  0  0  0  0
 15 11  1  0  0  0  0
 16  7  2  0  0  0  0
 18 12  2  0  0  0  0
 19 25  1  0  0  0  0
 20 19  2  0  0  0  0
 21 23  2  0  0  0  0
 22 20  1  0  0  0  0
 23 19  1  0  0  0  0
 24 22  2  0  0  0  0
 24 21  1  0  0  0  0
 26 16  1  0  0  0  0
 27 26  1  0  0  0  0
 29 27  1  6  0  0  0
 30 34  1  0  0  0  0
 30 29  1  0  0  0  0
 30 28  1  1  0  0  0
 31 32  1  0  0  0  0
 31 34  1  0  0  0  0
 33 32  1  0  0  0  0
 33 29  1  0  0  0  0
M  END
>  <MODEL>
9

>  <REMARK>
 VINA RESULT:      -7.2      3.592      7.409
  Name = 
  4 active torsions:
  status: ('A' for Active; 'I' for Inactive)
    1  A    between atoms: C_3  and  C_13
    2  A    between atoms: C_3  and  N_17
    3  A    between atoms: C_12  and  C_28
    4  A    between atoms: N_17  and  C_29
                            x       y       z     vdW  Elec       q    Type
                         _______ _______ _______ _____ _____    ______ ____

>  <TORSDO>
F 4

$$$$
