=
 OpenBabel10272402063D

 32 37  0  0  1  0  0  0  0  0999 V2000
  187.4280  176.9700  142.4830 C   0  0  1  0  0  3  0  0  0  0  0  0
  187.2510  178.9310  141.0650 C   0  0  2  0  0  3  0  0  0  0  0  0
  191.6000  178.2640  144.0990 C   0  0  1  0  0  3  0  0  0  0  0  0
  187.6780  176.7480  143.9650 C   0  0  0  0  0  2  0  0  0  0  0  0
  186.6160  178.2260  142.2660 C   0  0  1  0  0  3  0  0  0  0  0  0
  186.4720  178.7270  139.7450 C   0  0  2  0  0  3  0  0  0  0  0  0
  192.1680  179.4860  144.4590 O   0  0  0  0  0  1  0  0  0  0  0  0
  189.7900  175.9370  138.6510 N   0  0  0  0  0  0  0  0  0  0  0  0
  188.6600  178.3310  140.9690 C   0  0  1  0  0  3  0  0  0  0  0  0
  187.8650  175.4270  137.3180 C   0  0  0  0  0  2  0  0  0  0  0  0
  187.9890  177.5410  138.5910 C   0  0  1  0  0  3  0  0  0  0  0  0
  184.9640  178.9860  139.8390 C   0  0  2  0  0  3  0  0  0  0  0  0
  191.1670  177.4870  145.3580 C   0  0  1  0  0  3  0  0  0  0  0  0
  189.1620  176.5280  144.1000 C   0  0  2  0  0  3  0  0  0  0  0  0
  186.7390  177.4480  139.2370 O   0  0  0  0  0  0  0  0  0  0  0  0
  185.1410  177.8580  142.0980 C   0  0  0  0  0  2  0  0  0  0  0  0
  189.6660  177.1770  145.3970 C   0  0  0  0  0  2  0  0  0  0  0  0
  190.4830  178.4700  143.0690 C   0  0  2  0  0  3  0  0  0  0  0  0
  189.5840  179.4460  143.5130 O   0  0  0  0  0  1  0  0  0  0  0  0
  188.7090  177.1120  141.7920 N   0  0  1  0  0  0  0  0  0  0  0  0
  184.6710  180.2340  139.2920 O   0  0  0  0  0  1  0  0  0  0  0  0
  189.7630  177.1220  142.8270 C   0  0  2  0  0  3  0  0  0  0  0  0
  189.1190  178.0630  139.5150 C   0  0  2  0  0  3  0  0  0  0  0  0
  184.4160  178.9110  141.2710 C   0  0  2  0  0  3  0  0  0  0  0  0
  188.4740  176.1990  138.2070 C   0  0  0  0  0  0  0  0  0  0  0  0
  190.2780  177.0600  139.4290 C   0  0  0  0  0  3  0  0  0  0  0  0
  182.9630  178.7230  141.2950 N   0  0  0  0  0  2  0  0  0  0  0  0
  182.4500  178.8340  142.6570 C   0  0  0  0  0  2  0  0  0  0  0  0
  180.9520  179.0470  142.6150 C   0  0  0  0  0  1  0  0  0  0  0  0
  191.9750  176.2080  145.5010 C   0  0  0  0  0  2  0  0  0  0  0  0
  192.4140  175.8620  147.6360 C   0  0  0  0  0  1  0  0  0  0  0  0
  191.5400  175.4890  146.6150 O   0  0  0  0  0  0  0  0  0  0  0  0
  1  4  1  1  0  0  0
  2  5  1  0  0  0  0
  3  7  1  0  0  0  0
  3 13  1  0  0  0  0
  4 14  1  0  0  0  0
  5  1  1  0  0  0  0
  6 12  1  0  0  0  0
  6  2  1  0  0  0  0
  8 26  2  0  0  0  0
  9  2  1  0  0  0  0
  9 20  1  0  0  0  0
 10 25  2  0  0  0  0
 11 15  1  0  0  0  0
 11 23  1  0  0  0  0
 12 24  1  0  0  0  0
 13 17  1  0  0  0  0
 13 30  1  0  0  0  0
 14 17  1  0  0  0  0
 15  6  1  0  0  0  0
 16  5  1  0  0  0  0
 18 19  1  0  0  0  0
 18  3  1  0  0  0  0
 20  1  1  0  0  0  0
 20 22  1  0  0  0  0
 21 12  1  0  0  0  0
 22 18  1  0  0  0  0
 22 14  1  0  0  0  0
 23  9  1  0  0  0  0
 24 27  1  0  0  0  0
 24 16  1  0  0  0  0
 25 11  1  0  0  0  0
 25  8  1  0  0  0  0
 26 23  1  0  0  0  0
 27 28  1  0  0  0  0
 29 28  1  0  0  0  0
 30 32  1  0  0  0  0
 32 31  1  0  0  0  0
M  END
>  <MODEL>
1

>  <REMARK>
 VINA RESULT:      -6.8      0.000      0.000
  Name = 
  4 active torsions:
  status: ('A' for Active; 'I' for Inactive)
    1  A    between atoms: N_14  and  C_21
    2  A    between atoms: N_14  and  C_29
    3  A    between atoms: C_15  and  C_19
    4  A    between atoms: C_19  and  O_26
                            x       y       z     vdW  Elec       q    Type
                         _______ _______ _______ _____ _____    ______ ____

>  <TORSDO>
F 4

$$$$
=
 OpenBabel10272402063D

 32 37  0  0  1  0  0  0  0  0999 V2000
  189.2980  174.6450  137.2960 C   0  0  1  0  0  3  0  0  0  0  0  0
  190.7560  176.5380  136.8720 C   0  0  2  0  0  3  0  0  0  0  0  0
  185.6060  176.8190  135.4700 C   0  0  1  0  0  3  0  0  0  0  0  0
  188.3730  173.8020  136.4360 C   0  0  0  0  0  2  0  0  0  0  0  0
  190.5130  175.0730  136.5050 C   0  0  1  0  0  3  0  0  0  0  0  0
  191.8960  176.7390  137.8960 C   0  0  2  0  0  3  0  0  0  0  0  0
  185.4160  177.6630  134.3760 O   0  0  0  0  0  1  0  0  0  0  0  0
  188.6220  177.5370  140.8330 N   0  0  0  0  0  0  0  0  0  0  0  0
  189.4150  177.0180  137.4450 C   0  0  1  0  0  3  0  0  0  0  0  0
  190.6100  176.9240  142.0220 C   0  0  0  0  0  1  0  0  0  0  0  0
  190.7130  177.5330  139.6310 C   0  0  1  0  0  3  0  0  0  0  0  0
  193.1990  176.0010  137.5640 C   0  0  2  0  0  3  0  0  0  0  0  0
  185.1450  175.3890  135.1250 C   0  0  1  0  0  3  0  0  0  0  0  0
  187.0070  174.4180  136.5790 C   0  0  2  0  0  3  0  0  0  0  0  0
  191.4380  176.4110  139.1790 O   0  0  0  0  0  0  0  0  0  0  0  0
  191.6760  174.1270  136.8060 C   0  0  0  0  0  2  0  0  0  0  0  0
  186.2620  174.3450  135.2380 C   0  0  0  0  0  2  0  0  0  0  0  0
  187.0490  176.9120  135.9800 C   0  0  2  0  0  3  0  0  0  0  0  0
  187.9510  176.7430  134.9240 O   0  0  0  0  0  1  0  0  0  0  0  0
  188.5840  175.8410  137.7460 N   0  0  1  0  0  0  0  0  0  0  0  0
  194.1230  176.9020  137.0360 O   0  0  0  0  0  1  0  0  0  0  0  0
  187.2690  175.8400  137.0740 C   0  0  2  0  0  3  0  0  0  0  0  0
  189.5640  177.9460  138.6740 C   0  0  2  0  0  3  0  0  0  0  0  0
  193.0100  174.8310  136.5900 C   0  0  2  0  0  3  0  0  0  0  0  0
  189.9970  177.2170  140.8840 C   0  0  0  0  0  0  0  0  0  0  0  0
  188.2830  178.0380  139.5140 C   0  0  0  0  0  2  0  0  0  0  0  0
  194.1370  173.8950  136.6290 N   0  0  0  0  0  2  0  0  0  0  0  0
  194.5990  173.7000  138.0000 C   0  0  0  0  0  2  0  0  0  0  0  0
  195.3570  172.3930  138.0960 C   0  0  0  0  0  1  0  0  0  0  0  0
  183.9570  174.9880  135.9840 C   0  0  0  0  0  2  0  0  0  0  0  0
  183.3570  175.2040  138.0960 C   0  0  0  0  0  1  0  0  0  0  0  0
  183.7410  175.9430  136.9770 O   0  0  0  0  0  0  0  0  0  0  0  0
  1  4  1  6  0  0  0
  1 20  1  0  0  0  0
  2  9  1  0  0  0  0
  2  6  1  0  0  0  0
  3 18  1  0  0  0  0
  4 14  1  0  0  0  0
  5 16  1  0  0  0  0
  5  2  1  0  0  0  0
  5  1  1  0  0  0  0
  6 15  1  0  0  0  0
  7  3  1  0  0  0  0
  8 25  2  0  0  0  0
  9 20  1  0  0  0  0
  9 23  1  0  0  0  0
 11 25  1  0  0  0  0
 12  6  1  0  0  0  0
 13 17  1  0  0  0  0
 13  3  1  0  0  0  0
 13 30  1  0  0  0  0
 14 22  1  0  0  0  0
 15 11  1  0  0  0  0
 17 14  1  0  0  0  0
 18 22  1  0  0  0  0
 19 18  1  0  0  0  0
 21 12  1  0  0  0  0
 22 20  1  0  0  0  0
 23 26  1  0  0  0  0
 23 11  1  0  0  0  0
 24 27  1  0  0  0  0
 24 16  1  0  0  0  0
 24 12  1  0  0  0  0
 25 10  1  0  0  0  0
 26  8  1  0  0  0  0
 27 28  1  0  0  0  0
 28 29  1  0  0  0  0
 30 32  1  0  0  0  0
 32 31  1  0  0  0  0
M  END
>  <MODEL>
2

>  <REMARK>
 VINA RESULT:      -6.2      3.821      9.093
  Name = 
  4 active torsions:
  status: ('A' for Active; 'I' for Inactive)
    1  A    between atoms: N_14  and  C_21
    2  A    between atoms: N_14  and  C_29
    3  A    between atoms: C_15  and  C_19
    4  A    between atoms: C_19  and  O_26
                            x       y       z     vdW  Elec       q    Type
                         _______ _______ _______ _____ _____    ______ ____

>  <TORSDO>
F 4

$$$$
=
 OpenBabel10272402063D

 32 37  0  0  1  0  0  0  0  0999 V2000
  190.0480  175.4820  137.5850 C   0  0  1  0  0  3  0  0  0  0  0  0
  189.1610  176.2380  135.4560 C   0  0  2  0  0  3  0  0  0  0  0  0
  194.1390  174.3060  135.6950 C   0  0  1  0  0  3  0  0  0  0  0  0
  191.2880  175.8120  138.3970 C   0  0  0  0  0  2  0  0  0  0  0  0
  189.5490  176.7110  136.8590 C   0  0  1  0  0  3  0  0  0  0  0  0
  187.6390  176.0460  135.2670 C   0  0  2  0  0  3  0  0  0  0  0  0
  194.9570  174.8700  134.7150 O   0  0  0  0  0  1  0  0  0  0  0  0
  188.5380  171.6710  135.4580 N   0  0  0  0  0  0  0  0  0  0  0  0
  189.9070  174.9080  135.2800 C   0  0  1  0  0  3  0  0  0  0  0  0
  186.2220  172.0190  135.9670 C   0  0  0  0  0  1  0  0  0  0  0  0
  187.5720  173.8240  134.9560 C   0  0  1  0  0  3  0  0  0  0  0  0
  186.7770  177.2220  135.7420 C   0  0  2  0  0  3  0  0  0  0  0  0
  194.6900  174.6280  137.0980 C   0  0  1  0  0  3  0  0  0  0  0  0
  192.3120  174.7750  138.0190 C   0  0  2  0  0  3  0  0  0  0  0  0
  187.2380  174.8460  135.8690 O   0  0  0  0  0  0  0  0  0  0  0  0
  188.4190  177.3550  137.6630 C   0  0  0  0  0  2  0  0  0  0  0  0
  193.7070  175.4150  137.9730 C   0  0  0  0  0  2  0  0  0  0  0  0
  192.6780  174.7170  135.4810 C   0  0  2  0  0  3  0  0  0  0  0  0
  192.5770  176.1060  135.3370 O   0  0  0  0  0  1  0  0  0  0  0  0
  190.3750  174.4520  136.5980 N   0  0  1  0  0  0  0  0  0  0  0  0
  186.3640  177.9710  134.6410 O   0  0  0  0  0  1  0  0  0  0  0  0
  191.8310  174.2220  136.6780 C   0  0  2  0  0  3  0  0  0  0  0  0
  189.0710  173.8220  134.5590 C   0  0  2  0  0  3  0  0  0  0  0  0
  187.4880  178.1380  136.7470 C   0  0  2  0  0  3  0  0  0  0  0  0
  187.3960  172.4960  135.5790 C   0  0  0  0  0  0  0  0  0  0  0  0
  189.6040  172.4020  134.7970 C   0  0  0  0  0  2  0  0  0  0  0  0
  186.5430  178.9650  137.5030 N   0  0  0  0  0  2  0  0  0  0  0  0
  185.5090  178.1370  138.1170 C   0  0  0  0  0  2  0  0  0  0  0  0
  184.9980  178.8160  139.3700 C   0  0  0  0  0  1  0  0  0  0  0  0
  195.1270  173.3560  137.8060 C   0  0  0  0  0  2  0  0  0  0  0  0
  196.9570  174.2270  138.6780 C   0  0  0  0  0  1  0  0  0  0  0  0
  195.7260  173.6700  139.0260 O   0  0  0  0  0  0  0  0  0  0  0  0
  1  4  1  6  0  0  0
  2  5  1  0  0  0  0
  3 13  1  0  0  0  0
  5  1  1  0  0  0  0
  5 16  1  0  0  0  0
  6  2  1  0  0  0  0
  6 12  1  0  0  0  0
  6 15  1  0  0  0  0
  7  3  1  0  0  0  0
  8 25  2  0  0  0  0
  9  2  1  0  0  0  0
  9 20  1  0  0  0  0
 11 25  1  0  0  0  0
 11 15  1  0  0  0  0
 12 24  1  0  0  0  0
 13 30  1  0  0  0  0
 13 17  1  0  0  0  0
 14  4  1  0  0  0  0
 17 14  1  0  0  0  0
 18  3  1  0  0  0  0
 18 22  1  0  0  0  0
 19 18  1  0  0  0  0
 20 22  1  0  0  0  0
 20  1  1  0  0  0  0
 21 12  1  0  0  0  0
 22 14  1  0  0  0  0
 23 26  1  0  0  0  0
 23 11  1  0  0  0  0
 23  9  1  0  0  0  0
 24 27  1  0  0  0  0
 24 16  1  0  0  0  0
 25 10  1  0  0  0  0
 26  8  1  0  0  0  0
 27 28  1  0  0  0  0
 28 29  1  0  0  0  0
 30 32  1  0  0  0  0
 31 32  1  0  0  0  0
M  END
>  <MODEL>
3

>  <REMARK>
 VINA RESULT:      -5.3      5.235      7.011
  Name = 
  4 active torsions:
  status: ('A' for Active; 'I' for Inactive)
    1  A    between atoms: N_14  and  C_21
    2  A    between atoms: N_14  and  C_29
    3  A    between atoms: C_15  and  C_19
    4  A    between atoms: C_19  and  O_26
                            x       y       z     vdW  Elec       q    Type
                         _______ _______ _______ _____ _____    ______ ____

>  <TORSDO>
F 4

$$$$
=
 OpenBabel10272402063D

 32 37  0  0  1  0  0  0  0  0999 V2000
  188.2210  176.9290  141.3610 C   0  0  1  0  0  3  0  0  0  0  0  0
  188.7060  178.6250  139.6940 C   0  0  2  0  0  3  0  0  0  0  0  0
  191.7220  178.3250  144.0960 C   0  0  1  0  0  3  0  0  0  0  0  0
  187.9440  176.9540  142.8530 C   0  0  0  0  0  2  0  0  0  0  0  0
  187.6460  178.1590  140.6950 C   0  0  1  0  0  3  0  0  0  0  0  0
  188.3940  178.2270  138.2330 C   0  0  2  0  0  3  0  0  0  0  0  0
  192.2490  179.5690  144.4440 O   0  0  0  0  0  1  0  0  0  0  0  0
  191.6130  175.1720  138.7650 N   0  0  0  0  0  0  0  0  0  0  0  0
  190.0050  177.9650  140.1750 C   0  0  1  0  0  3  0  0  0  0  0  0
  190.2010  174.5140  136.9450 C   0  0  0  0  0  2  0  0  0  0  0  0
  190.0900  176.8070  137.8560 C   0  0  1  0  0  3  0  0  0  0  0  0
  186.9700  178.5540  137.7660 C   0  0  2  0  0  3  0  0  0  0  0  0
  190.8270  177.7910  145.2310 C   0  0  1  0  0  3  0  0  0  0  0  0
  189.2720  176.7060  143.5190 C   0  0  2  0  0  3  0  0  0  0  0  0
  188.6940  176.8720  138.0410 O   0  0  0  0  0  0  0  0  0  0  0  0
  186.2840  177.8220  140.0890 C   0  0  0  0  0  2  0  0  0  0  0  0
  189.3760  177.5470  144.7990 C   0  0  0  0  0  2  0  0  0  0  0  0
  191.0340  178.3930  142.7280 C   0  0  2  0  0  3  0  0  0  0  0  0
  190.1320  179.4630  142.6880 O   0  0  0  0  0  1  0  0  0  0  0  0
  189.6660  176.9040  141.1360 N   0  0  1  0  0  0  0  0  0  0  0  0
  186.9920  179.7010  136.9740 O   0  0  0  0  0  1  0  0  0  0  0  0
  190.3130  177.0520  142.4550 C   0  0  2  0  0  3  0  0  0  0  0  0
  190.8940  177.4380  139.0230 C   0  0  2  0  0  3  0  0  0  0  0  0
  185.9740  178.7450  138.9170 C   0  0  2  0  0  3  0  0  0  0  0  0
  190.5490  175.4030  137.8640 C   0  0  0  0  0  0  0  0  0  0  0  0
  191.9180  176.3920  139.4880 C   0  0  0  0  0  3  0  0  0  0  0  0
  184.5850  178.6170  138.4710 N   0  0  0  0  0  2  0  0  0  0  0  0
  183.7200  179.5380  139.2020 C   0  0  0  0  0  2  0  0  0  0  0  0
  182.6360  178.7550  139.9120 C   0  0  0  0  0  1  0  0  0  0  0  0
  191.4200  176.5250  145.8290 C   0  0  0  0  0  2  0  0  0  0  0  0
  192.3570  175.5570  147.5760 C   0  0  0  0  0  1  0  0  0  0  0  0
  191.9820  176.8030  147.0750 O   0  0  0  0  0  0  0  0  0  0  0  0
  1  4  1  1  0  0  0
  2  9  1  0  0  0  0
  2  5  1  0  0  0  0
  3  7  1  0  0  0  0
  3 13  1  0  0  0  0
  4 14  1  0  0  0  0
  5  1  1  0  0  0  0
  6  2  1  0  0  0  0
  8 26  2  0  0  0  0
  9 20  1  0  0  0  0
 10 25  2  0  0  0  0
 11 25  1  0  0  0  0
 11 15  1  0  0  0  0
 11 23  1  0  0  0  0
 12  6  1  0  0  0  0
 12 24  1  0  0  0  0
 13 30  1  0  0  0  0
 14 17  1  0  0  0  0
 15  6  1  0  0  0  0
 16  5  1  0  0  0  0
 17 13  1  0  0  0  0
 18  3  1  0  0  0  0
 19 18  1  0  0  0  0
 20  1  1  0  0  0  0
 20 22  1  0  0  0  0
 21 12  1  0  0  0  0
 22 18  1  0  0  0  0
 22 14  1  0  0  0  0
 23 26  1  0  0  0  0
 23  9  1  0  0  0  0
 24 16  1  0  0  0  0
 25  8  1  0  0  0  0
 27 24  1  0  0  0  0
 27 28  1  0  0  0  0
 28 29  1  0  0  0  0
 30 32  1  0  0  0  0
 32 31  1  0  0  0  0
M  END
>  <MODEL>
4

>  <REMARK>
 VINA RESULT:      -5.3      1.661      2.001
  Name = 
  4 active torsions:
  status: ('A' for Active; 'I' for Inactive)
    1  A    between atoms: N_14  and  C_21
    2  A    between atoms: N_14  and  C_29
    3  A    between atoms: C_15  and  C_19
    4  A    between atoms: C_19  and  O_26
                            x       y       z     vdW  Elec       q    Type
                         _______ _______ _______ _____ _____    ______ ____

>  <TORSDO>
F 4

$$$$
=
 OpenBabel10272402063D

 32 37  0  0  1  0  0  0  0  0999 V2000
  186.6460  174.1830  137.1970 C   0  0  1  0  0  3  0  0  0  0  0  0
  187.6340  175.6070  135.4970 C   0  0  2  0  0  3  0  0  0  0  0  0
  182.3140  175.2490  135.8630 C   0  0  1  0  0  3  0  0  0  0  0  0
  185.6450  173.0420  137.1770 C   0  0  0  0  0  2  0  0  0  0  0  0
  187.5090  174.1530  135.9560 C   0  0  1  0  0  3  0  0  0  0  0  0
  188.9790  176.2630  135.8820 C   0  0  2  0  0  3  0  0  0  0  0  0
  181.6980  175.4570  134.6280 O   0  0  0  0  0  1  0  0  0  0  0  0
  186.6080  178.4420  138.9830 N   0  0  0  0  0  0  0  0  0  0  0  0
  186.4600  176.3250  136.1770 C   0  0  1  0  0  3  0  0  0  0  0  0
  188.9210  178.4550  139.6120 C   0  0  0  0  0  1  0  0  0  0  0  0
  188.2440  177.8200  137.3230 C   0  0  1  0  0  3  0  0  0  0  0  0
  190.2230  175.4370  135.5340 C   0  0  2  0  0  3  0  0  0  0  0  0
  181.9830  173.8400  136.3920 C   0  0  1  0  0  3  0  0  0  0  0  0
  184.3030  173.6710  137.4460 C   0  0  2  0  0  3  0  0  0  0  0  0
  188.9610  176.6090  137.2400 O   0  0  0  0  0  0  0  0  0  0  0  0
  188.8320  173.4550  136.2700 C   0  0  0  0  0  2  0  0  0  0  0  0
  183.2230  172.9660  136.6130 C   0  0  0  0  0  2  0  0  0  0  0  0
  183.8130  175.5570  135.7770 C   0  0  2  0  0  3  0  0  0  0  0  0
  184.3890  174.8810  134.6960 O   0  0  0  0  0  1  0  0  0  0  0  0
  185.9280  175.4580  137.2390 N   0  0  1  0  0  0  0  0  0  0  0  0
  190.8170  175.9520  134.3830 O   0  0  0  0  0  1  0  0  0  0  0  0
  184.4900  175.1500  137.1080 C   0  0  2  0  0  3  0  0  0  0  0  0
  186.8210  177.7330  136.7090 C   0  0  2  0  0  3  0  0  0  0  0  0
  189.9320  173.9430  135.3370 C   0  0  2  0  0  3  0  0  0  0  0  0
  187.9720  178.1660  138.7330 C   0  0  0  0  0  0  0  0  0  0  0  0
  185.8360  178.2420  137.7710 C   0  0  0  0  0  2  0  0  0  0  0  0
  191.1450  173.1270  135.4440 N   0  0  0  0  0  2  0  0  0  0  0  0
  191.9160  173.5000  136.6260 C   0  0  0  0  0  2  0  0  0  0  0  0
  193.3910  173.4940  136.2880 C   0  0  0  0  0  1  0  0  0  0  0  0
  181.1620  173.9270  137.6680 C   0  0  0  0  0  2  0  0  0  0  0  0
  181.0950  175.3840  139.3240 C   0  0  0  0  0  1  0  0  0  0  0  0
  180.8630  175.2590  137.9540 O   0  0  0  0  0  0  0  0  0  0  0  0
  1  4  1  6  0  0  0
  1 20  1  0  0  0  0
  2  6  1  0  0  0  0
  2  5  1  0  0  0  0
  2  9  1  0  0  0  0
  3 13  1  0  0  0  0
  4 14  1  0  0  0  0
  5 16  1  0  0  0  0
  5  1  1  0  0  0  0
  6 15  1  0  0  0  0
  7  3  1  0  0  0  0
  9 23  1  0  0  0  0
  9 20  1  0  0  0  0
 11 25  1  0  0  0  0
 12  6  1  0  0  0  0
 13 17  1  0  0  0  0
 13 30  1  0  0  0  0
 15 11  1  0  0  0  0
 17 14  1  0  0  0  0
 18  3  1  0  0  0  0
 18 22  1  0  0  0  0
 19 18  1  0  0  0  0
 21 12  1  0  0  0  0
 22 20  1  0  0  0  0
 22 14  1  0  0  0  0
 23 11  1  0  0  0  0
 23 26  1  0  0  0  0
 24 27  1  0  0  0  0
 24 12  1  0  0  0  0
 24 16  1  0  0  0  0
 25  8  2  0  0  0  0
 25 10  1  0  0  0  0
 26  8  1  0  0  0  0
 27 28  1  0  0  0  0
 29 28  1  0  0  0  0
 30 32  1  0  0  0  0
 32 31  1  0  0  0  0
M  END
>  <MODEL>
5

>  <REMARK>
 VINA RESULT:      -5.2      4.852      9.397
  Name = 
  4 active torsions:
  status: ('A' for Active; 'I' for Inactive)
    1  A    between atoms: N_14  and  C_21
    2  A    between atoms: N_14  and  C_29
    3  A    between atoms: C_15  and  C_19
    4  A    between atoms: C_19  and  O_26
                            x       y       z     vdW  Elec       q    Type
                         _______ _______ _______ _____ _____    ______ ____

>  <TORSDO>
F 4

$$$$
=
 OpenBabel10272402063D

 32 37  0  0  1  0  0  0  0  0999 V2000
  189.9470  174.7360  135.0910 C   0  0  1  0  0  3  0  0  0  0  0  0
  188.9340  174.2060  137.2320 C   0  0  2  0  0  3  0  0  0  0  0  0
  194.0690  175.6780  137.0440 C   0  0  1  0  0  3  0  0  0  0  0  0
  191.1760  174.2460  134.3460 C   0  0  0  0  0  2  0  0  0  0  0  0
  189.3190  173.6070  135.8770 C   0  0  1  0  0  3  0  0  0  0  0  0
  187.4300  174.5410  137.3550 C   0  0  2  0  0  3  0  0  0  0  0  0
  194.8050  175.1130  138.0860 O   0  0  0  0  0  1  0  0  0  0  0  0
  188.7190  178.7980  136.9130 N   0  0  0  0  0  0  0  0  0  0  0  0
  189.7890  175.4750  137.3480 C   0  0  1  0  0  3  0  0  0  0  0  0
  186.3980  178.6190  136.3460 C   0  0  0  0  0  2  0  0  0  0  0  0
  187.5520  176.7760  137.5190 C   0  0  1  0  0  3  0  0  0  0  0  0
  186.4810  173.4140  136.9270 C   0  0  2  0  0  3  0  0  0  0  0  0
  194.6300  175.2150  135.6850 C   0  0  1  0  0  3  0  0  0  0  0  0
  192.2770  175.2130  134.6930 C   0  0  2  0  0  3  0  0  0  0  0  0
  187.1560  175.7280  136.6620 O   0  0  0  0  0  0  0  0  0  0  0  0
  188.1610  173.0100  135.0780 C   0  0  0  0  0  2  0  0  0  0  0  0
  193.6070  174.4590  134.8290 C   0  0  0  0  0  2  0  0  0  0  0  0
  192.5710  175.4100  137.2330 C   0  0  2  0  0  3  0  0  0  0  0  0
  192.3430  174.0490  137.4620 O   0  0  0  0  0  1  0  0  0  0  0  0
  190.3350  175.7980  136.0200 N   0  0  1  0  0  0  0  0  0  0  0  0
  185.9710  172.7810  138.0590 O   0  0  0  0  0  1  0  0  0  0  0  0
  191.8080  175.8950  135.9770 C   0  0  2  0  0  3  0  0  0  0  0  0
  189.0330  176.6750  137.9670 C   0  0  2  0  0  3  0  0  0  0  0  0
  187.1370  172.3740  136.0090 C   0  0  2  0  0  3  0  0  0  0  0  0
  187.5130  178.0690  136.8050 C   0  0  0  0  0  0  0  0  0  0  0  0
  189.6960  178.0240  137.6560 C   0  0  0  0  0  3  0  0  0  0  0  0
  186.1450  171.5840  135.2760 N   0  0  0  0  0  2  0  0  0  0  0  0
  185.1300  172.4500  134.6840 C   0  0  0  0  0  2  0  0  0  0  0  0
  183.7630  171.8280  134.8770 C   0  0  0  0  0  1  0  0  0  0  0  0
  195.1990  176.3940  134.9120 C   0  0  0  0  0  2  0  0  0  0  0  0
  196.0620  178.4210  135.0240 C   0  0  0  0  0  1  0  0  0  0  0  0
  195.2820  177.5130  135.7400 O   0  0  0  0  0  0  0  0  0  0  0  0
  1  4  1  1  0  0  0
  1  5  1  0  0  0  0
  1 20  1  0  0  0  0
  2  9  1  0  0  0  0
  2  6  1  0  0  0  0
  3 18  1  0  0  0  0
  3  7  1  0  0  0  0
  4 14  1  0  0  0  0
  5  2  1  0  0  0  0
  8 26  2  0  0  0  0
  9 23  1  0  0  0  0
 10 25  2  0  0  0  0
 11 23  1  0  0  0  0
 12  6  1  0  0  0  0
 12 21  1  0  0  0  0
 13  3  1  0  0  0  0
 14 17  1  0  0  0  0
 14 22  1  0  0  0  0
 15  6  1  0  0  0  0
 15 11  1  0  0  0  0
 16  5  1  0  0  0  0
 16 24  1  0  0  0  0
 17 13  1  0  0  0  0
 18 19  1  0  0  0  0
 20  9  1  0  0  0  0
 22 20  1  0  0  0  0
 22 18  1  0  0  0  0
 24 12  1  0  0  0  0
 25  8  1  0  0  0  0
 25 11  1  0  0  0  0
 26 23  1  0  0  0  0
 27 24  1  0  0  0  0
 28 29  1  0  0  0  0
 28 27  1  0  0  0  0
 30 13  1  0  0  0  0
 30 32  1  0  0  0  0
 31 32  1  0  0  0  0
M  END
>  <MODEL>
6

>  <REMARK>
 VINA RESULT:      -5.2      5.869      8.098
  Name = 
  4 active torsions:
  status: ('A' for Active; 'I' for Inactive)
    1  A    between atoms: N_14  and  C_21
    2  A    between atoms: N_14  and  C_29
    3  A    between atoms: C_15  and  C_19
    4  A    between atoms: C_19  and  O_26
                            x       y       z     vdW  Elec       q    Type
                         _______ _______ _______ _____ _____    ______ ____

>  <TORSDO>
F 4

$$$$
=
 OpenBabel10272402063D

 32 37  0  0  1  0  0  0  0  0999 V2000
  189.2680  176.0370  138.0280 C   0  0  1  0  0  3  0  0  0  0  0  0
  188.0100  176.4930  136.0030 C   0  0  2  0  0  3  0  0  0  0  0  0
  193.1450  175.0520  135.6430 C   0  0  1  0  0  3  0  0  0  0  0  0
  190.5710  176.5570  138.6100 C   0  0  0  0  0  2  0  0  0  0  0  0
  188.5440  177.1370  137.2850 C   0  0  1  0  0  3  0  0  0  0  0  0
  186.5050  176.1470  136.0660 C   0  0  2  0  0  3  0  0  0  0  0  0
  193.7500  175.5870  134.5050 O   0  0  0  0  0  1  0  0  0  0  0  0
  187.8730  171.9120  136.4900 N   0  0  0  0  0  0  0  0  0  0  0  0
  188.8570  175.2240  135.8300 C   0  0  1  0  0  3  0  0  0  0  0  0
  185.6310  172.0990  137.3150 C   0  0  0  0  0  1  0  0  0  0  0  0
  186.6260  173.9080  135.9600 C   0  0  1  0  0  3  0  0  0  0  0  0
  185.6020  177.2820  136.5640 C   0  0  2  0  0  3  0  0  0  0  0  0
  193.8550  175.5610  136.9120 C   0  0  1  0  0  3  0  0  0  0  0  0
  191.6320  175.5840  138.1700 C   0  0  2  0  0  3  0  0  0  0  0  0
  186.3220  174.9810  136.8230 O   0  0  0  0  0  0  0  0  0  0  0  0
  187.4810  177.7540  138.1940 C   0  0  0  0  0  2  0  0  0  0  0  0
  192.9320  176.3390  137.8570 C   0  0  0  0  0  2  0  0  0  0  0  0
  191.6330  175.3060  135.6200 C   0  0  2  0  0  3  0  0  0  0  0  0
  191.3690  176.6580  135.3750 O   0  0  0  0  0  1  0  0  0  0  0  0
  189.5550  174.9480  137.0950 N   0  0  1  0  0  0  0  0  0  0  0  0
  184.9600  177.8760  135.4800 O   0  0  0  0  0  1  0  0  0  0  0  0
  191.0240  174.8590  136.9700 C   0  0  2  0  0  3  0  0  0  0  0  0
  188.0450  174.0020  135.3400 C   0  0  2  0  0  3  0  0  0  0  0  0
  186.3510  178.3540  137.3670 C   0  0  2  0  0  3  0  0  0  0  0  0
  186.6810  172.6380  136.7140 C   0  0  0  0  0  0  0  0  0  0  0  0
  188.7510  172.6660  135.6150 C   0  0  0  0  0  2  0  0  0  0  0  0
  185.4440  179.1630  138.1850 N   0  0  0  0  0  2  0  0  0  0  0  0
  184.8130  178.3470  139.2180 C   0  0  0  0  0  2  0  0  0  0  0  0
  184.8920  179.0670  140.5470 C   0  0  0  0  0  1  0  0  0  0  0  0
  194.5200  174.4110  137.6510 C   0  0  0  0  0  2  0  0  0  0  0  0
  196.0720  174.3220  139.2160 C   0  0  0  0  0  1  0  0  0  0  0  0
  195.8610  174.7090  137.8930 O   0  0  0  0  0  0  0  0  0  0  0  0
  1  4  1  6  0  0  0
  2  6  1  0  0  0  0
  2  5  1  0  0  0  0
  3 13  1  0  0  0  0
  5  1  1  0  0  0  0
  5 16  1  0  0  0  0
  6 12  1  0  0  0  0
  6 15  1  0  0  0  0
  7  3  1  0  0  0  0
  8 25  2  0  0  0  0
  9  2  1  0  0  0  0
  9 20  1  0  0  0  0
 11 25  1  0  0  0  0
 11 15  1  0  0  0  0
 12 24  1  0  0  0  0
 13 30  1  0  0  0  0
 13 17  1  0  0  0  0
 14  4  1  0  0  0  0
 17 14  1  0  0  0  0
 18  3  1  0  0  0  0
 18 22  1  0  0  0  0
 19 18  1  0  0  0  0
 20  1  1  0  0  0  0
 21 12  1  0  0  0  0
 22 20  1  0  0  0  0
 22 14  1  0  0  0  0
 23 26  1  0  0  0  0
 23  9  1  0  0  0  0
 23 11  1  0  0  0  0
 24 27  1  0  0  0  0
 24 16  1  0  0  0  0
 25 10  1  0  0  0  0
 26  8  1  0  0  0  0
 27 28  1  0  0  0  0
 28 29  1  0  0  0  0
 30 32  1  0  0  0  0
 32 31  1  0  0  0  0
M  END
>  <MODEL>
7

>  <REMARK>
 VINA RESULT:      -4.9      4.926      6.448
  Name = 
  4 active torsions:
  status: ('A' for Active; 'I' for Inactive)
    1  A    between atoms: N_14  and  C_21
    2  A    between atoms: N_14  and  C_29
    3  A    between atoms: C_15  and  C_19
    4  A    between atoms: C_19  and  O_26
                            x       y       z     vdW  Elec       q    Type
                         _______ _______ _______ _____ _____    ______ ____

>  <TORSDO>
F 4

$$$$
=
 OpenBabel10272402063D

 32 37  0  0  1  0  0  0  0  0999 V2000
  184.7400  176.9730  137.5350 C   0  0  1  0  0  3  0  0  0  0  0  0
  183.6950  176.7410  135.3570 C   0  0  2  0  0  3  0  0  0  0  0  0
  189.0170  177.0930  135.6970 C   0  0  1  0  0  3  0  0  0  0  0  0
  185.7120  177.9660  138.1470 C   0  0  0  0  0  2  0  0  0  0  0  0
  183.8100  177.6690  136.5670 C   0  0  1  0  0  3  0  0  0  0  0  0
  182.3890  175.9150  135.3330 C   0  0  2  0  0  3  0  0  0  0  0  0
  189.5690  177.6670  134.5500 O   0  0  0  0  0  1  0  0  0  0  0  0
  184.9770  172.4720  136.5270 N   0  0  0  0  0  0  0  0  0  0  0  0
  184.9210  175.8230  135.4590 C   0  0  1  0  0  3  0  0  0  0  0  0
  182.7030  171.9810  137.1040 C   0  0  0  0  0  1  0  0  0  0  0  0
  183.2380  173.8530  135.5840 C   0  0  1  0  0  3  0  0  0  0  0  0
  181.1080  176.7270  135.5660 C   0  0  2  0  0  3  0  0  0  0  0  0
  189.3430  177.9540  136.9320 C   0  0  1  0  0  3  0  0  0  0  0  0
  187.0810  177.3660  137.9610 C   0  0  2  0  0  3  0  0  0  0  0  0
  182.4890  174.8510  136.2400 O   0  0  0  0  0  0  0  0  0  0  0  0
  182.4900  177.9900  137.2690 C   0  0  0  0  0  2  0  0  0  0  0  0
  188.0970  178.4760  137.6570 C   0  0  0  0  0  2  0  0  0  0  0  0
  187.5230  176.8150  135.4960 C   0  0  2  0  0  3  0  0  0  0  0  0
  186.8730  177.9610  135.0230 O   0  0  0  0  0  1  0  0  0  0  0  0
  185.4890  175.9460  136.8110 N   0  0  1  0  0  0  0  0  0  0  0  0
  180.4640  176.9400  134.3480 O   0  0  0  0  0  1  0  0  0  0  0  0
  186.9110  176.3460  136.8360 C   0  0  2  0  0  3  0  0  0  0  0  0
  184.6230  174.3500  135.0910 C   0  0  2  0  0  3  0  0  0  0  0  0
  181.3530  178.0730  136.2590 C   0  0  2  0  0  3  0  0  0  0  0  0
  183.5960  172.7720  136.5260 C   0  0  0  0  0  0  0  0  0  0  0  0
  185.6760  173.3730  135.6310 C   0  0  0  0  0  2  0  0  0  0  0  0
  180.1290  178.6150  136.8560 N   0  0  0  0  0  2  0  0  0  0  0  0
  180.0330  180.0530  136.6230 C   0  0  0  0  0  2  0  0  0  0  0  0
  180.7180  180.3990  135.3180 C   0  0  0  0  0  1  0  0  0  0  0  0
  190.2350  177.1890  137.8970 C   0  0  0  0  0  2  0  0  0  0  0  0
  190.3270  176.8550  140.0760 C   0  0  0  0  0  1  0  0  0  0  0  0
  190.3120  177.8650  139.1150 O   0  0  0  0  0  0  0  0  0  0  0  0
  1  4  1  6  0  0  0
  2  9  1  0  0  0  0
  2  5  1  0  0  0  0
  3 13  1  0  0  0  0
  5 16  1  0  0  0  0
  5  1  1  0  0  0  0
  6  2  1  0  0  0  0
  6 12  1  0  0  0  0
  6 15  1  0  0  0  0
  7  3  1  0  0  0  0
  9 20  1  0  0  0  0
 11 15  1  0  0  0  0
 11 25  1  0  0  0  0
 12 24  1  0  0  0  0
 13 17  1  0  0  0  0
 13 30  1  0  0  0  0
 14  4  1  0  0  0  0
 17 14  1  0  0  0  0
 18  3  1  0  0  0  0
 18 22  1  0  0  0  0
 19 18  1  0  0  0  0
 20 22  1  0  0  0  0
 20  1  1  0  0  0  0
 21 12  1  0  0  0  0
 22 14  1  0  0  0  0
 23  9  1  0  0  0  0
 23 11  1  0  0  0  0
 23 26  1  0  0  0  0
 24 27  1  0  0  0  0
 24 16  1  0  0  0  0
 25  8  2  0  0  0  0
 25 10  1  0  0  0  0
 26  8  1  0  0  0  0
 28 27  1  0  0  0  0
 29 28  1  0  0  0  0
 30 32  1  0  0  0  0
 32 31  1  0  0  0  0
M  END
>  <MODEL>
8

>  <REMARK>
 VINA RESULT:      -4.8      4.465      7.128
  Name = 
  4 active torsions:
  status: ('A' for Active; 'I' for Inactive)
    1  A    between atoms: N_14  and  C_21
    2  A    between atoms: N_14  and  C_29
    3  A    between atoms: C_15  and  C_19
    4  A    between atoms: C_19  and  O_26
                            x       y       z     vdW  Elec       q    Type
                         _______ _______ _______ _____ _____    ______ ____

>  <TORSDO>
F 4

$$$$
=
 OpenBabel10272402063D

 32 37  0  0  1  0  0  0  0  0999 V2000
  183.1640  178.6600  138.6470 C   0  0  1  0  0  3  0  0  0  0  0  0
  180.9950  177.9340  137.8380 C   0  0  2  0  0  3  0  0  0  0  0  0
  181.6410  179.0060  143.0340 C   0  0  1  0  0  3  0  0  0  0  0  0
  184.1110  178.1770  139.7320 C   0  0  0  0  0  2  0  0  0  0  0  0
  182.4490  177.4910  138.0090 C   0  0  1  0  0  3  0  0  0  0  0  0
  180.6450  178.3680  136.3960 C   0  0  2  0  0  3  0  0  0  0  0  0
  180.7740  178.2520  143.8270 O   0  0  0  0  0  1  0  0  0  0  0  0
  180.7230  182.5310  138.0240 N   0  0  0  0  0  0  0  0  0  0  0  0
  180.8330  179.1050  138.8170 C   0  0  1  0  0  3  0  0  0  0  0  0
  181.0140  182.6130  135.6460 C   0  0  0  0  0  2  0  0  0  0  0  0
  180.2270  180.5460  136.7460 C   0  0  1  0  0  3  0  0  0  0  0  0
  181.0850  177.3870  135.3030 C   0  0  2  0  0  3  0  0  0  0  0  0
  183.1050  178.6840  143.3920 C   0  0  1  0  0  3  0  0  0  0  0  0
  183.7890  179.0000  140.9510 C   0  0  2  0  0  3  0  0  0  0  0  0
  181.1490  179.6540  136.1580 O   0  0  0  0  0  0  0  0  0  0  0  0
  183.1650  177.0990  136.7160 C   0  0  0  0  0  2  0  0  0  0  0  0
  183.9120  178.1320  142.2110 C   0  0  0  0  0  2  0  0  0  0  0  0
  181.3000  178.8360  141.5490 C   0  0  2  0  0  3  0  0  0  0  0  0
  181.2110  177.4790  141.2210 O   0  0  0  0  0  1  0  0  0  0  0  0
  182.1690  179.5560  139.2360 N   0  0  1  0  0  0  0  0  0  0  0  0
  179.9840  176.6520  134.8670 O   0  0  0  0  0  1  0  0  0  0  0  0
  182.3820  179.5410  140.6980 C   0  0  2  0  0  3  0  0  0  0  0  0
  179.9830  180.2690  138.2530 C   0  0  2  0  0  3  0  0  0  0  0  0
  182.1970  176.4290  135.7490 C   0  0  2  0  0  3  0  0  0  0  0  0
  180.7680  181.9210  136.7500 C   0  0  0  0  0  0  0  0  0  0  0  0
  180.2070  181.5910  139.0010 C   0  0  0  0  0  3  0  0  0  0  0  0
  182.8920  175.8230  134.6100 N   0  0  0  0  0  2  0  0  0  0  0  0
  183.1130  174.3980  134.8370 C   0  0  0  0  0  2  0  0  0  0  0  0
  182.0300  173.8590  135.7470 C   0  0  0  0  0  1  0  0  0  0  0  0
  183.7930  179.9060  143.9780 C   0  0  0  0  0  2  0  0  0  0  0  0
  184.4730  178.8050  145.7650 C   0  0  0  0  0  1  0  0  0  0  0  0
  184.9450  179.5220  144.6650 O   0  0  0  0  0  0  0  0  0  0  0  0
  1 20  1  0  0  0  0
  1  4  1  1  0  0  0
  2  5  1  0  0  0  0
  2  9  1  0  0  0  0
  3 13  1  0  0  0  0
  3  7  1  0  0  0  0
  4 14  1  0  0  0  0
  5  1  1  0  0  0  0
  6  2  1  0  0  0  0
  8 26  2  0  0  0  0
  9 20  1  0  0  0  0
 10 25  2  0  0  0  0
 11 25  1  0  0  0  0
 11 23  1  0  0  0  0
 12 24  1  0  0  0  0
 12  6  1  0  0  0  0
 13 30  1  0  0  0  0
 14 17  1  0  0  0  0
 15  6  1  0  0  0  0
 15 11  1  0  0  0  0
 16  5  1  0  0  0  0
 17 13  1  0  0  0  0
 18  3  1  0  0  0  0
 19 18  1  0  0  0  0
 20 22  1  0  0  0  0
 21 12  1  0  0  0  0
 22 14  1  0  0  0  0
 22 18  1  0  0  0  0
 23  9  1  0  0  0  0
 23 26  1  0  0  0  0
 24 16  1  0  0  0  0
 25  8  1  0  0  0  0
 27 28  1  0  0  0  0
 27 24  1  0  0  0  0
 28 29  1  0  0  0  0
 30 32  1  0  0  0  0
 32 31  1  0  0  0  0
M  END
>  <MODEL>
9

>  <REMARK>
 VINA RESULT:      -4.7      5.344      8.284
  Name = 
  4 active torsions:
  status: ('A' for Active; 'I' for Inactive)
    1  A    between atoms: N_14  and  C_21
    2  A    between atoms: N_14  and  C_29
    3  A    between atoms: C_15  and  C_19
    4  A    between atoms: C_19  and  O_26
                            x       y       z     vdW  Elec       q    Type
                         _______ _______ _______ _____ _____    ______ ____

>  <TORSDO>
F 4

$$$$
