=
 OpenBabel10272400203D

 31 35  0  0  1  0  0  0  0  0999 V2000
  190.2190  177.3900  140.4160 C   0  0  0  0  0  0  0  0  0  0  0  0
  188.4690  177.6190  143.7990 C   0  0  0  0  0  0  0  0  0  0  0  0
  189.4400  177.3360  144.8010 C   0  0  0  0  0  0  0  0  0  0  0  0
  191.7120  176.9290  145.5390 C   0  0  0  0  0  3  0  0  0  0  0  0
  188.7810  177.7430  142.3380 C   0  0  0  0  0  0  0  0  0  0  0  0
  189.2720  177.9300  139.6050 N   0  0  0  0  0  0  0  0  0  0  0  0
  190.8060  177.2050  144.5200 C   0  0  0  0  0  3  0  0  0  0  0  0
  186.1210  178.1050  143.2040 N   0  0  0  0  0  0  0  0  0  0  0  0
  191.5020  176.9100  139.8420 C   0  0  0  0  0  1  0  0  0  0  0  0
  187.7040  177.3330  146.5050 C   0  0  0  0  0  3  0  0  0  0  0  0
  192.0360  176.5390  147.7780 O   0  0  0  0  0  0  0  0  0  0  0  0
  186.5120  178.8020  141.9830 C   0  0  0  0  0  2  0  0  0  0  0  0
  187.1180  177.7800  144.1920 C   0  0  0  0  0  0  0  0  0  0  0  0
  189.9870  177.2860  141.7880 C   0  0  0  0  0  3  0  0  0  0  0  0
  191.2350  176.7910  146.8410 C   0  0  0  0  0  0  0  0  0  0  0  0
  187.8120  178.2760  141.4630 C   0  0  0  0  0  0  0  0  0  0  0  0
  188.0860  178.3730  140.0970 C   0  0  0  0  0  3  0  0  0  0  0  0
  186.7520  177.6280  145.5350 C   0  0  0  0  0  3  0  0  0  0  0  0
  189.0420  177.1920  146.1520 C   0  0  0  0  0  0  0  0  0  0  0  0
  189.9380  176.9260  147.0990 O   0  0  0  0  0  0  0  0  0  0  0  0
  184.6930  177.9820  143.4830 C   0  0  0  0  0  2  0  0  0  0  0  0
  183.4610  179.9880  143.9740 O   0  0  0  0  0  1  0  0  0  0  0  0
  183.9070  179.1700  142.9330 C   0  0  2  0  0  3  0  0  0  0  0  0
  182.7320  178.6980  142.0860 C   0  0  0  0  0  2  0  0  0  0  0  0
  183.2630  176.6930  138.9160 C   0  0  0  0  0  0  0  0  0  0  0  0
  184.3060  178.8620  138.6430 C   0  0  0  0  0  3  0  0  0  0  0  0
  182.9530  175.4700  138.4240 F   0  0  0  0  0  0  0  0  0  0  0  0
  182.8570  177.0500  140.2060 C   0  0  0  0  0  3  0  0  0  0  0  0
  183.9010  179.2190  139.9330 C   0  0  0  0  0  3  0  0  0  0  0  0
  183.1780  178.3130  140.7170 C   0  0  0  0  0  0  0  0  0  0  0  0
  183.9870  177.5990  138.1350 C   0  0  0  0  0  3  0  0  0  0  0  0
  1 14  1  0  0  0  0
  2 13  2  0  0  0  0
  2  3  1  0  0  0  0
  3 19  2  0  0  0  0
  4 15  1  0  0  0  0
  5  2  1  0  0  0  0
  6 17  1  0  0  0  0
  6  1  2  0  0  0  0
  7  3  1  0  0  0  0
  7  4  2  0  0  0  0
  8 21  1  0  0  0  0
  8 13  1  0  0  0  0
  9  1  1  0  0  0  0
 12  8  1  0  0  0  0
 13 18  1  0  0  0  0
 14  5  2  0  0  0  0
 15 20  1  0  0  0  0
 15 11  2  0  0  0  0
 16 12  1  0  0  0  0
 16  5  1  0  0  0  0
 17 16  2  0  0  0  0
 18 10  2  0  0  0  0
 19 10  1  0  0  0  0
 19 20  1  0  0  0  0
 23 21  1  0  0  0  0
 23 22  1  1  0  0  0
 24 23  1  0  0  0  0
 25 28  1  0  0  0  0
 26 29  2  0  0  0  0
 27 25  1  0  0  0  0
 28 30  2  0  0  0  0
 29 30  1  0  0  0  0
 30 24  1  0  0  0  0
 31 26  1  0  0  0  0
 31 25  2  0  0  0  0
M  END
>  <MODEL>
1

>  <REMARK>
 VINA RESULT:      -9.9      0.000      0.000
  Name = 
  4 active torsions:
  status: ('A' for Active; 'I' for Inactive)
    1  A    between atoms: C_3  and  C_9
    2  A    between atoms: C_3  and  C_22
    3  A    between atoms: C_9  and  C_23
    4  A    between atoms: N_15  and  C_23
                            x       y       z     vdW  Elec       q    Type
                         _______ _______ _______ _____ _____    ______ ____

>  <TORSDO>
F 4

$$$$
=
 OpenBabel10272400203D

 31 35  0  0  1  0  0  0  0  0999 V2000
  185.4650  178.3620  145.6280 C   0  0  0  0  0  0  0  0  0  0  0  0
  188.8780  177.6180  144.0940 C   0  0  0  0  0  0  0  0  0  0  0  0
  189.7590  177.2790  145.1600 C   0  0  0  0  0  0  0  0  0  0  0  0
  190.2260  176.7530  147.4790 C   0  0  0  0  0  3  0  0  0  0  0  0
  187.4100  177.8670  144.2650 C   0  0  0  0  0  0  0  0  0  0  0  0
  184.6900  178.4020  144.5120 N   0  0  0  0  0  0  0  0  0  0  0  0
  189.3210  177.0850  146.4760 C   0  0  0  0  0  3  0  0  0  0  0  0
  188.5370  178.0510  141.6860 N   0  0  0  0  0  0  0  0  0  0  0  0
  184.8570  178.5980  146.9630 C   0  0  0  0  0  1  0  0  0  0  0  0
  191.6420  177.2620  143.6190 C   0  0  0  0  0  3  0  0  0  0  0  0
  192.4090  176.3170  148.0390 O   0  0  0  0  0  0  0  0  0  0  0  0
  187.1270  177.6840  141.7590 C   0  0  0  0  0  2  0  0  0  0  0  0
  189.4120  177.7460  142.7890 C   0  0  0  0  0  0  0  0  0  0  0  0
  186.8310  178.0990  145.5210 C   0  0  0  0  0  3  0  0  0  0  0  0
  191.5730  176.6140  147.1480 C   0  0  0  0  0  0  0  0  0  0  0  0
  186.5800  177.9410  143.1270 C   0  0  0  0  0  0  0  0  0  0  0  0
  185.2150  178.1960  143.2770 C   0  0  0  0  0  3  0  0  0  0  0  0
  190.7850  177.5750  142.5700 C   0  0  0  0  0  3  0  0  0  0  0  0
  191.1420  177.1070  144.9080 C   0  0  0  0  0  0  0  0  0  0  0  0
  191.9780  176.7910  145.8940 O   0  0  0  0  0  0  0  0  0  0  0  0
  189.0540  178.4930  140.3940 C   0  0  0  0  0  2  0  0  0  0  0  0
  190.1040  176.7450  139.1190 O   0  0  0  0  0  1  0  0  0  0  0  0
  188.8950  177.4150  139.3240 C   0  0  2  0  0  3  0  0  0  0  0  0
  188.3890  178.0160  138.0190 C   0  0  0  0  0  2  0  0  0  0  0  0
  184.6070  177.8450  137.9160 C   0  0  0  0  0  0  0  0  0  0  0  0
  185.4990  175.9990  136.6260 C   0  0  0  0  0  3  0  0  0  0  0  0
  183.5460  178.5350  138.3980 F   0  0  0  0  0  0  0  0  0  0  0  0
  185.9070  178.2690  138.2110 C   0  0  0  0  0  3  0  0  0  0  0  0
  186.7990  176.4230  136.9210 C   0  0  0  0  0  3  0  0  0  0  0  0
  187.0050  177.5560  137.7160 C   0  0  0  0  0  0  0  0  0  0  0  0
  184.4040  176.7110  137.1250 C   0  0  0  0  0  3  0  0  0  0  0  0
  1  9  1  0  0  0  0
  2  5  1  0  0  0  0
  2  3  1  0  0  0  0
  3  7  1  0  0  0  0
  5 14  2  0  0  0  0
  6  1  2  0  0  0  0
  7  4  2  0  0  0  0
  8 12  1  0  0  0  0
  8 13  1  0  0  0  0
 10 19  1  0  0  0  0
 12 16  1  0  0  0  0
 13  2  2  0  0  0  0
 14  1  1  0  0  0  0
 15  4  1  0  0  0  0
 15 11  2  0  0  0  0
 16 17  2  0  0  0  0
 16  5  1  0  0  0  0
 17  6  1  0  0  0  0
 18 13  1  0  0  0  0
 18 10  2  0  0  0  0
 19  3  2  0  0  0  0
 19 20  1  0  0  0  0
 20 15  1  0  0  0  0
 21  8  1  0  0  0  0
 23 22  1  6  0  0  0
 23 21  1  0  0  0  0
 24 23  1  0  0  0  0
 25 28  1  0  0  0  0
 25 27  1  0  0  0  0
 26 29  2  0  0  0  0
 26 31  1  0  0  0  0
 29 30  1  0  0  0  0
 30 24  1  0  0  0  0
 30 28  2  0  0  0  0
 31 25  2  0  0  0  0
M  END
>  <MODEL>
2

>  <REMARK>
 VINA RESULT:      -9.8      2.310      4.501
  Name = 
  4 active torsions:
  status: ('A' for Active; 'I' for Inactive)
    1  A    between atoms: C_3  and  C_9
    2  A    between atoms: C_3  and  C_22
    3  A    between atoms: C_9  and  C_23
    4  A    between atoms: N_15  and  C_23
                            x       y       z     vdW  Elec       q    Type
                         _______ _______ _______ _____ _____    ______ ____

>  <TORSDO>
F 4

$$$$
=
 OpenBabel10272400203D

 31 35  0  0  1  0  0  0  0  0999 V2000
  189.1490  177.2410  141.3770 C   0  0  0  0  0  0  0  0  0  0  0  0
  186.3320  178.2200  143.7550 C   0  0  0  0  0  0  0  0  0  0  0  0
  186.8240  178.0730  145.0830 C   0  0  0  0  0  0  0  0  0  0  0  0
  188.5970  177.6720  146.6870 C   0  0  0  0  0  3  0  0  0  0  0  0
  187.1680  178.0430  142.5240 C   0  0  0  0  0  0  0  0  0  0  0  0
  188.6430  177.6750  140.1930 N   0  0  0  0  0  0  0  0  0  0  0  0
  188.1690  177.8050  145.3690 C   0  0  0  0  0  3  0  0  0  0  0  0
  184.4470  178.7290  142.2410 N   0  0  0  0  0  0  0  0  0  0  0  0
  190.4800  176.5810  141.4170 C   0  0  0  0  0  1  0  0  0  0  0  0
  184.6010  178.5020  145.9730 C   0  0  0  0  0  3  0  0  0  0  0  0
  188.0270  177.6970  148.9100 O   0  0  0  0  0  0  0  0  0  0  0  0
  185.3440  179.1550  141.1710 C   0  0  0  0  0  2  0  0  0  0  0  0
  184.9630  178.5360  143.5720 C   0  0  0  0  0  0  0  0  0  0  0  0
  188.4220  177.4150  142.5540 C   0  0  0  0  0  3  0  0  0  0  0  0
  187.6630  177.8150  147.7120 C   0  0  0  0  0  0  0  0  0  0  0  0
  186.6630  178.4590  141.2750 C   0  0  0  0  0  0  0  0  0  0  0  0
  187.4270  178.2770  140.1200 C   0  0  0  0  0  3  0  0  0  0  0  0
  184.1160  178.6660  144.6800 C   0  0  0  0  0  3  0  0  0  0  0  0
  185.9450  178.2130  146.1840 C   0  0  0  0  0  0  0  0  0  0  0  0
  186.3910  178.0780  147.4300 O   0  0  0  0  0  0  0  0  0  0  0  0
  183.0130  178.7500  141.9680 C   0  0  0  0  0  2  0  0  0  0  0  0
  181.6930  179.4950  140.1010 O   0  0  0  0  0  1  0  0  0  0  0  0
  182.7210  178.6260  140.4750 C   0  0  2  0  0  3  0  0  0  0  0  0
  182.3650  177.1900  140.1090 C   0  0  0  0  0  2  0  0  0  0  0  0
  184.9070  177.1060  137.3030 C   0  0  0  0  0  0  0  0  0  0  0  0
  183.8110  174.9490  137.4170 C   0  0  0  0  0  3  0  0  0  0  0  0
  185.8170  177.9310  136.7300 F   0  0  0  0  0  0  0  0  0  0  0  0
  184.1270  177.5600  138.3700 C   0  0  0  0  0  3  0  0  0  0  0  0
  183.0310  175.4030  138.4850 C   0  0  0  0  0  3  0  0  0  0  0  0
  183.1850  176.7100  138.9610 C   0  0  0  0  0  0  0  0  0  0  0  0
  184.7490  175.8010  136.8260 C   0  0  0  0  0  3  0  0  0  0  0  0
  1  9  1  0  0  0  0
  1 14  1  0  0  0  0
  2  3  1  0  0  0  0
  3  7  1  0  0  0  0
  3 19  2  0  0  0  0
  4 15  1  0  0  0  0
  5 14  2  0  0  0  0
  5  2  1  0  0  0  0
  6  1  2  0  0  0  0
  7  4  2  0  0  0  0
  8 13  1  0  0  0  0
 10 19  1  0  0  0  0
 12 16  1  0  0  0  0
 12  8  1  0  0  0  0
 13  2  2  0  0  0  0
 13 18  1  0  0  0  0
 15 11  2  0  0  0  0
 16  5  1  0  0  0  0
 17  6  1  0  0  0  0
 17 16  2  0  0  0  0
 18 10  2  0  0  0  0
 19 20  1  0  0  0  0
 20 15  1  0  0  0  0
 21  8  1  0  0  0  0
 23 22  1  1  0  0  0
 23 21  1  0  0  0  0
 24 23  1  0  0  0  0
 25 28  1  0  0  0  0
 26 29  2  0  0  0  0
 27 25  1  0  0  0  0
 28 30  2  0  0  0  0
 29 30  1  0  0  0  0
 30 24  1  0  0  0  0
 31 25  2  0  0  0  0
 31 26  1  0  0  0  0
M  END
>  <MODEL>
3

>  <REMARK>
 VINA RESULT:      -9.6      1.940      2.826
  Name = 
  4 active torsions:
  status: ('A' for Active; 'I' for Inactive)
    1  A    between atoms: C_3  and  C_9
    2  A    between atoms: C_3  and  C_22
    3  A    between atoms: C_9  and  C_23
    4  A    between atoms: N_15  and  C_23
                            x       y       z     vdW  Elec       q    Type
                         _______ _______ _______ _____ _____    ______ ____

>  <TORSDO>
F 4

$$$$
=
 OpenBabel10272400203D

 31 35  0  0  1  0  0  0  0  0999 V2000
  187.9700  178.1300  140.4160 C   0  0  0  0  0  0  0  0  0  0  0  0
  185.3270  178.3550  143.1580 C   0  0  0  0  0  0  0  0  0  0  0  0
  184.0750  178.5960  142.5250 C   0  0  0  0  0  0  0  0  0  0  0  0
  182.6570  178.7890  140.5690 C   0  0  0  0  0  3  0  0  0  0  0  0
  186.6050  178.0890  142.4210 C   0  0  0  0  0  0  0  0  0  0  0  0
  189.0260  177.6460  141.1210 N   0  0  0  0  0  0  0  0  0  0  0  0
  183.9040  178.5460  141.1350 C   0  0  0  0  0  3  0  0  0  0  0  0
  186.6320  178.1040  145.2410 N   0  0  0  0  0  0  0  0  0  0  0  0
  188.1150  178.4130  138.9650 C   0  0  0  0  0  1  0  0  0  0  0  0
  183.0230  178.9270  144.6940 C   0  0  0  0  0  3  0  0  0  0  0  0
  180.4470  179.3010  140.9200 O   0  0  0  0  0  0  0  0  0  0  0  0
  187.6380  177.2790  144.5820 C   0  0  0  0  0  2  0  0  0  0  0  0
  185.3860  178.3820  144.5730 C   0  0  0  0  0  0  0  0  0  0  0  0
  186.7500  178.3610  141.0530 C   0  0  0  0  0  3  0  0  0  0  0  0
  181.5830  179.0760  141.4100 C   0  0  0  0  0  0  0  0  0  0  0  0
  187.7280  177.6100  143.1260 C   0  0  0  0  0  0  0  0  0  0  0  0
  188.9280  177.3820  142.4510 C   0  0  0  0  0  3  0  0  0  0  0  0
  184.2380  178.6750  145.3210 C   0  0  0  0  0  3  0  0  0  0  0  0
  182.9300  178.8850  143.3060 C   0  0  0  0  0  0  0  0  0  0  0  0
  181.7530  179.1120  142.7280 O   0  0  0  0  0  0  0  0  0  0  0  0
  186.8320  178.4130  146.6540 C   0  0  0  0  0  2  0  0  0  0  0  0
  187.5390  177.1720  148.5890 O   0  0  0  0  0  1  0  0  0  0  0  0
  187.8950  177.5150  147.2820 C   0  0  2  0  0  3  0  0  0  0  0  0
  189.2600  178.1920  147.2610 C   0  0  0  0  0  2  0  0  0  0  0  0
  191.6570  176.1630  145.1450 C   0  0  0  0  0  0  0  0  0  0  0  0
  192.0470  175.6330  147.4760 C   0  0  0  0  0  3  0  0  0  0  0  0
  191.9600  175.9890  143.8360 F   0  0  0  0  0  0  0  0  0  0  0  0
  190.6440  177.0530  145.5150 C   0  0  0  0  0  3  0  0  0  0  0  0
  191.0340  176.5230  147.8460 C   0  0  0  0  0  3  0  0  0  0  0  0
  190.3290  177.2320  146.8670 C   0  0  0  0  0  0  0  0  0  0  0  0
  192.3580  175.4540  146.1240 C   0  0  0  0  0  3  0  0  0  0  0  0
  1 14  2  0  0  0  0
  1  6  1  0  0  0  0
  2 13  1  0  0  0  0
  3  2  2  0  0  0  0
  3 19  1  0  0  0  0
  4  7  2  0  0  0  0
  4 15  1  0  0  0  0
  5 16  2  0  0  0  0
  5  2  1  0  0  0  0
  6 17  2  0  0  0  0
  7  3  1  0  0  0  0
  8 21  1  0  0  0  0
  9  1  1  0  0  0  0
 10 18  1  0  0  0  0
 11 15  2  0  0  0  0
 12  8  1  0  0  0  0
 13  8  1  0  0  0  0
 13 18  2  0  0  0  0
 14  5  1  0  0  0  0
 15 20  1  0  0  0  0
 16 12  1  0  0  0  0
 17 16  1  0  0  0  0
 19 10  2  0  0  0  0
 20 19  1  0  0  0  0
 21 23  1  0  0  0  0
 23 22  1  1  0  0  0
 24 23  1  0  0  0  0
 25 28  2  0  0  0  0
 25 31  1  0  0  0  0
 26 29  1  0  0  0  0
 27 25  1  0  0  0  0
 28 30  1  0  0  0  0
 30 24  1  0  0  0  0
 30 29  2  0  0  0  0
 31 26  2  0  0  0  0
M  END
>  <MODEL>
4

>  <REMARK>
 VINA RESULT:      -9.6      2.650      7.517
  Name = 
  4 active torsions:
  status: ('A' for Active; 'I' for Inactive)
    1  A    between atoms: C_3  and  C_9
    2  A    between atoms: C_3  and  C_22
    3  A    between atoms: C_9  and  C_23
    4  A    between atoms: N_15  and  C_23
                            x       y       z     vdW  Elec       q    Type
                         _______ _______ _______ _____ _____    ______ ____

>  <TORSDO>
F 4

$$$$
=
 OpenBabel10272400203D

 31 35  0  0  1  0  0  0  0  0999 V2000
  191.0520  176.5160  143.8180 C   0  0  0  0  0  0  0  0  0  0  0  0
  187.6740  177.9320  142.7520 C   0  0  0  0  0  0  0  0  0  0  0  0
  186.8700  178.0440  143.9220 C   0  0  0  0  0  0  0  0  0  0  0  0
  186.5430  177.9610  146.3220 C   0  0  0  0  0  3  0  0  0  0  0  0
  189.1160  177.5230  142.7590 C   0  0  0  0  0  0  0  0  0  0  0  0
  191.7780  176.7130  142.6870 N   0  0  0  0  0  0  0  0  0  0  0  0
  187.3740  177.8380  145.2130 C   0  0  0  0  0  3  0  0  0  0  0  0
  187.8820  178.1390  140.2990 N   0  0  0  0  0  0  0  0  0  0  0  0
  191.6830  175.8770  145.0020 C   0  0  0  0  0  1  0  0  0  0  0  0
  184.9420  178.6360  142.5600 C   0  0  0  0  0  3  0  0  0  0  0  0
  184.4360  178.4140  147.1120 O   0  0  0  0  0  0  0  0  0  0  0  0
  189.3230  178.3510  140.3790 C   0  0  0  0  0  2  0  0  0  0  0  0
  187.0820  178.2070  141.4950 C   0  0  0  0  0  0  0  0  0  0  0  0
  189.7160  176.9130  143.8710 C   0  0  0  0  0  3  0  0  0  0  0  0
  185.2050  178.2990  146.1230 C   0  0  0  0  0  0  0  0  0  0  0  0
  189.8920  177.6900  141.5930 C   0  0  0  0  0  0  0  0  0  0  0  0
  191.2300  177.2890  141.5850 C   0  0  0  0  0  3  0  0  0  0  0  0
  185.7250  178.5470  141.4150 C   0  0  0  0  0  3  0  0  0  0  0  0
  185.5030  178.3940  143.8110 C   0  0  0  0  0  0  0  0  0  0  0  0
  184.7390  178.5010  144.8950 O   0  0  0  0  0  0  0  0  0  0  0  0
  187.2770  178.1070  138.9700 C   0  0  0  0  0  2  0  0  0  0  0  0
  188.0730  179.3180  137.0510 O   0  0  0  0  0  1  0  0  0  0  0  0
  188.3290  178.2140  137.8690 C   0  0  2  0  0  3  0  0  0  0  0  0
  188.3810  176.9360  137.0410 C   0  0  0  0  0  2  0  0  0  0  0  0
  192.0070  176.2330  137.8770 C   0  0  0  0  0  0  0  0  0  0  0  0
  190.9370  174.1480  137.2620 C   0  0  0  0  0  3  0  0  0  0  0  0
  193.1070  176.9130  138.2770 F   0  0  0  0  0  0  0  0  0  0  0  0
  190.8030  176.9130  137.6660 C   0  0  0  0  0  3  0  0  0  0  0  0
  189.7340  174.8290  137.0510 C   0  0  0  0  0  3  0  0  0  0  0  0
  189.6660  176.2130  137.2500 C   0  0  0  0  0  0  0  0  0  0  0  0
  192.0740  174.8510  137.6740 C   0  0  0  0  0  3  0  0  0  0  0  0
  1 14  1  0  0  0  0
  1  9  1  0  0  0  0
  2  5  1  0  0  0  0
  2  3  1  0  0  0  0
  3  7  1  0  0  0  0
  5 14  2  0  0  0  0
  6  1  2  0  0  0  0
  7  4  2  0  0  0  0
  8 12  1  0  0  0  0
  8 13  1  0  0  0  0
 10 19  1  0  0  0  0
 12 16  1  0  0  0  0
 13  2  2  0  0  0  0
 15  4  1  0  0  0  0
 15 11  2  0  0  0  0
 16  5  1  0  0  0  0
 17 16  2  0  0  0  0
 17  6  1  0  0  0  0
 18 13  1  0  0  0  0
 18 10  2  0  0  0  0
 19  3  2  0  0  0  0
 19 20  1  0  0  0  0
 20 15  1  0  0  0  0
 21  8  1  0  0  0  0
 23 22  1  6  0  0  0
 23 21  1  0  0  0  0
 24 30  1  0  0  0  0
 24 23  1  0  0  0  0
 25 27  1  0  0  0  0
 26 31  2  0  0  0  0
 28 25  2  0  0  0  0
 29 30  2  0  0  0  0
 29 26  1  0  0  0  0
 30 28  1  0  0  0  0
 31 25  1  0  0  0  0
M  END
>  <MODEL>
5

>  <REMARK>
 VINA RESULT:      -9.3      3.171      5.894
  Name = 
  4 active torsions:
  status: ('A' for Active; 'I' for Inactive)
    1  A    between atoms: C_3  and  C_9
    2  A    between atoms: C_3  and  C_22
    3  A    between atoms: C_9  and  C_23
    4  A    between atoms: N_15  and  C_23
                            x       y       z     vdW  Elec       q    Type
                         _______ _______ _______ _____ _____    ______ ____

>  <TORSDO>
F 4

$$$$
=
 OpenBabel10272400203D

 31 35  0  0  1  0  0  0  0  0999 V2000
  185.4310  178.2720  145.7180 C   0  0  0  0  0  0  0  0  0  0  0  0
  188.8420  177.6750  144.1160 C   0  0  0  0  0  0  0  0  0  0  0  0
  189.7370  177.2840  145.1520 C   0  0  0  0  0  0  0  0  0  0  0  0
  190.2310  176.6220  147.4300 C   0  0  0  0  0  3  0  0  0  0  0  0
  187.3720  177.8920  144.3130 C   0  0  0  0  0  0  0  0  0  0  0  0
  184.6460  178.3700  144.6140 N   0  0  0  0  0  0  0  0  0  0  0  0
  189.3120  177.0020  146.4570 C   0  0  0  0  0  3  0  0  0  0  0  0
  188.4740  178.2520  141.7420 N   0  0  0  0  0  0  0  0  0  0  0  0
  184.8310  178.4160  147.0700 C   0  0  0  0  0  1  0  0  0  0  0  0
  191.6070  177.3910  143.5980 C   0  0  0  0  0  3  0  0  0  0  0  0
  192.4240  176.1840  147.9450 O   0  0  0  0  0  0  0  0  0  0  0  0
  187.0700  177.8600  141.8020 C   0  0  0  0  0  2  0  0  0  0  0  0
  189.3630  177.8930  142.8170 C   0  0  0  0  0  0  0  0  0  0  0  0
  186.8000  178.0360  145.5850 C   0  0  0  0  0  3  0  0  0  0  0  0
  191.5770  176.5240  147.0810 C   0  0  0  0  0  0  0  0  0  0  0  0
  186.5320  178.0230  143.1880 C   0  0  0  0  0  0  0  0  0  0  0  0
  185.1640  178.2490  143.3630 C   0  0  0  0  0  3  0  0  0  0  0  0
  190.7360  177.7560  142.5770 C   0  0  0  0  0  3  0  0  0  0  0  0
  191.1200  177.1490  144.8790 C   0  0  0  0  0  0  0  0  0  0  0  0
  191.9680  176.7850  145.8370 O   0  0  0  0  0  0  0  0  0  0  0  0
  188.9730  178.7820  140.4760 C   0  0  0  0  0  2  0  0  0  0  0  0
  189.6090  176.6590  139.5410 O   0  0  0  0  0  1  0  0  0  0  0  0
  188.7990  177.7790  139.3380 C   0  0  2  0  0  3  0  0  0  0  0  0
  189.1100  178.4240  137.9930 C   0  0  0  0  0  2  0  0  0  0  0  0
  186.5840  177.3530  135.3820 C   0  0  0  0  0  0  0  0  0  0  0  0
  188.5370  175.9320  135.1970 C   0  0  0  0  0  3  0  0  0  0  0  0
  185.3470  177.7070  134.9590 F   0  0  0  0  0  0  0  0  0  0  0  0
  187.1860  178.0440  136.4380 C   0  0  0  0  0  3  0  0  0  0  0  0
  189.1390  176.6230  136.2530 C   0  0  0  0  0  3  0  0  0  0  0  0
  188.4630  177.6780  136.8770 C   0  0  0  0  0  0  0  0  0  0  0  0
  187.2590  176.2970  134.7620 C   0  0  0  0  0  3  0  0  0  0  0  0
  1  9  1  0  0  0  0
  2  5  1  0  0  0  0
  2  3  1  0  0  0  0
  3  7  1  0  0  0  0
  5 14  2  0  0  0  0
  6  1  2  0  0  0  0
  7  4  2  0  0  0  0
  8 12  1  0  0  0  0
  8 13  1  0  0  0  0
 10 19  1  0  0  0  0
 12 16  1  0  0  0  0
 13  2  2  0  0  0  0
 14  1  1  0  0  0  0
 15  4  1  0  0  0  0
 15 11  2  0  0  0  0
 16 17  2  0  0  0  0
 16  5  1  0  0  0  0
 17  6  1  0  0  0  0
 18 13  1  0  0  0  0
 18 10  2  0  0  0  0
 19  3  2  0  0  0  0
 19 20  1  0  0  0  0
 20 15  1  0  0  0  0
 21  8  1  0  0  0  0
 23 22  1  1  0  0  0
 23 21  1  0  0  0  0
 24 23  1  0  0  0  0
 25 28  1  0  0  0  0
 26 29  2  0  0  0  0
 27 25  1  0  0  0  0
 28 30  2  0  0  0  0
 29 30  1  0  0  0  0
 30 24  1  0  0  0  0
 31 26  1  0  0  0  0
 31 25  2  0  0  0  0
M  END
>  <MODEL>
6

>  <REMARK>
 VINA RESULT:      -9.3      2.731      4.976
  Name = 
  4 active torsions:
  status: ('A' for Active; 'I' for Inactive)
    1  A    between atoms: C_3  and  C_9
    2  A    between atoms: C_3  and  C_22
    3  A    between atoms: C_9  and  C_23
    4  A    between atoms: N_15  and  C_23
                            x       y       z     vdW  Elec       q    Type
                         _______ _______ _______ _____ _____    ______ ____

>  <TORSDO>
F 4

$$$$
=
 OpenBabel10272400203D

 31 35  0  0  1  0  0  0  0  0999 V2000
  190.5440  176.8400  146.0060 C   0  0  0  0  0  0  0  0  0  0  0  0
  187.9070  177.7780  143.4140 C   0  0  0  0  0  0  0  0  0  0  0  0
  186.7240  178.1360  144.1200 C   0  0  0  0  0  0  0  0  0  0  0  0
  185.5000  178.6340  146.1520 C   0  0  0  0  0  3  0  0  0  0  0  0
  189.2140  177.4550  144.0730 C   0  0  0  0  0  0  0  0  0  0  0  0
  191.6560  176.7860  145.2280 N   0  0  0  0  0  0  0  0  0  0  0  0
  186.6840  178.2810  145.5130 C   0  0  0  0  0  3  0  0  0  0  0  0
  189.0470  177.3810  141.2590 N   0  0  0  0  0  0  0  0  0  0  0  0
  190.6410  176.5460  147.4600 C   0  0  0  0  0  1  0  0  0  0  0  0
  185.4960  178.2760  142.0240 C   0  0  0  0  0  3  0  0  0  0  0  0
  183.2760  179.1620  145.9370 O   0  0  0  0  0  0  0  0  0  0  0  0
  190.3570  177.6780  141.8290 C   0  0  0  0  0  2  0  0  0  0  0  0
  187.8550  177.7030  142.0010 C   0  0  0  0  0  0  0  0  0  0  0  0
  189.3110  177.1700  145.4430 C   0  0  0  0  0  3  0  0  0  0  0  0
  184.3580  178.8440  145.3800 C   0  0  0  0  0  0  0  0  0  0  0  0
  190.3840  177.3670  143.2910 C   0  0  0  0  0  0  0  0  0  0  0  0
  191.6010  177.0430  143.8950 C   0  0  0  0  0  3  0  0  0  0  0  0
  186.6520  177.9450  141.3260 C   0  0  0  0  0  3  0  0  0  0  0  0
  185.5220  178.3790  143.4120 C   0  0  0  0  0  0  0  0  0  0  0  0
  184.4080  178.7130  144.0580 O   0  0  0  0  0  0  0  0  0  0  0  0
  188.9960  176.9910  139.8520 C   0  0  0  0  0  2  0  0  0  0  0  0
  188.9350  179.2390  138.9980 O   0  0  0  0  0  1  0  0  0  0  0  0
  189.6490  178.0380  138.9540 C   0  0  2  0  0  3  0  0  0  0  0  0
  189.7540  177.5330  137.5200 C   0  0  0  0  0  2  0  0  0  0  0  0
  192.8200  175.3170  137.7110 C   0  0  0  0  0  0  0  0  0  0  0  0
  190.9420  173.9770  136.9720 C   0  0  0  0  0  3  0  0  0  0  0  0
  194.1300  175.4210  138.0380 F   0  0  0  0  0  0  0  0  0  0  0  0
  191.9920  176.4430  137.7760 C   0  0  0  0  0  3  0  0  0  0  0  0
  190.1150  175.1030  137.0370 C   0  0  0  0  0  3  0  0  0  0  0  0
  190.6380  176.3370  137.4360 C   0  0  0  0  0  0  0  0  0  0  0  0
  192.2950  174.0860  137.3090 C   0  0  0  0  0  3  0  0  0  0  0  0
  1  9  1  0  0  0  0
  2  5  1  0  0  0  0
  2  3  1  0  0  0  0
  3  7  1  0  0  0  0
  5 14  2  0  0  0  0
  6  1  2  0  0  0  0
  7  4  2  0  0  0  0
  8 12  1  0  0  0  0
  8 13  1  0  0  0  0
 10 19  1  0  0  0  0
 12 16  1  0  0  0  0
 13  2  2  0  0  0  0
 14  1  1  0  0  0  0
 15 11  2  0  0  0  0
 15  4  1  0  0  0  0
 16 17  2  0  0  0  0
 16  5  1  0  0  0  0
 17  6  1  0  0  0  0
 18 13  1  0  0  0  0
 18 10  2  0  0  0  0
 19 20  1  0  0  0  0
 19  3  2  0  0  0  0
 20 15  1  0  0  0  0
 21  8  1  0  0  0  0
 23 22  1  6  0  0  0
 23 21  1  0  0  0  0
 24 23  1  0  0  0  0
 25 28  1  0  0  0  0
 25 27  1  0  0  0  0
 26 29  2  0  0  0  0
 26 31  1  0  0  0  0
 29 30  1  0  0  0  0
 30 24  1  0  0  0  0
 30 28  2  0  0  0  0
 31 25  2  0  0  0  0
M  END
>  <MODEL>
7

>  <REMARK>
 VINA RESULT:      -9.3      3.460      6.586
  Name = 
  4 active torsions:
  status: ('A' for Active; 'I' for Inactive)
    1  A    between atoms: C_3  and  C_9
    2  A    between atoms: C_3  and  C_22
    3  A    between atoms: C_9  and  C_23
    4  A    between atoms: N_15  and  C_23
                            x       y       z     vdW  Elec       q    Type
                         _______ _______ _______ _____ _____    ______ ____

>  <TORSDO>
F 4

$$$$
=
 OpenBabel10272400203D

 31 35  0  0  1  0  0  0  0  0999 V2000
  190.7200  176.4110  143.0310 C   0  0  0  0  0  0  0  0  0  0  0  0
  187.2920  177.9950  142.4880 C   0  0  0  0  0  0  0  0  0  0  0  0
  186.6580  178.0860  143.7600 C   0  0  0  0  0  0  0  0  0  0  0  0
  186.6540  177.9120  146.1770 C   0  0  0  0  0  3  0  0  0  0  0  0
  188.7030  177.5330  142.2830 C   0  0  0  0  0  0  0  0  0  0  0  0
  191.2940  176.6290  141.8190 N   0  0  0  0  0  0  0  0  0  0  0  0
  187.3220  177.8060  144.9610 C   0  0  0  0  0  3  0  0  0  0  0  0
  187.1770  178.2990  140.0390 N   0  0  0  0  0  0  0  0  0  0  0  0
  191.4770  175.6990  144.0930 C   0  0  0  0  0  1  0  0  0  0  0  0
  184.5920  178.8060  142.6960 C   0  0  0  0  0  3  0  0  0  0  0  0
  184.6930  178.4080  147.2620 O   0  0  0  0  0  0  0  0  0  0  0  0
  188.6230  178.4550  139.9300 C   0  0  0  0  0  2  0  0  0  0  0  0
  186.5480  178.3450  141.3350 C   0  0  0  0  0  0  0  0  0  0  0  0
  189.4210  176.8540  143.2790 C   0  0  0  0  0  3  0  0  0  0  0  0
  185.3170  178.3070  146.1750 C   0  0  0  0  0  0  0  0  0  0  0  0
  189.3220  177.7210  141.0300 C   0  0  0  0  0  0  0  0  0  0  0  0
  190.6280  177.2720  140.8250 C   0  0  0  0  0  3  0  0  0  0  0  0
  185.2090  178.7380  141.4520 C   0  0  0  0  0  3  0  0  0  0  0  0
  185.3040  178.4900  143.8490 C   0  0  0  0  0  0  0  0  0  0  0  0
  184.6980  178.5790  145.0300 O   0  0  0  0  0  0  0  0  0  0  0  0
  186.3980  178.3470  138.8050 C   0  0  0  0  0  2  0  0  0  0  0  0
  187.2680  179.1470  136.7100 O   0  0  0  0  0  1  0  0  0  0  0  0
  187.2630  178.0540  137.5810 C   0  0  2  0  0  3  0  0  0  0  0  0
  186.7800  176.8010  136.8610 C   0  0  0  0  0  2  0  0  0  0  0  0
  188.3550  173.3570  136.8190 C   0  0  0  0  0  0  0  0  0  0  0  0
  190.0870  174.9940  137.2520 C   0  0  0  0  0  3  0  0  0  0  0  0
  187.9770  172.0690  136.6400 F   0  0  0  0  0  0  0  0  0  0  0  0
  187.4040  174.3800  136.7560 C   0  0  0  0  0  3  0  0  0  0  0  0
  189.1360  176.0170  137.1890 C   0  0  0  0  0  3  0  0  0  0  0  0
  187.7920  175.7110  136.9440 C   0  0  0  0  0  0  0  0  0  0  0  0
  189.6960  173.6640  137.0670 C   0  0  0  0  0  3  0  0  0  0  0  0
  1 14  1  0  0  0  0
  1  9  1  0  0  0  0
  2  3  1  0  0  0  0
  3 19  2  0  0  0  0
  3  7  1  0  0  0  0
  5  2  1  0  0  0  0
  5 14  2  0  0  0  0
  6  1  2  0  0  0  0
  7  4  2  0  0  0  0
  8 13  1  0  0  0  0
 10 19  1  0  0  0  0
 12  8  1  0  0  0  0
 12 16  1  0  0  0  0
 13 18  1  0  0  0  0
 13  2  2  0  0  0  0
 15  4  1  0  0  0  0
 15 11  2  0  0  0  0
 16  5  1  0  0  0  0
 17 16  2  0  0  0  0
 17  6  1  0  0  0  0
 18 10  2  0  0  0  0
 19 20  1  0  0  0  0
 20 15  1  0  0  0  0
 21  8  1  0  0  0  0
 23 22  1  6  0  0  0
 23 21  1  0  0  0  0
 24 30  1  0  0  0  0
 24 23  1  0  0  0  0
 25 31  1  0  0  0  0
 27 25  1  0  0  0  0
 28 25  2  0  0  0  0
 28 30  1  0  0  0  0
 29 26  1  0  0  0  0
 30 29  2  0  0  0  0
 31 26  2  0  0  0  0
M  END
>  <MODEL>
8

>  <REMARK>
 VINA RESULT:      -9.1      3.131      5.144
  Name = 
  4 active torsions:
  status: ('A' for Active; 'I' for Inactive)
    1  A    between atoms: C_3  and  C_9
    2  A    between atoms: C_3  and  C_22
    3  A    between atoms: C_9  and  C_23
    4  A    between atoms: N_15  and  C_23
                            x       y       z     vdW  Elec       q    Type
                         _______ _______ _______ _____ _____    ______ ____

>  <TORSDO>
F 4

$$$$
=
 OpenBabel10272400203D

 31 35  0  0  1  0  0  0  0  0999 V2000
  185.4940  178.3940  145.7460 C   0  0  0  0  0  0  0  0  0  0  0  0
  188.8590  177.5920  144.1400 C   0  0  0  0  0  0  0  0  0  0  0  0
  189.7570  177.2350  145.1860 C   0  0  0  0  0  0  0  0  0  0  0  0
  190.2630  176.6960  147.4940 C   0  0  0  0  0  3  0  0  0  0  0  0
  187.4000  177.8680  144.3420 C   0  0  0  0  0  0  0  0  0  0  0  0
  184.6960  178.4510  144.6480 N   0  0  0  0  0  0  0  0  0  0  0  0
  189.3430  177.0460  146.5110 C   0  0  0  0  0  3  0  0  0  0  0  0
  188.4750  178.0360  141.7400 N   0  0  0  0  0  0  0  0  0  0  0  0
  184.9180  178.6380  147.0940 C   0  0  0  0  0  1  0  0  0  0  0  0
  191.6060  177.1880  143.6050 C   0  0  0  0  0  3  0  0  0  0  0  0
  192.4490  176.2190  148.0060 O   0  0  0  0  0  0  0  0  0  0  0  0
  187.0600  177.6950  141.8420 C   0  0  0  0  0  2  0  0  0  0  0  0
  189.3680  177.7140  142.8230 C   0  0  0  0  0  0  0  0  0  0  0  0
  186.8520  178.1070  145.6110 C   0  0  0  0  0  3  0  0  0  0  0  0
  191.6000  176.5330  147.1330 C   0  0  0  0  0  0  0  0  0  0  0  0
  186.5480  177.9580  143.2220 C   0  0  0  0  0  0  0  0  0  0  0  0
  185.1910  178.2380  143.4010 C   0  0  0  0  0  3  0  0  0  0  0  0
  190.7330  177.5180  142.5750 C   0  0  0  0  0  3  0  0  0  0  0  0
  191.1310  177.0390  144.9040 C   0  0  0  0  0  0  0  0  0  0  0  0
  191.9810  176.7060  145.8720 O   0  0  0  0  0  0  0  0  0  0  0  0
  188.9720  178.4720  140.4380 C   0  0  0  0  0  2  0  0  0  0  0  0
  189.5630  176.1680  140.0820 O   0  0  0  0  0  1  0  0  0  0  0  0
  189.0620  177.3100  139.4510 C   0  0  2  0  0  3  0  0  0  0  0  0
  189.9280  177.6810  138.2530 C   0  0  0  0  0  2  0  0  0  0  0  0
  192.9090  175.4290  137.6300 C   0  0  0  0  0  0  0  0  0  0  0  0
  190.9220  174.3320  136.7850 C   0  0  0  0  0  3  0  0  0  0  0  0
  194.2470  175.4310  137.8450 F   0  0  0  0  0  0  0  0  0  0  0  0
  192.1360  176.5220  138.0330 C   0  0  0  0  0  3  0  0  0  0  0  0
  190.1480  175.4250  137.1880 C   0  0  0  0  0  3  0  0  0  0  0  0
  190.7540  176.5230  137.8100 C   0  0  0  0  0  0  0  0  0  0  0  0
  192.3030  174.3350  137.0060 C   0  0  0  0  0  3  0  0  0  0  0  0
  1  9  1  0  0  0  0
  2  5  1  0  0  0  0
  2  3  1  0  0  0  0
  3  7  1  0  0  0  0
  5 14  2  0  0  0  0
  6  1  2  0  0  0  0
  7  4  2  0  0  0  0
  8 12  1  0  0  0  0
  8 13  1  0  0  0  0
 10 19  1  0  0  0  0
 12 16  1  0  0  0  0
 13  2  2  0  0  0  0
 14  1  1  0  0  0  0
 15  4  1  0  0  0  0
 15 11  2  0  0  0  0
 16 17  2  0  0  0  0
 16  5  1  0  0  0  0
 17  6  1  0  0  0  0
 18 13  1  0  0  0  0
 18 10  2  0  0  0  0
 19  3  2  0  0  0  0
 19 20  1  0  0  0  0
 20 15  1  0  0  0  0
 21  8  1  0  0  0  0
 23 22  1  1  0  0  0
 23 21  1  0  0  0  0
 24 23  1  0  0  0  0
 25 27  1  0  0  0  0
 25 28  1  0  0  0  0
 26 31  1  0  0  0  0
 26 29  2  0  0  0  0
 29 30  1  0  0  0  0
 30 28  2  0  0  0  0
 30 24  1  0  0  0  0
 31 25  2  0  0  0  0
M  END
>  <MODEL>
9

>  <REMARK>
 VINA RESULT:      -8.9      3.344      6.065
  Name = 
  4 active torsions:
  status: ('A' for Active; 'I' for Inactive)
    1  A    between atoms: C_3  and  C_9
    2  A    between atoms: C_3  and  C_22
    3  A    between atoms: C_9  and  C_23
    4  A    between atoms: N_15  and  C_23
                            x       y       z     vdW  Elec       q    Type
                         _______ _______ _______ _____ _____    ______ ____

>  <TORSDO>
F 4

$$$$
