=
 OpenBabel10272414173D

 43 47  0  0  1  0  0  0  0  0999 V2000
  190.7240  177.6950  142.4240 C   0  0  0  0  0  0  0  0  0  0  0  0
  188.5300  177.3340  137.8820 C   0  0  0  0  0  0  0  0  0  0  0  0
  186.0870  178.7790  138.0770 N   0  0  0  0  0  0  0  0  0  0  0  0
  190.2760  177.2680  140.0820 C   0  0  0  0  0  0  0  0  0  0  0  0
  189.4320  178.2050  142.5830 C   0  0  0  0  0  3  0  0  0  0  0  0
  191.5700  177.6510  143.4810 F   0  0  0  0  0  0  0  0  0  0  0  0
  188.9660  177.7820  140.2380 C   0  0  0  0  0  0  0  0  0  0  0  0
  191.1470  177.2300  141.1740 C   0  0  0  0  0  3  0  0  0  0  0  0
  188.5560  178.2500  141.4950 C   0  0  0  0  0  3  0  0  0  0  0  0
  186.7940  178.3970  139.2350 N   0  0  0  0  0  2  0  0  0  0  0  0
  188.1080  177.8350  139.1280 C   0  0  0  0  0  0  0  0  0  0  0  0
  189.8370  176.8450  137.7390 C   0  0  0  0  0  3  0  0  0  0  0  0
  187.6020  177.4210  136.6910 C   0  0  2  0  0  3  0  0  0  0  0  0
  186.1510  177.6600  137.1360 C   0  0  0  0  0  2  0  0  0  0  0  0
  190.7040  176.8080  138.8340 C   0  0  0  0  0  3  0  0  0  0  0  0
  184.6840  178.9890  138.4500 C   0  0  2  0  0  3  0  0  0  0  0  0
  184.5480  180.1690  139.1890 O   0  0  0  0  0  1  0  0  0  0  0  0
  184.1350  177.8180  139.2680 C   0  0  0  0  0  2  0  0  0  0  0  0
  182.6180  177.8610  139.3680 C   0  0  1  0  0  3  0  0  0  0  0  0
  182.0760  176.9110  138.5010 O   0  0  0  0  0  1  0  0  0  0  0  0
  182.2000  177.5500  140.8010 C   0  0  0  0  0  2  0  0  0  0  0  0
  182.2940  178.7640  141.7290 C   0  0  2  0  0  3  0  0  0  0  0  0
  184.4320  178.8660  143.0950 C   0  0  0  0  0  0  0  0  0  0  0  0
  183.0780  178.4420  142.9140 N   0  0  0  0  0  2  0  0  0  0  0  0
  185.0030  179.5560  142.2050 O   0  0  0  0  0  0  0  0  0  0  0  0
  185.1580  178.4780  144.3180 C   0  0  0  0  0  0  0  0  0  0  0  0
  185.5260  178.5530  146.7650 C   0  0  0  0  0  2  0  0  0  0  0  0
  187.1350  177.3810  145.2600 C   0  0  0  0  0  3  0  0  0  0  0  0
  187.0020  178.2510  146.4800 C   0  0  0  0  0  2  0  0  0  0  0  0
  186.2890  177.5260  144.2350 C   0  0  0  0  0  3  0  0  0  0  0  0
  184.8260  179.0000  145.5090 C   0  0  0  0  0  3  0  0  0  0  0  0
  180.9150  179.2790  142.1280 C   0  0  0  0  0  2  0  0  0  0  0  0
  180.3990  180.8060  139.8910 S   0  0  0  0  0  1  0  0  0  0  0  0
  179.9820  179.3720  140.9280 C   0  0  0  0  0  2  0  0  0  0  0  0
  187.6610  176.1560  135.8410 C   0  0  0  0  0  2  0  0  0  0  0  0
  184.8190  173.7710  135.3530 C   0  0  0  0  0  2  0  0  0  0  0  0
  184.8540  173.3040  136.8170 C   0  0  2  0  0  3  0  0  0  0  0  0
  187.2880  174.0680  136.8330 C   0  0  0  0  0  2  0  0  0  0  0  0
  185.9310  174.7860  135.0400 C   0  0  0  0  0  2  0  0  0  0  0  0
  186.6200  175.2290  136.2510 N   0  0  0  0  0  0  0  0  0  0  0  0
  186.2700  173.0490  137.3640 C   0  0  0  0  0  2  0  0  0  0  0  0
  183.9450  172.2640  137.1000 O   0  0  0  0  0  0  0  0  0  0  0  0
  184.1150  171.2470  136.1450 C   0  0  0  0  0  1  0  0  0  0  0  0
  1  5  1  0  0  0  0
  1  6  1  0  0  0  0
  2 11  1  0  0  0  0
  3 16  1  0  0  0  0
  3 10  1  0  0  0  0
  4  7  1  0  0  0  0
  4  8  1  0  0  0  0
  7  9  1  0  0  0  0
  8  1  2  0  0  0  0
  9  5  2  0  0  0  0
 11 10  1  0  0  0  0
 11  7  2  0  0  0  0
 12  2  2  0  0  0  0
 12 15  1  0  0  0  0
 13 35  1  1  0  0  0
 13 14  1  0  0  0  0
 13  2  1  0  0  0  0
 14  3  1  0  0  0  0
 15  4  2  0  0  0  0
 16 17  1  1  0  0  0
 16 18  1  0  0  0  0
 18 19  1  0  0  0  0
 19 20  1  6  0  0  0
 19 21  1  0  0  0  0
 22 21  1  6  0  0  0
 22 32  1  0  0  0  0
 22 24  1  0  0  0  0
 23 26  1  0  0  0  0
 24 23  1  0  0  0  0
 25 23  2  0  0  0  0
 26 31  2  0  0  0  0
 28 29  1  0  0  0  0
 29 27  1  0  0  0  0
 30 26  1  0  0  0  0
 30 28  2  0  0  0  0
 31 27  1  0  0  0  0
 33 34  1  0  0  0  0
 34 32  1  0  0  0  0
 35 40  1  0  0  0  0
 36 37  1  0  0  0  0
 37 42  1  6  0  0  0
 37 41  1  0  0  0  0
 38 41  1  0  0  0  0
 39 36  1  0  0  0  0
 39 40  1  0  0  0  0
 40 38  1  0  0  0  0
 43 42  1  0  0  0  0
M  END
>  <MODEL>
1

>  <REMARK>
 VINA RESULT:      -8.5      0.000      0.000
  Name = 
  12 active torsions:
  status: ('A' for Active; 'I' for Inactive)
    1  A    between atoms: C_1  and  C_34
    2  A    between atoms: C_1  and  N_35
    3  A    between atoms: C_2  and  C_6
    4  A    between atoms: C_2  and  N_13
    5  A    between atoms: C_3  and  C_4
    6  A    between atoms: C_3  and  C_12
    7  A    between atoms: C_4  and  C_15
    8  A    between atoms: C_4  and  N_22
    9  A    between atoms: C_6  and  C_12
   10  A    between atoms: C_11  and  C_14
   11  A    between atoms: C_15  and  C_42
   12  A    between atoms: C_19  and  O_25
                            x       y       z     vdW  Elec       q    Type
                         _______ _______ _______ _____ _____    ______ ____

>  <TORSDO>
F 12

$$$$
=
 OpenBabel10272414173D

 43 47  0  0  1  0  0  0  0  0999 V2000
  191.1990  176.6670  147.2340 C   0  0  0  0  0  0  0  0  0  0  0  0
  187.6040  177.5750  143.7950 C   0  0  0  0  0  0  0  0  0  0  0  0
  188.8010  177.0800  141.2630 N   0  0  0  0  0  0  0  0  0  0  0  0
  189.0890  177.1240  146.1380 C   0  0  0  0  0  0  0  0  0  0  0  0
  191.8440  176.6460  145.9930 C   0  0  0  0  0  3  0  0  0  0  0  0
  191.9090  176.4590  148.3680 F   0  0  0  0  0  0  0  0  0  0  0  0
  189.7360  177.1040  144.8790 C   0  0  0  0  0  0  0  0  0  0  0  0
  189.8230  176.9030  147.3050 C   0  0  0  0  0  3  0  0  0  0  0  0
  191.1160  176.8620  144.8190 C   0  0  0  0  0  3  0  0  0  0  0  0
  189.5940  177.2410  142.4160 N   0  0  0  0  0  2  0  0  0  0  0  0
  188.9840  177.3060  143.7110 C   0  0  0  0  0  0  0  0  0  0  0  0
  186.9740  177.5730  145.0490 C   0  0  0  0  0  3  0  0  0  0  0  0
  186.8030  177.7660  142.5260 C   0  0  2  0  0  3  0  0  0  0  0  0
  187.7220  178.0660  141.3320 C   0  0  0  0  0  2  0  0  0  0  0  0
  187.7120  177.3530  146.2130 C   0  0  0  0  0  3  0  0  0  0  0  0
  189.6320  177.3870  140.0940 C   0  0  2  0  0  3  0  0  0  0  0  0
  190.9800  177.4620  140.4610 O   0  0  0  0  0  1  0  0  0  0  0  0
  189.2170  178.7040  139.4350 C   0  0  0  0  0  2  0  0  0  0  0  0
  188.8300  178.5090  137.9770 C   0  0  1  0  0  3  0  0  0  0  0  0
  188.8970  179.7370  137.3180 O   0  0  0  0  0  1  0  0  0  0  0  0
  189.7950  177.5210  137.3290 C   0  0  0  0  0  2  0  0  0  0  0  0
  189.1720  176.7570  136.1580 C   0  0  2  0  0  3  0  0  0  0  0  0
  186.7470  176.0280  136.3400 C   0  0  0  0  0  0  0  0  0  0  0  0
  188.1360  175.8500  136.6330 N   0  0  0  0  0  2  0  0  0  0  0  0
  186.3700  177.0070  135.6360 O   0  0  0  0  0  0  0  0  0  0  0  0
  185.7620  175.0720  136.8780 C   0  0  0  0  0  0  0  0  0  0  0  0
  185.1230  172.8530  137.7700 C   0  0  0  0  0  2  0  0  0  0  0  0
  183.3960  174.5890  137.2900 C   0  0  0  0  0  3  0  0  0  0  0  0
  183.7150  173.1200  137.2270 C   0  0  0  0  0  2  0  0  0  0  0  0
  184.3580  175.4950  137.0830 C   0  0  0  0  0  3  0  0  0  0  0  0
  186.1150  173.8080  137.1590 C   0  0  0  0  0  3  0  0  0  0  0  0
  190.2230  175.9920  135.3600 C   0  0  0  0  0  2  0  0  0  0  0  0
  191.2010  173.9210  136.8940 S   0  0  0  0  0  1  0  0  0  0  0  0
  191.4110  175.5990  136.2280 C   0  0  0  0  0  2  0  0  0  0  0  0
  185.7870  178.8940  142.6690 C   0  0  0  0  0  2  0  0  0  0  0  0
  182.0610  178.7260  142.3710 C   0  0  0  0  0  2  0  0  0  0  0  0
  182.1210  178.1030  140.9680 C   0  0  2  0  0  3  0  0  0  0  0  0
  184.4360  179.1570  140.7740 C   0  0  0  0  0  2  0  0  0  0  0  0
  183.4590  179.0550  142.9210 C   0  0  0  0  0  2  0  0  0  0  0  0
  184.5200  178.5030  142.0780 N   0  0  0  0  0  0  0  0  0  0  0  0
  183.1550  178.7540  140.0320 C   0  0  0  0  0  2  0  0  0  0  0  0
  180.8550  177.9260  140.3730 O   0  0  0  0  0  0  0  0  0  0  0  0
  180.9520  178.2440  139.0070 C   0  0  0  0  0  1  0  0  0  0  0  0
  1  8  1  0  0  0  0
  1  6  1  0  0  0  0
  2 12  1  0  0  0  0
  3 14  1  0  0  0  0
  3 10  1  0  0  0  0
  4 15  1  0  0  0  0
  4  8  2  0  0  0  0
  5  1  2  0  0  0  0
  7  4  1  0  0  0  0
  9  7  2  0  0  0  0
  9  5  1  0  0  0  0
 10 11  1  0  0  0  0
 11  2  2  0  0  0  0
 11  7  1  0  0  0  0
 12 15  2  0  0  0  0
 13 35  1  1  0  0  0
 13  2  1  0  0  0  0
 14 13  1  0  0  0  0
 16 17  1  1  0  0  0
 16  3  1  0  0  0  0
 18 16  1  0  0  0  0
 19 20  1  6  0  0  0
 19 18  1  0  0  0  0
 21 19  1  0  0  0  0
 22 32  1  1  0  0  0
 22 24  1  0  0  0  0
 22 21  1  0  0  0  0
 23 24  1  0  0  0  0
 23 26  1  0  0  0  0
 25 23  2  0  0  0  0
 26 30  1  0  0  0  0
 26 31  2  0  0  0  0
 29 28  1  0  0  0  0
 29 27  1  0  0  0  0
 30 28  2  0  0  0  0
 31 27  1  0  0  0  0
 32 34  1  0  0  0  0
 34 33  1  0  0  0  0
 36 39  1  0  0  0  0
 37 42  1  6  0  0  0
 37 36  1  0  0  0  0
 38 40  1  0  0  0  0
 40 35  1  0  0  0  0
 40 39  1  0  0  0  0
 41 38  1  0  0  0  0
 41 37  1  0  0  0  0
 43 42  1  0  0  0  0
M  END
>  <MODEL>
2

>  <REMARK>
 VINA RESULT:      -8.5      3.249      7.740
  Name = 
  12 active torsions:
  status: ('A' for Active; 'I' for Inactive)
    1  A    between atoms: C_1  and  C_34
    2  A    between atoms: C_1  and  N_35
    3  A    between atoms: C_2  and  C_6
    4  A    between atoms: C_2  and  N_13
    5  A    between atoms: C_3  and  C_4
    6  A    between atoms: C_3  and  C_12
    7  A    between atoms: C_4  and  C_15
    8  A    between atoms: C_4  and  N_22
    9  A    between atoms: C_6  and  C_12
   10  A    between atoms: C_11  and  C_14
   11  A    between atoms: C_15  and  C_42
   12  A    between atoms: C_19  and  O_25
                            x       y       z     vdW  Elec       q    Type
                         _______ _______ _______ _____ _____    ______ ____

>  <TORSDO>
F 12

$$$$
=
 OpenBabel10272414173D

 43 47  0  0  1  0  0  0  0  0999 V2000
  191.3160  177.5080  141.9850 C   0  0  0  0  0  0  0  0  0  0  0  0
  188.4050  177.5290  137.8500 C   0  0  0  0  0  0  0  0  0  0  0  0
  186.0290  178.9150  138.5740 N   0  0  0  0  0  0  0  0  0  0  0  0
  190.4890  177.2890  139.7190 C   0  0  0  0  0  0  0  0  0  0  0  0
  190.0680  177.9820  142.3990 C   0  0  0  0  0  3  0  0  0  0  0  0
  192.3230  177.3810  142.8810 F   0  0  0  0  0  0  0  0  0  0  0  0
  189.2230  177.7670  140.1340 C   0  0  0  0  0  0  0  0  0  0  0  0
  191.5270  177.1650  140.6460 C   0  0  0  0  0  3  0  0  0  0  0  0
  189.0250  178.1140  141.4780 C   0  0  0  0  0  3  0  0  0  0  0  0
  186.9150  178.4400  139.5600 N   0  0  0  0  0  2  0  0  0  0  0  0
  188.1930  177.9090  139.1890 C   0  0  0  0  0  0  0  0  0  0  0  0
  189.6700  177.0740  137.4510 C   0  0  0  0  0  3  0  0  0  0  0  0
  187.2940  177.7110  136.8400 C   0  0  2  0  0  3  0  0  0  0  0  0
  185.9360  177.8870  137.5360 C   0  0  0  0  0  2  0  0  0  0  0  0
  190.7050  176.9500  138.3800 C   0  0  0  0  0  3  0  0  0  0  0  0
  184.7060  179.0700  139.1890 C   0  0  2  0  0  3  0  0  0  0  0  0
  184.1350  180.2910  138.8140 O   0  0  0  0  0  1  0  0  0  0  0  0
  184.7810  178.9990  140.7160 C   0  0  0  0  0  2  0  0  0  0  0  0
  183.5050  178.4290  141.3170 C   0  0  1  0  0  3  0  0  0  0  0  0
  183.0940  177.3300  140.5620 O   0  0  0  0  0  1  0  0  0  0  0  0
  183.7780  177.9950  142.7540 C   0  0  0  0  0  2  0  0  0  0  0  0
  183.9420  179.1740  143.7150 C   0  0  2  0  0  3  0  0  0  0  0  0
  186.1490  178.2430  144.5580 C   0  0  0  0  0  0  0  0  0  0  0  0
  184.8670  178.8350  144.7890 N   0  0  0  0  0  2  0  0  0  0  0  0
  186.5270  177.9940  143.3790 O   0  0  0  0  0  0  0  0  0  0  0  0
  187.0140  177.9140  145.7050 C   0  0  0  0  0  0  0  0  0  0  0  0
  187.5320  177.8960  148.1260 C   0  0  0  0  0  2  0  0  0  0  0  0
  189.2130  177.1310  146.4480 C   0  0  0  0  0  3  0  0  0  0  0  0
  189.0140  177.8820  147.7360 C   0  0  0  0  0  2  0  0  0  0  0  0
  188.2860  177.1870  145.4870 C   0  0  0  0  0  3  0  0  0  0  0  0
  186.6790  178.2910  146.9490 C   0  0  0  0  0  3  0  0  0  0  0  0
  182.6030  179.6240  144.2900 C   0  0  0  0  0  2  0  0  0  0  0  0
  180.2010  179.5580  142.9390 S   0  0  0  0  0  1  0  0  0  0  0  0
  181.4750  178.6810  143.8940 C   0  0  0  0  0  2  0  0  0  0  0  0
  187.2110  176.5300  135.8790 C   0  0  0  0  0  2  0  0  0  0  0  0
  184.4870  173.9650  135.8840 C   0  0  0  0  0  2  0  0  0  0  0  0
  184.9340  173.3760  137.2320 C   0  0  2  0  0  3  0  0  0  0  0  0
  187.2370  174.3380  136.7050 C   0  0  0  0  0  2  0  0  0  0  0  0
  185.4150  175.0930  135.4070 C   0  0  0  0  0  2  0  0  0  0  0  0
  186.3720  175.4860  136.4410 N   0  0  0  0  0  0  0  0  0  0  0  0
  186.4560  173.1950  137.3670 C   0  0  0  0  0  2  0  0  0  0  0  0
  184.1930  172.2420  137.6260 O   0  0  0  0  0  0  0  0  0  0  0  0
  183.2430  171.9580  136.6310 C   0  0  0  0  0  1  0  0  0  0  0  0
  1  5  1  0  0  0  0
  1  6  1  0  0  0  0
  2 11  1  0  0  0  0
  3 16  1  0  0  0  0
  3 10  1  0  0  0  0
  4  7  1  0  0  0  0
  4  8  1  0  0  0  0
  7  9  1  0  0  0  0
  8  1  2  0  0  0  0
  9  5  2  0  0  0  0
 11 10  1  0  0  0  0
 11  7  2  0  0  0  0
 12  2  2  0  0  0  0
 12 15  1  0  0  0  0
 13 35  1  6  0  0  0
 13 14  1  0  0  0  0
 13  2  1  0  0  0  0
 14  3  1  0  0  0  0
 15  4  2  0  0  0  0
 16 17  1  1  0  0  0
 16 18  1  0  0  0  0
 18 19  1  0  0  0  0
 19 20  1  6  0  0  0
 19 21  1  0  0  0  0
 22 21  1  6  0  0  0
 22 32  1  0  0  0  0
 22 24  1  0  0  0  0
 23 24  1  0  0  0  0
 23 26  1  0  0  0  0
 25 23  2  0  0  0  0
 26 31  2  0  0  0  0
 28 29  1  0  0  0  0
 29 27  1  0  0  0  0
 30 26  1  0  0  0  0
 30 28  2  0  0  0  0
 31 27  1  0  0  0  0
 33 34  1  0  0  0  0
 34 32  1  0  0  0  0
 35 40  1  0  0  0  0
 36 37  1  0  0  0  0
 37 41  1  0  0  0  0
 37 42  1  6  0  0  0
 38 41  1  0  0  0  0
 39 36  1  0  0  0  0
 39 40  1  0  0  0  0
 40 38  1  0  0  0  0
 43 42  1  0  0  0  0
M  END
>  <MODEL>
3

>  <REMARK>
 VINA RESULT:      -8.4      1.299      1.672
  Name = 
  12 active torsions:
  status: ('A' for Active; 'I' for Inactive)
    1  A    between atoms: C_1  and  C_34
    2  A    between atoms: C_1  and  N_35
    3  A    between atoms: C_2  and  C_6
    4  A    between atoms: C_2  and  N_13
    5  A    between atoms: C_3  and  C_4
    6  A    between atoms: C_3  and  C_12
    7  A    between atoms: C_4  and  C_15
    8  A    between atoms: C_4  and  N_22
    9  A    between atoms: C_6  and  C_12
   10  A    between atoms: C_11  and  C_14
   11  A    between atoms: C_15  and  C_42
   12  A    between atoms: C_19  and  O_25
                            x       y       z     vdW  Elec       q    Type
                         _______ _______ _______ _____ _____    ______ ____

>  <TORSDO>
F 12

$$$$
=
 OpenBabel10272414173D

 43 47  0  0  1  0  0  0  0  0999 V2000
  188.2020  177.9790  148.2680 C   0  0  0  0  0  0  0  0  0  0  0  0
  186.4820  178.0850  143.5140 C   0  0  0  0  0  0  0  0  0  0  0  0
  188.5750  177.0310  141.9020 N   0  0  0  0  0  0  0  0  0  0  0  0
  186.7980  178.1740  146.3050 C   0  0  0  0  0  0  0  0  0  0  0  0
  189.3010  177.6780  147.4580 C   0  0  0  0  0  3  0  0  0  0  0  0
  188.3480  178.0320  149.6140 F   0  0  0  0  0  0  0  0  0  0  0  0
  187.9080  177.8720  145.4800 C   0  0  0  0  0  0  0  0  0  0  0  0
  186.9520  178.2230  147.6930 C   0  0  0  0  0  3  0  0  0  0  0  0
  189.1560  177.6230  146.0690 C   0  0  0  0  0  3  0  0  0  0  0  0
  188.8240  177.4490  143.2240 N   0  0  0  0  0  2  0  0  0  0  0  0
  187.7370  177.8040  144.0870 C   0  0  0  0  0  0  0  0  0  0  0  0
  185.3870  178.3640  144.3460 C   0  0  0  0  0  3  0  0  0  0  0  0
  186.3080  177.9830  142.0150 C   0  0  2  0  0  3  0  0  0  0  0  0
  187.6660  178.0060  141.2980 C   0  0  0  0  0  2  0  0  0  0  0  0
  185.5460  178.4130  145.7330 C   0  0  0  0  0  3  0  0  0  0  0  0
  189.8440  177.0670  141.1680 C   0  0  2  0  0  3  0  0  0  0  0  0
  190.8470  177.6430  141.9560 O   0  0  0  0  0  1  0  0  0  0  0  0
  189.7200  177.8530  139.8610 C   0  0  0  0  0  2  0  0  0  0  0  0
  190.4650  177.1760  138.7210 C   0  0  1  0  0  3  0  0  0  0  0  0
  191.6590  176.6430  139.2070 O   0  0  0  0  0  1  0  0  0  0  0  0
  189.5980  176.0590  138.1480 C   0  0  0  0  0  2  0  0  0  0  0  0
  188.4720  176.5760  137.2490 C   0  0  2  0  0  3  0  0  0  0  0  0
  186.0880  175.7610  136.9340 C   0  0  0  0  0  0  0  0  0  0  0  0
  187.4980  175.5240  136.9930 N   0  0  0  0  0  2  0  0  0  0  0  0
  185.6360  176.9270  137.1050 O   0  0  0  0  0  0  0  0  0  0  0  0
  185.1710  174.6330  136.6890 C   0  0  0  0  0  0  0  0  0  0  0  0
  183.2020  173.6070  135.5930 C   0  0  0  0  0  2  0  0  0  0  0  0
  184.4560  172.3930  137.3770 C   0  0  0  0  0  3  0  0  0  0  0  0
  183.0920  172.6870  136.8140 C   0  0  0  0  0  2  0  0  0  0  0  0
  185.4100  173.3290  137.3490 C   0  0  0  0  0  3  0  0  0  0  0  0
  184.1000  174.7790  135.8930 C   0  0  0  0  0  3  0  0  0  0  0  0
  189.0090  177.1350  135.9350 C   0  0  0  0  0  2  0  0  0  0  0  0
  191.0600  176.2040  134.3460 S   0  0  0  0  0  1  0  0  0  0  0  0
  189.3560  176.0240  134.9530 C   0  0  0  0  0  2  0  0  0  0  0  0
  185.4390  179.1140  141.4740 C   0  0  0  0  0  2  0  0  0  0  0  0
  181.8750  178.2790  140.6990 C   0  0  0  0  0  2  0  0  0  0  0  0
  182.2000  177.8740  139.2530 C   0  0  2  0  0  3  0  0  0  0  0  0
  184.2570  179.3680  139.4680 C   0  0  0  0  0  2  0  0  0  0  0  0
  183.1140  178.7910  141.4520 C   0  0  0  0  0  2  0  0  0  0  0  0
  184.3430  178.5710  140.6900 N   0  0  0  0  0  0  0  0  0  0  0  0
  183.1660  178.8320  138.5320 C   0  0  0  0  0  2  0  0  0  0  0  0
  181.0620  177.5410  138.4900 O   0  0  0  0  0  0  0  0  0  0  0  0
  180.3580  178.7210  138.1950 C   0  0  0  0  0  1  0  0  0  0  0  0
  1  6  1  0  0  0  0
  2 11  2  0  0  0  0
  2 12  1  0  0  0  0
  3 10  1  0  0  0  0
  4  8  2  0  0  0  0
  5  1  2  0  0  0  0
  7  9  2  0  0  0  0
  7  4  1  0  0  0  0
  8  1  1  0  0  0  0
  9  5  1  0  0  0  0
 10 11  1  0  0  0  0
 11  7  1  0  0  0  0
 12 15  2  0  0  0  0
 13 35  1  6  0  0  0
 13  2  1  0  0  0  0
 14  3  1  0  0  0  0
 14 13  1  0  0  0  0
 15  4  1  0  0  0  0
 16  3  1  0  0  0  0
 16 17  1  1  0  0  0
 18 16  1  0  0  0  0
 19 20  1  1  0  0  0
 19 18  1  0  0  0  0
 21 19  1  0  0  0  0
 22 32  1  6  0  0  0
 22 21  1  0  0  0  0
 23 24  1  0  0  0  0
 23 25  2  0  0  0  0
 24 22  1  0  0  0  0
 26 23  1  0  0  0  0
 26 30  1  0  0  0  0
 27 31  1  0  0  0  0
 27 29  1  0  0  0  0
 29 28  1  0  0  0  0
 30 28  2  0  0  0  0
 31 26  2  0  0  0  0
 33 34  1  0  0  0  0
 34 32  1  0  0  0  0
 36 39  1  0  0  0  0
 37 42  1  6  0  0  0
 37 36  1  0  0  0  0
 38 40  1  0  0  0  0
 40 39  1  0  0  0  0
 40 35  1  0  0  0  0
 41 37  1  0  0  0  0
 41 38  1  0  0  0  0
 43 42  1  0  0  0  0
M  END
>  <MODEL>
4

>  <REMARK>
 VINA RESULT:      -8.2      3.201      7.794
  Name = 
  12 active torsions:
  status: ('A' for Active; 'I' for Inactive)
    1  A    between atoms: C_1  and  C_34
    2  A    between atoms: C_1  and  N_35
    3  A    between atoms: C_2  and  C_6
    4  A    between atoms: C_2  and  N_13
    5  A    between atoms: C_3  and  C_4
    6  A    between atoms: C_3  and  C_12
    7  A    between atoms: C_4  and  C_15
    8  A    between atoms: C_4  and  N_22
    9  A    between atoms: C_6  and  C_12
   10  A    between atoms: C_11  and  C_14
   11  A    between atoms: C_15  and  C_42
   12  A    between atoms: C_19  and  O_25
                            x       y       z     vdW  Elec       q    Type
                         _______ _______ _______ _____ _____    ______ ____

>  <TORSDO>
F 12

$$$$
=
 OpenBabel10272414173D

 43 47  0  0  1  0  0  0  0  0999 V2000
  191.1510  176.6400  147.1810 C   0  0  0  0  0  0  0  0  0  0  0  0
  187.1350  177.8460  144.3540 C   0  0  0  0  0  0  0  0  0  0  0  0
  187.9860  177.6180  141.6500 N   0  0  0  0  0  0  0  0  0  0  0  0
  188.9150  177.1800  146.4240 C   0  0  0  0  0  0  0  0  0  0  0  0
  191.6260  176.7490  145.8700 C   0  0  0  0  0  3  0  0  0  0  0  0
  192.0040  176.3280  148.1860 F   0  0  0  0  0  0  0  0  0  0  0  0
  189.3910  177.2930  145.0960 C   0  0  0  0  0  0  0  0  0  0  0  0
  189.7970  176.8520  147.4570 C   0  0  0  0  0  3  0  0  0  0  0  0
  190.7500  177.0720  144.8300 C   0  0  0  0  0  3  0  0  0  0  0  0
  188.9250  177.6720  142.6990 N   0  0  0  0  0  2  0  0  0  0  0  0
  188.4910  177.6010  144.0620 C   0  0  0  0  0  0  0  0  0  0  0  0
  186.6760  177.7120  145.6730 C   0  0  0  0  0  3  0  0  0  0  0  0
  186.1740  178.1530  143.2270 C   0  0  2  0  0  3  0  0  0  0  0  0
  186.9280  178.5800  141.9580 C   0  0  0  0  0  2  0  0  0  0  0  0
  187.5610  177.3850  146.7020 C   0  0  0  0  0  3  0  0  0  0  0  0
  188.6560  178.0480  140.4180 C   0  0  2  0  0  3  0  0  0  0  0  0
  187.7360  178.6310  139.5410 O   0  0  0  0  0  1  0  0  0  0  0  0
  189.3500  176.8800  139.7140 C   0  0  0  0  0  2  0  0  0  0  0  0
  190.7410  177.2590  139.2280 C   0  0  1  0  0  3  0  0  0  0  0  0
  191.5920  177.3810  140.3280 O   0  0  0  0  0  1  0  0  0  0  0  0
  191.2600  176.1720  138.2930 C   0  0  0  0  0  2  0  0  0  0  0  0
  190.9720  176.4640  136.8180 C   0  0  2  0  0  3  0  0  0  0  0  0
  188.5910  177.1650  136.2810 C   0  0  0  0  0  0  0  0  0  0  0  0
  189.5840  176.1580  136.4980 N   0  0  0  0  0  2  0  0  0  0  0  0
  188.9020  178.3860  136.3610 O   0  0  0  0  0  0  0  0  0  0  0  0
  187.2050  176.7660  135.9800 C   0  0  0  0  0  0  0  0  0  0  0  0
  185.5140  175.5560  134.6350 C   0  0  0  0  0  2  0  0  0  0  0  0
  184.8270  177.1200  136.4550 C   0  0  0  0  0  3  0  0  0  0  0  0
  184.5070  176.6260  135.0700 C   0  0  0  0  0  2  0  0  0  0  0  0
  186.0990  177.2200  136.8550 C   0  0  0  0  0  3  0  0  0  0  0  0
  186.9240  176.0170  134.9030 C   0  0  0  0  0  3  0  0  0  0  0  0
  191.9120  175.6940  135.8960 C   0  0  0  0  0  2  0  0  0  0  0  0
  194.6660  175.7440  136.0020 S   0  0  0  0  0  1  0  0  0  0  0  0
  193.0940  175.1100  136.6580 C   0  0  0  0  0  2  0  0  0  0  0  0
  185.1890  179.2500  143.6140 C   0  0  0  0  0  2  0  0  0  0  0  0
  182.9780  177.8770  140.9260 C   0  0  0  0  0  2  0  0  0  0  0  0
  181.8210  178.8220  141.2830 C   0  0  2  0  0  3  0  0  0  0  0  0
  182.8650  178.9610  143.6060 C   0  0  0  0  0  2  0  0  0  0  0  0
  184.1780  178.0430  141.8730 C   0  0  0  0  0  2  0  0  0  0  0  0
  184.0230  179.2040  142.7500 N   0  0  0  0  0  0  0  0  0  0  0  0
  181.5630  178.9610  142.7940 C   0  0  0  0  0  2  0  0  0  0  0  0
  180.6510  178.5930  140.5300 O   0  0  0  0  0  0  0  0  0  0  0  0
  180.5510  179.5880  139.5430 C   0  0  0  0  0  1  0  0  0  0  0  0
  1  8  1  0  0  0  0
  1  6  1  0  0  0  0
  2 12  1  0  0  0  0
  3 14  1  0  0  0  0
  3 10  1  0  0  0  0
  4 15  1  0  0  0  0
  4  8  2  0  0  0  0
  5  1  2  0  0  0  0
  7  4  1  0  0  0  0
  9  7  2  0  0  0  0
  9  5  1  0  0  0  0
 10 11  1  0  0  0  0
 11  2  2  0  0  0  0
 11  7  1  0  0  0  0
 12 15  2  0  0  0  0
 13 35  1  1  0  0  0
 13  2  1  0  0  0  0
 14 13  1  0  0  0  0
 16 17  1  6  0  0  0
 16  3  1  0  0  0  0
 18 16  1  0  0  0  0
 19 18  1  0  0  0  0
 19 20  1  1  0  0  0
 21 19  1  0  0  0  0
 22 32  1  6  0  0  0
 22 21  1  0  0  0  0
 23 25  2  0  0  0  0
 23 24  1  0  0  0  0
 24 22  1  0  0  0  0
 26 23  1  0  0  0  0
 26 30  1  0  0  0  0
 27 31  1  0  0  0  0
 27 29  1  0  0  0  0
 28 30  2  0  0  0  0
 29 28  1  0  0  0  0
 31 26  2  0  0  0  0
 32 34  1  0  0  0  0
 33 34  1  0  0  0  0
 36 37  1  0  0  0  0
 36 39  1  0  0  0  0
 37 42  1  6  0  0  0
 37 41  1  0  0  0  0
 39 40  1  0  0  0  0
 40 38  1  0  0  0  0
 40 35  1  0  0  0  0
 41 38  1  0  0  0  0
 43 42  1  0  0  0  0
M  END
>  <MODEL>
5

>  <REMARK>
 VINA RESULT:      -8.1      3.506      8.405
  Name = 
  12 active torsions:
  status: ('A' for Active; 'I' for Inactive)
    1  A    between atoms: C_1  and  C_34
    2  A    between atoms: C_1  and  N_35
    3  A    between atoms: C_2  and  C_6
    4  A    between atoms: C_2  and  N_13
    5  A    between atoms: C_3  and  C_4
    6  A    between atoms: C_3  and  C_12
    7  A    between atoms: C_4  and  C_15
    8  A    between atoms: C_4  and  N_22
    9  A    between atoms: C_6  and  C_12
   10  A    between atoms: C_11  and  C_14
   11  A    between atoms: C_15  and  C_42
   12  A    between atoms: C_19  and  O_25
                            x       y       z     vdW  Elec       q    Type
                         _______ _______ _______ _____ _____    ______ ____

>  <TORSDO>
F 12

$$$$
=
 OpenBabel10272414173D

 43 47  0  0  1  0  0  0  0  0999 V2000
  190.9920  176.9170  146.9230 C   0  0  0  0  0  0  0  0  0  0  0  0
  187.1680  177.7920  143.7310 C   0  0  0  0  0  0  0  0  0  0  0  0
  188.2370  177.4480  141.1180 N   0  0  0  0  0  0  0  0  0  0  0  0
  188.8030  177.3190  145.9670 C   0  0  0  0  0  0  0  0  0  0  0  0
  191.5640  176.9720  145.6480 C   0  0  0  0  0  3  0  0  0  0  0  0
  191.7740  176.6980  148.0070 F   0  0  0  0  0  0  0  0  0  0  0  0
  189.3770  177.3770  144.6740 C   0  0  0  0  0  0  0  0  0  0  0  0
  189.6130  177.0870  147.0810 C   0  0  0  0  0  3  0  0  0  0  0  0
  190.7600  177.1990  144.5270 C   0  0  0  0  0  3  0  0  0  0  0  0
  189.0880  177.6000  142.2310 N   0  0  0  0  0  2  0  0  0  0  0  0
  188.5510  177.5880  143.5590 C   0  0  0  0  0  0  0  0  0  0  0  0
  186.6120  177.7130  145.0170 C   0  0  0  0  0  3  0  0  0  0  0  0
  186.2880  177.9940  142.5180 C   0  0  2  0  0  3  0  0  0  0  0  0
  187.1220  178.3800  141.2880 C   0  0  0  0  0  2  0  0  0  0  0  0
  187.4250  177.4820  146.1290 C   0  0  0  0  0  3  0  0  0  0  0  0
  188.9850  177.8360  139.9180 C   0  0  2  0  0  3  0  0  0  0  0  0
  188.7250  179.1710  139.5920 O   0  0  0  0  0  1  0  0  0  0  0  0
  188.6340  176.9500  138.7210 C   0  0  0  0  0  2  0  0  0  0  0  0
  189.8580  176.2390  138.1650 C   0  0  1  0  0  3  0  0  0  0  0  0
  190.6520  175.7980  139.2250 O   0  0  0  0  0  1  0  0  0  0  0  0
  189.4090  175.0470  137.3260 C   0  0  0  0  0  2  0  0  0  0  0  0
  188.3520  175.4140  136.2820 C   0  0  2  0  0  3  0  0  0  0  0  0
  186.1110  174.2600  136.5880 C   0  0  0  0  0  0  0  0  0  0  0  0
  187.4420  174.2990  136.0620 N   0  0  0  0  0  2  0  0  0  0  0  0
  185.6760  175.2240  137.2780 O   0  0  0  0  0  0  0  0  0  0  0  0
  185.2640  173.0820  136.3340 C   0  0  0  0  0  0  0  0  0  0  0  0
  183.3040  171.6460  136.8140 C   0  0  0  0  0  2  0  0  0  0  0  0
  185.0280  170.9490  135.1500 C   0  0  0  0  0  3  0  0  0  0  0  0
  184.1120  170.4750  136.2450 C   0  0  0  0  0  2  0  0  0  0  0  0
  185.5940  172.1590  135.2240 C   0  0  0  0  0  3  0  0  0  0  0  0
  184.2060  172.8140  137.1160 C   0  0  0  0  0  3  0  0  0  0  0  0
  188.9860  175.8490  134.9650 C   0  0  0  0  0  2  0  0  0  0  0  0
  187.1190  177.8720  135.1070 S   0  0  0  0  0  1  0  0  0  0  0  0
  188.8160  177.3440  134.7260 C   0  0  0  0  0  2  0  0  0  0  0  0
  185.2340  179.0690  142.7630 C   0  0  0  0  0  2  0  0  0  0  0  0
  181.5000  178.8410  142.7960 C   0  0  0  0  0  2  0  0  0  0  0  0
  181.4570  178.0440  141.4830 C   0  0  2  0  0  3  0  0  0  0  0  0
  183.7300  179.0800  140.9680 C   0  0  0  0  0  2  0  0  0  0  0  0
  182.9310  179.2460  143.1830 C   0  0  0  0  0  2  0  0  0  0  0  0
  183.9300  178.5980  142.3330 N   0  0  0  0  0  0  0  0  0  0  0  0
  182.4000  178.5770  140.3900 C   0  0  0  0  0  2  0  0  0  0  0  0
  180.1490  177.7850  141.0220 O   0  0  0  0  0  0  0  0  0  0  0  0
  180.1510  176.5610  140.3330 C   0  0  0  0  0  1  0  0  0  0  0  0
  1  8  1  0  0  0  0
  1  6  1  0  0  0  0
  2 12  1  0  0  0  0
  3 14  1  0  0  0  0
  3 10  1  0  0  0  0
  4 15  1  0  0  0  0
  4  8  2  0  0  0  0
  5  1  2  0  0  0  0
  7  4  1  0  0  0  0
  9  7  2  0  0  0  0
  9  5  1  0  0  0  0
 10 11  1  0  0  0  0
 11  2  2  0  0  0  0
 11  7  1  0  0  0  0
 12 15  2  0  0  0  0
 13 35  1  1  0  0  0
 13  2  1  0  0  0  0
 14 13  1  0  0  0  0
 16 17  1  6  0  0  0
 16  3  1  0  0  0  0
 18 16  1  0  0  0  0
 19 18  1  0  0  0  0
 19 20  1  1  0  0  0
 21 19  1  0  0  0  0
 22 32  1  6  0  0  0
 22 21  1  0  0  0  0
 23 25  2  0  0  0  0
 24 22  1  0  0  0  0
 24 23  1  0  0  0  0
 26 23  1  0  0  0  0
 26 31  2  0  0  0  0
 27 31  1  0  0  0  0
 28 30  2  0  0  0  0
 28 29  1  0  0  0  0
 29 27  1  0  0  0  0
 30 26  1  0  0  0  0
 34 32  1  0  0  0  0
 34 33  1  0  0  0  0
 36 39  1  0  0  0  0
 37 42  1  6  0  0  0
 37 36  1  0  0  0  0
 38 40  1  0  0  0  0
 40 35  1  0  0  0  0
 40 39  1  0  0  0  0
 41 38  1  0  0  0  0
 41 37  1  0  0  0  0
 43 42  1  0  0  0  0
M  END
>  <MODEL>
6

>  <REMARK>
 VINA RESULT:      -8.0      2.713      7.888
  Name = 
  12 active torsions:
  status: ('A' for Active; 'I' for Inactive)
    1  A    between atoms: C_1  and  C_34
    2  A    between atoms: C_1  and  N_35
    3  A    between atoms: C_2  and  C_6
    4  A    between atoms: C_2  and  N_13
    5  A    between atoms: C_3  and  C_4
    6  A    between atoms: C_3  and  C_12
    7  A    between atoms: C_4  and  C_15
    8  A    between atoms: C_4  and  N_22
    9  A    between atoms: C_6  and  C_12
   10  A    between atoms: C_11  and  C_14
   11  A    between atoms: C_15  and  C_42
   12  A    between atoms: C_19  and  O_25
                            x       y       z     vdW  Elec       q    Type
                         _______ _______ _______ _____ _____    ______ ____

>  <TORSDO>
F 12

$$$$
=
 OpenBabel10272414173D

 43 47  0  0  1  0  0  0  0  0999 V2000
  191.2250  176.5220  147.0750 C   0  0  0  0  0  0  0  0  0  0  0  0
  187.0160  177.8930  144.6300 C   0  0  0  0  0  0  0  0  0  0  0  0
  187.6630  177.8270  141.8620 N   0  0  0  0  0  0  0  0  0  0  0  0
  188.9410  177.1050  146.5190 C   0  0  0  0  0  0  0  0  0  0  0  0
  191.6020  176.7090  145.7410 C   0  0  0  0  0  3  0  0  0  0  0  0
  192.1490  176.1500  147.9930 F   0  0  0  0  0  0  0  0  0  0  0  0
  189.3180  177.2970  145.1680 C   0  0  0  0  0  0  0  0  0  0  0  0
  189.8960  176.7160  147.4620 C   0  0  0  0  0  3  0  0  0  0  0  0
  190.6520  177.0940  144.7900 C   0  0  0  0  0  3  0  0  0  0  0  0
  188.6770  177.8190  142.8390 N   0  0  0  0  0  2  0  0  0  0  0  0
  188.3450  177.6670  144.2250 C   0  0  0  0  0  0  0  0  0  0  0  0
  186.6550  177.6800  145.9690 C   0  0  0  0  0  3  0  0  0  0  0  0
  185.9750  178.2660  143.5980 C   0  0  2  0  0  3  0  0  0  0  0  0
  186.6340  178.7680  142.3050 C   0  0  0  0  0  2  0  0  0  0  0  0
  187.6120  177.2920  146.9090 C   0  0  0  0  0  3  0  0  0  0  0  0
  188.2410  178.3310  140.6110 C   0  0  2  0  0  3  0  0  0  0  0  0
  187.2310  178.6150  139.6870 O   0  0  0  0  0  1  0  0  0  0  0  0
  189.2170  177.3260  139.9950 C   0  0  0  0  0  2  0  0  0  0  0  0
  189.1550  177.3380  138.4750 C   0  0  1  0  0  3  0  0  0  0  0  0
  190.4020  177.7070  137.9690 O   0  0  0  0  0  1  0  0  0  0  0  0
  188.7870  175.9440  137.9770 C   0  0  0  0  0  2  0  0  0  0  0  0
  187.9720  175.9670  136.6820 C   0  0  2  0  0  3  0  0  0  0  0  0
  185.6340  176.9140  136.9730 C   0  0  0  0  0  0  0  0  0  0  0  0
  186.5520  175.8160  136.9700 N   0  0  0  0  0  2  0  0  0  0  0  0
  186.0430  178.0800  136.7150 O   0  0  0  0  0  0  0  0  0  0  0  0
  184.2160  176.6740  137.2950 C   0  0  0  0  0  0  0  0  0  0  0  0
  181.8860  177.4400  137.6390 C   0  0  0  0  0  2  0  0  0  0  0  0
  182.5500  175.0860  138.1350 C   0  0  0  0  0  3  0  0  0  0  0  0
  181.7110  176.2490  138.5880 C   0  0  0  0  0  2  0  0  0  0  0  0
  183.7420  175.2980  137.5670 C   0  0  0  0  0  3  0  0  0  0  0  0
  183.3470  177.6950  137.3740 C   0  0  0  0  0  3  0  0  0  0  0  0
  188.4330  174.8900  135.7050 C   0  0  0  0  0  2  0  0  0  0  0  0
  188.0010  172.1680  135.7240 S   0  0  0  0  0  1  0  0  0  0  0  0
  187.3500  173.8460  135.4680 C   0  0  0  0  0  2  0  0  0  0  0  0
  185.0250  179.3380  144.1220 C   0  0  0  0  0  2  0  0  0  0  0  0
  182.7040  178.2760  141.3860 C   0  0  0  0  0  2  0  0  0  0  0  0
  181.5010  178.9900  142.0210 C   0  0  2  0  0  3  0  0  0  0  0  0
  182.7520  178.7860  144.2340 C   0  0  0  0  0  2  0  0  0  0  0  0
  183.9700  178.3900  142.2510 C   0  0  0  0  0  2  0  0  0  0  0  0
  183.7890  179.3280  143.3600 N   0  0  0  0  0  0  0  0  0  0  0  0
  181.3820  178.7940  143.5430 C   0  0  0  0  0  2  0  0  0  0  0  0
  180.2890  178.7790  141.3290 O   0  0  0  0  0  0  0  0  0  0  0  0
  180.2210  179.6850  140.2580 C   0  0  0  0  0  1  0  0  0  0  0  0
  1  8  1  0  0  0  0
  1  6  1  0  0  0  0
  2 12  1  0  0  0  0
  3 14  1  0  0  0  0
  3 10  1  0  0  0  0
  4 15  1  0  0  0  0
  4  8  2  0  0  0  0
  5  1  2  0  0  0  0
  7  4  1  0  0  0  0
  9  7  2  0  0  0  0
  9  5  1  0  0  0  0
 10 11  1  0  0  0  0
 11  2  2  0  0  0  0
 11  7  1  0  0  0  0
 12 15  2  0  0  0  0
 13 35  1  1  0  0  0
 13  2  1  0  0  0  0
 14 13  1  0  0  0  0
 16 17  1  6  0  0  0
 16  3  1  0  0  0  0
 18 16  1  0  0  0  0
 19 20  1  6  0  0  0
 19 18  1  0  0  0  0
 21 19  1  0  0  0  0
 22 32  1  6  0  0  0
 22 24  1  0  0  0  0
 22 21  1  0  0  0  0
 23 26  1  0  0  0  0
 24 23  1  0  0  0  0
 25 23  2  0  0  0  0
 26 31  2  0  0  0  0
 26 30  1  0  0  0  0
 27 29  1  0  0  0  0
 28 29  1  0  0  0  0
 30 28  2  0  0  0  0
 31 27  1  0  0  0  0
 34 32  1  0  0  0  0
 34 33  1  0  0  0  0
 36 37  1  0  0  0  0
 36 39  1  0  0  0  0
 37 42  1  6  0  0  0
 37 41  1  0  0  0  0
 39 40  1  0  0  0  0
 40 35  1  0  0  0  0
 40 38  1  0  0  0  0
 41 38  1  0  0  0  0
 43 42  1  0  0  0  0
M  END
>  <MODEL>
7

>  <REMARK>
 VINA RESULT:      -8.0      3.060      7.640
  Name = 
  12 active torsions:
  status: ('A' for Active; 'I' for Inactive)
    1  A    between atoms: C_1  and  C_34
    2  A    between atoms: C_1  and  N_35
    3  A    between atoms: C_2  and  C_6
    4  A    between atoms: C_2  and  N_13
    5  A    between atoms: C_3  and  C_4
    6  A    between atoms: C_3  and  C_12
    7  A    between atoms: C_4  and  C_15
    8  A    between atoms: C_4  and  N_22
    9  A    between atoms: C_6  and  C_12
   10  A    between atoms: C_11  and  C_14
   11  A    between atoms: C_15  and  C_42
   12  A    between atoms: C_19  and  O_25
                            x       y       z     vdW  Elec       q    Type
                         _______ _______ _______ _____ _____    ______ ____

>  <TORSDO>
F 12

$$$$
=
 OpenBabel10272414173D

 43 47  0  0  1  0  0  0  0  0999 V2000
  183.4110  178.7920  143.3680 C   0  0  0  0  0  0  0  0  0  0  0  0
  188.2390  177.7700  142.2640 C   0  0  0  0  0  0  0  0  0  0  0  0
  188.6090  178.5710  139.5600 N   0  0  0  0  0  0  0  0  0  0  0  0
  185.7560  178.2010  143.5060 C   0  0  0  0  0  0  0  0  0  0  0  0
  183.5330  178.9720  141.9870 C   0  0  0  0  0  3  0  0  0  0  0  0
  182.2160  178.9900  143.9730 F   0  0  0  0  0  0  0  0  0  0  0  0
  185.8840  178.3790  142.1070 C   0  0  0  0  0  0  0  0  0  0  0  0
  184.5220  178.4110  144.1270 C   0  0  0  0  0  3  0  0  0  0  0  0
  184.7640  178.7680  141.3580 C   0  0  0  0  0  3  0  0  0  0  0  0
  187.3150  178.4090  140.0930 N   0  0  0  0  0  2  0  0  0  0  0  0
  187.1340  178.1870  141.4970 C   0  0  0  0  0  0  0  0  0  0  0  0
  188.1000  177.6150  143.6510 C   0  0  0  0  0  3  0  0  0  0  0  0
  189.5840  177.5910  141.5960 C   0  0  2  0  0  3  0  0  0  0  0  0
  189.4340  177.4760  140.0720 C   0  0  0  0  0  2  0  0  0  0  0  0
  186.8650  177.8250  144.2680 C   0  0  0  0  0  3  0  0  0  0  0  0
  188.5190  178.4390  138.1020 C   0  0  2  0  0  3  0  0  0  0  0  0
  188.8700  179.6420  137.4810 O   0  0  0  0  0  1  0  0  0  0  0  0
  187.1110  178.0360  137.6560 C   0  0  0  0  0  2  0  0  0  0  0  0
  187.1320  176.8130  136.7530 C   0  0  1  0  0  3  0  0  0  0  0  0
  187.6210  175.7210  137.4730 O   0  0  0  0  0  1  0  0  0  0  0  0
  185.7150  176.5210  136.2700 C   0  0  0  0  0  2  0  0  0  0  0  0
  184.8610  175.8040  137.3190 C   0  0  2  0  0  3  0  0  0  0  0  0
  184.7410  173.2700  137.2050 C   0  0  0  0  0  0  0  0  0  0  0  0
  184.3160  174.5670  136.7750 N   0  0  0  0  0  2  0  0  0  0  0  0
  185.6270  173.1590  138.0990 O   0  0  0  0  0  0  0  0  0  0  0  0
  184.1500  172.0690  136.5870 C   0  0  0  0  0  0  0  0  0  0  0  0
  184.2700  170.0650  135.1380 C   0  0  0  0  0  2  0  0  0  0  0  0
  182.1060  170.7930  136.1450 C   0  0  0  0  0  3  0  0  0  0  0  0
  182.7620  170.2220  134.9180 C   0  0  0  0  0  2  0  0  0  0  0  0
  182.7530  171.6900  136.8970 C   0  0  0  0  0  3  0  0  0  0  0  0
  184.8550  171.3270  135.7180 C   0  0  0  0  0  3  0  0  0  0  0  0
  183.7380  176.6950  137.8390 C   0  0  0  0  0  2  0  0  0  0  0  0
  181.7470  175.9470  139.5920 S   0  0  0  0  0  1  0  0  0  0  0  0
  182.4120  175.9500  137.9000 C   0  0  0  0  0  2  0  0  0  0  0  0
  190.3090  176.3560  142.1190 C   0  0  0  0  0  2  0  0  0  0  0  0
  191.9840  175.5510  145.3670 C   0  0  0  0  0  2  0  0  0  0  0  0
  191.4910  176.8450  146.0340 C   0  0  2  0  0  3  0  0  0  0  0  0
  191.3020  177.7980  143.6750 C   0  0  0  0  0  2  0  0  0  0  0  0
  191.5630  175.4610  143.8910 C   0  0  0  0  0  2  0  0  0  0  0  0
  190.6160  176.5160  143.5300 N   0  0  0  0  0  0  0  0  0  0  0  0
  191.6130  178.0970  145.1480 C   0  0  0  0  0  2  0  0  0  0  0  0
  191.9850  177.0300  147.3430 O   0  0  0  0  0  0  0  0  0  0  0  0
  192.4030  175.7860  147.8440 C   0  0  0  0  0  1  0  0  0  0  0  0
  1  6  1  0  0  0  0
  1  8  1  0  0  0  0
  2 12  1  0  0  0  0
  3 14  1  0  0  0  0
  3 10  1  0  0  0  0
  4  8  2  0  0  0  0
  4 15  1  0  0  0  0
  5  1  2  0  0  0  0
  7  4  1  0  0  0  0
  9  5  1  0  0  0  0
  9  7  2  0  0  0  0
 10 11  1  0  0  0  0
 11  7  1  0  0  0  0
 11  2  2  0  0  0  0
 12 15  2  0  0  0  0
 13 35  1  1  0  0  0
 13  2  1  0  0  0  0
 14 13  1  0  0  0  0
 16 17  1  6  0  0  0
 16  3  1  0  0  0  0
 18 16  1  0  0  0  0
 19 20  1  1  0  0  0
 19 18  1  0  0  0  0
 21 19  1  0  0  0  0
 22 21  1  6  0  0  0
 22 32  1  0  0  0  0
 23 25  2  0  0  0  0
 24 23  1  0  0  0  0
 24 22  1  0  0  0  0
 26 30  1  0  0  0  0
 26 23  1  0  0  0  0
 27 31  1  0  0  0  0
 28 30  2  0  0  0  0
 29 27  1  0  0  0  0
 29 28  1  0  0  0  0
 31 26  2  0  0  0  0
 32 34  1  0  0  0  0
 34 33  1  0  0  0  0
 35 40  1  0  0  0  0
 36 37  1  0  0  0  0
 37 42  1  1  0  0  0
 38 41  1  0  0  0  0
 39 36  1  0  0  0  0
 40 38  1  0  0  0  0
 40 39  1  0  0  0  0
 41 37  1  0  0  0  0
 42 43  1  0  0  0  0
M  END
>  <MODEL>
8

>  <REMARK>
 VINA RESULT:      -8.0      3.182      8.315
  Name = 
  12 active torsions:
  status: ('A' for Active; 'I' for Inactive)
    1  A    between atoms: C_1  and  C_34
    2  A    between atoms: C_1  and  N_35
    3  A    between atoms: C_2  and  C_6
    4  A    between atoms: C_2  and  N_13
    5  A    between atoms: C_3  and  C_4
    6  A    between atoms: C_3  and  C_12
    7  A    between atoms: C_4  and  C_15
    8  A    between atoms: C_4  and  N_22
    9  A    between atoms: C_6  and  C_12
   10  A    between atoms: C_11  and  C_14
   11  A    between atoms: C_15  and  C_42
   12  A    between atoms: C_19  and  O_25
                            x       y       z     vdW  Elec       q    Type
                         _______ _______ _______ _____ _____    ______ ____

>  <TORSDO>
F 12

$$$$
=
 OpenBabel10272414173D

 43 47  0  0  1  0  0  0  0  0999 V2000
  184.7970  178.4120  138.3530 C   0  0  0  0  0  0  0  0  0  0  0  0
  189.4940  176.5720  137.9980 C   0  0  0  0  0  0  0  0  0  0  0  0
  190.6600  176.9030  140.5710 N   0  0  0  0  0  0  0  0  0  0  0  0
  186.8130  177.3090  137.5900 C   0  0  0  0  0  0  0  0  0  0  0  0
  185.4410  178.7790  139.5390 C   0  0  0  0  0  3  0  0  0  0  0  0
  183.5080  178.7710  138.1450 F   0  0  0  0  0  0  0  0  0  0  0  0
  187.4700  177.6780  138.7880 C   0  0  0  0  0  0  0  0  0  0  0  0
  185.4810  177.6760  137.3820 C   0  0  0  0  0  3  0  0  0  0  0  0
  186.7720  178.4120  139.7580 C   0  0  0  0  0  3  0  0  0  0  0  0
  189.4840  177.5940  140.2180 N   0  0  0  0  0  2  0  0  0  0  0  0
  188.8020  177.2850  138.9960 C   0  0  0  0  0  0  0  0  0  0  0  0
  188.8230  176.1970  136.8240 C   0  0  0  0  0  3  0  0  0  0  0  0
  190.9200  176.1340  138.2480 C   0  0  2  0  0  3  0  0  0  0  0  0
  191.5460  176.9240  139.4070 C   0  0  0  0  0  2  0  0  0  0  0  0
  187.4920  176.5670  136.6200 C   0  0  0  0  0  3  0  0  0  0  0  0
  191.3100  177.6410  141.6590 C   0  0  2  0  0  3  0  0  0  0  0  0
  192.4100  176.9250  142.1450 O   0  0  0  0  0  1  0  0  0  0  0  0
  190.3430  177.9180  142.8120 C   0  0  0  0  0  2  0  0  0  0  0  0
  191.0770  178.1190  144.1290 C   0  0  1  0  0  3  0  0  0  0  0  0
  191.9790  179.1760  143.9950 O   0  0  0  0  0  1  0  0  0  0  0  0
  190.0640  178.4410  145.2240 C   0  0  0  0  0  2  0  0  0  0  0  0
  189.0460  177.3210  145.4460 C   0  0  2  0  0  3  0  0  0  0  0  0
  186.8690  177.6950  144.1940 C   0  0  0  0  0  0  0  0  0  0  0  0
  187.6880  177.8400  145.3580 N   0  0  0  0  0  2  0  0  0  0  0  0
  187.3150  177.0910  143.1780 O   0  0  0  0  0  0  0  0  0  0  0  0
  185.5110  178.2690  144.1840 C   0  0  0  0  0  0  0  0  0  0  0  0
  183.4960  179.1520  145.3200 C   0  0  0  0  0  2  0  0  0  0  0  0
  183.5280  178.8060  142.8490 C   0  0  0  0  0  3  0  0  0  0  0  0
  182.6940  178.6960  144.0960 C   0  0  0  0  0  2  0  0  0  0  0  0
  184.8420  178.5620  142.8960 C   0  0  0  0  0  3  0  0  0  0  0  0
  184.8570  178.5050  145.3320 C   0  0  0  0  0  3  0  0  0  0  0  0
  189.2610  176.6180  146.7820 C   0  0  0  0  0  2  0  0  0  0  0  0
  191.8120  175.8360  147.4730 S   0  0  0  0  0  1  0  0  0  0  0  0
  190.5190  177.1140  147.4820 C   0  0  0  0  0  2  0  0  0  0  0  0
  191.7840  176.3060  137.0040 C   0  0  0  0  0  2  0  0  0  0  0  0
  194.2740  173.6060  137.7230 C   0  0  0  0  0  2  0  0  0  0  0  0
  195.4710  174.5120  137.3940 C   0  0  2  0  0  3  0  0  0  0  0  0
  193.8450  175.8740  135.9770 C   0  0  0  0  0  2  0  0  0  0  0  0
  192.9290  174.3160  137.4960 C   0  0  0  0  0  2  0  0  0  0  0  0
  193.1040  175.7430  137.2300 N   0  0  0  0  0  0  0  0  0  0  0  0
  195.2860  175.3670  136.1280 C   0  0  0  0  0  2  0  0  0  0  0  0
  196.7140  173.8470  137.4490 O   0  0  0  0  0  0  0  0  0  0  0  0
  196.4830  172.4850  137.7050 C   0  0  0  0  0  1  0  0  0  0  0  0
  1  5  1  0  0  0  0
  2 13  1  0  0  0  0
  2 11  1  0  0  0  0
  3 16  1  0  0  0  0
  4  7  1  0  0  0  0
  5  9  2  0  0  0  0
  6  1  1  0  0  0  0
  7 11  2  0  0  0  0
  7  9  1  0  0  0  0
  8  4  1  0  0  0  0
  8  1  2  0  0  0  0
 10  3  1  0  0  0  0
 11 10  1  0  0  0  0
 12  2  2  0  0  0  0
 13 35  1  6  0  0  0
 13 14  1  0  0  0  0
 14  3  1  0  0  0  0
 15 12  1  0  0  0  0
 15  4  2  0  0  0  0
 16 17  1  1  0  0  0
 16 18  1  0  0  0  0
 18 19  1  0  0  0  0
 19 20  1  6  0  0  0
 19 21  1  0  0  0  0
 22 21  1  1  0  0  0
 22 32  1  0  0  0  0
 23 24  1  0  0  0  0
 24 22  1  0  0  0  0
 25 23  2  0  0  0  0
 26 23  1  0  0  0  0
 26 31  2  0  0  0  0
 27 31  1  0  0  0  0
 28 30  2  0  0  0  0
 28 29  1  0  0  0  0
 29 27  1  0  0  0  0
 30 26  1  0  0  0  0
 32 34  1  0  0  0  0
 33 34  1  0  0  0  0
 35 40  1  0  0  0  0
 37 42  1  6  0  0  0
 37 36  1  0  0  0  0
 38 41  1  0  0  0  0
 38 40  1  0  0  0  0
 39 36  1  0  0  0  0
 40 39  1  0  0  0  0
 41 37  1  0  0  0  0
 42 43  1  0  0  0  0
M  END
>  <MODEL>
9

>  <REMARK>
 VINA RESULT:      -7.9      4.650      7.276
  Name = 
  12 active torsions:
  status: ('A' for Active; 'I' for Inactive)
    1  A    between atoms: C_1  and  C_34
    2  A    between atoms: C_1  and  N_35
    3  A    between atoms: C_2  and  C_6
    4  A    between atoms: C_2  and  N_13
    5  A    between atoms: C_3  and  C_4
    6  A    between atoms: C_3  and  C_12
    7  A    between atoms: C_4  and  C_15
    8  A    between atoms: C_4  and  N_22
    9  A    between atoms: C_6  and  C_12
   10  A    between atoms: C_11  and  C_14
   11  A    between atoms: C_15  and  C_42
   12  A    between atoms: C_19  and  O_25
                            x       y       z     vdW  Elec       q    Type
                         _______ _______ _______ _____ _____    ______ ____

>  <TORSDO>
F 12

$$$$
