=
 OpenBabel10272401033D

 27 31  0  0  1  0  0  0  0  0999 V2000
  187.5510  179.0560  142.5680 C   0  0  0  0  0  2  0  0  0  0  0  0
  189.0790  178.0340  141.1380 C   0  0  2  0  0  3  0  0  0  0  0  0
  186.9550  178.3670  139.8210 N   0  0  0  0  0  2  0  0  0  0  0  0
  190.3650  176.3300  137.0020 C   0  0  0  0  0  3  0  0  0  0  0  0
  189.5990  177.6230  135.1030 C   0  0  0  0  0  1  0  0  0  0  0  0
  189.7420  176.8240  140.6460 N   0  0  0  0  0  2  0  0  0  0  0  0
  188.9840  178.2360  137.4020 C   0  0  0  0  0  0  0  0  0  0  0  0
  183.5950  177.9440  140.8010 C   0  0  0  0  0  3  0  0  0  0  0  0
  188.3090  179.2110  136.9710 O   0  0  0  0  0  0  0  0  0  0  0  0
  183.2660  178.0380  142.0880 C   0  0  0  0  0  3  0  0  0  0  0  0
  189.0650  177.9880  138.7730 C   0  0  0  0  0  0  0  0  0  0  0  0
  188.1750  177.7650  142.2710 N   0  0  1  0  0  0  0  0  0  0  0  0
  189.6480  177.4000  136.5400 N   0  0  0  0  0  0  0  0  0  0  0  0
  189.7770  176.9210  139.2390 C   0  0  0  0  0  0  0  0  0  0  0  0
  186.1650  179.0920  142.0170 C   0  0  0  0  0  0  0  0  0  0  0  0
  188.3830  178.6830  139.8970 C   0  0  2  0  0  3  0  0  0  0  0  0
  184.5440  178.8940  140.1490 C   0  0  0  0  0  2  0  0  0  0  0  0
  190.4460  176.0600  138.3770 C   0  0  0  0  0  3  0  0  0  0  0  0
  183.8570  179.0090  143.0270 C   0  0  0  0  0  3  0  0  0  0  0  0
  185.1140  179.4710  142.9860 C   0  0  0  0  0  3  0  0  0  0  0  0
  185.9200  178.7880  140.7230 C   0  0  0  0  0  0  0  0  0  0  0  0
  190.2970  176.8700  145.8580 C   0  0  0  0  0  2  0  0  0  0  0  0
  188.9620  177.3500  143.4520 C   0  0  0  0  0  3  0  0  0  0  0  0
  188.0770  177.2880  144.7140 C   0  0  0  0  0  2  0  0  0  0  0  0
  188.8590  177.3450  146.0350 C   0  0  0  0  0  2  0  0  0  0  0  0
  191.0470  177.7470  144.8460 C   0  0  0  0  0  2  0  0  0  0  0  0
  190.1450  178.2950  143.7330 C   0  0  0  0  0  2  0  0  0  0  0  0
  2  6  1  6  0  0  0
  2 12  1  0  0  0  0
  3 16  1  0  0  0  0
  3 21  1  0  0  0  0
  4 18  2  0  0  0  0
  5 13  1  0  0  0  0
  7 11  1  0  0  0  0
  8 10  2  0  0  0  0
  9  7  2  0  0  0  0
 10 19  1  0  0  0  0
 11 14  2  0  0  0  0
 12  1  1  0  0  0  0
 12 23  1  1  0  0  0
 13  4  1  0  0  0  0
 13  7  1  0  0  0  0
 14  6  1  0  0  0  0
 15  1  1  0  0  0  0
 15 20  1  0  0  0  0
 16 11  1  6  0  0  0
 16  2  1  0  0  0  0
 17 21  1  0  0  0  0
 17  8  1  0  0  0  0
 18 14  1  0  0  0  0
 20 19  2  0  0  0  0
 21 15  2  0  0  0  0
 22 25  1  0  0  0  0
 23 27  1  0  0  0  0
 23 24  1  0  0  0  0
 24 25  1  0  0  0  0
 26 22  1  0  0  0  0
 27 26  1  0  0  0  0
M  END
>  <MODEL>
1

>  <REMARK>
 VINA RESULT:      -8.5      0.000      0.000
  Name = 
  1 active torsions:
  status: ('A' for Active; 'I' for Inactive)
    1  A    between atoms: C_9  and  N_15
                            x       y       z     vdW  Elec       q    Type
                         _______ _______ _______ _____ _____    ______ ____

>  <TORSDO>
F 1

$$$$
=
 OpenBabel10272401033D

 27 31  0  0  1  0  0  0  0  0999 V2000
  186.2860  177.1780  144.9510 C   0  0  0  0  0  2  0  0  0  0  0  0
  186.8530  177.6440  142.7400 C   0  0  2  0  0  3  0  0  0  0  0  0
  189.0150  177.3280  143.9970 N   0  0  0  0  0  2  0  0  0  0  0  0
  189.9320  178.2130  139.2980 C   0  0  0  0  0  3  0  0  0  0  0  0
  191.7860  176.6560  139.3430 C   0  0  0  0  0  1  0  0  0  0  0  0
  187.0810  178.6150  141.6670 N   0  0  0  0  0  2  0  0  0  0  0  0
  190.0640  176.6490  141.0950 C   0  0  0  0  0  0  0  0  0  0  0  0
  189.9360  178.4120  147.2240 C   0  0  0  0  0  3  0  0  0  0  0  0
  190.6570  175.7060  141.6870 O   0  0  0  0  0  0  0  0  0  0  0  0
  188.9940  178.6460  148.1350 C   0  0  0  0  0  3  0  0  0  0  0  0
  188.8820  177.1760  141.6200 C   0  0  0  0  0  0  0  0  0  0  0  0
  186.3780  178.2750  143.9850 N   0  0  1  0  0  0  0  0  0  0  0  0
  190.5620  177.1780  139.9320 N   0  0  0  0  0  0  0  0  0  0  0  0
  188.2520  178.2100  140.9930 C   0  0  0  0  0  0  0  0  0  0  0  0
  187.4550  177.2140  145.8760 C   0  0  0  0  0  0  0  0  0  0  0  0
  188.1870  176.8420  142.8920 C   0  0  2  0  0  3  0  0  0  0  0  0
  189.8960  177.2220  146.3240 C   0  0  0  0  0  2  0  0  0  0  0  0
  188.7510  178.7630  139.8190 C   0  0  0  0  0  3  0  0  0  0  0  0
  187.7770  177.8310  148.2990 C   0  0  0  0  0  3  0  0  0  0  0  0
  187.1170  177.2030  147.3170 C   0  0  0  0  0  3  0  0  0  0  0  0
  188.7210  177.2590  145.4020 C   0  0  0  0  0  0  0  0  0  0  0  0
  182.3290  179.5370  143.5480 C   0  0  0  0  0  2  0  0  0  0  0  0
  185.0200  178.8250  143.7810 C   0  0  0  0  0  3  0  0  0  0  0  0
  184.1820  178.7240  145.0720 C   0  0  0  0  0  2  0  0  0  0  0  0
  182.6650  178.8090  144.8460 C   0  0  0  0  0  2  0  0  0  0  0  0
  182.9310  178.8100  142.3380 C   0  0  0  0  0  2  0  0  0  0  0  0
  184.2590  178.1090  142.6500 C   0  0  0  0  0  2  0  0  0  0  0  0
  1 15  1  0  0  0  0
  2  6  1  6  0  0  0
  2 16  1  0  0  0  0
  2 12  1  0  0  0  0
  3 21  1  0  0  0  0
  4 18  2  0  0  0  0
  4 13  1  0  0  0  0
  5 13  1  0  0  0  0
  7 11  1  0  0  0  0
  7  9  2  0  0  0  0
  8 10  2  0  0  0  0
 10 19  1  0  0  0  0
 12 23  1  6  0  0  0
 12  1  1  0  0  0  0
 13  7  1  0  0  0  0
 14 11  2  0  0  0  0
 14  6  1  0  0  0  0
 15 20  1  0  0  0  0
 16 11  1  6  0  0  0
 16  3  1  0  0  0  0
 17  8  1  0  0  0  0
 18 14  1  0  0  0  0
 20 19  2  0  0  0  0
 21 15  2  0  0  0  0
 21 17  1  0  0  0  0
 22 25  1  0  0  0  0
 23 24  1  0  0  0  0
 25 24  1  0  0  0  0
 26 27  1  0  0  0  0
 26 22  1  0  0  0  0
 27 23  1  0  0  0  0
M  END
>  <MODEL>
2

>  <REMARK>
 VINA RESULT:      -8.2      2.227      5.476
  Name = 
  1 active torsions:
  status: ('A' for Active; 'I' for Inactive)
    1  A    between atoms: C_9  and  N_15
                            x       y       z     vdW  Elec       q    Type
                         _______ _______ _______ _____ _____    ______ ____

>  <TORSDO>
F 1

$$$$
=
 OpenBabel10272401033D

 27 31  0  0  1  0  0  0  0  0999 V2000
  186.4440  179.1050  143.6420 C   0  0  0  0  0  2  0  0  0  0  0  0
  188.2440  178.0920  142.5660 C   0  0  2  0  0  3  0  0  0  0  0  0
  186.4620  178.4570  140.8200 N   0  0  0  0  0  2  0  0  0  0  0  0
  190.3980  176.4340  138.7890 C   0  0  0  0  0  3  0  0  0  0  0  0
  190.0730  177.7570  136.7870 C   0  0  0  0  0  1  0  0  0  0  0  0
  188.9930  176.8830  142.2140 N   0  0  0  0  0  2  0  0  0  0  0  0
  188.9720  178.3440  138.9040 C   0  0  0  0  0  0  0  0  0  0  0  0
  182.9670  178.0460  141.0340 C   0  0  0  0  0  3  0  0  0  0  0  0
  188.4120  179.3290  138.3490 O   0  0  0  0  0  0  0  0  0  0  0  0
  182.3640  178.1250  142.2190 C   0  0  0  0  0  3  0  0  0  0  0  0
  188.7490  178.0770  140.2560 C   0  0  0  0  0  0  0  0  0  0  0  0
  187.1120  177.8140  143.4690 N   0  0  1  0  0  0  0  0  0  0  0  0
  189.8040  177.5150  138.1960 N   0  0  0  0  0  0  0  0  0  0  0  0
  189.3370  176.9990  140.8510 C   0  0  0  0  0  0  0  0  0  0  0  0
  185.2130  179.1590  142.8010 C   0  0  0  0  0  0  0  0  0  0  0  0
  187.8390  178.7620  141.2130 C   0  0  2  0  0  3  0  0  0  0  0  0
  184.0400  178.9970  140.6200 C   0  0  0  0  0  2  0  0  0  0  0  0
  190.1750  176.1440  140.1430 C   0  0  0  0  0  3  0  0  0  0  0  0
  182.7390  179.0790  143.2780 C   0  0  0  0  0  3  0  0  0  0  0  0
  183.9760  179.5330  143.5210 C   0  0  0  0  0  3  0  0  0  0  0  0
  185.2560  178.8740  141.4790 C   0  0  0  0  0  0  0  0  0  0  0  0
  188.5020  176.9090  147.3960 C   0  0  0  0  0  2  0  0  0  0  0  0
  187.6200  177.3770  144.7880 C   0  0  0  0  0  3  0  0  0  0  0  0
  186.6260  177.7390  145.9110 C   0  0  0  0  0  2  0  0  0  0  0  0
  187.2480  177.7740  147.3150 C   0  0  0  0  0  2  0  0  0  0  0  0
  189.5720  177.3960  146.4110 C   0  0  0  0  0  2  0  0  0  0  0  0
  188.9870  178.0000  145.1280 C   0  0  0  0  0  2  0  0  0  0  0  0
  2  6  1  6  0  0  0
  2 12  1  0  0  0  0
  3 16  1  0  0  0  0
  3 21  1  0  0  0  0
  4 18  2  0  0  0  0
  5 13  1  0  0  0  0
  7 11  1  0  0  0  0
  8 10  2  0  0  0  0
  9  7  2  0  0  0  0
 10 19  1  0  0  0  0
 11 14  2  0  0  0  0
 12  1  1  0  0  0  0
 12 23  1  1  0  0  0
 13  4  1  0  0  0  0
 13  7  1  0  0  0  0
 14  6  1  0  0  0  0
 15 20  1  0  0  0  0
 15  1  1  0  0  0  0
 16 11  1  6  0  0  0
 16  2  1  0  0  0  0
 17  8  1  0  0  0  0
 17 21  1  0  0  0  0
 18 14  1  0  0  0  0
 19 20  2  0  0  0  0
 21 15  2  0  0  0  0
 23 27  1  0  0  0  0
 23 24  1  0  0  0  0
 24 25  1  0  0  0  0
 25 22  1  0  0  0  0
 26 22  1  0  0  0  0
 27 26  1  0  0  0  0
M  END
>  <MODEL>
3

>  <REMARK>
 VINA RESULT:      -7.8      1.197      1.590
  Name = 
  1 active torsions:
  status: ('A' for Active; 'I' for Inactive)
    1  A    between atoms: C_9  and  N_15
                            x       y       z     vdW  Elec       q    Type
                         _______ _______ _______ _____ _____    ______ ____

>  <TORSDO>
F 1

$$$$
=
 OpenBabel10272401033D

 27 31  0  0  1  0  0  0  0  0999 V2000
  187.4570  176.9400  143.6790 C   0  0  0  0  0  2  0  0  0  0  0  0
  187.4020  177.5810  141.4410 C   0  0  2  0  0  3  0  0  0  0  0  0
  189.8130  177.1140  142.0060 N   0  0  0  0  0  2  0  0  0  0  0  0
  189.4140  178.3790  137.3210 C   0  0  0  0  0  3  0  0  0  0  0  0
  191.1360  176.7860  136.7210 C   0  0  0  0  0  1  0  0  0  0  0  0
  187.3620  178.6360  140.4240 N   0  0  0  0  0  2  0  0  0  0  0  0
  189.9750  176.6640  138.8830 C   0  0  0  0  0  0  0  0  0  0  0  0
  191.6490  177.8990  144.9130 C   0  0  0  0  0  3  0  0  0  0  0  0
  190.6690  175.6620  139.2090 O   0  0  0  0  0  0  0  0  0  0  0  0
  191.0110  178.0740  146.0680 C   0  0  0  0  0  3  0  0  0  0  0  0
  189.0130  177.1690  139.7600 C   0  0  0  0  0  0  0  0  0  0  0  0
  187.3230  178.1130  142.8130 N   0  0  1  0  0  0  0  0  0  0  0  0
  190.1500  177.2800  137.6700 N   0  0  0  0  0  0  0  0  0  0  0  0
  188.2780  178.2660  139.4170 C   0  0  0  0  0  0  0  0  0  0  0  0
  188.8400  176.8730  144.2350 C   0  0  0  0  0  0  0  0  0  0  0  0
  188.6880  176.7420  141.1470 C   0  0  2  0  0  3  0  0  0  0  0  0
  191.3060  176.7910  143.9730 C   0  0  0  0  0  2  0  0  0  0  0  0
  188.4510  178.9060  138.1950 C   0  0  0  0  0  3  0  0  0  0  0  0
  189.8540  177.2740  146.5080 C   0  0  0  0  0  3  0  0  0  0  0  0
  188.9190  176.7460  145.7080 C   0  0  0  0  0  3  0  0  0  0  0  0
  189.9220  176.9320  143.4270 C   0  0  0  0  0  0  0  0  0  0  0  0
  183.3940  179.5170  143.6910 C   0  0  0  0  0  2  0  0  0  0  0  0
  185.9880  178.7070  143.0440 C   0  0  0  0  0  3  0  0  0  0  0  0
  185.6420  178.7230  144.5480 C   0  0  0  0  0  2  0  0  0  0  0  0
  184.1410  178.8580  144.8470 C   0  0  0  0  0  2  0  0  0  0  0  0
  183.5310  178.6910  142.4050 C   0  0  0  0  0  2  0  0  0  0  0  0
  184.8720  177.9550  142.2960 C   0  0  0  0  0  2  0  0  0  0  0  0
  1 15  1  0  0  0  0
  2  6  1  6  0  0  0
  2 12  1  0  0  0  0
  3 21  1  0  0  0  0
  4 13  1  0  0  0  0
  4 18  2  0  0  0  0
  5 13  1  0  0  0  0
  7  9  2  0  0  0  0
  7 11  1  0  0  0  0
  8 10  2  0  0  0  0
 10 19  1  0  0  0  0
 12 23  1  6  0  0  0
 12  1  1  0  0  0  0
 13  7  1  0  0  0  0
 14 11  2  0  0  0  0
 14  6  1  0  0  0  0
 15 20  1  0  0  0  0
 16 11  1  6  0  0  0
 16  2  1  0  0  0  0
 16  3  1  0  0  0  0
 17  8  1  0  0  0  0
 18 14  1  0  0  0  0
 20 19  2  0  0  0  0
 21 17  1  0  0  0  0
 21 15  2  0  0  0  0
 22 25  1  0  0  0  0
 23 24  1  0  0  0  0
 24 25  1  0  0  0  0
 26 22  1  0  0  0  0
 27 26  1  0  0  0  0
 27 23  1  0  0  0  0
M  END
>  <MODEL>
4

>  <REMARK>
 VINA RESULT:      -7.6      1.544      4.876
  Name = 
  1 active torsions:
  status: ('A' for Active; 'I' for Inactive)
    1  A    between atoms: C_9  and  N_15
                            x       y       z     vdW  Elec       q    Type
                         _______ _______ _______ _____ _____    ______ ____

>  <TORSDO>
F 1

$$$$
=
 OpenBabel10272401033D

 27 31  0  0  1  0  0  0  0  0999 V2000
  190.5680  177.6590  139.3190 C   0  0  0  0  0  2  0  0  0  0  0  0
  188.7210  177.4490  137.9160 C   0  0  2  0  0  3  0  0  0  0  0  0
  187.8340  177.6130  140.2700 N   0  0  0  0  0  2  0  0  0  0  0  0
  184.1400  177.2730  137.1170 C   0  0  0  0  0  3  0  0  0  0  0  0
  182.8290  178.8100  138.4520 C   0  0  0  0  0  1  0  0  0  0  0  0
  187.8080  176.6070  137.1380 N   0  0  0  0  0  2  0  0  0  0  0  0
  185.2620  178.6200  138.7360 C   0  0  0  0  0  0  0  0  0  0  0  0
  189.0410  176.1630  143.2490 C   0  0  0  0  0  3  0  0  0  0  0  0
  185.2320  179.4870  139.6510 O   0  0  0  0  0  0  0  0  0  0  0  0
  190.3260  175.8280  143.3460 C   0  0  0  0  0  3  0  0  0  0  0  0
  186.4740  178.0380  138.3570 C   0  0  0  0  0  0  0  0  0  0  0  0
  189.8200  176.6800  138.5270 N   0  0  1  0  0  0  0  0  0  0  0  0
  184.1140  178.2270  138.0970 N   0  0  0  0  0  0  0  0  0  0  0  0
  186.5040  177.0850  137.3820 C   0  0  0  0  0  0  0  0  0  0  0  0
  190.2260  177.5140  140.7640 C   0  0  0  0  0  0  0  0  0  0  0  0
  187.8290  178.2250  138.9400 C   0  0  2  0  0  3  0  0  0  0  0  0
  188.5970  177.4490  142.6350 C   0  0  0  0  0  2  0  0  0  0  0  0
  185.3470  176.6700  136.7330 C   0  0  0  0  0  3  0  0  0  0  0  0
  191.4360  176.6210  142.7870 C   0  0  0  0  0  3  0  0  0  0  0  0
  191.3850  177.3600  141.6710 C   0  0  0  0  0  3  0  0  0  0  0  0
  188.9400  177.5210  141.1820 C   0  0  0  0  0  0  0  0  0  0  0  0
  192.5270  174.9270  135.7400 C   0  0  0  0  0  2  0  0  0  0  0  0
  190.7150  176.1600  137.4710 C   0  0  0  0  0  3  0  0  0  0  0  0
  190.5940  174.6260  137.3480 C   0  0  0  0  0  2  0  0  0  0  0  0
  191.7880  173.9540  136.6530 C   0  0  0  0  0  2  0  0  0  0  0  0
  193.0740  176.1210  136.5330 C   0  0  0  0  0  2  0  0  0  0  0  0
  192.1930  176.5120  137.7250 C   0  0  0  0  0  2  0  0  0  0  0  0
  1 15  1  0  0  0  0
  2  6  1  1  0  0  0
  2 12  1  0  0  0  0
  2 16  1  0  0  0  0
  3 21  1  0  0  0  0
  4 13  1  0  0  0  0
  6 14  1  0  0  0  0
  7  9  2  0  0  0  0
  8 10  2  0  0  0  0
 11  7  1  0  0  0  0
 12 23  1  6  0  0  0
 12  1  1  0  0  0  0
 13  5  1  0  0  0  0
 13  7  1  0  0  0  0
 14 11  2  0  0  0  0
 15 21  2  0  0  0  0
 15 20  1  0  0  0  0
 16 11  1  6  0  0  0
 16  3  1  0  0  0  0
 17  8  1  0  0  0  0
 18  4  2  0  0  0  0
 18 14  1  0  0  0  0
 19 10  1  0  0  0  0
 20 19  2  0  0  0  0
 21 17  1  0  0  0  0
 22 26  1  0  0  0  0
 22 25  1  0  0  0  0
 23 27  1  0  0  0  0
 24 23  1  0  0  0  0
 25 24  1  0  0  0  0
 26 27  1  0  0  0  0
M  END
>  <MODEL>
5

>  <REMARK>
 VINA RESULT:      -7.5      2.398      6.057
  Name = 
  1 active torsions:
  status: ('A' for Active; 'I' for Inactive)
    1  A    between atoms: C_9  and  N_15
                            x       y       z     vdW  Elec       q    Type
                         _______ _______ _______ _____ _____    ______ ____

>  <TORSDO>
F 1

$$$$
=
 OpenBabel10272401033D

 27 31  0  0  1  0  0  0  0  0999 V2000
  184.6560  179.2360  140.3750 C   0  0  0  0  0  2  0  0  0  0  0  0
  186.5960  178.5210  141.4480 C   0  0  2  0  0  3  0  0  0  0  0  0
  186.8010  177.8290  139.0330 N   0  0  0  0  0  2  0  0  0  0  0  0
  190.8050  176.5360  141.4850 C   0  0  0  0  0  3  0  0  0  0  0  0
  192.1800  177.0650  139.5640 C   0  0  0  0  0  1  0  0  0  0  0  0
  187.2990  177.5340  142.2720 N   0  0  0  0  0  2  0  0  0  0  0  0
  189.8760  177.8970  139.7590 C   0  0  0  0  0  0  0  0  0  0  0  0
  184.3760  176.5020  136.8450 C   0  0  0  0  0  3  0  0  0  0  0  0
  189.9790  178.4710  138.6400 O   0  0  0  0  0  0  0  0  0  0  0  0
  183.0850  176.7450  137.0650 C   0  0  0  0  0  3  0  0  0  0  0  0
  188.6870  177.9820  140.4860 C   0  0  0  0  0  0  0  0  0  0  0  0
  185.1670  178.2020  141.2780 N   0  0  1  0  0  0  0  0  0  0  0  0
  190.9200  177.1770  140.2820 N   0  0  0  0  0  0  0  0  0  0  0  0
  188.5670  177.3430  141.6850 C   0  0  0  0  0  0  0  0  0  0  0  0
  184.5110  178.6820  138.9970 C   0  0  0  0  0  0  0  0  0  0  0  0
  187.3980  178.6210  140.1100 C   0  0  2  0  0  3  0  0  0  0  0  0
  185.4200  177.5600  136.9790 C   0  0  0  0  0  2  0  0  0  0  0  0
  189.6130  176.6010  142.2230 C   0  0  0  0  0  3  0  0  0  0  0  0
  182.5530  178.0310  137.5490 C   0  0  0  0  0  3  0  0  0  0  0  0
  183.1800  178.8740  138.3800 C   0  0  0  0  0  3  0  0  0  0  0  0
  185.5380  178.0510  138.3850 C   0  0  0  0  0  0  0  0  0  0  0  0
  182.9780  178.8960  144.8700 C   0  0  0  0  0  2  0  0  0  0  0  0
  184.4660  178.3350  142.5740 C   0  0  0  0  0  3  0  0  0  0  0  0
  182.9470  178.5130  142.3670 C   0  0  0  0  0  2  0  0  0  0  0  0
  182.2160  179.1280  143.5690 C   0  0  0  0  0  2  0  0  0  0  0  0
  184.3730  179.5320  144.8110 C   0  0  0  0  0  2  0  0  0  0  0  0
  184.9860  179.5230  143.4050 C   0  0  0  0  0  2  0  0  0  0  0  0
  1 12  1  0  0  0  0
  2  6  1  1  0  0  0
  4 18  2  0  0  0  0
  5 13  1  0  0  0  0
  7 13  1  0  0  0  0
  7 11  1  0  0  0  0
  8 17  1  0  0  0  0
  8 10  2  0  0  0  0
  9  7  2  0  0  0  0
 10 19  1  0  0  0  0
 11 14  2  0  0  0  0
 12  2  1  0  0  0  0
 12 23  1  1  0  0  0
 13  4  1  0  0  0  0
 14 18  1  0  0  0  0
 14  6  1  0  0  0  0
 15  1  1  0  0  0  0
 16  3  1  6  0  0  0
 16 11  1  0  0  0  0
 16  2  1  0  0  0  0
 17 21  1  0  0  0  0
 19 20  2  0  0  0  0
 20 15  1  0  0  0  0
 21 15  2  0  0  0  0
 21  3  1  0  0  0  0
 23 27  1  0  0  0  0
 24 23  1  0  0  0  0
 24 25  1  0  0  0  0
 25 22  1  0  0  0  0
 26 22  1  0  0  0  0
 27 26  1  0  0  0  0
M  END
>  <MODEL>
6

>  <REMARK>
 VINA RESULT:      -7.3      2.255      4.390
  Name = 
  1 active torsions:
  status: ('A' for Active; 'I' for Inactive)
    1  A    between atoms: C_9  and  N_15
                            x       y       z     vdW  Elec       q    Type
                         _______ _______ _______ _____ _____    ______ ____

>  <TORSDO>
F 1

$$$$
=
 OpenBabel10272401033D

 27 31  0  0  1  0  0  0  0  0999 V2000
  183.4910  178.9640  140.6880 C   0  0  0  0  0  2  0  0  0  0  0  0
  185.7880  178.8440  140.3240 C   0  0  2  0  0  3  0  0  0  0  0  0
  184.6890  177.4970  138.4990 N   0  0  0  0  0  2  0  0  0  0  0  0
  189.5210  177.4930  137.8950 C   0  0  0  0  0  3  0  0  0  0  0  0
  189.2430  177.5930  135.4920 C   0  0  0  0  0  1  0  0  0  0  0  0
  187.0900  178.2410  140.6220 N   0  0  0  0  0  2  0  0  0  0  0  0
  187.4020  178.1550  137.0180 C   0  0  0  0  0  0  0  0  0  0  0  0
  181.9420  175.2920  138.6550 C   0  0  0  0  0  3  0  0  0  0  0  0
  186.6440  178.3790  136.0350 O   0  0  0  0  0  0  0  0  0  0  0  0
  181.0410  175.4290  139.6260 C   0  0  0  0  0  3  0  0  0  0  0  0
  186.9270  178.3060  138.3220 C   0  0  0  0  0  0  0  0  0  0  0  0
  184.7100  178.3160  141.1780 N   0  0  1  0  0  0  0  0  0  0  0  0
  188.7010  177.7570  136.8310 N   0  0  0  0  0  0  0  0  0  0  0  0
  187.7390  178.0420  139.3860 C   0  0  0  0  0  0  0  0  0  0  0  0
  182.7130  178.0130  139.8420 C   0  0  0  0  0  0  0  0  0  0  0  0
  185.5550  178.6410  138.7910 C   0  0  2  0  0  3  0  0  0  0  0  0
  182.5000  176.4630  137.9160 C   0  0  0  0  0  2  0  0  0  0  0  0
  189.0550  177.6280  139.2120 C   0  0  0  0  0  3  0  0  0  0  0  0
  180.5670  176.7250  140.1430 C   0  0  0  0  0  3  0  0  0  0  0  0
  181.2930  177.8470  140.2260 C   0  0  0  0  0  3  0  0  0  0  0  0
  183.2930  177.3600  138.8100 C   0  0  0  0  0  0  0  0  0  0  0  0
  185.2970  179.1710  145.3130 C   0  0  0  0  0  2  0  0  0  0  0  0
  184.9260  178.7400  142.5780 C   0  0  0  0  0  3  0  0  0  0  0  0
  186.0140  177.8800  143.2550 C   0  0  0  0  0  2  0  0  0  0  0  0
  185.9730  177.9080  144.7910 C   0  0  0  0  0  2  0  0  0  0  0  0
  183.8480  179.2670  144.8160 C   0  0  0  0  0  2  0  0  0  0  0  0
  183.6420  178.6550  143.4250 C   0  0  0  0  0  2  0  0  0  0  0  0
  1 12  1  0  0  0  0
  2  6  1  1  0  0  0
  2 12  1  0  0  0  0
  3 16  1  0  0  0  0
  3 21  1  0  0  0  0
  4 18  2  0  0  0  0
  5 13  1  0  0  0  0
  7 11  1  0  0  0  0
  8 10  2  0  0  0  0
  9  7  2  0  0  0  0
 10 19  1  0  0  0  0
 11 14  2  0  0  0  0
 12 23  1  1  0  0  0
 13  7  1  0  0  0  0
 13  4  1  0  0  0  0
 14  6  1  0  0  0  0
 15 20  1  0  0  0  0
 15  1  1  0  0  0  0
 16 11  1  6  0  0  0
 16  2  1  0  0  0  0
 17  8  1  0  0  0  0
 17 21  1  0  0  0  0
 18 14  1  0  0  0  0
 19 20  2  0  0  0  0
 21 15  2  0  0  0  0
 23 24  1  0  0  0  0
 23 27  1  0  0  0  0
 24 25  1  0  0  0  0
 25 22  1  0  0  0  0
 26 22  1  0  0  0  0
 27 26  1  0  0  0  0
M  END
>  <MODEL>
7

>  <REMARK>
 VINA RESULT:      -6.9      2.222      3.792
  Name = 
  1 active torsions:
  status: ('A' for Active; 'I' for Inactive)
    1  A    between atoms: C_9  and  N_15
                            x       y       z     vdW  Elec       q    Type
                         _______ _______ _______ _____ _____    ______ ____

>  <TORSDO>
F 1

$$$$
=
 OpenBabel10272401033D

 27 31  0  0  1  0  0  0  0  0999 V2000
  186.2730  178.9470  138.9190 C   0  0  0  0  0  2  0  0  0  0  0  0
  186.4580  178.7090  141.2280 C   0  0  2  0  0  3  0  0  0  0  0  0
  188.3700  177.4240  140.2070 N   0  0  0  0  0  2  0  0  0  0  0  0
  188.5950  177.1690  145.0650 C   0  0  0  0  0  3  0  0  0  0  0  0
  191.0120  177.2870  144.9810 C   0  0  0  0  0  1  0  0  0  0  0  0
  186.0620  178.0390  142.4700 N   0  0  0  0  0  2  0  0  0  0  0  0
  189.6310  177.9420  143.0580 C   0  0  0  0  0  0  0  0  0  0  0  0
  188.4400  175.3640  137.3460 C   0  0  0  0  0  3  0  0  0  0  0  0
  190.6690  178.2060  142.3910 O   0  0  0  0  0  0  0  0  0  0  0  0
  187.5420  175.5460  136.3800 C   0  0  0  0  0  3  0  0  0  0  0  0
  188.3670  178.1150  142.4910 C   0  0  0  0  0  0  0  0  0  0  0  0
  185.6930  178.2370  140.0610 N   0  0  1  0  0  0  0  0  0  0  0  0
  189.7180  177.4770  144.3450 N   0  0  0  0  0  0  0  0  0  0  0  0
  187.2450  177.8080  143.2030 C   0  0  0  0  0  0  0  0  0  0  0  0
  187.1820  178.0390  138.1620 C   0  0  0  0  0  0  0  0  0  0  0  0
  188.0050  178.5200  141.1060 C   0  0  2  0  0  3  0  0  0  0  0  0
  189.1270  176.5050  138.0200 C   0  0  0  0  0  2  0  0  0  0  0  0
  187.3180  177.3260  144.5050 C   0  0  0  0  0  3  0  0  0  0  0  0
  187.0570  176.8640  135.9350 C   0  0  0  0  0  3  0  0  0  0  0  0
  186.9110  177.9470  136.7100 C   0  0  0  0  0  3  0  0  0  0  0  0
  188.1700  177.3580  138.7860 C   0  0  0  0  0  0  0  0  0  0  0  0
  181.5340  179.1670  140.1550 C   0  0  0  0  0  2  0  0  0  0  0  0
  184.2780  178.6470  140.1890 C   0  0  0  0  0  3  0  0  0  0  0  0
  183.3570  177.4190  140.3450 C   0  0  0  0  0  2  0  0  0  0  0  0
  181.8830  177.6890  140.0050 C   0  0  0  0  0  2  0  0  0  0  0  0
  182.3850  180.0330  139.2180 C   0  0  0  0  0  2  0  0  0  0  0  0
  183.7910  179.4690  138.9810 C   0  0  0  0  0  2  0  0  0  0  0  0
  1 12  1  0  0  0  0
  2  6  1  1  0  0  0
  6 14  1  0  0  0  0
  7 13  1  0  0  0  0
  8 17  1  0  0  0  0
  9  7  2  0  0  0  0
 10  8  2  0  0  0  0
 11  7  1  0  0  0  0
 11 14  2  0  0  0  0
 12 23  1  1  0  0  0
 12  2  1  0  0  0  0
 13  5  1  0  0  0  0
 13  4  1  0  0  0  0
 14 18  1  0  0  0  0
 15 21  2  0  0  0  0
 15  1  1  0  0  0  0
 16  3  1  6  0  0  0
 16  2  1  0  0  0  0
 16 11  1  0  0  0  0
 17 21  1  0  0  0  0
 18  4  2  0  0  0  0
 19 10  1  0  0  0  0
 19 20  2  0  0  0  0
 20 15  1  0  0  0  0
 21  3  1  0  0  0  0
 23 24  1  0  0  0  0
 25 22  1  0  0  0  0
 25 24  1  0  0  0  0
 26 22  1  0  0  0  0
 27 26  1  0  0  0  0
 27 23  1  0  0  0  0
M  END
>  <MODEL>
8

>  <REMARK>
 VINA RESULT:      -6.9      2.068      6.557
  Name = 
  1 active torsions:
  status: ('A' for Active; 'I' for Inactive)
    1  A    between atoms: C_9  and  N_15
                            x       y       z     vdW  Elec       q    Type
                         _______ _______ _______ _____ _____    ______ ____

>  <TORSDO>
F 1

$$$$
=
 OpenBabel10272401033D

 27 31  0  0  1  0  0  0  0  0999 V2000
  187.2130  178.9330  141.6250 C   0  0  0  0  0  2  0  0  0  0  0  0
  187.3720  178.2720  143.8530 C   0  0  2  0  0  3  0  0  0  0  0  0
  189.4840  177.5050  142.7110 N   0  0  0  0  0  2  0  0  0  0  0  0
  189.6200  176.3300  147.4350 C   0  0  0  0  0  3  0  0  0  0  0  0
  191.9920  176.8100  147.5100 C   0  0  0  0  0  1  0  0  0  0  0  0
  187.0520  177.3190  144.9190 N   0  0  0  0  0  2  0  0  0  0  0  0
  190.5770  177.6260  145.6740 C   0  0  0  0  0  0  0  0  0  0  0  0
  189.9430  176.0850  139.5170 C   0  0  0  0  0  3  0  0  0  0  0  0
  191.5790  178.1640  145.1290 O   0  0  0  0  0  0  0  0  0  0  0  0
  189.0520  176.3210  138.5560 C   0  0  0  0  0  3  0  0  0  0  0  0
  189.3160  177.7230  145.0810 C   0  0  0  0  0  0  0  0  0  0  0  0
  186.7190  177.9340  142.5750 N   0  0  1  0  0  0  0  0  0  0  0  0
  190.7010  176.9330  146.8510 N   0  0  0  0  0  0  0  0  0  0  0  0
  188.2360  177.1220  145.6580 C   0  0  0  0  0  0  0  0  0  0  0  0
  188.2700  178.3340  140.7590 C   0  0  0  0  0  0  0  0  0  0  0  0
  188.9330  178.3370  143.7820 C   0  0  2  0  0  3  0  0  0  0  0  0
  190.4300  177.1570  140.4340 C   0  0  0  0  0  2  0  0  0  0  0  0
  188.3490  176.4080  146.8460 C   0  0  0  0  0  3  0  0  0  0  0  0
  188.3830  177.6180  138.3450 C   0  0  0  0  0  3  0  0  0  0  0  0
  188.0540  178.4930  139.3040 C   0  0  0  0  0  3  0  0  0  0  0  0
  189.3330  177.6940  141.2950 C   0  0  0  0  0  0  0  0  0  0  0  0
  182.5290  178.7100  142.6950 C   0  0  0  0  0  2  0  0  0  0  0  0
  185.2550  178.1020  142.7020 C   0  0  0  0  0  3  0  0  0  0  0  0
  184.5850  178.1820  141.3140 C   0  0  0  0  0  2  0  0  0  0  0  0
  183.1890  178.8230  141.3250 C   0  0  0  0  0  2  0  0  0  0  0  0
  183.3640  179.4190  143.7690 C   0  0  0  0  0  2  0  0  0  0  0  0
  184.8730  179.3630  143.4990 C   0  0  0  0  0  2  0  0  0  0  0  0
  1 12  1  0  0  0  0
  2  6  1  1  0  0  0
  6 14  1  0  0  0  0
  7 13  1  0  0  0  0
  8 17  1  0  0  0  0
  9  7  2  0  0  0  0
 10  8  2  0  0  0  0
 11 14  2  0  0  0  0
 11  7  1  0  0  0  0
 12 23  1  1  0  0  0
 12  2  1  0  0  0  0
 13  4  1  0  0  0  0
 13  5  1  0  0  0  0
 14 18  1  0  0  0  0
 15 21  2  0  0  0  0
 15  1  1  0  0  0  0
 16  3  1  6  0  0  0
 16  2  1  0  0  0  0
 16 11  1  0  0  0  0
 17 21  1  0  0  0  0
 18  4  2  0  0  0  0
 19 10  1  0  0  0  0
 19 20  2  0  0  0  0
 20 15  1  0  0  0  0
 21  3  1  0  0  0  0
 22 26  1  0  0  0  0
 23 27  1  0  0  0  0
 24 25  1  0  0  0  0
 24 23  1  0  0  0  0
 25 22  1  0  0  0  0
 27 26  1  0  0  0  0
M  END
>  <MODEL>
9

>  <REMARK>
 VINA RESULT:      -6.7      2.500      6.772
  Name = 
  1 active torsions:
  status: ('A' for Active; 'I' for Inactive)
    1  A    between atoms: C_9  and  N_15
                            x       y       z     vdW  Elec       q    Type
                         _______ _______ _______ _____ _____    ______ ____

>  <TORSDO>
F 1

$$$$
