=
 OpenBabel10272414293D

 43 47  0  0  1  0  0  0  0  0999 V2000
  185.3390  178.8260  143.2460 C   0  0  2  0  0  3  0  0  0  0  0  0
  187.7720  177.6160  142.1630 C   0  0  1  0  0  3  0  0  0  0  0  0
  184.7040  178.0660  146.0390 C   0  0  1  0  0  3  0  0  0  0  0  0
  186.0940  177.8820  145.4620 C   0  0  0  0  0  0  0  0  0  0  0  0
  184.7780  178.5350  147.3530 O   0  0  0  0  0  1  0  0  0  0  0  0
  187.7670  178.0010  143.6370 C   0  0  0  0  0  2  0  0  0  0  0  0
  186.3600  178.1450  144.1570 C   0  0  0  0  0  0  0  0  0  0  0  0
  183.9110  178.6190  143.7600 C   0  0  0  0  0  2  0  0  0  0  0  0
  185.4570  178.3410  141.8590 N   0  0  0  0  0  0  0  0  0  0  0  0
  186.8270  178.5310  141.3870 C   0  0  0  0  0  2  0  0  0  0  0  0
  183.8400  179.0150  145.2200 C   0  0  0  0  0  2  0  0  0  0  0  0
  189.1990  177.6340  141.6100 C   0  0  1  0  0  3  0  0  0  0  0  0
  190.1670  177.0090  142.6030 C   0  0  0  0  0  1  0  0  0  0  0  0
  189.3100  176.9510  140.2500 C   0  0  0  0  0  2  0  0  0  0  0  0
  189.8900  177.8550  139.1560 C   0  0  2  0  0  3  0  0  0  0  0  0
  189.0990  178.9860  138.9340 O   0  0  0  0  0  1  0  0  0  0  0  0
  190.3330  177.1590  137.8450 C   0  0  1  0  0  3  0  0  0  0  0  0
  192.6520  176.2630  137.6800 C   0  0  0  0  0  2  0  0  0  0  0  0
  191.2220  175.9370  138.0650 C   0  0  0  0  0  3  0  0  0  0  0  0
  191.7830  175.4600  136.7390 C   0  0  0  0  0  2  0  0  0  0  0  0
  189.2580  176.8950  136.7770 C   0  0  2  0  0  3  0  0  0  0  0  0
  189.1490  177.9650  135.8840 O   0  0  0  0  0  1  0  0  0  0  0  0
  187.8960  176.4620  137.3300 C   0  0  1  0  0  3  0  0  0  0  0  0
  186.9630  177.4970  137.1990 O   0  0  0  0  0  1  0  0  0  0  0  0
  187.3880  175.2130  136.6170 C   0  0  2  0  0  3  0  0  0  0  0  0
  187.4300  172.7990  137.1100 C   0  0  0  0  0  2  0  0  0  0  0  0
  185.1340  172.7020  137.6940 O   0  0  0  0  0  0  0  0  0  0  0  0
  186.0870  173.3720  137.3350 C   0  0  0  0  0  0  0  0  0  0  0  0
  186.0030  174.8310  137.1190 C   0  0  0  0  0  2  0  0  0  0  0  0
  188.3080  174.0120  136.8710 C   0  0  0  0  0  2  0  0  0  0  0  0
  184.6250  179.1800  141.0040 C   0  0  0  0  0  2  0  0  0  0  0  0
  182.5370  176.4380  139.4320 C   0  0  0  0  0  3  0  0  0  0  0  0
  182.6800  176.7190  138.0690 C   0  0  0  0  0  0  0  0  0  0  0  0
  184.0830  178.6240  138.6250 C   0  0  0  0  0  3  0  0  0  0  0  0
  183.1620  177.2440  140.3880 C   0  0  0  0  0  3  0  0  0  0  0  0
  183.9310  178.3410  139.9870 C   0  0  0  0  0  0  0  0  0  0  0  0
  183.4580  177.8190  137.6680 C   0  0  0  0  0  3  0  0  0  0  0  0
  182.0440  175.8930  137.1390 O   0  0  0  0  0  0  0  0  0  0  0  0
  181.4950  174.6270  137.4830 C   0  0  0  0  0  1  0  0  0  0  0  0
  187.1340  177.2280  146.3340 C   0  0  0  0  0  2  0  0  0  0  0  0
  188.9370  178.1350  147.8140 C   0  0  0  0  0  3  0  0  0  0  0  0
  187.6950  178.2080  147.3230 C   0  0  0  0  0  3  0  0  0  0  0  0
  189.8970  177.0530  147.4390 C   0  0  0  0  0  1  0  0  0  0  0  0
  1  8  1  1  0  0  0
  1  7  1  0  0  0  0
  2 12  1  6  0  0  0
  2  6  1  0  0  0  0
  3  5  1  1  0  0  0
  4  3  1  0  0  0  0
  4 40  1  0  0  0  0
  6  7  1  0  0  0  0
  7  4  2  0  0  0  0
  8 11  1  0  0  0  0
  9  1  1  0  0  0  0
 10  9  1  0  0  0  0
 10  2  1  0  0  0  0
 11  3  1  0  0  0  0
 12 13  1  1  0  0  0
 14 12  1  0  0  0  0
 15 16  1  6  0  0  0
 15 14  1  0  0  0  0
 17 21  1  1  0  0  0
 17 19  1  0  0  0  0
 17 15  1  0  0  0  0
 18 19  1  0  0  0  0
 20 18  1  0  0  0  0
 20 19  1  0  0  0  0
 21 22  1  1  0  0  0
 21 23  1  0  0  0  0
 23 24  1  6  0  0  0
 25 30  1  0  0  0  0
 25 29  1  0  0  0  0
 25 23  1  1  0  0  0
 26 28  1  0  0  0  0
 28 27  2  0  0  0  0
 29 28  1  0  0  0  0
 30 26  1  0  0  0  0
 31  9  1  0  0  0  0
 32 35  1  0  0  0  0
 33 32  2  0  0  0  0
 34 36  1  0  0  0  0
 36 35  2  0  0  0  0
 36 31  1  0  0  0  0
 37 33  1  0  0  0  0
 37 34  2  0  0  0  0
 38 39  1  0  0  0  0
 38 33  1  0  0  0  0
 40 42  1  0  0  0  0
 42 41  2  0  0  0  0
 43 41  1  0  0  0  0
M  END
>  <MODEL>
1

>  <REMARK>
 VINA RESULT:      -8.4      0.000      0.000
  Name = 
  13 active torsions:
  status: ('A' for Active; 'I' for Inactive)
    1  A    between atoms: C_1  and  N_34
    2  A    between atoms: C_1  and  C_35
    3  A    between atoms: C_2  and  C_6
    4  A    between atoms: C_2  and  C_13
    5  A    between atoms: C_3  and  C_4
    6  A    between atoms: C_3  and  C_12
    7  A    between atoms: C_3  and  C_15
    8  A    between atoms: C_4  and  C_14
    9  A    between atoms: C_6  and  C_12
   10  A    between atoms: C_11  and  C_14
   11  A    between atoms: C_18  and  C_24
   12  A    between atoms: C_19  and  O_25
   13  A    between atoms: C_21  and  C_24
                            x       y       z     vdW  Elec       q    Type
                         _______ _______ _______ _____ _____    ______ ____

>  <TORSDO>
F 13

$$$$
=
 OpenBabel10272414293D

 43 47  0  0  1  0  0  0  0  0999 V2000
  189.8220  177.3030  138.6930 C   0  0  2  0  0  3  0  0  0  0  0  0
  187.0720  176.9150  137.7750 C   0  0  1  0  0  3  0  0  0  0  0  0
  191.7590  175.2830  137.7180 C   0  0  1  0  0  3  0  0  0  0  0  0
  190.4180  175.4880  137.0410 C   0  0  0  0  0  0  0  0  0  0  0  0
  192.7620  175.0870  136.7650 O   0  0  0  0  0  1  0  0  0  0  0  0
  188.1970  176.5650  136.8100 C   0  0  0  0  0  2  0  0  0  0  0  0
  189.4960  176.3500  137.5430 C   0  0  0  0  0  0  0  0  0  0  0  0
  190.9900  176.7790  139.5340 C   0  0  0  0  0  2  0  0  0  0  0  0
  188.6420  177.5320  139.5450 N   0  0  0  0  0  0  0  0  0  0  0  0
  187.5320  178.0170  138.7270 C   0  0  0  0  0  2  0  0  0  0  0  0
  192.1530  176.4410  138.6240 C   0  0  0  0  0  2  0  0  0  0  0  0
  185.8030  177.2910  137.0050 C   0  0  1  0  0  3  0  0  0  0  0  0
  186.0760  177.3300  135.5090 C   0  0  0  0  0  1  0  0  0  0  0  0
  184.6330  176.3600  137.3130 C   0  0  0  0  0  2  0  0  0  0  0  0
  183.7460  176.8530  138.4630 C   0  0  2  0  0  3  0  0  0  0  0  0
  182.7360  175.9380  138.7760 O   0  0  0  0  0  1  0  0  0  0  0  0
  183.2330  178.3110  138.3650 C   0  0  1  0  0  3  0  0  0  0  0  0
  181.5550  178.7090  136.5660 C   0  0  0  0  0  2  0  0  0  0  0  0
  181.7440  178.4210  138.0430 C   0  0  0  0  0  3  0  0  0  0  0  0
  181.4190  179.8260  137.5750 C   0  0  0  0  0  2  0  0  0  0  0  0
  183.6480  179.2920  139.4750 C   0  0  2  0  0  3  0  0  0  0  0  0
  184.2140  180.4550  138.9450 O   0  0  0  0  0  1  0  0  0  0  0  0
  184.5140  178.6790  140.5810 C   0  0  1  0  0  3  0  0  0  0  0  0
  185.4190  179.6260  141.0750 O   0  0  0  0  0  1  0  0  0  0  0  0
  183.6500  178.1460  141.7190 C   0  0  2  0  0  3  0  0  0  0  0  0
  183.0110  178.9810  143.9480 C   0  0  0  0  0  2  0  0  0  0  0  0
  180.8020  179.5400  143.2960 O   0  0  0  0  0  0  0  0  0  0  0  0
  181.8960  179.1020  142.9870 C   0  0  0  0  0  0  0  0  0  0  0  0
  182.2270  178.6770  141.6120 C   0  0  0  0  0  2  0  0  0  0  0  0
  184.1940  178.5830  143.0850 C   0  0  0  0  0  2  0  0  0  0  0  0
  188.9480  178.6120  140.4760 C   0  0  0  0  0  2  0  0  0  0  0  0
  187.5760  177.0540  143.6450 C   0  0  0  0  0  3  0  0  0  0  0  0
  188.6350  177.2490  144.5380 C   0  0  0  0  0  0  0  0  0  0  0  0
  189.9100  178.3210  142.7690 C   0  0  0  0  0  3  0  0  0  0  0  0
  187.6810  177.4900  142.3200 C   0  0  0  0  0  3  0  0  0  0  0  0
  188.8490  178.1190  141.8790 C   0  0  0  0  0  0  0  0  0  0  0  0
  189.8060  177.8860  144.0930 C   0  0  0  0  0  3  0  0  0  0  0  0
  188.4990  176.8040  145.8550 O   0  0  0  0  0  0  0  0  0  0  0  0
  189.3740  177.2100  146.8990 C   0  0  0  0  0  1  0  0  0  0  0  0
  190.0650  174.5780  135.8940 C   0  0  0  0  0  2  0  0  0  0  0  0
  188.4200  172.7070  136.1370 C   0  0  0  0  0  3  0  0  0  0  0  0
  189.6230  173.2340  136.3940 C   0  0  0  0  0  3  0  0  0  0  0  0
  187.3790  173.4150  135.3340 C   0  0  0  0  0  1  0  0  0  0  0  0
  1  8  1  1  0  0  0
  1  9  1  0  0  0  0
  2 12  1  6  0  0  0
  2 10  1  0  0  0  0
  3  5  1  6  0  0  0
  3 11  1  0  0  0  0
  4  7  2  0  0  0  0
  4  3  1  0  0  0  0
  6  7  1  0  0  0  0
  6  2  1  0  0  0  0
  7  1  1  0  0  0  0
  9 31  1  0  0  0  0
 10  9  1  0  0  0  0
 11  8  1  0  0  0  0
 12 13  1  6  0  0  0
 12 14  1  0  0  0  0
 14 15  1  0  0  0  0
 15 16  1  6  0  0  0
 17 15  1  1  0  0  0
 17 21  1  0  0  0  0
 18 20  1  0  0  0  0
 18 19  1  0  0  0  0
 19 17  1  0  0  0  0
 20 19  1  0  0  0  0
 21 22  1  6  0  0  0
 21 23  1  0  0  0  0
 23 24  1  1  0  0  0
 25 23  1  6  0  0  0
 25 30  1  0  0  0  0
 28 27  2  0  0  0  0
 28 26  1  0  0  0  0
 29 25  1  0  0  0  0
 29 28  1  0  0  0  0
 30 26  1  0  0  0  0
 31 36  1  0  0  0  0
 32 33  1  0  0  0  0
 33 38  1  0  0  0  0
 34 37  1  0  0  0  0
 35 32  2  0  0  0  0
 36 35  1  0  0  0  0
 36 34  2  0  0  0  0
 37 33  2  0  0  0  0
 38 39  1  0  0  0  0
 40 42  1  0  0  0  0
 40  4  1  0  0  0  0
 41 42  2  0  0  0  0
 43 41  1  0  0  0  0
M  END
>  <MODEL>
2

>  <REMARK>
 VINA RESULT:      -8.3      2.261      8.648
  Name = 
  13 active torsions:
  status: ('A' for Active; 'I' for Inactive)
    1  A    between atoms: C_1  and  N_34
    2  A    between atoms: C_1  and  C_35
    3  A    between atoms: C_2  and  C_6
    4  A    between atoms: C_2  and  C_13
    5  A    between atoms: C_3  and  C_4
    6  A    between atoms: C_3  and  C_12
    7  A    between atoms: C_3  and  C_15
    8  A    between atoms: C_4  and  C_14
    9  A    between atoms: C_6  and  C_12
   10  A    between atoms: C_11  and  C_14
   11  A    between atoms: C_18  and  C_24
   12  A    between atoms: C_19  and  O_25
   13  A    between atoms: C_21  and  C_24
                            x       y       z     vdW  Elec       q    Type
                         _______ _______ _______ _____ _____    ______ ____

>  <TORSDO>
F 13

$$$$
=
 OpenBabel10272414293D

 43 47  0  0  1  0  0  0  0  0999 V2000
  185.4930  178.7420  143.1670 C   0  0  2  0  0  3  0  0  0  0  0  0
  187.8630  177.4310  142.0630 C   0  0  1  0  0  3  0  0  0  0  0  0
  184.8830  178.0520  145.9830 C   0  0  1  0  0  3  0  0  0  0  0  0
  186.2550  177.8090  145.3860 C   0  0  0  0  0  0  0  0  0  0  0  0
  184.9970  178.5390  147.2880 O   0  0  0  0  0  1  0  0  0  0  0  0
  187.8970  177.8400  143.5300 C   0  0  0  0  0  2  0  0  0  0  0  0
  186.5060  178.0420  144.0720 C   0  0  0  0  0  0  0  0  0  0  0  0
  184.0680  178.5940  143.7100 C   0  0  0  0  0  2  0  0  0  0  0  0
  185.5680  178.2300  141.7880 N   0  0  0  0  0  0  0  0  0  0  0  0
  186.9360  178.3650  141.2880 C   0  0  0  0  0  2  0  0  0  0  0  0
  184.0380  179.0170  145.1640 C   0  0  0  0  0  2  0  0  0  0  0  0
  189.2790  177.3890  141.4850 C   0  0  1  0  0  3  0  0  0  0  0  0
  190.2630  176.8570  142.5150 C   0  0  0  0  0  1  0  0  0  0  0  0
  189.3620  176.5790  140.1940 C   0  0  0  0  0  2  0  0  0  0  0  0
  190.2850  177.2010  139.1390 C   0  0  2  0  0  3  0  0  0  0  0  0
  189.8450  178.4650  138.7340 O   0  0  0  0  0  1  0  0  0  0  0  0
  190.6910  176.2930  137.9520 C   0  0  1  0  0  3  0  0  0  0  0  0
  193.1500  176.6100  137.7060 C   0  0  0  0  0  2  0  0  0  0  0  0
  192.0610  175.6380  138.1160 C   0  0  0  0  0  3  0  0  0  0  0  0
  192.7350  175.5030  136.7640 C   0  0  0  0  0  2  0  0  0  0  0  0
  189.6450  175.2970  137.4220 C   0  0  2  0  0  3  0  0  0  0  0  0
  190.0390  173.9750  137.6420 O   0  0  0  0  0  1  0  0  0  0  0  0
  189.2070  175.5370  135.9730 C   0  0  1  0  0  3  0  0  0  0  0  0
  189.0400  174.3190  135.3040 O   0  0  0  0  0  1  0  0  0  0  0  0
  187.9110  176.3400  135.9200 C   0  0  2  0  0  3  0  0  0  0  0  0
  186.5760  177.5860  137.5740 C   0  0  0  0  0  2  0  0  0  0  0  0
  187.2550  179.7130  136.7760 O   0  0  0  0  0  0  0  0  0  0  0  0
  187.3280  178.5000  136.6900 C   0  0  0  0  0  0  0  0  0  0  0  0
  188.2010  177.8200  135.7110 C   0  0  0  0  0  2  0  0  0  0  0  0
  187.1220  176.2140  137.2300 C   0  0  0  0  0  2  0  0  0  0  0  0
  184.7510  179.0840  140.9320 C   0  0  0  0  0  2  0  0  0  0  0  0
  182.5280  176.4930  139.2900 C   0  0  0  0  0  3  0  0  0  0  0  0
  181.2520  176.9850  139.5870 C   0  0  0  0  0  0  0  0  0  0  0  0
  182.2640  178.8440  140.7810 C   0  0  0  0  0  3  0  0  0  0  0  0
  183.6670  177.1710  139.7360 C   0  0  0  0  0  3  0  0  0  0  0  0
  183.5370  178.3440  140.4860 C   0  0  0  0  0  0  0  0  0  0  0  0
  181.1250  178.1670  140.3370 C   0  0  0  0  0  3  0  0  0  0  0  0
  180.1340  176.2860  139.1250 O   0  0  0  0  0  0  0  0  0  0  0  0
  180.0280  174.8700  139.2010 C   0  0  0  0  0  1  0  0  0  0  0  0
  187.2870  177.1340  146.2510 C   0  0  0  0  0  2  0  0  0  0  0  0
  189.1050  178.0020  147.7360 C   0  0  0  0  0  3  0  0  0  0  0  0
  187.8640  178.0990  147.2450 C   0  0  0  0  0  3  0  0  0  0  0  0
  190.0460  176.9070  147.3540 C   0  0  0  0  0  1  0  0  0  0  0  0
  1  8  1  1  0  0  0
  1  7  1  0  0  0  0
  2 12  1  6  0  0  0
  2  6  1  0  0  0  0
  3  5  1  1  0  0  0
  4  3  1  0  0  0  0
  4 40  1  0  0  0  0
  6  7  1  0  0  0  0
  7  4  2  0  0  0  0
  8 11  1  0  0  0  0
  9  1  1  0  0  0  0
 10  9  1  0  0  0  0
 10  2  1  0  0  0  0
 11  3  1  0  0  0  0
 12 13  1  1  0  0  0
 14 12  1  0  0  0  0
 15 16  1  6  0  0  0
 15 14  1  0  0  0  0
 17 21  1  1  0  0  0
 17 19  1  0  0  0  0
 17 15  1  0  0  0  0
 18 19  1  0  0  0  0
 20 18  1  0  0  0  0
 20 19  1  0  0  0  0
 21 22  1  6  0  0  0
 23 24  1  1  0  0  0
 23 21  1  0  0  0  0
 25 23  1  1  0  0  0
 25 30  1  0  0  0  0
 28 27  2  0  0  0  0
 28 26  1  0  0  0  0
 29 25  1  0  0  0  0
 29 28  1  0  0  0  0
 30 26  1  0  0  0  0
 31  9  1  0  0  0  0
 32 33  2  0  0  0  0
 32 35  1  0  0  0  0
 33 37  1  0  0  0  0
 35 36  2  0  0  0  0
 36 34  1  0  0  0  0
 36 31  1  0  0  0  0
 37 34  2  0  0  0  0
 38 39  1  0  0  0  0
 38 33  1  0  0  0  0
 40 42  1  0  0  0  0
 42 41  2  0  0  0  0
 43 41  1  0  0  0  0
M  END
>  <MODEL>
3

>  <REMARK>
 VINA RESULT:      -8.0      1.502      2.265
  Name = 
  13 active torsions:
  status: ('A' for Active; 'I' for Inactive)
    1  A    between atoms: C_1  and  N_34
    2  A    between atoms: C_1  and  C_35
    3  A    between atoms: C_2  and  C_6
    4  A    between atoms: C_2  and  C_13
    5  A    between atoms: C_3  and  C_4
    6  A    between atoms: C_3  and  C_12
    7  A    between atoms: C_3  and  C_15
    8  A    between atoms: C_4  and  C_14
    9  A    between atoms: C_6  and  C_12
   10  A    between atoms: C_11  and  C_14
   11  A    between atoms: C_18  and  C_24
   12  A    between atoms: C_19  and  O_25
   13  A    between atoms: C_21  and  C_24
                            x       y       z     vdW  Elec       q    Type
                         _______ _______ _______ _____ _____    ______ ____

>  <TORSDO>
F 13

$$$$
=
 OpenBabel10272414293D

 43 47  0  0  1  0  0  0  0  0999 V2000
  189.8520  177.0350  142.5830 C   0  0  2  0  0  3  0  0  0  0  0  0
  187.2160  178.2490  142.2200 C   0  0  1  0  0  3  0  0  0  0  0  0
  191.1100  177.5500  145.2170 C   0  0  1  0  0  3  0  0  0  0  0  0
  189.6220  177.7360  144.9980 C   0  0  0  0  0  0  0  0  0  0  0  0
  191.3510  176.9560  146.4580 O   0  0  0  0  0  1  0  0  0  0  0  0
  187.5710  177.7280  143.6060 C   0  0  0  0  0  2  0  0  0  0  0  0
  189.0620  177.5870  143.7700 C   0  0  0  0  0  0  0  0  0  0  0  0
  191.3570  177.2450  142.7720 C   0  0  0  0  0  2  0  0  0  0  0  0
  189.4060  177.6440  141.3180 N   0  0  0  0  0  0  0  0  0  0  0  0
  187.9660  177.4480  141.1590 C   0  0  0  0  0  2  0  0  0  0  0  0
  191.7720  176.7150  144.1290 C   0  0  0  0  0  2  0  0  0  0  0  0
  185.6990  178.2310  142.0130 C   0  0  1  0  0  3  0  0  0  0  0  0
  184.9760  178.5280  143.3170 C   0  0  0  0  0  1  0  0  0  0  0  0
  185.2450  179.1910  140.9160 C   0  0  0  0  0  2  0  0  0  0  0  0
  184.7310  178.4820  139.6570 C   0  0  2  0  0  3  0  0  0  0  0  0
  185.1950  179.0900  138.4850 O   0  0  0  0  0  1  0  0  0  0  0  0
  183.2170  178.1610  139.6130 C   0  0  1  0  0  3  0  0  0  0  0  0
  183.0880  175.8980  138.5770 C   0  0  0  0  0  2  0  0  0  0  0  0
  182.8920  176.6880  139.8570 C   0  0  0  0  0  3  0  0  0  0  0  0
  181.6950  176.2780  139.0220 C   0  0  0  0  0  2  0  0  0  0  0  0
  182.2650  179.0880  140.3880 C   0  0  2  0  0  3  0  0  0  0  0  0
  181.8150  178.4900  141.5680 O   0  0  0  0  0  1  0  0  0  0  0  0
  181.1150  179.6650  139.5570 C   0  0  1  0  0  3  0  0  0  0  0  0
  180.3680  180.5720  140.3170 O   0  0  0  0  0  1  0  0  0  0  0  0
  181.6400  180.3520  138.3000 C   0  0  2  0  0  3  0  0  0  0  0  0
  180.6850  180.8910  136.0930 C   0  0  0  0  0  2  0  0  0  0  0  0
  180.4520  183.2030  136.5660 O   0  0  0  0  0  0  0  0  0  0  0  0
  180.7840  182.0940  136.9450 C   0  0  0  0  0  0  0  0  0  0  0  0
  181.2910  181.8340  138.3080 C   0  0  0  0  0  2  0  0  0  0  0  0
  181.0190  179.7490  137.0330 C   0  0  0  0  0  2  0  0  0  0  0  0
  190.0270  176.9210  140.2140 C   0  0  0  0  0  2  0  0  0  0  0  0
  188.2550  176.5920  136.8820 C   0  0  0  0  0  3  0  0  0  0  0  0
  188.1430  177.9300  136.4870 C   0  0  0  0  0  0  0  0  0  0  0  0
  189.2490  178.6120  138.5410 C   0  0  0  0  0  3  0  0  0  0  0  0
  188.8600  176.2640  138.0990 C   0  0  0  0  0  3  0  0  0  0  0  0
  189.3530  177.2730  138.9320 C   0  0  0  0  0  0  0  0  0  0  0  0
  188.6440  178.9420  137.3250 C   0  0  0  0  0  3  0  0  0  0  0  0
  187.5340  178.2250  135.2650 O   0  0  0  0  0  0  0  0  0  0  0  0
  186.2760  177.6840  134.8810 C   0  0  0  0  0  1  0  0  0  0  0  0
  188.8050  178.2640  146.1480 C   0  0  0  0  0  2  0  0  0  0  0  0
  186.5830  177.4690  146.9810 C   0  0  0  0  0  3  0  0  0  0  0  0
  187.8560  177.2180  146.6560 C   0  0  0  0  0  3  0  0  0  0  0  0
  185.9740  178.8300  146.8880 C   0  0  0  0  0  1  0  0  0  0  0  0
  1  8  1  1  0  0  0
  1  7  1  0  0  0  0
  2 12  1  6  0  0  0
  2  6  1  0  0  0  0
  3  5  1  1  0  0  0
  4  3  1  0  0  0  0
  4 40  1  0  0  0  0
  6  7  1  0  0  0  0
  7  4  2  0  0  0  0
  8 11  1  0  0  0  0
  9  1  1  0  0  0  0
 10  9  1  0  0  0  0
 10  2  1  0  0  0  0
 11  3  1  0  0  0  0
 12 13  1  1  0  0  0
 14 12  1  0  0  0  0
 15 16  1  6  0  0  0
 15 14  1  0  0  0  0
 17 15  1  1  0  0  0
 17 19  1  0  0  0  0
 17 21  1  0  0  0  0
 18 20  1  0  0  0  0
 18 19  1  0  0  0  0
 20 19  1  0  0  0  0
 21 22  1  1  0  0  0
 23 24  1  1  0  0  0
 23 21  1  0  0  0  0
 25 29  1  0  0  0  0
 25 23  1  1  0  0  0
 26 28  1  0  0  0  0
 26 30  1  0  0  0  0
 27 28  2  0  0  0  0
 28 29  1  0  0  0  0
 30 25  1  0  0  0  0
 31  9  1  0  0  0  0
 32 35  1  0  0  0  0
 33 32  2  0  0  0  0
 33 37  1  0  0  0  0
 34 36  1  0  0  0  0
 35 36  2  0  0  0  0
 36 31  1  0  0  0  0
 37 34  2  0  0  0  0
 38 33  1  0  0  0  0
 39 38  1  0  0  0  0
 40 42  1  0  0  0  0
 42 41  2  0  0  0  0
 43 41  1  0  0  0  0
M  END
>  <MODEL>
4

>  <REMARK>
 VINA RESULT:      -8.0      2.829      6.657
  Name = 
  13 active torsions:
  status: ('A' for Active; 'I' for Inactive)
    1  A    between atoms: C_1  and  N_34
    2  A    between atoms: C_1  and  C_35
    3  A    between atoms: C_2  and  C_6
    4  A    between atoms: C_2  and  C_13
    5  A    between atoms: C_3  and  C_4
    6  A    between atoms: C_3  and  C_12
    7  A    between atoms: C_3  and  C_15
    8  A    between atoms: C_4  and  C_14
    9  A    between atoms: C_6  and  C_12
   10  A    between atoms: C_11  and  C_14
   11  A    between atoms: C_18  and  C_24
   12  A    between atoms: C_19  and  O_25
   13  A    between atoms: C_21  and  C_24
                            x       y       z     vdW  Elec       q    Type
                         _______ _______ _______ _____ _____    ______ ____

>  <TORSDO>
F 13

$$$$
=
 OpenBabel10272414293D

 43 47  0  0  1  0  0  0  0  0999 V2000
  184.1210  178.6620  139.1630 C   0  0  2  0  0  3  0  0  0  0  0  0
  185.0130  178.2880  141.9240 C   0  0  1  0  0  3  0  0  0  0  0  0
  181.3090  177.8850  138.6450 C   0  0  1  0  0  3  0  0  0  0  0  0
  181.8140  178.1500  140.0500 C   0  0  0  0  0  0  0  0  0  0  0  0
  180.0300  178.4210  138.4760 O   0  0  0  0  0  1  0  0  0  0  0  0
  183.5730  178.7280  141.6980 C   0  0  0  0  0  2  0  0  0  0  0  0
  183.1220  178.4170  140.2940 C   0  0  0  0  0  0  0  0  0  0  0  0
  183.6520  178.0130  137.8570 C   0  0  0  0  0  2  0  0  0  0  0  0
  185.4630  178.1710  139.5230 N   0  0  0  0  0  0  0  0  0  0  0  0
  185.8910  178.7870  140.7780 C   0  0  0  0  0  2  0  0  0  0  0  0
  182.2290  178.4410  137.5670 C   0  0  0  0  0  2  0  0  0  0  0  0
  185.5070  178.7570  143.2950 C   0  0  1  0  0  3  0  0  0  0  0  0
  184.4270  179.5540  144.0100 C   0  0  0  0  0  1  0  0  0  0  0  0
  185.9920  177.6030  144.1690 C   0  0  0  0  0  2  0  0  0  0  0  0
  187.5140  177.5700  144.3510 C   0  0  2  0  0  3  0  0  0  0  0  0
  188.1010  176.4930  143.6790 O   0  0  0  0  0  1  0  0  0  0  0  0
  188.0430  177.7420  145.7960 C   0  0  1  0  0  3  0  0  0  0  0  0
  186.4010  179.0710  147.1180 C   0  0  0  0  0  2  0  0  0  0  0  0
  186.9520  177.6810  146.8630 C   0  0  0  0  0  3  0  0  0  0  0  0
  187.3850  178.4610  148.0900 C   0  0  0  0  0  2  0  0  0  0  0  0
  189.2860  176.9330  146.2050 C   0  0  2  0  0  3  0  0  0  0  0  0
  189.0230  176.1140  147.3060 O   0  0  0  0  0  1  0  0  0  0  0  0
  190.5600  177.7630  146.3920 C   0  0  1  0  0  3  0  0  0  0  0  0
  191.1590  177.4690  147.6220 O   0  0  0  0  0  1  0  0  0  0  0  0
  191.5490  177.5090  145.2590 C   0  0  2  0  0  3  0  0  0  0  0  0
  191.5870  176.0240  143.2930 C   0  0  0  0  0  2  0  0  0  0  0  0
  191.1480  177.7700  141.7500 O   0  0  0  0  0  0  0  0  0  0  0  0
  191.3080  177.4230  142.9070 C   0  0  0  0  0  0  0  0  0  0  0  0
  191.2090  178.3600  144.0440 C   0  0  0  0  0  2  0  0  0  0  0  0
  191.5160  176.0430  144.8080 C   0  0  0  0  0  2  0  0  0  0  0  0
  186.4100  178.6330  138.5140 C   0  0  0  0  0  2  0  0  0  0  0  0
  189.7560  176.8660  138.6920 C   0  0  0  0  0  3  0  0  0  0  0  0
  189.5230  175.7360  137.8990 C   0  0  0  0  0  0  0  0  0  0  0  0
  187.2440  176.4920  137.5210 C   0  0  0  0  0  3  0  0  0  0  0  0
  188.7400  177.8040  138.9000 C   0  0  0  0  0  3  0  0  0  0  0  0
  187.4820  177.6160  138.3190 C   0  0  0  0  0  0  0  0  0  0  0  0
  188.2580  175.5530  137.3120 C   0  0  0  0  0  3  0  0  0  0  0  0
  190.5590  174.8190  137.7090 O   0  0  0  0  0  0  0  0  0  0  0  0
  191.7530  175.1410  137.0060 C   0  0  0  0  0  1  0  0  0  0  0  0
  180.8550  177.9340  141.1910 C   0  0  0  0  0  2  0  0  0  0  0  0
  180.1670  179.5500  142.9740 C   0  0  0  0  0  3  0  0  0  0  0  0
  180.3020  179.2400  141.6800 C   0  0  0  0  0  3  0  0  0  0  0  0
  180.5410  178.6140  144.0760 C   0  0  0  0  0  1  0  0  0  0  0  0
  1  8  1  6  0  0  0
  1  9  1  0  0  0  0
  1  7  1  0  0  0  0
  2 12  1  1  0  0  0
  3  5  1  1  0  0  0
  3  4  1  0  0  0  0
  4  7  2  0  0  0  0
  4 40  1  0  0  0  0
  6  2  1  0  0  0  0
  7  6  1  0  0  0  0
  9 10  1  0  0  0  0
 10  2  1  0  0  0  0
 11  8  1  0  0  0  0
 11  3  1  0  0  0  0
 12 13  1  1  0  0  0
 12 14  1  0  0  0  0
 14 15  1  0  0  0  0
 15 16  1  1  0  0  0
 17 15  1  6  0  0  0
 17 21  1  0  0  0  0
 17 19  1  0  0  0  0
 18 20  1  0  0  0  0
 19 18  1  0  0  0  0
 19 20  1  0  0  0  0
 21 23  1  0  0  0  0
 21 22  1  1  0  0  0
 23 24  1  1  0  0  0
 25 23  1  1  0  0  0
 26 30  1  0  0  0  0
 27 28  2  0  0  0  0
 28 26  1  0  0  0  0
 28 29  1  0  0  0  0
 29 25  1  0  0  0  0
 30 25  1  0  0  0  0
 31  9  1  0  0  0  0
 32 35  1  0  0  0  0
 33 32  2  0  0  0  0
 34 36  1  0  0  0  0
 36 31  1  0  0  0  0
 36 35  2  0  0  0  0
 37 34  2  0  0  0  0
 37 33  1  0  0  0  0
 38 33  1  0  0  0  0
 39 38  1  0  0  0  0
 40 42  1  0  0  0  0
 41 43  1  0  0  0  0
 42 41  2  0  0  0  0
M  END
>  <MODEL>
5

>  <REMARK>
 VINA RESULT:      -7.8      2.431      7.871
  Name = 
  13 active torsions:
  status: ('A' for Active; 'I' for Inactive)
    1  A    between atoms: C_1  and  N_34
    2  A    between atoms: C_1  and  C_35
    3  A    between atoms: C_2  and  C_6
    4  A    between atoms: C_2  and  C_13
    5  A    between atoms: C_3  and  C_4
    6  A    between atoms: C_3  and  C_12
    7  A    between atoms: C_3  and  C_15
    8  A    between atoms: C_4  and  C_14
    9  A    between atoms: C_6  and  C_12
   10  A    between atoms: C_11  and  C_14
   11  A    between atoms: C_18  and  C_24
   12  A    between atoms: C_19  and  O_25
   13  A    between atoms: C_21  and  C_24
                            x       y       z     vdW  Elec       q    Type
                         _______ _______ _______ _____ _____    ______ ____

>  <TORSDO>
F 13

$$$$
=
 OpenBabel10272414293D

 43 47  0  0  1  0  0  0  0  0999 V2000
  189.6410  177.5190  139.1210 C   0  0  2  0  0  3  0  0  0  0  0  0
  186.8010  177.3460  138.4390 C   0  0  1  0  0  3  0  0  0  0  0  0
  191.3490  175.4350  137.8870 C   0  0  1  0  0  3  0  0  0  0  0  0
  189.9700  175.7560  137.3450 C   0  0  0  0  0  0  0  0  0  0  0  0
  192.2500  175.2260  136.8400 O   0  0  0  0  0  1  0  0  0  0  0  0
  187.8130  176.9760  137.3620 C   0  0  0  0  0  2  0  0  0  0  0  0
  189.1540  176.6450  137.9650 C   0  0  0  0  0  0  0  0  0  0  0  0
  190.8410  176.8840  139.8300 C   0  0  0  0  0  2  0  0  0  0  0  0
  188.5570  177.7760  140.0860 N   0  0  0  0  0  0  0  0  0  0  0  0
  187.4140  178.3690  139.3930 C   0  0  0  0  0  2  0  0  0  0  0  0
  191.8950  176.5200  138.8050 C   0  0  0  0  0  2  0  0  0  0  0  0
  185.4980  177.8350  137.8040 C   0  0  1  0  0  3  0  0  0  0  0  0
  185.1300  176.9760  136.6040 C   0  0  0  0  0  1  0  0  0  0  0  0
  184.3430  177.8870  138.8010 C   0  0  0  0  0  2  0  0  0  0  0  0
  183.6110  179.2350  138.8210 C   0  0  2  0  0  3  0  0  0  0  0  0
  184.4490  180.2820  139.2200 O   0  0  0  0  0  1  0  0  0  0  0  0
  182.2310  179.2630  139.5220 C   0  0  1  0  0  3  0  0  0  0  0  0
  181.3770  179.6330  137.2100 C   0  0  0  0  0  2  0  0  0  0  0  0
  181.0530  179.0520  138.5730 C   0  0  0  0  0  3  0  0  0  0  0  0
  180.4770  180.3920  138.1580 C   0  0  0  0  0  2  0  0  0  0  0  0
  182.0690  178.4510  140.8180 C   0  0  2  0  0  3  0  0  0  0  0  0
  180.8300  177.8070  140.8680 O   0  0  0  0  0  1  0  0  0  0  0  0
  182.3680  179.2290  142.1040 C   0  0  1  0  0  3  0  0  0  0  0  0
  181.1780  179.5790  142.7530 O   0  0  0  0  0  1  0  0  0  0  0  0
  183.2500  178.4130  143.0450 C   0  0  2  0  0  3  0  0  0  0  0  0
  185.4240  178.7890  144.1430 C   0  0  0  0  0  2  0  0  0  0  0  0
  184.4740  179.1610  146.2830 O   0  0  0  0  0  0  0  0  0  0  0  0
  184.3060  178.9210  145.1000 C   0  0  0  0  0  0  0  0  0  0  0  0
  182.9660  178.7710  144.4970 C   0  0  0  0  0  2  0  0  0  0  0  0
  184.7380  178.6890  142.7930 C   0  0  0  0  0  2  0  0  0  0  0  0
  189.0130  178.7890  141.0320 C   0  0  0  0  0  2  0  0  0  0  0  0
  190.0730  178.1380  144.6100 C   0  0  0  0  0  3  0  0  0  0  0  0
  189.2280  177.0820  144.9690 C   0  0  0  0  0  0  0  0  0  0  0  0
  188.2270  177.1530  142.7560 C   0  0  0  0  0  3  0  0  0  0  0  0
  189.9970  178.7000  143.3320 C   0  0  0  0  0  3  0  0  0  0  0  0
  189.0710  178.2120  142.4060 C   0  0  0  0  0  0  0  0  0  0  0  0
  188.3010  176.5900  144.0330 C   0  0  0  0  0  3  0  0  0  0  0  0
  189.3300  176.5410  146.2530 O   0  0  0  0  0  0  0  0  0  0  0  0
  190.4590  176.7550  147.0900 C   0  0  0  0  0  1  0  0  0  0  0  0
  189.4600  174.9270  136.1950 C   0  0  0  0  0  2  0  0  0  0  0  0
  188.2460  172.8580  136.9070 C   0  0  0  0  0  3  0  0  0  0  0  0
  189.3840  173.4770  136.5730 C   0  0  0  0  0  3  0  0  0  0  0  0
  186.9260  173.5540  136.9540 C   0  0  0  0  0  1  0  0  0  0  0  0
  1  8  1  1  0  0  0
  1  9  1  0  0  0  0
  2 12  1  6  0  0  0
  2 10  1  0  0  0  0
  3  5  1  6  0  0  0
  3 11  1  0  0  0  0
  4  3  1  0  0  0  0
  4  7  2  0  0  0  0
  6  7  1  0  0  0  0
  6  2  1  0  0  0  0
  7  1  1  0  0  0  0
  9 31  1  0  0  0  0
 10  9  1  0  0  0  0
 11  8  1  0  0  0  0
 12 13  1  6  0  0  0
 12 14  1  0  0  0  0
 14 15  1  0  0  0  0
 15 16  1  1  0  0  0
 17 15  1  6  0  0  0
 17 21  1  0  0  0  0
 18 20  1  0  0  0  0
 18 19  1  0  0  0  0
 19 17  1  0  0  0  0
 20 19  1  0  0  0  0
 21 22  1  1  0  0  0
 21 23  1  0  0  0  0
 23 24  1  1  0  0  0
 25 23  1  6  0  0  0
 25 29  1  0  0  0  0
 26 28  1  0  0  0  0
 28 27  2  0  0  0  0
 29 28  1  0  0  0  0
 30 25  1  0  0  0  0
 30 26  1  0  0  0  0
 31 36  1  0  0  0  0
 32 33  1  0  0  0  0
 33 38  1  0  0  0  0
 34 37  1  0  0  0  0
 35 32  2  0  0  0  0
 36 34  2  0  0  0  0
 36 35  1  0  0  0  0
 37 33  2  0  0  0  0
 38 39  1  0  0  0  0
 40 42  1  0  0  0  0
 40  4  1  0  0  0  0
 41 43  1  0  0  0  0
 42 41  2  0  0  0  0
M  END
>  <MODEL>
6

>  <REMARK>
 VINA RESULT:      -7.7      2.388      8.924
  Name = 
  13 active torsions:
  status: ('A' for Active; 'I' for Inactive)
    1  A    between atoms: C_1  and  N_34
    2  A    between atoms: C_1  and  C_35
    3  A    between atoms: C_2  and  C_6
    4  A    between atoms: C_2  and  C_13
    5  A    between atoms: C_3  and  C_4
    6  A    between atoms: C_3  and  C_12
    7  A    between atoms: C_3  and  C_15
    8  A    between atoms: C_4  and  C_14
    9  A    between atoms: C_6  and  C_12
   10  A    between atoms: C_11  and  C_14
   11  A    between atoms: C_18  and  C_24
   12  A    between atoms: C_19  and  O_25
   13  A    between atoms: C_21  and  C_24
                            x       y       z     vdW  Elec       q    Type
                         _______ _______ _______ _____ _____    ______ ____

>  <TORSDO>
F 13

$$$$
=
 OpenBabel10272414293D

 43 47  0  0  1  0  0  0  0  0999 V2000
  185.3260  178.1060  144.6920 C   0  0  2  0  0  3  0  0  0  0  0  0
  187.7470  178.1070  143.0490 C   0  0  1  0  0  3  0  0  0  0  0  0
  182.9480  179.3240  143.4090 C   0  0  1  0  0  3  0  0  0  0  0  0
  184.1430  178.8680  142.5950 C   0  0  0  0  0  0  0  0  0  0  0  0
  181.7580  178.9940  142.7560 O   0  0  0  0  0  1  0  0  0  0  0  0
  186.4120  177.9020  142.3450 C   0  0  0  0  0  2  0  0  0  0  0  0
  185.2670  178.3950  143.1920 C   0  0  0  0  0  0  0  0  0  0  0  0
  184.2820  178.9260  145.4570 C   0  0  0  0  0  2  0  0  0  0  0  0
  186.6730  178.3650  145.2310 N   0  0  0  0  0  0  0  0  0  0  0  0
  187.6590  177.5880  144.4830 C   0  0  0  0  0  2  0  0  0  0  0  0
  182.9240  178.7360  144.8130 C   0  0  0  0  0  2  0  0  0  0  0  0
  188.8790  177.4550  142.2520 C   0  0  1  0  0  3  0  0  0  0  0  0
  189.2690  176.1200  142.8680 C   0  0  0  0  0  1  0  0  0  0  0  0
  188.5330  177.2840  140.7750 C   0  0  0  0  0  2  0  0  0  0  0  0
  189.4780  178.0410  139.8330 C   0  0  2  0  0  3  0  0  0  0  0  0
  188.8060  179.0080  139.0790 O   0  0  0  0  0  1  0  0  0  0  0  0
  190.4490  177.1810  138.9880 C   0  0  1  0  0  3  0  0  0  0  0  0
  192.4570  177.6640  140.3820 C   0  0  0  0  0  2  0  0  0  0  0  0
  191.5910  176.5660  139.7950 C   0  0  0  0  0  3  0  0  0  0  0  0
  192.9210  176.9140  139.1540 C   0  0  0  0  0  2  0  0  0  0  0  0
  189.8360  176.1670  138.0060 C   0  0  2  0  0  3  0  0  0  0  0  0
  190.4660  174.9230  138.0950 O   0  0  0  0  0  1  0  0  0  0  0  0
  189.7310  176.6590  136.5580 C   0  0  1  0  0  3  0  0  0  0  0  0
  190.6690  176.0070  135.7500 O   0  0  0  0  0  1  0  0  0  0  0  0
  188.3270  176.4370  136.0060 C   0  0  2  0  0  3  0  0  0  0  0  0
  186.9830  174.4500  135.4410 C   0  0  0  0  0  2  0  0  0  0  0  0
  185.5840  174.6400  137.3460 O   0  0  0  0  0  0  0  0  0  0  0  0
  186.5260  175.0680  136.7030 C   0  0  0  0  0  0  0  0  0  0  0  0
  187.3290  176.2300  137.1370 C   0  0  0  0  0  2  0  0  0  0  0  0
  188.2680  175.1880  135.1180 C   0  0  0  0  0  2  0  0  0  0  0  0
  186.7280  177.8600  146.5990 C   0  0  0  0  0  2  0  0  0  0  0  0
  190.3340  176.7030  146.6600 C   0  0  0  0  0  3  0  0  0  0  0  0
  190.7990  177.2890  147.8430 C   0  0  0  0  0  0  0  0  0  0  0  0
  188.6040  178.2650  148.2050 C   0  0  0  0  0  3  0  0  0  0  0  0
  189.0110  176.8970  146.2500 C   0  0  0  0  0  3  0  0  0  0  0  0
  188.1460  177.6810  147.0180 C   0  0  0  0  0  0  0  0  0  0  0  0
  189.9260  178.0730  148.6160 C   0  0  0  0  0  3  0  0  0  0  0  0
  192.1260  177.0750  148.2260 O   0  0  0  0  0  0  0  0  0  0  0  0
  192.7320  175.7880  148.2130 C   0  0  0  0  0  1  0  0  0  0  0  0
  184.1180  179.1210  141.1110 C   0  0  0  0  0  2  0  0  0  0  0  0
  183.7650  177.6570  139.1110 C   0  0  0  0  0  3  0  0  0  0  0  0
  183.4900  177.9680  140.3830 C   0  0  0  0  0  3  0  0  0  0  0  0
  184.7200  178.4410  138.2720 C   0  0  0  0  0  1  0  0  0  0  0  0
  1  9  1  0  0  0  0
  1  8  1  1  0  0  0
  2 12  1  6  0  0  0
  2 10  1  0  0  0  0
  3  5  1  6  0  0  0
  3 11  1  0  0  0  0
  4  7  2  0  0  0  0
  4  3  1  0  0  0  0
  6  2  1  0  0  0  0
  6  7  1  0  0  0  0
  7  1  1  0  0  0  0
  9 31  1  0  0  0  0
 10  9  1  0  0  0  0
 11  8  1  0  0  0  0
 12 13  1  1  0  0  0
 14 12  1  0  0  0  0
 15 16  1  6  0  0  0
 15 14  1  0  0  0  0
 17 21  1  1  0  0  0
 17 19  1  0  0  0  0
 17 15  1  0  0  0  0
 19 18  1  0  0  0  0
 20 19  1  0  0  0  0
 20 18  1  0  0  0  0
 21 22  1  6  0  0  0
 23 24  1  6  0  0  0
 23 21  1  0  0  0  0
 25 23  1  1  0  0  0
 25 29  1  0  0  0  0
 26 28  1  0  0  0  0
 28 29  1  0  0  0  0
 28 27  2  0  0  0  0
 30 26  1  0  0  0  0
 30 25  1  0  0  0  0
 31 36  1  0  0  0  0
 32 33  1  0  0  0  0
 33 38  1  0  0  0  0
 33 37  2  0  0  0  0
 34 37  1  0  0  0  0
 35 32  2  0  0  0  0
 35 36  1  0  0  0  0
 36 34  2  0  0  0  0
 39 38  1  0  0  0  0
 40  4  1  0  0  0  0
 41 42  2  0  0  0  0
 42 40  1  0  0  0  0
 43 41  1  0  0  0  0
M  END
>  <MODEL>
7

>  <REMARK>
 VINA RESULT:      -7.6      2.065      6.283
  Name = 
  13 active torsions:
  status: ('A' for Active; 'I' for Inactive)
    1  A    between atoms: C_1  and  N_34
    2  A    between atoms: C_1  and  C_35
    3  A    between atoms: C_2  and  C_6
    4  A    between atoms: C_2  and  C_13
    5  A    between atoms: C_3  and  C_4
    6  A    between atoms: C_3  and  C_12
    7  A    between atoms: C_3  and  C_15
    8  A    between atoms: C_4  and  C_14
    9  A    between atoms: C_6  and  C_12
   10  A    between atoms: C_11  and  C_14
   11  A    between atoms: C_18  and  C_24
   12  A    between atoms: C_19  and  O_25
   13  A    between atoms: C_21  and  C_24
                            x       y       z     vdW  Elec       q    Type
                         _______ _______ _______ _____ _____    ______ ____

>  <TORSDO>
F 13

$$$$
=
 OpenBabel10272414293D

 43 47  0  0  1  0  0  0  0  0999 V2000
  185.3670  178.0580  144.5810 C   0  0  2  0  0  3  0  0  0  0  0  0
  187.8350  178.2300  143.0210 C   0  0  1  0  0  3  0  0  0  0  0  0
  182.9670  179.1700  143.2450 C   0  0  1  0  0  3  0  0  0  0  0  0
  184.2110  178.7990  142.4630 C   0  0  0  0  0  0  0  0  0  0  0  0
  181.8190  178.7890  142.5460 O   0  0  0  0  0  1  0  0  0  0  0  0
  186.5370  177.9660  142.2680 C   0  0  0  0  0  2  0  0  0  0  0  0
  185.3400  178.3760  143.0860 C   0  0  0  0  0  0  0  0  0  0  0  0
  184.2550  178.8020  145.3270 C   0  0  0  0  0  2  0  0  0  0  0  0
  186.6790  178.3800  145.1700 N   0  0  0  0  0  0  0  0  0  0  0  0
  187.7310  177.6750  144.4400 C   0  0  0  0  0  2  0  0  0  0  0  0
  182.9310  178.5500  144.6350 C   0  0  0  0  0  2  0  0  0  0  0  0
  189.0280  177.6590  142.2490 C   0  0  1  0  0  3  0  0  0  0  0  0
  189.2370  176.1930  142.5930 C   0  0  0  0  0  1  0  0  0  0  0  0
  188.8900  177.8430  140.7390 C   0  0  0  0  0  2  0  0  0  0  0  0
  190.0470  177.2290  139.9410 C   0  0  2  0  0  3  0  0  0  0  0  0
  191.2930  177.6610  140.4040 O   0  0  0  0  0  1  0  0  0  0  0  0
  189.9240  177.2770  138.3980 C   0  0  1  0  0  3  0  0  0  0  0  0
  191.4080  175.4000  137.6980 C   0  0  0  0  0  2  0  0  0  0  0  0
  189.9770  175.9030  137.7320 C   0  0  0  0  0  3  0  0  0  0  0  0
  190.7830  175.9810  136.4500 C   0  0  0  0  0  2  0  0  0  0  0  0
  188.8190  178.1590  137.7940 C   0  0  2  0  0  3  0  0  0  0  0  0
  189.0200  179.5090  138.0930 O   0  0  0  0  0  1  0  0  0  0  0  0
  187.3900  177.7040  138.1110 C   0  0  1  0  0  3  0  0  0  0  0  0
  186.6480  178.7600  138.6520 O   0  0  0  0  0  1  0  0  0  0  0  0
  186.6970  177.1700  136.8610 C   0  0  2  0  0  3  0  0  0  0  0  0
  187.4690  176.3410  134.6730 C   0  0  0  0  0  2  0  0  0  0  0  0
  187.0360  174.0670  135.1870 O   0  0  0  0  0  0  0  0  0  0  0  0
  187.0300  175.2320  135.5450 C   0  0  0  0  0  0  0  0  0  0  0  0
  186.6120  175.6500  136.8980 C   0  0  0  0  0  2  0  0  0  0  0  0
  187.4690  177.5490  135.5910 C   0  0  0  0  0  2  0  0  0  0  0  0
  186.7180  177.8480  146.5290 C   0  0  0  0  0  2  0  0  0  0  0  0
  190.3320  176.7190  146.6160 C   0  0  0  0  0  3  0  0  0  0  0  0
  190.7760  177.2790  147.8190 C   0  0  0  0  0  0  0  0  0  0  0  0
  188.5670  178.2290  148.1720 C   0  0  0  0  0  3  0  0  0  0  0  0
  189.0140  176.9120  146.1910 C   0  0  0  0  0  3  0  0  0  0  0  0
  188.1320  177.6710  146.9650 C   0  0  0  0  0  0  0  0  0  0  0  0
  189.8840  178.0380  148.5970 C   0  0  0  0  0  3  0  0  0  0  0  0
  192.0980  177.0670  148.2160 O   0  0  0  0  0  0  0  0  0  0  0  0
  192.7170  175.7870  148.1750 C   0  0  0  0  0  1  0  0  0  0  0  0
  184.2190  179.0830  140.9830 C   0  0  0  0  0  2  0  0  0  0  0  0
  182.9930  178.0010  139.0890 C   0  0  0  0  0  3  0  0  0  0  0  0
  183.7170  177.9000  140.2090 C   0  0  0  0  0  3  0  0  0  0  0  0
  182.5910  179.3120  138.4970 C   0  0  0  0  0  1  0  0  0  0  0  0
  1  9  1  0  0  0  0
  1  8  1  1  0  0  0
  2 12  1  6  0  0  0
  2 10  1  0  0  0  0
  3  5  1  6  0  0  0
  3 11  1  0  0  0  0
  4  7  2  0  0  0  0
  4  3  1  0  0  0  0
  6  2  1  0  0  0  0
  6  7  1  0  0  0  0
  7  1  1  0  0  0  0
  9 31  1  0  0  0  0
 10  9  1  0  0  0  0
 11  8  1  0  0  0  0
 12 13  1  6  0  0  0
 14 12  1  0  0  0  0
 15 16  1  6  0  0  0
 15 14  1  0  0  0  0
 17 21  1  1  0  0  0
 17 15  1  0  0  0  0
 18 19  1  0  0  0  0
 19 17  1  0  0  0  0
 20 18  1  0  0  0  0
 20 19  1  0  0  0  0
 21 22  1  1  0  0  0
 21 23  1  0  0  0  0
 23 24  1  6  0  0  0
 25 29  1  0  0  0  0
 25 23  1  1  0  0  0
 26 28  1  0  0  0  0
 26 30  1  0  0  0  0
 27 28  2  0  0  0  0
 28 29  1  0  0  0  0
 30 25  1  0  0  0  0
 31 36  1  0  0  0  0
 32 33  1  0  0  0  0
 33 38  1  0  0  0  0
 33 37  2  0  0  0  0
 34 37  1  0  0  0  0
 35 32  2  0  0  0  0
 35 36  1  0  0  0  0
 36 34  2  0  0  0  0
 39 38  1  0  0  0  0
 40  4  1  0  0  0  0
 41 42  2  0  0  0  0
 42 40  1  0  0  0  0
 43 41  1  0  0  0  0
M  END
>  <MODEL>
8

>  <REMARK>
 VINA RESULT:      -7.6      2.067      6.339
  Name = 
  13 active torsions:
  status: ('A' for Active; 'I' for Inactive)
    1  A    between atoms: C_1  and  N_34
    2  A    between atoms: C_1  and  C_35
    3  A    between atoms: C_2  and  C_6
    4  A    between atoms: C_2  and  C_13
    5  A    between atoms: C_3  and  C_4
    6  A    between atoms: C_3  and  C_12
    7  A    between atoms: C_3  and  C_15
    8  A    between atoms: C_4  and  C_14
    9  A    between atoms: C_6  and  C_12
   10  A    between atoms: C_11  and  C_14
   11  A    between atoms: C_18  and  C_24
   12  A    between atoms: C_19  and  O_25
   13  A    between atoms: C_21  and  C_24
                            x       y       z     vdW  Elec       q    Type
                         _______ _______ _______ _____ _____    ______ ____

>  <TORSDO>
F 13

$$$$
=
 OpenBabel10272414293D

 43 47  0  0  1  0  0  0  0  0999 V2000
  185.9970  178.7040  143.5460 C   0  0  2  0  0  3  0  0  0  0  0  0
  187.8700  177.6700  141.5510 C   0  0  1  0  0  3  0  0  0  0  0  0
  186.4230  177.6940  146.2990 C   0  0  1  0  0  3  0  0  0  0  0  0
  187.5080  177.6050  145.2440 C   0  0  0  0  0  0  0  0  0  0  0  0
  186.9700  178.0540  147.5330 O   0  0  0  0  0  1  0  0  0  0  0  0
  188.4010  177.9300  142.9550 C   0  0  0  0  0  2  0  0  0  0  0  0
  187.2800  177.9850  143.9610 C   0  0  0  0  0  0  0  0  0  0  0  0
  184.8540  178.4080  144.5220 C   0  0  0  0  0  2  0  0  0  0  0  0
  185.6030  178.3400  142.1740 N   0  0  0  0  0  0  0  0  0  0  0  0
  186.7070  178.6140  141.2560 C   0  0  0  0  0  2  0  0  0  0  0  0
  185.3200  178.6790  145.9380 C   0  0  0  0  0  2  0  0  0  0  0  0
  188.9980  177.7810  140.5230 C   0  0  1  0  0  3  0  0  0  0  0  0
  190.2000  176.9560  140.9540 C   0  0  0  0  0  1  0  0  0  0  0  0
  188.5510  177.3850  139.1180 C   0  0  0  0  0  2  0  0  0  0  0  0
  189.6030  177.6700  138.0380 C   0  0  2  0  0  3  0  0  0  0  0  0
  189.3580  178.8730  137.3690 O   0  0  0  0  0  1  0  0  0  0  0  0
  189.9430  176.5030  137.0790 C   0  0  1  0  0  3  0  0  0  0  0  0
  192.3060  176.5370  137.8720 C   0  0  0  0  0  2  0  0  0  0  0  0
  191.1220  175.6480  137.5410 C   0  0  0  0  0  3  0  0  0  0  0  0
  192.2730  175.7820  136.5620 C   0  0  0  0  0  2  0  0  0  0  0  0
  188.7810  175.6370  136.5640 C   0  0  2  0  0  3  0  0  0  0  0  0
  189.2370  174.4190  136.0520 O   0  0  0  0  0  1  0  0  0  0  0  0
  187.8290  176.3500  135.5980 C   0  0  1  0  0  3  0  0  0  0  0  0
  187.6210  175.5730  134.4520 O   0  0  0  0  0  1  0  0  0  0  0  0
  186.4930  176.6510  136.2700 C   0  0  2  0  0  3  0  0  0  0  0  0
  184.1300  176.4060  135.6140 C   0  0  0  0  0  2  0  0  0  0  0  0
  183.7580  174.5270  137.0100 O   0  0  0  0  0  0  0  0  0  0  0  0
  184.5300  175.3680  136.5860 C   0  0  0  0  0  0  0  0  0  0  0  0
  185.9540  175.4150  136.9770 C   0  0  0  0  0  2  0  0  0  0  0  0
  185.4370  177.0820  135.2440 C   0  0  0  0  0  2  0  0  0  0  0  0
  184.5160  179.2200  141.7570 C   0  0  0  0  0  2  0  0  0  0  0  0
  182.6560  176.7140  139.6100 C   0  0  0  0  0  3  0  0  0  0  0  0
  181.3290  176.9510  139.9830 C   0  0  0  0  0  0  0  0  0  0  0  0
  182.0860  178.6630  141.5320 C   0  0  0  0  0  3  0  0  0  0  0  0
  183.6950  177.4460  140.1940 C   0  0  0  0  0  3  0  0  0  0  0  0
  183.4120  178.4170  141.1590 C   0  0  0  0  0  0  0  0  0  0  0  0
  181.0470  177.9320  140.9500 C   0  0  0  0  0  3  0  0  0  0  0  0
  180.3140  176.2040  139.3800 O   0  0  0  0  0  0  0  0  0  0  0  0
  180.5760  175.1470  138.4650 C   0  0  0  0  0  1  0  0  0  0  0  0
  188.7940  176.9160  145.6180 C   0  0  0  0  0  2  0  0  0  0  0  0
  191.1450  177.6740  145.2150 C   0  0  0  0  0  3  0  0  0  0  0  0
  189.9220  177.9010  145.7080 C   0  0  0  0  0  3  0  0  0  0  0  0
  191.5220  176.4000  144.5330 C   0  0  0  0  0  1  0  0  0  0  0  0
  1  7  1  0  0  0  0
  1  8  1  1  0  0  0
  2 12  1  6  0  0  0
  2  6  1  0  0  0  0
  3  5  1  1  0  0  0
  4 40  1  0  0  0  0
  4  3  1  0  0  0  0
  6  7  1  0  0  0  0
  7  4  2  0  0  0  0
  8 11  1  0  0  0  0
  9  1  1  0  0  0  0
 10  2  1  0  0  0  0
 10  9  1  0  0  0  0
 11  3  1  0  0  0  0
 12 13  1  1  0  0  0
 14 12  1  0  0  0  0
 15 16  1  6  0  0  0
 15 14  1  0  0  0  0
 17 21  1  1  0  0  0
 17 19  1  0  0  0  0
 17 15  1  0  0  0  0
 19 18  1  0  0  0  0
 20 19  1  0  0  0  0
 20 18  1  0  0  0  0
 21 22  1  6  0  0  0
 23 24  1  6  0  0  0
 23 21  1  0  0  0  0
 25 23  1  6  0  0  0
 25 29  1  0  0  0  0
 26 28  1  0  0  0  0
 28 29  1  0  0  0  0
 28 27  2  0  0  0  0
 30 26  1  0  0  0  0
 30 25  1  0  0  0  0
 31  9  1  0  0  0  0
 32 33  2  0  0  0  0
 32 35  1  0  0  0  0
 33 37  1  0  0  0  0
 35 36  2  0  0  0  0
 36 34  1  0  0  0  0
 36 31  1  0  0  0  0
 37 34  2  0  0  0  0
 38 33  1  0  0  0  0
 39 38  1  0  0  0  0
 40 42  1  0  0  0  0
 41 42  2  0  0  0  0
 43 41  1  0  0  0  0
M  END
>  <MODEL>
9

>  <REMARK>
 VINA RESULT:      -7.5      1.665      2.173
  Name = 
  13 active torsions:
  status: ('A' for Active; 'I' for Inactive)
    1  A    between atoms: C_1  and  N_34
    2  A    between atoms: C_1  and  C_35
    3  A    between atoms: C_2  and  C_6
    4  A    between atoms: C_2  and  C_13
    5  A    between atoms: C_3  and  C_4
    6  A    between atoms: C_3  and  C_12
    7  A    between atoms: C_3  and  C_15
    8  A    between atoms: C_4  and  C_14
    9  A    between atoms: C_6  and  C_12
   10  A    between atoms: C_11  and  C_14
   11  A    between atoms: C_18  and  C_24
   12  A    between atoms: C_19  and  O_25
   13  A    between atoms: C_21  and  C_24
                            x       y       z     vdW  Elec       q    Type
                         _______ _______ _______ _____ _____    ______ ____

>  <TORSDO>
F 13

$$$$
