=
 OpenBabel10272401443D

 28 32  0  0  1  0  0  0  0  0999 V2000
  184.6950  178.8370  144.1070 C   0  0  0  0  0  0  0  0  0  0  0  0
  188.1410  178.3040  140.1550 C   0  0  0  0  0  2  0  0  0  0  0  0
  188.8890  176.9430  146.0500 C   0  0  0  0  0  1  0  0  0  0  0  0
  190.7250  176.7080  140.5370 C   0  0  0  0  0  2  0  0  0  0  0  0
  187.8900  177.8300  142.4910 C   0  0  0  0  0  0  0  0  0  0  0  0
  189.6610  177.3980  138.3720 C   0  0  0  0  0  0  0  0  0  0  0  0
  188.6120  177.7620  141.2840 C   0  0  0  0  0  0  0  0  0  0  0  0
  190.1270  176.8850  143.1030 S   0  0  0  0  0  0  0  0  0  0  0  0
  190.5000  176.6450  139.0820 C   0  0  0  0  0  3  0  0  0  0  0  0
  186.7570  177.9090  145.0590 C   0  0  0  0  0  0  0  0  0  0  0  0
  186.5940  178.3270  142.6490 C   0  0  0  0  0  3  0  0  0  0  0  0
  189.8870  177.1900  141.4610 C   0  0  0  0  0  0  0  0  0  0  0  0
  184.8760  178.4500  146.4980 C   0  0  0  0  0  3  0  0  0  0  0  0
  188.0730  177.4210  144.8900 C   0  0  0  0  0  0  0  0  0  0  0  0
  186.1720  177.9620  146.3320 C   0  0  0  0  0  3  0  0  0  0  0  0
  189.5090  177.1290  137.0190 O   0  0  0  0  0  1  0  0  0  0  0  0
  188.9640  178.5860  138.9400 C   0  0  0  0  0  2  0  0  0  0  0  0
  188.6050  177.3980  143.5980 C   0  0  0  0  0  0  0  0  0  0  0  0
  184.1450  178.8850  145.3930 C   0  0  0  0  0  3  0  0  0  0  0  0
  186.0100  178.3590  143.9290 C   0  0  0  0  0  0  0  0  0  0  0  0
  183.8520  179.3060  142.9420 C   0  0  0  0  0  2  0  0  0  0  0  0
  182.7240  178.4200  142.6060 N   0  0  0  0  0  0  0  0  0  0  0  0
  180.6470  178.9820  141.5190 C   0  0  1  0  0  3  0  0  0  0  0  0
  182.8020  177.9950  141.2080 C   0  0  0  0  0  2  0  0  0  0  0  0
  180.6890  178.4810  143.9480 C   0  0  0  0  0  1  0  0  0  0  0  0
  181.4480  179.1080  142.7950 C   0  0  1  0  0  3  0  0  0  0  0  0
  179.9960  180.3100  141.1830 C   0  0  0  0  0  1  0  0  0  0  0  0
  181.6510  178.6260  140.4580 C   0  0  0  0  0  2  0  0  0  0  0  0
  1 19  1  0  0  0  0
  2  7  1  0  0  0  0
  4 12  1  0  0  0  0
  5 11  2  0  0  0  0
  5 18  1  0  0  0  0
  6 17  1  0  0  0  0
  6  9  2  0  0  0  0
  7 12  2  0  0  0  0
  7  5  1  0  0  0  0
  8 18  1  0  0  0  0
  9  4  1  0  0  0  0
 10 15  2  0  0  0  0
 11 20  1  0  0  0  0
 12  8  1  0  0  0  0
 14 10  1  0  0  0  0
 14  3  1  0  0  0  0
 15 13  1  0  0  0  0
 16  6  1  0  0  0  0
 17  2  1  0  0  0  0
 18 14  2  0  0  0  0
 19 13  2  0  0  0  0
 20  1  2  0  0  0  0
 20 10  1  0  0  0  0
 21  1  1  0  0  0  0
 22 26  1  0  0  0  0
 22 21  1  0  0  0  0
 23 27  1  6  0  0  0
 23 26  1  0  0  0  0
 24 22  1  0  0  0  0
 26 25  1  1  0  0  0
 28 24  1  0  0  0  0
 28 23  1  0  0  0  0
M  END
>  <MODEL>
1

>  <REMARK>
 VINA RESULT:     -10.4      0.000      0.000
  Name = 
  2 active torsions:
  status: ('A' for Active; 'I' for Inactive)
    1  A    between atoms: C_1  and  C_2
    2  A    between atoms: C_2  and  N_3
                            x       y       z     vdW  Elec       q    Type
                         _______ _______ _______ _____ _____    ______ ____

>  <TORSDO>
F 2

$$$$
=
 OpenBabel10272401443D

 28 32  0  0  1  0  0  0  0  0999 V2000
  188.6910  177.0480  143.5470 C   0  0  0  0  0  0  0  0  0  0  0  0
  183.9650  177.8010  141.3400 C   0  0  0  0  0  2  0  0  0  0  0  0
  185.6520  178.7770  147.1150 C   0  0  0  0  0  1  0  0  0  0  0  0
  181.7740  179.3460  142.8180 C   0  0  0  0  0  2  0  0  0  0  0  0
  185.1340  178.1270  143.4060 C   0  0  0  0  0  0  0  0  0  0  0  0
  181.8760  178.8050  140.3710 C   0  0  0  0  0  0  0  0  0  0  0  0
  183.9920  178.2660  142.5940 C   0  0  0  0  0  0  0  0  0  0  0  0
  183.3430  179.0120  144.9170 S   0  0  0  0  0  0  0  0  0  0  0  0
  181.4030  179.5040  141.4010 C   0  0  0  0  0  3  0  0  0  0  0  0
  187.1950  177.8950  145.2980 C   0  0  0  0  0  0  0  0  0  0  0  0
  186.3770  177.6330  143.0030 C   0  0  0  0  0  3  0  0  0  0  0  0
  182.9030  178.8140  143.3000 C   0  0  0  0  0  0  0  0  0  0  0  0
  189.4840  177.2800  145.8310 C   0  0  0  0  0  3  0  0  0  0  0  0
  185.9290  178.3810  145.6990 C   0  0  0  0  0  0  0  0  0  0  0  0
  188.2380  177.7660  146.2260 C   0  0  0  0  0  3  0  0  0  0  0  0
  181.4810  179.1610  139.0880 O   0  0  0  0  0  1  0  0  0  0  0  0
  182.7210  177.5900  140.5380 C   0  0  0  0  0  2  0  0  0  0  0  0
  184.9270  178.4820  144.7310 C   0  0  0  0  0  0  0  0  0  0  0  0
  189.7070  176.9230  144.5020 C   0  0  0  0  0  3  0  0  0  0  0  0
  187.4220  177.5240  143.9380 C   0  0  0  0  0  0  0  0  0  0  0  0
  188.9910  176.6620  142.1160 C   0  0  0  0  0  2  0  0  0  0  0  0
  189.6480  177.7160  141.3220 N   0  0  0  0  0  0  0  0  0  0  0  0
  190.2750  177.6690  138.9940 C   0  0  1  0  0  3  0  0  0  0  0  0
  188.6590  178.4770  140.5610 C   0  0  0  0  0  2  0  0  0  0  0  0
  192.0120  177.5160  140.7580 C   0  0  0  0  0  1  0  0  0  0  0  0
  190.5960  177.1360  140.3730 C   0  0  1  0  0  3  0  0  0  0  0  0
  190.3420  176.5470  137.9760 C   0  0  0  0  0  1  0  0  0  0  0  0
  188.8650  178.1840  139.0920 C   0  0  0  0  0  2  0  0  0  0  0  0
  1 20  2  0  0  0  0
  1 19  1  0  0  0  0
  2  7  1  0  0  0  0
  4 12  1  0  0  0  0
  5 18  1  0  0  0  0
  6 17  1  0  0  0  0
  6  9  2  0  0  0  0
  7 12  2  0  0  0  0
  7  5  1  0  0  0  0
  9  4  1  0  0  0  0
 10 14  1  0  0  0  0
 10 15  2  0  0  0  0
 11  5  2  0  0  0  0
 11 20  1  0  0  0  0
 12  8  1  0  0  0  0
 13 15  1  0  0  0  0
 14  3  1  0  0  0  0
 16  6  1  0  0  0  0
 17  2  1  0  0  0  0
 18  8  1  0  0  0  0
 18 14  2  0  0  0  0
 19 13  2  0  0  0  0
 20 10  1  0  0  0  0
 21  1  1  0  0  0  0
 22 21  1  0  0  0  0
 23 27  1  6  0  0  0
 23 28  1  0  0  0  0
 23 26  1  0  0  0  0
 24 22  1  0  0  0  0
 26 25  1  1  0  0  0
 26 22  1  0  0  0  0
 28 24  1  0  0  0  0
M  END
>  <MODEL>
2

>  <REMARK>
 VINA RESULT:     -10.3      2.677      6.792
  Name = 
  2 active torsions:
  status: ('A' for Active; 'I' for Inactive)
    1  A    between atoms: C_1  and  C_2
    2  A    between atoms: C_2  and  N_3
                            x       y       z     vdW  Elec       q    Type
                         _______ _______ _______ _____ _____    ______ ____

>  <TORSDO>
F 2

$$$$
=
 OpenBabel10272401443D

 28 32  0  0  1  0  0  0  0  0999 V2000
  190.3040  176.4890  143.8300 C   0  0  0  0  0  0  0  0  0  0  0  0
  185.2700  177.7160  142.8620 C   0  0  0  0  0  2  0  0  0  0  0  0
  188.3070  178.0450  148.1370 C   0  0  0  0  0  1  0  0  0  0  0  0
  183.6040  179.2380  144.9310 C   0  0  0  0  0  2  0  0  0  0  0  0
  186.9040  177.7790  144.6140 C   0  0  0  0  0  0  0  0  0  0  0  0
  183.0990  178.9260  142.4930 C   0  0  0  0  0  0  0  0  0  0  0  0
  185.6210  178.0580  144.1070 C   0  0  0  0  0  0  0  0  0  0  0  0
  185.5810  178.6180  146.5690 S   0  0  0  0  0  0  0  0  0  0  0  0
  182.9310  179.5500  143.6570 C   0  0  0  0  0  3  0  0  0  0  0  0
  189.3200  177.2520  145.9450 C   0  0  0  0  0  0  0  0  0  0  0  0
  187.9790  177.2550  143.8930 C   0  0  0  0  0  3  0  0  0  0  0  0
  184.7680  178.5990  145.0900 C   0  0  0  0  0  0  0  0  0  0  0  0
  191.6150  176.4590  145.8740 C   0  0  0  0  0  3  0  0  0  0  0  0
  188.2210  177.7690  146.6690 C   0  0  0  0  0  0  0  0  0  0  0  0
  190.5340  176.9760  146.5880 C   0  0  0  0  0  3  0  0  0  0  0  0
  182.4490  179.4230  141.3720 O   0  0  0  0  0  1  0  0  0  0  0  0
  183.8630  177.6540  142.3620 C   0  0  0  0  0  2  0  0  0  0  0  0
  187.0340  178.0180  145.9750 C   0  0  0  0  0  0  0  0  0  0  0  0
  191.4980  176.2170  144.5060 C   0  0  0  0  0  3  0  0  0  0  0  0
  189.1990  176.9980  144.5450 C   0  0  0  0  0  0  0  0  0  0  0  0
  190.2370  176.2230  142.3420 C   0  0  0  0  0  2  0  0  0  0  0  0
  190.5070  177.4000  141.4970 N   0  0  0  0  0  0  0  0  0  0  0  0
  190.4810  177.5550  139.0910 C   0  0  1  0  0  3  0  0  0  0  0  0
  189.2560  178.0370  141.0880 C   0  0  0  0  0  2  0  0  0  0  0  0
  192.6350  177.5870  140.3210 C   0  0  0  0  0  1  0  0  0  0  0  0
  191.2320  177.0140  140.2880 C   0  0  1  0  0  3  0  0  0  0  0  0
  190.4200  176.5050  138.0000 C   0  0  0  0  0  1  0  0  0  0  0  0
  189.0950  177.8450  139.5960 C   0  0  0  0  0  2  0  0  0  0  0  0
  1 19  2  0  0  0  0
  1 20  1  0  0  0  0
  2  7  1  0  0  0  0
  4 12  1  0  0  0  0
  5 18  1  0  0  0  0
  6  9  2  0  0  0  0
  7  5  1  0  0  0  0
  7 12  2  0  0  0  0
  9  4  1  0  0  0  0
 10 15  1  0  0  0  0
 10 14  1  0  0  0  0
 11 20  1  0  0  0  0
 11  5  2  0  0  0  0
 12  8  1  0  0  0  0
 13 15  2  0  0  0  0
 14  3  1  0  0  0  0
 16  6  1  0  0  0  0
 17  6  1  0  0  0  0
 17  2  1  0  0  0  0
 18  8  1  0  0  0  0
 18 14  2  0  0  0  0
 19 13  1  0  0  0  0
 20 10  2  0  0  0  0
 21  1  1  0  0  0  0
 22 21  1  0  0  0  0
 23 27  1  6  0  0  0
 23 28  1  0  0  0  0
 23 26  1  0  0  0  0
 24 22  1  0  0  0  0
 26 25  1  1  0  0  0
 26 22  1  0  0  0  0
 28 24  1  0  0  0  0
M  END
>  <MODEL>
3

>  <REMARK>
 VINA RESULT:     -10.2      2.864      7.015
  Name = 
  2 active torsions:
  status: ('A' for Active; 'I' for Inactive)
    1  A    between atoms: C_1  and  C_2
    2  A    between atoms: C_2  and  N_3
                            x       y       z     vdW  Elec       q    Type
                         _______ _______ _______ _____ _____    ______ ____

>  <TORSDO>
F 2

$$$$
=
 OpenBabel10272401443D

 28 32  0  0  1  0  0  0  0  0999 V2000
  187.0180  178.4350  140.3750 C   0  0  0  0  0  0  0  0  0  0  0  0
  190.1050  177.5960  144.5630 C   0  0  0  0  0  2  0  0  0  0  0  0
  184.0750  178.4690  144.4110 C   0  0  0  0  0  1  0  0  0  0  0  0
  188.8910  176.9640  147.3010 C   0  0  0  0  0  2  0  0  0  0  0  0
  187.7990  177.8550  143.9650 C   0  0  0  0  0  0  0  0  0  0  0  0
  191.2610  176.6040  146.5610 C   0  0  0  0  0  0  0  0  0  0  0  0
  188.8130  177.5960  144.9070 C   0  0  0  0  0  0  0  0  0  0  0  0
  186.6450  177.7940  146.1870 S   0  0  0  0  0  0  0  0  0  0  0  0
  190.2400  176.3750  147.3840 C   0  0  0  0  0  3  0  0  0  0  0  0
  185.5750  178.4540  142.3590 C   0  0  0  0  0  0  0  0  0  0  0  0
  187.9750  178.0090  142.5880 C   0  0  0  0  0  3  0  0  0  0  0  0
  188.3020  177.4760  146.2150 C   0  0  0  0  0  0  0  0  0  0  0  0
  184.6450  178.9070  140.1610 C   0  0  0  0  0  3  0  0  0  0  0  0
  185.4100  178.3090  143.7560 C   0  0  0  0  0  0  0  0  0  0  0  0
  184.4800  178.7580  141.5380 C   0  0  0  0  0  3  0  0  0  0  0  0
  192.4330  175.8810  146.7380 O   0  0  0  0  0  1  0  0  0  0  0  0
  191.2430  177.6780  145.5300 C   0  0  0  0  0  2  0  0  0  0  0  0
  186.5390  178.0120  144.5240 C   0  0  0  0  0  0  0  0  0  0  0  0
  185.9050  178.7480  139.5860 C   0  0  0  0  0  3  0  0  0  0  0  0
  186.8660  178.2970  141.7710 C   0  0  0  0  0  0  0  0  0  0  0  0
  188.3590  178.2580  139.6970 C   0  0  0  0  0  2  0  0  0  0  0  0
  188.6320  176.8870  139.2300 N   0  0  0  0  0  0  0  0  0  0  0  0
  189.6840  176.1850  137.1770 C   0  0  1  0  0  3  0  0  0  0  0  0
  190.0140  176.5110  139.5230 C   0  0  0  0  0  2  0  0  0  0  0  0
  187.2400  175.8970  137.4900 C   0  0  0  0  0  1  0  0  0  0  0  0
  188.4350  176.7820  137.7850 C   0  0  1  0  0  3  0  0  0  0  0  0
  190.0510  176.9310  135.9090 C   0  0  0  0  0  1  0  0  0  0  0  0
  190.7570  176.3820  138.2120 C   0  0  0  0  0  2  0  0  0  0  0  0
  1 20  1  0  0  0  0
  2  7  1  0  0  0  0
  2 17  1  0  0  0  0
  4  9  1  0  0  0  0
  5 18  1  0  0  0  0
  5  7  1  0  0  0  0
  6 16  1  0  0  0  0
  6  9  2  0  0  0  0
  7 12  2  0  0  0  0
  8 12  1  0  0  0  0
 10 14  1  0  0  0  0
 11  5  2  0  0  0  0
 12  4  1  0  0  0  0
 13 15  2  0  0  0  0
 14  3  1  0  0  0  0
 14 18  2  0  0  0  0
 15 10  1  0  0  0  0
 17  6  1  0  0  0  0
 18  8  1  0  0  0  0
 19 13  1  0  0  0  0
 19  1  2  0  0  0  0
 20 10  2  0  0  0  0
 20 11  1  0  0  0  0
 21  1  1  0  0  0  0
 22 24  1  0  0  0  0
 22 21  1  0  0  0  0
 23 27  1  6  0  0  0
 23 26  1  0  0  0  0
 23 28  1  0  0  0  0
 26 25  1  1  0  0  0
 26 22  1  0  0  0  0
 28 24  1  0  0  0  0
M  END
>  <MODEL>
4

>  <REMARK>
 VINA RESULT:      -9.8      3.139      6.713
  Name = 
  2 active torsions:
  status: ('A' for Active; 'I' for Inactive)
    1  A    between atoms: C_1  and  C_2
    2  A    between atoms: C_2  and  N_3
                            x       y       z     vdW  Elec       q    Type
                         _______ _______ _______ _____ _____    ______ ____

>  <TORSDO>
F 2

$$$$
=
 OpenBabel10272401443D

 28 32  0  0  1  0  0  0  0  0999 V2000
  186.6140  177.5650  145.4600 C   0  0  0  0  0  0  0  0  0  0  0  0
  188.3070  177.4750  140.4700 C   0  0  0  0  0  2  0  0  0  0  0  0
  191.6070  177.5500  145.5940 C   0  0  0  0  0  1  0  0  0  0  0  0
  191.2470  176.9170  139.8240 C   0  0  0  0  0  2  0  0  0  0  0  0
  189.1240  177.3850  142.7210 C   0  0  0  0  0  0  0  0  0  0  0  0
  189.2910  176.8050  138.2570 C   0  0  0  0  0  0  0  0  0  0  0  0
  189.3240  177.3360  141.3280 C   0  0  0  0  0  0  0  0  0  0  0  0
  191.6080  177.3580  142.4030 S   0  0  0  0  0  0  0  0  0  0  0  0
  190.5470  176.5150  138.5910 C   0  0  0  0  0  3  0  0  0  0  0  0
  189.0660  177.5600  145.5230 C   0  0  0  0  0  0  0  0  0  0  0  0
  187.8910  177.4480  143.3750 C   0  0  0  0  0  3  0  0  0  0  0  0
  190.6900  177.2580  140.9920 C   0  0  0  0  0  0  0  0  0  0  0  0
  187.7860  177.7090  147.5820 C   0  0  0  0  0  3  0  0  0  0  0  0
  190.3090  177.5100  144.8510 C   0  0  0  0  0  0  0  0  0  0  0  0
  189.0130  177.6530  146.9210 C   0  0  0  0  0  3  0  0  0  0  0  0
  188.7680  176.2560  137.0950 O   0  0  0  0  0  1  0  0  0  0  0  0
  188.4590  177.7810  139.0150 C   0  0  0  0  0  2  0  0  0  0  0  0
  190.3000  177.4240  143.4560 C   0  0  0  0  0  0  0  0  0  0  0  0
  186.5970  177.6670  146.8560 C   0  0  0  0  0  3  0  0  0  0  0  0
  187.8490  177.5230  144.7790 C   0  0  0  0  0  0  0  0  0  0  0  0
  185.2940  177.5070  144.7230 C   0  0  0  0  0  2  0  0  0  0  0  0
  184.8370  178.7990  144.1820 N   0  0  0  0  0  0  0  0  0  0  0  0
  183.1950  179.2090  142.4650 C   0  0  1  0  0  3  0  0  0  0  0  0
  183.5890  179.2120  144.8230 C   0  0  0  0  0  2  0  0  0  0  0  0
  185.6070  179.5380  141.9900 C   0  0  0  0  0  1  0  0  0  0  0  0
  184.5920  178.7020  142.7440 C   0  0  1  0  0  3  0  0  0  0  0  0
  182.5000  178.2940  141.4760 C   0  0  0  0  0  1  0  0  0  0  0  0
  182.4860  179.1570  143.7900 C   0  0  0  0  0  2  0  0  0  0  0  0
  1 19  1  0  0  0  0
  2  7  1  0  0  0  0
  4 12  1  0  0  0  0
  5 11  2  0  0  0  0
  5 18  1  0  0  0  0
  6  9  2  0  0  0  0
  6 17  1  0  0  0  0
  7  5  1  0  0  0  0
  8 18  1  0  0  0  0
  9  4  1  0  0  0  0
 10 15  2  0  0  0  0
 11 20  1  0  0  0  0
 12  7  2  0  0  0  0
 12  8  1  0  0  0  0
 14 10  1  0  0  0  0
 14  3  1  0  0  0  0
 15 13  1  0  0  0  0
 16  6  1  0  0  0  0
 17  2  1  0  0  0  0
 18 14  2  0  0  0  0
 19 13  2  0  0  0  0
 20  1  2  0  0  0  0
 20 10  1  0  0  0  0
 21  1  1  0  0  0  0
 22 21  1  0  0  0  0
 22 24  1  0  0  0  0
 23 27  1  6  0  0  0
 23 26  1  0  0  0  0
 23 28  1  0  0  0  0
 26 25  1  6  0  0  0
 26 22  1  0  0  0  0
 28 24  1  0  0  0  0
M  END
>  <MODEL>
5

>  <REMARK>
 VINA RESULT:      -9.8      1.368      2.504
  Name = 
  2 active torsions:
  status: ('A' for Active; 'I' for Inactive)
    1  A    between atoms: C_1  and  C_2
    2  A    between atoms: C_2  and  N_3
                            x       y       z     vdW  Elec       q    Type
                         _______ _______ _______ _____ _____    ______ ____

>  <TORSDO>
F 2

$$$$
=
 OpenBabel10272401443D

 28 32  0  0  1  0  0  0  0  0999 V2000
  189.8210  177.6720  140.5550 C   0  0  0  0  0  0  0  0  0  0  0  0
  184.9780  178.1990  142.5670 C   0  0  0  0  0  2  0  0  0  0  0  0
  190.2210  177.2040  145.5120 C   0  0  0  0  0  1  0  0  0  0  0  0
  184.5650  178.5530  145.5790 C   0  0  0  0  0  2  0  0  0  0  0  0
  187.2640  177.9430  143.2420 C   0  0  0  0  0  0  0  0  0  0  0  0
  182.9220  179.0330  143.7450 C   0  0  0  0  0  0  0  0  0  0  0  0
  185.9000  178.1390  143.5340 C   0  0  0  0  0  0  0  0  0  0  0  0
  187.0840  177.7750  145.7350 S   0  0  0  0  0  0  0  0  0  0  0  0
  183.3560  179.1630  144.9970 C   0  0  0  0  0  3  0  0  0  0  0  0
  190.0150  177.4400  142.9900 C   0  0  0  0  0  0  0  0  0  0  0  0
  187.8380  177.9180  141.9690 C   0  0  0  0  0  3  0  0  0  0  0  0
  185.6490  178.1280  144.9200 C   0  0  0  0  0  0  0  0  0  0  0  0
  191.9680  177.1670  141.5720 C   0  0  0  0  0  3  0  0  0  0  0  0
  189.4210  177.4540  144.2730 C   0  0  0  0  0  0  0  0  0  0  0  0
  191.3850  177.1870  142.8390 C   0  0  0  0  0  3  0  0  0  0  0  0
  181.8110  179.7640  143.3460 O   0  0  0  0  0  1  0  0  0  0  0  0
  183.5070  178.0560  142.7840 C   0  0  0  0  0  2  0  0  0  0  0  0
  188.0490  177.7060  144.3610 C   0  0  0  0  0  0  0  0  0  0  0  0
  191.1900  177.4060  140.4400 C   0  0  0  0  0  3  0  0  0  0  0  0
  189.2170  177.6800  141.8300 C   0  0  0  0  0  0  0  0  0  0  0  0
  189.0280  177.9410  139.2950 C   0  0  0  0  0  2  0  0  0  0  0  0
  189.7080  177.5510  138.0480 N   0  0  0  0  0  0  0  0  0  0  0  0
  188.8400  176.2580  136.2080 C   0  0  1  0  0  3  0  0  0  0  0  0
  189.3570  178.4670  136.9630 C   0  0  0  0  0  2  0  0  0  0  0  0
  190.5000  175.2630  137.7600 C   0  0  0  0  0  1  0  0  0  0  0  0
  189.3160  176.2030  137.6420 C   0  0  1  0  0  3  0  0  0  0  0  0
  187.5830  175.4250  136.0460 C   0  0  0  0  0  1  0  0  0  0  0  0
  188.5270  177.7060  135.9530 C   0  0  0  0  0  2  0  0  0  0  0  0
  1 20  1  0  0  0  0
  2 17  1  0  0  0  0
  2  7  1  0  0  0  0
  5  7  1  0  0  0  0
  5 18  1  0  0  0  0
  6  9  2  0  0  0  0
  7 12  2  0  0  0  0
  9  4  1  0  0  0  0
 10 14  1  0  0  0  0
 11  5  2  0  0  0  0
 12  4  1  0  0  0  0
 12  8  1  0  0  0  0
 13 15  2  0  0  0  0
 14 18  2  0  0  0  0
 14  3  1  0  0  0  0
 15 10  1  0  0  0  0
 16  6  1  0  0  0  0
 17  6  1  0  0  0  0
 18  8  1  0  0  0  0
 19  1  2  0  0  0  0
 19 13  1  0  0  0  0
 20 11  1  0  0  0  0
 20 10  2  0  0  0  0
 21  1  1  0  0  0  0
 22 21  1  0  0  0  0
 23 27  1  1  0  0  0
 23 26  1  0  0  0  0
 24 22  1  0  0  0  0
 26 25  1  6  0  0  0
 26 22  1  0  0  0  0
 28 23  1  0  0  0  0
 28 24  1  0  0  0  0
M  END
>  <MODEL>
6

>  <REMARK>
 VINA RESULT:      -9.3      3.067      7.144
  Name = 
  2 active torsions:
  status: ('A' for Active; 'I' for Inactive)
    1  A    between atoms: C_1  and  C_2
    2  A    between atoms: C_2  and  N_3
                            x       y       z     vdW  Elec       q    Type
                         _______ _______ _______ _____ _____    ______ ____

>  <TORSDO>
F 2

$$$$
=
 OpenBabel10272401443D

 28 32  0  0  1  0  0  0  0  0999 V2000
  189.6880  177.9360  140.0530 C   0  0  0  0  0  0  0  0  0  0  0  0
  184.8990  178.3620  142.2130 C   0  0  0  0  0  2  0  0  0  0  0  0
  190.1800  177.0020  144.9360 C   0  0  0  0  0  1  0  0  0  0  0  0
  184.5540  178.4410  145.2540 C   0  0  0  0  0  2  0  0  0  0  0  0
  187.1920  178.0020  142.8110 C   0  0  0  0  0  0  0  0  0  0  0  0
  182.8840  179.1200  143.5090 C   0  0  0  0  0  0  0  0  0  0  0  0
  185.8390  178.1950  143.1500 C   0  0  0  0  0  0  0  0  0  0  0  0
  187.0600  177.6060  145.2810 S   0  0  0  0  0  0  0  0  0  0  0  0
  183.3460  179.1240  144.7580 C   0  0  0  0  0  3  0  0  0  0  0  0
  189.9260  177.4760  142.4520 C   0  0  0  0  0  0  0  0  0  0  0  0
  187.7390  178.0850  141.5280 C   0  0  0  0  0  3  0  0  0  0  0  0
  185.6160  178.0600  144.5350 C   0  0  0  0  0  0  0  0  0  0  0  0
  191.8440  177.3000  140.9710 C   0  0  0  0  0  3  0  0  0  0  0  0
  189.3590  177.3800  143.7430 C   0  0  0  0  0  0  0  0  0  0  0  0
  191.2870  177.2120  142.2470 C   0  0  0  0  0  3  0  0  0  0  0  0
  181.7800  179.9040  143.2050 O   0  0  0  0  0  1  0  0  0  0  0  0
  183.4290  178.2260  142.4500 C   0  0  0  0  0  2  0  0  0  0  0  0
  187.9950  177.6480  143.8850 C   0  0  0  0  0  0  0  0  0  0  0  0
  191.0480  177.6580  139.8840 C   0  0  0  0  0  3  0  0  0  0  0  0
  189.1100  177.8370  141.3370 C   0  0  0  0  0  0  0  0  0  0  0  0
  188.8740  178.3360  138.8420 C   0  0  0  0  0  2  0  0  0  0  0  0
  187.8730  177.3400  138.4200 N   0  0  0  0  0  0  0  0  0  0  0  0
  186.8300  177.0840  136.2620 C   0  0  1  0  0  3  0  0  0  0  0  0
  188.5180  176.2270  137.7230 C   0  0  0  0  0  2  0  0  0  0  0  0
  185.5370  177.9940  138.1740 C   0  0  0  0  0  1  0  0  0  0  0  0
  186.8990  177.9370  137.5090 C   0  0  1  0  0  3  0  0  0  0  0  0
  186.7980  177.9680  135.0310 C   0  0  0  0  0  1  0  0  0  0  0  0
  188.0950  176.2710  136.2720 C   0  0  0  0  0  2  0  0  0  0  0  0
  1 20  1  0  0  0  0
  2 17  1  0  0  0  0
  2  7  1  0  0  0  0
  5  7  1  0  0  0  0
  5 18  1  0  0  0  0
  6  9  2  0  0  0  0
  7 12  2  0  0  0  0
  9  4  1  0  0  0  0
 10 14  1  0  0  0  0
 11  5  2  0  0  0  0
 12  4  1  0  0  0  0
 12  8  1  0  0  0  0
 13 15  2  0  0  0  0
 14 18  2  0  0  0  0
 14  3  1  0  0  0  0
 15 10  1  0  0  0  0
 16  6  1  0  0  0  0
 17  6  1  0  0  0  0
 18  8  1  0  0  0  0
 19  1  2  0  0  0  0
 19 13  1  0  0  0  0
 20 11  1  0  0  0  0
 20 10  2  0  0  0  0
 21  1  1  0  0  0  0
 22 21  1  0  0  0  0
 23 27  1  6  0  0  0
 23 28  1  0  0  0  0
 23 26  1  0  0  0  0
 24 22  1  0  0  0  0
 26 25  1  1  0  0  0
 26 22  1  0  0  0  0
 28 24  1  0  0  0  0
M  END
>  <MODEL>
7

>  <REMARK>
 VINA RESULT:      -9.3      2.986      6.576
  Name = 
  2 active torsions:
  status: ('A' for Active; 'I' for Inactive)
    1  A    between atoms: C_1  and  C_2
    2  A    between atoms: C_2  and  N_3
                            x       y       z     vdW  Elec       q    Type
                         _______ _______ _______ _____ _____    ______ ____

>  <TORSDO>
F 2

$$$$
=
 OpenBabel10272401443D

 28 32  0  0  1  0  0  0  0  0999 V2000
  184.7580  178.1980  142.6680 C   0  0  0  0  0  0  0  0  0  0  0  0
  189.7230  176.8050  143.7550 C   0  0  0  0  0  2  0  0  0  0  0  0
  185.5310  179.1430  147.5130 C   0  0  0  0  0  1  0  0  0  0  0  0
  190.6980  176.6170  146.6510 C   0  0  0  0  0  2  0  0  0  0  0  0
  187.7310  177.6020  144.8230 C   0  0  0  0  0  0  0  0  0  0  0  0
  191.7830  175.6470  144.6080 C   0  0  0  0  0  0  0  0  0  0  0  0
  189.0610  177.1420  144.8680 C   0  0  0  0  0  0  0  0  0  0  0  0
  188.4710  177.9300  147.1930 S   0  0  0  0  0  0  0  0  0  0  0  0
  191.6120  175.7160  145.9260 C   0  0  0  0  0  3  0  0  0  0  0  0
  185.1410  178.6630  145.0470 C   0  0  0  0  0  0  0  0  0  0  0  0
  186.9120  177.6470  143.6920 C   0  0  0  0  0  3  0  0  0  0  0  0
  189.6010  177.2110  146.1670 C   0  0  0  0  0  0  0  0  0  0  0  0
  183.0200  179.2350  144.0110 C   0  0  0  0  0  3  0  0  0  0  0  0
  185.9830  178.6270  146.1830 C   0  0  0  0  0  0  0  0  0  0  0  0
  183.8460  179.1930  145.1340 C   0  0  0  0  0  3  0  0  0  0  0  0
  192.6190  174.6640  144.0960 O   0  0  0  0  0  1  0  0  0  0  0  0
  191.2070  176.6450  143.6650 C   0  0  0  0  0  2  0  0  0  0  0  0
  187.2650  178.0930  146.0340 C   0  0  0  0  0  0  0  0  0  0  0  0
  183.4740  178.7420  142.7880 C   0  0  0  0  0  3  0  0  0  0  0  0
  185.6080  178.1640  143.7940 C   0  0  0  0  0  0  0  0  0  0  0  0
  185.1940  177.6630  141.3230 C   0  0  0  0  0  2  0  0  0  0  0  0
  185.9460  178.6240  140.4960 N   0  0  0  0  0  0  0  0  0  0  0  0
  187.3140  178.1870  138.5590 C   0  0  1  0  0  3  0  0  0  0  0  0
  185.1830  178.9790  139.3000 C   0  0  0  0  0  2  0  0  0  0  0  0
  188.3680  178.7880  140.7230 C   0  0  0  0  0  1  0  0  0  0  0  0
  187.2190  178.0510  140.0620 C   0  0  1  0  0  3  0  0  0  0  0  0
  187.8510  176.9040  137.9560 C   0  0  0  0  0  1  0  0  0  0  0  0
  185.9010  178.4130  138.0950 C   0  0  0  0  0  2  0  0  0  0  0  0
  1 19  2  0  0  0  0
  1 20  1  0  0  0  0
  2  7  1  0  0  0  0
  5  7  1  0  0  0  0
  5 18  1  0  0  0  0
  6  9  2  0  0  0  0
  7 12  2  0  0  0  0
  9  4  1  0  0  0  0
 10 15  1  0  0  0  0
 10 14  1  0  0  0  0
 11 20  1  0  0  0  0
 11  5  2  0  0  0  0
 12  4  1  0  0  0  0
 12  8  1  0  0  0  0
 13 15  2  0  0  0  0
 14  3  1  0  0  0  0
 16  6  1  0  0  0  0
 17  2  1  0  0  0  0
 17  6  1  0  0  0  0
 18 14  2  0  0  0  0
 18  8  1  0  0  0  0
 19 13  1  0  0  0  0
 20 10  2  0  0  0  0
 21  1  1  0  0  0  0
 22 21  1  0  0  0  0
 23 27  1  6  0  0  0
 23 26  1  0  0  0  0
 24 22  1  0  0  0  0
 26 22  1  0  0  0  0
 26 25  1  1  0  0  0
 28 23  1  0  0  0  0
 28 24  1  0  0  0  0
M  END
>  <MODEL>
8

>  <REMARK>
 VINA RESULT:      -9.1      2.634      4.933
  Name = 
  2 active torsions:
  status: ('A' for Active; 'I' for Inactive)
    1  A    between atoms: C_1  and  C_2
    2  A    between atoms: C_2  and  N_3
                            x       y       z     vdW  Elec       q    Type
                         _______ _______ _______ _____ _____    ______ ____

>  <TORSDO>
F 2

$$$$
=
 OpenBabel10272401443D

 28 32  0  0  1  0  0  0  0  0999 V2000
  185.4260  178.7700  144.5060 C   0  0  0  0  0  0  0  0  0  0  0  0
  187.6550  178.0920  139.7790 C   0  0  0  0  0  2  0  0  0  0  0  0
  181.7340  178.5660  141.1470 C   0  0  0  0  0  1  0  0  0  0  0  0
  186.0160  178.4150  137.2140 C   0  0  0  0  0  2  0  0  0  0  0  0
  185.5180  178.4520  140.8020 C   0  0  0  0  0  0  0  0  0  0  0  0
  188.5140  178.4020  137.4380 C   0  0  0  0  0  0  0  0  0  0  0  0
  186.3380  178.2990  139.6670 C   0  0  0  0  0  0  0  0  0  0  0  0
  183.9480  178.3160  138.8540 S   0  0  0  0  0  0  0  0  0  0  0  0
  187.3960  178.6760  136.7690 C   0  0  0  0  0  3  0  0  0  0  0  0
  183.6150  178.6670  142.8540 C   0  0  0  0  0  0  0  0  0  0  0  0
  185.9510  178.5380  142.1260 C   0  0  0  0  0  3  0  0  0  0  0  0
  185.5910  178.2640  138.4740 C   0  0  0  0  0  0  0  0  0  0  0  0
  183.1070  178.8640  145.2220 C   0  0  0  0  0  3  0  0  0  0  0  0
  183.1850  178.5650  141.5110 C   0  0  0  0  0  0  0  0  0  0  0  0
  182.6830  178.7700  143.8960 C   0  0  0  0  0  3  0  0  0  0  0  0
  189.7280  178.8110  136.9020 O   0  0  0  0  0  1  0  0  0  0  0  0
  188.5310  177.5810  138.6810 C   0  0  0  0  0  2  0  0  0  0  0  0
  184.1600  178.4580  140.5160 C   0  0  0  0  0  0  0  0  0  0  0  0
  184.4680  178.8620  145.5220 C   0  0  0  0  0  3  0  0  0  0  0  0
  185.0080  178.6600  143.1630 C   0  0  0  0  0  0  0  0  0  0  0  0
  186.8900  178.7890  144.8870 C   0  0  0  0  0  2  0  0  0  0  0  0
  187.4680  177.4620  145.1630 N   0  0  0  0  0  0  0  0  0  0  0  0
  189.7940  176.8430  145.3150 C   0  0  1  0  0  3  0  0  0  0  0  0
  187.8230  177.3390  146.5760 C   0  0  0  0  0  2  0  0  0  0  0  0
  188.4470  176.1630  143.3460 C   0  0  0  0  0  1  0  0  0  0  0  0
  188.6820  177.2510  144.3750 C   0  0  1  0  0  3  0  0  0  0  0  0
  191.0720  177.5740  144.9550 C   0  0  0  0  0  1  0  0  0  0  0  0
  189.3300  177.2710  146.6810 C   0  0  0  0  0  2  0  0  0  0  0  0
  1 21  1  0  0  0  0
  1 19  1  0  0  0  0
  3 14  1  0  0  0  0
  4 12  1  0  0  0  0
  5 11  2  0  0  0  0
  6 17  1  0  0  0  0
  7  2  1  0  0  0  0
  7  5  1  0  0  0  0
  8 18  1  0  0  0  0
  9  4  1  0  0  0  0
  9  6  2  0  0  0  0
 10 20  1  0  0  0  0
 10 15  2  0  0  0  0
 11 20  1  0  0  0  0
 12  8  1  0  0  0  0
 12  7  2  0  0  0  0
 13 19  2  0  0  0  0
 14 10  1  0  0  0  0
 15 13  1  0  0  0  0
 16  6  1  0  0  0  0
 17  2  1  0  0  0  0
 18  5  1  0  0  0  0
 18 14  2  0  0  0  0
 20  1  2  0  0  0  0
 21 22  1  0  0  0  0
 22 24  1  0  0  0  0
 23 27  1  6  0  0  0
 23 28  1  0  0  0  0
 24 28  1  0  0  0  0
 26 25  1  6  0  0  0
 26 22  1  0  0  0  0
 26 23  1  0  0  0  0
M  END
>  <MODEL>
9

>  <REMARK>
 VINA RESULT:      -9.0      2.353      5.740
  Name = 
  2 active torsions:
  status: ('A' for Active; 'I' for Inactive)
    1  A    between atoms: C_1  and  C_2
    2  A    between atoms: C_2  and  N_3
                            x       y       z     vdW  Elec       q    Type
                         _______ _______ _______ _____ _____    ______ ____

>  <TORSDO>
F 2

$$$$
