=
 OpenBabel10272415193D

 34 39  0  0  1  0  0  0  0  0999 V2000
  186.2440  178.1530  143.6390 C   0  0  0  0  0  0  0  0  0  0  0  0
  188.9610  177.9600  146.2050 C   0  0  0  0  0  3  0  0  0  0  0  0
  186.5660  177.8280  146.5750 C   0  0  0  0  0  2  0  0  0  0  0  0
  184.5920  178.7370  141.9480 C   0  0  0  0  0  0  0  0  0  0  0  0
  185.8990  178.2970  142.2830 C   0  0  0  0  0  3  0  0  0  0  0  0
  184.0570  178.8410  144.2770 C   0  0  0  0  0  0  0  0  0  0  0  0
  183.3410  178.9950  145.4090 N   0  0  0  0  0  0  0  0  0  0  0  0
  183.6410  179.0090  142.9590 C   0  0  0  0  0  3  0  0  0  0  0  0
  185.3510  178.3480  145.8680 C   0  0  0  0  0  0  0  0  0  0  0  0
  185.2940  178.4420  144.5450 N   0  0  0  0  0  0  0  0  0  0  0  0
  184.1600  178.6770  146.4170 N   0  0  0  0  0  0  0  0  0  0  0  0
  190.2300  178.1070  145.4360 C   0  0  0  0  0  2  0  0  0  0  0  0
  190.5230  176.8870  144.6220 C   0  0  0  0  0  0  0  0  0  0  0  0
  189.7240  176.5100  143.6250 C   0  0  0  0  0  3  0  0  0  0  0  0
  187.7630  177.8050  145.6390 C   0  0  0  0  0  0  0  0  0  0  0  0
  188.4120  177.1020  143.3020 C   0  0  0  0  0  3  0  0  0  0  0  0
  187.5580  177.7020  144.1480 C   0  0  0  0  0  0  0  0  0  0  0  0
  191.8120  176.1550  144.8130 C   0  0  2  0  0  3  0  0  0  0  0  0
  191.8290  174.9440  144.0110 N   0  0  0  0  0  1  0  0  0  0  0  0
  192.0210  175.8050  146.2750 C   0  0  0  0  0  1  0  0  0  0  0  0
  184.2100  178.9010  140.5020 C   0  0  0  0  0  2  0  0  0  0  0  0
  183.9310  176.3270  137.7910 C   0  0  0  0  0  2  0  0  0  0  0  0
  182.3540  177.4450  140.0150 C   0  0  0  0  0  2  0  0  0  0  0  0
  180.9250  174.0070  137.8470 C   0  0  0  0  0  0  0  0  0  0  0  0
  182.1300  174.6200  137.4760 C   0  0  0  0  0  3  0  0  0  0  0  0
  182.6080  175.7310  138.1770 C   0  0  0  0  0  0  0  0  0  0  0  0
  180.6810  175.6190  139.6490 C   0  0  0  0  0  3  0  0  0  0  0  0
  181.8880  176.2190  139.2850 C   0  0  0  0  0  0  0  0  0  0  0  0
  180.2030  174.5150  138.9370 C   0  0  0  0  0  3  0  0  0  0  0  0
  183.7950  177.6560  139.8420 N   0  0  0  0  0  0  0  0  0  0  0  0
  184.1200  177.7080  138.4140 C   0  0  0  0  0  2  0  0  0  0  0  0
  180.4390  172.8720  137.1170 N   0  0  0  0  0  0  0  0  0  0  0  0
  180.1050  172.9830  135.9200 O   0  0  0  0  0  0  0  0  0  0  0  0
  180.3360  171.6450  137.7310 O   0  0  0  0  0  0  0  0  0  0  0  0
  1 17  1  0  0  0  0
  1 10  1  0  0  0  0
  4  5  1  0  0  0  0
  4  8  2  0  0  0  0
  5  1  2  0  0  0  0
  6 10  1  0  0  0  0
  6  7  2  0  0  0  0
  7 11  1  0  0  0  0
  8  6  1  0  0  0  0
  9 11  2  0  0  0  0
  9  3  1  0  0  0  0
 10  9  1  0  0  0  0
 12  2  1  0  0  0  0
 13 18  1  0  0  0  0
 13 12  1  0  0  0  0
 14 13  2  0  0  0  0
 15  2  2  0  0  0  0
 15  3  1  0  0  0  0
 16 14  1  0  0  0  0
 16 17  2  0  0  0  0
 17 15  1  0  0  0  0
 18 20  1  1  0  0  0
 19 18  1  0  0  0  0
 21  4  1  0  0  0  0
 22 26  1  0  0  0  0
 22 31  1  0  0  0  0
 24 29  1  0  0  0  0
 25 24  2  0  0  0  0
 25 26  1  0  0  0  0
 26 28  2  0  0  0  0
 28 27  1  0  0  0  0
 28 23  1  0  0  0  0
 29 27  2  0  0  0  0
 30 23  1  0  0  0  0
 30 21  1  0  0  0  0
 31 30  1  0  0  0  0
 32 34  2  0  0  0  0
 32 24  1  0  0  0  0
 33 32  2  0  0  0  0
M  END
>  <MODEL>
1

>  <REMARK>
 VINA RESULT:     -10.1      0.000      0.000
  Name = 
  4 active torsions:
  status: ('A' for Active; 'I' for Inactive)
    1  A    between atoms: C_3  and  C_25
    2  A    between atoms: C_7  and  N_11
    3  A    between atoms: C_8  and  C_18
    4  A    between atoms: C_18  and  N_30
                            x       y       z     vdW  Elec       q    Type
                         _______ _______ _______ _____ _____    ______ ____

>  <TORSDO>
F 4

$$$$
=
 OpenBabel10272415193D

 34 39  0  0  1  0  0  0  0  0999 V2000
  186.4530  178.1760  144.1640 C   0  0  0  0  0  0  0  0  0  0  0  0
  188.0350  178.1570  147.5550 C   0  0  0  0  0  3  0  0  0  0  0  0
  185.6700  178.0350  147.0270 C   0  0  0  0  0  2  0  0  0  0  0  0
  185.5470  178.6460  141.9530 C   0  0  0  0  0  0  0  0  0  0  0  0
  186.6320  178.2350  142.7710 C   0  0  0  0  0  3  0  0  0  0  0  0
  184.1970  178.8910  143.9120 C   0  0  0  0  0  0  0  0  0  0  0  0
  183.1180  179.1100  144.6910 N   0  0  0  0  0  0  0  0  0  0  0  0
  184.2960  178.9740  142.5260 C   0  0  0  0  0  3  0  0  0  0  0  0
  184.8080  178.5030  145.8940 C   0  0  0  0  0  0  0  0  0  0  0  0
  185.2420  178.5160  144.6390 N   0  0  0  0  0  0  0  0  0  0  0  0
  183.5040  178.8590  145.9460 N   0  0  0  0  0  0  0  0  0  0  0  0
  189.5000  178.2630  147.2990 C   0  0  0  0  0  2  0  0  0  0  0  0
  190.0500  176.9970  146.7230 C   0  0  0  0  0  0  0  0  0  0  0  0
  189.6660  176.5540  145.5260 C   0  0  0  0  0  3  0  0  0  0  0  0
  187.1260  177.9610  146.5990 C   0  0  0  0  0  0  0  0  0  0  0  0
  188.5740  177.1190  144.7090 C   0  0  0  0  0  3  0  0  0  0  0  0
  187.4810  177.7650  145.1460 C   0  0  0  0  0  0  0  0  0  0  0  0
  191.1660  176.2850  147.4170 C   0  0  2  0  0  3  0  0  0  0  0  0
  191.9620  177.2240  148.1890 N   0  0  0  0  0  1  0  0  0  0  0  0
  192.0500  175.5640  146.4160 C   0  0  0  0  0  1  0  0  0  0  0  0
  185.7250  178.7190  140.4610 C   0  0  0  0  0  2  0  0  0  0  0  0
  188.5950  178.0860  138.1340 C   0  0  0  0  0  2  0  0  0  0  0  0
  187.9140  177.8680  140.9930 C   0  0  0  0  0  2  0  0  0  0  0  0
  191.9560  177.1950  139.6610 C   0  0  0  0  0  0  0  0  0  0  0  0
  190.9500  177.4880  138.7300 C   0  0  0  0  0  3  0  0  0  0  0  0
  189.6370  177.7160  139.1510 C   0  0  0  0  0  0  0  0  0  0  0  0
  190.3260  177.3790  141.4530 C   0  0  0  0  0  3  0  0  0  0  0  0
  189.3290  177.6830  140.5250 C   0  0  0  0  0  0  0  0  0  0  0  0
  191.6350  177.1400  141.0250 C   0  0  0  0  0  3  0  0  0  0  0  0
  187.1210  178.6180  140.0140 N   0  0  0  0  0  0  0  0  0  0  0  0
  187.1870  177.9540  138.7100 C   0  0  0  0  0  2  0  0  0  0  0  0
  193.3000  176.9550  139.2190 N   0  0  0  0  0  0  0  0  0  0  0  0
  194.2470  176.9700  140.0310 O   0  0  0  0  0  0  0  0  0  0  0  0
  193.5590  176.7060  137.8900 O   0  0  0  0  0  0  0  0  0  0  0  0
  1 10  1  0  0  0  0
  1 17  1  0  0  0  0
  4  8  2  0  0  0  0
  4  5  1  0  0  0  0
  5  1  2  0  0  0  0
  6 10  1  0  0  0  0
  6  7  2  0  0  0  0
  7 11  1  0  0  0  0
  8  6  1  0  0  0  0
  9 11  2  0  0  0  0
  9  3  1  0  0  0  0
 10  9  1  0  0  0  0
 12  2  1  0  0  0  0
 13 12  1  0  0  0  0
 13 18  1  0  0  0  0
 14 13  2  0  0  0  0
 15  3  1  0  0  0  0
 15  2  2  0  0  0  0
 16 17  2  0  0  0  0
 16 14  1  0  0  0  0
 17 15  1  0  0  0  0
 18 20  1  6  0  0  0
 18 19  1  0  0  0  0
 21  4  1  0  0  0  0
 22 31  1  0  0  0  0
 22 26  1  0  0  0  0
 24 29  1  0  0  0  0
 25 26  1  0  0  0  0
 25 24  2  0  0  0  0
 26 28  2  0  0  0  0
 28 23  1  0  0  0  0
 28 27  1  0  0  0  0
 29 27  2  0  0  0  0
 30 21  1  0  0  0  0
 30 23  1  0  0  0  0
 31 30  1  0  0  0  0
 32 24  1  0  0  0  0
 32 33  2  0  0  0  0
 34 32  2  0  0  0  0
M  END
>  <MODEL>
2

>  <REMARK>
 VINA RESULT:     -10.0      4.833      6.261
  Name = 
  4 active torsions:
  status: ('A' for Active; 'I' for Inactive)
    1  A    between atoms: C_3  and  C_25
    2  A    between atoms: C_7  and  N_11
    3  A    between atoms: C_8  and  C_18
    4  A    between atoms: C_18  and  N_30
                            x       y       z     vdW  Elec       q    Type
                         _______ _______ _______ _____ _____    ______ ____

>  <TORSDO>
F 4

$$$$
=
 OpenBabel10272415193D

 34 39  0  0  1  0  0  0  0  0999 V2000
  183.5900  178.6870  141.4150 C   0  0  0  0  0  0  0  0  0  0  0  0
  183.8870  177.6650  137.8270 C   0  0  0  0  0  3  0  0  0  0  0  0
  182.0610  178.8740  138.8740 C   0  0  0  0  0  2  0  0  0  0  0  0
  183.3270  178.8890  143.8270 C   0  0  0  0  0  0  0  0  0  0  0  0
  184.1650  178.6940  142.6990 C   0  0  0  0  0  3  0  0  0  0  0  0
  181.4430  179.0740  142.3650 C   0  0  0  0  0  0  0  0  0  0  0  0
  180.1780  179.2780  141.9430 N   0  0  0  0  0  0  0  0  0  0  0  0
  181.9360  179.0930  143.6660 C   0  0  0  0  0  3  0  0  0  0  0  0
  181.4930  178.9510  140.2590 C   0  0  0  0  0  0  0  0  0  0  0  0
  182.2610  178.8730  141.3390 N   0  0  0  0  0  0  0  0  0  0  0  0
  180.2120  179.2060  140.6080 N   0  0  0  0  0  0  0  0  0  0  0  0
  185.1900  176.9480  137.7350 C   0  0  0  0  0  2  0  0  0  0  0  0
  186.3450  177.8900  137.8580 C   0  0  0  0  0  0  0  0  0  0  0  0
  186.5680  178.5740  138.9800 C   0  0  0  0  0  3  0  0  0  0  0  0
  183.4830  178.3380  138.9060 C   0  0  0  0  0  0  0  0  0  0  0  0
  185.6640  178.6350  140.1440 C   0  0  0  0  0  3  0  0  0  0  0  0
  184.3270  178.5000  140.1450 C   0  0  0  0  0  0  0  0  0  0  0  0
  187.3680  177.9620  136.7690 C   0  0  2  0  0  3  0  0  0  0  0  0
  188.1990  179.1420  136.9330 N   0  0  0  0  0  1  0  0  0  0  0  0
  186.7020  177.9880  135.4060 C   0  0  0  0  0  1  0  0  0  0  0  0
  183.9250  178.8940  145.2070 C   0  0  0  0  0  2  0  0  0  0  0  0
  187.2230  177.4300  144.1880 C   0  0  0  0  0  2  0  0  0  0  0  0
  185.8050  178.3370  146.6070 C   0  0  0  0  0  2  0  0  0  0  0  0
  189.9650  177.2350  146.8080 C   0  0  0  0  0  0  0  0  0  0  0  0
  189.2700  177.1330  145.5950 C   0  0  0  0  0  3  0  0  0  0  0  0
  187.9220  177.4950  145.5160 C   0  0  0  0  0  0  0  0  0  0  0  0
  187.9520  178.0870  147.8690 C   0  0  0  0  0  3  0  0  0  0  0  0
  187.2660  177.9970  146.6570 C   0  0  0  0  0  0  0  0  0  0  0  0
  189.2970  177.7130  147.9450 C   0  0  0  0  0  3  0  0  0  0  0  0
  185.3720  178.6390  145.2380 N   0  0  0  0  0  0  0  0  0  0  0  0
  185.7080  177.5200  144.3540 C   0  0  0  0  0  2  0  0  0  0  0  0
  191.3460  176.8540  146.8810 N   0  0  0  0  0  0  0  0  0  0  0  0
  191.9420  176.4300  145.8700 O   0  0  0  0  0  0  0  0  0  0  0  0
  192.0310  176.9530  148.0710 O   0  0  0  0  0  0  0  0  0  0  0  0
  1  5  2  0  0  0  0
  2 15  2  0  0  0  0
  3 15  1  0  0  0  0
  3  9  1  0  0  0  0
  4 21  1  0  0  0  0
  5  4  1  0  0  0  0
  6  8  1  0  0  0  0
  7  6  2  0  0  0  0
  8  4  2  0  0  0  0
  9 11  2  0  0  0  0
  9 10  1  0  0  0  0
 10  1  1  0  0  0  0
 10  6  1  0  0  0  0
 11  7  1  0  0  0  0
 12  2  1  0  0  0  0
 12 13  1  0  0  0  0
 13 14  2  0  0  0  0
 14 16  1  0  0  0  0
 15 17  1  0  0  0  0
 16 17  2  0  0  0  0
 17  1  1  0  0  0  0
 18 20  1  6  0  0  0
 18 19  1  0  0  0  0
 18 13  1  0  0  0  0
 21 30  1  0  0  0  0
 22 31  1  0  0  0  0
 22 26  1  0  0  0  0
 23 28  1  0  0  0  0
 24 32  1  0  0  0  0
 24 29  1  0  0  0  0
 25 24  2  0  0  0  0
 26 25  1  0  0  0  0
 26 28  2  0  0  0  0
 27 29  2  0  0  0  0
 28 27  1  0  0  0  0
 30 23  1  0  0  0  0
 31 30  1  0  0  0  0
 32 34  2  0  0  0  0
 33 32  2  0  0  0  0
M  END
>  <MODEL>
3

>  <REMARK>
 VINA RESULT:      -9.8      4.458      8.893
  Name = 
  4 active torsions:
  status: ('A' for Active; 'I' for Inactive)
    1  A    between atoms: C_3  and  C_25
    2  A    between atoms: C_7  and  N_11
    3  A    between atoms: C_8  and  C_18
    4  A    between atoms: C_18  and  N_30
                            x       y       z     vdW  Elec       q    Type
                         _______ _______ _______ _____ _____    ______ ____

>  <TORSDO>
F 4

$$$$
=
 OpenBabel10272415193D

 34 39  0  0  1  0  0  0  0  0999 V2000
  186.9270  178.0840  144.3410 C   0  0  0  0  0  0  0  0  0  0  0  0
  188.3420  178.0850  147.8050 C   0  0  0  0  0  3  0  0  0  0  0  0
  186.0050  177.9660  147.1630 C   0  0  0  0  0  2  0  0  0  0  0  0
  186.1330  178.5400  142.0850 C   0  0  0  0  0  0  0  0  0  0  0  0
  187.1750  178.1310  142.9570 C   0  0  0  0  0  3  0  0  0  0  0  0
  184.6890  178.8030  143.9730 C   0  0  0  0  0  0  0  0  0  0  0  0
  183.5740  179.0320  144.6970 N   0  0  0  0  0  0  0  0  0  0  0  0
  184.8560  178.8760  142.5930 C   0  0  0  0  0  3  0  0  0  0  0  0
  185.2010  178.4280  145.9850 C   0  0  0  0  0  0  0  0  0  0  0  0
  185.6960  178.4300  144.7530 N   0  0  0  0  0  0  0  0  0  0  0  0
  183.8970  178.7880  145.9710 N   0  0  0  0  0  0  0  0  0  0  0  0
  189.8180  178.1850  147.6200 C   0  0  0  0  0  2  0  0  0  0  0  0
  190.3910  176.9130  147.0810 C   0  0  0  0  0  0  0  0  0  0  0  0
  190.0640  176.4620  145.8700 C   0  0  0  0  0  3  0  0  0  0  0  0
  187.4800  177.8840  146.8070 C   0  0  0  0  0  0  0  0  0  0  0  0
  189.0160  177.0240  144.9970 C   0  0  0  0  0  3  0  0  0  0  0  0
  187.9040  177.6770  145.3740 C   0  0  0  0  0  0  0  0  0  0  0  0
  191.4700  176.2030  147.8340 C   0  0  2  0  0  3  0  0  0  0  0  0
  192.2720  177.1530  148.5840 N   0  0  0  0  0  1  0  0  0  0  0  0
  192.3570  175.4140  146.8890 C   0  0  0  0  0  1  0  0  0  0  0  0
  186.3830  178.6010  140.6030 C   0  0  0  0  0  2  0  0  0  0  0  0
  190.0030  177.6240  140.5960 C   0  0  0  0  0  2  0  0  0  0  0  0
  187.7720  178.0380  138.7160 C   0  0  0  0  0  2  0  0  0  0  0  0
  191.5020  176.3810  137.3360 C   0  0  0  0  0  0  0  0  0  0  0  0
  191.3550  176.7560  138.6790 C   0  0  0  0  0  3  0  0  0  0  0  0
  190.1470  177.2870  139.1400 C   0  0  0  0  0  0  0  0  0  0  0  0
  189.2060  177.0560  136.9140 C   0  0  0  0  0  3  0  0  0  0  0  0
  189.0580  177.4170  138.2550 C   0  0  0  0  0  0  0  0  0  0  0  0
  190.4200  176.5360  136.4570 C   0  0  0  0  0  3  0  0  0  0  0  0
  187.6110  177.9190  140.1690 N   0  0  0  0  0  0  0  0  0  0  0  0
  188.7750  178.4980  140.8450 C   0  0  0  0  0  2  0  0  0  0  0  0
  192.7470  175.8430  136.8700 N   0  0  0  0  0  0  0  0  0  0  0  0
  192.7840  174.7390  136.2900 O   0  0  0  0  0  0  0  0  0  0  0  0
  193.9180  176.5400  137.0600 O   0  0  0  0  0  0  0  0  0  0  0  0
  1 10  1  0  0  0  0
  1 17  1  0  0  0  0
  4  8  2  0  0  0  0
  4  5  1  0  0  0  0
  5  1  2  0  0  0  0
  6  7  2  0  0  0  0
  6 10  1  0  0  0  0
  7 11  1  0  0  0  0
  8  6  1  0  0  0  0
  9  3  1  0  0  0  0
 10  9  1  0  0  0  0
 11  9  2  0  0  0  0
 12  2  1  0  0  0  0
 13 12  1  0  0  0  0
 13 18  1  0  0  0  0
 14 13  2  0  0  0  0
 15  3  1  0  0  0  0
 15  2  2  0  0  0  0
 16 17  2  0  0  0  0
 16 14  1  0  0  0  0
 17 15  1  0  0  0  0
 18 20  1  6  0  0  0
 18 19  1  0  0  0  0
 21  4  1  0  0  0  0
 22 31  1  0  0  0  0
 23 30  1  0  0  0  0
 24 25  1  0  0  0  0
 25 26  2  0  0  0  0
 26 22  1  0  0  0  0
 27 28  2  0  0  0  0
 28 23  1  0  0  0  0
 28 26  1  0  0  0  0
 29 27  1  0  0  0  0
 29 24  2  0  0  0  0
 30 21  1  0  0  0  0
 30 31  1  0  0  0  0
 32 34  2  0  0  0  0
 32 24  1  0  0  0  0
 33 32  2  0  0  0  0
M  END
>  <MODEL>
4

>  <REMARK>
 VINA RESULT:      -9.7      4.783      6.062
  Name = 
  4 active torsions:
  status: ('A' for Active; 'I' for Inactive)
    1  A    between atoms: C_3  and  C_25
    2  A    between atoms: C_7  and  N_11
    3  A    between atoms: C_8  and  C_18
    4  A    between atoms: C_18  and  N_30
                            x       y       z     vdW  Elec       q    Type
                         _______ _______ _______ _____ _____    ______ ____

>  <TORSDO>
F 4

$$$$
=
 OpenBabel10272415193D

 34 39  0  0  1  0  0  0  0  0999 V2000
  187.3850  178.0370  140.7460 C   0  0  0  0  0  0  0  0  0  0  0  0
  189.4270  176.7890  137.8690 C   0  0  0  0  0  3  0  0  0  0  0  0
  187.5500  178.3250  137.7930 C   0  0  0  0  0  2  0  0  0  0  0  0
  185.8800  178.4090  142.6240 C   0  0  0  0  0  0  0  0  0  0  0  0
  187.1550  178.0230  142.1330 C   0  0  0  0  0  3  0  0  0  0  0  0
  185.1640  178.8090  140.3770 C   0  0  0  0  0  0  0  0  0  0  0  0
  184.3890  179.1870  139.3400 N   0  0  0  0  0  0  0  0  0  0  0  0
  184.8590  178.8210  141.7350 C   0  0  0  0  0  3  0  0  0  0  0  0
  186.3380  178.5660  138.6410 C   0  0  0  0  0  0  0  0  0  0  0  0
  186.3650  178.4260  139.9610 N   0  0  0  0  0  0  0  0  0  0  0  0
  185.1360  179.0380  138.2410 N   0  0  0  0  0  0  0  0  0  0  0  0
  190.4320  175.8710  138.4780 C   0  0  0  0  0  2  0  0  0  0  0  0
  191.4660  176.6240  139.2530 C   0  0  0  0  0  0  0  0  0  0  0  0
  191.1450  177.3250  140.3410 C   0  0  0  0  0  3  0  0  0  0  0  0
  188.6140  177.5740  138.5770 C   0  0  0  0  0  0  0  0  0  0  0  0
  189.7750  177.5910  140.8200 C   0  0  0  0  0  3  0  0  0  0  0  0
  188.6540  177.6680  140.0820 C   0  0  0  0  0  0  0  0  0  0  0  0
  192.9130  176.4750  138.9080 C   0  0  2  0  0  3  0  0  0  0  0  0
  193.7040  177.4730  139.6070 N   0  0  0  0  0  1  0  0  0  0  0  0
  193.1260  176.6060  137.4110 C   0  0  0  0  0  1  0  0  0  0  0  0
  185.6170  178.3950  144.1050 C   0  0  0  0  0  2  0  0  0  0  0  0
  187.5120  177.3460  147.1660 C   0  0  0  0  0  2  0  0  0  0  0  0
  187.9990  178.1660  144.3770 C   0  0  0  0  0  2  0  0  0  0  0  0
  191.2390  176.7080  146.8160 C   0  0  0  0  0  0  0  0  0  0  0  0
  189.9510  176.8250  147.3570 C   0  0  0  0  0  3  0  0  0  0  0  0
  188.8900  177.2890  146.5730 C   0  0  0  0  0  0  0  0  0  0  0  0
  190.3960  177.5080  144.6820 C   0  0  0  0  0  3  0  0  0  0  0  0
  189.1110  177.6120  145.2200 C   0  0  0  0  0  0  0  0  0  0  0  0
  191.4540  177.0540  145.4740 C   0  0  0  0  0  3  0  0  0  0  0  0
  186.6860  177.7770  144.9020 N   0  0  0  0  0  0  0  0  0  0  0  0
  186.5720  178.1870  146.3040 C   0  0  0  0  0  2  0  0  0  0  0  0
  192.3220  176.2370  147.6300 N   0  0  0  0  0  0  0  0  0  0  0  0
  192.9290  175.1880  147.3330 O   0  0  0  0  0  0  0  0  0  0  0  0
  192.7040  176.9390  148.7500 O   0  0  0  0  0  0  0  0  0  0  0  0
  1  5  2  0  0  0  0
  2 12  1  0  0  0  0
  2 15  2  0  0  0  0
  3 15  1  0  0  0  0
  3  9  1  0  0  0  0
  4 21  1  0  0  0  0
  5  4  1  0  0  0  0
  6  8  1  0  0  0  0
  7  6  2  0  0  0  0
  8  4  2  0  0  0  0
  9 10  1  0  0  0  0
 10  6  1  0  0  0  0
 10  1  1  0  0  0  0
 11  9  2  0  0  0  0
 11  7  1  0  0  0  0
 12 13  1  0  0  0  0
 13 14  2  0  0  0  0
 14 16  1  0  0  0  0
 15 17  1  0  0  0  0
 17  1  1  0  0  0  0
 17 16  2  0  0  0  0
 18 20  1  6  0  0  0
 18 13  1  0  0  0  0
 18 19  1  0  0  0  0
 21 30  1  0  0  0  0
 23 30  1  0  0  0  0
 23 28  1  0  0  0  0
 24 25  1  0  0  0  0
 24 32  1  0  0  0  0
 26 22  1  0  0  0  0
 26 25  2  0  0  0  0
 27 28  2  0  0  0  0
 27 29  1  0  0  0  0
 28 26  1  0  0  0  0
 29 24  2  0  0  0  0
 30 31  1  0  0  0  0
 31 22  1  0  0  0  0
 32 34  2  0  0  0  0
 33 32  2  0  0  0  0
M  END
>  <MODEL>
5

>  <REMARK>
 VINA RESULT:      -9.6      5.181      8.874
  Name = 
  4 active torsions:
  status: ('A' for Active; 'I' for Inactive)
    1  A    between atoms: C_3  and  C_25
    2  A    between atoms: C_7  and  N_11
    3  A    between atoms: C_8  and  C_18
    4  A    between atoms: C_18  and  N_30
                            x       y       z     vdW  Elec       q    Type
                         _______ _______ _______ _____ _____    ______ ____

>  <TORSDO>
F 4

$$$$
=
 OpenBabel10272415193D

 34 39  0  0  1  0  0  0  0  0999 V2000
  187.5950  177.8810  143.1280 C   0  0  0  0  0  0  0  0  0  0  0  0
  188.2640  177.9900  146.8080 C   0  0  0  0  0  3  0  0  0  0  0  0
  186.1130  177.7870  145.7020 C   0  0  0  0  0  2  0  0  0  0  0  0
  187.2710  178.2720  140.7460 C   0  0  0  0  0  0  0  0  0  0  0  0
  188.1210  177.9120  141.8240 C   0  0  0  0  0  3  0  0  0  0  0  0
  185.4620  178.5250  142.2900 C   0  0  0  0  0  0  0  0  0  0  0  0
  184.2160  178.7330  142.7630 N   0  0  0  0  0  0  0  0  0  0  0  0
  185.9080  178.5780  140.9730 C   0  0  0  0  0  3  0  0  0  0  0  0
  185.5580  178.2030  144.3730 C   0  0  0  0  0  0  0  0  0  0  0  0
  186.2960  178.1980  143.2690 N   0  0  0  0  0  0  0  0  0  0  0  0
  184.2760  178.5230  144.0820 N   0  0  0  0  0  0  0  0  0  0  0  0
  189.7430  178.1320  146.9280 C   0  0  0  0  0  2  0  0  0  0  0  0
  190.4480  176.8680  146.5490 C   0  0  0  0  0  0  0  0  0  0  0  0
  190.3900  176.3860  145.3080 C   0  0  0  0  0  3  0  0  0  0  0  0
  187.6320  177.7440  145.6590 C   0  0  0  0  0  0  0  0  0  0  0  0
  189.5300  176.8990  144.2250 C   0  0  0  0  0  3  0  0  0  0  0  0
  188.3480  177.5240  144.3500 C   0  0  0  0  0  0  0  0  0  0  0  0
  191.3670  176.2050  147.5250 C   0  0  2  0  0  3  0  0  0  0  0  0
  192.0560  177.2010  148.3270 N   0  0  0  0  0  1  0  0  0  0  0  0
  192.3800  175.3340  146.8050 C   0  0  0  0  0  1  0  0  0  0  0  0
  187.8200  178.3130  139.3460 C   0  0  0  0  0  2  0  0  0  0  0  0
  191.1770  176.6950  138.9360 C   0  0  0  0  0  2  0  0  0  0  0  0
  188.4690  176.6040  137.7770 C   0  0  0  0  0  2  0  0  0  0  0  0
  191.4370  173.7110  136.6020 C   0  0  0  0  0  0  0  0  0  0  0  0
  191.7660  174.7220  137.5160 C   0  0  0  0  0  3  0  0  0  0  0  0
  190.8090  175.6610  137.9110 C   0  0  0  0  0  0  0  0  0  0  0  0
  189.1680  174.5740  136.4910 C   0  0  0  0  0  3  0  0  0  0  0  0
  189.4950  175.5720  137.4110 C   0  0  0  0  0  0  0  0  0  0  0  0
  190.1330  173.6440  136.0910 C   0  0  0  0  0  3  0  0  0  0  0  0
  188.7970  177.2570  139.0500 N   0  0  0  0  0  0  0  0  0  0  0  0
  190.1470  177.8220  138.9810 C   0  0  0  0  0  2  0  0  0  0  0  0
  192.4270  172.7550  136.1980 N   0  0  0  0  0  0  0  0  0  0  0  0
  193.6030  172.8490  136.6060 O   0  0  0  0  0  0  0  0  0  0  0  0
  192.0910  171.7230  135.3530 O   0  0  0  0  0  0  0  0  0  0  0  0
  1 10  1  0  0  0  0
  1 17  1  0  0  0  0
  2 12  1  0  0  0  0
  4  8  2  0  0  0  0
  4  5  1  0  0  0  0
  5  1  2  0  0  0  0
  6  7  2  0  0  0  0
  6 10  1  0  0  0  0
  7 11  1  0  0  0  0
  8  6  1  0  0  0  0
  9  3  1  0  0  0  0
 10  9  1  0  0  0  0
 11  9  2  0  0  0  0
 13 12  1  0  0  0  0
 13 18  1  0  0  0  0
 14 13  2  0  0  0  0
 15  3  1  0  0  0  0
 15  2  2  0  0  0  0
 16 17  2  0  0  0  0
 16 14  1  0  0  0  0
 17 15  1  0  0  0  0
 18 20  1  6  0  0  0
 18 19  1  0  0  0  0
 21  4  1  0  0  0  0
 22 31  1  0  0  0  0
 23 30  1  0  0  0  0
 24 25  1  0  0  0  0
 25 26  2  0  0  0  0
 26 22  1  0  0  0  0
 27 28  2  0  0  0  0
 28 23  1  0  0  0  0
 28 26  1  0  0  0  0
 29 27  1  0  0  0  0
 29 24  2  0  0  0  0
 30 21  1  0  0  0  0
 31 30  1  0  0  0  0
 32 24  1  0  0  0  0
 32 33  2  0  0  0  0
 34 32  2  0  0  0  0
M  END
>  <MODEL>
6

>  <REMARK>
 VINA RESULT:      -9.5      4.849      6.102
  Name = 
  4 active torsions:
  status: ('A' for Active; 'I' for Inactive)
    1  A    between atoms: C_3  and  C_25
    2  A    between atoms: C_7  and  N_11
    3  A    between atoms: C_8  and  C_18
    4  A    between atoms: C_18  and  N_30
                            x       y       z     vdW  Elec       q    Type
                         _______ _______ _______ _____ _____    ______ ____

>  <TORSDO>
F 4

$$$$
=
 OpenBabel10272415193D

 34 39  0  0  1  0  0  0  0  0999 V2000
  185.1570  178.5000  142.8350 C   0  0  0  0  0  0  0  0  0  0  0  0
  185.2740  178.7870  146.5650 C   0  0  0  0  0  3  0  0  0  0  0  0
  183.3180  178.4440  145.1690 C   0  0  0  0  0  2  0  0  0  0  0  0
  185.1710  178.7790  140.4160 C   0  0  0  0  0  0  0  0  0  0  0  0
  185.8670  178.5010  141.6210 C   0  0  0  0  0  3  0  0  0  0  0  0
  183.1470  179.0140  141.6690 C   0  0  0  0  0  0  0  0  0  0  0  0
  181.8380  179.1850  141.9460 N   0  0  0  0  0  0  0  0  0  0  0  0
  183.7790  179.0330  140.4290 C   0  0  0  0  0  3  0  0  0  0  0  0
  182.9480  178.7810  143.7560 C   0  0  0  0  0  0  0  0  0  0  0  0
  183.8400  178.7640  142.7720 N   0  0  0  0  0  0  0  0  0  0  0  0
  181.7120  179.0310  143.2680 N   0  0  0  0  0  0  0  0  0  0  0  0
  186.7130  179.0000  146.8910 C   0  0  0  0  0  2  0  0  0  0  0  0
  187.5140  177.7550  146.6780 C   0  0  0  0  0  0  0  0  0  0  0  0
  187.6570  177.2200  145.4650 C   0  0  0  0  0  3  0  0  0  0  0  0
  184.8270  178.4680  145.3490 C   0  0  0  0  0  0  0  0  0  0  0  0
  186.9470  177.6500  144.2460 C   0  0  0  0  0  3  0  0  0  0  0  0
  185.7360  178.2270  144.1690 C   0  0  0  0  0  0  0  0  0  0  0  0
  188.3040  177.1730  147.8070 C   0  0  2  0  0  3  0  0  0  0  0  0
  188.2330  178.0380  148.9710 N   0  0  0  0  0  1  0  0  0  0  0  0
  189.7530  176.9720  147.4030 C   0  0  0  0  0  1  0  0  0  0  0  0
  185.9180  178.7880  139.1110 C   0  0  0  0  0  2  0  0  0  0  0  0
  189.2710  177.6080  140.3020 C   0  0  0  0  0  2  0  0  0  0  0  0
  187.7830  178.0230  137.7920 C   0  0  0  0  0  2  0  0  0  0  0  0
  191.6220  176.0670  137.7490 C   0  0  0  0  0  0  0  0  0  0  0  0
  191.0880  176.5390  138.9560 C   0  0  0  0  0  3  0  0  0  0  0  0
  189.8400  177.1670  138.9840 C   0  0  0  0  0  0  0  0  0  0  0  0
  189.6330  176.8430  136.5880 C   0  0  0  0  0  3  0  0  0  0  0  0
  189.0980  177.3000  137.7940 C   0  0  0  0  0  0  0  0  0  0  0  0
  190.8870  176.2250  136.5650 C   0  0  0  0  0  3  0  0  0  0  0  0
  187.1640  178.0100  139.1220 N   0  0  0  0  0  0  0  0  0  0  0  0
  188.0970  178.5650  140.1070 C   0  0  0  0  0  2  0  0  0  0  0  0
  192.9060  175.4290  137.7290 N   0  0  0  0  0  0  0  0  0  0  0  0
  192.9960  174.1840  137.7210 O   0  0  0  0  0  0  0  0  0  0  0  0
  194.0560  176.1840  137.7190 O   0  0  0  0  0  0  0  0  0  0  0  0
  1 17  1  0  0  0  0
  2 12  1  0  0  0  0
  3 15  1  0  0  0  0
  4  8  2  0  0  0  0
  4  5  1  0  0  0  0
  5  1  2  0  0  0  0
  6  7  2  0  0  0  0
  6 10  1  0  0  0  0
  7 11  1  0  0  0  0
  8  6  1  0  0  0  0
  9  3  1  0  0  0  0
 10  1  1  0  0  0  0
 10  9  1  0  0  0  0
 11  9  2  0  0  0  0
 13 12  1  0  0  0  0
 13 18  1  0  0  0  0
 14 13  2  0  0  0  0
 15  2  2  0  0  0  0
 16 14  1  0  0  0  0
 17 16  2  0  0  0  0
 17 15  1  0  0  0  0
 18 20  1  6  0  0  0
 18 19  1  0  0  0  0
 21 30  1  0  0  0  0
 21  4  1  0  0  0  0
 23 28  1  0  0  0  0
 23 30  1  0  0  0  0
 24 25  1  0  0  0  0
 25 26  2  0  0  0  0
 26 22  1  0  0  0  0
 27 28  2  0  0  0  0
 28 26  1  0  0  0  0
 29 27  1  0  0  0  0
 29 24  2  0  0  0  0
 30 31  1  0  0  0  0
 31 22  1  0  0  0  0
 32 24  1  0  0  0  0
 33 32  2  0  0  0  0
 34 32  2  0  0  0  0
M  END
>  <MODEL>
7

>  <REMARK>
 VINA RESULT:      -9.5      4.613      6.421
  Name = 
  4 active torsions:
  status: ('A' for Active; 'I' for Inactive)
    1  A    between atoms: C_3  and  C_25
    2  A    between atoms: C_7  and  N_11
    3  A    between atoms: C_8  and  C_18
    4  A    between atoms: C_18  and  N_30
                            x       y       z     vdW  Elec       q    Type
                         _______ _______ _______ _____ _____    ______ ____

>  <TORSDO>
F 4

$$$$
=
 OpenBabel10272415193D

 34 39  0  0  1  0  0  0  0  0999 V2000
  189.0110  177.2970  144.5610 C   0  0  0  0  0  0  0  0  0  0  0  0
  192.0710  177.1150  142.4150 C   0  0  0  0  0  3  0  0  0  0  0  0
  191.8270  176.3620  144.7100 C   0  0  0  0  0  2  0  0  0  0  0  0
  187.1110  177.8810  145.9690 C   0  0  0  0  0  0  0  0  0  0  0  0
  187.6620  177.6800  144.6760 C   0  0  0  0  0  3  0  0  0  0  0  0
  189.2230  177.3020  146.9320 C   0  0  0  0  0  0  0  0  0  0  0  0
  190.1600  177.0160  147.8590 N   0  0  0  0  0  0  0  0  0  0  0  0
  187.8980  177.6810  147.1270 C   0  0  0  0  0  3  0  0  0  0  0  0
  190.9580  176.7480  145.8680 C   0  0  0  0  0  0  0  0  0  0  0  0
  189.7000  177.1400  145.7050 N   0  0  0  0  0  0  0  0  0  0  0  0
  191.2570  176.6590  147.1840 N   0  0  0  0  0  0  0  0  0  0  0  0
  191.6680  177.7230  141.1150 C   0  0  0  0  0  2  0  0  0  0  0  0
  190.7370  176.8320  140.3570 C   0  0  0  0  0  0  0  0  0  0  0  0
  189.5260  176.5330  140.8250 C   0  0  0  0  0  3  0  0  0  0  0  0
  191.2160  176.8330  143.4000 C   0  0  0  0  0  0  0  0  0  0  0  0
  189.0130  176.8740  142.1660 C   0  0  0  0  0  3  0  0  0  0  0  0
  189.7270  177.0460  143.2910 C   0  0  0  0  0  0  0  0  0  0  0  0
  191.0930  176.3840  138.9750 C   0  0  2  0  0  3  0  0  0  0  0  0
  192.4960  176.6460  138.7050 N   0  0  0  0  0  1  0  0  0  0  0  0
  190.2300  177.0870  137.9430 C   0  0  0  0  0  1  0  0  0  0  0  0
  185.6720  178.2950  146.1080 C   0  0  0  0  0  2  0  0  0  0  0  0
  184.9190  178.5420  142.4430 C   0  0  0  0  0  2  0  0  0  0  0  0
  183.5670  178.7990  145.0500 C   0  0  0  0  0  2  0  0  0  0  0  0
  181.2850  178.8890  141.3960 C   0  0  0  0  0  0  0  0  0  0  0  0
  182.6810  178.7690  141.3490 C   0  0  0  0  0  3  0  0  0  0  0  0
  183.4310  178.7300  142.5280 C   0  0  0  0  0  0  0  0  0  0  0  0
  181.3870  178.9130  143.8240 C   0  0  0  0  0  3  0  0  0  0  0  0
  182.7760  178.7810  143.7740 C   0  0  0  0  0  0  0  0  0  0  0  0
  180.6440  178.9620  142.6410 C   0  0  0  0  0  3  0  0  0  0  0  0
  184.8920  178.1960  144.8670 N   0  0  0  0  0  0  0  0  0  0  0  0
  185.5960  178.8710  143.7730 C   0  0  0  0  0  2  0  0  0  0  0  0
  180.5250  178.9340  140.1810 N   0  0  0  0  0  0  0  0  0  0  0  0
  180.1650  177.8800  139.6180 O   0  0  0  0  0  0  0  0  0  0  0  0
  180.1820  180.1440  139.6220 O   0  0  0  0  0  0  0  0  0  0  0  0
  1  5  2  0  0  0  0
  1 10  1  0  0  0  0
  2 15  2  0  0  0  0
  3  9  1  0  0  0  0
  4 21  1  0  0  0  0
  4  8  2  0  0  0  0
  5  4  1  0  0  0  0
  6  8  1  0  0  0  0
  6  7  2  0  0  0  0
  9 11  2  0  0  0  0
 10  9  1  0  0  0  0
 10  6  1  0  0  0  0
 11  7  1  0  0  0  0
 12  2  1  0  0  0  0
 13 14  2  0  0  0  0
 13 12  1  0  0  0  0
 14 16  1  0  0  0  0
 15  3  1  0  0  0  0
 16 17  2  0  0  0  0
 17 15  1  0  0  0  0
 17  1  1  0  0  0  0
 18 20  1  6  0  0  0
 18 13  1  0  0  0  0
 19 18  1  0  0  0  0
 22 26  1  0  0  0  0
 22 31  1  0  0  0  0
 24 29  1  0  0  0  0
 25 24  2  0  0  0  0
 25 26  1  0  0  0  0
 26 28  2  0  0  0  0
 28 27  1  0  0  0  0
 28 23  1  0  0  0  0
 29 27  2  0  0  0  0
 30 23  1  0  0  0  0
 30 21  1  0  0  0  0
 31 30  1  0  0  0  0
 32 24  1  0  0  0  0
 33 32  2  0  0  0  0
 34 32  2  0  0  0  0
M  END
>  <MODEL>
8

>  <REMARK>
 VINA RESULT:      -9.5      3.216      5.558
  Name = 
  4 active torsions:
  status: ('A' for Active; 'I' for Inactive)
    1  A    between atoms: C_3  and  C_25
    2  A    between atoms: C_7  and  N_11
    3  A    between atoms: C_8  and  C_18
    4  A    between atoms: C_18  and  N_30
                            x       y       z     vdW  Elec       q    Type
                         _______ _______ _______ _____ _____    ______ ____

>  <TORSDO>
F 4

$$$$
=
 OpenBabel10272415193D

 34 39  0  0  1  0  0  0  0  0999 V2000
  186.4440  178.2600  143.6480 C   0  0  0  0  0  0  0  0  0  0  0  0
  188.9780  177.9850  146.3880 C   0  0  0  0  0  3  0  0  0  0  0  0
  186.5620  177.8930  146.5950 C   0  0  0  0  0  2  0  0  0  0  0  0
  184.9210  178.8960  141.8580 C   0  0  0  0  0  0  0  0  0  0  0  0
  186.1940  178.4280  142.2740 C   0  0  0  0  0  3  0  0  0  0  0  0
  184.2320  178.9810  144.1470 C   0  0  0  0  0  0  0  0  0  0  0  0
  183.4440  179.1350  145.2300 N   0  0  0  0  0  0  0  0  0  0  0  0
  183.9090  179.1730  142.8060 C   0  0  0  0  0  3  0  0  0  0  0  0
  185.4070  178.4440  145.8150 C   0  0  0  0  0  0  0  0  0  0  0  0
  185.4400  178.5560  144.4920 N   0  0  0  0  0  0  0  0  0  0  0  0
  184.1870  178.7880  146.2860 N   0  0  0  0  0  0  0  0  0  0  0  0
  190.2980  178.1180  145.7080 C   0  0  0  0  0  2  0  0  0  0  0  0
  190.6240  176.9030  144.8990 C   0  0  0  0  0  0  0  0  0  0  0  0
  189.8870  176.5530  143.8450 C   0  0  0  0  0  3  0  0  0  0  0  0
  187.8190  177.8590  145.7410 C   0  0  0  0  0  0  0  0  0  0  0  0
  188.6110  177.1740  143.4430 C   0  0  0  0  0  3  0  0  0  0  0  0
  187.7130  177.7790  144.2380 C   0  0  0  0  0  0  0  0  0  0  0  0
  191.8850  176.1440  145.1660 C   0  0  2  0  0  3  0  0  0  0  0  0
  191.9430  174.9540  144.3360 N   0  0  0  0  0  1  0  0  0  0  0  0
  191.9780  175.7550  146.6300 C   0  0  0  0  0  1  0  0  0  0  0  0
  184.6400  179.0850  140.3920 C   0  0  0  0  0  2  0  0  0  0  0  0
  186.4990  177.9170  137.3530 C   0  0  0  0  0  2  0  0  0  0  0  0
  186.8510  178.1370  140.2700 C   0  0  0  0  0  2  0  0  0  0  0  0
  190.1520  176.9660  137.7610 C   0  0  0  0  0  0  0  0  0  0  0  0
  188.8940  177.2140  137.1950 C   0  0  0  0  0  3  0  0  0  0  0  0
  187.8180  177.6030  137.9980 C   0  0  0  0  0  0  0  0  0  0  0  0
  189.2560  177.5180  139.9510 C   0  0  0  0  0  3  0  0  0  0  0  0
  188.0070  177.7770  139.3830 C   0  0  0  0  0  0  0  0  0  0  0  0
  190.3250  177.1200  139.1440 C   0  0  0  0  0  3  0  0  0  0  0  0
  185.7890  178.8130  139.5170 N   0  0  0  0  0  0  0  0  0  0  0  0
  185.3760  177.9780  138.3860 C   0  0  0  0  0  2  0  0  0  0  0  0
  191.2490  176.5620  136.9300 N   0  0  0  0  0  0  0  0  0  0  0  0
  191.0580  176.2410  135.7390 O   0  0  0  0  0  0  0  0  0  0  0  0
  192.5270  176.5230  137.4380 O   0  0  0  0  0  0  0  0  0  0  0  0
  1 17  1  0  0  0  0
  1 10  1  0  0  0  0
  4  5  1  0  0  0  0
  4  8  2  0  0  0  0
  5  1  2  0  0  0  0
  6 10  1  0  0  0  0
  6  7  2  0  0  0  0
  7 11  1  0  0  0  0
  8  6  1  0  0  0  0
  9 11  2  0  0  0  0
  9  3  1  0  0  0  0
 10  9  1  0  0  0  0
 12  2  1  0  0  0  0
 13 18  1  0  0  0  0
 13 12  1  0  0  0  0
 14 13  2  0  0  0  0
 15  2  2  0  0  0  0
 15  3  1  0  0  0  0
 16 14  1  0  0  0  0
 16 17  2  0  0  0  0
 17 15  1  0  0  0  0
 18 20  1  1  0  0  0
 19 18  1  0  0  0  0
 21  4  1  0  0  0  0
 22 26  1  0  0  0  0
 22 31  1  0  0  0  0
 24 29  1  0  0  0  0
 25 24  2  0  0  0  0
 25 26  1  0  0  0  0
 26 28  2  0  0  0  0
 28 27  1  0  0  0  0
 28 23  1  0  0  0  0
 29 27  2  0  0  0  0
 30 23  1  0  0  0  0
 30 21  1  0  0  0  0
 31 30  1  0  0  0  0
 32 34  2  0  0  0  0
 32 24  1  0  0  0  0
 33 32  2  0  0  0  0
M  END
>  <MODEL>
9

>  <REMARK>
 VINA RESULT:      -9.5      3.899      5.076
  Name = 
  4 active torsions:
  status: ('A' for Active; 'I' for Inactive)
    1  A    between atoms: C_3  and  C_25
    2  A    between atoms: C_7  and  N_11
    3  A    between atoms: C_8  and  C_18
    4  A    between atoms: C_18  and  N_30
                            x       y       z     vdW  Elec       q    Type
                         _______ _______ _______ _____ _____    ______ ____

>  <TORSDO>
F 4

$$$$
