=
 OpenBabel10272401513D

 28 31  0  0  1  0  0  0  0  0999 V2000
  191.5870  177.3050  138.9010 C   0  0  0  0  0  2  0  0  0  0  0  0
  188.5090  177.6680  141.6880 C   0  0  0  0  0  3  0  0  0  0  0  0
  191.3060  176.7700  142.5760 C   0  0  0  0  0  3  0  0  0  0  0  0
  189.2450  177.1370  139.4290 C   0  0  2  0  0  3  0  0  0  0  0  0
  189.2120  176.9230  143.9310 C   0  0  0  0  0  0  0  0  0  0  0  0
  189.5270  177.3200  140.8960 C   0  0  0  0  0  0  0  0  0  0  0  0
  192.0630  177.3400  140.3580 C   0  0  0  0  0  2  0  0  0  0  0  0
  190.4250  176.4230  143.7100 C   0  0  0  0  0  3  0  0  0  0  0  0
  188.9460  176.7480  136.7230 C   0  0  2  0  0  3  0  0  0  0  0  0
  190.3920  176.4710  138.7830 N   0  0  1  0  0  0  0  0  0  0  0  0
  190.9440  177.2040  141.3600 C   0  0  0  0  0  0  0  0  0  0  0  0
  189.0030  178.5490  136.9700 S   0  0  0  0  0  0  0  0  0  0  0  0
  188.5110  176.4920  145.0080 F   0  0  0  0  0  0  0  0  0  0  0  0
  188.6610  178.0460  143.1230 C   0  0  0  0  0  2  0  0  0  0  0  0
  188.8990  178.4970  138.7950 C   0  0  0  0  0  2  0  0  0  0  0  0
  190.1740  176.0930  137.3760 C   0  0  1  0  0  3  0  0  0  0  0  0
  187.8560  177.3570  134.4050 O   0  0  0  0  0  1  0  0  0  0  0  0
  190.3620  176.9660  134.3460 O   0  0  0  0  0  1  0  0  0  0  0  0
  188.8840  176.3750  134.9520 S   0  0  0  0  0  3  0  0  0  0  0  0
  190.1600  174.5640  137.2200 C   0  0  2  0  0  3  0  0  0  0  0  0
  190.8240  173.1590  135.0640 C   0  0  0  0  0  1  0  0  0  0  0  0
  192.4810  173.5570  136.9370 C   0  0  0  0  0  2  0  0  0  0  0  0
  191.2240  174.0360  136.2460 C   0  0  2  0  0  0  0  0  0  0  0  0
  192.5040  174.8570  136.1470 C   0  0  2  0  0  3  0  0  0  0  0  0
  193.1460  174.6480  134.9240 O   0  0  0  0  0  1  0  0  0  0  0  0
  188.7610  174.0830  136.8570 C   0  0  0  0  0  2  0  0  0  0  0  0
  187.3880  172.4350  136.8350 O   0  0  0  0  0  1  0  0  0  0  0  0
  188.5710  172.7750  137.3020 O   0  0  0  0  0  0  0  0  0  0  0  0
  1  7  1  0  0  0  0
  2 14  1  0  0  0  0
  3  8  1  0  0  0  0
  4 15  1  6  0  0  0
  4  6  1  0  0  0  0
  5 13  1  0  0  0  0
  6 11  1  0  0  0  0
  6  2  2  0  0  0  0
  7 11  1  0  0  0  0
  8  5  2  0  0  0  0
  9 19  1  6  0  0  0
  9 12  1  0  0  0  0
  9 16  1  0  0  0  0
 10  1  1  6  0  0  0
 10  4  1  0  0  0  0
 11  3  2  0  0  0  0
 12 15  1  0  0  0  0
 14  5  1  0  0  0  0
 16 20  1  1  0  0  0
 16 10  1  0  0  0  0
 17 19  1  0  0  0  0
 18 19  1  0  0  0  0
 20 26  1  6  0  0  0
 23 21  1  6  0  0  0
 23 22  1  0  0  0  0
 23 20  1  0  0  0  0
 24 25  1  6  0  0  0
 24 23  1  0  0  0  0
 24 22  1  0  0  0  0
 26 28  1  0  0  0  0
 27 28  1  0  0  0  0
M  END
>  <MODEL>
1

>  <REMARK>
 VINA RESULT:      -5.7      0.000      0.000
  Name = 
  5 active torsions:
  status: ('A' for Active; 'I' for Inactive)
    1  A    between atoms: C_1  and  C_7
    2  A    between atoms: C_1  and  C_26
    3  A    between atoms: C_1  and  C_27
    4  A    between atoms: O_11  and  C_26
    5  A    between atoms: C_16  and  S_21
                            x       y       z     vdW  Elec       q    Type
                         _______ _______ _______ _____ _____    ______ ____

>  <TORSDO>
F 5

$$$$
=
 OpenBabel10272401513D

 28 31  0  0  1  0  0  0  0  0999 V2000
  184.8770  178.6350  139.4860 C   0  0  0  0  0  2  0  0  0  0  0  0
  182.9590  179.0680  143.1610 C   0  0  0  0  0  3  0  0  0  0  0  0
  185.9400  178.3490  143.0440 C   0  0  0  0  0  3  0  0  0  0  0  0
  182.8850  178.4100  140.8180 C   0  0  2  0  0  3  0  0  0  0  0  0
  184.4500  178.5120  145.0430 C   0  0  0  0  0  0  0  0  0  0  0  0
  183.6530  178.7070  142.0770 C   0  0  0  0  0  0  0  0  0  0  0  0
  185.8310  178.7910  140.6750 C   0  0  0  0  0  2  0  0  0  0  0  0
  185.5380  178.0480  144.4320 C   0  0  0  0  0  3  0  0  0  0  0  0
  181.6790  177.8200  138.4180 C   0  0  2  0  0  3  0  0  0  0  0  0
  183.7710  177.7470  139.8430 N   0  0  1  0  0  0  0  0  0  0  0  0
  185.1470  178.6810  142.0140 C   0  0  0  0  0  0  0  0  0  0  0  0
  181.7070  179.6340  138.5350 S   0  0  0  0  0  0  0  0  0  0  0  0
  184.2020  178.1300  146.3190 F   0  0  0  0  0  0  0  0  0  0  0  0
  183.5810  179.5520  144.4270 C   0  0  0  0  0  2  0  0  0  0  0  0
  182.2540  179.7070  140.2790 C   0  0  0  0  0  2  0  0  0  0  0  0
  183.0970  177.2620  138.6260 C   0  0  1  0  0  3  0  0  0  0  0  0
  179.9820  178.3870  136.4870 O   0  0  0  0  0  1  0  0  0  0  0  0
  182.2850  177.6580  135.7150 O   0  0  0  0  0  1  0  0  0  0  0  0
  181.0220  177.3210  136.8060 S   0  0  0  0  0  3  0  0  0  0  0  0
  183.1250  175.7270  138.5640 C   0  0  2  0  0  3  0  0  0  0  0  0
  185.0220  176.1110  136.7420 C   0  0  0  0  0  1  0  0  0  0  0  0
  183.5000  174.0900  136.6510 C   0  0  0  0  0  2  0  0  0  0  0  0
  184.1030  175.1720  137.5170 C   0  0  2  0  0  0  0  0  0  0  0  0
  184.5320  173.7220  137.7070 C   0  0  2  0  0  3  0  0  0  0  0  0
  185.7600  173.4730  137.0910 O   0  0  0  0  0  1  0  0  0  0  0  0
  181.7150  175.1800  138.3790 C   0  0  0  0  0  2  0  0  0  0  0  0
  180.1360  174.1290  139.3780 O   0  0  0  0  0  1  0  0  0  0  0  0
  181.1120  174.9770  139.6200 O   0  0  0  0  0  0  0  0  0  0  0  0
  1  7  1  0  0  0  0
  2 14  1  0  0  0  0
  3  8  1  0  0  0  0
  4 15  1  6  0  0  0
  4  6  1  0  0  0  0
  5 13  1  0  0  0  0
  6  2  2  0  0  0  0
  7 11  1  0  0  0  0
  8  5  2  0  0  0  0
  9 19  1  6  0  0  0
  9 12  1  0  0  0  0
  9 16  1  0  0  0  0
 10  1  1  6  0  0  0
 10  4  1  0  0  0  0
 11  6  1  0  0  0  0
 11  3  2  0  0  0  0
 12 15  1  0  0  0  0
 14  5  1  0  0  0  0
 16 20  1  1  0  0  0
 16 10  1  0  0  0  0
 17 19  1  0  0  0  0
 18 19  1  0  0  0  0
 20 26  1  6  0  0  0
 22 23  1  0  0  0  0
 22 24  1  0  0  0  0
 23 21  1  6  0  0  0
 23 24  1  0  0  0  0
 23 20  1  0  0  0  0
 24 25  1  6  0  0  0
 26 28  1  0  0  0  0
 27 28  1  0  0  0  0
M  END
>  <MODEL>
2

>  <REMARK>
 VINA RESULT:      -5.5      5.735      7.027
  Name = 
  5 active torsions:
  status: ('A' for Active; 'I' for Inactive)
    1  A    between atoms: C_1  and  C_7
    2  A    between atoms: C_1  and  C_26
    3  A    between atoms: C_1  and  C_27
    4  A    between atoms: O_11  and  C_26
    5  A    between atoms: C_16  and  S_21
                            x       y       z     vdW  Elec       q    Type
                         _______ _______ _______ _____ _____    ______ ____

>  <TORSDO>
F 5

$$$$
=
 OpenBabel10272401513D

 28 31  0  0  1  0  0  0  0  0999 V2000
  187.3950  176.6440  135.2500 C   0  0  0  0  0  2  0  0  0  0  0  0
  184.7520  174.3320  137.4960 C   0  0  0  0  0  3  0  0  0  0  0  0
  184.2500  177.3360  137.1220 C   0  0  0  0  0  3  0  0  0  0  0  0
  187.0210  174.7930  136.7420 C   0  0  2  0  0  3  0  0  0  0  0  0
  182.9860  175.7050  138.5310 C   0  0  0  0  0  0  0  0  0  0  0  0
  185.6000  175.2270  136.9790 C   0  0  0  0  0  0  0  0  0  0  0  0
  186.0390  177.3120  135.5030 C   0  0  0  0  0  2  0  0  0  0  0  0
  183.3670  176.9470  138.2390 C   0  0  0  0  0  3  0  0  0  0  0  0
  189.6600  174.2090  136.2350 C   0  0  2  0  0  3  0  0  0  0  0  0
  187.8590  175.9740  136.4640 N   0  0  1  0  0  0  0  0  0  0  0  0
  185.1960  176.5940  136.5270 C   0  0  0  0  0  0  0  0  0  0  0  0
  188.7100  173.4680  134.8730 S   0  0  0  0  0  0  0  0  0  0  0  0
  182.1860  175.5010  139.6050 F   0  0  0  0  0  0  0  0  0  0  0  0
  183.2840  174.5560  137.6330 C   0  0  0  0  0  2  0  0  0  0  0  0
  187.0610  173.7430  135.6150 C   0  0  0  0  0  2  0  0  0  0  0  0
  189.3040  175.6980  136.3700 C   0  0  1  0  0  3  0  0  0  0  0  0
  191.6020  172.4910  135.7810 O   0  0  0  0  0  1  0  0  0  0  0  0
  191.6590  174.5820  134.3460 O   0  0  0  0  0  1  0  0  0  0  0  0
  191.4320  173.9970  135.9290 S   0  0  0  0  0  3  0  0  0  0  0  0
  190.0610  176.3670  137.5280 C   0  0  2  0  0  3  0  0  0  0  0  0
  189.2080  178.8660  137.2260 C   0  0  0  0  0  1  0  0  0  0  0  0
  189.7300  177.9210  139.5170 C   0  0  0  0  0  2  0  0  0  0  0  0
  189.3570  177.6140  138.0850 C   0  0  2  0  0  0  0  0  0  0  0  0
  188.3480  177.3680  139.2000 C   0  0  2  0  0  3  0  0  0  0  0  0
  187.4070  178.3980  139.2680 O   0  0  0  0  0  1  0  0  0  0  0  0
  191.5010  176.6550  137.1200 C   0  0  0  0  0  2  0  0  0  0  0  0
  193.5350  176.8430  137.7700 O   0  0  0  0  0  1  0  0  0  0  0  0
  192.3580  176.4410  138.1990 O   0  0  0  0  0  0  0  0  0  0  0  0
  1  7  1  0  0  0  0
  2 14  1  0  0  0  0
  3  8  1  0  0  0  0
  4 15  1  6  0  0  0
  4  6  1  0  0  0  0
  5 13  1  0  0  0  0
  6  2  2  0  0  0  0
  7 11  1  0  0  0  0
  8  5  2  0  0  0  0
  9 19  1  6  0  0  0
  9 16  1  0  0  0  0
 10  1  1  6  0  0  0
 10  4  1  0  0  0  0
 11  6  1  0  0  0  0
 11  3  2  0  0  0  0
 12 15  1  0  0  0  0
 12  9  1  0  0  0  0
 14  5  1  0  0  0  0
 16 10  1  0  0  0  0
 16 20  1  1  0  0  0
 17 19  1  0  0  0  0
 18 19  1  0  0  0  0
 20 26  1  6  0  0  0
 20 23  1  0  0  0  0
 23 21  1  6  0  0  0
 23 24  1  0  0  0  0
 23 22  1  0  0  0  0
 24 25  1  6  0  0  0
 24 22  1  0  0  0  0
 26 28  1  0  0  0  0
 27 28  1  0  0  0  0
M  END
>  <MODEL>
3

>  <REMARK>
 VINA RESULT:      -5.2      3.624      6.146
  Name = 
  5 active torsions:
  status: ('A' for Active; 'I' for Inactive)
    1  A    between atoms: C_1  and  C_7
    2  A    between atoms: C_1  and  C_26
    3  A    between atoms: C_1  and  C_27
    4  A    between atoms: O_11  and  C_26
    5  A    between atoms: C_16  and  S_21
                            x       y       z     vdW  Elec       q    Type
                         _______ _______ _______ _____ _____    ______ ____

>  <TORSDO>
F 5

$$$$
=
 OpenBabel10272401513D

 28 31  0  0  1  0  0  0  0  0999 V2000
  189.2660  179.0360  139.0630 C   0  0  0  0  0  2  0  0  0  0  0  0
  189.0230  175.0530  137.8550 C   0  0  0  0  0  3  0  0  0  0  0  0
  187.4330  177.2220  136.3750 C   0  0  0  0  0  3  0  0  0  0  0  0
  189.2780  176.6970  139.6330 C   0  0  2  0  0  3  0  0  0  0  0  0
  187.3870  174.7460  136.0370 C   0  0  0  0  0  0  0  0  0  0  0  0
  188.8470  176.3210  138.2410 C   0  0  0  0  0  0  0  0  0  0  0  0
  188.6740  178.8410  137.6630 C   0  0  0  0  0  2  0  0  0  0  0  0
  186.8260  175.9490  135.9370 C   0  0  0  0  0  3  0  0  0  0  0  0
  189.9910  177.5940  142.1330 C   0  0  2  0  0  3  0  0  0  0  0  0
  188.7350  178.0250  139.9770 N   0  0  1  0  0  0  0  0  0  0  0  0
  188.3450  177.4050  137.3420 C   0  0  0  0  0  0  0  0  0  0  0  0
  191.5330  177.4990  141.1730 S   0  0  0  0  0  0  0  0  0  0  0  0
  186.6950  173.6630  135.6080 F   0  0  0  0  0  0  0  0  0  0  0  0
  188.8030  174.5680  136.4620 C   0  0  0  0  0  2  0  0  0  0  0  0
  190.8130  176.6250  139.7360 C   0  0  0  0  0  2  0  0  0  0  0  0
  188.9560  178.4390  141.3740 C   0  0  1  0  0  3  0  0  0  0  0  0
  190.9050  177.1410  144.5590 O   0  0  0  0  0  1  0  0  0  0  0  0
  191.6750  179.3180  143.5100 O   0  0  0  0  0  1  0  0  0  0  0  0
  190.3300  178.3040  143.7640 S   0  0  0  0  0  3  0  0  0  0  0  0
  187.6210  178.5290  142.1310 C   0  0  2  0  0  3  0  0  0  0  0  0
  188.0450  176.0730  143.0530 C   0  0  0  0  0  1  0  0  0  0  0  0
  186.1000  177.4710  143.8750 C   0  0  0  0  0  2  0  0  0  0  0  0
  187.4700  177.4740  143.2370 C   0  0  2  0  0  0  0  0  0  0  0  0
  187.2920  178.0110  144.6520 C   0  0  2  0  0  3  0  0  0  0  0  0
  187.6920  177.0720  145.6040 O   0  0  0  0  0  1  0  0  0  0  0  0
  186.4560  178.5040  141.1500 C   0  0  0  0  0  2  0  0  0  0  0  0
  184.9360  179.6750  140.1920 O   0  0  0  0  0  1  0  0  0  0  0  0
  185.7170  179.6830  141.2510 O   0  0  0  0  0  0  0  0  0  0  0  0
  2  6  2  0  0  0  0
  3 11  2  0  0  0  0
  4 15  1  6  0  0  0
  4 10  1  0  0  0  0
  5 14  1  0  0  0  0
  6  4  1  0  0  0  0
  7  1  1  0  0  0  0
  8  5  2  0  0  0  0
  8  3  1  0  0  0  0
  9 19  1  1  0  0  0
 10  1  1  6  0  0  0
 10 16  1  0  0  0  0
 11  7  1  0  0  0  0
 11  6  1  0  0  0  0
 12  9  1  0  0  0  0
 13  5  1  0  0  0  0
 14  2  1  0  0  0  0
 15 12  1  0  0  0  0
 16 20  1  1  0  0  0
 16  9  1  0  0  0  0
 18 19  1  0  0  0  0
 19 17  1  0  0  0  0
 20 26  1  6  0  0  0
 20 23  1  0  0  0  0
 22 24  1  0  0  0  0
 23 21  1  6  0  0  0
 23 22  1  0  0  0  0
 23 24  1  0  0  0  0
 24 25  1  1  0  0  0
 26 28  1  0  0  0  0
 27 28  1  0  0  0  0
M  END
>  <MODEL>
4

>  <REMARK>
 VINA RESULT:      -5.1      4.640      7.480
  Name = 
  5 active torsions:
  status: ('A' for Active; 'I' for Inactive)
    1  A    between atoms: C_1  and  C_7
    2  A    between atoms: C_1  and  C_26
    3  A    between atoms: C_1  and  C_27
    4  A    between atoms: O_11  and  C_26
    5  A    between atoms: C_16  and  S_21
                            x       y       z     vdW  Elec       q    Type
                         _______ _______ _______ _____ _____    ______ ____

>  <TORSDO>
F 5

$$$$
=
 OpenBabel10272401513D

 28 31  0  0  1  0  0  0  0  0999 V2000
  184.1630  177.1990  135.1730 C   0  0  0  0  0  2  0  0  0  0  0  0
  187.5430  177.3570  137.6070 C   0  0  0  0  0  3  0  0  0  0  0  0
  187.8360  177.1650  134.5580 C   0  0  0  0  0  3  0  0  0  0  0  0
  185.2380  176.6550  137.2560 C   0  0  2  0  0  3  0  0  0  0  0  0
  189.6210  177.1020  136.3050 C   0  0  0  0  0  0  0  0  0  0  0  0
  186.5730  177.1030  136.7240 C   0  0  0  0  0  0  0  0  0  0  0  0
  185.4560  177.5400  134.4260 C   0  0  0  0  0  2  0  0  0  0  0  0
  189.1730  176.8230  135.0830 C   0  0  0  0  0  3  0  0  0  0  0  0
  182.7300  175.8210  138.0160 C   0  0  2  0  0  3  0  0  0  0  0  0
  184.4120  176.1390  136.1490 N   0  0  1  0  0  0  0  0  0  0  0  0
  186.7010  177.3360  135.2520 C   0  0  0  0  0  0  0  0  0  0  0  0
  182.7770  177.6150  138.3130 S   0  0  0  0  0  0  0  0  0  0  0  0
  190.8700  176.7050  136.6520 F   0  0  0  0  0  0  0  0  0  0  0  0
  188.8580  177.9640  137.2490 C   0  0  0  0  0  2  0  0  0  0  0  0
  184.5720  177.8130  138.0220 C   0  0  0  0  0  2  0  0  0  0  0  0
  183.1390  175.5230  136.5640 C   0  0  1  0  0  3  0  0  0  0  0  0
  180.6760  175.8720  139.6610 O   0  0  0  0  0  1  0  0  0  0  0  0
  180.0810  175.9450  137.1970 O   0  0  0  0  0  1  0  0  0  0  0  0
  181.0690  175.1880  138.3590 S   0  0  0  0  0  3  0  0  0  0  0  0
  183.1430  174.0150  136.2670 C   0  0  2  0  0  3  0  0  0  0  0  0
  185.5950  173.6560  135.3090 C   0  0  0  0  0  1  0  0  0  0  0  0
  184.4930  171.9200  136.7870 C   0  0  0  0  0  2  0  0  0  0  0  0
  184.5350  173.3720  136.3670 C   0  0  2  0  0  0  0  0  0  0  0  0
  184.9870  172.9740  137.7670 C   0  0  2  0  0  3  0  0  0  0  0  0
  186.3800  172.9160  137.8520 O   0  0  0  0  0  1  0  0  0  0  0  0
  182.4790  173.7400  134.9240 C   0  0  0  0  0  2  0  0  0  0  0  0
  181.1020  172.4290  135.9160 O   0  0  0  0  0  1  0  0  0  0  0  0
  181.1240  173.4650  135.1040 O   0  0  0  0  0  0  0  0  0  0  0  0
  3  8  1  0  0  0  0
  3 11  2  0  0  0  0
  4 15  1  6  0  0  0
  5 13  1  0  0  0  0
  5 14  1  0  0  0  0
  6  4  1  0  0  0  0
  6  2  2  0  0  0  0
  7  1  1  0  0  0  0
  7 11  1  0  0  0  0
  8  5  2  0  0  0  0
  9 12  1  0  0  0  0
  9 19  1  6  0  0  0
 10  1  1  6  0  0  0
 10 16  1  0  0  0  0
 10  4  1  0  0  0  0
 11  6  1  0  0  0  0
 14  2  1  0  0  0  0
 15 12  1  0  0  0  0
 16 20  1  1  0  0  0
 16  9  1  0  0  0  0
 18 19  1  0  0  0  0
 19 17  1  0  0  0  0
 20 26  1  6  0  0  0
 20 23  1  0  0  0  0
 22 24  1  0  0  0  0
 23 21  1  6  0  0  0
 23 22  1  0  0  0  0
 23 24  1  0  0  0  0
 24 25  1  6  0  0  0
 26 28  1  0  0  0  0
 28 27  1  0  0  0  0
M  END
>  <MODEL>
5

>  <REMARK>
 VINA RESULT:      -5.1      5.263      7.342
  Name = 
  5 active torsions:
  status: ('A' for Active; 'I' for Inactive)
    1  A    between atoms: C_1  and  C_7
    2  A    between atoms: C_1  and  C_26
    3  A    between atoms: C_1  and  C_27
    4  A    between atoms: O_11  and  C_26
    5  A    between atoms: C_16  and  S_21
                            x       y       z     vdW  Elec       q    Type
                         _______ _______ _______ _____ _____    ______ ____

>  <TORSDO>
F 5

$$$$
=
 OpenBabel10272401513D

 28 31  0  0  1  0  0  0  0  0999 V2000
  187.4540  177.5550  135.3830 C   0  0  0  0  0  2  0  0  0  0  0  0
  189.9640  176.1520  138.4010 C   0  0  0  0  0  3  0  0  0  0  0  0
  190.8560  176.0420  135.4660 C   0  0  0  0  0  3  0  0  0  0  0  0
  187.7180  176.4890  137.5250 C   0  0  2  0  0  3  0  0  0  0  0  0
  192.0180  175.1400  137.4870 C   0  0  0  0  0  0  0  0  0  0  0  0
  189.2050  176.3770  137.3240 C   0  0  0  0  0  0  0  0  0  0  0  0
  188.9130  177.3750  134.9500 C   0  0  0  0  0  2  0  0  0  0  0  0
  191.7920  175.1470  136.1750 C   0  0  0  0  0  3  0  0  0  0  0  0
  184.9810  176.7240  137.6690 C   0  0  2  0  0  3  0  0  0  0  0  0
  187.0360  176.4300  136.2180 N   0  0  1  0  0  0  0  0  0  0  0  0
  189.7510  176.6250  135.9540 C   0  0  0  0  0  0  0  0  0  0  0  0
  185.6540  178.3160  138.2350 S   0  0  0  0  0  0  0  0  0  0  0  0
  192.8950  174.2420  137.9970 F   0  0  0  0  0  0  0  0  0  0  0  0
  191.4550  176.1820  138.3900 C   0  0  0  0  0  2  0  0  0  0  0  0
  187.3980  177.7710  138.3170 C   0  0  0  0  0  2  0  0  0  0  0  0
  185.5650  176.3720  136.2910 C   0  0  1  0  0  3  0  0  0  0  0  0
  182.7130  175.6220  138.4250 O   0  0  0  0  0  1  0  0  0  0  0  0
  182.7810  178.1530  138.5740 O   0  0  0  0  0  1  0  0  0  0  0  0
  183.1740  176.8150  137.5980 S   0  0  0  0  0  3  0  0  0  0  0  0
  185.0490  175.0180  135.7780 C   0  0  2  0  0  3  0  0  0  0  0  0
  187.2800  173.7990  135.0040 C   0  0  0  0  0  1  0  0  0  0  0  0
  185.4220  172.5300  136.1670 C   0  0  0  0  0  2  0  0  0  0  0  0
  186.0660  173.8770  135.9250 C   0  0  2  0  0  0  0  0  0  0  0  0
  186.1520  173.2320  137.3030 C   0  0  2  0  0  3  0  0  0  0  0  0
  187.3950  172.6280  137.5030 O   0  0  0  0  0  1  0  0  0  0  0  0
  184.5420  175.1560  134.3470 C   0  0  0  0  0  2  0  0  0  0  0  0
  182.6300  174.3900  134.9450 O   0  0  0  0  0  1  0  0  0  0  0  0
  183.1740  175.4280  134.3460 O   0  0  0  0  0  0  0  0  0  0  0  0
  3 11  2  0  0  0  0
  3  8  1  0  0  0  0
  4 15  1  6  0  0  0
  5 13  1  0  0  0  0
  5 14  1  0  0  0  0
  6  4  1  0  0  0  0
  6  2  2  0  0  0  0
  7  1  1  0  0  0  0
  7 11  1  0  0  0  0
  8  5  2  0  0  0  0
  9 19  1  6  0  0  0
  9 12  1  0  0  0  0
 10  1  1  6  0  0  0
 10 16  1  0  0  0  0
 10  4  1  0  0  0  0
 11  6  1  0  0  0  0
 12 15  1  0  0  0  0
 14  2  1  0  0  0  0
 16 20  1  1  0  0  0
 16  9  1  0  0  0  0
 19 17  1  0  0  0  0
 19 18  1  0  0  0  0
 20 26  1  6  0  0  0
 20 23  1  0  0  0  0
 22 24  1  0  0  0  0
 23 21  1  6  0  0  0
 23 22  1  0  0  0  0
 23 24  1  0  0  0  0
 24 25  1  6  0  0  0
 28 26  1  0  0  0  0
 28 27  1  0  0  0  0
M  END
>  <MODEL>
6

>  <REMARK>
 VINA RESULT:      -5.0      3.811      5.822
  Name = 
  5 active torsions:
  status: ('A' for Active; 'I' for Inactive)
    1  A    between atoms: C_1  and  C_7
    2  A    between atoms: C_1  and  C_26
    3  A    between atoms: C_1  and  C_27
    4  A    between atoms: O_11  and  C_26
    5  A    between atoms: C_16  and  S_21
                            x       y       z     vdW  Elec       q    Type
                         _______ _______ _______ _____ _____    ______ ____

>  <TORSDO>
F 5

$$$$
=
 OpenBabel10272401513D

 28 31  0  0  1  0  0  0  0  0999 V2000
  187.9460  175.7720  135.2910 C   0  0  0  0  0  2  0  0  0  0  0  0
  186.3270  172.1160  136.4690 C   0  0  0  0  0  3  0  0  0  0  0  0
  184.4900  174.4860  135.8160 C   0  0  0  0  0  3  0  0  0  0  0  0
  188.1150  173.7620  136.6040 C   0  0  2  0  0  3  0  0  0  0  0  0
  183.8760  172.2350  136.7110 C   0  0  0  0  0  0  0  0  0  0  0  0
  186.6970  173.3850  136.2730 C   0  0  0  0  0  0  0  0  0  0  0  0
  186.4500  175.6230  134.9900 C   0  0  0  0  0  2  0  0  0  0  0  0
  183.6240  173.5300  136.5350 C   0  0  0  0  0  3  0  0  0  0  0  0
  190.6560  174.6620  137.1490 C   0  0  2  0  0  3  0  0  0  0  0  0
  188.2470  175.2310  136.6150 N   0  0  1  0  0  0  0  0  0  0  0  0
  185.8190  174.4230  135.6500 C   0  0  0  0  0  0  0  0  0  0  0  0
  190.7620  173.7850  135.5590 S   0  0  0  0  0  0  0  0  0  0  0  0
  182.9930  171.4840  137.4130 F   0  0  0  0  0  0  0  0  0  0  0  0
  185.0160  171.5530  136.0360 C   0  0  0  0  0  2  0  0  0  0  0  0
  189.0770  173.0750  135.6170 C   0  0  0  0  0  2  0  0  0  0  0  0
  189.5530  175.7310  137.0820 C   0  0  1  0  0  3  0  0  0  0  0  0
  193.1780  174.2240  137.7640 O   0  0  0  0  0  1  0  0  0  0  0  0
  192.7920  176.0580  136.0560 O   0  0  0  0  0  1  0  0  0  0  0  0
  192.2560  175.4150  137.5390 S   0  0  0  0  0  3  0  0  0  0  0  0
  189.4020  176.4850  138.4120 C   0  0  2  0  0  3  0  0  0  0  0  0
  189.1490  178.8620  137.2510 C   0  0  0  0  0  1  0  0  0  0  0  0
  188.3110  178.4520  139.6050 C   0  0  0  0  0  2  0  0  0  0  0  0
  188.6800  177.8340  138.2750 C   0  0  2  0  0  0  0  0  0  0  0  0
  187.2230  177.8590  138.7220 C   0  0  2  0  0  3  0  0  0  0  0  0
  186.5190  178.8890  138.0950 O   0  0  0  0  0  1  0  0  0  0  0  0
  190.7570  176.6260  139.0940 C   0  0  0  0  0  2  0  0  0  0  0  0
  191.3010  177.2240  141.0810 O   0  0  0  0  0  1  0  0  0  0  0  0
  190.6570  176.2720  140.4400 O   0  0  0  0  0  0  0  0  0  0  0  0
  3  8  1  0  0  0  0
  4 15  1  6  0  0  0
  4 10  1  0  0  0  0
  5 13  1  0  0  0  0
  6  2  2  0  0  0  0
  6  4  1  0  0  0  0
  7  1  1  0  0  0  0
  7 11  1  0  0  0  0
  8  5  2  0  0  0  0
  9 19  1  6  0  0  0
 10  1  1  6  0  0  0
 10 16  1  0  0  0  0
 11  3  2  0  0  0  0
 11  6  1  0  0  0  0
 12 15  1  0  0  0  0
 12  9  1  0  0  0  0
 14  2  1  0  0  0  0
 14  5  1  0  0  0  0
 16  9  1  0  0  0  0
 16 20  1  1  0  0  0
 18 19  1  0  0  0  0
 19 17  1  0  0  0  0
 20 26  1  6  0  0  0
 23 21  1  6  0  0  0
 23 20  1  0  0  0  0
 23 24  1  0  0  0  0
 23 22  1  0  0  0  0
 24 25  1  6  0  0  0
 24 22  1  0  0  0  0
 26 28  1  0  0  0  0
 28 27  1  0  0  0  0
M  END
>  <MODEL>
7

>  <REMARK>
 VINA RESULT:      -5.0      3.779      6.837
  Name = 
  5 active torsions:
  status: ('A' for Active; 'I' for Inactive)
    1  A    between atoms: C_1  and  C_7
    2  A    between atoms: C_1  and  C_26
    3  A    between atoms: C_1  and  C_27
    4  A    between atoms: O_11  and  C_26
    5  A    between atoms: C_16  and  S_21
                            x       y       z     vdW  Elec       q    Type
                         _______ _______ _______ _____ _____    ______ ____

>  <TORSDO>
F 5

$$$$
=
 OpenBabel10272401513D

 28 31  0  0  1  0  0  0  0  0999 V2000
  183.3540  176.6740  135.2760 C   0  0  0  0  0  2  0  0  0  0  0  0
  183.0060  172.6810  136.4220 C   0  0  0  0  0  3  0  0  0  0  0  0
  180.5140  174.2910  135.6380 C   0  0  0  0  0  3  0  0  0  0  0  0
  184.1220  174.8360  136.6270 C   0  0  2  0  0  3  0  0  0  0  0  0
  180.6510  171.9620  136.5320 C   0  0  0  0  0  0  0  0  0  0  0  0
  182.9350  174.0010  136.2270 C   0  0  0  0  0  0  0  0  0  0  0  0
  182.0160  176.0290  134.8990 C   0  0  0  0  0  2  0  0  0  0  0  0
  179.9860  173.0960  136.3240 C   0  0  0  0  0  3  0  0  0  0  0  0
  186.1750  176.5410  137.2900 C   0  0  2  0  0  3  0  0  0  0  0  0
  183.7480  176.2620  136.6230 N   0  0  1  0  0  0  0  0  0  0  0  0
  181.7930  174.6830  135.5430 C   0  0  0  0  0  0  0  0  0  0  0  0
  186.6580  175.7580  135.7220 S   0  0  0  0  0  0  0  0  0  0  0  0
  180.0380  170.9540  137.1980 F   0  0  0  0  0  0  0  0  0  0  0  0
  181.9890  171.7090  135.9280 C   0  0  0  0  0  2  0  0  0  0  0  0
  185.3120  174.5190  135.7020 C   0  0  0  0  0  2  0  0  0  0  0  0
  184.7800  177.1730  137.1500 C   0  0  1  0  0  3  0  0  0  0  0  0
  188.2630  177.0900  138.7960 O   0  0  0  0  0  1  0  0  0  0  0  0
  188.4260  177.8970  136.3970 O   0  0  0  0  0  1  0  0  0  0  0  0
  187.4020  177.7900  137.7540 S   0  0  0  0  0  3  0  0  0  0  0  0
  184.3110  177.8270  138.4590 C   0  0  2  0  0  3  0  0  0  0  0  0
  181.6910  178.1060  138.1110 C   0  0  0  0  0  1  0  0  0  0  0  0
  182.6520  177.3720  140.3360 C   0  0  0  0  0  2  0  0  0  0  0  0
  182.8670  177.4670  138.8420 C   0  0  2  0  0  0  0  0  0  0  0  0
  182.6700  176.1040  139.4950 C   0  0  2  0  0  3  0  0  0  0  0  0
  181.3630  175.6440  139.3190 O   0  0  0  0  0  1  0  0  0  0  0  0
  184.5330  179.3330  138.4050 C   0  0  0  0  0  2  0  0  0  0  0  0
  185.5120  179.3990  140.3120 O   0  0  0  0  0  1  0  0  0  0  0  0
  184.4570  179.8760  139.6870 O   0  0  0  0  0  0  0  0  0  0  0  0
  3  8  1  0  0  0  0
  4 15  1  6  0  0  0
  5 13  1  0  0  0  0
  6  2  2  0  0  0  0
  6  4  1  0  0  0  0
  7  1  1  0  0  0  0
  7 11  1  0  0  0  0
  8  5  2  0  0  0  0
  9 19  1  6  0  0  0
 10  1  1  6  0  0  0
 10  4  1  0  0  0  0
 10 16  1  0  0  0  0
 11  3  2  0  0  0  0
 11  6  1  0  0  0  0
 12  9  1  0  0  0  0
 14  2  1  0  0  0  0
 14  5  1  0  0  0  0
 15 12  1  0  0  0  0
 16  9  1  0  0  0  0
 16 20  1  1  0  0  0
 18 19  1  0  0  0  0
 19 17  1  0  0  0  0
 20 26  1  6  0  0  0
 20 23  1  0  0  0  0
 23 21  1  6  0  0  0
 23 24  1  0  0  0  0
 23 22  1  0  0  0  0
 24 25  1  6  0  0  0
 24 22  1  0  0  0  0
 26 28  1  0  0  0  0
 28 27  1  0  0  0  0
M  END
>  <MODEL>
8

>  <REMARK>
 VINA RESULT:      -4.9      6.369      9.148
  Name = 
  5 active torsions:
  status: ('A' for Active; 'I' for Inactive)
    1  A    between atoms: C_1  and  C_7
    2  A    between atoms: C_1  and  C_26
    3  A    between atoms: C_1  and  C_27
    4  A    between atoms: O_11  and  C_26
    5  A    between atoms: C_16  and  S_21
                            x       y       z     vdW  Elec       q    Type
                         _______ _______ _______ _____ _____    ______ ____

>  <TORSDO>
F 5

$$$$
=
 OpenBabel10272401513D

 28 31  0  0  1  0  0  0  0  0999 V2000
  180.1210  176.8240  137.4120 C   0  0  0  0  0  2  0  0  0  0  0  0
  183.6400  175.9540  135.3550 C   0  0  0  0  0  3  0  0  0  0  0  0
  182.2770  173.8060  137.0720 C   0  0  0  0  0  3  0  0  0  0  0  0
  182.2500  177.5510  136.5560 C   0  0  2  0  0  3  0  0  0  0  0  0
  184.4600  173.6850  135.8620 C   0  0  0  0  0  0  0  0  0  0  0  0
  182.6340  176.1370  136.2150 C   0  0  0  0  0  0  0  0  0  0  0  0
  180.4150  175.3260  137.2810 C   0  0  0  0  0  2  0  0  0  0  0  0
  183.6340  173.2800  136.8240 C   0  0  0  0  0  3  0  0  0  0  0  0
  181.3910  180.0500  137.3170 C   0  0  2  0  0  3  0  0  0  0  0  0
  181.3500  177.5510  137.7250 N   0  0  1  0  0  0  0  0  0  0  0  0
  181.8040  175.0260  136.7770 C   0  0  0  0  0  0  0  0  0  0  0  0
  180.6850  179.7560  135.6680 S   0  0  0  0  0  0  0  0  0  0  0  0
  185.6880  173.1200  135.7710 F   0  0  0  0  0  0  0  0  0  0  0  0
  184.0270  174.6280  134.7930 C   0  0  0  0  0  2  0  0  0  0  0  0
  181.6360  178.2330  135.3190 C   0  0  0  0  0  2  0  0  0  0  0  0
  181.0280  178.8880  138.2550 C   0  0  1  0  0  3  0  0  0  0  0  0
  182.0350  182.3470  138.4310 O   0  0  0  0  0  1  0  0  0  0  0  0
  180.2940  182.4950  136.5930 O   0  0  0  0  0  1  0  0  0  0  0  0
  180.7770  181.6220  137.9740 S   0  0  0  0  0  3  0  0  0  0  0  0
  181.6250  179.0740  139.6590 C   0  0  2  0  0  3  0  0  0  0  0  0
  183.2400  176.9730  139.8630 C   0  0  0  0  0  1  0  0  0  0  0  0
  183.8910  179.2300  140.8080 C   0  0  0  0  0  2  0  0  0  0  0  0
  183.0350  178.4840  139.8100 C   0  0  2  0  0  0  0  0  0  0  0  0
  184.1810  179.3610  139.3200 C   0  0  2  0  0  3  0  0  0  0  0  0
  185.3020  178.5930  138.9950 O   0  0  0  0  0  1  0  0  0  0  0  0
  180.6640  178.5430  140.7160 C   0  0  0  0  0  2  0  0  0  0  0  0
  180.2350  180.5560  141.3190 O   0  0  0  0  0  1  0  0  0  0  0  0
  180.6330  179.4030  141.8130 O   0  0  0  0  0  0  0  0  0  0  0  0
  2  6  2  0  0  0  0
  4 15  1  6  0  0  0
  4 10  1  0  0  0  0
  5  8  2  0  0  0  0
  6  4  1  0  0  0  0
  6 11  1  0  0  0  0
  7  1  1  0  0  0  0
  8  3  1  0  0  0  0
  9 19  1  1  0  0  0
  9 16  1  0  0  0  0
 10  1  1  6  0  0  0
 10 16  1  0  0  0  0
 11  3  2  0  0  0  0
 11  7  1  0  0  0  0
 12  9  1  0  0  0  0
 13  5  1  0  0  0  0
 14  2  1  0  0  0  0
 14  5  1  0  0  0  0
 15 12  1  0  0  0  0
 16 20  1  1  0  0  0
 18 19  1  0  0  0  0
 19 17  1  0  0  0  0
 20 23  1  0  0  0  0
 20 26  1  1  0  0  0
 23 21  1  6  0  0  0
 23 22  1  0  0  0  0
 24 25  1  1  0  0  0
 24 23  1  0  0  0  0
 24 22  1  0  0  0  0
 26 28  1  0  0  0  0
 27 28  1  0  0  0  0
M  END
>  <MODEL>
9

>  <REMARK>
 VINA RESULT:      -4.7      7.563      9.975
  Name = 
  5 active torsions:
  status: ('A' for Active; 'I' for Inactive)
    1  A    between atoms: C_1  and  C_7
    2  A    between atoms: C_1  and  C_26
    3  A    between atoms: C_1  and  C_27
    4  A    between atoms: O_11  and  C_26
    5  A    between atoms: C_16  and  S_21
                            x       y       z     vdW  Elec       q    Type
                         _______ _______ _______ _____ _____    ______ ____

>  <TORSDO>
F 5

$$$$
