=
 OpenBabel10272414363D

 43 48  0  0  1  0  0  0  0  0999 V2000
  192.4970  175.1000  136.0840 C   0  0  0  0  0  3  0  0  0  0  0  0
  187.2570  176.6890  136.3450 C   0  0  0  0  0  0  0  0  0  0  0  0
  187.0380  177.6290  139.0210 C   0  0  2  0  0  3  0  0  0  0  0  0
  189.4380  175.1680  135.4840 C   0  0  0  0  0  0  0  0  0  0  0  0
  191.8290  174.8170  137.3890 C   0  0  0  0  0  2  0  0  0  0  0  0
  191.8620  174.8500  134.9400 C   0  0  0  0  0  3  0  0  0  0  0  0
  189.5100  175.8220  136.7500 C   0  0  0  0  0  0  0  0  0  0  0  0
  190.4940  174.2430  134.9490 C   0  0  0  0  0  2  0  0  0  0  0  0
  190.7440  175.8560  137.6400 C   0  0  0  0  0  2  0  0  0  0  0  0
  188.4370  177.3410  138.4780 C   0  0  0  0  0  2  0  0  0  0  0  0
  188.3960  176.5820  137.1710 C   0  0  0  0  0  0  0  0  0  0  0  0
  187.2430  176.0170  135.1240 C   0  0  0  0  0  3  0  0  0  0  0  0
  186.1090  177.4460  136.7800 N   0  0  0  0  0  0  0  0  0  0  0  0
  186.2080  178.3170  137.9460 C   0  0  0  0  0  2  0  0  0  0  0  0
  188.3110  175.2830  134.7330 N   0  0  0  0  0  0  0  0  0  0  0  0
  187.1090  178.4400  140.2340 N   0  0  0  0  0  0  0  0  0  0  0  0
  185.8900  178.7870  140.9150 C   0  0  0  0  0  0  0  0  0  0  0  0
  184.7760  178.5790  140.3630 O   0  0  0  0  0  0  0  0  0  0  0  0
  188.4110  178.7800  140.8040 C   0  0  0  0  0  2  0  0  0  0  0  0
  188.9690  177.6010  141.5810 C   0  0  0  0  0  1  0  0  0  0  0  0
  185.9110  179.3540  142.2990 C   0  0  0  0  0  2  0  0  0  0  0  0
  185.0850  178.4900  143.2390 C   0  0  2  0  0  3  0  0  0  0  0  0
  184.4420  178.7890  145.5860 C   0  0  0  0  0  2  0  0  0  0  0  0
  183.6580  178.9920  143.3140 C   0  0  0  0  0  2  0  0  0  0  0  0
  185.6320  178.5800  144.6630 C   0  0  1  0  0  3  0  0  0  0  0  0
  183.2020  178.6880  144.7220 C   0  0  0  0  0  2  0  0  0  0  0  0
  186.4000  177.3910  145.0690 N   0  0  0  0  0  0  0  0  0  0  0  0
  186.7540  176.7040  143.9500 O   0  0  0  0  0  1  0  0  0  0  0  0
  187.6210  177.8090  145.7670 C   0  0  0  0  0  3  0  0  0  0  0  0
  189.9630  177.2850  147.4710 C   0  0  0  0  0  2  0  0  0  0  0  0
  188.7450  178.0370  148.0000 C   0  0  0  0  0  2  0  0  0  0  0  0
  190.1030  177.5000  145.9670 C   0  0  0  0  0  2  0  0  0  0  0  0
  187.4850  177.5730  147.2750 C   0  0  0  0  0  2  0  0  0  0  0  0
  188.8390  177.0340  145.2500 C   0  0  0  0  0  2  0  0  0  0  0  0
  184.7900  177.2160  136.2020 C   0  0  0  0  0  2  0  0  0  0  0  0
  182.7220  175.8720  139.0780 C   0  0  0  0  0  3  0  0  0  0  0  0
  181.7930  176.9020  139.2550 C   0  0  0  0  0  0  0  0  0  0  0  0
  182.8240  178.1420  137.4480 C   0  0  0  0  0  3  0  0  0  0  0  0
  183.7070  175.9800  138.0920 C   0  0  0  0  0  3  0  0  0  0  0  0
  183.7650  177.1200  137.2810 C   0  0  0  0  0  0  0  0  0  0  0  0
  181.8380  178.0330  138.4330 C   0  0  0  0  0  3  0  0  0  0  0  0
  180.8320  177.8100  141.1930 F   0  0  0  0  0  0  0  0  0  0  0  0
  180.7280  176.7740  140.2850 C   0  0  0  0  0  2  0  0  0  0  0  0
  1  5  1  0  0  0  0
  2 13  1  0  0  0  0
  2 11  1  0  0  0  0
  3 16  1  1  0  0  0
  4  7  1  0  0  0  0
  5  9  1  0  0  0  0
  6  8  1  0  0  0  0
  6  1  2  0  0  0  0
  7 11  2  0  0  0  0
  7  9  1  0  0  0  0
  8  4  1  0  0  0  0
 10  3  1  0  0  0  0
 11 10  1  0  0  0  0
 12  2  2  0  0  0  0
 13 14  1  0  0  0  0
 14  3  1  0  0  0  0
 15 12  1  0  0  0  0
 15  4  2  0  0  0  0
 16 19  1  0  0  0  0
 16 17  1  0  0  0  0
 17 21  1  0  0  0  0
 18 17  2  0  0  0  0
 19 20  1  0  0  0  0
 22 21  1  6  0  0  0
 22 24  1  0  0  0  0
 22 25  1  0  0  0  0
 24 26  1  0  0  0  0
 25 27  1  1  0  0  0
 25 23  1  0  0  0  0
 26 23  1  0  0  0  0
 27 29  1  0  0  0  0
 28 27  1  0  0  0  0
 29 33  1  0  0  0  0
 30 31  1  0  0  0  0
 32 30  1  0  0  0  0
 33 31  1  0  0  0  0
 34 29  1  0  0  0  0
 34 32  1  0  0  0  0
 35 13  1  0  0  0  0
 35 40  1  0  0  0  0
 36 37  1  0  0  0  0
 37 43  1  0  0  0  0
 38 41  1  0  0  0  0
 39 36  2  0  0  0  0
 40 38  2  0  0  0  0
 40 39  1  0  0  0  0
 41 37  2  0  0  0  0
 43 42  1  0  0  0  0
M  END
>  <MODEL>
1

>  <REMARK>
 VINA RESULT:      -8.7      0.000      0.000
  Name = 
  9 active torsions:
  status: ('A' for Active; 'I' for Inactive)
    1  A    between atoms: C_1  and  N_34
    2  A    between atoms: C_1  and  C_35
    3  A    between atoms: C_2  and  N_6
    4  A    between atoms: C_3  and  C_4
    5  A    between atoms: C_3  and  C_12
    6  A    between atoms: N_6  and  C_13
    7  A    between atoms: C_11  and  N_14
    8  A    between atoms: N_14  and  C_22
    9  A    between atoms: C_19  and  C_37
                            x       y       z     vdW  Elec       q    Type
                         _______ _______ _______ _____ _____    ______ ____

>  <TORSDO>
F 9

$$$$
=
 OpenBabel10272414363D

 43 48  0  0  1  0  0  0  0  0999 V2000
  189.3930  176.5150  147.7160 C   0  0  0  0  0  3  0  0  0  0  0  0
  186.3670  178.2220  143.4750 C   0  0  0  0  0  0  0  0  0  0  0  0
  188.2130  178.0860  141.3150 C   0  0  2  0  0  3  0  0  0  0  0  0
  187.1930  178.0650  146.1410 C   0  0  0  0  0  0  0  0  0  0  0  0
  190.1300  177.3620  146.7300 C   0  0  0  0  0  2  0  0  0  0  0  0
  188.1670  176.8590  148.1070 C   0  0  0  0  0  3  0  0  0  0  0  0
  188.1220  177.7330  145.1100 C   0  0  0  0  0  0  0  0  0  0  0  0
  187.5350  178.1180  147.6020 C   0  0  0  0  0  2  0  0  0  0  0  0
  189.5200  177.1790  145.3470 C   0  0  0  0  0  2  0  0  0  0  0  0
  188.6120  177.4320  142.6380 C   0  0  0  0  0  2  0  0  0  0  0  0
  187.6880  177.8240  143.7680 C   0  0  0  0  0  0  0  0  0  0  0  0
  185.5100  178.5440  144.5260 C   0  0  0  0  0  3  0  0  0  0  0  0
  185.9260  178.3370  142.1060 N   0  0  0  0  0  0  0  0  0  0  0  0
  186.7470  177.7960  141.0280 C   0  0  0  0  0  2  0  0  0  0  0  0
  185.9370  178.4640  145.8080 N   0  0  0  0  0  0  0  0  0  0  0  0
  189.0670  177.6190  140.2260 N   0  0  0  0  0  0  0  0  0  0  0  0
  188.8850  178.1700  138.9100 C   0  0  0  0  0  0  0  0  0  0  0  0
  187.8750  178.8790  138.6550 O   0  0  0  0  0  0  0  0  0  0  0  0
  190.1670  176.6990  140.5110 C   0  0  0  0  0  2  0  0  0  0  0  0
  191.4440  177.4740  140.7820 C   0  0  0  0  0  1  0  0  0  0  0  0
  189.9030  177.9550  137.8340 C   0  0  0  0  0  2  0  0  0  0  0  0
  189.3880  176.9570  136.8080 C   0  0  2  0  0  3  0  0  0  0  0  0
  189.3900  176.9900  134.3570 C   0  0  0  0  0  2  0  0  0  0  0  0
  190.5170  176.0900  136.2910 C   0  0  0  0  0  2  0  0  0  0  0  0
  188.8320  177.6870  135.5880 C   0  0  1  0  0  3  0  0  0  0  0  0
  190.1580  175.7830  134.8560 C   0  0  0  0  0  2  0  0  0  0  0  0
  187.3600  177.7140  135.5440 N   0  0  0  0  0  0  0  0  0  0  0  0
  186.9740  178.2290  134.3460 O   0  0  0  0  0  1  0  0  0  0  0  0
  186.8410  176.3460  135.6540 C   0  0  0  0  0  3  0  0  0  0  0  0
  184.6570  174.4040  136.0020 C   0  0  0  0  0  2  0  0  0  0  0  0
  185.6370  174.7100  137.1300 C   0  0  0  0  0  2  0  0  0  0  0  0
  185.3270  174.6170  134.6480 C   0  0  0  0  0  2  0  0  0  0  0  0
  186.1500  176.1420  137.0080 C   0  0  0  0  0  2  0  0  0  0  0  0
  185.8360  176.0510  134.5340 C   0  0  0  0  0  2  0  0  0  0  0  0
  184.7720  179.1540  141.7510 C   0  0  0  0  0  2  0  0  0  0  0  0
  182.6590  176.8710  139.5890 C   0  0  0  0  0  3  0  0  0  0  0  0
  182.8380  177.4440  138.3250 C   0  0  0  0  0  0  0  0  0  0  0  0
  184.2700  179.1390  139.2970 C   0  0  0  0  0  3  0  0  0  0  0  0
  183.2790  177.4360  140.7070 C   0  0  0  0  0  3  0  0  0  0  0  0
  184.0780  178.5770  140.5640 C   0  0  0  0  0  0  0  0  0  0  0  0
  183.6500  178.5730  138.1790 C   0  0  0  0  0  3  0  0  0  0  0  0
  182.2960  177.6890  136.0550 F   0  0  0  0  0  0  0  0  0  0  0  0
  182.2010  176.8270  137.1310 C   0  0  0  0  0  2  0  0  0  0  0  0
  1  6  2  0  0  0  0
  2 11  2  0  0  0  0
  2 12  1  0  0  0  0
  3 16  1  6  0  0  0
  3 10  1  0  0  0  0
  4  8  1  0  0  0  0
  5  1  1  0  0  0  0
  7  9  1  0  0  0  0
  7  4  2  0  0  0  0
  8  6  1  0  0  0  0
  9  5  1  0  0  0  0
 10 11  1  0  0  0  0
 11  7  1  0  0  0  0
 12 15  2  0  0  0  0
 13  2  1  0  0  0  0
 14  3  1  0  0  0  0
 14 13  1  0  0  0  0
 15  4  1  0  0  0  0
 16 19  1  0  0  0  0
 17 16  1  0  0  0  0
 18 17  2  0  0  0  0
 19 20  1  0  0  0  0
 21 17  1  0  0  0  0
 22 21  1  1  0  0  0
 23 26  1  0  0  0  0
 23 25  1  0  0  0  0
 24 22  1  0  0  0  0
 25 27  1  6  0  0  0
 25 22  1  0  0  0  0
 26 24  1  0  0  0  0
 27 29  1  0  0  0  0
 28 27  1  0  0  0  0
 29 33  1  0  0  0  0
 30 31  1  0  0  0  0
 32 30  1  0  0  0  0
 33 31  1  0  0  0  0
 34 32  1  0  0  0  0
 34 29  1  0  0  0  0
 35 13  1  0  0  0  0
 36 39  1  0  0  0  0
 37 36  2  0  0  0  0
 38 40  1  0  0  0  0
 40 39  2  0  0  0  0
 40 35  1  0  0  0  0
 41 37  1  0  0  0  0
 41 38  2  0  0  0  0
 42 43  1  0  0  0  0
 43 37  1  0  0  0  0
M  END
>  <MODEL>
2

>  <REMARK>
 VINA RESULT:      -8.7      2.067      8.403
  Name = 
  9 active torsions:
  status: ('A' for Active; 'I' for Inactive)
    1  A    between atoms: C_1  and  N_34
    2  A    between atoms: C_1  and  C_35
    3  A    between atoms: C_2  and  N_6
    4  A    between atoms: C_3  and  C_4
    5  A    between atoms: C_3  and  C_12
    6  A    between atoms: N_6  and  C_13
    7  A    between atoms: C_11  and  N_14
    8  A    between atoms: N_14  and  C_22
    9  A    between atoms: C_19  and  C_37
                            x       y       z     vdW  Elec       q    Type
                         _______ _______ _______ _____ _____    ______ ____

>  <TORSDO>
F 9

$$$$
=
 OpenBabel10272414363D

 43 48  0  0  1  0  0  0  0  0999 V2000
  185.4110  178.0750  145.1810 C   0  0  0  0  0  3  0  0  0  0  0  0
  181.8740  178.5090  141.0150 C   0  0  0  0  0  0  0  0  0  0  0  0
  183.5150  177.9460  138.7620 C   0  0  2  0  0  3  0  0  0  0  0  0
  182.9550  179.0620  143.5330 C   0  0  0  0  0  0  0  0  0  0  0  0
  185.9810  178.6910  143.9460 C   0  0  0  0  0  2  0  0  0  0  0  0
  184.2030  178.4360  145.6120 C   0  0  0  0  0  3  0  0  0  0  0  0
  183.8080  178.5380  142.5160 C   0  0  0  0  0  0  0  0  0  0  0  0
  183.4270  179.4940  144.8920 C   0  0  0  0  0  2  0  0  0  0  0  0
  185.2620  178.1390  142.7240 C   0  0  0  0  0  2  0  0  0  0  0  0
  184.0880  177.6630  140.1500 C   0  0  0  0  0  2  0  0  0  0  0  0
  183.2440  178.2700  141.2480 C   0  0  0  0  0  0  0  0  0  0  0  0
  181.0950  179.0330  142.0460 C   0  0  0  0  0  3  0  0  0  0  0  0
  181.2990  178.2570  139.7170 N   0  0  0  0  0  0  0  0  0  0  0  0
  182.0570  177.5130  138.7150 C   0  0  0  0  0  2  0  0  0  0  0  0
  181.6450  179.2950  143.2550 N   0  0  0  0  0  0  0  0  0  0  0  0
  184.2990  177.2730  137.7290 N   0  0  0  0  0  0  0  0  0  0  0  0
  185.6570  177.6870  137.5000 C   0  0  0  0  0  0  0  0  0  0  0  0
  186.0930  178.7460  138.0280 O   0  0  0  0  0  0  0  0  0  0  0  0
  183.7400  176.1150  137.0350 C   0  0  0  0  0  2  0  0  0  0  0  0
  182.9670  176.5600  135.8060 C   0  0  0  0  0  1  0  0  0  0  0  0
  186.5910  176.8580  136.6770 C   0  0  0  0  0  2  0  0  0  0  0  0
  187.7270  177.7150  136.1380 C   0  0  2  0  0  3  0  0  0  0  0  0
  190.0520  177.1760  135.5770 C   0  0  0  0  0  2  0  0  0  0  0  0
  187.8600  177.5470  134.6390 C   0  0  0  0  0  2  0  0  0  0  0  0
  189.0610  177.2610  136.7280 C   0  0  1  0  0  3  0  0  0  0  0  0
  189.3350  177.7020  134.3500 C   0  0  0  0  0  2  0  0  0  0  0  0
  189.5680  178.1570  137.7810 N   0  0  0  0  0  0  0  0  0  0  0  0
  188.8590  179.3170  137.7370 O   0  0  0  0  0  1  0  0  0  0  0  0
  189.3650  177.5350  139.0940 C   0  0  0  0  0  3  0  0  0  0  0  0
  189.6490  177.4700  142.0230 C   0  0  0  0  0  2  0  0  0  0  0  0
  190.5000  176.5810  141.1210 C   0  0  0  0  0  2  0  0  0  0  0  0
  188.3090  177.7700  141.3580 C   0  0  0  0  0  2  0  0  0  0  0  0
  190.7140  177.2550  139.7690 C   0  0  0  0  0  2  0  0  0  0  0  0
  188.5320  178.4430  140.0070 C   0  0  0  0  0  2  0  0  0  0  0  0
  180.0550  178.8960  139.3050 C   0  0  0  0  0  2  0  0  0  0  0  0
  181.0210  182.2830  137.9090 C   0  0  0  0  0  3  0  0  0  0  0  0
  180.7910  182.0940  136.5430 C   0  0  0  0  0  0  0  0  0  0  0  0
  180.0910  179.8160  136.9750 C   0  0  0  0  0  3  0  0  0  0  0  0
  180.7930  181.2360  138.8080 C   0  0  0  0  0  3  0  0  0  0  0  0
  180.3370  179.9990  138.3410 C   0  0  0  0  0  0  0  0  0  0  0  0
  180.3180  180.8630  136.0770 C   0  0  0  0  0  3  0  0  0  0  0  0
  181.5460  184.2980  136.2580 F   0  0  0  0  0  0  0  0  0  0  0  0
  181.0060  183.2160  135.5900 C   0  0  0  0  0  2  0  0  0  0  0  0
  1  6  2  0  0  0  0
  2 11  2  0  0  0  0
  2 12  1  0  0  0  0
  3 16  1  6  0  0  0
  3 10  1  0  0  0  0
  4  8  1  0  0  0  0
  5  1  1  0  0  0  0
  7  9  1  0  0  0  0
  7  4  2  0  0  0  0
  8  6  1  0  0  0  0
  9  5  1  0  0  0  0
 10 11  1  0  0  0  0
 11  7  1  0  0  0  0
 12 15  2  0  0  0  0
 13  2  1  0  0  0  0
 14  3  1  0  0  0  0
 14 13  1  0  0  0  0
 15  4  1  0  0  0  0
 17 16  1  0  0  0  0
 17 18  2  0  0  0  0
 19 16  1  0  0  0  0
 20 19  1  0  0  0  0
 21 17  1  0  0  0  0
 22 21  1  1  0  0  0
 22 25  1  0  0  0  0
 23 25  1  0  0  0  0
 24 22  1  0  0  0  0
 25 27  1  1  0  0  0
 26 24  1  0  0  0  0
 26 23  1  0  0  0  0
 27 29  1  0  0  0  0
 28 27  1  0  0  0  0
 29 33  1  0  0  0  0
 29 34  1  0  0  0  0
 31 30  1  0  0  0  0
 32 30  1  0  0  0  0
 33 31  1  0  0  0  0
 34 32  1  0  0  0  0
 35 13  1  0  0  0  0
 36 39  1  0  0  0  0
 37 36  2  0  0  0  0
 38 40  1  0  0  0  0
 40 39  2  0  0  0  0
 40 35  1  0  0  0  0
 41 37  1  0  0  0  0
 41 38  2  0  0  0  0
 43 42  1  0  0  0  0
 43 37  1  0  0  0  0
M  END
>  <MODEL>
3

>  <REMARK>
 VINA RESULT:      -8.7      2.894      7.862
  Name = 
  9 active torsions:
  status: ('A' for Active; 'I' for Inactive)
    1  A    between atoms: C_1  and  N_34
    2  A    between atoms: C_1  and  C_35
    3  A    between atoms: C_2  and  N_6
    4  A    between atoms: C_3  and  C_4
    5  A    between atoms: C_3  and  C_12
    6  A    between atoms: N_6  and  C_13
    7  A    between atoms: C_11  and  N_14
    8  A    between atoms: N_14  and  C_22
    9  A    between atoms: C_19  and  C_37
                            x       y       z     vdW  Elec       q    Type
                         _______ _______ _______ _____ _____    ______ ____

>  <TORSDO>
F 9

$$$$
=
 OpenBabel10272414363D

 43 48  0  0  1  0  0  0  0  0999 V2000
  190.2010  177.2730  147.5720 C   0  0  0  0  0  3  0  0  0  0  0  0
  189.9540  177.6130  142.1060 C   0  0  0  0  0  0  0  0  0  0  0  0
  187.2010  178.1670  141.6540 C   0  0  2  0  0  3  0  0  0  0  0  0
  190.8980  176.7260  144.5830 C   0  0  0  0  0  0  0  0  0  0  0  0
  188.9590  176.7000  146.9710 C   0  0  0  0  0  2  0  0  0  0  0  0
  191.3870  177.0210  147.0210 C   0  0  0  0  0  3  0  0  0  0  0  0
  189.5660  177.2290  144.4930 C   0  0  0  0  0  0  0  0  0  0  0  0
  191.4940  176.1280  145.8250 C   0  0  0  0  0  2  0  0  0  0  0  0
  188.6350  177.4350  145.6780 C   0  0  0  0  0  2  0  0  0  0  0  0
  187.7220  178.2620  143.0870 C   0  0  0  0  0  2  0  0  0  0  0  0
  189.1050  177.6680  143.2310 C   0  0  0  0  0  0  0  0  0  0  0  0
  191.2410  177.1000  142.2560 C   0  0  0  0  0  3  0  0  0  0  0  0
  189.4800  178.0400  140.8120 N   0  0  0  0  0  0  0  0  0  0  0  0
  188.2220  178.7710  140.7010 C   0  0  0  0  0  2  0  0  0  0  0  0
  191.6720  176.6730  143.4670 N   0  0  0  0  0  0  0  0  0  0  0  0
  185.9040  178.8280  141.5270 N   0  0  0  0  0  0  0  0  0  0  0  0
  185.2200  178.7880  140.2630 C   0  0  0  0  0  0  0  0  0  0  0  0
  185.8180  178.3780  139.2320 O   0  0  0  0  0  0  0  0  0  0  0  0
  185.2680  179.4070  142.7090 C   0  0  0  0  0  2  0  0  0  0  0  0
  184.2990  178.4150  143.3250 C   0  0  0  0  0  1  0  0  0  0  0  0
  183.7810  179.1830  140.1490 C   0  0  0  0  0  2  0  0  0  0  0  0
  183.1320  178.4880  138.9620 C   0  0  2  0  0  3  0  0  0  0  0  0
  180.8230  177.7740  138.5530 C   0  0  0  0  0  2  0  0  0  0  0  0
  182.4430  179.4930  138.0620 C   0  0  0  0  0  2  0  0  0  0  0  0
  182.0360  177.5360  139.4370 C   0  0  1  0  0  3  0  0  0  0  0  0
  181.2520  178.7620  137.4880 C   0  0  0  0  0  2  0  0  0  0  0  0
  182.4360  176.1190  139.3960 N   0  0  0  0  0  0  0  0  0  0  0  0
  181.4520  175.3770  139.9710 O   0  0  0  0  0  1  0  0  0  0  0  0
  182.5880  175.6920  138.0000 C   0  0  0  0  0  3  0  0  0  0  0  0
  183.1920  173.6820  135.9360 C   0  0  0  0  0  2  0  0  0  0  0  0
  184.1810  174.7910  136.2810 C   0  0  0  0  0  2  0  0  0  0  0  0
  181.7630  174.1460  136.2040 C   0  0  0  0  0  2  0  0  0  0  0  0
  184.0190  175.2060  137.7410 C   0  0  0  0  0  2  0  0  0  0  0  0
  181.6100  174.5590  137.6650 C   0  0  0  0  0  2  0  0  0  0  0  0
  190.1260  177.5900  139.5850 C   0  0  0  0  0  2  0  0  0  0  0  0
  187.5820  176.4500  137.0200 C   0  0  0  0  0  3  0  0  0  0  0  0
  187.3880  177.6230  136.2830 C   0  0  0  0  0  0  0  0  0  0  0  0
  188.9720  178.7780  137.7060 C   0  0  0  0  0  3  0  0  0  0  0  0
  188.4640  176.4430  138.1050 C   0  0  0  0  0  3  0  0  0  0  0  0
  189.1540  177.6090  138.4540 C   0  0  0  0  0  0  0  0  0  0  0  0
  188.0910  178.7840  136.6210 C   0  0  0  0  0  3  0  0  0  0  0  0
  185.1640  177.7500  135.5450 F   0  0  0  0  0  0  0  0  0  0  0  0
  186.4710  177.6240  135.1130 C   0  0  0  0  0  2  0  0  0  0  0  0
  2 12  2  0  0  0  0
  2 11  1  0  0  0  0
  3 16  1  1  0  0  0
  3 10  1  0  0  0  0
  4  8  1  0  0  0  0
  5  1  1  0  0  0  0
  6  1  2  0  0  0  0
  7  4  1  0  0  0  0
  7  9  1  0  0  0  0
  8  6  1  0  0  0  0
  9  5  1  0  0  0  0
 10 11  1  0  0  0  0
 11  7  2  0  0  0  0
 12 15  1  0  0  0  0
 13  2  1  0  0  0  0
 14 13  1  0  0  0  0
 14  3  1  0  0  0  0
 15  4  2  0  0  0  0
 16 19  1  0  0  0  0
 17 16  1  0  0  0  0
 18 17  2  0  0  0  0
 19 20  1  0  0  0  0
 21 17  1  0  0  0  0
 22 25  1  0  0  0  0
 22 21  1  1  0  0  0
 23 25  1  0  0  0  0
 24 22  1  0  0  0  0
 25 27  1  6  0  0  0
 26 24  1  0  0  0  0
 26 23  1  0  0  0  0
 27 28  1  0  0  0  0
 29 27  1  0  0  0  0
 30 32  1  0  0  0  0
 30 31  1  0  0  0  0
 31 33  1  0  0  0  0
 32 34  1  0  0  0  0
 33 29  1  0  0  0  0
 34 29  1  0  0  0  0
 35 13  1  0  0  0  0
 36 39  1  0  0  0  0
 37 41  1  0  0  0  0
 37 36  2  0  0  0  0
 38 40  1  0  0  0  0
 39 40  2  0  0  0  0
 40 35  1  0  0  0  0
 41 38  2  0  0  0  0
 43 42  1  0  0  0  0
 43 37  1  0  0  0  0
M  END
>  <MODEL>
4

>  <REMARK>
 VINA RESULT:      -8.7      2.716      7.800
  Name = 
  9 active torsions:
  status: ('A' for Active; 'I' for Inactive)
    1  A    between atoms: C_1  and  N_34
    2  A    between atoms: C_1  and  C_35
    3  A    between atoms: C_2  and  N_6
    4  A    between atoms: C_3  and  C_4
    5  A    between atoms: C_3  and  C_12
    6  A    between atoms: N_6  and  C_13
    7  A    between atoms: C_11  and  N_14
    8  A    between atoms: N_14  and  C_22
    9  A    between atoms: C_19  and  C_37
                            x       y       z     vdW  Elec       q    Type
                         _______ _______ _______ _____ _____    ______ ____

>  <TORSDO>
F 9

$$$$
=
 OpenBabel10272414363D

 43 48  0  0  1  0  0  0  0  0999 V2000
  189.3940  177.6330  147.9130 C   0  0  0  0  0  3  0  0  0  0  0  0
  189.5360  177.5550  142.4340 C   0  0  0  0  0  0  0  0  0  0  0  0
  186.8530  178.2000  141.7450 C   0  0  2  0  0  3  0  0  0  0  0  0
  190.2630  176.8210  145.0310 C   0  0  0  0  0  0  0  0  0  0  0  0
  188.1670  177.0730  147.2700 C   0  0  0  0  0  2  0  0  0  0  0  0
  190.6000  177.2830  147.4690 C   0  0  0  0  0  3  0  0  0  0  0  0
  188.9680  177.3780  144.8080 C   0  0  0  0  0  0  0  0  0  0  0  0
  190.7410  176.2950  146.3540 C   0  0  0  0  0  2  0  0  0  0  0  0
  187.9700  177.7190  145.9050 C   0  0  0  0  0  2  0  0  0  0  0  0
  187.2800  178.3820  143.2010 C   0  0  0  0  0  2  0  0  0  0  0  0
  188.6170  177.7370  143.4880 C   0  0  0  0  0  0  0  0  0  0  0  0
  190.7820  176.9950  142.7130 C   0  0  0  0  0  3  0  0  0  0  0  0
  189.1740  177.9010  141.0810 N   0  0  0  0  0  0  0  0  0  0  0  0
  187.9670  178.6790  140.8250 C   0  0  0  0  0  2  0  0  0  0  0  0
  191.1070  176.6440  143.9800 N   0  0  0  0  0  0  0  0  0  0  0  0
  185.6050  178.9090  141.4770 N   0  0  0  0  0  0  0  0  0  0  0  0
  185.0620  178.8900  140.1450 C   0  0  0  0  0  0  0  0  0  0  0  0
  185.7550  178.4550  139.1860 O   0  0  0  0  0  0  0  0  0  0  0  0
  184.8640  179.5170  142.5810 C   0  0  0  0  0  2  0  0  0  0  0  0
  184.0960  178.4550  143.3470 C   0  0  0  0  0  1  0  0  0  0  0  0
  183.6610  179.3400  139.8730 C   0  0  0  0  0  2  0  0  0  0  0  0
  182.6920  178.1760  140.0250 C   0  0  2  0  0  3  0  0  0  0  0  0
  181.6390  176.7050  138.3710 C   0  0  0  0  0  2  0  0  0  0  0  0
  183.4300  176.8550  139.9800 C   0  0  0  0  0  2  0  0  0  0  0  0
  181.7120  178.1450  138.8540 C   0  0  1  0  0  3  0  0  0  0  0  0
  182.4680  175.8830  139.3360 C   0  0  0  0  0  2  0  0  0  0  0  0
  180.3700  178.6420  139.2030 N   0  0  0  0  0  0  0  0  0  0  0  0
  180.3420  178.9060  140.5370 O   0  0  0  0  0  1  0  0  0  0  0  0
  180.1020  179.8870  138.4750 C   0  0  0  0  0  3  0  0  0  0  0  0
  180.9080  182.5050  137.3960 C   0  0  0  0  0  2  0  0  0  0  0  0
  180.0210  182.3920  138.6330 C   0  0  0  0  0  2  0  0  0  0  0  0
  180.7030  181.2970  136.4880 C   0  0  0  0  0  2  0  0  0  0  0  0
  180.3300  181.1000  139.3850 C   0  0  0  0  0  2  0  0  0  0  0  0
  181.0130  180.0100  137.2470 C   0  0  0  0  0  2  0  0  0  0  0  0
  189.8780  177.3260  139.9400 C   0  0  0  0  0  2  0  0  0  0  0  0
  187.6270  176.6400  136.9710 C   0  0  0  0  0  3  0  0  0  0  0  0
  187.6600  177.8710  136.3100 C   0  0  0  0  0  0  0  0  0  0  0  0
  189.1310  178.7510  138.0210 C   0  0  0  0  0  3  0  0  0  0  0  0
  188.3400  176.4660  138.1620 C   0  0  0  0  0  3  0  0  0  0  0  0
  189.0850  177.5250  138.6930 C   0  0  0  0  0  0  0  0  0  0  0  0
  188.4190  178.9240  136.8310 C   0  0  0  0  0  3  0  0  0  0  0  0
  185.5980  177.7040  135.2020 F   0  0  0  0  0  0  0  0  0  0  0  0
  186.9250  178.0480  135.0290 C   0  0  0  0  0  2  0  0  0  0  0  0
  2 12  2  0  0  0  0
  2 11  1  0  0  0  0
  3 16  1  1  0  0  0
  3 10  1  0  0  0  0
  4  8  1  0  0  0  0
  5  1  1  0  0  0  0
  6  1  2  0  0  0  0
  7  4  1  0  0  0  0
  7  9  1  0  0  0  0
  8  6  1  0  0  0  0
  9  5  1  0  0  0  0
 10 11  1  0  0  0  0
 11  7  2  0  0  0  0
 12 15  1  0  0  0  0
 13  2  1  0  0  0  0
 14 13  1  0  0  0  0
 14  3  1  0  0  0  0
 15  4  2  0  0  0  0
 16 19  1  0  0  0  0
 17 16  1  0  0  0  0
 18 17  2  0  0  0  0
 19 20  1  0  0  0  0
 21 17  1  0  0  0  0
 22 21  1  6  0  0  0
 23 25  1  0  0  0  0
 23 26  1  0  0  0  0
 24 22  1  0  0  0  0
 25 27  1  1  0  0  0
 25 22  1  0  0  0  0
 26 24  1  0  0  0  0
 27 28  1  0  0  0  0
 29 27  1  0  0  0  0
 29 33  1  0  0  0  0
 30 31  1  0  0  0  0
 31 33  1  0  0  0  0
 32 34  1  0  0  0  0
 32 30  1  0  0  0  0
 34 29  1  0  0  0  0
 35 13  1  0  0  0  0
 36 39  1  0  0  0  0
 37 41  1  0  0  0  0
 37 36  2  0  0  0  0
 38 40  1  0  0  0  0
 39 40  2  0  0  0  0
 40 35  1  0  0  0  0
 41 38  2  0  0  0  0
 43 42  1  0  0  0  0
 43 37  1  0  0  0  0
M  END
>  <MODEL>
5

>  <REMARK>
 VINA RESULT:      -8.6      2.811      8.140
  Name = 
  9 active torsions:
  status: ('A' for Active; 'I' for Inactive)
    1  A    between atoms: C_1  and  N_34
    2  A    between atoms: C_1  and  C_35
    3  A    between atoms: C_2  and  N_6
    4  A    between atoms: C_3  and  C_4
    5  A    between atoms: C_3  and  C_12
    6  A    between atoms: N_6  and  C_13
    7  A    between atoms: C_11  and  N_14
    8  A    between atoms: N_14  and  C_22
    9  A    between atoms: C_19  and  C_37
                            x       y       z     vdW  Elec       q    Type
                         _______ _______ _______ _____ _____    ______ ____

>  <TORSDO>
F 9

$$$$
=
 OpenBabel10272414363D

 43 48  0  0  1  0  0  0  0  0999 V2000
  180.7780  179.7740  140.1850 C   0  0  0  0  0  3  0  0  0  0  0  0
  184.3450  178.6240  144.1860 C   0  0  0  0  0  0  0  0  0  0  0  0
  186.6390  177.7780  142.7320 C   0  0  2  0  0  3  0  0  0  0  0  0
  181.8380  178.8790  142.9770 C   0  0  0  0  0  0  0  0  0  0  0  0
  181.6430  178.5850  139.9210 C   0  0  0  0  0  2  0  0  0  0  0  0
  180.2260  179.9450  141.3850 C   0  0  0  0  0  3  0  0  0  0  0  0
  182.9870  178.7050  142.1510 C   0  0  0  0  0  0  0  0  0  0  0  0
  180.4270  178.9290  142.4650 C   0  0  0  0  0  2  0  0  0  0  0  0
  182.9780  178.7610  140.6300 C   0  0  0  0  0  2  0  0  0  0  0  0
  185.5040  178.4400  141.9520 C   0  0  0  0  0  2  0  0  0  0  0  0
  184.2450  178.5720  142.7800 C   0  0  0  0  0  0  0  0  0  0  0  0
  183.1840  178.7860  144.9390 C   0  0  0  0  0  3  0  0  0  0  0  0
  185.6250  178.4690  144.8330 N   0  0  0  0  0  0  0  0  0  0  0  0
  186.8520  178.5180  144.0450 C   0  0  0  0  0  2  0  0  0  0  0  0
  181.9810  178.9030  144.3290 N   0  0  0  0  0  0  0  0  0  0  0  0
  187.8650  177.7460  141.9390 N   0  0  0  0  0  0  0  0  0  0  0  0
  187.8070  178.1000  140.5460 C   0  0  0  0  0  0  0  0  0  0  0  0
  186.6910  178.2280  139.9720 O   0  0  0  0  0  0  0  0  0  0  0  0
  189.1450  177.4790  142.5930 C   0  0  0  0  0  2  0  0  0  0  0  0
  189.3700  175.9830  142.7180 C   0  0  0  0  0  1  0  0  0  0  0  0
  189.0530  178.3690  139.7630 C   0  0  0  0  0  2  0  0  0  0  0  0
  189.3570  177.2030  138.8340 C   0  0  2  0  0  3  0  0  0  0  0  0
  191.0170  176.9300  137.0500 C   0  0  0  0  0  2  0  0  0  0  0  0
  190.5290  176.3960  139.3520 C   0  0  0  0  0  2  0  0  0  0  0  0
  189.7810  177.7160  137.4590 C   0  0  1  0  0  3  0  0  0  0  0  0
  191.2320  175.8780  138.1200 C   0  0  0  0  0  2  0  0  0  0  0  0
  188.7270  177.5890  136.4380 N   0  0  0  0  0  0  0  0  0  0  0  0
  189.2420  176.9280  135.3670 O   0  0  0  0  0  1  0  0  0  0  0  0
  187.6110  176.8050  136.9790 C   0  0  0  0  0  3  0  0  0  0  0  0
  185.1120  175.2780  136.6880 C   0  0  0  0  0  2  0  0  0  0  0  0
  185.1200  176.6900  137.2660 C   0  0  0  0  0  2  0  0  0  0  0  0
  186.4420  174.5850  136.9690 C   0  0  0  0  0  2  0  0  0  0  0  0
  186.2750  177.4930  136.6760 C   0  0  0  0  0  2  0  0  0  0  0  0
  187.5910  175.3950  136.3760 C   0  0  0  0  0  2  0  0  0  0  0  0
  185.7190  178.0650  146.2310 C   0  0  0  0  0  2  0  0  0  0  0  0
  189.3230  176.8960  146.1900 C   0  0  0  0  0  3  0  0  0  0  0  0
  189.8070  177.4510  147.3780 C   0  0  0  0  0  0  0  0  0  0  0  0
  187.6280  178.4160  147.8140 C   0  0  0  0  0  3  0  0  0  0  0  0
  187.9940  177.1070  145.8090 C   0  0  0  0  0  3  0  0  0  0  0  0
  187.1480  177.8750  146.6160 C   0  0  0  0  0  0  0  0  0  0  0  0
  188.9570  178.2040  148.1950 C   0  0  0  0  0  3  0  0  0  0  0  0
  191.8660  176.4720  146.8240 F   0  0  0  0  0  0  0  0  0  0  0  0
  191.2120  177.2030  147.7970 C   0  0  0  0  0  2  0  0  0  0  0  0
  1  6  2  0  0  0  0
  2 13  1  0  0  0  0
  2 12  1  0  0  0  0
  3 16  1  6  0  0  0
  3 14  1  0  0  0  0
  4 15  1  0  0  0  0
  5  1  1  0  0  0  0
  5  9  1  0  0  0  0
  6  8  1  0  0  0  0
  7 11  1  0  0  0  0
  7  4  2  0  0  0  0
  8  4  1  0  0  0  0
  9  7  1  0  0  0  0
 10  3  1  0  0  0  0
 10 11  1  0  0  0  0
 11  2  2  0  0  0  0
 13 35  1  0  0  0  0
 14 13  1  0  0  0  0
 15 12  2  0  0  0  0
 16 19  1  0  0  0  0
 17 16  1  0  0  0  0
 18 17  2  0  0  0  0
 19 20  1  0  0  0  0
 21 17  1  0  0  0  0
 22 24  1  0  0  0  0
 22 21  1  1  0  0  0
 23 25  1  0  0  0  0
 23 26  1  0  0  0  0
 25 27  1  6  0  0  0
 25 22  1  0  0  0  0
 26 24  1  0  0  0  0
 27 29  1  0  0  0  0
 28 27  1  0  0  0  0
 30 32  1  0  0  0  0
 30 31  1  0  0  0  0
 33 29  1  0  0  0  0
 33 31  1  0  0  0  0
 34 32  1  0  0  0  0
 34 29  1  0  0  0  0
 35 40  1  0  0  0  0
 36 37  1  0  0  0  0
 37 43  1  0  0  0  0
 37 41  2  0  0  0  0
 38 41  1  0  0  0  0
 39 36  2  0  0  0  0
 39 40  1  0  0  0  0
 40 38  2  0  0  0  0
 42 43  1  0  0  0  0
M  END
>  <MODEL>
6

>  <REMARK>
 VINA RESULT:      -8.4      2.783      9.487
  Name = 
  9 active torsions:
  status: ('A' for Active; 'I' for Inactive)
    1  A    between atoms: C_1  and  N_34
    2  A    between atoms: C_1  and  C_35
    3  A    between atoms: C_2  and  N_6
    4  A    between atoms: C_3  and  C_4
    5  A    between atoms: C_3  and  C_12
    6  A    between atoms: N_6  and  C_13
    7  A    between atoms: C_11  and  N_14
    8  A    between atoms: N_14  and  C_22
    9  A    between atoms: C_19  and  C_37
                            x       y       z     vdW  Elec       q    Type
                         _______ _______ _______ _____ _____    ______ ____

>  <TORSDO>
F 9

$$$$
=
 OpenBabel10272414363D

 43 48  0  0  1  0  0  0  0  0999 V2000
  195.6720  174.0420  137.0140 C   0  0  0  0  0  3  0  0  0  0  0  0
  190.7370  176.2000  135.9940 C   0  0  0  0  0  0  0  0  0  0  0  0
  189.8650  176.9780  138.5870 C   0  0  2  0  0  3  0  0  0  0  0  0
  192.9230  174.5000  135.6160 C   0  0  0  0  0  0  0  0  0  0  0  0
  194.6420  173.7500  138.0550 C   0  0  0  0  0  2  0  0  0  0  0  0
  195.3630  173.9440  135.7220 C   0  0  0  0  0  3  0  0  0  0  0  0
  192.6970  175.0550  136.9100 C   0  0  0  0  0  0  0  0  0  0  0  0
  193.9970  173.4980  135.3010 C   0  0  0  0  0  2  0  0  0  0  0  0
  193.6310  174.8870  138.1010 C   0  0  0  0  0  2  0  0  0  0  0  0
  191.3270  176.5680  138.4200 C   0  0  0  0  0  2  0  0  0  0  0  0
  191.5840  175.9080  137.0840 C   0  0  0  0  0  0  0  0  0  0  0  0
  191.0040  175.6170  134.7570 C   0  0  0  0  0  3  0  0  0  0  0  0
  189.5880  177.0530  136.1710 N   0  0  0  0  0  0  0  0  0  0  0  0
  189.4350  177.8260  137.3990 C   0  0  0  0  0  2  0  0  0  0  0  0
  192.0680  174.7930  134.6010 N   0  0  0  0  0  0  0  0  0  0  0  0
  189.6670  177.6920  139.8460 N   0  0  0  0  0  0  0  0  0  0  0  0
  188.3930  178.3090  140.1070 C   0  0  0  0  0  0  0  0  0  0  0  0
  187.5410  178.4150  139.1840 O   0  0  0  0  0  0  0  0  0  0  0  0
  190.7110  177.6640  140.8680 C   0  0  0  0  0  2  0  0  0  0  0  0
  190.4690  176.5220  141.8370 C   0  0  0  0  0  1  0  0  0  0  0  0
  188.0340  178.7930  141.4760 C   0  0  0  0  0  2  0  0  0  0  0  0
  186.7590  178.1190  141.9600 C   0  0  2  0  0  3  0  0  0  0  0  0
  185.0720  178.8080  143.6000 C   0  0  0  0  0  2  0  0  0  0  0  0
  185.5500  178.6770  141.2380 C   0  0  0  0  0  2  0  0  0  0  0  0
  186.5320  178.4130  143.4420 C   0  0  1  0  0  3  0  0  0  0  0  0
  184.4240  178.6170  142.2430 C   0  0  0  0  0  2  0  0  0  0  0  0
  186.8580  177.2760  144.3190 N   0  0  0  0  0  0  0  0  0  0  0  0
  187.4820  176.3240  143.5760 O   0  0  0  0  0  1  0  0  0  0  0  0
  187.7740  177.7190  145.3760 C   0  0  0  0  0  3  0  0  0  0  0  0
  189.3800  177.2580  147.8000 C   0  0  0  0  0  2  0  0  0  0  0  0
  188.0700  178.0380  147.8490 C   0  0  0  0  0  2  0  0  0  0  0  0
  190.0310  177.4050  146.4280 C   0  0  0  0  0  2  0  0  0  0  0  0
  187.1250  177.5500  146.7550 C   0  0  0  0  0  2  0  0  0  0  0  0
  189.0800  176.9150  145.3400 C   0  0  0  0  0  2  0  0  0  0  0  0
  188.4680  177.0150  135.2380 C   0  0  0  0  0  2  0  0  0  0  0  0
  186.1120  174.6010  136.9640 C   0  0  0  0  0  3  0  0  0  0  0  0
  184.9620  175.3850  137.0950 C   0  0  0  0  0  0  0  0  0  0  0  0
  186.1000  177.2350  136.0240 C   0  0  0  0  0  3  0  0  0  0  0  0
  187.2600  175.1370  136.3710 C   0  0  0  0  0  3  0  0  0  0  0  0
  187.2580  176.4570  135.9080 C   0  0  0  0  0  0  0  0  0  0  0  0
  184.9530  176.6990  136.6170 C   0  0  0  0  0  3  0  0  0  0  0  0
  182.7220  174.7710  136.7590 F   0  0  0  0  0  0  0  0  0  0  0  0
  183.7320  174.8070  137.7010 C   0  0  0  0  0  2  0  0  0  0  0  0
  1  5  1  0  0  0  0
  2 13  1  0  0  0  0
  2 11  1  0  0  0  0
  3 16  1  1  0  0  0
  4  7  1  0  0  0  0
  5  9  1  0  0  0  0
  6  1  2  0  0  0  0
  7 11  2  0  0  0  0
  7  9  1  0  0  0  0
  8  4  1  0  0  0  0
  8  6  1  0  0  0  0
 10  3  1  0  0  0  0
 11 10  1  0  0  0  0
 12  2  2  0  0  0  0
 13 14  1  0  0  0  0
 14  3  1  0  0  0  0
 15 12  1  0  0  0  0
 15  4  2  0  0  0  0
 16 17  1  0  0  0  0
 16 19  1  0  0  0  0
 17 21  1  0  0  0  0
 18 17  2  0  0  0  0
 19 20  1  0  0  0  0
 22 21  1  6  0  0  0
 22 25  1  0  0  0  0
 24 22  1  0  0  0  0
 24 26  1  0  0  0  0
 25 23  1  0  0  0  0
 25 27  1  1  0  0  0
 26 23  1  0  0  0  0
 27 29  1  0  0  0  0
 28 27  1  0  0  0  0
 29 33  1  0  0  0  0
 30 31  1  0  0  0  0
 32 30  1  0  0  0  0
 33 31  1  0  0  0  0
 34 29  1  0  0  0  0
 34 32  1  0  0  0  0
 35 40  1  0  0  0  0
 35 13  1  0  0  0  0
 36 37  1  0  0  0  0
 37 43  1  0  0  0  0
 38 41  1  0  0  0  0
 39 36  2  0  0  0  0
 40 38  2  0  0  0  0
 40 39  1  0  0  0  0
 41 37  2  0  0  0  0
 42 43  1  0  0  0  0
M  END
>  <MODEL>
7

>  <REMARK>
 VINA RESULT:      -8.4      2.018      3.064
  Name = 
  9 active torsions:
  status: ('A' for Active; 'I' for Inactive)
    1  A    between atoms: C_1  and  N_34
    2  A    between atoms: C_1  and  C_35
    3  A    between atoms: C_2  and  N_6
    4  A    between atoms: C_3  and  C_4
    5  A    between atoms: C_3  and  C_12
    6  A    between atoms: N_6  and  C_13
    7  A    between atoms: C_11  and  N_14
    8  A    between atoms: N_14  and  C_22
    9  A    between atoms: C_19  and  C_37
                            x       y       z     vdW  Elec       q    Type
                         _______ _______ _______ _____ _____    ______ ____

>  <TORSDO>
F 9

$$$$
=
 OpenBabel10272414363D

 43 48  0  0  1  0  0  0  0  0999 V2000
  189.4310  176.4960  147.6270 C   0  0  0  0  0  3  0  0  0  0  0  0
  186.5030  178.2220  143.3260 C   0  0  0  0  0  0  0  0  0  0  0  0
  188.4020  178.1080  141.2110 C   0  0  2  0  0  3  0  0  0  0  0  0
  187.2640  178.0480  146.0100 C   0  0  0  0  0  0  0  0  0  0  0  0
  190.1880  177.3520  146.6660 C   0  0  0  0  0  2  0  0  0  0  0  0
  188.1950  176.8320  147.9910 C   0  0  0  0  0  3  0  0  0  0  0  0
  188.2190  177.7280  145.0000 C   0  0  0  0  0  0  0  0  0  0  0  0
  187.5700  178.0920  147.4790 C   0  0  0  0  0  2  0  0  0  0  0  0
  189.6130  177.1770  145.2680 C   0  0  0  0  0  2  0  0  0  0  0  0
  188.7720  177.4470  142.5380 C   0  0  0  0  0  2  0  0  0  0  0  0
  187.8180  177.8270  143.6490 C   0  0  0  0  0  0  0  0  0  0  0  0
  185.6190  178.5330  144.3570 C   0  0  0  0  0  3  0  0  0  0  0  0
  186.0960  178.3450  141.9470 N   0  0  0  0  0  0  0  0  0  0  0  0
  186.9450  177.8150  140.8850 C   0  0  0  0  0  2  0  0  0  0  0  0
  186.0150  178.4440  145.6490 N   0  0  0  0  0  0  0  0  0  0  0  0
  189.2850  177.6530  140.1400 N   0  0  0  0  0  0  0  0  0  0  0  0
  189.0750  178.1450  138.8050 C   0  0  0  0  0  0  0  0  0  0  0  0
  188.0270  178.7850  138.5240 O   0  0  0  0  0  0  0  0  0  0  0  0
  190.4350  176.8090  140.4580 C   0  0  0  0  0  2  0  0  0  0  0  0
  191.6190  177.6660  140.8690 C   0  0  0  0  0  1  0  0  0  0  0  0
  190.1070  177.9510  137.7380 C   0  0  0  0  0  2  0  0  0  0  0  0
  189.6950  176.8270  136.8000 C   0  0  2  0  0  3  0  0  0  0  0  0
  187.8380  175.2280  136.8870 C   0  0  0  0  0  2  0  0  0  0  0  0
  188.5900  177.2820  135.8690 C   0  0  0  0  0  2  0  0  0  0  0  0
  189.1140  175.6580  137.5930 C   0  0  1  0  0  3  0  0  0  0  0  0
  187.7470  176.0530  135.6200 C   0  0  0  0  0  2  0  0  0  0  0  0
  190.0420  174.5210  137.7210 N   0  0  0  0  0  0  0  0  0  0  0  0
  189.3970  173.3910  137.3270 O   0  0  0  0  0  1  0  0  0  0  0  0
  191.1980  174.7300  136.8410 C   0  0  0  0  0  3  0  0  0  0  0  0
  193.7610  173.8970  135.6580 C   0  0  0  0  0  2  0  0  0  0  0  0
  193.6950  174.9710  136.7390 C   0  0  0  0  0  2  0  0  0  0  0  0
  192.4670  173.8810  134.8500 C   0  0  0  0  0  2  0  0  0  0  0  0
  192.4990  174.7250  137.6530 C   0  0  0  0  0  2  0  0  0  0  0  0
  191.2760  173.6340  135.7710 C   0  0  0  0  0  2  0  0  0  0  0  0
  184.9480  179.1610  141.5700 C   0  0  0  0  0  2  0  0  0  0  0  0
  183.5480  178.4490  138.1220 C   0  0  0  0  0  3  0  0  0  0  0  0
  182.7330  177.3420  138.3780 C   0  0  0  0  0  0  0  0  0  0  0  0
  183.3700  177.4130  140.7140 C   0  0  0  0  0  3  0  0  0  0  0  0
  184.2800  179.0340  139.1600 C   0  0  0  0  0  3  0  0  0  0  0  0
  184.1990  178.5110  140.4550 C   0  0  0  0  0  0  0  0  0  0  0  0
  182.6370  176.8300  139.6760 C   0  0  0  0  0  3  0  0  0  0  0  0
  181.0210  175.8420  137.8070 F   0  0  0  0  0  0  0  0  0  0  0  0
  181.9320  176.7370  137.2800 C   0  0  0  0  0  2  0  0  0  0  0  0
  1  6  2  0  0  0  0
  2 11  2  0  0  0  0
  2 12  1  0  0  0  0
  3 16  1  6  0  0  0
  3 10  1  0  0  0  0
  4  8  1  0  0  0  0
  5  1  1  0  0  0  0
  7  9  1  0  0  0  0
  7  4  2  0  0  0  0
  8  6  1  0  0  0  0
  9  5  1  0  0  0  0
 10 11  1  0  0  0  0
 11  7  1  0  0  0  0
 12 15  2  0  0  0  0
 13  2  1  0  0  0  0
 14  3  1  0  0  0  0
 14 13  1  0  0  0  0
 15  4  1  0  0  0  0
 16 19  1  0  0  0  0
 17 16  1  0  0  0  0
 18 17  2  0  0  0  0
 19 20  1  0  0  0  0
 21 17  1  0  0  0  0
 22 25  1  0  0  0  0
 22 21  1  1  0  0  0
 23 25  1  0  0  0  0
 24 22  1  0  0  0  0
 25 27  1  6  0  0  0
 26 24  1  0  0  0  0
 26 23  1  0  0  0  0
 28 27  1  0  0  0  0
 29 33  1  0  0  0  0
 29 27  1  0  0  0  0
 30 31  1  0  0  0  0
 31 33  1  0  0  0  0
 32 30  1  0  0  0  0
 32 34  1  0  0  0  0
 34 29  1  0  0  0  0
 35 13  1  0  0  0  0
 36 37  2  0  0  0  0
 36 39  1  0  0  0  0
 37 41  1  0  0  0  0
 39 40  2  0  0  0  0
 40 38  1  0  0  0  0
 40 35  1  0  0  0  0
 41 38  2  0  0  0  0
 43 42  1  0  0  0  0
 43 37  1  0  0  0  0
M  END
>  <MODEL>
8

>  <REMARK>
 VINA RESULT:      -8.4      2.042      8.095
  Name = 
  9 active torsions:
  status: ('A' for Active; 'I' for Inactive)
    1  A    between atoms: C_1  and  N_34
    2  A    between atoms: C_1  and  C_35
    3  A    between atoms: C_2  and  N_6
    4  A    between atoms: C_3  and  C_4
    5  A    between atoms: C_3  and  C_12
    6  A    between atoms: N_6  and  C_13
    7  A    between atoms: C_11  and  N_14
    8  A    between atoms: N_14  and  C_22
    9  A    between atoms: C_19  and  C_37
                            x       y       z     vdW  Elec       q    Type
                         _______ _______ _______ _____ _____    ______ ____

>  <TORSDO>
F 9

$$$$
=
 OpenBabel10272414363D

 43 48  0  0  1  0  0  0  0  0999 V2000
  190.0410  178.5440  144.7220 C   0  0  0  0  0  3  0  0  0  0  0  0
  190.1910  177.5310  139.3370 C   0  0  0  0  0  0  0  0  0  0  0  0
  187.4370  177.5950  138.6280 C   0  0  2  0  0  3  0  0  0  0  0  0
  191.0320  177.3940  141.9990 C   0  0  0  0  0  0  0  0  0  0  0  0
  188.9250  177.6860  144.2220 C   0  0  0  0  0  2  0  0  0  0  0  0
  191.2880  178.3260  144.3090 C   0  0  0  0  0  3  0  0  0  0  0  0
  189.6620  177.6820  141.7220 C   0  0  0  0  0  0  0  0  0  0  0  0
  191.5920  177.1940  143.3780 C   0  0  0  0  0  2  0  0  0  0  0  0
  188.6220  178.0410  142.7730 C   0  0  0  0  0  2  0  0  0  0  0  0
  187.8280  178.0970  140.0170 C   0  0  0  0  0  2  0  0  0  0  0  0
  189.2550  177.7420  140.3700 C   0  0  0  0  0  0  0  0  0  0  0  0
  191.5130  177.2430  139.6710 C   0  0  0  0  0  3  0  0  0  0  0  0
  189.7750  177.5710  137.9560 N   0  0  0  0  0  0  0  0  0  0  0  0
  188.4540  178.0830  137.6060 C   0  0  0  0  0  2  0  0  0  0  0  0
  191.8930  177.1780  140.9700 N   0  0  0  0  0  0  0  0  0  0  0  0
  186.0870  178.0310  138.2790 N   0  0  0  0  0  0  0  0  0  0  0  0
  185.3920  178.9300  139.1610 C   0  0  0  0  0  0  0  0  0  0  0  0
  185.8500  179.1680  140.3110 O   0  0  0  0  0  0  0  0  0  0  0  0
  185.5140  177.6510  136.9890 C   0  0  0  0  0  2  0  0  0  0  0  0
  185.6600  176.1560  136.7680 C   0  0  0  0  0  1  0  0  0  0  0  0
  184.1470  179.6340  138.7240 C   0  0  0  0  0  2  0  0  0  0  0  0
  182.9410  178.7170  138.8640 C   0  0  2  0  0  3  0  0  0  0  0  0
  180.6870  179.1100  139.7430 C   0  0  0  0  0  2  0  0  0  0  0  0
  181.9780  178.9170  137.7140 C   0  0  0  0  0  2  0  0  0  0  0  0
  182.1570  179.0610  140.1290 C   0  0  1  0  0  3  0  0  0  0  0  0
  180.6060  178.6690  138.2960 C   0  0  0  0  0  2  0  0  0  0  0  0
  182.3710  178.1030  141.2270 N   0  0  0  0  0  0  0  0  0  0  0  0
  183.1300  177.0760  140.7610 O   0  0  0  0  0  1  0  0  0  0  0  0
  183.0960  178.7620  142.3190 C   0  0  0  0  0  3  0  0  0  0  0  0
  184.3080  178.7940  145.0020 C   0  0  0  0  0  2  0  0  0  0  0  0
  182.9870  179.5020  144.7160 C   0  0  0  0  0  2  0  0  0  0  0  0
  185.1640  178.7460  143.7400 C   0  0  0  0  0  2  0  0  0  0  0  0
  182.2410  178.7900  143.5920 C   0  0  0  0  0  2  0  0  0  0  0  0
  184.4110  178.0330  142.6210 C   0  0  0  0  0  2  0  0  0  0  0  0
  190.5640  176.9290  136.9110 C   0  0  0  0  0  2  0  0  0  0  0  0
  188.6560  174.4950  134.7240 C   0  0  0  0  0  3  0  0  0  0  0  0
  188.5310  173.3950  135.5780 C   0  0  0  0  0  0  0  0  0  0  0  0
  189.7410  174.5950  137.2990 C   0  0  0  0  0  3  0  0  0  0  0  0
  189.3300  175.6420  135.1530 C   0  0  0  0  0  3  0  0  0  0  0  0
  189.8820  175.6900  136.4390 C   0  0  0  0  0  0  0  0  0  0  0  0
  189.0660  173.4490  136.8690 C   0  0  0  0  0  3  0  0  0  0  0  0
  188.0640  171.1310  135.9810 F   0  0  0  0  0  0  0  0  0  0  0  0
  187.7900  172.1850  135.1320 C   0  0  0  0  0  2  0  0  0  0  0  0
  2 12  2  0  0  0  0
  2 11  1  0  0  0  0
  3 16  1  6  0  0  0
  3 10  1  0  0  0  0
  4  8  1  0  0  0  0
  5  1  1  0  0  0  0
  6  1  2  0  0  0  0
  7  4  1  0  0  0  0
  7  9  1  0  0  0  0
  8  6  1  0  0  0  0
  9  5  1  0  0  0  0
 10 11  1  0  0  0  0
 11  7  2  0  0  0  0
 12 15  1  0  0  0  0
 13  2  1  0  0  0  0
 14 13  1  0  0  0  0
 14  3  1  0  0  0  0
 15  4  2  0  0  0  0
 16 17  1  0  0  0  0
 17 18  2  0  0  0  0
 19 16  1  0  0  0  0
 20 19  1  0  0  0  0
 21 17  1  0  0  0  0
 22 21  1  6  0  0  0
 22 25  1  0  0  0  0
 23 25  1  0  0  0  0
 24 26  1  0  0  0  0
 24 22  1  0  0  0  0
 25 27  1  1  0  0  0
 26 23  1  0  0  0  0
 27 29  1  0  0  0  0
 28 27  1  0  0  0  0
 29 34  1  0  0  0  0
 29 33  1  0  0  0  0
 31 30  1  0  0  0  0
 32 30  1  0  0  0  0
 33 31  1  0  0  0  0
 34 32  1  0  0  0  0
 35 13  1  0  0  0  0
 36 39  2  0  0  0  0
 36 37  1  0  0  0  0
 37 41  2  0  0  0  0
 39 40  1  0  0  0  0
 40 35  1  0  0  0  0
 40 38  2  0  0  0  0
 41 38  1  0  0  0  0
 43 37  1  0  0  0  0
 43 42  1  0  0  0  0
M  END
>  <MODEL>
9

>  <REMARK>
 VINA RESULT:      -8.2      2.751      6.378
  Name = 
  9 active torsions:
  status: ('A' for Active; 'I' for Inactive)
    1  A    between atoms: C_1  and  N_34
    2  A    between atoms: C_1  and  C_35
    3  A    between atoms: C_2  and  N_6
    4  A    between atoms: C_3  and  C_4
    5  A    between atoms: C_3  and  C_12
    6  A    between atoms: N_6  and  C_13
    7  A    between atoms: C_11  and  N_14
    8  A    between atoms: N_14  and  C_22
    9  A    between atoms: C_19  and  C_37
                            x       y       z     vdW  Elec       q    Type
                         _______ _______ _______ _____ _____    ______ ____

>  <TORSDO>
F 9

$$$$
