=
 OpenBabel10272413543D

 30 33  0  0  1  0  0  0  0  0999 V2000
  190.4840  176.0100  139.5510 O   0  0  0  0  0  0  0  0  0  0  0  0
  190.1120  177.1100  141.6750 C   0  0  0  0  0  0  0  0  0  0  0  0
  188.5310  178.5530  137.5330 C   0  0  0  0  0  2  0  0  0  0  0  0
  190.3240  175.9060  138.1360 C   0  0  2  0  0  0  0  0  0  0  0  0
  191.7550  174.8920  136.5240 C   0  0  0  0  0  2  0  0  0  0  0  0
  190.9120  174.5600  137.7090 C   0  0  2  0  0  3  0  0  0  0  0  0
  187.9270  178.3560  136.1530 C   0  0  0  0  0  2  0  0  0  0  0  0
  191.0690  176.9370  137.5200 O   0  0  0  0  0  0  0  0  0  0  0  0
  189.3650  177.9780  142.4760 C   0  0  0  0  0  3  0  0  0  0  0  0
  191.2190  176.4630  142.2090 O   0  0  0  0  0  1  0  0  0  0  0  0
  188.2000  177.3350  138.3840 C   0  0  1  0  0  3  0  0  0  0  0  0
  188.2470  178.6300  141.9510 C   0  0  0  0  0  3  0  0  0  0  0  0
  189.7430  176.8960  140.3400 C   0  0  0  0  0  0  0  0  0  0  0  0
  188.8260  176.0660  137.7610 C   0  0  1  0  0  3  0  0  0  0  0  0
  188.2920  177.0120  135.5790 C   0  0  0  0  0  3  0  0  0  0  0  0
  188.6450  176.0100  136.3160 N   0  0  0  0  0  0  0  0  0  0  0  0
  192.0930  176.3430  136.7550 C   0  0  1  0  0  3  0  0  0  0  0  0
  187.8730  178.4150  140.6220 C   0  0  0  0  0  3  0  0  0  0  0  0
  188.6160  177.5500  139.8110 C   0  0  0  0  0  0  0  0  0  0  0  0
  189.9400  173.6070  137.3800 O   0  0  0  0  0  0  0  0  0  0  0  0
  190.3370  173.1070  136.1360 C   0  0  0  0  0  2  0  0  0  0  0  0
  188.7460  173.1840  134.3460 O   0  0  0  0  0  1  0  0  0  0  0  0
  189.1740  172.4200  135.4320 C   0  0  2  0  0  3  0  0  0  0  0  0
  188.0220  172.1950  136.3920 C   0  0  0  0  0  1  0  0  0  0  0  0
  193.4290  176.4560  137.4850 C   0  0  0  0  0  2  0  0  0  0  0  0
  194.5190  176.0370  136.6180 N   0  0  0  0  0  2  0  0  0  0  0  0
  194.7490  177.0880  135.7210 N   0  0  0  0  0  2  0  0  0  0  0  0
  197.0650  176.8160  135.7710 O   0  0  0  0  0  0  0  0  0  0  0  0
  196.0690  177.4400  135.3170 C   0  0  0  0  0  0  0  0  0  0  0  0
  196.2720  178.5470  134.3460 C   0  0  0  0  0  1  0  0  0  0  0  0
  1 13  1  0  0  0  0
  2 10  1  0  0  0  0
  2  9  1  0  0  0  0
  4  8  1  6  0  0  0
  4  1  1  0  0  0  0
  5 17  1  0  0  0  0
  5  6  1  0  0  0  0
  6 20  1  6  0  0  0
  6  4  1  0  0  0  0
  7  3  1  0  0  0  0
 11  3  1  6  0  0  0
 11 19  1  0  0  0  0
 12  9  2  0  0  0  0
 13  2  2  0  0  0  0
 14 16  1  6  0  0  0
 14  4  1  0  0  0  0
 14 11  1  0  0  0  0
 15  7  1  0  0  0  0
 15 16  2  0  0  0  0
 17 25  1  1  0  0  0
 17  8  1  0  0  0  0
 18 12  1  0  0  0  0
 19 13  1  0  0  0  0
 19 18  2  0  0  0  0
 21 20  1  0  0  0  0
 22 23  1  0  0  0  0
 23 21  1  0  0  0  0
 23 24  1  1  0  0  0
 26 25  1  0  0  0  0
 27 26  1  0  0  0  0
 29 27  1  0  0  0  0
 29 28  2  0  0  0  0
 30 29  1  0  0  0  0
M  END
>  <MODEL>
1

>  <REMARK>
 VINA RESULT:      -6.5      0.000      0.000
  Name = 
  6 active torsions:
  status: ('A' for Active; 'I' for Inactive)
    1  A    between atoms: N_7  and  N_16
    2  A    between atoms: C_8  and  O_12
    3  A    between atoms: C_9  and  O_12
    4  A    between atoms: C_9  and  C_17
    5  A    between atoms: N_16  and  C_30
    6  A    between atoms: C_27  and  C_30
                            x       y       z     vdW  Elec       q    Type
                         _______ _______ _______ _____ _____    ______ ____

>  <TORSDO>
F 6

$$$$
=
 OpenBabel10272413543D

 30 33  0  0  1  0  0  0  0  0999 V2000
  188.9610  174.9310  137.5770 O   0  0  0  0  0  0  0  0  0  0  0  0
  188.1280  173.1120  136.2130 C   0  0  0  0  0  0  0  0  0  0  0  0
  192.1490  175.3850  135.5800 C   0  0  0  0  0  2  0  0  0  0  0  0
  189.9390  175.9170  137.9080 C   0  0  2  0  0  0  0  0  0  0  0  0
  189.6590  178.0150  139.0010 C   0  0  0  0  0  2  0  0  0  0  0  0
  189.5170  176.5490  139.2360 C   0  0  2  0  0  3  0  0  0  0  0  0
  193.4300  176.0590  136.0430 C   0  0  0  0  0  2  0  0  0  0  0  0
  189.9280  176.9180  136.9110 O   0  0  0  0  0  0  0  0  0  0  0  0
  188.3580  172.0660  135.3160 C   0  0  0  0  0  3  0  0  0  0  0  0
  186.8360  173.3680  136.6550 O   0  0  0  0  0  1  0  0  0  0  0  0
  191.6650  174.4550  136.6840 C   0  0  1  0  0  3  0  0  0  0  0  0
  189.6540  171.7980  134.8680 C   0  0  0  0  0  3  0  0  0  0  0  0
  189.1970  173.8990  136.6630 C   0  0  0  0  0  0  0  0  0  0  0  0
  191.3480  175.2670  137.9600 C   0  0  1  0  0  3  0  0  0  0  0  0
  193.2700  176.6620  137.4140 C   0  0  0  0  0  3  0  0  0  0  0  0
  192.3690  176.2650  138.2520 N   0  0  0  0  0  0  0  0  0  0  0  0
  189.5110  178.1260  137.5050 C   0  0  1  0  0  3  0  0  0  0  0  0
  190.7230  172.5770  135.3180 C   0  0  0  0  0  3  0  0  0  0  0  0
  190.5030  173.6280  136.2150 C   0  0  0  0  0  0  0  0  0  0  0  0
  190.2990  176.1370  140.3220 O   0  0  0  0  0  0  0  0  0  0  0  0
  190.1590  177.1580  141.2690 C   0  0  0  0  0  2  0  0  0  0  0  0
  190.3560  175.2860  142.7500 O   0  0  0  0  0  1  0  0  0  0  0  0
  189.8510  176.5820  142.6440 C   0  0  2  0  0  3  0  0  0  0  0  0
  188.3570  176.5770  142.9020 C   0  0  0  0  0  1  0  0  0  0  0  0
  188.0550  178.4150  137.1470 C   0  0  0  0  0  2  0  0  0  0  0  0
  187.2820  178.6940  138.3460 N   0  0  0  0  0  2  0  0  0  0  0  0
  185.9450  178.4030  138.0430 N   0  0  0  0  0  2  0  0  0  0  0  0
  185.1260  179.5240  139.9160 O   0  0  0  0  0  0  0  0  0  0  0  0
  184.8820  178.8570  138.8760 C   0  0  0  0  0  0  0  0  0  0  0  0
  183.4750  178.5480  138.5090 C   0  0  0  0  0  1  0  0  0  0  0  0
  1  4  1  0  0  0  0
  2 10  1  0  0  0  0
  2 13  1  0  0  0  0
  3  7  1  0  0  0  0
  4  8  1  6  0  0  0
  4 14  1  0  0  0  0
  4  6  1  0  0  0  0
  5  6  1  0  0  0  0
  6 20  1  1  0  0  0
  7 15  1  0  0  0  0
  8 17  1  0  0  0  0
  9  2  2  0  0  0  0
 11  3  1  6  0  0  0
 11 14  1  0  0  0  0
 12  9  1  0  0  0  0
 12 18  2  0  0  0  0
 13  1  1  0  0  0  0
 14 16  1  6  0  0  0
 15 16  2  0  0  0  0
 17 25  1  1  0  0  0
 17  5  1  0  0  0  0
 18 19  1  0  0  0  0
 19 13  2  0  0  0  0
 19 11  1  0  0  0  0
 20 21  1  0  0  0  0
 21 23  1  0  0  0  0
 23 22  1  0  0  0  0
 23 24  1  6  0  0  0
 25 26  1  0  0  0  0
 27 26  1  0  0  0  0
 27 29  1  0  0  0  0
 29 28  2  0  0  0  0
 30 29  1  0  0  0  0
M  END
>  <MODEL>
2

>  <REMARK>
 VINA RESULT:      -6.3      2.311      7.170
  Name = 
  6 active torsions:
  status: ('A' for Active; 'I' for Inactive)
    1  A    between atoms: N_7  and  N_16
    2  A    between atoms: C_8  and  O_12
    3  A    between atoms: C_9  and  O_12
    4  A    between atoms: C_9  and  C_17
    5  A    between atoms: N_16  and  C_30
    6  A    between atoms: C_27  and  C_30
                            x       y       z     vdW  Elec       q    Type
                         _______ _______ _______ _____ _____    ______ ____

>  <TORSDO>
F 6

$$$$
=
 OpenBabel10272413543D

 30 33  0  0  1  0  0  0  0  0999 V2000
  190.5620  175.9680  139.4760 O   0  0  0  0  0  0  0  0  0  0  0  0
  190.1610  177.0830  141.5870 C   0  0  0  0  0  0  0  0  0  0  0  0
  188.7150  178.5470  137.4040 C   0  0  0  0  0  2  0  0  0  0  0  0
  190.4340  175.8640  138.0580 C   0  0  2  0  0  0  0  0  0  0  0  0
  191.8830  174.8140  136.4840 C   0  0  0  0  0  2  0  0  0  0  0  0
  191.0030  174.5040  137.6490 C   0  0  2  0  0  3  0  0  0  0  0  0
  188.1410  178.3590  136.0090 C   0  0  0  0  0  2  0  0  0  0  0  0
  191.2160  176.8760  137.4570 O   0  0  0  0  0  0  0  0  0  0  0  0
  189.4130  177.9690  142.3670 C   0  0  0  0  0  3  0  0  0  0  0  0
  191.2400  176.4140  142.1500 O   0  0  0  0  0  1  0  0  0  0  0  0
  188.3360  177.3380  138.2500 C   0  0  1  0  0  3  0  0  0  0  0  0
  188.3230  178.6430  141.8120 C   0  0  0  0  0  3  0  0  0  0  0  0
  189.8210  176.8720  140.2440 C   0  0  0  0  0  0  0  0  0  0  0  0
  188.9500  176.0550  137.6450 C   0  0  1  0  0  3  0  0  0  0  0  0
  188.4900  177.0050  135.4480 C   0  0  0  0  0  3  0  0  0  0  0  0
  188.8030  175.9980  136.1960 N   0  0  0  0  0  0  0  0  0  0  0  0
  192.2460  176.2570  136.7200 C   0  0  1  0  0  3  0  0  0  0  0  0
  187.9780  178.4330  140.4750 C   0  0  0  0  0  3  0  0  0  0  0  0
  188.7210  177.5490  139.6850 C   0  0  0  0  0  0  0  0  0  0  0  0
  190.0200  173.5710  137.2990 O   0  0  0  0  0  0  0  0  0  0  0  0
  190.4520  173.0360  136.0800 C   0  0  0  0  0  2  0  0  0  0  0  0
  188.1310  172.4410  136.0620 O   0  0  0  0  0  1  0  0  0  0  0  0
  189.2720  172.5280  135.2630 C   0  0  2  0  0  3  0  0  0  0  0  0
  189.5810  171.1740  134.6550 C   0  0  0  0  0  1  0  0  0  0  0  0
  193.5660  176.3440  137.4820 C   0  0  0  0  0  2  0  0  0  0  0  0
  194.6890  176.1500  136.5790 N   0  0  0  0  0  2  0  0  0  0  0  0
  195.4360  175.0790  137.0870 N   0  0  0  0  0  2  0  0  0  0  0  0
  197.4620  175.9410  136.3180 O   0  0  0  0  0  0  0  0  0  0  0  0
  196.8510  175.0250  136.9300 C   0  0  0  0  0  0  0  0  0  0  0  0
  197.6130  173.8840  137.5020 C   0  0  0  0  0  1  0  0  0  0  0  0
  1 13  1  0  0  0  0
  2 10  1  0  0  0  0
  2  9  1  0  0  0  0
  4  8  1  6  0  0  0
  4  1  1  0  0  0  0
  5 17  1  0  0  0  0
  5  6  1  0  0  0  0
  6 20  1  6  0  0  0
  6  4  1  0  0  0  0
  7  3  1  0  0  0  0
 11  3  1  6  0  0  0
 11 19  1  0  0  0  0
 12  9  2  0  0  0  0
 13  2  2  0  0  0  0
 14 16  1  6  0  0  0
 14  4  1  0  0  0  0
 14 11  1  0  0  0  0
 15  7  1  0  0  0  0
 15 16  2  0  0  0  0
 17  8  1  0  0  0  0
 17 25  1  1  0  0  0
 18 12  1  0  0  0  0
 19 13  1  0  0  0  0
 19 18  2  0  0  0  0
 21 20  1  0  0  0  0
 23 24  1  1  0  0  0
 23 22  1  0  0  0  0
 23 21  1  0  0  0  0
 26 27  1  0  0  0  0
 26 25  1  0  0  0  0
 28 29  2  0  0  0  0
 29 27  1  0  0  0  0
 29 30  1  0  0  0  0
M  END
>  <MODEL>
3

>  <REMARK>
 VINA RESULT:      -6.1      1.139      1.428
  Name = 
  6 active torsions:
  status: ('A' for Active; 'I' for Inactive)
    1  A    between atoms: N_7  and  N_16
    2  A    between atoms: C_8  and  O_12
    3  A    between atoms: C_9  and  O_12
    4  A    between atoms: C_9  and  C_17
    5  A    between atoms: N_16  and  C_30
    6  A    between atoms: C_27  and  C_30
                            x       y       z     vdW  Elec       q    Type
                         _______ _______ _______ _____ _____    ______ ____

>  <TORSDO>
F 6

$$$$
=
 OpenBabel10272413543D

 30 33  0  0  1  0  0  0  0  0999 V2000
  185.0280  178.4800  138.2430 O   0  0  0  0  0  0  0  0  0  0  0  0
  187.1890  177.8070  137.3830 C   0  0  0  0  0  0  0  0  0  0  0  0
  183.4410  175.0670  137.8080 C   0  0  0  0  0  2  0  0  0  0  0  0
  183.6700  178.2160  138.5930 C   0  0  2  0  0  0  0  0  0  0  0  0
  182.3030  179.2630  140.2400 C   0  0  0  0  0  2  0  0  0  0  0  0
  183.0290  179.5530  138.9690 C   0  0  2  0  0  3  0  0  0  0  0  0
  181.9560  174.7540  137.7230 C   0  0  0  0  0  2  0  0  0  0  0  0
  183.6490  177.3740  139.7280 O   0  0  0  0  0  0  0  0  0  0  0  0
  187.9720  176.9400  136.6170 C   0  0  0  0  0  3  0  0  0  0  0  0
  187.7870  178.8760  138.0370 O   0  0  0  0  0  1  0  0  0  0  0  0
  183.7330  176.2670  136.9160 C   0  0  1  0  0  3  0  0  0  0  0  0
  187.3800  175.8630  135.9520 C   0  0  0  0  0  3  0  0  0  0  0  0
  185.8080  177.5950  137.4910 C   0  0  0  0  0  0  0  0  0  0  0  0
  182.9500  177.5030  137.4170 C   0  0  1  0  0  3  0  0  0  0  0  0
  181.1190  175.9850  137.9520 C   0  0  0  0  0  3  0  0  0  0  0  0
  181.5720  177.1820  137.7700 N   0  0  0  0  0  0  0  0  0  0  0  0
  183.0650  178.0870  140.7940 C   0  0  1  0  0  3  0  0  0  0  0  0
  186.0030  175.6510  136.0520 C   0  0  0  0  0  3  0  0  0  0  0  0
  185.2110  176.5130  136.8190 C   0  0  0  0  0  0  0  0  0  0  0  0
  182.1530  180.0460  137.9940 O   0  0  0  0  0  0  0  0  0  0  0  0
  181.6900  181.2600  138.5100 C   0  0  0  0  0  2  0  0  0  0  0  0
  180.8150  181.3350  136.2810 O   0  0  0  0  0  1  0  0  0  0  0  0
  180.7230  181.9270  137.5410 C   0  0  2  0  0  3  0  0  0  0  0  0
  181.0060  183.4130  137.4360 C   0  0  0  0  0  1  0  0  0  0  0  0
  184.1450  178.5730  141.7580 C   0  0  0  0  0  2  0  0  0  0  0  0
  183.6680  178.5100  143.1300 N   0  0  0  0  0  2  0  0  0  0  0  0
  184.8010  178.4330  143.9490 N   0  0  0  0  0  2  0  0  0  0  0  0
  183.6480  179.1200  145.8560 O   0  0  0  0  0  0  0  0  0  0  0  0
  184.7340  178.7490  145.3370 C   0  0  0  0  0  0  0  0  0  0  0  0
  185.9530  178.6330  146.1790 C   0  0  0  0  0  1  0  0  0  0  0  0
  2 13  1  0  0  0  0
  2 10  1  0  0  0  0
  4  1  1  6  0  0  0
  4  6  1  0  0  0  0
  4  8  1  0  0  0  0
  5 17  1  0  0  0  0
  6 20  1  6  0  0  0
  6  5  1  0  0  0  0
  7  3  1  0  0  0  0
  7 15  1  0  0  0  0
  8 17  1  0  0  0  0
  9  2  2  0  0  0  0
 11 14  1  0  0  0  0
 11  3  1  1  0  0  0
 12 18  2  0  0  0  0
 12  9  1  0  0  0  0
 13  1  1  0  0  0  0
 14 16  1  1  0  0  0
 14  4  1  0  0  0  0
 16 15  2  0  0  0  0
 17 25  1  1  0  0  0
 18 19  1  0  0  0  0
 19 11  1  0  0  0  0
 19 13  2  0  0  0  0
 20 21  1  0  0  0  0
 22 23  1  0  0  0  0
 23 24  1  6  0  0  0
 23 21  1  0  0  0  0
 25 26  1  0  0  0  0
 26 27  1  0  0  0  0
 27 29  1  0  0  0  0
 29 28  2  0  0  0  0
 29 30  1  0  0  0  0
M  END
>  <MODEL>
4

>  <REMARK>
 VINA RESULT:      -6.0      6.237      9.789
  Name = 
  6 active torsions:
  status: ('A' for Active; 'I' for Inactive)
    1  A    between atoms: N_7  and  N_16
    2  A    between atoms: C_8  and  O_12
    3  A    between atoms: C_9  and  O_12
    4  A    between atoms: C_9  and  C_17
    5  A    between atoms: N_16  and  C_30
    6  A    between atoms: C_27  and  C_30
                            x       y       z     vdW  Elec       q    Type
                         _______ _______ _______ _____ _____    ______ ____

>  <TORSDO>
F 6

$$$$
=
 OpenBabel10272413543D

 30 33  0  0  1  0  0  0  0  0999 V2000
  191.7200  176.5530  136.8210 O   0  0  0  0  0  0  0  0  0  0  0  0
  193.8790  175.7020  136.1320 C   0  0  0  0  0  0  0  0  0  0  0  0
  190.0420  173.1560  136.8590 C   0  0  0  0  0  2  0  0  0  0  0  0
  190.3460  176.3800  137.1690 C   0  0  2  0  0  0  0  0  0  0  0  0
  188.9740  177.7000  138.6010 C   0  0  0  0  0  2  0  0  0  0  0  0
  189.7370  177.7750  137.3210 C   0  0  2  0  0  3  0  0  0  0  0  0
  188.5510  172.8720  136.7820 C   0  0  0  0  0  2  0  0  0  0  0  0
  190.2740  175.7200  138.4160 O   0  0  0  0  0  0  0  0  0  0  0  0
  194.6530  174.7090  135.5270 C   0  0  0  0  0  3  0  0  0  0  0  0
  194.4930  176.8420  136.6340 O   0  0  0  0  0  1  0  0  0  0  0  0
  190.3910  174.1990  135.8060 C   0  0  1  0  0  3  0  0  0  0  0  0
  194.0460  173.5600  135.0150 C   0  0  0  0  0  3  0  0  0  0  0  0
  192.4900  175.5450  136.2320 C   0  0  0  0  0  0  0  0  0  0  0  0
  189.6340  175.5160  136.0940 C   0  0  1  0  0  3  0  0  0  0  0  0
  187.7460  174.1450  136.7990 C   0  0  0  0  0  3  0  0  0  0  0  0
  188.2390  175.2890  136.4520 N   0  0  0  0  0  0  0  0  0  0  0  0
  189.6870  176.6010  139.3470 C   0  0  1  0  0  3  0  0  0  0  0  0
  192.6610  173.4020  135.1080 C   0  0  0  0  0  3  0  0  0  0  0  0
  191.8770  174.3900  135.7140 C   0  0  0  0  0  0  0  0  0  0  0  0
  188.9000  178.1370  136.2590 O   0  0  0  0  0  0  0  0  0  0  0  0
  187.8040  178.7610  136.8650 C   0  0  0  0  0  2  0  0  0  0  0  0
  185.7860  177.4740  136.7640 O   0  0  0  0  0  1  0  0  0  0  0  0
  186.5200  178.4600  136.1030 C   0  0  2  0  0  3  0  0  0  0  0  0
  186.8270  178.0150  134.6870 C   0  0  0  0  0  1  0  0  0  0  0  0
  190.7570  177.1990  140.2560 C   0  0  0  0  0  2  0  0  0  0  0  0
  190.5360  176.7970  141.6360 N   0  0  0  0  0  2  0  0  0  0  0  0
  189.4230  177.5160  142.0920 N   0  0  0  0  0  2  0  0  0  0  0  0
  188.4330  175.6430  143.0670 O   0  0  0  0  0  0  0  0  0  0  0  0
  188.3810  176.8780  142.8250 C   0  0  0  0  0  0  0  0  0  0  0  0
  187.2270  177.6770  143.3130 C   0  0  0  0  0  1  0  0  0  0  0  0
  2 13  1  0  0  0  0
  2 10  1  0  0  0  0
  4  1  1  6  0  0  0
  4  6  1  0  0  0  0
  4  8  1  0  0  0  0
  5 17  1  0  0  0  0
  6 20  1  6  0  0  0
  6  5  1  0  0  0  0
  7 15  1  0  0  0  0
  7  3  1  0  0  0  0
  8 17  1  0  0  0  0
  9  2  2  0  0  0  0
 11 14  1  0  0  0  0
 11  3  1  1  0  0  0
 12 18  2  0  0  0  0
 12  9  1  0  0  0  0
 13  1  1  0  0  0  0
 14 16  1  1  0  0  0
 14  4  1  0  0  0  0
 16 15  2  0  0  0  0
 17 25  1  1  0  0  0
 18 19  1  0  0  0  0
 19 11  1  0  0  0  0
 19 13  2  0  0  0  0
 20 21  1  0  0  0  0
 23 24  1  6  0  0  0
 23 22  1  0  0  0  0
 23 21  1  0  0  0  0
 25 26  1  0  0  0  0
 26 27  1  0  0  0  0
 27 29  1  0  0  0  0
 29 28  2  0  0  0  0
 29 30  1  0  0  0  0
M  END
>  <MODEL>
5

>  <REMARK>
 VINA RESULT:      -5.6      2.593      6.564
  Name = 
  6 active torsions:
  status: ('A' for Active; 'I' for Inactive)
    1  A    between atoms: N_7  and  N_16
    2  A    between atoms: C_8  and  O_12
    3  A    between atoms: C_9  and  O_12
    4  A    between atoms: C_9  and  C_17
    5  A    between atoms: N_16  and  C_30
    6  A    between atoms: C_27  and  C_30
                            x       y       z     vdW  Elec       q    Type
                         _______ _______ _______ _____ _____    ______ ____

>  <TORSDO>
F 6

$$$$
=
 OpenBabel10272413543D

 30 33  0  0  1  0  0  0  0  0999 V2000
  187.9650  175.3120  137.7020 O   0  0  0  0  0  0  0  0  0  0  0  0
  186.6530  173.4870  136.8030 C   0  0  0  0  0  0  0  0  0  0  0  0
  190.8410  174.8550  135.2770 C   0  0  0  0  0  2  0  0  0  0  0  0
  189.1270  176.1410  137.7260 C   0  0  2  0  0  0  0  0  0  0  0  0
  189.3560  178.3990  138.4480 C   0  0  0  0  0  2  0  0  0  0  0  0
  189.0190  177.0390  138.9600 C   0  0  2  0  0  3  0  0  0  0  0  0
  192.2680  175.3460  135.4500 C   0  0  0  0  0  2  0  0  0  0  0  0
  189.1240  176.9590  136.5740 O   0  0  0  0  0  0  0  0  0  0  0  0
  186.5730  172.2890  136.0880 C   0  0  0  0  0  3  0  0  0  0  0  0
  185.5020  174.0400  137.3470 O   0  0  0  0  0  1  0  0  0  0  0  0
  190.3890  174.2130  136.5820 C   0  0  1  0  0  3  0  0  0  0  0  0
  187.7250  171.7210  135.5390 C   0  0  0  0  0  3  0  0  0  0  0  0
  187.8900  174.1240  136.9670 C   0  0  0  0  0  0  0  0  0  0  0  0
  190.4040  175.2590  137.7210 C   0  0  1  0  0  3  0  0  0  0  0  0
  192.4180  176.1760  136.6990 C   0  0  0  0  0  3  0  0  0  0  0  0
  191.6050  176.0860  137.6990 N   0  0  0  0  0  0  0  0  0  0  0  0
  189.0000  178.3010  136.9870 C   0  0  1  0  0  3  0  0  0  0  0  0
  188.9610  172.3500  135.7050 C   0  0  0  0  0  3  0  0  0  0  0  0
  189.0520  173.5510  136.4180 C   0  0  0  0  0  0  0  0  0  0  0  0
  189.8820  176.6660  139.9980 O   0  0  0  0  0  0  0  0  0  0  0  0
  189.7220  177.6590  140.9690 C   0  0  0  0  0  2  0  0  0  0  0  0
  190.2290  175.7870  142.3750 O   0  0  0  0  0  1  0  0  0  0  0  0
  189.6290  177.0470  142.3600 C   0  0  2  0  0  3  0  0  0  0  0  0
  188.1830  176.9350  142.8030 C   0  0  0  0  0  1  0  0  0  0  0  0
  187.5720  178.7920  136.7650 C   0  0  0  0  0  2  0  0  0  0  0  0
  186.8970  177.9640  135.7780 N   0  0  0  0  0  2  0  0  0  0  0  0
  185.7230  177.4930  136.3800 N   0  0  0  0  0  2  0  0  0  0  0  0
  184.6040  177.2590  134.3460 O   0  0  0  0  0  0  0  0  0  0  0  0
  184.5830  177.1410  135.6000 C   0  0  0  0  0  0  0  0  0  0  0  0
  183.3630  176.6230  136.2720 C   0  0  0  0  0  1  0  0  0  0  0  0
  1  4  1  0  0  0  0
  2 13  1  0  0  0  0
  2 10  1  0  0  0  0
  3  7  1  0  0  0  0
  4  8  1  6  0  0  0
  4  6  1  0  0  0  0
  5  6  1  0  0  0  0
  6 20  1  1  0  0  0
  7 15  1  0  0  0  0
  8 17  1  0  0  0  0
  9  2  2  0  0  0  0
 11  3  1  6  0  0  0
 11 14  1  0  0  0  0
 12 18  2  0  0  0  0
 12  9  1  0  0  0  0
 13  1  1  0  0  0  0
 14 16  1  6  0  0  0
 14  4  1  0  0  0  0
 15 16  2  0  0  0  0
 17 25  1  1  0  0  0
 17  5  1  0  0  0  0
 18 19  1  0  0  0  0
 19 11  1  0  0  0  0
 19 13  2  0  0  0  0
 20 21  1  0  0  0  0
 21 23  1  0  0  0  0
 23 22  1  0  0  0  0
 23 24  1  6  0  0  0
 26 27  1  0  0  0  0
 26 25  1  0  0  0  0
 28 29  2  0  0  0  0
 29 30  1  0  0  0  0
 29 27  1  0  0  0  0
M  END
>  <MODEL>
6

>  <REMARK>
 VINA RESULT:      -5.5      2.544      7.013
  Name = 
  6 active torsions:
  status: ('A' for Active; 'I' for Inactive)
    1  A    between atoms: N_7  and  N_16
    2  A    between atoms: C_8  and  O_12
    3  A    between atoms: C_9  and  O_12
    4  A    between atoms: C_9  and  C_17
    5  A    between atoms: N_16  and  C_30
    6  A    between atoms: C_27  and  C_30
                            x       y       z     vdW  Elec       q    Type
                         _______ _______ _______ _____ _____    ______ ____

>  <TORSDO>
F 6

$$$$
=
 OpenBabel10272413543D

 30 33  0  0  1  0  0  0  0  0999 V2000
  181.5070  181.4520  138.3620 O   0  0  0  0  0  0  0  0  0  0  0  0
  181.4870  183.5380  137.1340 C   0  0  0  0  0  0  0  0  0  0  0  0
  180.8110  179.2930  135.3270 C   0  0  0  0  0  2  0  0  0  0  0  0
  181.3920  180.0310  138.4420 C   0  0  2  0  0  0  0  0  0  0  0  0
  182.3920  178.5190  139.9870 C   0  0  0  0  0  2  0  0  0  0  0  0
  181.4270  179.6540  139.9250 C   0  0  2  0  0  3  0  0  0  0  0  0
  180.2500  177.8810  135.3190 C   0  0  0  0  0  2  0  0  0  0  0  0
  182.5110  179.4490  137.8050 O   0  0  0  0  0  0  0  0  0  0  0  0
  181.1000  184.2830  136.0170 C   0  0  0  0  0  3  0  0  0  0  0  0
  182.2250  184.1440  138.1430 O   0  0  0  0  0  1  0  0  0  0  0  0
  179.9860  180.1360  136.2910 C   0  0  1  0  0  3  0  0  0  0  0  0
  180.3550  183.6850  134.9990 C   0  0  0  0  0  3  0  0  0  0  0  0
  181.1330  182.1850  137.2320 C   0  0  0  0  0  0  0  0  0  0  0  0
  180.0980  179.5650  137.7230 C   0  0  1  0  0  3  0  0  0  0  0  0
  180.0870  177.3450  136.7170 C   0  0  0  0  0  3  0  0  0  0  0  0
  179.9820  178.1120  137.7520 N   0  0  0  0  0  0  0  0  0  0  0  0
  183.2590  178.7540  138.7770 C   0  0  1  0  0  3  0  0  0  0  0  0
  179.9950  182.3380  135.0940 C   0  0  0  0  0  3  0  0  0  0  0  0
  180.3800  181.5830  136.2080 C   0  0  0  0  0  0  0  0  0  0  0  0
  180.1780  179.2780  140.4340 O   0  0  0  0  0  0  0  0  0  0  0  0
  180.4700  178.4880  141.5500 C   0  0  0  0  0  2  0  0  0  0  0  0
  180.1660  180.5380  142.7520 O   0  0  0  0  0  1  0  0  0  0  0  0
  179.9850  179.1570  142.8290 C   0  0  2  0  0  3  0  0  0  0  0  0
  180.7190  178.6060  144.0360 C   0  0  0  0  0  1  0  0  0  0  0  0
  184.4930  179.5610  139.1690 C   0  0  0  0  0  2  0  0  0  0  0  0
  185.4910  178.6990  139.7820 N   0  0  0  0  0  2  0  0  0  0  0  0
  186.4390  178.4110  138.7920 N   0  0  0  0  0  2  0  0  0  0  0  0
  188.2100  178.3300  140.3080 O   0  0  0  0  0  0  0  0  0  0  0  0
  187.8150  178.2260  139.1160 C   0  0  0  0  0  0  0  0  0  0  0  0
  188.7880  177.8990  138.0420 C   0  0  0  0  0  1  0  0  0  0  0  0
  1  4  1  0  0  0  0
  2 13  1  0  0  0  0
  2 10  1  0  0  0  0
  4  8  1  6  0  0  0
  4  6  1  0  0  0  0
  6  5  1  0  0  0  0
  6 20  1  6  0  0  0
  7  3  1  0  0  0  0
  7 15  1  0  0  0  0
  8 17  1  0  0  0  0
  9  2  2  0  0  0  0
 11  3  1  6  0  0  0
 11 14  1  0  0  0  0
 12 18  2  0  0  0  0
 12  9  1  0  0  0  0
 13  1  1  0  0  0  0
 14 16  1  6  0  0  0
 14  4  1  0  0  0  0
 15 16  2  0  0  0  0
 17 25  1  1  0  0  0
 17  5  1  0  0  0  0
 18 19  1  0  0  0  0
 19 11  1  0  0  0  0
 19 13  2  0  0  0  0
 20 21  1  0  0  0  0
 21 23  1  0  0  0  0
 22 23  1  0  0  0  0
 23 24  1  1  0  0  0
 25 26  1  0  0  0  0
 27 29  1  0  0  0  0
 27 26  1  0  0  0  0
 29 28  2  0  0  0  0
 30 29  1  0  0  0  0
M  END
>  <MODEL>
7

>  <REMARK>
 VINA RESULT:      -5.5      7.783     10.492
  Name = 
  6 active torsions:
  status: ('A' for Active; 'I' for Inactive)
    1  A    between atoms: N_7  and  N_16
    2  A    between atoms: C_8  and  O_12
    3  A    between atoms: C_9  and  O_12
    4  A    between atoms: C_9  and  C_17
    5  A    between atoms: N_16  and  C_30
    6  A    between atoms: C_27  and  C_30
                            x       y       z     vdW  Elec       q    Type
                         _______ _______ _______ _____ _____    ______ ____

>  <TORSDO>
F 6

$$$$
=
 OpenBabel10272413543D

 30 33  0  0  1  0  0  0  0  0999 V2000
  183.7460  177.2890  140.5430 O   0  0  0  0  0  0  0  0  0  0  0  0
  184.2350  178.1750  142.7430 C   0  0  0  0  0  0  0  0  0  0  0  0
  181.0860  179.8680  139.7500 C   0  0  0  0  0  2  0  0  0  0  0  0
  183.0330  177.2990  139.3070 C   0  0  2  0  0  0  0  0  0  0  0  0
  183.7170  176.5210  137.1620 C   0  0  0  0  0  2  0  0  0  0  0  0
  183.4300  176.0350  138.5420 C   0  0  2  0  0  3  0  0  0  0  0  0
  179.9830  179.7530  138.7110 C   0  0  0  0  0  2  0  0  0  0  0  0
  183.4410  178.4240  138.5570 O   0  0  0  0  0  0  0  0  0  0  0  0
  183.8530  178.9210  143.8610 C   0  0  0  0  0  3  0  0  0  0  0  0
  185.4780  177.5570  142.7200 O   0  0  0  0  0  1  0  0  0  0  0  0
  181.1550  178.5610  140.5290 C   0  0  1  0  0  3  0  0  0  0  0  0
  182.6040  179.5430  143.8960 C   0  0  0  0  0  3  0  0  0  0  0  0
  183.3650  178.0540  141.6500 C   0  0  0  0  0  0  0  0  0  0  0  0
  181.5080  177.3940  139.5790 C   0  0  1  0  0  3  0  0  0  0  0  0
  180.1170  178.4890  137.9030 C   0  0  0  0  0  3  0  0  0  0  0  0
  180.7600  177.4520  138.3280 N   0  0  0  0  0  0  0  0  0  0  0  0
  184.0850  177.9650  137.3900 C   0  0  1  0  0  3  0  0  0  0  0  0
  181.7310  179.4210  142.8110 C   0  0  0  0  0  3  0  0  0  0  0  0
  182.1050  178.6780  141.6860 C   0  0  0  0  0  0  0  0  0  0  0  0
  182.4320  175.0530  138.5300 O   0  0  0  0  0  0  0  0  0  0  0  0
  182.5880  174.4000  137.3030 C   0  0  0  0  0  2  0  0  0  0  0  0
  181.7320  172.5490  136.0470 O   0  0  0  0  0  1  0  0  0  0  0  0
  181.3970  173.4960  137.0150 C   0  0  2  0  0  3  0  0  0  0  0  0
  180.2050  174.3100  136.5510 C   0  0  0  0  0  1  0  0  0  0  0  0
  185.5990  178.1000  137.5340 C   0  0  0  0  0  2  0  0  0  0  0  0
  185.9270  179.0760  138.5610 N   0  0  0  0  0  2  0  0  0  0  0  0
  186.7140  178.4140  139.5120 N   0  0  0  0  0  2  0  0  0  0  0  0
  188.7170  179.0000  138.4710 O   0  0  0  0  0  0  0  0  0  0  0  0
  188.1370  178.4110  139.4210 C   0  0  0  0  0  0  0  0  0  0  0  0
  188.9400  177.7170  140.4610 C   0  0  0  0  0  1  0  0  0  0  0  0
  1 13  1  0  0  0  0
  2  9  1  0  0  0  0
  4  8  1  6  0  0  0
  4 14  1  0  0  0  0
  4  1  1  0  0  0  0
  5 17  1  0  0  0  0
  5  6  1  0  0  0  0
  6 20  1  6  0  0  0
  6  4  1  0  0  0  0
  7  3  1  0  0  0  0
  9 12  2  0  0  0  0
 10  2  1  0  0  0  0
 11  3  1  6  0  0  0
 11 19  1  0  0  0  0
 13 19  1  0  0  0  0
 13  2  2  0  0  0  0
 14 16  1  6  0  0  0
 14 11  1  0  0  0  0
 15 16  2  0  0  0  0
 15  7  1  0  0  0  0
 17 25  1  1  0  0  0
 17  8  1  0  0  0  0
 18 12  1  0  0  0  0
 19 18  2  0  0  0  0
 21 20  1  0  0  0  0
 22 23  1  0  0  0  0
 23 24  1  6  0  0  0
 23 21  1  0  0  0  0
 25 26  1  0  0  0  0
 26 27  1  0  0  0  0
 28 29  2  0  0  0  0
 29 27  1  0  0  0  0
 29 30  1  0  0  0  0
M  END
>  <MODEL>
8

>  <REMARK>
 VINA RESULT:      -5.2      5.948      7.782
  Name = 
  6 active torsions:
  status: ('A' for Active; 'I' for Inactive)
    1  A    between atoms: N_7  and  N_16
    2  A    between atoms: C_8  and  O_12
    3  A    between atoms: C_9  and  O_12
    4  A    between atoms: C_9  and  C_17
    5  A    between atoms: N_16  and  C_30
    6  A    between atoms: C_27  and  C_30
                            x       y       z     vdW  Elec       q    Type
                         _______ _______ _______ _____ _____    ______ ____

>  <TORSDO>
F 6

$$$$
=
 OpenBabel10272413543D

 30 33  0  0  1  0  0  0  0  0999 V2000
  184.4560  177.7630  141.7450 O   0  0  0  0  0  0  0  0  0  0  0  0
  185.8100  178.0960  143.7240 C   0  0  0  0  0  0  0  0  0  0  0  0
  181.5900  179.9230  142.9590 C   0  0  0  0  0  2  0  0  0  0  0  0
  183.2750  177.9750  140.9720 C   0  0  2  0  0  0  0  0  0  0  0  0
  182.9930  177.9470  138.6070 C   0  0  0  0  0  2  0  0  0  0  0  0
  183.3620  177.0610  139.7480 C   0  0  2  0  0  3  0  0  0  0  0  0
  180.1510  179.8920  142.4710 C   0  0  0  0  0  2  0  0  0  0  0  0
  183.2570  179.3170  140.5290 O   0  0  0  0  0  0  0  0  0  0  0  0
  185.9180  178.4280  145.0770 C   0  0  0  0  0  3  0  0  0  0  0  0
  186.9490  177.7480  143.0090 O   0  0  0  0  0  1  0  0  0  0  0  0
  182.0580  178.4910  143.1780 C   0  0  1  0  0  3  0  0  0  0  0  0
  184.7790  178.7760  145.8070 C   0  0  0  0  0  3  0  0  0  0  0  0
  184.5580  178.1170  143.0950 C   0  0  0  0  0  0  0  0  0  0  0  0
  182.0190  177.7100  141.8440 C   0  0  1  0  0  3  0  0  0  0  0  0
  179.9830  178.9410  141.3150 C   0  0  0  0  0  3  0  0  0  0  0  0
  180.7990  177.9650  141.0880 N   0  0  0  0  0  0  0  0  0  0  0  0
  183.3490  179.3170  139.1230 C   0  0  1  0  0  3  0  0  0  0  0  0
  183.5290  178.7930  145.1850 C   0  0  0  0  0  3  0  0  0  0  0  0
  183.4100  178.4640  143.8300 C   0  0  0  0  0  0  0  0  0  0  0  0
  182.5100  175.9520  139.8180 O   0  0  0  0  0  0  0  0  0  0  0  0
  182.3780  175.5180  138.4950 C   0  0  0  0  0  2  0  0  0  0  0  0
  180.3320  174.7040  139.4380 O   0  0  0  0  0  1  0  0  0  0  0  0
  180.9720  174.9970  138.2330 C   0  0  2  0  0  3  0  0  0  0  0  0
  181.0110  173.7620  137.3550 C   0  0  0  0  0  1  0  0  0  0  0  0
  184.7650  179.6850  138.6870 C   0  0  0  0  0  2  0  0  0  0  0  0
  185.4580  178.5160  138.1680 N   0  0  0  0  0  2  0  0  0  0  0  0
  186.6640  178.4150  138.8740 N   0  0  0  0  0  2  0  0  0  0  0  0
  187.7650  177.3410  137.1200 O   0  0  0  0  0  0  0  0  0  0  0  0
  187.8140  177.8100  138.2880 C   0  0  0  0  0  0  0  0  0  0  0  0
  189.0830  177.7410  139.0590 C   0  0  0  0  0  1  0  0  0  0  0  0
  1 13  1  0  0  0  0
  2  9  1  0  0  0  0
  4  8  1  6  0  0  0
  4  1  1  0  0  0  0
  4 14  1  0  0  0  0
  5 17  1  0  0  0  0
  5  6  1  0  0  0  0
  6 20  1  1  0  0  0
  6  4  1  0  0  0  0
  7  3  1  0  0  0  0
  9 12  2  0  0  0  0
 10  2  1  0  0  0  0
 11  3  1  6  0  0  0
 11 19  1  0  0  0  0
 13  2  2  0  0  0  0
 13 19  1  0  0  0  0
 14 16  1  6  0  0  0
 14 11  1  0  0  0  0
 15  7  1  0  0  0  0
 16 15  2  0  0  0  0
 17 25  1  1  0  0  0
 17  8  1  0  0  0  0
 18 12  1  0  0  0  0
 19 18  2  0  0  0  0
 21 20  1  0  0  0  0
 23 24  1  6  0  0  0
 23 21  1  0  0  0  0
 23 22  1  0  0  0  0
 26 25  1  0  0  0  0
 26 27  1  0  0  0  0
 28 29  2  0  0  0  0
 29 27  1  0  0  0  0
 29 30  1  0  0  0  0
M  END
>  <MODEL>
9

>  <REMARK>
 VINA RESULT:      -5.1      5.952      8.193
  Name = 
  6 active torsions:
  status: ('A' for Active; 'I' for Inactive)
    1  A    between atoms: N_7  and  N_16
    2  A    between atoms: C_8  and  O_12
    3  A    between atoms: C_9  and  O_12
    4  A    between atoms: C_9  and  C_17
    5  A    between atoms: N_16  and  C_30
    6  A    between atoms: C_27  and  C_30
                            x       y       z     vdW  Elec       q    Type
                         _______ _______ _______ _____ _____    ______ ____

>  <TORSDO>
F 6

$$$$
