=
 OpenBabel10272413423D

 30 34  0  0  1  0  0  0  0  0999 V2000
  188.2450  178.1050  141.6670 C   0  0  2  0  0  3  0  0  0  0  0  0
  189.8280  177.2540  139.6440 C   0  0  1  0  0  3  0  0  0  0  0  0
  190.5780  177.6870  143.3040 C   0  0  2  0  0  0  0  0  0  0  0  0
  187.5870  177.3050  142.7370 N   0  0  2  0  0  0  0  0  0  0  0  0
  187.2280  178.5480  140.6340 C   0  0  0  0  0  2  0  0  0  0  0  0
  184.4790  178.1220  142.4290 N   0  0  0  0  0  2  0  0  0  0  0  0
  185.6770  178.9120  142.6750 C   0  0  2  0  0  3  0  0  0  0  0  0
  184.9580  179.3330  140.4470 N   0  0  0  0  0  2  0  0  0  0  0  0
  186.1460  179.4240  141.2800 C   0  0  2  0  0  3  0  0  0  0  0  0
  186.7440  178.2020  143.5410 C   0  0  1  0  0  3  0  0  0  0  0  0
  191.2950  177.0400  139.2980 C   0  0  0  0  0  3  0  0  0  0  0  0
  182.9670  178.1020  140.6350 O   0  0  0  0  0  0  0  0  0  0  0  0
  188.9010  175.7900  139.2250 Cl  0  0  0  0  0  0  0  0  0  0  0  0
  191.7500  177.0300  142.4990 C   0  0  2  0  0  3  0  0  0  0  0  0
  192.3880  177.3240  140.0470 C   0  0  0  0  0  3  0  0  0  0  0  0
  184.0540  178.4920  141.1350 C   0  0  0  0  0  0  0  0  0  0  0  0
  189.6110  177.6320  141.1030 C   0  0  2  0  0  3  0  0  0  0  0  0
  188.3810  176.4800  143.5200 O   0  0  0  0  0  0  0  0  0  0  0  0
  189.4190  177.1870  144.2220 C   0  0  1  0  0  3  0  0  0  0  0  0
  192.4020  177.9370  141.4350 C   0  0  0  0  0  2  0  0  0  0  0  0
  190.3550  176.7740  142.0810 C   0  0  2  0  0  3  0  0  0  0  0  0
  190.4990  179.0780  143.0700 O   0  0  0  0  0  0  0  0  0  0  0  0
  190.9960  179.6960  144.2210 C   0  0  0  0  0  1  0  0  0  0  0  0
  185.6680  178.5460  145.8250 C   0  0  0  0  0  1  0  0  0  0  0  0
  186.1540  177.5380  144.7940 C   0  0  0  0  0  2  0  0  0  0  0  0
  189.9620  176.3110  145.3560 C   0  0  1  0  0  3  0  0  0  0  0  0
  191.7480  176.0230  147.2530 C   0  0  0  0  0  1  0  0  0  0  0  0
  191.7730  176.4700  145.4940 S   0  0  0  0  0  0  0  0  0  0  0  0
  189.3330  176.6960  146.6860 C   0  0  0  0  0  2  0  0  0  0  0  0
  189.0380  178.0600  146.6960 O   0  0  0  0  0  1  0  0  0  0  0  0
  1  5  1  6  0  0  0
  1  4  1  0  0  0  0
  2 13  1  1  0  0  0
  2 17  1  0  0  0  0
  3 22  1  6  0  0  0
  3 19  1  0  0  0  0
  4 18  1  1  0  0  0
  4 10  1  0  0  0  0
  7  6  1  6  0  0  0
  7 10  1  0  0  0  0
  8 16  1  0  0  0  0
  8  9  1  0  0  0  0
  9  5  1  6  0  0  0
  9  7  1  0  0  0  0
 10 25  1  1  0  0  0
 11  2  1  0  0  0  0
 11 15  2  0  0  0  0
 12 16  2  0  0  0  0
 14 20  1  6  0  0  0
 14  3  1  0  0  0  0
 15 20  1  0  0  0  0
 16  6  1  0  0  0  0
 17  1  1  0  0  0  0
 17 21  1  0  0  0  0
 18 19  1  0  0  0  0
 19 26  1  0  0  0  0
 21 14  1  0  0  0  0
 21  3  1  0  0  0  0
 22 23  1  0  0  0  0
 25 24  1  0  0  0  0
 26 28  1  0  0  0  0
 26 29  1  0  0  0  0
 28 27  1  0  0  0  0
 29 30  1  0  0  0  0
M  END
>  <MODEL>
1

>  <REMARK>
 VINA RESULT:      -6.3      0.000      0.000
  Name = 
  5 active torsions:
  status: ('A' for Active; 'I' for Inactive)
    1  A    between atoms: C_3  and  O_11
    2  A    between atoms: C_10  and  C_15
    3  A    between atoms: C_10  and  C_25
    4  A    between atoms: C_10  and  S_26
    5  A    between atoms: C_13  and  C_30
                            x       y       z     vdW  Elec       q    Type
                         _______ _______ _______ _____ _____    ______ ____

>  <TORSDO>
F 5

$$$$
=
 OpenBabel10272413423D

 30 34  0  0  1  0  0  0  0  0999 V2000
  190.9160  177.1280  139.8370 C   0  0  2  0  0  3  0  0  0  0  0  0
  189.8150  177.2640  142.3050 C   0  0  1  0  0  3  0  0  0  0  0  0
  188.2520  177.7250  138.9150 C   0  0  2  0  0  0  0  0  0  0  0  0
  190.8130  176.0370  138.8280 N   0  0  2  0  0  0  0  0  0  0  0  0
  192.2840  177.1220  140.4880 C   0  0  0  0  0  2  0  0  0  0  0  0
  193.9040  175.3340  138.2230 N   0  0  0  0  0  2  0  0  0  0  0  0
  193.1440  176.5700  138.1100 C   0  0  2  0  0  3  0  0  0  0  0  0
  194.6110  176.7710  139.9720 N   0  0  0  0  0  2  0  0  0  0  0  0
  193.3830  177.3430  139.4410 C   0  0  2  0  0  3  0  0  0  0  0  0
  191.6700  176.3770  137.6830 C   0  0  1  0  0  3  0  0  0  0  0  0
  188.5770  177.7840  143.0240 C   0  0  0  0  0  3  0  0  0  0  0  0
  195.7290  174.7440  139.5760 O   0  0  0  0  0  0  0  0  0  0  0  0
  190.1100  175.5730  142.7830 Cl  0  0  0  0  0  0  0  0  0  0  0  0
  187.2160  177.7510  140.0900 C   0  0  2  0  0  3  0  0  0  0  0  0
  187.5390  178.4880  142.5110 C   0  0  0  0  0  3  0  0  0  0  0  0
  194.8170  175.5580  139.2770 C   0  0  0  0  0  0  0  0  0  0  0  0
  189.7190  177.3890  140.7910 C   0  0  2  0  0  3  0  0  0  0  0  0
  189.5480  175.6220  138.4390 O   0  0  0  0  0  0  0  0  0  0  0  0
  188.7510  176.6770  137.8720 C   0  0  1  0  0  3  0  0  0  0  0  0
  187.3680  178.9330  141.0700 C   0  0  0  0  0  2  0  0  0  0  0  0
  188.4240  176.9060  140.2110 C   0  0  2  0  0  3  0  0  0  0  0  0
  188.9820  178.9320  138.8360 O   0  0  0  0  0  0  0  0  0  0  0  0
  188.9830  179.2990  137.4870 C   0  0  0  0  0  1  0  0  0  0  0  0
  191.2640  176.1550  135.1770 C   0  0  0  0  0  1  0  0  0  0  0  0
  191.5120  175.4240  136.4880 C   0  0  0  0  0  2  0  0  0  0  0  0
  187.5710  176.0730  137.1010 C   0  0  1  0  0  3  0  0  0  0  0  0
  185.7200  177.2880  135.6980 C   0  0  0  0  0  1  0  0  0  0  0  0
  187.4450  176.7930  135.4320 S   0  0  0  0  0  0  0  0  0  0  0  0
  187.7240  174.5660  136.9750 C   0  0  0  0  0  2  0  0  0  0  0  0
  186.5350  173.9330  137.3420 O   0  0  0  0  0  1  0  0  0  0  0  0
  1  5  1  1  0  0  0
  1 17  1  0  0  0  0
  2 13  1  6  0  0  0
  2 11  1  0  0  0  0
  3 22  1  1  0  0  0
  3 14  1  0  0  0  0
  3 21  1  0  0  0  0
  4 18  1  6  0  0  0
  4  1  1  0  0  0  0
  6 16  1  0  0  0  0
  7  6  1  1  0  0  0
  7  9  1  0  0  0  0
  9  8  1  0  0  0  0
  9  5  1  1  0  0  0
 10 25  1  6  0  0  0
 10  7  1  0  0  0  0
 10  4  1  0  0  0  0
 14 21  1  0  0  0  0
 14 20  1  1  0  0  0
 15 11  2  0  0  0  0
 16 12  2  0  0  0  0
 16  8  1  0  0  0  0
 17  2  1  0  0  0  0
 19 18  1  0  0  0  0
 19  3  1  0  0  0  0
 20 15  1  0  0  0  0
 21 17  1  0  0  0  0
 23 22  1  0  0  0  0
 24 25  1  0  0  0  0
 26 19  1  0  0  0  0
 28 27  1  0  0  0  0
 28 26  1  0  0  0  0
 29 26  1  0  0  0  0
 29 30  1  0  0  0  0
M  END
>  <MODEL>
2

>  <REMARK>
 VINA RESULT:      -5.4      4.335      7.992
  Name = 
  5 active torsions:
  status: ('A' for Active; 'I' for Inactive)
    1  A    between atoms: C_3  and  O_11
    2  A    between atoms: C_10  and  C_15
    3  A    between atoms: C_10  and  C_25
    4  A    between atoms: C_10  and  S_26
    5  A    between atoms: C_13  and  C_30
                            x       y       z     vdW  Elec       q    Type
                         _______ _______ _______ _____ _____    ______ ____

>  <TORSDO>
F 5

$$$$
=
 OpenBabel10272413423D

 30 34  0  0  1  0  0  0  0  0999 V2000
  187.6410  175.5620  136.4980 C   0  0  2  0  0  3  0  0  0  0  0  0
  186.9980  172.9630  136.1070 C   0  0  1  0  0  3  0  0  0  0  0  0
  190.3190  174.7110  135.8600 C   0  0  2  0  0  0  0  0  0  0  0  0
  188.3250  176.1890  137.6630 N   0  0  2  0  0  0  0  0  0  0  0  0
  186.1620  175.8870  136.5120 C   0  0  0  0  0  2  0  0  0  0  0  0
  186.2450  178.4910  138.5540 N   0  0  0  0  0  2  0  0  0  0  0  0
  186.9330  178.2300  137.2980 C   0  0  2  0  0  3  0  0  0  0  0  0
  184.6360  177.6840  137.0100 N   0  0  0  0  0  2  0  0  0  0  0  0
  185.9400  177.4030  136.4290 C   0  0  2  0  0  3  0  0  0  0  0  0
  188.3560  177.6450  137.4600 C   0  0  1  0  0  3  0  0  0  0  0  0
  187.5420  171.6900  135.4730 C   0  0  0  0  0  3  0  0  0  0  0  0
  183.9650  178.4900  139.1110 O   0  0  0  0  0  0  0  0  0  0  0  0
  186.4450  172.6100  137.7640 Cl  0  0  0  0  0  0  0  0  0  0  0  0
  190.4160  173.1570  135.6890 C   0  0  2  0  0  3  0  0  0  0  0  0
  188.6870  171.5230  134.7670 C   0  0  0  0  0  3  0  0  0  0  0  0
  184.8810  178.2420  138.2850 C   0  0  0  0  0  0  0  0  0  0  0  0
  188.0040  174.1050  136.1040 C   0  0  2  0  0  3  0  0  0  0  0  0
  189.5560  175.6810  138.0520 O   0  0  0  0  0  0  0  0  0  0  0  0
  190.5490  175.7370  137.0120 C   0  0  1  0  0  3  0  0  0  0  0  0
  189.7130  172.5910  134.4370 C   0  0  0  0  0  2  0  0  0  0  0  0
  189.3760  173.7220  136.5740 C   0  0  2  0  0  3  0  0  0  0  0  0
  189.8100  175.3330  134.6980 O   0  0  0  0  0  0  0  0  0  0  0  0
  190.4770  176.5570  134.5870 C   0  0  0  0  0  1  0  0  0  0  0  0
  188.8520  178.0140  139.9320 C   0  0  0  0  0  1  0  0  0  0  0  0
  189.1990  178.3960  138.5010 C   0  0  0  0  0  2  0  0  0  0  0  0
  191.9440  175.5640  137.6240 C   0  0  1  0  0  3  0  0  0  0  0  0
  193.9190  174.0830  136.7420 C   0  0  0  0  0  1  0  0  0  0  0  0
  193.2400  175.7200  136.3520 S   0  0  0  0  0  0  0  0  0  0  0  0
  192.1920  176.6030  138.7070 C   0  0  0  0  0  2  0  0  0  0  0  0
  193.5490  176.9210  138.7620 O   0  0  0  0  0  1  0  0  0  0  0  0
  1  5  1  1  0  0  0
  1  4  1  0  0  0  0
  2 13  1  1  0  0  0
  3 22  1  6  0  0  0
  3 21  1  0  0  0  0
  3 19  1  0  0  0  0
  4 18  1  6  0  0  0
  7 10  1  0  0  0  0
  7  6  1  1  0  0  0
  8 16  1  0  0  0  0
  9  5  1  1  0  0  0
  9  8  1  0  0  0  0
  9  7  1  0  0  0  0
 10  4  1  0  0  0  0
 10 25  1  1  0  0  0
 11  2  1  0  0  0  0
 14 20  1  6  0  0  0
 14  3  1  0  0  0  0
 14 21  1  0  0  0  0
 15 11  2  0  0  0  0
 16  6  1  0  0  0  0
 16 12  2  0  0  0  0
 17  2  1  0  0  0  0
 17  1  1  0  0  0  0
 17 21  1  0  0  0  0
 19 26  1  0  0  0  0
 19 18  1  0  0  0  0
 20 15  1  0  0  0  0
 23 22  1  0  0  0  0
 25 24  1  0  0  0  0
 26 29  1  0  0  0  0
 28 27  1  0  0  0  0
 28 26  1  0  0  0  0
 29 30  1  0  0  0  0
M  END
>  <MODEL>
3

>  <REMARK>
 VINA RESULT:      -5.2      4.992      7.090
  Name = 
  5 active torsions:
  status: ('A' for Active; 'I' for Inactive)
    1  A    between atoms: C_3  and  O_11
    2  A    between atoms: C_10  and  C_15
    3  A    between atoms: C_10  and  C_25
    4  A    between atoms: C_10  and  S_26
    5  A    between atoms: C_13  and  C_30
                            x       y       z     vdW  Elec       q    Type
                         _______ _______ _______ _____ _____    ______ ____

>  <TORSDO>
F 5

$$$$
=
 OpenBabel10272413423D

 30 34  0  0  1  0  0  0  0  0999 V2000
  184.3140  177.6990  137.8350 C   0  0  2  0  0  3  0  0  0  0  0  0
  182.7810  178.9340  139.6920 C   0  0  1  0  0  3  0  0  0  0  0  0
  181.7960  176.9610  136.6450 C   0  0  2  0  0  0  0  0  0  0  0  0
  184.5960  176.2450  137.6750 N   0  0  2  0  0  0  0  0  0  0  0  0
  185.5200  178.4130  138.4100 C   0  0  0  0  0  2  0  0  0  0  0  0
  187.8220  176.1370  137.7210 N   0  0  0  0  0  2  0  0  0  0  0  0
  186.8810  176.8450  136.8650 C   0  0  2  0  0  3  0  0  0  0  0  0
  187.9260  178.4370  138.2890 N   0  0  0  0  0  2  0  0  0  0  0  0
  186.7300  178.2690  137.4780 C   0  0  2  0  0  3  0  0  0  0  0  0
  185.5690  176.0750  136.5850 C   0  0  1  0  0  3  0  0  0  0  0  0
  181.3600  179.4350  139.9120 C   0  0  0  0  0  3  0  0  0  0  0  0
  189.4490  176.9130  139.2230 O   0  0  0  0  0  0  0  0  0  0  0  0
  183.2900  177.9610  141.0960 Cl  0  0  0  0  0  0  0  0  0  0  0  0
  180.5790  177.3880  137.5330 C   0  0  2  0  0  3  0  0  0  0  0  0
  180.3200  179.4280  139.0440 C   0  0  0  0  0  3  0  0  0  0  0  0
  188.4720  177.1460  138.4640 C   0  0  0  0  0  0  0  0  0  0  0  0
  182.9380  178.1430  138.4010 C   0  0  2  0  0  3  0  0  0  0  0  0
  183.5200  175.3770  137.5660 O   0  0  0  0  0  0  0  0  0  0  0  0
  182.6580  175.6750  136.4530 C   0  0  1  0  0  3  0  0  0  0  0  0
  180.3320  178.9090  137.6180 C   0  0  0  0  0  2  0  0  0  0  0  0
  181.8790  177.1050  138.1780 C   0  0  2  0  0  3  0  0  0  0  0  0
  182.2940  178.0440  135.8860 O   0  0  0  0  0  0  0  0  0  0  0  0
  182.5710  177.5340  134.6150 C   0  0  0  0  0  1  0  0  0  0  0  0
  186.1440  174.4390  134.7180 C   0  0  0  0  0  1  0  0  0  0  0  0
  185.8050  174.6090  136.1920 C   0  0  0  0  0  2  0  0  0  0  0  0
  181.7670  174.4630  136.1540 C   0  0  1  0  0  3  0  0  0  0  0  0
  182.9750  172.1750  135.7320 C   0  0  0  0  0  1  0  0  0  0  0  0
  182.3790  173.5450  134.7030 S   0  0  0  0  0  0  0  0  0  0  0  0
  181.7200  173.5200  137.3460 C   0  0  0  0  0  2  0  0  0  0  0  0
  180.5670  173.7570  138.0960 O   0  0  0  0  0  1  0  0  0  0  0  0
  1 17  1  0  0  0  0
  1  5  1  1  0  0  0
  2 11  1  0  0  0  0
  2 13  1  1  0  0  0
  3 22  1  6  0  0  0
  3 14  1  0  0  0  0
  3 21  1  0  0  0  0
  4 18  1  6  0  0  0
  4  1  1  0  0  0  0
  6 16  1  0  0  0  0
  7  9  1  0  0  0  0
  7  6  1  1  0  0  0
  8 16  1  0  0  0  0
  9  8  1  0  0  0  0
  9  5  1  1  0  0  0
 10 25  1  1  0  0  0
 10  7  1  0  0  0  0
 10  4  1  0  0  0  0
 14 20  1  6  0  0  0
 14 21  1  0  0  0  0
 15 11  2  0  0  0  0
 16 12  2  0  0  0  0
 17  2  1  0  0  0  0
 19  3  1  0  0  0  0
 19 18  1  0  0  0  0
 20 15  1  0  0  0  0
 21 17  1  0  0  0  0
 23 22  1  0  0  0  0
 24 25  1  0  0  0  0
 26 19  1  0  0  0  0
 26 29  1  0  0  0  0
 28 27  1  0  0  0  0
 28 26  1  0  0  0  0
 29 30  1  0  0  0  0
M  END
>  <MODEL>
4

>  <REMARK>
 VINA RESULT:      -5.1      5.820      9.698
  Name = 
  5 active torsions:
  status: ('A' for Active; 'I' for Inactive)
    1  A    between atoms: C_3  and  O_11
    2  A    between atoms: C_10  and  C_15
    3  A    between atoms: C_10  and  C_25
    4  A    between atoms: C_10  and  S_26
    5  A    between atoms: C_13  and  C_30
                            x       y       z     vdW  Elec       q    Type
                         _______ _______ _______ _____ _____    ______ ____

>  <TORSDO>
F 5

$$$$
=
 OpenBabel10272413423D

 30 34  0  0  1  0  0  0  0  0999 V2000
  186.7450  177.8680  138.5210 C   0  0  2  0  0  3  0  0  0  0  0  0
  184.6190  177.3040  136.9440 C   0  0  1  0  0  3  0  0  0  0  0  0
  188.2890  177.4290  136.1290 C   0  0  2  0  0  0  0  0  0  0  0  0
  187.7460  176.9340  139.1070 N   0  0  2  0  0  0  0  0  0  0  0  0
  185.7800  178.3490  139.5850 C   0  0  0  0  0  2  0  0  0  0  0  0
  187.5780  177.6000  142.2610 N   0  0  0  0  0  2  0  0  0  0  0  0
  187.8750  178.4300  141.1030 C   0  0  2  0  0  3  0  0  0  0  0  0
  185.7130  179.0190  141.8990 N   0  0  0  0  0  2  0  0  0  0  0  0
  186.5280  179.0980  140.6960 C   0  0  2  0  0  3  0  0  0  0  0  0
  188.6480  177.7020  139.9780 C   0  0  1  0  0  3  0  0  0  0  0  0
  184.2260  177.2070  135.4760 C   0  0  0  0  0  3  0  0  0  0  0  0
  185.8190  177.6650  143.8140 O   0  0  0  0  0  0  0  0  0  0  0  0
  184.0800  175.8370  137.8000 Cl  0  0  0  0  0  0  0  0  0  0  0  0
  187.4020  176.9190  134.9430 C   0  0  2  0  0  3  0  0  0  0  0  0
  184.9780  177.4800  134.3820 C   0  0  0  0  0  3  0  0  0  0  0  0
  186.3340  178.0670  142.7380 C   0  0  0  0  0  0  0  0  0  0  0  0
  186.1120  177.5300  137.1450 C   0  0  2  0  0  3  0  0  0  0  0  0
  188.4310  176.0850  138.2510 O   0  0  0  0  0  0  0  0  0  0  0  0
  189.1770  176.7800  137.2360 C   0  0  1  0  0  3  0  0  0  0  0  0
  186.4180  177.9590  134.3680 C   0  0  0  0  0  2  0  0  0  0  0  0
  186.9890  176.6250  136.3310 C   0  0  2  0  0  3  0  0  0  0  0  0
  188.1910  178.8290  136.2890 O   0  0  0  0  0  0  0  0  0  0  0  0
  189.3490  179.2260  136.9640 C   0  0  0  0  0  1  0  0  0  0  0  0
  191.1520  177.6640  140.4500 C   0  0  0  0  0  1  0  0  0  0  0  0
  189.8430  176.8890  140.4990 C   0  0  0  0  0  2  0  0  0  0  0  0
  190.2100  175.8320  136.6170 C   0  0  1  0  0  3  0  0  0  0  0  0
  192.6290  175.8560  135.6080 C   0  0  0  0  0  1  0  0  0  0  0  0
  191.8870  176.2060  137.2260 S   0  0  0  0  0  0  0  0  0  0  0  0
  189.8810  174.3840  136.9480 C   0  0  0  0  0  2  0  0  0  0  0  0
  190.9010  173.8270  137.7200 O   0  0  0  0  0  1  0  0  0  0  0  0
  1  4  1  0  0  0  0
  1  5  1  1  0  0  0
  2 17  1  0  0  0  0
  2 13  1  1  0  0  0
  3 22  1  1  0  0  0
  3 21  1  0  0  0  0
  3 19  1  0  0  0  0
  4 18  1  6  0  0  0
  4 10  1  0  0  0  0
  6 16  1  0  0  0  0
  7  6  1  1  0  0  0
  8 16  1  0  0  0  0
  9  5  1  6  0  0  0
  9  7  1  0  0  0  0
  9  8  1  0  0  0  0
 10 25  1  1  0  0  0
 10  7  1  0  0  0  0
 11  2  1  0  0  0  0
 14 20  1  1  0  0  0
 14  3  1  0  0  0  0
 14 21  1  0  0  0  0
 15 11  2  0  0  0  0
 16 12  2  0  0  0  0
 17  1  1  0  0  0  0
 19 18  1  0  0  0  0
 20 15  1  0  0  0  0
 21 17  1  0  0  0  0
 22 23  1  0  0  0  0
 24 25  1  0  0  0  0
 26 29  1  0  0  0  0
 26 28  1  0  0  0  0
 26 19  1  0  0  0  0
 27 28  1  0  0  0  0
 29 30  1  0  0  0  0
M  END
>  <MODEL>
5

>  <REMARK>
 VINA RESULT:      -5.1      4.197      6.720
  Name = 
  5 active torsions:
  status: ('A' for Active; 'I' for Inactive)
    1  A    between atoms: C_3  and  O_11
    2  A    between atoms: C_10  and  C_15
    3  A    between atoms: C_10  and  C_25
    4  A    between atoms: C_10  and  S_26
    5  A    between atoms: C_13  and  C_30
                            x       y       z     vdW  Elec       q    Type
                         _______ _______ _______ _____ _____    ______ ____

>  <TORSDO>
F 5

$$$$
=
 OpenBabel10272413423D

 30 34  0  0  1  0  0  0  0  0999 V2000
  190.1150  176.6640  140.2180 C   0  0  2  0  0  3  0  0  0  0  0  0
  192.5190  176.4920  138.9860 C   0  0  1  0  0  3  0  0  0  0  0  0
  189.0470  176.6070  137.5430 C   0  0  2  0  0  0  0  0  0  0  0  0
  189.2150  177.8430  140.3460 N   0  0  2  0  0  0  0  0  0  0  0  0
  190.8110  176.3820  141.5340 C   0  0  0  0  0  2  0  0  0  0  0  0
  188.7890  178.0700  143.5370 N   0  0  0  0  0  2  0  0  0  0  0  0
  188.5290  176.9940  142.5920 C   0  0  2  0  0  3  0  0  0  0  0  0
  190.4130  176.3830  143.9100 N   0  0  0  0  0  2  0  0  0  0  0  0
  189.7870  176.0750  142.6340 C   0  0  2  0  0  3  0  0  0  0  0  0
  188.0720  177.4690  141.1930 C   0  0  1  0  0  3  0  0  0  0  0  0
  193.1390  176.1230  137.6460 C   0  0  0  0  0  3  0  0  0  0  0  0
  190.2560  178.2210  145.3630 O   0  0  0  0  0  0  0  0  0  0  0  0
  193.1690  178.0590  139.5290 Cl  0  0  0  0  0  0  0  0  0  0  0  0
  190.1770  176.6490  136.4580 C   0  0  2  0  0  3  0  0  0  0  0  0
  192.5240  175.6520  136.5340 C   0  0  0  0  0  3  0  0  0  0  0  0
  189.8470  177.6030  144.3460 C   0  0  0  0  0  0  0  0  0  0  0  0
  190.9970  176.5210  138.9480 C   0  0  2  0  0  3  0  0  0  0  0  0
  188.8230  178.4980  139.1870 O   0  0  0  0  0  0  0  0  0  0  0  0
  188.1290  177.6460  138.2580 C   0  0  1  0  0  3  0  0  0  0  0  0
  191.0420  175.3740  136.3650 C   0  0  0  0  0  2  0  0  0  0  0  0
  190.4220  177.2650  137.7800 C   0  0  2  0  0  3  0  0  0  0  0  0
  188.8760  175.3070  138.0680 O   0  0  0  0  0  0  0  0  0  0  0  0
  187.6950  174.8120  137.5080 C   0  0  0  0  0  1  0  0  0  0  0  0
  185.7750  178.1110  142.0890 C   0  0  0  0  0  1  0  0  0  0  0  0
  186.9710  178.5390  141.2530 C   0  0  0  0  0  2  0  0  0  0  0  0
  187.3800  178.5060  137.2330 C   0  0  1  0  0  3  0  0  0  0  0  0
  186.0600  177.3630  135.2790 C   0  0  0  0  0  1  0  0  0  0  0  0
  187.7520  177.9680  135.5320 S   0  0  0  0  0  0  0  0  0  0  0  0
  185.8780  178.4260  137.4560 C   0  0  0  0  0  2  0  0  0  0  0  0
  185.5120  179.2310  138.5350 O   0  0  0  0  0  1  0  0  0  0  0  0
  1  4  1  0  0  0  0
  1  5  1  1  0  0  0
  2 13  1  6  0  0  0
  3 21  1  0  0  0  0
  3 22  1  1  0  0  0
  3 19  1  0  0  0  0
  4 18  1  6  0  0  0
  4 10  1  0  0  0  0
  6 16  1  0  0  0  0
  7  9  1  0  0  0  0
  7  6  1  1  0  0  0
  8 16  1  0  0  0  0
  9  5  1  6  0  0  0
  9  8  1  0  0  0  0
 10 25  1  1  0  0  0
 10  7  1  0  0  0  0
 11  2  1  0  0  0  0
 14 20  1  1  0  0  0
 14  3  1  0  0  0  0
 14 21  1  0  0  0  0
 15 11  2  0  0  0  0
 16 12  2  0  0  0  0
 17  2  1  0  0  0  0
 17  1  1  0  0  0  0
 19 18  1  0  0  0  0
 20 15  1  0  0  0  0
 21 17  1  0  0  0  0
 23 22  1  0  0  0  0
 25 24  1  0  0  0  0
 26 29  1  0  0  0  0
 26 19  1  0  0  0  0
 27 28  1  0  0  0  0
 28 26  1  0  0  0  0
 29 30  1  0  0  0  0
M  END
>  <MODEL>
6

>  <REMARK>
 VINA RESULT:      -5.0      3.463      6.390
  Name = 
  5 active torsions:
  status: ('A' for Active; 'I' for Inactive)
    1  A    between atoms: C_3  and  O_11
    2  A    between atoms: C_10  and  C_15
    3  A    between atoms: C_10  and  C_25
    4  A    between atoms: C_10  and  S_26
    5  A    between atoms: C_13  and  C_30
                            x       y       z     vdW  Elec       q    Type
                         _______ _______ _______ _____ _____    ______ ____

>  <TORSDO>
F 5

$$$$
=
 OpenBabel10272413423D

 30 34  0  0  1  0  0  0  0  0999 V2000
  185.4250  176.6900  136.9840 C   0  0  2  0  0  3  0  0  0  0  0  0
  187.5710  177.1100  135.3900 C   0  0  1  0  0  3  0  0  0  0  0  0
  185.4830  174.0230  135.8980 C   0  0  2  0  0  0  0  0  0  0  0  0
  183.9860  176.6040  136.6100 N   0  0  2  0  0  0  0  0  0  0  0  0
  185.7180  178.0120  137.6640 C   0  0  0  0  0  2  0  0  0  0  0  0
  182.6240  178.8410  138.4960 N   0  0  0  0  0  2  0  0  0  0  0  0
  183.4190  177.6600  138.8010 C   0  0  2  0  0  3  0  0  0  0  0  0
  184.7580  179.5810  139.2200 N   0  0  0  0  0  2  0  0  0  0  0  0
  184.8880  178.1590  138.9460 C   0  0  2  0  0  3  0  0  0  0  0  0
  183.1890  176.4710  137.8380 C   0  0  1  0  0  3  0  0  0  0  0  0
  188.6300  176.3490  134.6050 C   0  0  0  0  0  3  0  0  0  0  0  0
  183.0270  181.1250  138.8540 O   0  0  0  0  0  0  0  0  0  0  0  0
  186.8420  178.3570  134.3460 Cl  0  0  0  0  0  0  0  0  0  0  0  0
  186.5570  173.8730  134.7670 C   0  0  2  0  0  3  0  0  0  0  0  0
  188.8280  175.0100  134.5360 C   0  0  0  0  0  3  0  0  0  0  0  0
  183.4380  179.9360  138.8590 C   0  0  0  0  0  0  0  0  0  0  0  0
  186.4990  176.2010  135.9760 C   0  0  2  0  0  3  0  0  0  0  0  0
  183.6160  175.6880  135.6360 O   0  0  0  0  0  0  0  0  0  0  0  0
  183.9560  174.3310  135.9720 C   0  0  1  0  0  3  0  0  0  0  0  0
  188.0230  173.9360  135.2440 C   0  0  0  0  0  2  0  0  0  0  0  0
  185.9450  175.1960  135.0100 C   0  0  2  0  0  3  0  0  0  0  0  0
  186.0650  173.9430  137.1830 O   0  0  0  0  0  0  0  0  0  0  0  0
  185.3200  172.9950  137.8900 C   0  0  0  0  0  1  0  0  0  0  0  0
  181.0660  175.3390  138.6750 C   0  0  0  0  0  1  0  0  0  0  0  0
  181.7020  176.1850  137.5820 C   0  0  0  0  0  2  0  0  0  0  0  0
  183.1620  173.3670  135.0820 C   0  0  1  0  0  3  0  0  0  0  0  0
  183.5670  170.7920  135.3530 C   0  0  0  0  0  1  0  0  0  0  0  0
  182.4350  172.0170  136.0670 S   0  0  0  0  0  0  0  0  0  0  0  0
  182.0460  174.1000  134.3540 C   0  0  0  0  0  2  0  0  0  0  0  0
  180.8300  173.8800  135.0010 O   0  0  0  0  0  1  0  0  0  0  0  0
  1  5  1  6  0  0  0
  2 13  1  6  0  0  0
  2 17  1  0  0  0  0
  3 19  1  0  0  0  0
  3 22  1  1  0  0  0
  4 18  1  6  0  0  0
  4  1  1  0  0  0  0
  4 10  1  0  0  0  0
  6 16  1  0  0  0  0
  7  6  1  6  0  0  0
  7  9  1  0  0  0  0
  9  5  1  6  0  0  0
  9  8  1  0  0  0  0
 10 25  1  6  0  0  0
 10  7  1  0  0  0  0
 11  2  1  0  0  0  0
 12 16  2  0  0  0  0
 14 21  1  0  0  0  0
 14 20  1  1  0  0  0
 14  3  1  0  0  0  0
 15 11  2  0  0  0  0
 15 20  1  0  0  0  0
 16  8  1  0  0  0  0
 17  1  1  0  0  0  0
 18 19  1  0  0  0  0
 21  3  1  0  0  0  0
 21 17  1  0  0  0  0
 22 23  1  0  0  0  0
 25 24  1  0  0  0  0
 26 19  1  0  0  0  0
 26 28  1  0  0  0  0
 27 28  1  0  0  0  0
 29 30  1  0  0  0  0
 29 26  1  0  0  0  0
M  END
>  <MODEL>
7

>  <REMARK>
 VINA RESULT:      -5.0      6.854      8.747
  Name = 
  5 active torsions:
  status: ('A' for Active; 'I' for Inactive)
    1  A    between atoms: C_3  and  O_11
    2  A    between atoms: C_10  and  C_15
    3  A    between atoms: C_10  and  C_25
    4  A    between atoms: C_10  and  S_26
    5  A    between atoms: C_13  and  C_30
                            x       y       z     vdW  Elec       q    Type
                         _______ _______ _______ _____ _____    ______ ____

>  <TORSDO>
F 5

$$$$
=
 OpenBabel10272413423D

 30 34  0  0  1  0  0  0  0  0999 V2000
  191.0790  173.3050  135.4760 C   0  0  2  0  0  3  0  0  0  0  0  0
  193.7560  172.9170  135.5600 C   0  0  1  0  0  3  0  0  0  0  0  0
  191.7340  176.0510  136.0510 C   0  0  2  0  0  0  0  0  0  0  0  0
  190.1270  173.4970  136.6050 N   0  0  2  0  0  0  0  0  0  0  0  0
  190.9340  171.9150  134.8890 C   0  0  0  0  0  2  0  0  0  0  0  0
  187.9420  171.1760  136.0970 N   0  0  0  0  0  2  0  0  0  0  0  0
  188.4000  172.2840  135.2710 C   0  0  2  0  0  3  0  0  0  0  0  0
  189.2610  170.2680  134.3480 N   0  0  0  0  0  2  0  0  0  0  0  0
  189.5130  171.7000  134.3500 C   0  0  2  0  0  3  0  0  0  0  0  0
  188.7630  173.5620  136.0620 C   0  0  1  0  0  3  0  0  0  0  0  0
  195.0670  173.6890  135.5030 C   0  0  0  0  0  3  0  0  0  0  0  0
  188.0820  168.8520  135.8040 O   0  0  0  0  0  0  0  0  0  0  0  0
  193.7840  171.8040  136.9520 Cl  0  0  0  0  0  0  0  0  0  0  0  0
  193.2640  176.2440  136.3270 C   0  0  2  0  0  3  0  0  0  0  0  0
  195.2550  175.0160  135.3090 C   0  0  0  0  0  3  0  0  0  0  0  0
  188.4020  170.0140  135.4410 C   0  0  0  0  0  0  0  0  0  0  0  0
  192.5350  173.8240  135.6180 C   0  0  2  0  0  3  0  0  0  0  0  0
  190.3860  174.5120  137.5150 O   0  0  0  0  0  0  0  0  0  0  0  0
  190.4530  175.8160  136.9090 C   0  0  1  0  0  3  0  0  0  0  0  0
  194.1780  176.0640  135.0970 C   0  0  0  0  0  2  0  0  0  0  0  0
  192.6380  174.9370  136.6180 C   0  0  2  0  0  3  0  0  0  0  0  0
  191.4570  175.9880  134.6670 O   0  0  0  0  0  0  0  0  0  0  0  0
  190.2560  176.6780  134.4790 C   0  0  0  0  0  1  0  0  0  0  0  0
  186.5160  174.6840  136.4970 C   0  0  0  0  0  1  0  0  0  0  0  0
  187.7000  173.9460  137.1030 C   0  0  0  0  0  2  0  0  0  0  0  0
  190.3180  176.8920  137.9920 C   0  0  1  0  0  3  0  0  0  0  0  0
  188.9990  179.0120  137.1920 C   0  0  0  0  0  1  0  0  0  0  0  0
  188.6010  177.4940  138.1040 S   0  0  0  0  0  0  0  0  0  0  0  0
  190.7370  176.3490  139.3490 C   0  0  0  0  0  2  0  0  0  0  0  0
  191.7570  177.1360  139.8840 O   0  0  0  0  0  1  0  0  0  0  0  0
  1  5  1  1  0  0  0
  1 17  1  0  0  0  0
  1  4  1  0  0  0  0
  2 17  1  0  0  0  0
  2 13  1  1  0  0  0
  3 22  1  6  0  0  0
  3 14  1  0  0  0  0
  3 21  1  0  0  0  0
  3 19  1  0  0  0  0
  4 18  1  6  0  0  0
  7 10  1  0  0  0  0
  7  6  1  1  0  0  0
  8  9  1  0  0  0  0
  8 16  1  0  0  0  0
  9  5  1  1  0  0  0
  9  7  1  0  0  0  0
 10  4  1  0  0  0  0
 10 25  1  1  0  0  0
 11  2  1  0  0  0  0
 14 20  1  6  0  0  0
 14 21  1  0  0  0  0
 15 11  2  0  0  0  0
 16 12  2  0  0  0  0
 16  6  1  0  0  0  0
 17 21  1  0  0  0  0
 19 18  1  0  0  0  0
 19 26  1  0  0  0  0
 20 15  1  0  0  0  0
 23 22  1  0  0  0  0
 24 25  1  0  0  0  0
 26 28  1  0  0  0  0
 26 29  1  0  0  0  0
 27 28  1  0  0  0  0
 29 30  1  0  0  0  0
M  END
>  <MODEL>
8

>  <REMARK>
 VINA RESULT:      -4.7      6.342      8.644
  Name = 
  5 active torsions:
  status: ('A' for Active; 'I' for Inactive)
    1  A    between atoms: C_3  and  O_11
    2  A    between atoms: C_10  and  C_15
    3  A    between atoms: C_10  and  C_25
    4  A    between atoms: C_10  and  S_26
    5  A    between atoms: C_13  and  C_30
                            x       y       z     vdW  Elec       q    Type
                         _______ _______ _______ _____ _____    ______ ____

>  <TORSDO>
F 5

$$$$
=
 OpenBabel10272413423D

 30 34  0  0  1  0  0  0  0  0999 V2000
  190.5600  176.5380  139.7350 C   0  0  2  0  0  3  0  0  0  0  0  0
  193.0880  176.0740  138.8880 C   0  0  1  0  0  3  0  0  0  0  0  0
  189.8570  176.1690  136.9660 C   0  0  2  0  0  0  0  0  0  0  0  0
  189.7360  177.7690  139.5810 N   0  0  2  0  0  0  0  0  0  0  0  0
  191.0530  176.4060  141.1610 C   0  0  0  0  0  2  0  0  0  0  0  0
  188.9060  178.4570  142.6230 N   0  0  0  0  0  2  0  0  0  0  0  0
  188.7000  177.2750  141.7990 C   0  0  2  0  0  3  0  0  0  0  0  0
  190.3440  176.7550  143.4370 N   0  0  0  0  0  2  0  0  0  0  0  0
  189.8720  176.3070  142.1360 C   0  0  2  0  0  3  0  0  0  0  0  0
  188.4680  177.5760  140.2990 C   0  0  1  0  0  3  0  0  0  0  0  0
  193.8540  175.4920  137.7080 C   0  0  0  0  0  3  0  0  0  0  0  0
  190.1240  178.7820  144.6030 O   0  0  0  0  0  0  0  0  0  0  0  0
  193.7690  177.6660  139.3100 Cl  0  0  0  0  0  0  0  0  0  0  0  0
  191.1210  176.0020  136.0560 C   0  0  2  0  0  3  0  0  0  0  0  0
  193.3610  174.9050  136.5910 C   0  0  0  0  0  3  0  0  0  0  0  0
  189.8120  178.0510  143.6270 C   0  0  0  0  0  0  0  0  0  0  0  0
  191.5910  176.1770  138.6320 C   0  0  2  0  0  3  0  0  0  0  0  0
  189.5500  178.2770  138.3030 O   0  0  0  0  0  0  0  0  0  0  0  0
  188.9270  177.3430  137.4030 C   0  0  1  0  0  3  0  0  0  0  0  0
  191.8990  174.6840  136.2520 C   0  0  0  0  0  2  0  0  0  0  0  0
  191.2300  176.7810  137.3080 C   0  0  2  0  0  3  0  0  0  0  0  0
  189.5260  174.9640  137.6260 O   0  0  0  0  0  0  0  0  0  0  0  0
  188.1740  174.7310  137.3570 C   0  0  0  0  0  1  0  0  0  0  0  0
  186.1080  178.4330  140.7360 C   0  0  0  0  0  1  0  0  0  0  0  0
  187.4470  178.7000  140.0640 C   0  0  0  0  0  2  0  0  0  0  0  0
  188.3840  178.0910  136.1810 C   0  0  1  0  0  3  0  0  0  0  0  0
  186.3050  176.9980  135.0160 C   0  0  0  0  0  1  0  0  0  0  0  0
  188.1050  176.9500  134.7880 S   0  0  0  0  0  0  0  0  0  0  0  0
  187.0740  178.7890  136.5130 C   0  0  0  0  0  2  0  0  0  0  0  0
  187.2750  180.1670  136.5960 O   0  0  0  0  0  1  0  0  0  0  0  0
  1  5  1  1  0  0  0
  2 13  1  6  0  0  0
  3 21  1  0  0  0  0
  3 19  1  0  0  0  0
  3 22  1  1  0  0  0
  4 18  1  6  0  0  0
  4  1  1  0  0  0  0
  4 10  1  0  0  0  0
  6 16  1  0  0  0  0
  7  9  1  0  0  0  0
  7  6  1  1  0  0  0
  8 16  1  0  0  0  0
  9  5  1  6  0  0  0
  9  8  1  0  0  0  0
 10 25  1  1  0  0  0
 10  7  1  0  0  0  0
 11  2  1  0  0  0  0
 14 20  1  1  0  0  0
 14  3  1  0  0  0  0
 14 21  1  0  0  0  0
 15 11  2  0  0  0  0
 16 12  2  0  0  0  0
 17  2  1  0  0  0  0
 17  1  1  0  0  0  0
 19 18  1  0  0  0  0
 20 15  1  0  0  0  0
 21 17  1  0  0  0  0
 23 22  1  0  0  0  0
 25 24  1  0  0  0  0
 26 29  1  0  0  0  0
 26 19  1  0  0  0  0
 28 27  1  0  0  0  0
 28 26  1  0  0  0  0
 29 30  1  0  0  0  0
M  END
>  <MODEL>
9

>  <REMARK>
 VINA RESULT:      -4.6      3.878      6.772
  Name = 
  5 active torsions:
  status: ('A' for Active; 'I' for Inactive)
    1  A    between atoms: C_3  and  O_11
    2  A    between atoms: C_10  and  C_15
    3  A    between atoms: C_10  and  C_25
    4  A    between atoms: C_10  and  S_26
    5  A    between atoms: C_13  and  C_30
                            x       y       z     vdW  Elec       q    Type
                         _______ _______ _______ _____ _____    ______ ____

>  <TORSDO>
F 5

$$$$
