=
 OpenBabel10272400523D

 25 28  0  0  1  0  0  0  0  0999 V2000
  187.1370  177.8210  143.1460 C   0  0  0  0  0  0  0  0  0  0  0  0
  188.4720  177.4790  142.9270 C   0  0  0  0  0  0  0  0  0  0  0  0
  186.9460  178.7500  140.9410 C   0  0  0  0  0  3  0  0  0  0  0  0
  186.2450  177.5600  144.3080 C   0  0  2  0  0  3  0  0  0  0  0  0
  190.5670  176.2090  143.4880 C   0  0  1  0  0  3  0  0  0  0  0  0
  184.3360  178.8750  146.0170 C   0  0  0  0  0  3  0  0  0  0  0  0
  188.2590  178.4460  140.7250 N   0  0  0  0  0  0  0  0  0  0  0  0
  184.9850  178.2170  143.8040 C   0  0  0  0  0  0  0  0  0  0  0  0
  183.9540  178.6380  144.7550 C   0  0  0  0  0  3  0  0  0  0  0  0
  189.2940  176.8580  144.0220 C   0  0  0  0  0  2  0  0  0  0  0  0
  185.7650  178.7640  146.4150 C   0  0  0  0  0  3  0  0  0  0  0  0
  186.3840  178.4120  142.1660 C   0  0  0  0  0  0  0  0  0  0  0  0
  185.0620  178.6900  142.5980 N   0  0  0  0  0  0  0  0  0  0  0  0
  190.4550  177.4720  141.3230 C   0  0  2  0  0  3  0  0  0  0  0  0
  186.6760  178.2100  145.5970 C   0  0  0  0  0  3  0  0  0  0  0  0
  191.3030  177.1730  142.5630 C   0  0  0  0  0  2  0  0  0  0  0  0
  189.0350  177.8340  141.6730 C   0  0  0  0  0  0  0  0  0  0  0  0
  192.1680  176.2130  147.0160 C   0  0  0  0  0  0  0  0  0  0  0  0
  192.0080  176.9880  148.1560 O   0  0  0  0  0  1  0  0  0  0  0  0
  192.9980  175.2670  147.0210 O   0  0  0  0  0  0  0  0  0  0  0  0
  191.4490  175.7850  144.6150 C   0  0  0  0  0  0  0  0  0  0  0  0
  191.3850  176.5020  145.8530 N   0  0  0  0  0  2  0  0  0  0  0  0
  192.2360  174.8100  144.4720 O   0  0  0  0  0  0  0  0  0  0  0  0
  190.4620  176.3280  140.4240 N   0  0  0  0  0  2  0  0  0  0  0  0
  191.0880  176.7600  139.1870 C   0  0  0  0  0  1  0  0  0  0  0  0
  1  4  1  0  0  0  0
  2  1  1  0  0  0  0
  2 10  1  0  0  0  0
  3 12  1  0  0  0  0
  4 15  1  1  0  0  0
  5 10  1  0  0  0  0
  5 21  1  1  0  0  0
  6 11  1  0  0  0  0
  7  3  2  0  0  0  0
  7 17  1  0  0  0  0
  8  4  1  0  0  0  0
  8  9  1  0  0  0  0
  9  6  2  0  0  0  0
 12 13  1  0  0  0  0
 12  1  2  0  0  0  0
 13  8  2  0  0  0  0
 14 24  1  6  0  0  0
 14 17  1  0  0  0  0
 14 16  1  0  0  0  0
 15 11  2  0  0  0  0
 16  5  1  0  0  0  0
 17  2  2  0  0  0  0
 18 20  2  0  0  0  0
 18 19  1  0  0  0  0
 21 22  1  0  0  0  0
 22 18  1  0  0  0  0
 23 21  2  0  0  0  0
 25 24  1  0  0  0  0
M  END
>  <MODEL>
1

>  <REMARK>
 VINA RESULT:     -10.0      0.000      0.000
  Name = 
  2 active torsions:
  status: ('A' for Active; 'I' for Inactive)
    1  A    between atoms: C_6  and  C_15
    2  A    between atoms: N_13  and  C_20
                            x       y       z     vdW  Elec       q    Type
                         _______ _______ _______ _____ _____    ______ ____

>  <TORSDO>
F 2

$$$$
=
 OpenBabel10272400523D

 25 28  0  0  1  0  0  0  0  0999 V2000
  187.6440  177.7050  145.6160 C   0  0  0  0  0  0  0  0  0  0  0  0
  186.7790  178.2050  144.6430 C   0  0  0  0  0  0  0  0  0  0  0  0
  186.1710  178.4070  147.3770 C   0  0  0  0  0  3  0  0  0  0  0  0
  188.9170  176.9460  145.4890 C   0  0  2  0  0  3  0  0  0  0  0  0
  185.9440  178.3700  142.2780 C   0  0  1  0  0  3  0  0  0  0  0  0
  191.6020  176.8690  146.5270 C   0  0  0  0  0  3  0  0  0  0  0  0
  185.3300  178.9250  146.4350 N   0  0  0  0  0  0  0  0  0  0  0  0
  189.2440  176.7640  146.9490 C   0  0  0  0  0  0  0  0  0  0  0  0
  190.6230  176.4860  147.3570 C   0  0  0  0  0  3  0  0  0  0  0  0
  187.1490  178.1490  143.1870 C   0  0  0  0  0  2  0  0  0  0  0  0
  191.2940  177.5960  145.2660 C   0  0  0  0  0  3  0  0  0  0  0  0
  187.3310  177.7760  146.9490 C   0  0  0  0  0  0  0  0  0  0  0  0
  188.3500  177.2250  147.7690 N   0  0  0  0  0  0  0  0  0  0  0  0
  184.5810  179.3900  144.1220 C   0  0  2  0  0  3  0  0  0  0  0  0
  190.0350  177.6930  144.8080 C   0  0  0  0  0  3  0  0  0  0  0  0
  185.1680  179.6060  142.7240 C   0  0  0  0  0  2  0  0  0  0  0  0
  185.5990  178.8530  145.0940 C   0  0  0  0  0  0  0  0  0  0  0  0
  188.3080  178.3350  139.2090 C   0  0  0  0  0  0  0  0  0  0  0  0
  189.6530  178.0510  139.0200 O   0  0  0  0  0  1  0  0  0  0  0  0
  187.6000  178.6700  138.2230 O   0  0  0  0  0  0  0  0  0  0  0  0
  186.3800  178.5080  140.8570 C   0  0  0  0  0  0  0  0  0  0  0  0
  187.7470  178.2440  140.5230 N   0  0  0  0  0  2  0  0  0  0  0  0
  185.5520  178.8530  139.9710 O   0  0  0  0  0  0  0  0  0  0  0  0
  183.4440  178.4850  144.0520 N   0  0  0  0  0  2  0  0  0  0  0  0
  182.3150  179.2530  143.5600 C   0  0  0  0  0  1  0  0  0  0  0  0
  1 12  1  0  0  0  0
  2 17  1  0  0  0  0
  2  1  2  0  0  0  0
  4 15  1  6  0  0  0
  4  1  1  0  0  0  0
  4  8  1  0  0  0  0
  5 21  1  6  0  0  0
  5 16  1  0  0  0  0
  5 10  1  0  0  0  0
  6  9  2  0  0  0  0
  7  3  1  0  0  0  0
  8  9  1  0  0  0  0
  8 13  2  0  0  0  0
 10  2  1  0  0  0  0
 11  6  1  0  0  0  0
 12  3  2  0  0  0  0
 12 13  1  0  0  0  0
 14 24  1  6  0  0  0
 14 17  1  0  0  0  0
 15 11  2  0  0  0  0
 16 14  1  0  0  0  0
 17  7  2  0  0  0  0
 18 22  1  0  0  0  0
 19 18  1  0  0  0  0
 20 18  2  0  0  0  0
 22 21  1  0  0  0  0
 23 21  2  0  0  0  0
 25 24  1  0  0  0  0
M  END
>  <MODEL>
2

>  <REMARK>
 VINA RESULT:      -9.8      3.491      6.745
  Name = 
  2 active torsions:
  status: ('A' for Active; 'I' for Inactive)
    1  A    between atoms: C_6  and  C_15
    2  A    between atoms: N_13  and  C_20
                            x       y       z     vdW  Elec       q    Type
                         _______ _______ _______ _____ _____    ______ ____

>  <TORSDO>
F 2

$$$$
=
 OpenBabel10272400523D

 25 28  0  0  1  0  0  0  0  0999 V2000
  187.5360  177.7980  145.6510 C   0  0  0  0  0  0  0  0  0  0  0  0
  186.5510  178.2830  144.7900 C   0  0  0  0  0  0  0  0  0  0  0  0
  186.2890  178.5030  147.5780 C   0  0  0  0  0  3  0  0  0  0  0  0
  188.7900  177.0490  145.3700 C   0  0  2  0  0  3  0  0  0  0  0  0
  185.4240  178.4210  142.5480 C   0  0  1  0  0  3  0  0  0  0  0  0
  191.5840  177.0030  146.0640 C   0  0  0  0  0  3  0  0  0  0  0  0
  185.3320  179.0060  146.7450 N   0  0  0  0  0  0  0  0  0  0  0  0
  189.2990  176.8820  146.7800 C   0  0  0  0  0  0  0  0  0  0  0  0
  190.7210  176.6190  147.0130 C   0  0  0  0  0  3  0  0  0  0  0  0
  186.7360  178.2170  143.3000 C   0  0  0  0  0  2  0  0  0  0  0  0
  191.1140  177.7170  144.8470 C   0  0  0  0  0  3  0  0  0  0  0  0
  187.3920  177.8780  147.0120 C   0  0  0  0  0  0  0  0  0  0  0  0
  188.5100  177.3420  147.7020 N   0  0  0  0  0  0  0  0  0  0  0  0
  184.2940  179.4450  144.5410 C   0  0  2  0  0  3  0  0  0  0  0  0
  189.8060  177.7990  144.5490 C   0  0  0  0  0  3  0  0  0  0  0  0
  184.6990  179.6540  143.0790 C   0  0  0  0  0  2  0  0  0  0  0  0
  185.4300  178.9240  145.3810 C   0  0  0  0  0  0  0  0  0  0  0  0
  184.6650  178.5420  138.7500 C   0  0  0  0  0  0  0  0  0  0  0  0
  183.5150  178.4150  137.9840 O   0  0  0  0  0  0  0  0  0  0  0  0
  185.7700  178.7440  138.1830 O   0  0  0  0  0  1  0  0  0  0  0  0
  185.6780  178.5510  141.0820 C   0  0  0  0  0  0  0  0  0  0  0  0
  184.5750  178.4400  140.1760 N   0  0  0  0  0  2  0  0  0  0  0  0
  186.8470  178.7550  140.6580 O   0  0  0  0  0  0  0  0  0  0  0  0
  183.1650  178.5300  144.6210 N   0  0  0  0  0  2  0  0  0  0  0  0
  182.1140  179.0710  143.7790 C   0  0  0  0  0  1  0  0  0  0  0  0
  1 12  1  0  0  0  0
  2 17  1  0  0  0  0
  2  1  2  0  0  0  0
  4 15  1  6  0  0  0
  4  1  1  0  0  0  0
  4  8  1  0  0  0  0
  5 21  1  6  0  0  0
  5 16  1  0  0  0  0
  5 10  1  0  0  0  0
  6  9  2  0  0  0  0
  7  3  1  0  0  0  0
  8  9  1  0  0  0  0
  8 13  2  0  0  0  0
 10  2  1  0  0  0  0
 11  6  1  0  0  0  0
 12  3  2  0  0  0  0
 12 13  1  0  0  0  0
 14 24  1  6  0  0  0
 14 17  1  0  0  0  0
 15 11  2  0  0  0  0
 16 14  1  0  0  0  0
 17  7  2  0  0  0  0
 18 22  1  0  0  0  0
 19 18  2  0  0  0  0
 20 18  1  0  0  0  0
 22 21  1  0  0  0  0
 23 21  2  0  0  0  0
 25 24  1  0  0  0  0
M  END
>  <MODEL>
3

>  <REMARK>
 VINA RESULT:      -9.8      3.940      7.373
  Name = 
  2 active torsions:
  status: ('A' for Active; 'I' for Inactive)
    1  A    between atoms: C_6  and  C_15
    2  A    between atoms: N_13  and  C_20
                            x       y       z     vdW  Elec       q    Type
                         _______ _______ _______ _____ _____    ______ ____

>  <TORSDO>
F 2

$$$$
=
 OpenBabel10272400523D

 25 28  0  0  1  0  0  0  0  0999 V2000
  185.8200  178.3940  144.1000 C   0  0  0  0  0  0  0  0  0  0  0  0
  187.0920  177.9360  143.7560 C   0  0  0  0  0  0  0  0  0  0  0  0
  186.1720  177.8330  146.4070 C   0  0  0  0  0  3  0  0  0  0  0  0
  184.7710  179.0570  143.2800 C   0  0  2  0  0  3  0  0  0  0  0  0
  189.0580  177.7830  142.1970 C   0  0  1  0  0  3  0  0  0  0  0  0
  181.9430  178.9650  142.7440 C   0  0  0  0  0  3  0  0  0  0  0  0
  187.4080  177.3570  146.0790 N   0  0  0  0  0  0  0  0  0  0  0  0
  183.7130  179.2450  144.3380 C   0  0  0  0  0  0  0  0  0  0  0  0
  182.3150  179.4330  143.9430 C   0  0  0  0  0  3  0  0  0  0  0  0
  187.5450  177.9370  142.3230 C   0  0  0  0  0  2  0  0  0  0  0  0
  182.9070  178.2360  141.8760 C   0  0  0  0  0  3  0  0  0  0  0  0
  185.3840  178.3720  145.3990 C   0  0  0  0  0  0  0  0  0  0  0  0
  184.0600  178.8660  145.5290 N   0  0  0  0  0  0  0  0  0  0  0  0
  189.2890  176.9010  144.5350 C   0  0  2  0  0  3  0  0  0  0  0  0
  184.2210  178.2200  142.1550 C   0  0  0  0  0  3  0  0  0  0  0  0
  189.5410  176.6150  143.0520 C   0  0  0  0  0  2  0  0  0  0  0  0
  187.8860  177.3840  144.7950 C   0  0  0  0  0  0  0  0  0  0  0  0
  189.2290  178.4300  138.3810 C   0  0  0  0  0  0  0  0  0  0  0  0
  188.6760  179.3760  137.5290 O   0  0  0  0  0  0  0  0  0  0  0  0
  189.9720  177.5300  137.9100 O   0  0  0  0  0  1  0  0  0  0  0  0
  189.4470  177.5860  140.7690 C   0  0  0  0  0  0  0  0  0  0  0  0
  188.9440  178.4940  139.7830 N   0  0  0  0  0  2  0  0  0  0  0  0
  190.2050  176.6330  140.4450 O   0  0  0  0  0  0  0  0  0  0  0  0
  190.2450  177.8820  145.0250 N   0  0  0  0  0  2  0  0  0  0  0  0
  191.3980  177.1500  145.5160 C   0  0  0  0  0  1  0  0  0  0  0  0
  1 12  1  0  0  0  0
  2  1  2  0  0  0  0
  2 17  1  0  0  0  0
  4 15  1  6  0  0  0
  4  1  1  0  0  0  0
  4  8  1  0  0  0  0
  5 21  1  6  0  0  0
  5 10  1  0  0  0  0
  5 16  1  0  0  0  0
  6  9  2  0  0  0  0
  7  3  1  0  0  0  0
  8 13  2  0  0  0  0
  9  8  1  0  0  0  0
 10  2  1  0  0  0  0
 11 15  2  0  0  0  0
 11  6  1  0  0  0  0
 12 13  1  0  0  0  0
 12  3  2  0  0  0  0
 14 17  1  0  0  0  0
 14 24  1  6  0  0  0
 16 14  1  0  0  0  0
 17  7  2  0  0  0  0
 18 22  1  0  0  0  0
 19 18  2  0  0  0  0
 20 18  1  0  0  0  0
 22 21  1  0  0  0  0
 23 21  2  0  0  0  0
 24 25  1  0  0  0  0
M  END
>  <MODEL>
4

>  <REMARK>
 VINA RESULT:      -9.7      3.079      5.202
  Name = 
  2 active torsions:
  status: ('A' for Active; 'I' for Inactive)
    1  A    between atoms: C_6  and  C_15
    2  A    between atoms: N_13  and  C_20
                            x       y       z     vdW  Elec       q    Type
                         _______ _______ _______ _____ _____    ______ ____

>  <TORSDO>
F 2

$$$$
=
 OpenBabel10272400523D

 25 28  0  0  1  0  0  0  0  0999 V2000
  189.7040  177.4670  144.6680 C   0  0  0  0  0  0  0  0  0  0  0  0
  189.6410  177.3850  143.2770 C   0  0  0  0  0  0  0  0  0  0  0  0
  191.7510  176.2130  144.7130 C   0  0  0  0  0  3  0  0  0  0  0  0
  188.8330  178.1790  145.6410 C   0  0  2  0  0  3  0  0  0  0  0  0
  188.7670  178.1260  141.0390 C   0  0  1  0  0  3  0  0  0  0  0  0
  187.4720  177.7880  148.1480 C   0  0  0  0  0  3  0  0  0  0  0  0
  191.6860  176.1030  143.3540 N   0  0  0  0  0  0  0  0  0  0  0  0
  189.5330  177.8030  146.9220 C   0  0  0  0  0  0  0  0  0  0  0  0
  188.8080  177.8700  148.1930 C   0  0  0  0  0  3  0  0  0  0  0  0
  188.4720  177.9610  142.5280 C   0  0  0  0  0  2  0  0  0  0  0  0
  186.7620  177.5840  146.8570 C   0  0  0  0  0  3  0  0  0  0  0  0
  190.7500  176.9220  145.3660 C   0  0  0  0  0  0  0  0  0  0  0  0
  190.6130  177.1010  146.7660 N   0  0  0  0  0  0  0  0  0  0  0  0
  190.7130  176.5440  141.1210 C   0  0  2  0  0  3  0  0  0  0  0  0
  187.4050  177.7010  145.6830 C   0  0  0  0  0  3  0  0  0  0  0  0
  189.3560  176.8370  140.4740 C   0  0  0  0  0  2  0  0  0  0  0  0
  190.6670  176.6550  142.6220 C   0  0  0  0  0  0  0  0  0  0  0  0
  185.0420  179.0230  140.4600 C   0  0  0  0  0  0  0  0  0  0  0  0
  183.9310  179.1430  141.2830 O   0  0  0  0  0  1  0  0  0  0  0  0
  184.9250  179.2300  139.2240 O   0  0  0  0  0  0  0  0  0  0  0  0
  187.5260  178.5060  140.3010 C   0  0  0  0  0  0  0  0  0  0  0  0
  186.3050  178.6630  141.0310 N   0  0  0  0  0  2  0  0  0  0  0  0
  187.5620  178.6830  139.0530 O   0  0  0  0  0  0  0  0  0  0  0  0
  191.7250  177.4460  140.5930 N   0  0  0  0  0  2  0  0  0  0  0  0
  192.1180  176.9340  139.2920 C   0  0  0  0  0  1  0  0  0  0  0  0
  1 12  1  0  0  0  0
  1  4  1  0  0  0  0
  2  1  2  0  0  0  0
  3 12  2  0  0  0  0
  4 15  1  1  0  0  0
  4  8  1  0  0  0  0
  5 21  1  6  0  0  0
  5 10  1  0  0  0  0
  6  9  2  0  0  0  0
  7  3  1  0  0  0  0
  8  9  1  0  0  0  0
 10  2  1  0  0  0  0
 11  6  1  0  0  0  0
 12 13  1  0  0  0  0
 13  8  2  0  0  0  0
 14 24  1  6  0  0  0
 14 17  1  0  0  0  0
 15 11  2  0  0  0  0
 16  5  1  0  0  0  0
 16 14  1  0  0  0  0
 17  2  1  0  0  0  0
 17  7  2  0  0  0  0
 18 22  1  0  0  0  0
 18 19  1  0  0  0  0
 20 18  2  0  0  0  0
 21 22  1  0  0  0  0
 23 21  2  0  0  0  0
 25 24  1  0  0  0  0
M  END
>  <MODEL>
5

>  <REMARK>
 VINA RESULT:      -9.3      3.719      5.699
  Name = 
  2 active torsions:
  status: ('A' for Active; 'I' for Inactive)
    1  A    between atoms: C_6  and  C_15
    2  A    between atoms: N_13  and  C_20
                            x       y       z     vdW  Elec       q    Type
                         _______ _______ _______ _____ _____    ______ ____

>  <TORSDO>
F 2

$$$$
=
 OpenBabel10272400523D

 25 28  0  0  1  0  0  0  0  0999 V2000
  187.1100  178.0790  145.4370 C   0  0  0  0  0  0  0  0  0  0  0  0
  188.3870  177.6010  145.1430 C   0  0  0  0  0  0  0  0  0  0  0  0
  187.3060  177.3790  147.7250 C   0  0  0  0  0  3  0  0  0  0  0  0
  186.1320  178.8200  144.5970 C   0  0  2  0  0  3  0  0  0  0  0  0
  190.4390  177.4720  143.6960 C   0  0  1  0  0  3  0  0  0  0  0  0
  183.3400  178.8490  143.8910 C   0  0  0  0  0  3  0  0  0  0  0  0
  188.5450  176.8830  147.4430 N   0  0  0  0  0  0  0  0  0  0  0  0
  185.0180  178.9820  145.6000 C   0  0  0  0  0  0  0  0  0  0  0  0
  183.6520  179.2370  145.1340 C   0  0  0  0  0  3  0  0  0  0  0  0
  188.9260  177.6670  143.7410 C   0  0  0  0  0  2  0  0  0  0  0  0
  184.3340  178.1390  143.0400 C   0  0  0  0  0  3  0  0  0  0  0  0
  186.5960  177.9980  146.7050 C   0  0  0  0  0  0  0  0  0  0  0  0
  185.2810  178.5260  146.7850 N   0  0  0  0  0  0  0  0  0  0  0  0
  190.5020  176.4530  145.9890 C   0  0  2  0  0  3  0  0  0  0  0  0
  185.6280  178.0650  143.3950 C   0  0  0  0  0  3  0  0  0  0  0  0
  190.8360  176.2430  144.5090 C   0  0  0  0  0  2  0  0  0  0  0  0
  189.1010  176.9650  146.1930 C   0  0  0  0  0  0  0  0  0  0  0  0
  190.2340  177.0800  139.8470 C   0  0  0  0  0  0  0  0  0  0  0  0
  189.1950  176.9610  138.9360 O   0  0  0  0  0  0  0  0  0  0  0  0
  191.4240  177.0690  139.4370 O   0  0  0  0  0  1  0  0  0  0  0  0
  190.9070  177.3430  142.2850 C   0  0  0  0  0  0  0  0  0  0  0  0
  189.9360  177.2120  141.2420 N   0  0  0  0  0  2  0  0  0  0  0  0
  192.1410  177.3500  142.0240 O   0  0  0  0  0  0  0  0  0  0  0  0
  191.4540  177.3750  146.5900 N   0  0  0  0  0  2  0  0  0  0  0  0
  191.9980  176.7220  147.7670 C   0  0  0  0  0  1  0  0  0  0  0  0
  1 12  1  0  0  0  0
  2  1  2  0  0  0  0
  2 17  1  0  0  0  0
  4 15  1  6  0  0  0
  4  1  1  0  0  0  0
  4  8  1  0  0  0  0
  5 21  1  6  0  0  0
  5 10  1  0  0  0  0
  5 16  1  0  0  0  0
  6  9  2  0  0  0  0
  7  3  1  0  0  0  0
  8 13  2  0  0  0  0
  9  8  1  0  0  0  0
 10  2  1  0  0  0  0
 11 15  2  0  0  0  0
 11  6  1  0  0  0  0
 12 13  1  0  0  0  0
 12  3  2  0  0  0  0
 14 17  1  0  0  0  0
 14 24  1  6  0  0  0
 16 14  1  0  0  0  0
 17  7  2  0  0  0  0
 18 22  1  0  0  0  0
 19 18  2  0  0  0  0
 20 18  1  0  0  0  0
 22 21  1  0  0  0  0
 23 21  2  0  0  0  0
 24 25  1  0  0  0  0
M  END
>  <MODEL>
6

>  <REMARK>
 VINA RESULT:      -9.1      2.437      4.892
  Name = 
  2 active torsions:
  status: ('A' for Active; 'I' for Inactive)
    1  A    between atoms: C_6  and  C_15
    2  A    between atoms: N_13  and  C_20
                            x       y       z     vdW  Elec       q    Type
                         _______ _______ _______ _____ _____    ______ ____

>  <TORSDO>
F 2

$$$$
=
 OpenBabel10272400523D

 25 28  0  0  1  0  0  0  0  0999 V2000
  189.6900  177.4680  144.6520 C   0  0  0  0  0  0  0  0  0  0  0  0
  189.6050  177.3840  143.2620 C   0  0  0  0  0  0  0  0  0  0  0  0
  191.7470  176.2310  144.6650 C   0  0  0  0  0  3  0  0  0  0  0  0
  188.8290  178.1740  145.6380 C   0  0  2  0  0  3  0  0  0  0  0  0
  188.6890  178.1150  141.0380 C   0  0  1  0  0  3  0  0  0  0  0  0
  187.5120  177.7740  148.1670 C   0  0  0  0  0  3  0  0  0  0  0  0
  191.6620  176.1190  143.3080 N   0  0  0  0  0  0  0  0  0  0  0  0
  189.5520  177.8040  146.9080 C   0  0  0  0  0  0  0  0  0  0  0  0
  188.8480  177.8670  148.1910 C   0  0  0  0  0  3  0  0  0  0  0  0
  188.4200  177.9500  142.5310 C   0  0  0  0  0  2  0  0  0  0  0  0
  186.7830  177.5630  146.8880 C   0  0  0  0  0  3  0  0  0  0  0  0
  190.7520  176.9320  145.3330 C   0  0  0  0  0  0  0  0  0  0  0  0
  190.6360  177.1120  146.7350 N   0  0  0  0  0  0  0  0  0  0  0  0
  190.6490  176.5490  141.0900 C   0  0  2  0  0  3  0  0  0  0  0  0
  187.4060  177.6840  145.7030 C   0  0  0  0  0  3  0  0  0  0  0  0
  189.2800  176.8310  140.4640 C   0  0  0  0  0  2  0  0  0  0  0  0
  190.6270  176.6610  142.5920 C   0  0  0  0  0  0  0  0  0  0  0  0
  186.1570  178.4190  138.1220 C   0  0  0  0  0  0  0  0  0  0  0  0
  186.1520  178.0220  136.7920 O   0  0  0  0  0  0  0  0  0  0  0  0
  185.1590  179.0270  138.5920 O   0  0  0  0  0  1  0  0  0  0  0  0
  187.4340  178.4840  140.3190 C   0  0  0  0  0  0  0  0  0  0  0  0
  187.2980  178.1320  138.9380 N   0  0  0  0  0  2  0  0  0  0  0  0
  186.5130  179.0960  140.9260 O   0  0  0  0  0  0  0  0  0  0  0  0
  191.6450  177.4590  140.5440 N   0  0  0  0  0  2  0  0  0  0  0  0
  192.0010  176.9640  139.2270 C   0  0  0  0  0  1  0  0  0  0  0  0
  1 12  1  0  0  0  0
  1  4  1  0  0  0  0
  2  1  2  0  0  0  0
  3 12  2  0  0  0  0
  4 15  1  1  0  0  0
  4  8  1  0  0  0  0
  5 21  1  6  0  0  0
  5 10  1  0  0  0  0
  6  9  2  0  0  0  0
  7  3  1  0  0  0  0
  8  9  1  0  0  0  0
 10  2  1  0  0  0  0
 11  6  1  0  0  0  0
 12 13  1  0  0  0  0
 13  8  2  0  0  0  0
 14 24  1  6  0  0  0
 14 17  1  0  0  0  0
 15 11  2  0  0  0  0
 16  5  1  0  0  0  0
 16 14  1  0  0  0  0
 17  2  1  0  0  0  0
 17  7  2  0  0  0  0
 18 20  1  0  0  0  0
 18 22  1  0  0  0  0
 19 18  2  0  0  0  0
 21 23  2  0  0  0  0
 22 21  1  0  0  0  0
 25 24  1  0  0  0  0
M  END
>  <MODEL>
7

>  <REMARK>
 VINA RESULT:      -9.1      3.705      5.979
  Name = 
  2 active torsions:
  status: ('A' for Active; 'I' for Inactive)
    1  A    between atoms: C_6  and  C_15
    2  A    between atoms: N_13  and  C_20
                            x       y       z     vdW  Elec       q    Type
                         _______ _______ _______ _____ _____    ______ ____

>  <TORSDO>
F 2

$$$$
=
 OpenBabel10272400523D

 25 28  0  0  1  0  0  0  0  0999 V2000
  187.6390  177.7070  142.5870 C   0  0  0  0  0  0  0  0  0  0  0  0
  188.2150  177.7780  141.3180 C   0  0  0  0  0  0  0  0  0  0  0  0
  185.6100  178.7140  141.7930 C   0  0  0  0  0  3  0  0  0  0  0  0
  188.1470  177.1120  143.8520 C   0  0  2  0  0  3  0  0  0  0  0  0
  189.9420  177.1180  139.6150 C   0  0  1  0  0  3  0  0  0  0  0  0
  188.4100  177.6890  146.6610 C   0  0  0  0  0  3  0  0  0  0  0  0
  186.1720  178.8140  140.5540 N   0  0  0  0  0  0  0  0  0  0  0  0
  186.9800  177.4200  144.7550 C   0  0  0  0  0  0  0  0  0  0  0  0
  187.1720  177.4530  146.2070 C   0  0  0  0  0  3  0  0  0  0  0  0
  189.6330  177.3340  141.0930 C   0  0  0  0  0  2  0  0  0  0  0  0
  189.5300  177.9590  145.7200 C   0  0  0  0  0  3  0  0  0  0  0  0
  186.3570  178.1340  142.8110 C   0  0  0  0  0  0  0  0  0  0  0  0
  185.9720  177.9890  144.1690 N   0  0  0  0  0  0  0  0  0  0  0  0
  187.9560  178.4640  138.8750 C   0  0  2  0  0  3  0  0  0  0  0  0
  189.3950  177.7540  144.3990 C   0  0  0  0  0  3  0  0  0  0  0  0
  189.4800  178.3230  138.7990 C   0  0  0  0  0  2  0  0  0  0  0  0
  187.4420  178.3770  140.2880 C   0  0  0  0  0  0  0  0  0  0  0  0
  193.1880  175.7750  137.9810 C   0  0  0  0  0  0  0  0  0  0  0  0
  193.4660  174.9990  136.8650 O   0  0  0  0  0  0  0  0  0  0  0  0
  194.1340  176.1910  138.7000 O   0  0  0  0  0  1  0  0  0  0  0  0
  191.4010  176.8770  139.4150 C   0  0  0  0  0  0  0  0  0  0  0  0
  191.8270  176.0900  138.2980 N   0  0  0  0  0  2  0  0  0  0  0  0
  192.2390  177.3620  140.2230 O   0  0  0  0  0  0  0  0  0  0  0  0
  187.3190  177.4440  138.0560 N   0  0  0  0  0  2  0  0  0  0  0  0
  186.7400  178.1170  136.9070 C   0  0  0  0  0  1  0  0  0  0  0  0
  1 12  1  0  0  0  0
  1  4  1  0  0  0  0
  2  1  2  0  0  0  0
  3 12  2  0  0  0  0
  4 15  1  1  0  0  0
  4  8  1  0  0  0  0
  5 21  1  1  0  0  0
  5 10  1  0  0  0  0
  7  3  1  0  0  0  0
  8  9  1  0  0  0  0
  9  6  2  0  0  0  0
 10  2  1  0  0  0  0
 11  6  1  0  0  0  0
 12 13  1  0  0  0  0
 13  8  2  0  0  0  0
 14 24  1  6  0  0  0
 14 17  1  0  0  0  0
 15 11  2  0  0  0  0
 16 14  1  0  0  0  0
 16  5  1  0  0  0  0
 17  7  2  0  0  0  0
 17  2  1  0  0  0  0
 18 22  1  0  0  0  0
 18 20  1  0  0  0  0
 19 18  2  0  0  0  0
 21 23  2  0  0  0  0
 22 21  1  0  0  0  0
 25 24  1  0  0  0  0
M  END
>  <MODEL>
8

>  <REMARK>
 VINA RESULT:      -8.9      3.170      4.831
  Name = 
  2 active torsions:
  status: ('A' for Active; 'I' for Inactive)
    1  A    between atoms: C_6  and  C_15
    2  A    between atoms: N_13  and  C_20
                            x       y       z     vdW  Elec       q    Type
                         _______ _______ _______ _____ _____    ______ ____

>  <TORSDO>
F 2

$$$$
=
 OpenBabel10272400523D

 25 28  0  0  1  0  0  0  0  0999 V2000
  189.2990  177.3200  143.1780 C   0  0  0  0  0  0  0  0  0  0  0  0
  188.4920  177.6520  144.2670 C   0  0  0  0  0  0  0  0  0  0  0  0
  191.2580  177.2670  144.5640 C   0  0  0  0  0  3  0  0  0  0  0  0
  188.9490  177.0310  141.7620 C   0  0  2  0  0  3  0  0  0  0  0  0
  186.2590  177.8720  145.3990 C   0  0  1  0  0  3  0  0  0  0  0  0
  189.7570  177.6640  139.0710 C   0  0  0  0  0  3  0  0  0  0  0  0
  190.4840  177.6170  145.6320 N   0  0  0  0  0  0  0  0  0  0  0  0
  190.3290  176.7590  141.2170 C   0  0  0  0  0  0  0  0  0  0  0  0
  190.5790  176.8780  139.7790 C   0  0  0  0  0  3  0  0  0  0  0  0
  187.0250  177.9190  144.0800 C   0  0  0  0  0  2  0  0  0  0  0  0
  188.6660  178.4250  139.7380 C   0  0  0  0  0  3  0  0  0  0  0  0
  190.6430  177.1020  143.3300 C   0  0  0  0  0  0  0  0  0  0  0  0
  191.2790  176.7940  142.1000 N   0  0  0  0  0  0  0  0  0  0  0  0
  188.3460  178.1390  146.7670 C   0  0  2  0  0  3  0  0  0  0  0  0
  188.3250  178.1800  141.0140 C   0  0  0  0  0  3  0  0  0  0  0  0
  186.9670  178.7230  146.4500 C   0  0  0  0  0  2  0  0  0  0  0  0
  189.1340  177.8220  145.5220 C   0  0  0  0  0  0  0  0  0  0  0  0
  182.9880  178.7960  143.5390 C   0  0  0  0  0  0  0  0  0  0  0  0
  182.5870  178.7820  142.2110 O   0  0  0  0  0  0  0  0  0  0  0  0
  182.1820  179.1800  144.4270 O   0  0  0  0  0  1  0  0  0  0  0  0
  184.8540  178.3380  145.2040 C   0  0  0  0  0  0  0  0  0  0  0  0
  184.3140  178.3740  143.8790 N   0  0  0  0  0  2  0  0  0  0  0  0
  184.1610  178.6940  146.1960 O   0  0  0  0  0  0  0  0  0  0  0  0
  188.2070  176.9390  147.5780 N   0  0  0  0  0  2  0  0  0  0  0  0
  187.8620  177.3680  148.9210 C   0  0  0  0  0  1  0  0  0  0  0  0
  1 12  2  0  0  0  0
  1  2  1  0  0  0  0
  2 17  2  0  0  0  0
  3  7  2  0  0  0  0
  4 15  1  6  0  0  0
  4  1  1  0  0  0  0
  5 21  1  6  0  0  0
  5 16  1  0  0  0  0
  6 11  1  0  0  0  0
  6  9  2  0  0  0  0
  8  4  1  0  0  0  0
  8 13  2  0  0  0  0
  9  8  1  0  0  0  0
 10  2  1  0  0  0  0
 10  5  1  0  0  0  0
 11 15  2  0  0  0  0
 12  3  1  0  0  0  0
 13 12  1  0  0  0  0
 14 24  1  6  0  0  0
 16 14  1  0  0  0  0
 17  7  1  0  0  0  0
 17 14  1  0  0  0  0
 18 22  1  0  0  0  0
 18 20  1  0  0  0  0
 19 18  2  0  0  0  0
 21 23  2  0  0  0  0
 22 21  1  0  0  0  0
 24 25  1  0  0  0  0
M  END
>  <MODEL>
9

>  <REMARK>
 VINA RESULT:      -8.9      3.792      7.079
  Name = 
  2 active torsions:
  status: ('A' for Active; 'I' for Inactive)
    1  A    between atoms: C_6  and  C_15
    2  A    between atoms: N_13  and  C_20
                            x       y       z     vdW  Elec       q    Type
                         _______ _______ _______ _____ _____    ______ ____

>  <TORSDO>
F 2

$$$$
