=
 OpenBabel10272413373D

 32 37  0  0  1  0  0  0  0  0999 V2000
  189.2260  176.9310  146.9990 C   0  0  2  0  0  3  0  0  0  0  0  0
  186.0930  178.1550  143.1220 C   0  0  0  0  0  0  0  0  0  0  0  0
  188.8200  177.3670  139.1940 C   0  0  0  0  0  3  0  0  0  0  0  0
  187.7640  177.6180  138.4120 C   0  0  0  0  0  3  0  0  0  0  0  0
  183.6520  178.5330  142.7920 C   0  0  0  0  0  0  0  0  0  0  0  0
  182.6200  178.7750  141.8920 C   0  0  0  0  0  0  0  0  0  0  0  0
  187.0610  177.8070  145.3390 C   0  0  0  0  0  0  0  0  0  0  0  0
  188.4890  177.7870  143.3840 C   0  0  0  0  0  3  0  0  0  0  0  0
  181.6220  179.1180  139.9730 C   0  0  0  0  0  0  0  0  0  0  0  0
  189.5650  177.4750  145.6120 C   0  0  0  0  0  2  0  0  0  0  0  0
  188.9210  178.0140  140.5450 C   0  0  0  0  0  2  0  0  0  0  0  0
  187.3820  178.0280  142.5540 C   0  0  0  0  0  0  0  0  0  0  0  0
  187.5460  178.1410  141.1650 C   0  0  0  0  0  0  0  0  0  0  0  0
  185.2010  178.5100  140.8690 C   0  0  0  0  0  0  0  0  0  0  0  0
  180.6570  179.1590  140.9200 N   0  0  0  0  0  0  0  0  0  0  0  0
  188.1200  177.7750  147.6210 C   0  0  0  0  0  2  0  0  0  0  0  0
  188.3380  177.6600  144.7640 C   0  0  0  0  0  0  0  0  0  0  0  0
  181.2670  178.9470  142.1120 C   0  0  0  0  0  3  0  0  0  0  0  0
  186.8350  177.6130  146.8130 C   0  0  0  0  0  2  0  0  0  0  0  0
  186.6900  178.5490  138.9040 C   0  0  0  0  0  2  0  0  0  0  0  0
  186.4660  178.3780  140.3520 N   0  0  0  0  0  0  0  0  0  0  0  0
  184.1090  178.7570  140.0050 C   0  0  0  0  0  3  0  0  0  0  0  0
  185.9580  178.0340  144.5160 C   0  0  0  0  0  3  0  0  0  0  0  0
  183.3610  178.4410  144.1160 F   0  0  0  0  0  0  0  0  0  0  0  0
  181.3640  179.3060  138.5190 C   0  0  0  0  0  1  0  0  0  0  0  0
  184.9800  178.3960  142.2840 C   0  0  0  0  0  0  0  0  0  0  0  0
  182.8420  178.8820  140.5550 C   0  0  0  0  0  0  0  0  0  0  0  0
  190.3610  176.9730  147.8100 O   0  0  0  0  0  0  0  0  0  0  0  0
  191.4370  176.9550  146.9200 C   0  0  0  0  0  2  0  0  0  0  0  0
  192.3680  175.8540  147.2850 C   0  0  0  0  0  0  0  0  0  0  0  0
  193.0730  175.9110  148.4810 O   0  0  0  0  0  1  0  0  0  0  0  0
  192.5380  174.8870  146.5000 O   0  0  0  0  0  0  0  0  0  0  0  0
  1 16  1  0  0  0  0
  1 28  1  1  0  0  0
  2 23  1  0  0  0  0
  3 11  1  0  0  0  0
  4 20  1  0  0  0  0
  4  3  2  0  0  0  0
  5 24  1  0  0  0  0
  6 18  1  0  0  0  0
  6  5  2  0  0  0  0
  7 19  1  0  0  0  0
  8 17  2  0  0  0  0
  9 27  2  0  0  0  0
  9 15  1  0  0  0  0
 10  1  1  0  0  0  0
 11 13  1  0  0  0  0
 12  2  1  0  0  0  0
 12  8  1  0  0  0  0
 13 12  2  0  0  0  0
 14 26  1  0  0  0  0
 15 18  2  0  0  0  0
 17  7  1  0  0  0  0
 17 10  1  0  0  0  0
 19 16  1  0  0  0  0
 20 21  1  0  0  0  0
 21 14  1  0  0  0  0
 21 13  1  0  0  0  0
 22 27  1  0  0  0  0
 22 14  2  0  0  0  0
 23  7  2  0  0  0  0
 25  9  1  0  0  0  0
 26  5  1  0  0  0  0
 26  2  2  0  0  0  0
 27  6  1  0  0  0  0
 29 30  1  0  0  0  0
 29 28  1  0  0  0  0
 30 31  1  0  0  0  0
 32 30  2  0  0  0  0
M  END
>  <MODEL>
1

>  <REMARK>
 VINA RESULT:     -10.9      0.000      0.000
  Name = 
  3 active torsions:
  status: ('A' for Active; 'I' for Inactive)
    1  A    between atoms: C_1  and  C_10
    2  A    between atoms: C_2  and  O_24
    3  A    between atoms: C_10  and  O_24
                            x       y       z     vdW  Elec       q    Type
                         _______ _______ _______ _____ _____    ______ ____

>  <TORSDO>
F 3

$$$$
=
 OpenBabel10272413373D

 32 37  0  0  1  0  0  0  0  0999 V2000
  188.5530  177.1170  146.3040 C   0  0  2  0  0  3  0  0  0  0  0  0
  185.4210  178.3170  142.4180 C   0  0  0  0  0  0  0  0  0  0  0  0
  188.1660  177.5570  138.4970 C   0  0  0  0  0  3  0  0  0  0  0  0
  187.1110  177.8000  137.7130 C   0  0  0  0  0  3  0  0  0  0  0  0
  182.9770  178.6740  142.0820 C   0  0  0  0  0  0  0  0  0  0  0  0
  181.9460  178.9080  141.1790 C   0  0  0  0  0  0  0  0  0  0  0  0
  186.3860  177.9750  144.6380 C   0  0  0  0  0  0  0  0  0  0  0  0
  187.8190  177.9700  142.6870 C   0  0  0  0  0  3  0  0  0  0  0  0
  180.9510  179.2440  139.2570 C   0  0  0  0  0  0  0  0  0  0  0  0
  188.8910  177.6660  144.9180 C   0  0  0  0  0  2  0  0  0  0  0  0
  188.2570  178.2040  139.8490 C   0  0  0  0  0  2  0  0  0  0  0  0
  186.7130  178.2020  141.8540 C   0  0  0  0  0  0  0  0  0  0  0  0
  186.8800  178.3180  140.4650 C   0  0  0  0  0  0  0  0  0  0  0  0
  184.5330  178.6660  140.1630 C   0  0  0  0  0  0  0  0  0  0  0  0
  179.9820  179.2750  140.2010 N   0  0  0  0  0  0  0  0  0  0  0  0
  187.4380  177.9500  146.9230 C   0  0  0  0  0  2  0  0  0  0  0  0
  187.6650  177.8400  144.0660 C   0  0  0  0  0  0  0  0  0  0  0  0
  180.5910  179.0680  141.3950 C   0  0  0  0  0  3  0  0  0  0  0  0
  186.1560  177.7780  146.1110 C   0  0  0  0  0  2  0  0  0  0  0  0
  186.0270  178.7210  138.2030 C   0  0  0  0  0  2  0  0  0  0  0  0
  185.8000  178.5470  139.6490 N   0  0  0  0  0  0  0  0  0  0  0  0
  183.4410  178.9040  139.2960 C   0  0  0  0  0  3  0  0  0  0  0  0
  185.2830  178.1940  143.8120 C   0  0  0  0  0  3  0  0  0  0  0  0
  182.6830  178.5780  143.4050 F   0  0  0  0  0  0  0  0  0  0  0  0
  180.6950  179.4310  137.8030 C   0  0  0  0  0  1  0  0  0  0  0  0
  184.3080  178.5490  141.5770 C   0  0  0  0  0  0  0  0  0  0  0  0
  182.1710  179.0180  139.8420 C   0  0  0  0  0  0  0  0  0  0  0  0
  189.6850  177.1680  147.1170 O   0  0  0  0  0  0  0  0  0  0  0  0
  190.7610  176.9920  146.2450 C   0  0  0  0  0  2  0  0  0  0  0  0
  191.8910  176.3510  146.9700 C   0  0  0  0  0  0  0  0  0  0  0  0
  192.3900  175.1300  146.5360 O   0  0  0  0  0  0  0  0  0  0  0  0
  192.3750  176.9010  147.9920 O   0  0  0  0  0  1  0  0  0  0  0  0
  1 16  1  0  0  0  0
  1 28  1  1  0  0  0
  2 23  1  0  0  0  0
  3 11  1  0  0  0  0
  4 20  1  0  0  0  0
  4  3  2  0  0  0  0
  5 24  1  0  0  0  0
  6 18  1  0  0  0  0
  6  5  2  0  0  0  0
  7 19  1  0  0  0  0
  8 17  2  0  0  0  0
  9 27  2  0  0  0  0
  9 15  1  0  0  0  0
 10  1  1  0  0  0  0
 11 13  1  0  0  0  0
 12  2  1  0  0  0  0
 12  8  1  0  0  0  0
 13 12  2  0  0  0  0
 14 26  1  0  0  0  0
 15 18  2  0  0  0  0
 17  7  1  0  0  0  0
 17 10  1  0  0  0  0
 19 16  1  0  0  0  0
 20 21  1  0  0  0  0
 21 14  1  0  0  0  0
 21 13  1  0  0  0  0
 22 27  1  0  0  0  0
 22 14  2  0  0  0  0
 23  7  2  0  0  0  0
 25  9  1  0  0  0  0
 26  5  1  0  0  0  0
 26  2  2  0  0  0  0
 27  6  1  0  0  0  0
 29 30  1  0  0  0  0
 29 28  1  0  0  0  0
 30 32  1  0  0  0  0
 31 30  2  0  0  0  0
M  END
>  <MODEL>
2

>  <REMARK>
 VINA RESULT:     -10.2      0.863      1.116
  Name = 
  3 active torsions:
  status: ('A' for Active; 'I' for Inactive)
    1  A    between atoms: C_1  and  C_10
    2  A    between atoms: C_2  and  O_24
    3  A    between atoms: C_10  and  O_24
                            x       y       z     vdW  Elec       q    Type
                         _______ _______ _______ _____ _____    ______ ____

>  <TORSDO>
F 3

$$$$
=
 OpenBabel10272413373D

 32 37  0  0  1  0  0  0  0  0999 V2000
  181.2240  179.5370  141.5620 C   0  0  2  0  0  3  0  0  0  0  0  0
  185.6450  178.1990  143.8010 C   0  0  0  0  0  0  0  0  0  0  0  0
  188.8230  178.3000  140.1430 C   0  0  0  0  0  3  0  0  0  0  0  0
  189.8190  178.0660  141.0040 C   0  0  0  0  0  3  0  0  0  0  0  0
  186.5380  178.0160  146.1200 C   0  0  0  0  0  0  0  0  0  0  0  0
  187.6440  177.7760  146.9290 C   0  0  0  0  0  0  0  0  0  0  0  0
  183.2920  178.6930  143.3550 C   0  0  0  0  0  0  0  0  0  0  0  0
  184.8260  178.3680  141.5100 C   0  0  0  0  0  3  0  0  0  0  0  0
  189.7160  177.3220  147.4740 C   0  0  0  0  0  0  0  0  0  0  0  0
  182.4340  178.8170  140.9680 C   0  0  0  0  0  2  0  0  0  0  0  0
  187.4410  177.7960  140.4440 C   0  0  0  0  0  2  0  0  0  0  0  0
  185.8830  178.1430  142.4080 C   0  0  0  0  0  0  0  0  0  0  0  0
  187.1730  177.8660  141.9320 C   0  0  0  0  0  0  0  0  0  0  0  0
  188.0120  177.6870  144.1650 C   0  0  0  0  0  0  0  0  0  0  0  0
  189.0390  177.4740  148.6350 N   0  0  0  0  0  0  0  0  0  0  0  0
  180.8300  178.8720  142.8740 C   0  0  0  0  0  2  0  0  0  0  0  0
  183.5420  178.6570  141.9710 C   0  0  0  0  0  0  0  0  0  0  0  0
  187.7530  177.7550  148.3060 C   0  0  0  0  0  3  0  0  0  0  0  0
  181.9420  179.0650  143.9020 C   0  0  0  0  0  2  0  0  0  0  0  0
  189.5340  177.2980  142.2660 C   0  0  0  0  0  2  0  0  0  0  0  0
  188.2070  177.6440  142.8070 N   0  0  0  0  0  0  0  0  0  0  0  0
  189.0960  177.4520  145.0410 C   0  0  0  0  0  3  0  0  0  0  0  0
  184.3420  178.4810  144.2500 C   0  0  0  0  0  3  0  0  0  0  0  0
  185.3410  178.2780  146.7060 F   0  0  0  0  0  0  0  0  0  0  0  0
  191.1680  177.0030  147.3980 C   0  0  0  0  0  1  0  0  0  0  0  0
  186.7110  177.9740  144.7030 C   0  0  0  0  0  0  0  0  0  0  0  0
  188.8700  177.5050  146.4080 C   0  0  0  0  0  0  0  0  0  0  0  0
  180.1560  179.4770  140.6650 O   0  0  0  0  0  0  0  0  0  0  0  0
  179.9820  180.7910  140.2280 C   0  0  0  0  0  2  0  0  0  0  0  0
  180.4950  180.9270  138.8390 C   0  0  0  0  0  0  0  0  0  0  0  0
  180.3700  179.8690  137.9470 O   0  0  0  0  0  0  0  0  0  0  0  0
  181.0670  181.9880  138.4790 O   0  0  0  0  0  1  0  0  0  0  0  0
  1 28  1  6  0  0  0
  1 16  1  0  0  0  0
  2 23  1  0  0  0  0
  2 26  2  0  0  0  0
  3 11  1  0  0  0  0
  3  4  2  0  0  0  0
  4 20  1  0  0  0  0
  5 24  1  0  0  0  0
  5  6  2  0  0  0  0
  6 18  1  0  0  0  0
  7 19  1  0  0  0  0
  7 23  2  0  0  0  0
  8 17  2  0  0  0  0
  8 12  1  0  0  0  0
  9 15  1  0  0  0  0
 10  1  1  0  0  0  0
 10 17  1  0  0  0  0
 11 13  1  0  0  0  0
 12  2  1  0  0  0  0
 13 12  2  0  0  0  0
 13 21  1  0  0  0  0
 14 26  1  0  0  0  0
 14 22  2  0  0  0  0
 16 19  1  0  0  0  0
 17  7  1  0  0  0  0
 18 15  2  0  0  0  0
 20 21  1  0  0  0  0
 21 14  1  0  0  0  0
 22 27  1  0  0  0  0
 25  9  1  0  0  0  0
 26  5  1  0  0  0  0
 27  6  1  0  0  0  0
 27  9  2  0  0  0  0
 29 28  1  0  0  0  0
 30 29  1  0  0  0  0
 31 30  2  0  0  0  0
 32 30  1  0  0  0  0
M  END
>  <MODEL>
3

>  <REMARK>
 VINA RESULT:     -10.0      4.759      8.451
  Name = 
  3 active torsions:
  status: ('A' for Active; 'I' for Inactive)
    1  A    between atoms: C_1  and  C_10
    2  A    between atoms: C_2  and  O_24
    3  A    between atoms: C_10  and  O_24
                            x       y       z     vdW  Elec       q    Type
                         _______ _______ _______ _____ _____    ______ ____

>  <TORSDO>
F 3

$$$$
=
 OpenBabel10272413373D

 32 37  0  0  1  0  0  0  0  0999 V2000
  189.4720  176.8430  136.9760 C   0  0  2  0  0  3  0  0  0  0  0  0
  188.6860  177.5630  141.9960 C   0  0  0  0  0  0  0  0  0  0  0  0
  183.9470  178.5430  142.2550 C   0  0  0  0  0  3  0  0  0  0  0  0
  184.0210  178.5410  143.5900 C   0  0  0  0  0  3  0  0  0  0  0  0
  189.9010  177.0990  144.1230 C   0  0  0  0  0  0  0  0  0  0  0  0
  189.8690  177.1190  145.5130 C   0  0  0  0  0  0  0  0  0  0  0  0
  189.7110  177.1800  139.8100 C   0  0  0  0  0  0  0  0  0  0  0  0
  187.4500  178.0340  139.9490 C   0  0  0  0  0  3  0  0  0  0  0  0
  189.0850  177.4320  147.5330 C   0  0  0  0  0  0  0  0  0  0  0  0
  188.4370  177.7190  137.6800 C   0  0  0  0  0  2  0  0  0  0  0  0
  185.1510  178.9210  141.4410 C   0  0  0  0  0  2  0  0  0  0  0  0
  187.5110  178.0120  141.3510 C   0  0  0  0  0  0  0  0  0  0  0  0
  186.4120  178.4320  142.1180 C   0  0  0  0  0  0  0  0  0  0  0  0
  187.5960  177.9870  144.1480 C   0  0  0  0  0  0  0  0  0  0  0  0
  190.3400  176.9490  147.6800 N   0  0  0  0  0  0  0  0  0  0  0  0
  190.8500  177.1060  137.5680 C   0  0  0  0  0  2  0  0  0  0  0  0
  188.5290  177.6070  139.1770 C   0  0  0  0  0  0  0  0  0  0  0  0
  190.8330  176.7530  146.4320 C   0  0  0  0  0  3  0  0  0  0  0  0
  190.8780  176.6480  139.0250 C   0  0  0  0  0  2  0  0  0  0  0  0
  185.3160  178.9180  144.2560 C   0  0  0  0  0  2  0  0  0  0  0  0
  186.4710  178.4140  143.4890 N   0  0  0  0  0  0  0  0  0  0  0  0
  187.6270  177.9830  145.5620 C   0  0  0  0  0  3  0  0  0  0  0  0
  189.7710  177.1460  141.2040 C   0  0  0  0  0  3  0  0  0  0  0  0
  191.0270  176.6660  143.4980 F   0  0  0  0  0  0  0  0  0  0  0  0
  188.1940  177.7810  148.6740 C   0  0  0  0  0  1  0  0  0  0  0  0
  188.7450  177.5420  143.4100 C   0  0  0  0  0  0  0  0  0  0  0  0
  188.7760  177.5430  146.2010 C   0  0  0  0  0  0  0  0  0  0  0  0
  189.4830  177.1370  135.6110 O   0  0  0  0  0  0  0  0  0  0  0  0
  189.6270  175.9000  134.9800 C   0  0  0  0  0  2  0  0  0  0  0  0
  188.2890  175.2790  134.7900 C   0  0  0  0  0  0  0  0  0  0  0  0
  187.2180  176.0540  134.3650 O   0  0  0  0  0  0  0  0  0  0  0  0
  188.1200  174.0580  135.0410 O   0  0  0  0  0  1  0  0  0  0  0  0
  1 28  1  6  0  0  0
  1 16  1  0  0  0  0
  1 10  1  0  0  0  0
  2 26  2  0  0  0  0
  3  4  2  0  0  0  0
  4 20  1  0  0  0  0
  5  6  2  0  0  0  0
  6 27  1  0  0  0  0
  6 18  1  0  0  0  0
  7 23  2  0  0  0  0
  8 12  1  0  0  0  0
  9 15  1  0  0  0  0
  9 25  1  0  0  0  0
 10 17  1  0  0  0  0
 11 13  1  0  0  0  0
 11  3  1  0  0  0  0
 12  2  1  0  0  0  0
 12 13  2  0  0  0  0
 13 21  1  0  0  0  0
 14 22  2  0  0  0  0
 16 19  1  0  0  0  0
 17  7  1  0  0  0  0
 17  8  2  0  0  0  0
 18 15  2  0  0  0  0
 19  7  1  0  0  0  0
 21 14  1  0  0  0  0
 21 20  1  0  0  0  0
 22 27  1  0  0  0  0
 23  2  1  0  0  0  0
 24  5  1  0  0  0  0
 26  5  1  0  0  0  0
 26 14  1  0  0  0  0
 27  9  2  0  0  0  0
 29 28  1  0  0  0  0
 30 29  1  0  0  0  0
 30 32  1  0  0  0  0
 31 30  2  0  0  0  0
M  END
>  <MODEL>
4

>  <REMARK>
 VINA RESULT:      -9.8      4.603      8.489
  Name = 
  3 active torsions:
  status: ('A' for Active; 'I' for Inactive)
    1  A    between atoms: C_1  and  C_10
    2  A    between atoms: C_2  and  O_24
    3  A    between atoms: C_10  and  O_24
                            x       y       z     vdW  Elec       q    Type
                         _______ _______ _______ _____ _____    ______ ____

>  <TORSDO>
F 3

$$$$
=
 OpenBabel10272413373D

 32 37  0  0  1  0  0  0  0  0999 V2000
  191.2390  176.9200  137.3720 C   0  0  2  0  0  3  0  0  0  0  0  0
  188.6080  177.3610  141.7580 C   0  0  0  0  0  0  0  0  0  0  0  0
  191.9810  176.6280  145.1600 C   0  0  0  0  0  3  0  0  0  0  0  0
  191.0860  176.9240  146.1090 C   0  0  0  0  0  3  0  0  0  0  0  0
  186.3920  178.2430  142.4800 C   0  0  0  0  0  0  0  0  0  0  0  0
  185.5420  178.5330  143.5420 C   0  0  0  0  0  0  0  0  0  0  0  0
  189.2360  177.2130  139.4000 C   0  0  0  0  0  0  0  0  0  0  0  0
  190.7910  176.4910  141.1090 C   0  0  0  0  0  3  0  0  0  0  0  0
  184.8410  178.7040  145.6100 C   0  0  0  0  0  0  0  0  0  0  0  0
  191.4910  176.2590  138.7260 C   0  0  0  0  0  2  0  0  0  0  0  0
  191.5220  176.0370  143.8580 C   0  0  0  0  0  2  0  0  0  0  0  0
  189.8670  176.8210  142.1120 C   0  0  0  0  0  0  0  0  0  0  0  0
  190.1830  176.6210  143.4650 C   0  0  0  0  0  0  0  0  0  0  0  0
  188.0480  177.4630  144.1390 C   0  0  0  0  0  0  0  0  0  0  0  0
  183.8390  179.1630  144.8260 N   0  0  0  0  0  0  0  0  0  0  0  0
  189.7750  176.7480  136.9870 C   0  0  0  0  0  2  0  0  0  0  0  0
  190.4940  176.6970  139.7620 C   0  0  0  0  0  0  0  0  0  0  0  0
  184.2650  179.0600  143.5430 C   0  0  0  0  0  3  0  0  0  0  0  0
  188.8920  177.5160  137.9680 C   0  0  0  0  0  2  0  0  0  0  0  0
  189.6280  176.6590  145.8520 C   0  0  0  0  0  2  0  0  0  0  0  0
  189.2790  176.9400  144.4480 N   0  0  0  0  0  0  0  0  0  0  0  0
  187.1380  177.7800  145.1740 C   0  0  0  0  0  3  0  0  0  0  0  0
  188.3190  177.5530  140.3950 C   0  0  0  0  0  3  0  0  0  0  0  0
  185.9680  178.4870  141.2130 F   0  0  0  0  0  0  0  0  0  0  0  0
  184.7710  178.6480  147.0960 C   0  0  0  0  0  1  0  0  0  0  0  0
  187.6780  177.6930  142.7700 C   0  0  0  0  0  0  0  0  0  0  0  0
  185.9030  178.3100  144.8340 C   0  0  0  0  0  0  0  0  0  0  0  0
  192.0520  176.3310  136.4040 O   0  0  0  0  0  0  0  0  0  0  0  0
  193.2730  176.1140  137.0450 C   0  0  0  0  0  2  0  0  0  0  0  0
  194.3780  176.1900  136.0520 C   0  0  0  0  0  0  0  0  0  0  0  0
  194.7830  175.0470  135.3750 O   0  0  0  0  0  0  0  0  0  0  0  0
  194.9650  177.2830  135.8460 O   0  0  0  0  0  1  0  0  0  0  0  0
  1 28  1  6  0  0  0
  1 10  1  0  0  0  0
  2 12  1  0  0  0  0
  2 26  2  0  0  0  0
  3  4  2  0  0  0  0
  5 26  1  0  0  0  0
  5  6  2  0  0  0  0
  6 18  1  0  0  0  0
  6 27  1  0  0  0  0
  7 17  1  0  0  0  0
  7 23  2  0  0  0  0
  8 12  1  0  0  0  0
  9 25  1  0  0  0  0
 10 17  1  0  0  0  0
 11  3  1  0  0  0  0
 12 13  2  0  0  0  0
 13 11  1  0  0  0  0
 13 21  1  0  0  0  0
 14 21  1  0  0  0  0
 14 22  2  0  0  0  0
 15  9  1  0  0  0  0
 16  1  1  0  0  0  0
 16 19  1  0  0  0  0
 17  8  2  0  0  0  0
 18 15  2  0  0  0  0
 19  7  1  0  0  0  0
 20  4  1  0  0  0  0
 21 20  1  0  0  0  0
 23  2  1  0  0  0  0
 24  5  1  0  0  0  0
 26 14  1  0  0  0  0
 27 22  1  0  0  0  0
 27  9  2  0  0  0  0
 28 29  1  0  0  0  0
 30 29  1  0  0  0  0
 31 30  2  0  0  0  0
 32 30  1  0  0  0  0
M  END
>  <MODEL>
5

>  <REMARK>
 VINA RESULT:      -9.7      4.260      7.221
  Name = 
  3 active torsions:
  status: ('A' for Active; 'I' for Inactive)
    1  A    between atoms: C_1  and  C_10
    2  A    between atoms: C_2  and  O_24
    3  A    between atoms: C_10  and  O_24
                            x       y       z     vdW  Elec       q    Type
                         _______ _______ _______ _____ _____    ______ ____

>  <TORSDO>
F 3

$$$$
=
 OpenBabel10272413373D

 32 37  0  0  1  0  0  0  0  0999 V2000
  192.3650  177.5130  139.9770 C   0  0  2  0  0  3  0  0  0  0  0  0
  187.7550  177.8410  142.2090 C   0  0  0  0  0  0  0  0  0  0  0  0
  188.8120  178.0010  146.9360 C   0  0  0  0  0  3  0  0  0  0  0  0
  187.5210  178.2100  147.2160 C   0  0  0  0  0  3  0  0  0  0  0  0
  185.4210  178.3720  141.5150 C   0  0  0  0  0  0  0  0  0  0  0  0
  184.1070  178.5940  141.9140 C   0  0  0  0  0  0  0  0  0  0  0  0
  189.5670  177.6130  140.5850 C   0  0  0  0  0  0  0  0  0  0  0  0
  190.0200  177.3200  142.9450 C   0  0  0  0  0  3  0  0  0  0  0  0
  182.3870  178.8080  143.2530 C   0  0  0  0  0  0  0  0  0  0  0  0
  191.9150  177.0210  141.3520 C   0  0  0  0  0  2  0  0  0  0  0  0
  189.1940  177.2320  145.7040 C   0  0  0  0  0  2  0  0  0  0  0  0
  188.6710  177.5630  143.2500 C   0  0  0  0  0  0  0  0  0  0  0  0
  188.2260  177.5340  144.5810 C   0  0  0  0  0  0  0  0  0  0  0  0
  185.9900  178.0380  143.8960 C   0  0  0  0  0  0  0  0  0  0  0  0
  181.9250  179.0160  142.0000 N   0  0  0  0  0  0  0  0  0  0  0  0
  191.3690  177.0530  138.9210 C   0  0  0  0  0  2  0  0  0  0  0  0
  190.4770  177.3590  141.6290 C   0  0  0  0  0  0  0  0  0  0  0  0
  182.9840  178.8850  141.1630 C   0  0  0  0  0  3  0  0  0  0  0  0
  190.0210  177.7310  139.1570 C   0  0  0  0  0  2  0  0  0  0  0  0
  186.4700  177.6710  146.2860 C   0  0  0  0  0  2  0  0  0  0  0  0
  186.9070  177.7690  144.8810 N   0  0  0  0  0  0  0  0  0  0  0  0
  184.6380  178.2730  144.2360 C   0  0  0  0  0  3  0  0  0  0  0  0
  188.2280  177.8650  140.8850 C   0  0  0  0  0  3  0  0  0  0  0  0
  185.7240  178.4320  140.1930 F   0  0  0  0  0  0  0  0  0  0  0  0
  181.5320  178.8630  144.4710 C   0  0  0  0  0  1  0  0  0  0  0  0
  186.3960  178.0860  142.5180 C   0  0  0  0  0  0  0  0  0  0  0  0
  183.7340  178.5460  143.2210 C   0  0  0  0  0  0  0  0  0  0  0  0
  193.6290  176.9990  139.6860 O   0  0  0  0  0  0  0  0  0  0  0  0
  193.4750  176.3380  138.4660 C   0  0  0  0  0  2  0  0  0  0  0  0
  194.3120  175.1090  138.4550 C   0  0  0  0  0  0  0  0  0  0  0  0
  195.4590  175.0440  139.2370 O   0  0  0  0  0  1  0  0  0  0  0  0
  193.9990  174.1400  137.7170 O   0  0  0  0  0  0  0  0  0  0  0  0
  1 28  1  6  0  0  0
  1 10  1  0  0  0  0
  2 26  2  0  0  0  0
  2 12  1  0  0  0  0
  3  4  2  0  0  0  0
  5  6  2  0  0  0  0
  5 26  1  0  0  0  0
  6 27  1  0  0  0  0
  7 23  2  0  0  0  0
  7 17  1  0  0  0  0
  8 12  1  0  0  0  0
  9 25  1  0  0  0  0
 10 17  1  0  0  0  0
 11  3  1  0  0  0  0
 12 13  2  0  0  0  0
 13 21  1  0  0  0  0
 13 11  1  0  0  0  0
 14 22  2  0  0  0  0
 14 21  1  0  0  0  0
 15  9  1  0  0  0  0
 16 19  1  0  0  0  0
 16  1  1  0  0  0  0
 17  8  2  0  0  0  0
 18  6  1  0  0  0  0
 18 15  2  0  0  0  0
 19  7  1  0  0  0  0
 20  4  1  0  0  0  0
 21 20  1  0  0  0  0
 23  2  1  0  0  0  0
 24  5  1  0  0  0  0
 26 14  1  0  0  0  0
 27  9  2  0  0  0  0
 27 22  1  0  0  0  0
 29 28  1  0  0  0  0
 30 29  1  0  0  0  0
 30 31  1  0  0  0  0
 32 30  2  0  0  0  0
M  END
>  <MODEL>
6

>  <REMARK>
 VINA RESULT:      -9.7      3.314      5.839
  Name = 
  3 active torsions:
  status: ('A' for Active; 'I' for Inactive)
    1  A    between atoms: C_1  and  C_10
    2  A    between atoms: C_2  and  O_24
    3  A    between atoms: C_10  and  O_24
                            x       y       z     vdW  Elec       q    Type
                         _______ _______ _______ _____ _____    ______ ____

>  <TORSDO>
F 3

$$$$
=
 OpenBabel10272413373D

 32 37  0  0  1  0  0  0  0  0999 V2000
  192.6230  177.0940  138.2940 C   0  0  2  0  0  3  0  0  0  0  0  0
  188.7320  177.5610  141.6090 C   0  0  0  0  0  0  0  0  0  0  0  0
  190.9140  177.3340  145.9300 C   0  0  0  0  0  3  0  0  0  0  0  0
  189.7510  177.6060  146.5310 C   0  0  0  0  0  3  0  0  0  0  0  0
  186.3480  178.2850  141.5410 C   0  0  0  0  0  0  0  0  0  0  0  0
  185.1920  178.5620  142.2620 C   0  0  0  0  0  0  0  0  0  0  0  0
  190.0730  177.3290  139.5780 C   0  0  0  0  0  0  0  0  0  0  0  0
  191.0610  176.8500  141.7360 C   0  0  0  0  0  3  0  0  0  0  0  0
  183.8710  178.7940  143.9930 C   0  0  0  0  0  0  0  0  0  0  0  0
  192.4830  176.5390  139.7110 C   0  0  0  0  0  2  0  0  0  0  0  0
  190.9240  176.6280  144.6050 C   0  0  0  0  0  2  0  0  0  0  0  0
  189.8490  177.1560  142.3760 C   0  0  0  0  0  0  0  0  0  0  0  0
  189.7400  177.0660  143.7720 C   0  0  0  0  0  0  0  0  0  0  0  0
  187.4510  177.7550  143.6870 C   0  0  0  0  0  0  0  0  0  0  0  0
  183.1360  179.1150  142.9050 N   0  0  0  0  0  0  0  0  0  0  0  0
  191.3680  176.7700  137.4950 C   0  0  0  0  0  2  0  0  0  0  0  0
  191.1860  176.9490  140.3510 C   0  0  0  0  0  0  0  0  0  0  0  0
  183.9470  178.9740  141.8270 C   0  0  0  0  0  3  0  0  0  0  0  0
  190.1740  177.5150  138.0900 C   0  0  0  0  0  2  0  0  0  0  0  0
  188.4660  177.1980  145.8630 C   0  0  0  0  0  2  0  0  0  0  0  0
  188.5550  177.3630  144.4000 N   0  0  0  0  0  0  0  0  0  0  0  0
  186.2440  178.0520  144.3620 C   0  0  0  0  0  3  0  0  0  0  0  0
  188.8710  177.6450  140.2120 C   0  0  0  0  0  3  0  0  0  0  0  0
  186.3250  178.4150  140.1890 F   0  0  0  0  0  0  0  0  0  0  0  0
  183.3440  178.8210  145.3860 C   0  0  0  0  0  1  0  0  0  0  0  0
  187.5130  177.8700  142.2560 C   0  0  0  0  0  0  0  0  0  0  0  0
  185.1450  178.4500  143.6160 C   0  0  0  0  0  0  0  0  0  0  0  0
  193.7350  176.5210  137.6750 O   0  0  0  0  0  0  0  0  0  0  0  0
  193.5150  175.1440  137.7460 C   0  0  0  0  0  2  0  0  0  0  0  0
  194.8200  174.4340  137.8160 C   0  0  0  0  0  0  0  0  0  0  0  0
  195.4460  174.0160  136.6480 O   0  0  0  0  0  0  0  0  0  0  0  0
  195.3430  174.1870  138.9320 O   0  0  0  0  0  1  0  0  0  0  0  0
  1 28  1  6  0  0  0
  1 10  1  0  0  0  0
  2 26  2  0  0  0  0
  2 12  1  0  0  0  0
  3  4  2  0  0  0  0
  5 26  1  0  0  0  0
  5  6  2  0  0  0  0
  6 27  1  0  0  0  0
  7 23  2  0  0  0  0
  7 17  1  0  0  0  0
  8 12  1  0  0  0  0
  9 25  1  0  0  0  0
 10 17  1  0  0  0  0
 11  3  1  0  0  0  0
 12 13  2  0  0  0  0
 13 21  1  0  0  0  0
 13 11  1  0  0  0  0
 14 22  2  0  0  0  0
 14 21  1  0  0  0  0
 15  9  1  0  0  0  0
 16 19  1  0  0  0  0
 16  1  1  0  0  0  0
 17  8  2  0  0  0  0
 18  6  1  0  0  0  0
 18 15  2  0  0  0  0
 19  7  1  0  0  0  0
 20  4  1  0  0  0  0
 21 20  1  0  0  0  0
 23  2  1  0  0  0  0
 24  5  1  0  0  0  0
 26 14  1  0  0  0  0
 27  9  2  0  0  0  0
 27 22  1  0  0  0  0
 28 29  1  0  0  0  0
 29 30  1  0  0  0  0
 30 32  1  0  0  0  0
 31 30  2  0  0  0  0
M  END
>  <MODEL>
7

>  <REMARK>
 VINA RESULT:      -9.1      3.840      6.603
  Name = 
  3 active torsions:
  status: ('A' for Active; 'I' for Inactive)
    1  A    between atoms: C_1  and  C_10
    2  A    between atoms: C_2  and  O_24
    3  A    between atoms: C_10  and  O_24
                            x       y       z     vdW  Elec       q    Type
                         _______ _______ _______ _____ _____    ______ ____

>  <TORSDO>
F 3

$$$$
=
 OpenBabel10272413373D

 32 37  0  0  1  0  0  0  0  0999 V2000
  183.1690  179.5500  139.4800 C   0  0  2  0  0  3  0  0  0  0  0  0
  186.8580  178.0060  142.6990 C   0  0  0  0  0  0  0  0  0  0  0  0
  190.7810  177.7590  139.8630 C   0  0  0  0  0  3  0  0  0  0  0  0
  191.5360  177.4910  140.9340 C   0  0  0  0  0  3  0  0  0  0  0  0
  187.1870  177.8510  145.1640 C   0  0  0  0  0  0  0  0  0  0  0  0
  188.0600  177.5680  146.2090 C   0  0  0  0  0  0  0  0  0  0  0  0
  184.7100  178.6380  141.7170 C   0  0  0  0  0  0  0  0  0  0  0  0
  186.5940  178.1430  140.2790 C   0  0  0  0  0  3  0  0  0  0  0  0
  189.9150  176.9980  147.2230 C   0  0  0  0  0  0  0  0  0  0  0  0
  184.4260  178.7300  139.1940 C   0  0  0  0  0  2  0  0  0  0  0  0
  189.3330  177.3600  139.8510 C   0  0  0  0  0  2  0  0  0  0  0  0
  187.4000  177.8830  141.3980 C   0  0  0  0  0  0  0  0  0  0  0  0
  188.7420  177.5030  141.2360 C   0  0  0  0  0  0  0  0  0  0  0  0
  189.0360  177.3520  143.6050 C   0  0  0  0  0  0  0  0  0  0  0  0
  189.0060  177.2380  148.1950 N   0  0  0  0  0  0  0  0  0  0  0  0
  182.4400  178.9630  140.6810 C   0  0  0  0  0  2  0  0  0  0  0  0
  185.2640  178.5340  140.4270 C   0  0  0  0  0  0  0  0  0  0  0  0
  187.8520  177.5920  147.5750 C   0  0  0  0  0  3  0  0  0  0  0  0
  183.3020  179.1190  141.9320 C   0  0  0  0  0  2  0  0  0  0  0  0
  190.9170  176.7920  142.1130 C   0  0  0  0  0  2  0  0  0  0  0  0
  189.5310  177.2450  142.3300 N   0  0  0  0  0  0  0  0  0  0  0  0
  189.8740  177.0780  144.7110 C   0  0  0  0  0  3  0  0  0  0  0  0
  185.5120  178.3910  142.8320 C   0  0  0  0  0  3  0  0  0  0  0  0
  185.9100  178.2130  145.4550 F   0  0  0  0  0  0  0  0  0  0  0  0
  191.3200  176.5810  147.4880 C   0  0  0  0  0  1  0  0  0  0  0  0
  187.6720  177.7440  143.8250 C   0  0  0  0  0  0  0  0  0  0  0  0
  189.3490  177.1970  145.9890 C   0  0  0  0  0  0  0  0  0  0  0  0
  182.3310  179.5280  138.3650 O   0  0  0  0  0  0  0  0  0  0  0  0
  182.5370  178.2740  137.7870 C   0  0  0  0  0  2  0  0  0  0  0  0
  181.8880  178.2280  136.4500 C   0  0  0  0  0  0  0  0  0  0  0  0
  182.5160  177.5770  135.3960 O   0  0  0  0  0  0  0  0  0  0  0  0
  180.7840  178.8020  136.2660 O   0  0  0  0  0  1  0  0  0  0  0  0
  1 28  1  6  0  0  0
  1 16  1  0  0  0  0
  2 23  1  0  0  0  0
  2 26  2  0  0  0  0
  3  4  2  0  0  0  0
  4 20  1  0  0  0  0
  5 24  1  0  0  0  0
  5  6  2  0  0  0  0
  6 18  1  0  0  0  0
  7 19  1  0  0  0  0
  7 23  2  0  0  0  0
  8 17  2  0  0  0  0
  8 12  1  0  0  0  0
  9 25  1  0  0  0  0
  9 15  1  0  0  0  0
 10  1  1  0  0  0  0
 10 17  1  0  0  0  0
 11  3  1  0  0  0  0
 11 13  1  0  0  0  0
 12  2  1  0  0  0  0
 13 12  2  0  0  0  0
 13 21  1  0  0  0  0
 14 26  1  0  0  0  0
 14 22  2  0  0  0  0
 16 19  1  0  0  0  0
 17  7  1  0  0  0  0
 18 15  2  0  0  0  0
 20 21  1  0  0  0  0
 21 14  1  0  0  0  0
 22 27  1  0  0  0  0
 26  5  1  0  0  0  0
 27  6  1  0  0  0  0
 27  9  2  0  0  0  0
 29 28  1  0  0  0  0
 30 29  1  0  0  0  0
 31 30  2  0  0  0  0
 32 30  1  0  0  0  0
M  END
>  <MODEL>
8

>  <REMARK>
 VINA RESULT:      -9.1      4.803      8.457
  Name = 
  3 active torsions:
  status: ('A' for Active; 'I' for Inactive)
    1  A    between atoms: C_1  and  C_10
    2  A    between atoms: C_2  and  O_24
    3  A    between atoms: C_10  and  O_24
                            x       y       z     vdW  Elec       q    Type
                         _______ _______ _______ _____ _____    ______ ____

>  <TORSDO>
F 3

$$$$
=
 OpenBabel10272413373D

 32 37  0  0  1  0  0  0  0  0999 V2000
  191.4430  176.6180  147.4480 C   0  0  2  0  0  3  0  0  0  0  0  0
  188.1500  177.5140  143.6150 C   0  0  0  0  0  0  0  0  0  0  0  0
  184.1860  179.1120  145.9000 C   0  0  0  0  0  3  0  0  0  0  0  0
  183.6120  179.3720  144.7200 C   0  0  0  0  0  3  0  0  0  0  0  0
  188.2520  177.7670  141.1380 C   0  0  0  0  0  0  0  0  0  0  0  0
  187.5660  178.0740  139.9670 C   0  0  0  0  0  0  0  0  0  0  0  0
  190.0980  176.8430  144.9290 C   0  0  0  0  0  0  0  0  0  0  0  0
  187.9920  177.2840  146.0370 C   0  0  0  0  0  3  0  0  0  0  0  0
  185.9010  178.6480  138.6660 C   0  0  0  0  0  0  0  0  0  0  0  0
  189.9160  176.5550  147.4450 C   0  0  0  0  0  2  0  0  0  0  0  0
  185.2050  178.0150  146.0100 C   0  0  0  0  0  2  0  0  0  0  0  0
  187.3880  177.5820  144.8050 C   0  0  0  0  0  0  0  0  0  0  0  0
  186.0340  177.9470  144.7460 C   0  0  0  0  0  0  0  0  0  0  0  0
  186.1490  178.1770  142.3670 C   0  0  0  0  0  0  0  0  0  0  0  0
  186.9700  178.4600  137.8590 N   0  0  0  0  0  0  0  0  0  0  0  0
  191.9870  175.8420  146.2560 C   0  0  0  0  0  2  0  0  0  0  0  0
  189.3390  176.9330  146.1100 C   0  0  0  0  0  0  0  0  0  0  0  0
  188.0060  178.1030  138.6580 C   0  0  0  0  0  3  0  0  0  0  0  0
  191.5690  176.5330  144.9600 C   0  0  0  0  0  2  0  0  0  0  0  0
  184.0020  178.5570  143.5180 C   0  0  0  0  0  2  0  0  0  0  0  0
  185.4410  178.2350  143.5410 N   0  0  0  0  0  0  0  0  0  0  0  0
  185.5090  178.4780  141.1430 C   0  0  0  0  0  3  0  0  0  0  0  0
  189.5040  177.1480  143.7040 C   0  0  0  0  0  3  0  0  0  0  0  0
  189.5660  177.4320  141.0600 F   0  0  0  0  0  0  0  0  0  0  0  0
  184.5540  179.0510  138.1750 C   0  0  0  0  0  1  0  0  0  0  0  0
  187.5390  177.8150  142.3750 C   0  0  0  0  0  0  0  0  0  0  0  0
  186.2500  178.4150  139.9720 C   0  0  0  0  0  0  0  0  0  0  0  0
  191.9320  176.0650  148.6320 O   0  0  0  0  0  0  0  0  0  0  0  0
  193.3070  176.3080  148.5990 C   0  0  0  0  0  2  0  0  0  0  0  0
  193.6810  177.2080  149.7220 C   0  0  0  0  0  0  0  0  0  0  0  0
  192.9810  178.3910  149.9270 O   0  0  0  0  0  0  0  0  0  0  0  0
  194.6490  176.9140  150.4700 O   0  0  0  0  0  1  0  0  0  0  0  0
  1 28  1  1  0  0  0
  2 23  1  0  0  0  0
  2 12  1  0  0  0  0
  3 11  1  0  0  0  0
  4  3  2  0  0  0  0
  5 26  1  0  0  0  0
  6 27  1  0  0  0  0
  6  5  2  0  0  0  0
  7 19  1  0  0  0  0
  7 17  1  0  0  0  0
  8 17  2  0  0  0  0
  9 27  2  0  0  0  0
 10  1  1  0  0  0  0
 12  8  1  0  0  0  0
 13 12  2  0  0  0  0
 13 11  1  0  0  0  0
 14 26  1  0  0  0  0
 14 21  1  0  0  0  0
 15 18  2  0  0  0  0
 15  9  1  0  0  0  0
 16  1  1  0  0  0  0
 17 10  1  0  0  0  0
 18  6  1  0  0  0  0
 19 16  1  0  0  0  0
 20 21  1  0  0  0  0
 20  4  1  0  0  0  0
 21 13  1  0  0  0  0
 22 14  2  0  0  0  0
 23  7  2  0  0  0  0
 24  5  1  0  0  0  0
 25  9  1  0  0  0  0
 26  2  2  0  0  0  0
 27 22  1  0  0  0  0
 29 28  1  0  0  0  0
 29 30  1  0  0  0  0
 30 31  2  0  0  0  0
 30 32  1  0  0  0  0
M  END
>  <MODEL>
9

>  <REMARK>
 VINA RESULT:      -9.0      2.245      4.505
  Name = 
  3 active torsions:
  status: ('A' for Active; 'I' for Inactive)
    1  A    between atoms: C_1  and  C_10
    2  A    between atoms: C_2  and  O_24
    3  A    between atoms: C_10  and  O_24
                            x       y       z     vdW  Elec       q    Type
                         _______ _______ _______ _____ _____    ______ ____

>  <TORSDO>
F 3

$$$$
