=
 OpenBabel10272413463D

 30 32  0  0  1  0  0  0  0  0999 V2000
  184.7030  178.5340  145.8190 C   0  0  1  0  0  3  0  0  0  0  0  0
  185.2710  178.8470  147.0870 O   0  0  0  0  0  0  0  0  0  0  0  0
  183.7200  179.4600  145.5170 F   0  0  0  0  0  0  0  0  0  0  0  0
  186.9430  177.5770  145.1350 C   0  0  2  0  0  3  0  0  0  0  0  0
  186.5420  178.4030  147.4570 C   0  0  0  0  0  3  0  0  0  0  0  0
  185.7750  178.5140  144.7260 C   0  0  1  0  0  3  0  0  0  0  0  0
  187.3480  177.8200  146.5730 C   0  0  0  0  0  3  0  0  0  0  0  0
  191.1220  176.3270  144.4980 C   0  0  0  0  0  3  0  0  0  0  0  0
  190.9030  176.1760  143.1870 C   0  0  0  0  0  3  0  0  0  0  0  0
  190.2280  176.9670  145.3660 O   0  0  0  0  0  0  0  0  0  0  0  0
  189.5200  176.7710  141.2250 C   0  0  0  0  0  3  0  0  0  0  0  0
  188.3700  176.4630  143.3440 C   0  0  0  0  0  2  0  0  0  0  0  0
  189.4550  178.0970  144.9630 C   0  0  0  0  0  2  0  0  0  0  0  0
  189.6240  176.5090  142.5330 C   0  0  0  0  0  0  0  0  0  0  0  0
  188.1720  177.7150  144.2030 C   0  0  2  0  0  3  0  0  0  0  0  0
  191.5530  177.6670  140.3430 O   0  0  0  0  0  1  0  0  0  0  0  0
  190.6220  176.8240  140.2470 C   0  0  0  0  0  0  0  0  0  0  0  0
  190.6280  175.9220  139.1930 O   0  0  0  0  0  0  0  0  0  0  0  0
  185.1170  178.0470  143.4380 C   0  0  0  0  0  2  0  0  0  0  0  0
  184.9810  179.2130  142.4800 C   0  0  0  0  0  2  0  0  0  0  0  0
  185.6260  178.8450  141.1580 C   0  0  0  0  0  2  0  0  0  0  0  0
  184.9950  178.5080  138.6360 C   0  0  2  0  0  3  0  0  0  0  0  0
  184.8650  179.8450  139.0690 O   0  0  0  0  0  0  0  0  0  0  0  0
  184.6010  178.8520  140.0280 C   0  0  2  0  0  0  0  0  0  0  0  0
  183.1230  178.7720  140.3570 C   0  0  0  0  0  1  0  0  0  0  0  0
  186.4730  178.1740  138.4820 C   0  0  0  0  0  2  0  0  0  0  0  0
  186.8870  178.2480  137.0220 C   0  0  2  0  0  3  0  0  0  0  0  0
  187.6910  177.0090  136.6760 C   0  0  0  0  0  1  0  0  0  0  0  0
  188.9190  179.0670  137.3470 C   0  0  0  0  0  1  0  0  0  0  0  0
  187.6710  179.3820  136.8040 O   0  0  0  0  0  0  0  0  0  0  0  0
  1  3  1  6  0  0  0
  1  2  1  0  0  0  0
  2  5  1  0  0  0  0
  4  7  1  1  0  0  0
  6 19  1  6  0  0  0
  6  4  1  0  0  0  0
  6  1  1  0  0  0  0
  7  5  2  0  0  0  0
  8 10  1  0  0  0  0
  9  8  2  0  0  0  0
 11 14  2  0  0  0  0
 13 10  1  0  0  0  0
 14  9  1  0  0  0  0
 14 12  1  0  0  0  0
 15 12  1  1  0  0  0
 15 13  1  0  0  0  0
 15  4  1  0  0  0  0
 17 16  1  0  0  0  0
 17 11  1  0  0  0  0
 18 17  2  0  0  0  0
 20 19  1  0  0  0  0
 21 20  1  0  0  0  0
 22 26  1  1  0  0  0
 22 23  1  0  0  0  0
 22 24  1  0  0  0  0
 23 24  1  0  0  0  0
 24 25  1  1  0  0  0
 24 21  1  0  0  0  0
 27 28  1  1  0  0  0
 27 26  1  0  0  0  0
 30 27  1  0  0  0  0
 30 29  1  0  0  0  0
M  END
>  <MODEL>
1

>  <REMARK>
 VINA RESULT:      -8.9      0.000      0.000
  Name = 
  9 active torsions:
  status: ('A' for Active; 'I' for Inactive)
    1  A    between atoms: C_1  and  C_4
    2  A    between atoms: C_1  and  C_5
    3  A    between atoms: C_4  and  C_27
    4  A    between atoms: C_5  and  C_22
    5  A    between atoms: C_8  and  C_12
    6  A    between atoms: C_9  and  C_12
    7  A    between atoms: C_9  and  O_21
    8  A    between atoms: C_15  and  C_16
    9  A    between atoms: C_19  and  C_29
                            x       y       z     vdW  Elec       q    Type
                         _______ _______ _______ _____ _____    ______ ____

>  <TORSDO>
F 9

$$$$
=
 OpenBabel10272413463D

 30 32  0  0  1  0  0  0  0  0999 V2000
  189.2230  176.8670  147.4860 C   0  0  1  0  0  3  0  0  0  0  0  0
  190.6030  177.0240  147.8050 O   0  0  0  0  0  0  0  0  0  0  0  0
  188.4570  177.4860  148.4580 F   0  0  0  0  0  0  0  0  0  0  0  0
  189.8670  176.8500  145.0400 C   0  0  2  0  0  3  0  0  0  0  0  0
  191.6010  176.9220  146.8340 C   0  0  0  0  0  3  0  0  0  0  0  0
  188.9090  177.4470  146.1040 C   0  0  1  0  0  3  0  0  0  0  0  0
  191.2940  176.8510  145.5400 C   0  0  0  0  0  3  0  0  0  0  0  0
  191.6800  177.2280  141.0390 C   0  0  0  0  0  3  0  0  0  0  0  0
  190.4710  177.2950  140.4700 C   0  0  0  0  0  3  0  0  0  0  0  0
  191.8960  177.3330  142.4190 O   0  0  0  0  0  0  0  0  0  0  0  0
  188.0660  177.8010  140.7460 C   0  0  0  0  0  3  0  0  0  0  0  0
  189.1860  176.6840  142.5910 C   0  0  0  0  0  2  0  0  0  0  0  0
  191.1200  178.2000  143.2460 C   0  0  0  0  0  2  0  0  0  0  0  0
  189.2120  177.3160  141.2370 C   0  0  0  0  0  0  0  0  0  0  0  0
  189.7770  177.5840  143.6790 C   0  0  2  0  0  3  0  0  0  0  0  0
  186.7780  178.3270  138.8020 O   0  0  0  0  0  0  0  0  0  0  0  0
  187.8680  178.4250  139.4250 C   0  0  0  0  0  0  0  0  0  0  0  0
  188.9140  179.1380  138.8560 O   0  0  0  0  0  1  0  0  0  0  0  0
  187.4580  177.1240  145.7860 C   0  0  0  0  0  2  0  0  0  0  0  0
  186.7340  178.3860  145.3620 C   0  0  0  0  0  2  0  0  0  0  0  0
  185.9530  178.1070  144.0930 C   0  0  0  0  0  2  0  0  0  0  0  0
  183.6760  178.7630  142.9700 C   0  0  2  0  0  3  0  0  0  0  0  0
  184.4190  179.8780  143.4160 O   0  0  0  0  0  0  0  0  0  0  0  0
  184.5490  178.7000  144.1720 C   0  0  2  0  0  0  0  0  0  0  0  0
  183.8630  178.8230  145.5180 C   0  0  0  0  0  1  0  0  0  0  0  0
  184.3260  178.2030  141.7120 C   0  0  0  0  0  2  0  0  0  0  0  0
  183.3810  178.3170  140.5270 C   0  0  2  0  0  3  0  0  0  0  0  0
  181.9600  178.4430  141.0420 C   0  0  0  0  0  1  0  0  0  0  0  0
  182.1920  176.6440  139.6940 C   0  0  0  0  0  1  0  0  0  0  0  0
  183.4820  177.1790  139.7240 O   0  0  0  0  0  0  0  0  0  0  0  0
  1  2  1  0  0  0  0
  1  3  1  1  0  0  0
  4  7  1  1  0  0  0
  4  6  1  0  0  0  0
  5  2  1  0  0  0  0
  6 19  1  6  0  0  0
  6  1  1  0  0  0  0
  7  5  2  0  0  0  0
  8 10  1  0  0  0  0
  9  8  2  0  0  0  0
  9 14  1  0  0  0  0
 10 13  1  0  0  0  0
 11 14  2  0  0  0  0
 13 15  1  0  0  0  0
 14 12  1  0  0  0  0
 15 12  1  6  0  0  0
 15  4  1  0  0  0  0
 16 17  2  0  0  0  0
 17 11  1  0  0  0  0
 18 17  1  0  0  0  0
 20 19  1  0  0  0  0
 21 24  1  0  0  0  0
 21 20  1  0  0  0  0
 22 26  1  6  0  0  0
 22 23  1  0  0  0  0
 22 24  1  0  0  0  0
 23 24  1  0  0  0  0
 24 25  1  1  0  0  0
 27 28  1  1  0  0  0
 27 26  1  0  0  0  0
 29 30  1  0  0  0  0
 30 27  1  0  0  0  0
M  END
>  <MODEL>
2

>  <REMARK>
 VINA RESULT:      -8.3      2.197      4.314
  Name = 
  9 active torsions:
  status: ('A' for Active; 'I' for Inactive)
    1  A    between atoms: C_1  and  C_4
    2  A    between atoms: C_1  and  C_5
    3  A    between atoms: C_4  and  C_27
    4  A    between atoms: C_5  and  C_22
    5  A    between atoms: C_8  and  C_12
    6  A    between atoms: C_9  and  C_12
    7  A    between atoms: C_9  and  O_21
    8  A    between atoms: C_15  and  C_16
    9  A    between atoms: C_19  and  C_29
                            x       y       z     vdW  Elec       q    Type
                         _______ _______ _______ _____ _____    ______ ____

>  <TORSDO>
F 9

$$$$
=
 OpenBabel10272413463D

 30 32  0  0  1  0  0  0  0  0999 V2000
  187.4700  177.5020  147.2510 C   0  0  1  0  0  3  0  0  0  0  0  0
  188.6880  177.7030  147.9630 O   0  0  0  0  0  0  0  0  0  0  0  0
  186.4600  178.2240  147.8620 F   0  0  0  0  0  0  0  0  0  0  0  0
  188.8370  177.2060  145.1430 C   0  0  2  0  0  3  0  0  0  0  0  0
  189.9330  177.4950  147.3680 C   0  0  0  0  0  3  0  0  0  0  0  0
  187.6150  177.9170  145.7850 C   0  0  1  0  0  3  0  0  0  0  0  0
  190.0390  177.2730  146.0590 C   0  0  0  0  0  3  0  0  0  0  0  0
  191.9120  177.3070  141.9870 C   0  0  0  0  0  3  0  0  0  0  0  0
  190.9760  177.2060  141.0370 C   0  0  0  0  0  3  0  0  0  0  0  0
  191.6280  177.5800  143.3310 O   0  0  0  0  0  0  0  0  0  0  0  0
  188.6060  177.5240  140.4080 C   0  0  0  0  0  3  0  0  0  0  0  0
  189.0620  176.7160  142.6540 C   0  0  0  0  0  2  0  0  0  0  0  0
  190.5740  178.4600  143.7220 C   0  0  0  0  0  2  0  0  0  0  0  0
  189.5290  177.1980  141.3190 C   0  0  0  0  0  0  0  0  0  0  0  0
  189.1940  177.7780  143.7490 C   0  0  2  0  0  3  0  0  0  0  0  0
  188.9590  179.2040  138.7440 O   0  0  0  0  0  1  0  0  0  0  0  0
  188.8530  177.9810  139.0280 C   0  0  0  0  0  0  0  0  0  0  0  0
  188.9700  177.0370  138.0180 O   0  0  0  0  0  0  0  0  0  0  0  0
  186.3240  177.5510  145.0690 C   0  0  0  0  0  2  0  0  0  0  0  0
  185.6050  178.8120  144.6360 C   0  0  0  0  0  2  0  0  0  0  0  0
  184.3260  178.4300  143.9160 C   0  0  0  0  0  2  0  0  0  0  0  0
  183.1970  178.9400  141.6060 C   0  0  2  0  0  3  0  0  0  0  0  0
  183.9010  177.7170  141.6230 O   0  0  0  0  0  0  0  0  0  0  0  0
  184.4210  178.7460  142.4260 C   0  0  2  0  0  0  0  0  0  0  0  0
  185.7150  179.2970  141.8590 C   0  0  0  0  0  1  0  0  0  0  0  0
  181.9010  178.7810  142.3910 C   0  0  0  0  0  2  0  0  0  0  0  0
  180.7000  179.0470  141.5000 C   0  0  2  0  0  3  0  0  0  0  0  0
  181.0680  178.7150  140.0670 C   0  0  0  0  0  1  0  0  0  0  0  0
  179.9820  180.7490  140.2780 C   0  0  0  0  0  1  0  0  0  0  0  0
  180.3330  180.3920  141.5810 O   0  0  0  0  0  0  0  0  0  0  0  0
  1  3  1  1  0  0  0
  1  2  1  0  0  0  0
  4  6  1  0  0  0  0
  4  7  1  1  0  0  0
  5  2  1  0  0  0  0
  6 19  1  6  0  0  0
  6  1  1  0  0  0  0
  7  5  2  0  0  0  0
  8 10  1  0  0  0  0
  9 14  1  0  0  0  0
  9  8  2  0  0  0  0
 10 13  1  0  0  0  0
 11 14  2  0  0  0  0
 13 15  1  0  0  0  0
 14 12  1  0  0  0  0
 15 12  1  6  0  0  0
 15  4  1  0  0  0  0
 16 17  1  0  0  0  0
 17 11  1  0  0  0  0
 18 17  2  0  0  0  0
 20 19  1  0  0  0  0
 21 20  1  0  0  0  0
 22 23  1  0  0  0  0
 22 26  1  1  0  0  0
 22 24  1  0  0  0  0
 23 24  1  0  0  0  0
 24 25  1  6  0  0  0
 24 21  1  0  0  0  0
 27 28  1  6  0  0  0
 27 30  1  0  0  0  0
 27 26  1  0  0  0  0
 29 30  1  0  0  0  0
M  END
>  <MODEL>
3

>  <REMARK>
 VINA RESULT:      -8.1      2.179      4.087
  Name = 
  9 active torsions:
  status: ('A' for Active; 'I' for Inactive)
    1  A    between atoms: C_1  and  C_4
    2  A    between atoms: C_1  and  C_5
    3  A    between atoms: C_4  and  C_27
    4  A    between atoms: C_5  and  C_22
    5  A    between atoms: C_8  and  C_12
    6  A    between atoms: C_9  and  C_12
    7  A    between atoms: C_9  and  O_21
    8  A    between atoms: C_15  and  C_16
    9  A    between atoms: C_19  and  C_29
                            x       y       z     vdW  Elec       q    Type
                         _______ _______ _______ _____ _____    ______ ____

>  <TORSDO>
F 9

$$$$
=
 OpenBabel10272413463D

 30 32  0  0  1  0  0  0  0  0999 V2000
  188.4640  178.0240  139.4180 C   0  0  1  0  0  3  0  0  0  0  0  0
  189.4490  177.1610  138.8560 O   0  0  0  0  0  0  0  0  0  0  0  0
  187.2820  177.8870  138.7130 F   0  0  0  0  0  0  0  0  0  0  0  0
  189.5960  177.7310  141.6620 C   0  0  2  0  0  3  0  0  0  0  0  0
  190.5610  176.7360  139.5850 C   0  0  0  0  0  3  0  0  0  0  0  0
  188.2430  177.7130  140.9010 C   0  0  1  0  0  3  0  0  0  0  0  0
  190.6550  176.9740  140.8920 C   0  0  0  0  0  3  0  0  0  0  0  0
  191.8720  176.2410  145.1310 C   0  0  0  0  0  3  0  0  0  0  0  0
  191.0730  176.9070  145.9720 C   0  0  0  0  0  3  0  0  0  0  0  0
  191.5870  176.0580  143.7710 O   0  0  0  0  0  0  0  0  0  0  0  0
  188.8720  177.9690  146.3520 C   0  0  0  0  0  3  0  0  0  0  0  0
  189.8620  178.2200  144.1470 C   0  0  0  0  0  2  0  0  0  0  0  0
  190.2580  175.8570  143.2930 C   0  0  0  0  0  2  0  0  0  0  0  0
  189.8890  177.6710  145.5370 C   0  0  0  0  0  0  0  0  0  0  0  0
  189.4770  177.1710  143.1010 C   0  0  2  0  0  3  0  0  0  0  0  0
  188.0390  176.5590  148.0950 O   0  0  0  0  0  0  0  0  0  0  0  0
  188.7250  177.5620  147.7620 C   0  0  0  0  0  0  0  0  0  0  0  0
  189.3590  178.3080  148.7460 O   0  0  0  0  0  1  0  0  0  0  0  0
  187.2830  178.7530  141.4550 C   0  0  0  0  0  2  0  0  0  0  0  0
  186.3340  178.1010  142.4400 C   0  0  0  0  0  2  0  0  0  0  0  0
  185.0730  178.9370  142.5390 C   0  0  0  0  0  2  0  0  0  0  0  0
  183.0200  178.8160  144.1660 C   0  0  2  0  0  3  0  0  0  0  0  0
  183.7380  180.0270  144.2640 O   0  0  0  0  0  0  0  0  0  0  0  0
  184.4890  178.8820  143.9490 C   0  0  2  0  0  0  0  0  0  0  0  0
  185.3690  178.4540  145.1060 C   0  0  0  0  0  1  0  0  0  0  0  0
  182.2090  178.8200  142.8770 C   0  0  0  0  0  2  0  0  0  0  0  0
  180.8210  179.3890  143.1210 C   0  0  2  0  0  3  0  0  0  0  0  0
  180.0500  178.4370  144.0150 C   0  0  0  0  0  1  0  0  0  0  0  0
  181.0830  179.2020  140.9300 C   0  0  0  0  0  1  0  0  0  0  0  0
  180.1440  179.5340  141.9090 O   0  0  0  0  0  0  0  0  0  0  0  0
  1  3  1  6  0  0  0
  1  6  1  0  0  0  0
  2  1  1  0  0  0  0
  2  5  1  0  0  0  0
  4  7  1  6  0  0  0
  4 15  1  0  0  0  0
  5  7  2  0  0  0  0
  6 19  1  1  0  0  0
  6  4  1  0  0  0  0
  8  9  2  0  0  0  0
 10  8  1  0  0  0  0
 11 17  1  0  0  0  0
 12 14  1  0  0  0  0
 13 10  1  0  0  0  0
 14  9  1  0  0  0  0
 14 11  2  0  0  0  0
 15 13  1  6  0  0  0
 15 12  1  0  0  0  0
 17 16  2  0  0  0  0
 17 18  1  0  0  0  0
 19 20  1  0  0  0  0
 20 21  1  0  0  0  0
 21 24  1  0  0  0  0
 22 26  1  6  0  0  0
 22 23  1  0  0  0  0
 24 22  1  0  0  0  0
 24 23  1  0  0  0  0
 24 25  1  1  0  0  0
 26 27  1  0  0  0  0
 27 28  1  1  0  0  0
 29 30  1  0  0  0  0
 30 27  1  0  0  0  0
M  END
>  <MODEL>
4

>  <REMARK>
 VINA RESULT:      -8.0      2.711      6.268
  Name = 
  9 active torsions:
  status: ('A' for Active; 'I' for Inactive)
    1  A    between atoms: C_1  and  C_4
    2  A    between atoms: C_1  and  C_5
    3  A    between atoms: C_4  and  C_27
    4  A    between atoms: C_5  and  C_22
    5  A    between atoms: C_8  and  C_12
    6  A    between atoms: C_9  and  C_12
    7  A    between atoms: C_9  and  O_21
    8  A    between atoms: C_15  and  C_16
    9  A    between atoms: C_19  and  C_29
                            x       y       z     vdW  Elec       q    Type
                         _______ _______ _______ _____ _____    ______ ____

>  <TORSDO>
F 9

$$$$
=
 OpenBabel10272413463D

 30 32  0  0  1  0  0  0  0  0999 V2000
  186.8430  177.6720  147.0630 C   0  0  1  0  0  3  0  0  0  0  0  0
  187.9760  177.9100  147.8940 O   0  0  0  0  0  0  0  0  0  0  0  0
  185.7650  178.3920  147.5460 F   0  0  0  0  0  0  0  0  0  0  0  0
  188.4300  177.3480  145.1200 C   0  0  2  0  0  3  0  0  0  0  0  0
  189.2810  177.7080  147.4390 C   0  0  0  0  0  3  0  0  0  0  0  0
  187.1380  178.0540  145.6110 C   0  0  1  0  0  3  0  0  0  0  0  0
  189.5270  177.4570  146.1550 C   0  0  0  0  0  3  0  0  0  0  0  0
  191.7500  177.2790  142.2200 C   0  0  0  0  0  3  0  0  0  0  0  0
  190.8890  177.2170  141.1990 C   0  0  0  0  0  3  0  0  0  0  0  0
  191.3720  177.5750  143.5370 O   0  0  0  0  0  0  0  0  0  0  0  0
  188.5940  177.6440  140.3800 C   0  0  0  0  0  3  0  0  0  0  0  0
  188.8290  176.8310  142.6580 C   0  0  0  0  0  2  0  0  0  0  0  0
  190.3350  178.5070  143.8390 C   0  0  0  0  0  2  0  0  0  0  0  0
  189.4250  177.2800  141.3640 C   0  0  0  0  0  0  0  0  0  0  0  0
  188.9250  177.8930  143.7570 C   0  0  2  0  0  3  0  0  0  0  0  0
  188.9980  179.2960  138.7010 O   0  0  0  0  0  1  0  0  0  0  0  0
  188.9730  178.0790  139.0240 C   0  0  0  0  0  0  0  0  0  0  0  0
  189.3080  177.1190  138.0790 O   0  0  0  0  0  0  0  0  0  0  0  0
  185.9350  177.6500  144.7720 C   0  0  0  0  0  2  0  0  0  0  0  0
  185.1720  178.8870  144.3440 C   0  0  0  0  0  2  0  0  0  0  0  0
  184.8030  178.7580  142.8790 C   0  0  0  0  0  2  0  0  0  0  0  0
  182.6780  178.2240  141.4380 C   0  0  2  0  0  3  0  0  0  0  0  0
  182.8520  179.6030  141.6850 O   0  0  0  0  0  0  0  0  0  0  0  0
  183.2870  178.7300  142.6960 C   0  0  2  0  0  0  0  0  0  0  0  0
  182.3860  178.7910  143.9130 C   0  0  0  0  0  1  0  0  0  0  0  0
  183.6980  177.7700  140.4020 C   0  0  0  0  0  2  0  0  0  0  0  0
  182.9990  177.2140  139.1730 C   0  0  2  0  0  3  0  0  0  0  0  0
  182.3780  175.8760  139.5240 C   0  0  0  0  0  1  0  0  0  0  0  0
  184.8750  178.0390  138.3330 C   0  0  0  0  0  1  0  0  0  0  0  0
  183.9210  177.0380  138.1380 O   0  0  0  0  0  0  0  0  0  0  0  0
  1  3  1  1  0  0  0
  1  2  1  0  0  0  0
  4  6  1  0  0  0  0
  4  7  1  1  0  0  0
  5  2  1  0  0  0  0
  6 19  1  6  0  0  0
  6  1  1  0  0  0  0
  7  5  2  0  0  0  0
  8 10  1  0  0  0  0
  9 14  1  0  0  0  0
  9  8  2  0  0  0  0
 10 13  1  0  0  0  0
 11 14  2  0  0  0  0
 14 12  1  0  0  0  0
 15 12  1  6  0  0  0
 15 13  1  0  0  0  0
 15  4  1  0  0  0  0
 16 17  1  0  0  0  0
 17 11  1  0  0  0  0
 18 17  2  0  0  0  0
 20 19  1  0  0  0  0
 21 20  1  0  0  0  0
 22 26  1  6  0  0  0
 22 23  1  0  0  0  0
 22 24  1  0  0  0  0
 23 24  1  0  0  0  0
 24 21  1  0  0  0  0
 24 25  1  1  0  0  0
 27 28  1  1  0  0  0
 27 26  1  0  0  0  0
 30 29  1  0  0  0  0
 30 27  1  0  0  0  0
M  END
>  <MODEL>
5

>  <REMARK>
 VINA RESULT:      -7.7      1.882      2.921
  Name = 
  9 active torsions:
  status: ('A' for Active; 'I' for Inactive)
    1  A    between atoms: C_1  and  C_4
    2  A    between atoms: C_1  and  C_5
    3  A    between atoms: C_4  and  C_27
    4  A    between atoms: C_5  and  C_22
    5  A    between atoms: C_8  and  C_12
    6  A    between atoms: C_9  and  C_12
    7  A    between atoms: C_9  and  O_21
    8  A    between atoms: C_15  and  C_16
    9  A    between atoms: C_19  and  C_29
                            x       y       z     vdW  Elec       q    Type
                         _______ _______ _______ _____ _____    ______ ____

>  <TORSDO>
F 9

$$$$
=
 OpenBabel10272413463D

 30 32  0  0  1  0  0  0  0  0999 V2000
  190.0610  177.3210  146.1530 C   0  0  1  0  0  3  0  0  0  0  0  0
  189.6720  176.8820  147.4520 O   0  0  0  0  0  0  0  0  0  0  0  0
  191.1190  176.5480  145.7090 F   0  0  0  0  0  0  0  0  0  0  0  0
  187.6580  177.9940  145.7410 C   0  0  2  0  0  3  0  0  0  0  0  0
  188.3990  177.1350  147.9650 C   0  0  0  0  0  3  0  0  0  0  0  0
  188.8890  177.2410  145.1720 C   0  0  1  0  0  3  0  0  0  0  0  0
  187.4370  177.6410  147.1960 C   0  0  0  0  0  3  0  0  0  0  0  0
  183.4390  179.1650  145.2210 C   0  0  0  0  0  3  0  0  0  0  0  0
  183.5670  179.1250  143.8900 C   0  0  0  0  0  3  0  0  0  0  0  0
  184.3940  178.6500  146.1080 O   0  0  0  0  0  0  0  0  0  0  0  0
  184.8130  178.2460  141.9430 C   0  0  0  0  0  3  0  0  0  0  0  0
  186.1050  178.8480  143.9120 C   0  0  0  0  0  2  0  0  0  0  0  0
  185.1420  177.4690  145.8190 C   0  0  0  0  0  2  0  0  0  0  0  0
  184.7990  178.6940  143.2040 C   0  0  0  0  0  0  0  0  0  0  0  0
  186.3680  177.7320  144.9250 C   0  0  2  0  0  3  0  0  0  0  0  0
  183.2910  176.9180  140.6660 O   0  0  0  0  0  1  0  0  0  0  0  0
  183.6470  178.0590  141.0610 C   0  0  0  0  0  0  0  0  0  0  0  0
  182.9260  179.1740  140.6560 O   0  0  0  0  0  0  0  0  0  0  0  0
  189.3460  177.8450  143.8540 C   0  0  0  0  0  2  0  0  0  0  0  0
  189.2980  176.7940  142.7640 C   0  0  0  0  0  2  0  0  0  0  0  0
  188.9050  177.4530  141.4560 C   0  0  0  0  0  2  0  0  0  0  0  0
  189.7360  177.3720  138.9710 C   0  0  2  0  0  3  0  0  0  0  0  0
  189.9440  176.1620  139.6670 O   0  0  0  0  0  0  0  0  0  0  0  0
  190.0280  177.3410  140.4280 C   0  0  2  0  0  0  0  0  0  0  0  0
  191.4550  177.6380  140.8430 C   0  0  0  0  0  1  0  0  0  0  0  0
  188.2540  177.5110  138.6460 C   0  0  0  0  0  2  0  0  0  0  0  0
  188.0630  178.2530  137.3330 C   0  0  2  0  0  3  0  0  0  0  0  0
  188.9820  179.4600  137.3120 C   0  0  0  0  0  1  0  0  0  0  0  0
  186.0600  178.0420  138.2550 C   0  0  0  0  0  1  0  0  0  0  0  0
  186.7380  178.6800  137.2140 O   0  0  0  0  0  0  0  0  0  0  0  0
  1  3  1  6  0  0  0
  1  2  1  0  0  0  0
  2  5  1  0  0  0  0
  4  7  1  1  0  0  0
  6 19  1  6  0  0  0
  6  4  1  0  0  0  0
  6  1  1  0  0  0  0
  7  5  2  0  0  0  0
  8 10  1  0  0  0  0
  9  8  2  0  0  0  0
 11 14  2  0  0  0  0
 13 10  1  0  0  0  0
 14  9  1  0  0  0  0
 14 12  1  0  0  0  0
 15 12  1  1  0  0  0
 15  4  1  0  0  0  0
 15 13  1  0  0  0  0
 16 17  1  0  0  0  0
 17 11  1  0  0  0  0
 18 17  2  0  0  0  0
 20 19  1  0  0  0  0
 21 20  1  0  0  0  0
 22 26  1  1  0  0  0
 22 23  1  0  0  0  0
 22 24  1  0  0  0  0
 23 24  1  0  0  0  0
 24 25  1  1  0  0  0
 24 21  1  0  0  0  0
 27 28  1  1  0  0  0
 27 26  1  0  0  0  0
 30 27  1  0  0  0  0
 30 29  1  0  0  0  0
M  END
>  <MODEL>
6

>  <REMARK>
 VINA RESULT:      -7.6      2.044      5.259
  Name = 
  9 active torsions:
  status: ('A' for Active; 'I' for Inactive)
    1  A    between atoms: C_1  and  C_4
    2  A    between atoms: C_1  and  C_5
    3  A    between atoms: C_4  and  C_27
    4  A    between atoms: C_5  and  C_22
    5  A    between atoms: C_8  and  C_12
    6  A    between atoms: C_9  and  C_12
    7  A    between atoms: C_9  and  O_21
    8  A    between atoms: C_15  and  C_16
    9  A    between atoms: C_19  and  C_29
                            x       y       z     vdW  Elec       q    Type
                         _______ _______ _______ _____ _____    ______ ____

>  <TORSDO>
F 9

$$$$
=
 OpenBabel10272413463D

 30 32  0  0  1  0  0  0  0  0999 V2000
  182.8680  178.6370  142.1010 C   0  0  1  0  0  3  0  0  0  0  0  0
  182.0330  179.2130  143.1020 O   0  0  0  0  0  0  0  0  0  0  0  0
  182.5970  179.2340  140.8830 F   0  0  0  0  0  0  0  0  0  0  0  0
  184.6160  178.2490  143.8870 C   0  0  2  0  0  3  0  0  0  0  0  0
  182.3630  179.1610  144.4570 C   0  0  0  0  0  3  0  0  0  0  0  0
  184.3470  178.7970  142.4610 C   0  0  1  0  0  3  0  0  0  0  0  0
  183.5580  178.7300  144.8560 C   0  0  0  0  0  3  0  0  0  0  0  0
  187.4840  177.6690  147.1850 C   0  0  0  0  0  3  0  0  0  0  0  0
  188.4960  177.5550  146.3180 C   0  0  0  0  0  3  0  0  0  0  0  0
  186.2060  178.1220  146.8320 O   0  0  0  0  0  0  0  0  0  0  0  0
  189.3600  178.0400  144.0520 C   0  0  0  0  0  3  0  0  0  0  0  0
  187.0090  177.4540  144.2430 C   0  0  0  0  0  2  0  0  0  0  0  0
  186.0050  179.1450  145.8570 C   0  0  0  0  0  2  0  0  0  0  0  0
  188.3420  177.7280  144.8610 C   0  0  0  0  0  0  0  0  0  0  0  0
  186.0270  178.6160  144.4100 C   0  0  2  0  0  3  0  0  0  0  0  0
  191.4440  177.4510  145.0660 O   0  0  0  0  0  1  0  0  0  0  0  0
  190.7540  178.3070  144.4520 C   0  0  0  0  0  0  0  0  0  0  0  0
  191.3160  179.5390  144.1440 O   0  0  0  0  0  0  0  0  0  0  0  0
  185.1610  178.0470  141.4180 C   0  0  0  0  0  2  0  0  0  0  0  0
  186.1230  178.9990  140.7380 C   0  0  0  0  0  2  0  0  0  0  0  0
  187.4590  178.3050  140.5530 C   0  0  0  0  0  2  0  0  0  0  0  0
  189.1680  177.7550  138.6420 C   0  0  2  0  0  3  0  0  0  0  0  0
  188.7750  179.1110  138.6650 O   0  0  0  0  0  0  0  0  0  0  0  0
  187.8080  178.1760  139.0730 C   0  0  2  0  0  0  0  0  0  0  0  0
  186.6970  178.0390  138.0510 C   0  0  0  0  0  1  0  0  0  0  0  0
  190.1230  177.4940  139.7990 C   0  0  0  0  0  2  0  0  0  0  0  0
  191.0620  176.3460  139.4660 C   0  0  2  0  0  3  0  0  0  0  0  0
  192.3470  176.9130  138.8930 C   0  0  0  0  0  1  0  0  0  0  0  0
  191.5260  175.0570  137.7260 C   0  0  0  0  0  1  0  0  0  0  0  0
  190.4700  175.5020  138.5240 O   0  0  0  0  0  0  0  0  0  0  0  0
  1  3  1  6  0  0  0
  1  6  1  0  0  0  0
  1  2  1  0  0  0  0
  2  5  1  0  0  0  0
  4 15  1  0  0  0  0
  4  7  1  1  0  0  0
  5  7  2  0  0  0  0
  6 19  1  6  0  0  0
  6  4  1  0  0  0  0
  9  8  2  0  0  0  0
 10  8  1  0  0  0  0
 11 17  1  0  0  0  0
 11 14  2  0  0  0  0
 12 14  1  0  0  0  0
 13 10  1  0  0  0  0
 14  9  1  0  0  0  0
 15 12  1  1  0  0  0
 15 13  1  0  0  0  0
 17 16  1  0  0  0  0
 18 17  2  0  0  0  0
 20 19  1  0  0  0  0
 21 20  1  0  0  0  0
 22 23  1  0  0  0  0
 22 24  1  0  0  0  0
 22 26  1  1  0  0  0
 23 24  1  0  0  0  0
 24 25  1  6  0  0  0
 24 21  1  0  0  0  0
 27 28  1  6  0  0  0
 27 26  1  0  0  0  0
 29 30  1  0  0  0  0
 30 27  1  0  0  0  0
M  END
>  <MODEL>
7

>  <REMARK>
 VINA RESULT:      -7.6      1.965      4.090
  Name = 
  9 active torsions:
  status: ('A' for Active; 'I' for Inactive)
    1  A    between atoms: C_1  and  C_4
    2  A    between atoms: C_1  and  C_5
    3  A    between atoms: C_4  and  C_27
    4  A    between atoms: C_5  and  C_22
    5  A    between atoms: C_8  and  C_12
    6  A    between atoms: C_9  and  C_12
    7  A    between atoms: C_9  and  O_21
    8  A    between atoms: C_15  and  C_16
    9  A    between atoms: C_19  and  C_29
                            x       y       z     vdW  Elec       q    Type
                         _______ _______ _______ _____ _____    ______ ____

>  <TORSDO>
F 9

$$$$
=
 OpenBabel10272413463D

 30 32  0  0  1  0  0  0  0  0999 V2000
  185.0340  178.7370  145.7480 C   0  0  1  0  0  3  0  0  0  0  0  0
  183.6120  178.7900  145.8340 O   0  0  0  0  0  0  0  0  0  0  0  0
  185.5250  177.9620  146.7830 F   0  0  0  0  0  0  0  0  0  0  0  0
  184.8160  178.9630  143.2380 C   0  0  2  0  0  3  0  0  0  0  0  0
  182.8170  179.0930  144.7280 C   0  0  0  0  0  3  0  0  0  0  0  0
  185.4820  178.1740  144.3970 C   0  0  1  0  0  3  0  0  0  0  0  0
  183.3410  179.1700  143.5070 C   0  0  0  0  0  3  0  0  0  0  0  0
  183.5210  178.9360  139.0240 C   0  0  0  0  0  3  0  0  0  0  0  0
  184.7830  178.7760  138.6120 C   0  0  0  0  0  3  0  0  0  0  0  0
  183.1160  178.7920  140.3580 O   0  0  0  0  0  0  0  0  0  0  0  0
  187.0750  178.0300  139.1630 C   0  0  0  0  0  3  0  0  0  0  0  0
  185.8260  179.1690  140.9090 C   0  0  0  0  0  2  0  0  0  0  0  0
  183.6940  177.8190  141.2270 C   0  0  0  0  0  2  0  0  0  0  0  0
  185.9230  178.6020  139.5300 C   0  0  0  0  0  0  0  0  0  0  0  0
  185.0190  178.2830  141.8610 C   0  0  2  0  0  3  0  0  0  0  0  0
  187.3130  176.2090  137.6330 O   0  0  0  0  0  1  0  0  0  0  0  0
  187.3890  177.4480  137.8460 C   0  0  0  0  0  0  0  0  0  0  0  0
  187.7800  178.2910  136.8140 O   0  0  0  0  0  0  0  0  0  0  0  0
  186.9980  178.2730  144.3330 C   0  0  0  0  0  2  0  0  0  0  0  0
  187.6070  176.8930  144.4740 C   0  0  0  0  0  2  0  0  0  0  0  0
  188.3100  176.5280  143.1820 C   0  0  0  0  0  2  0  0  0  0  0  0
  190.7080  176.8540  142.1720 C   0  0  2  0  0  3  0  0  0  0  0  0
  190.4900  175.5560  142.6820 O   0  0  0  0  0  0  0  0  0  0  0  0
  189.8260  176.6040  143.3430 C   0  0  2  0  0  0  0  0  0  0  0  0
  190.4210  176.8670  144.7120 C   0  0  0  0  0  1  0  0  0  0  0  0
  189.9530  177.0070  140.8580 C   0  0  0  0  0  2  0  0  0  0  0  0
  190.9110  177.3470  139.7280 C   0  0  2  0  0  3  0  0  0  0  0  0
  190.9760  176.1750  138.7690 C   0  0  0  0  0  1  0  0  0  0  0  0
  193.0560  176.9180  139.3850 C   0  0  0  0  0  1  0  0  0  0  0  0
  192.1860  177.5950  140.2420 O   0  0  0  0  0  0  0  0  0  0  0  0
  1  2  1  0  0  0  0
  1  3  1  1  0  0  0
  4  7  1  1  0  0  0
  4  6  1  0  0  0  0
  5  2  1  0  0  0  0
  6 19  1  6  0  0  0
  6  1  1  0  0  0  0
  7  5  2  0  0  0  0
  8 10  1  0  0  0  0
  9  8  2  0  0  0  0
  9 14  1  0  0  0  0
 10 13  1  0  0  0  0
 11 14  2  0  0  0  0
 13 15  1  0  0  0  0
 14 12  1  0  0  0  0
 15 12  1  6  0  0  0
 15  4  1  0  0  0  0
 16 17  1  0  0  0  0
 17 11  1  0  0  0  0
 18 17  2  0  0  0  0
 19 20  1  0  0  0  0
 21 24  1  0  0  0  0
 21 20  1  0  0  0  0
 22 26  1  6  0  0  0
 22 23  1  0  0  0  0
 22 24  1  0  0  0  0
 23 24  1  0  0  0  0
 24 25  1  1  0  0  0
 27 28  1  6  0  0  0
 27 30  1  0  0  0  0
 27 26  1  0  0  0  0
 29 30  1  0  0  0  0
M  END
>  <MODEL>
8

>  <REMARK>
 VINA RESULT:      -7.5      1.571      5.425
  Name = 
  9 active torsions:
  status: ('A' for Active; 'I' for Inactive)
    1  A    between atoms: C_1  and  C_4
    2  A    between atoms: C_1  and  C_5
    3  A    between atoms: C_4  and  C_27
    4  A    between atoms: C_5  and  C_22
    5  A    between atoms: C_8  and  C_12
    6  A    between atoms: C_9  and  C_12
    7  A    between atoms: C_9  and  O_21
    8  A    between atoms: C_15  and  C_16
    9  A    between atoms: C_19  and  C_29
                            x       y       z     vdW  Elec       q    Type
                         _______ _______ _______ _____ _____    ______ ____

>  <TORSDO>
F 9

$$$$
=
 OpenBabel10272413463D

 30 32  0  0  1  0  0  0  0  0999 V2000
  185.0620  178.9530  145.0210 C   0  0  1  0  0  3  0  0  0  0  0  0
  183.7270  178.7530  145.4770 O   0  0  0  0  0  0  0  0  0  0  0  0
  185.9400  178.3300  145.8910 F   0  0  0  0  0  0  0  0  0  0  0  0
  184.1660  179.0130  142.6560 C   0  0  2  0  0  3  0  0  0  0  0  0
  182.6310  178.8540  144.6190 C   0  0  0  0  0  3  0  0  0  0  0  0
  185.2430  178.4140  143.5990 C   0  0  1  0  0  3  0  0  0  0  0  0
  182.7990  178.9640  143.3030 C   0  0  0  0  0  3  0  0  0  0  0  0
  182.2650  179.0240  138.6780 C   0  0  0  0  0  3  0  0  0  0  0  0
  183.4430  178.7960  138.0880 C   0  0  0  0  0  3  0  0  0  0  0  0
  182.0540  178.9100  140.0590 O   0  0  0  0  0  0  0  0  0  0  0  0
  185.7520  177.9360  138.3080 C   0  0  0  0  0  3  0  0  0  0  0  0
  184.8320  179.1500  140.2020 C   0  0  0  0  0  2  0  0  0  0  0  0
  182.7040  177.9140  140.8480 C   0  0  0  0  0  2  0  0  0  0  0  0
  184.6960  178.5690  138.8320 C   0  0  0  0  0  0  0  0  0  0  0  0
  184.1300  178.3140  141.2750 C   0  0  2  0  0  3  0  0  0  0  0  0
  185.3190  176.2110  136.7110 O   0  0  0  0  0  1  0  0  0  0  0  0
  185.8380  177.3290  136.9670 C   0  0  0  0  0  0  0  0  0  0  0  0
  186.5140  178.0100  135.9640 O   0  0  0  0  0  0  0  0  0  0  0  0
  186.6460  178.7810  143.1400 C   0  0  0  0  0  2  0  0  0  0  0  0
  187.3310  177.5590  142.5640 C   0  0  0  0  0  2  0  0  0  0  0  0
  187.8740  176.7140  143.7000 C   0  0  0  0  0  2  0  0  0  0  0  0
  190.1320  177.3910  144.8480 C   0  0  2  0  0  3  0  0  0  0  0  0
  189.9110  178.0510  143.6190 O   0  0  0  0  0  0  0  0  0  0  0  0
  189.3990  176.7460  143.7260 C   0  0  2  0  0  0  0  0  0  0  0  0
  190.1830  175.7670  142.8750 C   0  0  0  0  0  1  0  0  0  0  0  0
  189.2190  177.9950  145.9080 C   0  0  0  0  0  2  0  0  0  0  0  0
  189.6300  177.5280  147.2940 C   0  0  2  0  0  3  0  0  0  0  0  0
  190.7820  176.5510  147.1620 C   0  0  0  0  0  1  0  0  0  0  0  0
  187.8710  177.9160  148.5820 C   0  0  0  0  0  1  0  0  0  0  0  0
  188.5560  176.8940  147.9220 O   0  0  0  0  0  0  0  0  0  0  0  0
  1  2  1  0  0  0  0
  1  3  1  1  0  0  0
  4  7  1  1  0  0  0
  4  6  1  0  0  0  0
  5  2  1  0  0  0  0
  6 19  1  6  0  0  0
  6  1  1  0  0  0  0
  7  5  2  0  0  0  0
  8 10  1  0  0  0  0
  9  8  2  0  0  0  0
  9 14  1  0  0  0  0
 10 13  1  0  0  0  0
 11 14  2  0  0  0  0
 13 15  1  0  0  0  0
 14 12  1  0  0  0  0
 15 12  1  6  0  0  0
 15  4  1  0  0  0  0
 16 17  1  0  0  0  0
 17 11  1  0  0  0  0
 18 17  2  0  0  0  0
 20 19  1  0  0  0  0
 20 21  1  0  0  0  0
 21 24  1  0  0  0  0
 22 26  1  1  0  0  0
 23 24  1  0  0  0  0
 23 22  1  0  0  0  0
 24 25  1  6  0  0  0
 24 22  1  0  0  0  0
 26 27  1  0  0  0  0
 27 28  1  6  0  0  0
 27 30  1  0  0  0  0
 30 29  1  0  0  0  0
M  END
>  <MODEL>
9

>  <REMARK>
 VINA RESULT:      -7.4      2.014      7.073
  Name = 
  9 active torsions:
  status: ('A' for Active; 'I' for Inactive)
    1  A    between atoms: C_1  and  C_4
    2  A    between atoms: C_1  and  C_5
    3  A    between atoms: C_4  and  C_27
    4  A    between atoms: C_5  and  C_22
    5  A    between atoms: C_8  and  C_12
    6  A    between atoms: C_9  and  C_12
    7  A    between atoms: C_9  and  O_21
    8  A    between atoms: C_15  and  C_16
    9  A    between atoms: C_19  and  C_29
                            x       y       z     vdW  Elec       q    Type
                         _______ _______ _______ _____ _____    ______ ____

>  <TORSDO>
F 9

$$$$
