=
 OpenBabel10272414333D

 43 48  0  0  1  0  0  0  0  0999 V2000
  191.0030  176.6440  146.8490 C   0  0  0  0  0  0  0  0  0  0  0  0
  187.1710  177.8110  143.7780 C   0  0  0  0  0  0  0  0  0  0  0  0
  189.0490  177.6720  142.2460 O   0  0  0  0  0  0  0  0  0  0  0  0
  188.8080  177.1930  145.9140 C   0  0  0  0  0  0  0  0  0  0  0  0
  191.6020  176.7070  145.6590 C   0  0  0  0  0  3  0  0  0  0  0  0
  191.7320  176.3460  147.9510 F   0  0  0  0  0  0  0  0  0  0  0  0
  189.3740  177.2760  144.6270 C   0  0  0  0  0  0  0  0  0  0  0  0
  189.5590  176.8950  146.9770 C   0  0  0  0  0  3  0  0  0  0  0  0
  190.8470  177.0330  144.3970 C   0  0  0  0  0  2  0  0  0  0  0  0
  188.2150  177.9760  141.1600 C   0  0  0  0  0  0  0  0  0  0  0  0
  188.5390  177.5860  143.5500 C   0  0  0  0  0  0  0  0  0  0  0  0
  186.6850  177.7160  145.0460 N   0  0  0  0  0  0  0  0  0  0  0  0
  186.3620  178.1120  142.7440 C   0  0  0  0  0  0  0  0  0  0  0  0
  186.9120  178.1960  141.3730 C   0  0  0  0  0  3  0  0  0  0  0  0
  187.4780  177.4170  146.0780 N   0  0  0  0  0  0  0  0  0  0  0  0
  188.7800  178.0380  139.8050 C   0  0  0  0  0  0  0  0  0  0  0  0
  187.9030  178.1670  138.6860 N   0  0  0  0  0  2  0  0  0  0  0  0
  190.0290  177.9870  139.6300 O   0  0  0  0  0  0  0  0  0  0  0  0
  189.3910  179.4930  136.9470 O   0  0  0  0  0  0  0  0  0  0  0  0
  188.4820  178.3010  137.0600 S   0  0  0  0  0  0  0  0  0  0  0  0
  187.3120  178.4630  136.1290 O   0  0  0  0  0  0  0  0  0  0  0  0
  189.3750  176.8020  136.6320 C   0  0  2  0  0  3  0  0  0  0  0  0
  188.1710  175.3460  135.1830 C   0  0  0  0  0  2  0  0  0  0  0  0
  189.8160  176.8840  135.1920 C   0  0  0  0  0  2  0  0  0  0  0  0
  188.5360  175.5410  136.6530 C   0  0  1  0  0  0  0  0  0  0  0  0
  189.4320  174.3950  137.1220 C   0  0  0  0  0  1  0  0  0  0  0  0
  188.8180  176.3130  134.3900 O   0  0  0  0  0  0  0  0  0  0  0  0
  187.3990  175.6860  137.4890 O   0  0  0  0  0  0  0  0  0  0  0  0
  186.2740  175.0920  136.8880 C   0  0  0  0  0  3  0  0  0  0  0  0
  184.6010  173.2120  137.4080 C   0  0  0  0  0  2  0  0  0  0  0  0
  183.8050  175.3900  136.4090 C   0  0  0  0  0  2  0  0  0  0  0  0
  183.8510  173.8630  136.2500 C   0  0  0  0  0  2  0  0  0  0  0  0
  185.0440  175.9710  137.1060 C   0  0  0  0  0  2  0  0  0  0  0  0
  186.0610  173.6850  137.4670 C   0  0  0  0  0  2  0  0  0  0  0  0
  184.8920  178.3230  142.9400 C   0  0  0  0  0  2  0  0  0  0  0  0
  182.5280  177.5320  140.0830 C   0  0  0  0  0  3  0  0  0  0  0  0
  182.9380  178.4620  139.1220 C   0  0  0  0  0  0  0  0  0  0  0  0
  184.6020  179.3160  140.6600 C   0  0  0  0  0  3  0  0  0  0  0  0
  183.1550  177.4930  141.3330 C   0  0  0  0  0  3  0  0  0  0  0  0
  184.1900  178.3900  141.6250 C   0  0  0  0  0  0  0  0  0  0  0  0
  183.9750  179.3540  139.4120 C   0  0  0  0  0  3  0  0  0  0  0  0
  181.7760  178.5300  136.8060 N   0  0  0  0  0  0  0  0  0  0  0  0
  182.2950  178.5000  137.8400 C   0  0  0  0  0  0  0  0  0  0  0  0
  1  8  1  0  0  0  0
  1  6  1  0  0  0  0
  2 12  1  0  0  0  0
  3 11  1  0  0  0  0
  4 15  1  0  0  0  0
  4  8  2  0  0  0  0
  5  1  2  0  0  0  0
  7  4  1  0  0  0  0
  9  7  1  0  0  0  0
  9  5  1  0  0  0  0
 10 14  2  0  0  0  0
 10  3  1  0  0  0  0
 11  2  1  0  0  0  0
 11  7  2  0  0  0  0
 12 15  2  0  0  0  0
 13 35  1  0  0  0  0
 13  2  2  0  0  0  0
 14 13  1  0  0  0  0
 16 10  1  0  0  0  0
 17 16  1  0  0  0  0
 18 16  2  0  0  0  0
 19 20  2  0  0  0  0
 20 17  1  0  0  0  0
 21 20  2  0  0  0  0
 22 25  1  0  0  0  0
 22 20  1  6  0  0  0
 23 25  1  0  0  0  0
 24 22  1  0  0  0  0
 25 26  1  1  0  0  0
 25 28  1  0  0  0  0
 27 23  1  0  0  0  0
 27 24  1  0  0  0  0
 29 33  1  0  0  0  0
 29 34  1  0  0  0  0
 29 28  1  0  0  0  0
 30 34  1  0  0  0  0
 31 33  1  0  0  0  0
 32 31  1  0  0  0  0
 32 30  1  0  0  0  0
 36 39  1  0  0  0  0
 37 41  1  0  0  0  0
 37 36  2  0  0  0  0
 38 40  1  0  0  0  0
 39 40  2  0  0  0  0
 40 35  1  0  0  0  0
 41 38  2  0  0  0  0
 42 43  3  0  0  0  0
 43 37  1  0  0  0  0
M  END
>  <MODEL>
1

>  <REMARK>
 VINA RESULT:      -9.4      0.000      0.000
  Name = 
  8 active torsions:
  status: ('A' for Active; 'I' for Inactive)
    1  A    between atoms: C_1  and  C_34
    2  A    between atoms: C_1  and  C_35
    3  A    between atoms: C_2  and  C_27
    4  A    between atoms: C_4  and  S_12
    5  A    between atoms: N_6  and  S_12
    6  A    between atoms: C_11  and  O_14
    7  A    between atoms: O_14  and  C_22
    8  A    between atoms: C_19  and  C_37
                            x       y       z     vdW  Elec       q    Type
                         _______ _______ _______ _____ _____    ______ ____

>  <TORSDO>
F 8

$$$$
=
 OpenBabel10272414333D

 43 48  0  0  1  0  0  0  0  0999 V2000
  191.5840  176.1760  147.1450 C   0  0  0  0  0  0  0  0  0  0  0  0
  187.4360  177.8080  144.7750 C   0  0  0  0  0  0  0  0  0  0  0  0
  188.9750  177.4230  142.9370 O   0  0  0  0  0  0  0  0  0  0  0  0
  189.3410  176.9970  146.6010 C   0  0  0  0  0  0  0  0  0  0  0  0
  191.9610  176.1560  145.8660 C   0  0  0  0  0  3  0  0  0  0  0  0
  192.4560  175.7940  148.1080 F   0  0  0  0  0  0  0  0  0  0  0  0
  189.6720  177.0000  145.2330 C   0  0  0  0  0  0  0  0  0  0  0  0
  190.2290  176.6100  147.5210 C   0  0  0  0  0  3  0  0  0  0  0  0
  191.0380  176.5700  144.7500 C   0  0  0  0  0  2  0  0  0  0  0  0
  188.0030  177.8250  142.0090 C   0  0  0  0  0  0  0  0  0  0  0  0
  188.7020  177.4090  144.3120 C   0  0  0  0  0  0  0  0  0  0  0  0
  187.1790  177.7810  146.1110 N   0  0  0  0  0  0  0  0  0  0  0  0
  186.4980  178.2050  143.8930 C   0  0  0  0  0  0  0  0  0  0  0  0
  186.7980  178.2110  142.4450 C   0  0  0  0  0  3  0  0  0  0  0  0
  188.1010  177.3890  146.9930 N   0  0  0  0  0  0  0  0  0  0  0  0
  188.3180  177.8080  140.5740 C   0  0  0  0  0  0  0  0  0  0  0  0
  187.3930  178.3790  139.6470 N   0  0  0  0  0  2  0  0  0  0  0  0
  189.3990  177.3030  140.1620 O   0  0  0  0  0  0  0  0  0  0  0  0
  188.9610  179.2410  137.6980 O   0  0  0  0  0  0  0  0  0  0  0  0
  187.7050  178.4520  137.9460 S   0  0  0  0  0  0  0  0  0  0  0  0
  186.5440  179.1130  137.2570 O   0  0  0  0  0  0  0  0  0  0  0  0
  187.8940  176.7800  137.3150 C   0  0  2  0  0  3  0  0  0  0  0  0
  186.4870  176.2900  135.4580 C   0  0  0  0  0  2  0  0  0  0  0  0
  188.6070  176.8310  135.9880 C   0  0  0  0  0  2  0  0  0  0  0  0
  186.5920  176.0870  136.9670 C   0  0  1  0  0  0  0  0  0  0  0  0
  186.7590  174.6010  137.2830 C   0  0  0  0  0  1  0  0  0  0  0  0
  187.6460  176.9220  134.9700 O   0  0  0  0  0  0  0  0  0  0  0  0
  185.4980  176.6480  137.6770 O   0  0  0  0  0  0  0  0  0  0  0  0
  184.2830  176.2430  137.0960 C   0  0  0  0  0  3  0  0  0  0  0  0
  182.0170  175.3080  137.8660 C   0  0  0  0  0  2  0  0  0  0  0  0
  182.1240  177.0740  136.0640 C   0  0  0  0  0  2  0  0  0  0  0  0
  181.6340  175.6660  136.4320 C   0  0  0  0  0  2  0  0  0  0  0  0
  183.4350  177.4690  136.7600 C   0  0  0  0  0  2  0  0  0  0  0  0
  183.5400  175.2990  138.0540 C   0  0  0  0  0  2  0  0  0  0  0  0
  185.1260  178.6020  144.3430 C   0  0  0  0  0  2  0  0  0  0  0  0
  183.6820  178.0390  140.8820 C   0  0  0  0  0  3  0  0  0  0  0  0
  182.3580  178.4500  141.0670 C   0  0  0  0  0  0  0  0  0  0  0  0
  182.8340  178.9350  143.3920 C   0  0  0  0  0  3  0  0  0  0  0  0
  184.5820  178.0750  141.9520 C   0  0  0  0  0  3  0  0  0  0  0  0
  184.1570  178.5190  143.2100 C   0  0  0  0  0  0  0  0  0  0  0  0
  181.9350  178.8980  142.3220 C   0  0  0  0  0  3  0  0  0  0  0  0
  180.6900  178.3840  139.0840 N   0  0  0  0  0  0  0  0  0  0  0  0
  181.4350  178.4140  139.9690 C   0  0  0  0  0  0  0  0  0  0  0  0
  1  8  1  0  0  0  0
  1  6  1  0  0  0  0
  2 12  1  0  0  0  0
  3 11  1  0  0  0  0
  4 15  1  0  0  0  0
  4  8  2  0  0  0  0
  5  1  2  0  0  0  0
  7  4  1  0  0  0  0
  9  7  1  0  0  0  0
  9  5  1  0  0  0  0
 10 14  2  0  0  0  0
 10  3  1  0  0  0  0
 11  2  1  0  0  0  0
 11  7  2  0  0  0  0
 12 15  2  0  0  0  0
 13 35  1  0  0  0  0
 13  2  2  0  0  0  0
 14 13  1  0  0  0  0
 16 10  1  0  0  0  0
 17 16  1  0  0  0  0
 18 16  2  0  0  0  0
 19 20  2  0  0  0  0
 20 17  1  0  0  0  0
 21 20  2  0  0  0  0
 22 20  1  6  0  0  0
 23 25  1  0  0  0  0
 24 22  1  0  0  0  0
 25 26  1  1  0  0  0
 25 22  1  0  0  0  0
 25 28  1  0  0  0  0
 27 23  1  0  0  0  0
 27 24  1  0  0  0  0
 29 28  1  0  0  0  0
 29 34  1  0  0  0  0
 30 34  1  0  0  0  0
 31 32  1  0  0  0  0
 31 33  1  0  0  0  0
 32 30  1  0  0  0  0
 33 29  1  0  0  0  0
 36 37  2  0  0  0  0
 36 39  1  0  0  0  0
 37 41  1  0  0  0  0
 39 40  2  0  0  0  0
 40 38  1  0  0  0  0
 40 35  1  0  0  0  0
 41 38  2  0  0  0  0
 42 43  3  0  0  0  0
 43 37  1  0  0  0  0
M  END
>  <MODEL>
2

>  <REMARK>
 VINA RESULT:      -9.3      1.342      1.810
  Name = 
  8 active torsions:
  status: ('A' for Active; 'I' for Inactive)
    1  A    between atoms: C_1  and  C_34
    2  A    between atoms: C_1  and  C_35
    3  A    between atoms: C_2  and  C_27
    4  A    between atoms: C_4  and  S_12
    5  A    between atoms: N_6  and  S_12
    6  A    between atoms: C_11  and  O_14
    7  A    between atoms: O_14  and  C_22
    8  A    between atoms: C_19  and  C_37
                            x       y       z     vdW  Elec       q    Type
                         _______ _______ _______ _____ _____    ______ ____

>  <TORSDO>
F 8

$$$$
=
 OpenBabel10272414333D

 43 48  0  0  1  0  0  0  0  0999 V2000
  188.9750  177.3290  146.9670 C   0  0  0  0  0  0  0  0  0  0  0  0
  185.7680  178.2500  143.1790 C   0  0  0  0  0  0  0  0  0  0  0  0
  187.8980  178.0580  142.0290 O   0  0  0  0  0  0  0  0  0  0  0  0
  186.9870  177.7850  145.6130 C   0  0  0  0  0  0  0  0  0  0  0  0
  189.7840  177.3340  145.9050 C   0  0  0  0  0  3  0  0  0  0  0  0
  189.4900  177.1080  148.2000 F   0  0  0  0  0  0  0  0  0  0  0  0
  187.7800  177.8040  144.4490 C   0  0  0  0  0  0  0  0  0  0  0  0
  187.5310  177.5610  146.8110 C   0  0  0  0  0  3  0  0  0  0  0  0
  189.2720  177.5740  144.5090 C   0  0  0  0  0  2  0  0  0  0  0  0
  187.2770  178.2840  140.7920 C   0  0  0  0  0  0  0  0  0  0  0  0
  187.1570  178.0370  143.2200 C   0  0  0  0  0  0  0  0  0  0  0  0
  185.0580  178.2190  144.3390 N   0  0  0  0  0  0  0  0  0  0  0  0
  185.1620  178.4780  141.9970 C   0  0  0  0  0  0  0  0  0  0  0  0
  185.9560  178.4940  140.7490 C   0  0  0  0  0  3  0  0  0  0  0  0
  185.6480  177.9940  145.5150 N   0  0  0  0  0  0  0  0  0  0  0  0
  188.0820  178.2790  139.5640 C   0  0  0  0  0  0  0  0  0  0  0  0
  187.4270  178.1850  138.2980 N   0  0  0  0  0  2  0  0  0  0  0  0
  189.3400  178.3660  139.6230 O   0  0  0  0  0  0  0  0  0  0  0  0
  189.1930  179.4280  136.7690 O   0  0  0  0  0  0  0  0  0  0  0  0
  188.2910  178.2260  136.7980 S   0  0  0  0  0  0  0  0  0  0  0  0
  187.3090  178.3010  135.6620 O   0  0  0  0  0  0  0  0  0  0  0  0
  189.2620  176.7220  136.6430 C   0  0  2  0  0  3  0  0  0  0  0  0
  188.3460  175.1410  135.1150 C   0  0  0  0  0  2  0  0  0  0  0  0
  189.9480  176.7140  135.2990 C   0  0  0  0  0  2  0  0  0  0  0  0
  188.4460  175.4460  136.6080 C   0  0  1  0  0  0  0  0  0  0  0  0
  189.2590  174.3570  137.3080 C   0  0  0  0  0  1  0  0  0  0  0  0
  189.1120  176.0650  134.3780 O   0  0  0  0  0  0  0  0  0  0  0  0
  187.1780  175.6220  137.2210 O   0  0  0  0  0  0  0  0  0  0  0  0
  186.2210  174.7960  136.6030 C   0  0  0  0  0  3  0  0  0  0  0  0
  184.5310  172.9870  137.2920 C   0  0  0  0  0  2  0  0  0  0  0  0
  183.8980  174.7470  135.5950 C   0  0  0  0  0  2  0  0  0  0  0  0
  184.0200  173.2420  135.8760 C   0  0  0  0  0  2  0  0  0  0  0  0
  184.9480  175.5950  136.3280 C   0  0  0  0  0  2  0  0  0  0  0  0
  185.9320  173.5810  137.4960 C   0  0  0  0  0  2  0  0  0  0  0  0
  183.6800  178.6730  141.9070 C   0  0  0  0  0  2  0  0  0  0  0  0
  182.3660  179.1090  138.3770 C   0  0  0  0  0  3  0  0  0  0  0  0
  182.1910  177.7790  137.9830 C   0  0  0  0  0  0  0  0  0  0  0  0
  183.0120  177.0340  140.1370 C   0  0  0  0  0  3  0  0  0  0  0  0
  182.8630  179.4030  139.6510 C   0  0  0  0  0  3  0  0  0  0  0  0
  183.1920  178.3640  140.5310 C   0  0  0  0  0  0  0  0  0  0  0  0
  182.5150  176.7420  138.8640 C   0  0  0  0  0  3  0  0  0  0  0  0
  181.2670  177.2360  135.6230 N   0  0  0  0  0  0  0  0  0  0  0  0
  181.6800  177.4780  136.6760 C   0  0  0  0  0  0  0  0  0  0  0  0
  1  6  1  0  0  0  0
  2 11  1  0  0  0  0
  2 12  1  0  0  0  0
  3 11  1  0  0  0  0
  4  8  2  0  0  0  0
  5  1  2  0  0  0  0
  7  9  1  0  0  0  0
  7  4  1  0  0  0  0
  8  1  1  0  0  0  0
  9  5  1  0  0  0  0
 10  3  1  0  0  0  0
 11  7  2  0  0  0  0
 12 15  2  0  0  0  0
 13  2  2  0  0  0  0
 14 10  2  0  0  0  0
 14 13  1  0  0  0  0
 15  4  1  0  0  0  0
 16 18  2  0  0  0  0
 16 10  1  0  0  0  0
 17 16  1  0  0  0  0
 19 20  2  0  0  0  0
 20 17  1  0  0  0  0
 21 20  2  0  0  0  0
 22 20  1  6  0  0  0
 23 25  1  0  0  0  0
 24 22  1  0  0  0  0
 25 22  1  0  0  0  0
 25 28  1  0  0  0  0
 25 26  1  1  0  0  0
 27 23  1  0  0  0  0
 27 24  1  0  0  0  0
 29 28  1  0  0  0  0
 29 34  1  0  0  0  0
 30 34  1  0  0  0  0
 31 32  1  0  0  0  0
 31 33  1  0  0  0  0
 32 30  1  0  0  0  0
 33 29  1  0  0  0  0
 35 13  1  0  0  0  0
 36 39  1  0  0  0  0
 37 36  2  0  0  0  0
 37 41  1  0  0  0  0
 38 40  1  0  0  0  0
 39 40  2  0  0  0  0
 40 35  1  0  0  0  0
 41 38  2  0  0  0  0
 42 43  3  0  0  0  0
 43 37  1  0  0  0  0
M  END
>  <MODEL>
3

>  <REMARK>
 VINA RESULT:      -9.1      1.020      1.479
  Name = 
  8 active torsions:
  status: ('A' for Active; 'I' for Inactive)
    1  A    between atoms: C_1  and  C_34
    2  A    between atoms: C_1  and  C_35
    3  A    between atoms: C_2  and  C_27
    4  A    between atoms: C_4  and  S_12
    5  A    between atoms: N_6  and  S_12
    6  A    between atoms: C_11  and  O_14
    7  A    between atoms: O_14  and  C_22
    8  A    between atoms: C_19  and  C_37
                            x       y       z     vdW  Elec       q    Type
                         _______ _______ _______ _____ _____    ______ ____

>  <TORSDO>
F 8

$$$$
=
 OpenBabel10272414333D

 43 48  0  0  1  0  0  0  0  0999 V2000
  187.9560  177.8320  148.3870 C   0  0  0  0  0  0  0  0  0  0  0  0
  186.0680  178.5940  143.7680 C   0  0  0  0  0  0  0  0  0  0  0  0
  188.2420  177.6210  143.2940 O   0  0  0  0  0  0  0  0  0  0  0  0
  186.5350  178.4300  146.4840 C   0  0  0  0  0  0  0  0  0  0  0  0
  188.9390  177.3900  147.6020 C   0  0  0  0  0  3  0  0  0  0  0  0
  188.1010  177.7880  149.7330 F   0  0  0  0  0  0  0  0  0  0  0  0
  187.5310  177.9800  145.5960 C   0  0  0  0  0  0  0  0  0  0  0  0
  186.7150  178.3680  147.8060 C   0  0  0  0  0  3  0  0  0  0  0  0
  188.8380  177.4130  146.1000 C   0  0  0  0  0  2  0  0  0  0  0  0
  188.0000  177.6950  141.9140 C   0  0  0  0  0  0  0  0  0  0  0  0
  187.2880  178.0630  144.2220 C   0  0  0  0  0  0  0  0  0  0  0  0
  185.1460  179.0110  144.6770 N   0  0  0  0  0  0  0  0  0  0  0  0
  185.8290  178.6790  142.4450 C   0  0  0  0  0  0  0  0  0  0  0  0
  186.8430  178.2050  141.4770 C   0  0  0  0  0  3  0  0  0  0  0  0
  185.3730  178.9310  145.9900 N   0  0  0  0  0  0  0  0  0  0  0  0
  189.0140  177.2040  140.9720 C   0  0  0  0  0  0  0  0  0  0  0  0
  188.7740  177.3080  139.5680 N   0  0  0  0  0  2  0  0  0  0  0  0
  190.0930  176.7040  141.3960 O   0  0  0  0  0  0  0  0  0  0  0  0
  190.1930  175.3320  138.5290 O   0  0  0  0  0  0  0  0  0  0  0  0
  189.9340  176.8060  138.3850 S   0  0  0  0  0  0  0  0  0  0  0  0
  191.2120  177.5700  138.5890 O   0  0  0  0  0  0  0  0  0  0  0  0
  189.2870  177.1610  136.7460 C   0  0  2  0  0  3  0  0  0  0  0  0
  186.9930  177.7990  136.7360 C   0  0  0  0  0  2  0  0  0  0  0  0
  189.0750  178.6480  136.6100 C   0  0  0  0  0  2  0  0  0  0  0  0
  187.9050  176.6010  136.4790 C   0  0  1  0  0  0  0  0  0  0  0  0
  187.8420  176.2060  135.0040 C   0  0  0  0  0  1  0  0  0  0  0  0
  187.7630  178.9460  137.0050 O   0  0  0  0  0  0  0  0  0  0  0  0
  187.6180  175.4980  137.3250 O   0  0  0  0  0  0  0  0  0  0  0  0
  187.1180  174.4230  136.5690 C   0  0  0  0  0  3  0  0  0  0  0  0
  187.4460  171.8780  136.4190 C   0  0  0  0  0  2  0  0  0  0  0  0
  185.1340  172.8800  136.2560 C   0  0  0  0  0  2  0  0  0  0  0  0
  186.1810  171.9900  135.5710 C   0  0  0  0  0  2  0  0  0  0  0  0
  185.7440  174.0120  137.0960 C   0  0  0  0  0  2  0  0  0  0  0  0
  188.1070  173.2490  136.6210 C   0  0  0  0  0  2  0  0  0  0  0  0
  184.5280  179.2040  141.9210 C   0  0  0  0  0  2  0  0  0  0  0  0
  184.0230  178.2340  138.2900 C   0  0  0  0  0  3  0  0  0  0  0  0
  183.2430  177.0810  138.4200 C   0  0  0  0  0  0  0  0  0  0  0  0
  183.3240  177.2980  140.8300 C   0  0  0  0  0  3  0  0  0  0  0  0
  184.4530  178.9210  139.4300 C   0  0  0  0  0  3  0  0  0  0  0  0
  184.1080  178.4500  140.7030 C   0  0  0  0  0  0  0  0  0  0  0  0
  182.8940  176.6130  139.6910 C   0  0  0  0  0  3  0  0  0  0  0  0
  182.4440  175.8120  136.3050 N   0  0  0  0  0  0  0  0  0  0  0  0
  182.8010  176.3780  137.2490 C   0  0  0  0  0  0  0  0  0  0  0  0
  1  6  1  0  0  0  0
  2 11  1  0  0  0  0
  2 12  1  0  0  0  0
  3 11  1  0  0  0  0
  4  8  2  0  0  0  0
  5  1  2  0  0  0  0
  7  9  1  0  0  0  0
  7  4  1  0  0  0  0
  8  1  1  0  0  0  0
  9  5  1  0  0  0  0
 10  3  1  0  0  0  0
 11  7  2  0  0  0  0
 12 15  2  0  0  0  0
 13  2  2  0  0  0  0
 14 10  2  0  0  0  0
 14 13  1  0  0  0  0
 15  4  1  0  0  0  0
 16 18  2  0  0  0  0
 16 10  1  0  0  0  0
 17 16  1  0  0  0  0
 20 19  2  0  0  0  0
 20 21  2  0  0  0  0
 20 17  1  0  0  0  0
 22 20  1  1  0  0  0
 23 27  1  0  0  0  0
 24 22  1  0  0  0  0
 24 27  1  0  0  0  0
 25 26  1  6  0  0  0
 25 23  1  0  0  0  0
 25 22  1  0  0  0  0
 25 28  1  0  0  0  0
 29 34  1  0  0  0  0
 29 33  1  0  0  0  0
 29 28  1  0  0  0  0
 30 34  1  0  0  0  0
 31 33  1  0  0  0  0
 32 31  1  0  0  0  0
 32 30  1  0  0  0  0
 35 13  1  0  0  0  0
 36 37  2  0  0  0  0
 36 39  1  0  0  0  0
 37 41  1  0  0  0  0
 39 40  2  0  0  0  0
 40 38  1  0  0  0  0
 40 35  1  0  0  0  0
 41 38  2  0  0  0  0
 42 43  3  0  0  0  0
 43 37  1  0  0  0  0
M  END
>  <MODEL>
4

>  <REMARK>
 VINA RESULT:      -9.1      1.754      2.535
  Name = 
  8 active torsions:
  status: ('A' for Active; 'I' for Inactive)
    1  A    between atoms: C_1  and  C_34
    2  A    between atoms: C_1  and  C_35
    3  A    between atoms: C_2  and  C_27
    4  A    between atoms: C_4  and  S_12
    5  A    between atoms: N_6  and  S_12
    6  A    between atoms: C_11  and  O_14
    7  A    between atoms: O_14  and  C_22
    8  A    between atoms: C_19  and  C_37
                            x       y       z     vdW  Elec       q    Type
                         _______ _______ _______ _____ _____    ______ ____

>  <TORSDO>
F 8

$$$$
=
 OpenBabel10272414333D

 43 48  0  0  1  0  0  0  0  0999 V2000
  191.6350  176.2770  146.9630 C   0  0  0  0  0  0  0  0  0  0  0  0
  187.2200  177.8870  145.1210 C   0  0  0  0  0  0  0  0  0  0  0  0
  188.5570  177.6100  143.1130 O   0  0  0  0  0  0  0  0  0  0  0  0
  189.3300  177.0590  146.6980 C   0  0  0  0  0  0  0  0  0  0  0  0
  191.8710  176.3130  145.6510 C   0  0  0  0  0  3  0  0  0  0  0  0
  192.6150  175.8810  147.8100 F   0  0  0  0  0  0  0  0  0  0  0  0
  189.5090  177.1210  145.3020 C   0  0  0  0  0  0  0  0  0  0  0  0
  190.3200  176.6620  147.5000 C   0  0  0  0  0  3  0  0  0  0  0  0
  190.8230  176.7430  144.6590 C   0  0  0  0  0  2  0  0  0  0  0  0
  187.4820  178.0200  142.3130 C   0  0  0  0  0  0  0  0  0  0  0  0
  188.4360  177.5380  144.5090 C   0  0  0  0  0  0  0  0  0  0  0  0
  187.1100  177.8050  146.4750 N   0  0  0  0  0  0  0  0  0  0  0  0
  186.1830  178.2920  144.3620 C   0  0  0  0  0  0  0  0  0  0  0  0
  186.3230  178.3590  142.8910 C   0  0  0  0  0  3  0  0  0  0  0  0
  188.1310  177.4040  147.2360 N   0  0  0  0  0  0  0  0  0  0  0  0
  187.6390  178.0640  140.8530 C   0  0  0  0  0  0  0  0  0  0  0  0
  188.6150  177.2290  140.2280 N   0  0  0  0  0  2  0  0  0  0  0  0
  186.9140  178.8240  140.1530 O   0  0  0  0  0  0  0  0  0  0  0  0
  189.4550  178.4590  138.0420 O   0  0  0  0  0  0  0  0  0  0  0  0
  188.8320  177.1740  138.5120 S   0  0  0  0  0  0  0  0  0  0  0  0
  187.4970  176.9840  137.8480 O   0  0  0  0  0  0  0  0  0  0  0  0
  189.8990  175.7870  138.1020 C   0  0  2  0  0  3  0  0  0  0  0  0
  190.4440  175.6450  135.7880 C   0  0  0  0  0  2  0  0  0  0  0  0
  191.2770  176.3050  137.7740 C   0  0  0  0  0  2  0  0  0  0  0  0
  189.5120  175.0460  136.8390 C   0  0  1  0  0  0  0  0  0  0  0  0
  189.8440  173.5690  137.0480 C   0  0  0  0  0  1  0  0  0  0  0  0
  191.3450  176.5430  136.3930 O   0  0  0  0  0  0  0  0  0  0  0  0
  188.1390  175.2300  136.5270 O   0  0  0  0  0  0  0  0  0  0  0  0
  187.5300  173.9900  136.2650 C   0  0  0  0  0  3  0  0  0  0  0  0
  185.3390  172.7780  136.8450 C   0  0  0  0  0  2  0  0  0  0  0  0
  186.2980  172.6380  134.5130 C   0  0  0  0  0  2  0  0  0  0  0  0
  185.8240  171.8440  135.7390 C   0  0  0  0  0  2  0  0  0  0  0  0
  186.9190  173.9980  134.8650 C   0  0  0  0  0  2  0  0  0  0  0  0
  186.4660  173.6990  137.3340 C   0  0  0  0  0  2  0  0  0  0  0  0
  184.8590  178.6370  144.9720 C   0  0  0  0  0  2  0  0  0  0  0  0
  181.4630  178.8470  143.3000 C   0  0  0  0  0  3  0  0  0  0  0  0
  181.8180  178.7890  141.9490 C   0  0  0  0  0  0  0  0  0  0  0  0
  184.1550  178.6590  142.5700 C   0  0  0  0  0  3  0  0  0  0  0  0
  182.4530  178.8100  144.2870 C   0  0  0  0  0  3  0  0  0  0  0  0
  183.8020  178.7220  143.9220 C   0  0  0  0  0  0  0  0  0  0  0  0
  183.1650  178.6950  141.5840 C   0  0  0  0  0  3  0  0  0  0  0  0
  179.9820  178.8550  140.1200 N   0  0  0  0  0  0  0  0  0  0  0  0
  180.8010  178.8250  140.9370 C   0  0  0  0  0  0  0  0  0  0  0  0
  1  8  1  0  0  0  0
  1  6  1  0  0  0  0
  2 12  1  0  0  0  0
  3 11  1  0  0  0  0
  4 15  1  0  0  0  0
  4  8  2  0  0  0  0
  5  1  2  0  0  0  0
  7  4  1  0  0  0  0
  9  7  1  0  0  0  0
  9  5  1  0  0  0  0
 10 14  2  0  0  0  0
 10  3  1  0  0  0  0
 11  2  1  0  0  0  0
 11  7  2  0  0  0  0
 12 15  2  0  0  0  0
 13 35  1  0  0  0  0
 13  2  2  0  0  0  0
 14 13  1  0  0  0  0
 16 10  1  0  0  0  0
 17 16  1  0  0  0  0
 18 16  2  0  0  0  0
 19 20  2  0  0  0  0
 20 17  1  0  0  0  0
 21 20  2  0  0  0  0
 22 20  1  6  0  0  0
 23 27  1  0  0  0  0
 23 25  1  0  0  0  0
 24 22  1  0  0  0  0
 25 26  1  1  0  0  0
 25 22  1  0  0  0  0
 27 24  1  0  0  0  0
 28 25  1  0  0  0  0
 29 28  1  0  0  0  0
 29 34  1  0  0  0  0
 30 34  1  0  0  0  0
 31 33  1  0  0  0  0
 31 32  1  0  0  0  0
 32 30  1  0  0  0  0
 33 29  1  0  0  0  0
 36 39  1  0  0  0  0
 37 36  2  0  0  0  0
 38 40  1  0  0  0  0
 40 39  2  0  0  0  0
 40 35  1  0  0  0  0
 41 37  1  0  0  0  0
 41 38  2  0  0  0  0
 42 43  3  0  0  0  0
 43 37  1  0  0  0  0
M  END
>  <MODEL>
5

>  <REMARK>
 VINA RESULT:      -8.6      1.745      2.165
  Name = 
  8 active torsions:
  status: ('A' for Active; 'I' for Inactive)
    1  A    between atoms: C_1  and  C_34
    2  A    between atoms: C_1  and  C_35
    3  A    between atoms: C_2  and  C_27
    4  A    between atoms: C_4  and  S_12
    5  A    between atoms: N_6  and  S_12
    6  A    between atoms: C_11  and  O_14
    7  A    between atoms: O_14  and  C_22
    8  A    between atoms: C_19  and  C_37
                            x       y       z     vdW  Elec       q    Type
                         _______ _______ _______ _____ _____    ______ ____

>  <TORSDO>
F 8

$$$$
=
 OpenBabel10272414333D

 43 48  0  0  1  0  0  0  0  0999 V2000
  188.2130  177.7710  147.8880 C   0  0  0  0  0  0  0  0  0  0  0  0
  185.4480  178.4100  143.7130 C   0  0  0  0  0  0  0  0  0  0  0  0
  187.6910  178.1410  142.8220 O   0  0  0  0  0  0  0  0  0  0  0  0
  186.3890  178.1240  146.2940 C   0  0  0  0  0  0  0  0  0  0  0  0
  189.1340  177.7020  146.9250 C   0  0  0  0  0  3  0  0  0  0  0  0
  188.5880  177.6400  149.1830 F   0  0  0  0  0  0  0  0  0  0  0  0
  187.3050  178.0610  145.2270 C   0  0  0  0  0  0  0  0  0  0  0  0
  186.7960  177.9880  147.5580 C   0  0  0  0  0  3  0  0  0  0  0  0
  188.7810  177.8390  145.4670 C   0  0  0  0  0  2  0  0  0  0  0  0
  187.2110  178.2750  141.5120 C   0  0  0  0  0  0  0  0  0  0  0  0
  186.8230  178.2040  143.9230 C   0  0  0  0  0  0  0  0  0  0  0  0
  184.6140  178.4610  144.7870 N   0  0  0  0  0  0  0  0  0  0  0  0
  184.9780  178.5510  142.4590 C   0  0  0  0  0  0  0  0  0  0  0  0
  185.9040  178.4780  141.3080 C   0  0  0  0  0  3  0  0  0  0  0  0
  185.0700  178.3230  146.0340 N   0  0  0  0  0  0  0  0  0  0  0  0
  188.1470  178.1830  140.3830 C   0  0  0  0  0  0  0  0  0  0  0  0
  187.6680  178.4090  139.0560 N   0  0  0  0  0  2  0  0  0  0  0  0
  189.3650  177.9170  140.5810 O   0  0  0  0  0  0  0  0  0  0  0  0
  189.9960  177.6860  138.0290 O   0  0  0  0  0  0  0  0  0  0  0  0
  188.7080  178.3740  137.6730 S   0  0  0  0  0  0  0  0  0  0  0  0
  188.9900  179.7830  137.2290 O   0  0  0  0  0  0  0  0  0  0  0  0
  187.8830  177.4890  136.3440 C   0  0  2  0  0  3  0  0  0  0  0  0
  187.0820  175.3370  136.9760 C   0  0  0  0  0  2  0  0  0  0  0  0
  186.4000  177.4540  136.6200 C   0  0  0  0  0  2  0  0  0  0  0  0
  188.2390  176.0200  136.2500 C   0  0  1  0  0  0  0  0  0  0  0  0
  188.2250  175.6330  134.7710 C   0  0  0  0  0  1  0  0  0  0  0  0
  186.1120  176.2880  137.3450 O   0  0  0  0  0  0  0  0  0  0  0  0
  189.4990  175.7500  136.8450 O   0  0  0  0  0  0  0  0  0  0  0  0
  190.3100  175.0200  135.9580 C   0  0  0  0  0  3  0  0  0  0  0  0
  192.7880  174.9060  135.2890 C   0  0  0  0  0  2  0  0  0  0  0  0
  191.4450  172.7870  135.5790 C   0  0  0  0  0  2  0  0  0  0  0  0
  192.3190  173.6140  134.6250 C   0  0  0  0  0  2  0  0  0  0  0  0
  190.6140  173.6430  136.5470 C   0  0  0  0  0  2  0  0  0  0  0  0
  191.6020  175.8000  135.6730 C   0  0  0  0  0  2  0  0  0  0  0  0
  183.5160  178.7360  142.1920 C   0  0  0  0  0  2  0  0  0  0  0  0
  182.7130  176.8620  138.9950 C   0  0  0  0  0  3  0  0  0  0  0  0
  182.7040  177.9030  138.0610 C   0  0  0  0  0  0  0  0  0  0  0  0
  183.1970  179.4880  139.8250 C   0  0  0  0  0  3  0  0  0  0  0  0
  182.9650  177.1330  140.3440 C   0  0  0  0  0  3  0  0  0  0  0  0
  183.2020  178.4480  140.7610 C   0  0  0  0  0  0  0  0  0  0  0  0
  182.9450  179.2160  138.4780 C   0  0  0  0  0  3  0  0  0  0  0  0
  182.2390  177.4000  135.5610 N   0  0  0  0  0  0  0  0  0  0  0  0
  182.4460  177.6250  136.6770 C   0  0  0  0  0  0  0  0  0  0  0  0
  1  6  1  0  0  0  0
  2 11  1  0  0  0  0
  2 12  1  0  0  0  0
  3 11  1  0  0  0  0
  4  8  2  0  0  0  0
  5  1  2  0  0  0  0
  7  9  1  0  0  0  0
  7  4  1  0  0  0  0
  8  1  1  0  0  0  0
  9  5  1  0  0  0  0
 10  3  1  0  0  0  0
 11  7  2  0  0  0  0
 12 15  2  0  0  0  0
 13  2  2  0  0  0  0
 14 10  2  0  0  0  0
 14 13  1  0  0  0  0
 15  4  1  0  0  0  0
 16 18  2  0  0  0  0
 16 10  1  0  0  0  0
 17 16  1  0  0  0  0
 20 19  2  0  0  0  0
 20 17  1  0  0  0  0
 21 20  2  0  0  0  0
 22 24  1  0  0  0  0
 22 20  1  1  0  0  0
 23 27  1  0  0  0  0
 24 27  1  0  0  0  0
 25 26  1  6  0  0  0
 25 22  1  0  0  0  0
 25 28  1  0  0  0  0
 25 23  1  0  0  0  0
 29 33  1  0  0  0  0
 29 28  1  0  0  0  0
 30 34  1  0  0  0  0
 31 33  1  0  0  0  0
 32 30  1  0  0  0  0
 32 31  1  0  0  0  0
 34 29  1  0  0  0  0
 35 13  1  0  0  0  0
 36 39  1  0  0  0  0
 37 41  1  0  0  0  0
 37 36  2  0  0  0  0
 38 40  1  0  0  0  0
 39 40  2  0  0  0  0
 40 35  1  0  0  0  0
 41 38  2  0  0  0  0
 42 43  3  0  0  0  0
 43 37  1  0  0  0  0
M  END
>  <MODEL>
6

>  <REMARK>
 VINA RESULT:      -8.6      1.754      3.321
  Name = 
  8 active torsions:
  status: ('A' for Active; 'I' for Inactive)
    1  A    between atoms: C_1  and  C_34
    2  A    between atoms: C_1  and  C_35
    3  A    between atoms: C_2  and  C_27
    4  A    between atoms: C_4  and  S_12
    5  A    between atoms: N_6  and  S_12
    6  A    between atoms: C_11  and  O_14
    7  A    between atoms: O_14  and  C_22
    8  A    between atoms: C_19  and  C_37
                            x       y       z     vdW  Elec       q    Type
                         _______ _______ _______ _____ _____    ______ ____

>  <TORSDO>
F 8

$$$$
=
 OpenBabel10272414333D

 43 48  0  0  1  0  0  0  0  0999 V2000
  190.9830  176.8210  147.0150 C   0  0  0  0  0  0  0  0  0  0  0  0
  187.2510  177.8780  143.7850 C   0  0  0  0  0  0  0  0  0  0  0  0
  189.1550  177.5800  142.3080 O   0  0  0  0  0  0  0  0  0  0  0  0
  188.8250  177.3660  145.9950 C   0  0  0  0  0  0  0  0  0  0  0  0
  191.6080  176.7830  145.8370 C   0  0  0  0  0  3  0  0  0  0  0  0
  191.6800  176.5810  148.1510 F   0  0  0  0  0  0  0  0  0  0  0  0
  189.4190  177.3420  144.7180 C   0  0  0  0  0  0  0  0  0  0  0  0
  189.5450  177.1210  147.0920 C   0  0  0  0  0  3  0  0  0  0  0  0
  190.8890  177.0410  144.5390 C   0  0  0  0  0  2  0  0  0  0  0  0
  188.3530  177.8300  141.1860 C   0  0  0  0  0  0  0  0  0  0  0  0
  188.6170  177.5990  143.6030 C   0  0  0  0  0  0  0  0  0  0  0  0
  186.7370  177.8860  145.0450 N   0  0  0  0  0  0  0  0  0  0  0  0
  186.4730  178.1300  142.7140 C   0  0  0  0  0  0  0  0  0  0  0  0
  187.0530  178.1020  141.3540 C   0  0  0  0  0  3  0  0  0  0  0  0
  187.4990  177.6380  146.1130 N   0  0  0  0  0  0  0  0  0  0  0  0
  188.9470  177.7810  139.8430 C   0  0  0  0  0  0  0  0  0  0  0  0
  188.1190  177.4710  138.7210 N   0  0  0  0  0  2  0  0  0  0  0  0
  190.1760  178.0190  139.6780 O   0  0  0  0  0  0  0  0  0  0  0  0
  189.8650  176.4730  137.0020 O   0  0  0  0  0  0  0  0  0  0  0  0
  188.7210  177.4440  137.0990 S   0  0  0  0  0  0  0  0  0  0  0  0
  189.1910  178.8220  136.7210 O   0  0  0  0  0  0  0  0  0  0  0  0
  187.3950  176.9470  135.9920 C   0  0  2  0  0  3  0  0  0  0  0  0
  185.8760  175.3860  136.9550 C   0  0  0  0  0  2  0  0  0  0  0  0
  186.1030  177.5700  136.4580 C   0  0  0  0  0  2  0  0  0  0  0  0
  187.0770  175.4660  136.0160 C   0  0  1  0  0  0  0  0  0  0  0  0
  186.6610  175.0580  134.6030 C   0  0  0  0  0  1  0  0  0  0  0  0
  185.4720  176.6790  137.3380 O   0  0  0  0  0  0  0  0  0  0  0  0
  188.1850  174.7030  136.4710 O   0  0  0  0  0  0  0  0  0  0  0  0
  188.3040  173.5220  135.7170 C   0  0  0  0  0  3  0  0  0  0  0  0
  190.1720  171.9540  134.9060 C   0  0  0  0  0  2  0  0  0  0  0  0
  187.9990  171.0080  135.7780 C   0  0  0  0  0  2  0  0  0  0  0  0
  188.9780  171.0560  134.5950 C   0  0  0  0  0  2  0  0  0  0  0  0
  187.9440  172.3150  136.5820 C   0  0  0  0  0  2  0  0  0  0  0  0
  189.7320  173.4020  135.1630 C   0  0  0  0  0  2  0  0  0  0  0  0
  185.0060  178.3950  142.8630 C   0  0  0  0  0  2  0  0  0  0  0  0
  182.7710  177.4440  139.9510 C   0  0  0  0  0  3  0  0  0  0  0  0
  183.1510  178.3900  138.9930 C   0  0  0  0  0  0  0  0  0  0  0  0
  184.7190  179.3530  140.5670 C   0  0  0  0  0  3  0  0  0  0  0  0
  183.3650  177.4520  141.2170 C   0  0  0  0  0  3  0  0  0  0  0  0
  184.3370  178.4110  141.5280 C   0  0  0  0  0  0  0  0  0  0  0  0
  184.1250  179.3440  139.3020 C   0  0  0  0  0  3  0  0  0  0  0  0
  182.0510  178.3720  136.6460 N   0  0  0  0  0  0  0  0  0  0  0  0
  182.5420  178.3800  137.6940 C   0  0  0  0  0  0  0  0  0  0  0  0
  1  8  1  0  0  0  0
  1  6  1  0  0  0  0
  2 12  1  0  0  0  0
  3 11  1  0  0  0  0
  4 15  1  0  0  0  0
  4  8  2  0  0  0  0
  5  1  2  0  0  0  0
  7  4  1  0  0  0  0
  9  7  1  0  0  0  0
  9  5  1  0  0  0  0
 10 14  2  0  0  0  0
 10  3  1  0  0  0  0
 11  2  1  0  0  0  0
 11  7  2  0  0  0  0
 12 15  2  0  0  0  0
 13 35  1  0  0  0  0
 13  2  2  0  0  0  0
 14 13  1  0  0  0  0
 16 10  1  0  0  0  0
 17 16  1  0  0  0  0
 18 16  2  0  0  0  0
 19 20  2  0  0  0  0
 20 17  1  0  0  0  0
 21 20  2  0  0  0  0
 22 25  1  0  0  0  0
 22 24  1  0  0  0  0
 22 20  1  1  0  0  0
 23 27  1  0  0  0  0
 24 27  1  0  0  0  0
 25 26  1  6  0  0  0
 25 28  1  0  0  0  0
 25 23  1  0  0  0  0
 29 28  1  0  0  0  0
 29 33  1  0  0  0  0
 30 34  1  0  0  0  0
 31 33  1  0  0  0  0
 32 30  1  0  0  0  0
 32 31  1  0  0  0  0
 34 29  1  0  0  0  0
 36 39  1  0  0  0  0
 37 41  1  0  0  0  0
 37 36  2  0  0  0  0
 38 40  1  0  0  0  0
 39 40  2  0  0  0  0
 40 35  1  0  0  0  0
 41 38  2  0  0  0  0
 42 43  3  0  0  0  0
 43 37  1  0  0  0  0
M  END
>  <MODEL>
7

>  <REMARK>
 VINA RESULT:      -8.5      1.425      2.392
  Name = 
  8 active torsions:
  status: ('A' for Active; 'I' for Inactive)
    1  A    between atoms: C_1  and  C_34
    2  A    between atoms: C_1  and  C_35
    3  A    between atoms: C_2  and  C_27
    4  A    between atoms: C_4  and  S_12
    5  A    between atoms: N_6  and  S_12
    6  A    between atoms: C_11  and  O_14
    7  A    between atoms: O_14  and  C_22
    8  A    between atoms: C_19  and  C_37
                            x       y       z     vdW  Elec       q    Type
                         _______ _______ _______ _____ _____    ______ ____

>  <TORSDO>
F 8

$$$$
=
 OpenBabel10272414333D

 43 48  0  0  1  0  0  0  0  0999 V2000
  188.7750  177.2700  146.4800 C   0  0  0  0  0  0  0  0  0  0  0  0
  190.7750  177.3980  141.8470 C   0  0  0  0  0  0  0  0  0  0  0  0
  188.4350  177.8930  141.4240 O   0  0  0  0  0  0  0  0  0  0  0  0
  190.2900  177.1940  144.5570 C   0  0  0  0  0  0  0  0  0  0  0  0
  187.7150  177.5500  145.7210 C   0  0  0  0  0  3  0  0  0  0  0  0
  188.6270  177.1520  147.8210 F   0  0  0  0  0  0  0  0  0  0  0  0
  189.2150  177.4880  143.6960 C   0  0  0  0  0  0  0  0  0  0  0  0
  190.1040  177.0880  145.8750 C   0  0  0  0  0  3  0  0  0  0  0  0
  187.8150  177.6940  144.2250 C   0  0  0  0  0  2  0  0  0  0  0  0
  188.6850  178.0070  140.0490 C   0  0  0  0  0  0  0  0  0  0  0  0
  189.4670  177.5930  142.3250 C   0  0  0  0  0  0  0  0  0  0  0  0
  191.7700  177.1170  142.7310 N   0  0  0  0  0  0  0  0  0  0  0  0
  191.0230  177.4960  140.5270 C   0  0  0  0  0  0  0  0  0  0  0  0
  189.9260  177.8170  139.5870 C   0  0  0  0  0  3  0  0  0  0  0  0
  191.5340  177.0180  144.0410 N   0  0  0  0  0  0  0  0  0  0  0  0
  187.5830  178.3420  139.1370 C   0  0  0  0  0  0  0  0  0  0  0  0
  186.2340  178.2060  139.5870 N   0  0  0  0  0  2  0  0  0  0  0  0
  187.8220  178.7560  137.9680 O   0  0  0  0  0  0  0  0  0  0  0  0
  185.2360  178.4650  137.1510 O   0  0  0  0  0  0  0  0  0  0  0  0
  184.8760  178.6280  138.6010 S   0  0  0  0  0  0  0  0  0  0  0  0
  184.4920  180.0570  138.8710 O   0  0  0  0  0  0  0  0  0  0  0  0
  183.4960  177.5560  139.0180 C   0  0  2  0  0  3  0  0  0  0  0  0
  181.3950  178.6750  139.0820 C   0  0  0  0  0  2  0  0  0  0  0  0
  182.6550  177.3320  137.7860 C   0  0  0  0  0  2  0  0  0  0  0  0
  182.5040  178.1560  139.9940 C   0  0  1  0  0  0  0  0  0  0  0  0
  181.9700  177.0220  140.8680 C   0  0  0  0  0  1  0  0  0  0  0  0
  181.6560  178.3150  137.7460 O   0  0  0  0  0  0  0  0  0  0  0  0
  183.0980  179.1790  140.7770 O   0  0  0  0  0  0  0  0  0  0  0  0
  183.2780  178.7370  142.1000 C   0  0  0  0  0  3  0  0  0  0  0  0
  184.7400  179.3270  144.1290 C   0  0  0  0  0  2  0  0  0  0  0  0
  182.2920  178.7860  144.4330 C   0  0  0  0  0  2  0  0  0  0  0  0
  183.7290  178.4280  144.8370 C   0  0  0  0  0  2  0  0  0  0  0  0
  182.1700  179.2980  142.9900 C   0  0  0  0  0  2  0  0  0  0  0  0
  184.6650  179.1610  142.6050 C   0  0  0  0  0  2  0  0  0  0  0  0
  192.4090  177.3320  139.9810 C   0  0  0  0  0  2  0  0  0  0  0  0
  191.3080  174.8460  137.3380 C   0  0  0  0  0  3  0  0  0  0  0  0
  192.4040  174.8650  136.4690 C   0  0  0  0  0  0  0  0  0  0  0  0
  193.4880  176.5120  137.8760 C   0  0  0  0  0  3  0  0  0  0  0  0
  191.3020  175.6580  138.4770 C   0  0  0  0  0  3  0  0  0  0  0  0
  192.3910  176.4970  138.7440 C   0  0  0  0  0  0  0  0  0  0  0  0
  193.4930  175.7000  136.7390 C   0  0  0  0  0  3  0  0  0  0  0  0
  192.4150  173.3580  134.3600 N   0  0  0  0  0  0  0  0  0  0  0  0
  192.4100  174.0310  135.3020 C   0  0  0  0  0  0  0  0  0  0  0  0
  1  6  1  0  0  0  0
  2 11  1  0  0  0  0
  2 12  1  0  0  0  0
  3 11  1  0  0  0  0
  4  8  2  0  0  0  0
  5  1  2  0  0  0  0
  7  9  1  0  0  0  0
  7  4  1  0  0  0  0
  8  1  1  0  0  0  0
  9  5  1  0  0  0  0
 10  3  1  0  0  0  0
 11  7  2  0  0  0  0
 12 15  2  0  0  0  0
 13  2  2  0  0  0  0
 14 10  2  0  0  0  0
 14 13  1  0  0  0  0
 15  4  1  0  0  0  0
 16 17  1  0  0  0  0
 16 10  1  0  0  0  0
 18 16  2  0  0  0  0
 19 20  2  0  0  0  0
 20 21  2  0  0  0  0
 20 17  1  0  0  0  0
 22 20  1  6  0  0  0
 22 25  1  0  0  0  0
 23 25  1  0  0  0  0
 24 22  1  0  0  0  0
 25 28  1  0  0  0  0
 25 26  1  1  0  0  0
 27 24  1  0  0  0  0
 27 23  1  0  0  0  0
 28 29  1  0  0  0  0
 29 34  1  0  0  0  0
 29 33  1  0  0  0  0
 30 32  1  0  0  0  0
 31 32  1  0  0  0  0
 33 31  1  0  0  0  0
 34 30  1  0  0  0  0
 35 13  1  0  0  0  0
 36 39  1  0  0  0  0
 37 41  1  0  0  0  0
 37 36  2  0  0  0  0
 38 40  1  0  0  0  0
 39 40  2  0  0  0  0
 40 35  1  0  0  0  0
 41 38  2  0  0  0  0
 42 43  3  0  0  0  0
 43 37  1  0  0  0  0
M  END
>  <MODEL>
8

>  <REMARK>
 VINA RESULT:      -8.5      3.033      6.750
  Name = 
  8 active torsions:
  status: ('A' for Active; 'I' for Inactive)
    1  A    between atoms: C_1  and  C_34
    2  A    between atoms: C_1  and  C_35
    3  A    between atoms: C_2  and  C_27
    4  A    between atoms: C_4  and  S_12
    5  A    between atoms: N_6  and  S_12
    6  A    between atoms: C_11  and  O_14
    7  A    between atoms: O_14  and  C_22
    8  A    between atoms: C_19  and  C_37
                            x       y       z     vdW  Elec       q    Type
                         _______ _______ _______ _____ _____    ______ ____

>  <TORSDO>
F 8

$$$$
=
 OpenBabel10272414333D

 43 48  0  0  1  0  0  0  0  0999 V2000
  190.3810  176.9660  146.0690 C   0  0  0  0  0  0  0  0  0  0  0  0
  189.8770  177.6770  141.0970 C   0  0  0  0  0  0  0  0  0  0  0  0
  187.6400  178.1360  141.9230 O   0  0  0  0  0  0  0  0  0  0  0  0
  190.7660  177.1550  143.6580 C   0  0  0  0  0  0  0  0  0  0  0  0
  189.0920  177.2930  145.9580 C   0  0  0  0  0  3  0  0  0  0  0  0
  190.9010  176.6940  147.2900 F   0  0  0  0  0  0  0  0  0  0  0  0
  189.4160  177.5070  143.4670 C   0  0  0  0  0  0  0  0  0  0  0  0
  191.2430  176.8970  144.8780 C   0  0  0  0  0  3  0  0  0  0  0  0
  188.4560  177.6060  144.6300 C   0  0  0  0  0  3  0  0  0  0  0  0
  187.1920  178.4120  140.6230 C   0  0  0  0  0  0  0  0  0  0  0  0
  188.9720  177.7730  142.1690 C   0  0  0  0  0  0  0  0  0  0  0  0
  191.1690  177.3320  141.3470 N   0  0  0  0  0  2  0  0  0  0  0  0
  189.4540  177.9290  139.8430 C   0  0  0  0  0  0  0  0  0  0  0  0
  188.0470  178.3160  139.5980 C   0  0  0  0  0  3  0  0  0  0  0  0
  191.5980  177.0800  142.5860 N   0  0  0  0  0  0  0  0  0  0  0  0
  185.7940  178.8090  140.4060 C   0  0  0  0  0  0  0  0  0  0  0  0
  185.1180  178.3770  139.2250 N   0  0  0  0  0  2  0  0  0  0  0  0
  185.1910  179.5190  141.2580 O   0  0  0  0  0  0  0  0  0  0  0  0
  183.2090  180.2080  139.1910 O   0  0  0  0  0  0  0  0  0  0  0  0
  183.4580  178.7510  138.9120 S   0  0  0  0  0  0  0  0  0  0  0  0
  182.5830  177.9080  139.7980 O   0  0  0  0  0  0  0  0  0  0  0  0
  183.0890  178.3820  137.1920 C   0  0  2  0  0  3  0  0  0  0  0  0
  181.6130  176.5360  136.9020 C   0  0  0  0  0  2  0  0  0  0  0  0
  181.6670  178.7870  136.8940 C   0  0  0  0  0  2  0  0  0  0  0  0
  183.0940  176.9060  136.8500 C   0  0  1  0  0  0  0  0  0  0  0  0
  183.6170  176.7630  135.4210 C   0  0  0  0  0  1  0  0  0  0  0  0
  180.8330  177.6850  137.1310 O   0  0  0  0  0  0  0  0  0  0  0  0
  183.8810  176.1610  137.7680 O   0  0  0  0  0  0  0  0  0  0  0  0
  184.3700  174.9950  137.1530 C   0  0  0  0  0  3  0  0  0  0  0  0
  186.4310  173.4690  137.3200 C   0  0  0  0  0  2  0  0  0  0  0  0
  184.1260  172.4760  137.0430 C   0  0  0  0  0  2  0  0  0  0  0  0
  185.5480  172.5590  136.4700 C   0  0  0  0  0  2  0  0  0  0  0  0
  183.6660  173.7690  137.7330 C   0  0  0  0  0  2  0  0  0  0  0  0
  185.8910  174.9060  137.3470 C   0  0  0  0  0  2  0  0  0  0  0  0
  190.3950  177.8730  138.6780 C   0  0  0  0  0  2  0  0  0  0  0  0
  190.5250  174.3270  137.3430 C   0  0  0  0  0  3  0  0  0  0  0  0
  189.6930  174.4240  136.2230 C   0  0  0  0  0  0  0  0  0  0  0  0
  189.2990  176.7610  136.7210 C   0  0  0  0  0  3  0  0  0  0  0  0
  190.7450  175.4460  138.1520 C   0  0  0  0  0  3  0  0  0  0  0  0
  190.1270  176.6650  137.8440 C   0  0  0  0  0  0  0  0  0  0  0  0
  189.0800  175.6420  135.9130 C   0  0  0  0  0  3  0  0  0  0  0  0
  189.2880  172.3480  134.7250 N   0  0  0  0  0  0  0  0  0  0  0  0
  189.4690  173.2750  135.3930 C   0  0  0  0  0  0  0  0  0  0  0  0
  1  6  1  0  0  0  0
  2 12  1  0  0  0  0
  2 11  1  0  0  0  0
  3 11  1  0  0  0  0
  4  8  1  0  0  0  0
  5  1  1  0  0  0  0
  7  4  1  0  0  0  0
  7  9  1  0  0  0  0
  8  1  2  0  0  0  0
  9  5  2  0  0  0  0
 10  3  1  0  0  0  0
 11  7  2  0  0  0  0
 12 15  1  0  0  0  0
 13  2  2  0  0  0  0
 14 13  1  0  0  0  0
 14 10  2  0  0  0  0
 15  4  2  0  0  0  0
 16 10  1  0  0  0  0
 16 18  2  0  0  0  0
 17 16  1  0  0  0  0
 20 19  2  0  0  0  0
 20 17  1  0  0  0  0
 20 21  2  0  0  0  0
 22 20  1  1  0  0  0
 23 27  1  0  0  0  0
 24 27  1  0  0  0  0
 24 22  1  0  0  0  0
 25 26  1  6  0  0  0
 25 23  1  0  0  0  0
 25 22  1  0  0  0  0
 25 28  1  0  0  0  0
 29 34  1  0  0  0  0
 29 33  1  0  0  0  0
 29 28  1  0  0  0  0
 30 34  1  0  0  0  0
 31 33  1  0  0  0  0
 32 31  1  0  0  0  0
 32 30  1  0  0  0  0
 35 13  1  0  0  0  0
 36 39  1  0  0  0  0
 37 36  2  0  0  0  0
 38 40  1  0  0  0  0
 40 39  2  0  0  0  0
 40 35  1  0  0  0  0
 41 37  1  0  0  0  0
 41 38  2  0  0  0  0
 42 43  3  0  0  0  0
 43 37  1  0  0  0  0
M  END
>  <MODEL>
9

>  <REMARK>
 VINA RESULT:      -8.4      2.756      5.393
  Name = 
  8 active torsions:
  status: ('A' for Active; 'I' for Inactive)
    1  A    between atoms: C_1  and  C_34
    2  A    between atoms: C_1  and  C_35
    3  A    between atoms: C_2  and  C_27
    4  A    between atoms: C_4  and  S_12
    5  A    between atoms: N_6  and  S_12
    6  A    between atoms: C_11  and  O_14
    7  A    between atoms: O_14  and  C_22
    8  A    between atoms: C_19  and  C_37
                            x       y       z     vdW  Elec       q    Type
                         _______ _______ _______ _____ _____    ______ ____

>  <TORSDO>
F 8

$$$$
