=
 OpenBabel10272400283D

 31 34  0  0  1  0  0  0  0  0999 V2000
  188.3110  177.7960  143.8170 C   0  0  1  0  0  3  0  0  0  0  0  0
  188.9910  176.8430  144.8260 C   0  0  2  0  0  3  0  0  0  0  0  0
  189.8550  176.6490  147.1820 C   0  0  0  0  0  2  0  0  0  0  0  0
  188.8910  177.3860  146.2630 C   0  0  0  0  0  2  0  0  0  0  0  0
  190.7370  176.7480  142.9510 C   0  0  0  0  0  2  0  0  0  0  0  0
  191.3090  176.9120  146.7770 C   0  0  1  0  0  3  0  0  0  0  0  0
  188.3780  177.3240  142.4170 N   0  0  0  0  0  0  0  0  0  0  0  0
  192.1740  175.7420  147.2010 C   0  0  0  0  0  1  0  0  0  0  0  0
  189.5030  176.4230  142.1230 C   0  0  0  0  0  2  0  0  0  0  0  0
  190.4480  176.4850  144.4220 C   0  0  1  0  0  3  0  0  0  0  0  0
  191.4970  177.1940  145.2810 C   0  0  0  0  0  2  0  0  0  0  0  0
  184.9790  178.4710  145.8220 C   0  0  0  0  0  0  0  0  0  0  0  0
  186.8790  178.0440  144.1890 C   0  0  0  0  0  0  0  0  0  0  0  0
  183.9770  178.5720  144.7890 C   0  0  0  0  0  3  0  0  0  0  0  0
  184.6000  178.6160  147.1130 F   0  0  0  0  0  0  0  0  0  0  0  0
  184.9610  178.2700  142.2540 O   0  0  0  0  0  0  0  0  0  0  0  0
  186.3890  178.2160  145.5300 C   0  0  0  0  0  3  0  0  0  0  0  0
  185.8660  178.1700  143.2890 C   0  0  0  0  0  0  0  0  0  0  0  0
  184.5550  178.4080  143.5640 C   0  0  0  0  0  0  0  0  0  0  0  0
  188.5300  178.4950  141.5610 C   0  0  0  0  0  2  0  0  0  0  0  0
  188.0090  178.2000  140.1640 C   0  0  0  0  0  2  0  0  0  0  0  0
  189.0560  178.5670  139.1300 C   0  0  0  0  0  2  0  0  0  0  0  0
  187.4110  177.3270  137.3990 S   0  0  0  0  0  0  0  0  0  0  0  0
  188.9170  177.6950  137.9350 C   0  0  0  0  0  0  0  0  0  0  0  0
  190.1090  177.2280  137.2830 N   0  0  0  0  0  2  0  0  0  0  0  0
  190.7830  175.5470  138.7760 O   0  0  0  0  0  0  0  0  0  0  0  0
  190.9620  176.1410  137.6820 C   0  0  0  0  0  0  0  0  0  0  0  0
  192.0170  175.7380  136.8620 O   0  0  0  0  0  0  0  0  0  0  0  0
  193.3800  175.9220  137.2240 C   0  0  0  0  0  3  0  0  0  0  0  0
  194.1780  176.4050  136.0280 C   0  0  0  0  0  1  0  0  0  0  0  0
  193.9530  174.6050  137.7030 C   0  0  0  0  0  1  0  0  0  0  0  0
  1 13  1  1  0  0  0
  1  2  1  0  0  0  0
  2  4  1  1  0  0  0
  4  3  1  0  0  0  0
  6  3  1  0  0  0  0
  6  8  1  6  0  0  0
  7  1  1  0  0  0  0
  9  7  1  0  0  0  0
  9  5  1  0  0  0  0
 10  5  1  6  0  0  0
 10  2  1  0  0  0  0
 10 11  1  0  0  0  0
 11  6  1  0  0  0  0
 12 15  1  0  0  0  0
 13 17  2  0  0  0  0
 14 12  2  0  0  0  0
 16 18  1  0  0  0  0
 16 19  1  0  0  0  0
 17 12  1  0  0  0  0
 18 19  2  0  0  0  0
 18 13  1  0  0  0  0
 19 14  1  0  0  0  0
 20  7  1  0  0  0  0
 21 20  1  0  0  0  0
 22 21  1  0  0  0  0
 23 24  2  0  0  0  0
 24 22  1  0  0  0  0
 25 27  1  0  0  0  0
 25 24  1  0  0  0  0
 27 26  2  0  0  0  0
 28 29  1  0  0  0  0
 28 27  1  0  0  0  0
 29 31  1  0  0  0  0
 30 29  1  0  0  0  0
M  END
>  <MODEL>
1

>  <REMARK>
 VINA RESULT:      -9.2      0.000      0.000
  Name = 
  8 active torsions:
  status: ('A' for Active; 'I' for Inactive)
    1  A    between atoms: C_1  and  O_24
    2  A    between atoms: N_3  and  C_22
    3  A    between atoms: C_4  and  C_12
    4  A    between atoms: C_9  and  C_22
    5  A    between atoms: C_9  and  C_23
    6  A    between atoms: C_15  and  N_21
    7  A    between atoms: C_15  and  C_23
    8  A    between atoms: C_19  and  O_24
                            x       y       z     vdW  Elec       q    Type
                         _______ _______ _______ _____ _____    ______ ____

>  <TORSDO>
F 8

$$$$
=
 OpenBabel10272400283D

 31 34  0  0  1  0  0  0  0  0999 V2000
  188.3670  177.7640  143.9290 C   0  0  1  0  0  3  0  0  0  0  0  0
  189.0420  176.8130  144.9430 C   0  0  2  0  0  3  0  0  0  0  0  0
  189.9190  176.6270  147.2940 C   0  0  0  0  0  2  0  0  0  0  0  0
  188.9580  177.3680  146.3750 C   0  0  0  0  0  2  0  0  0  0  0  0
  190.7750  176.6800  143.0570 C   0  0  0  0  0  2  0  0  0  0  0  0
  191.3740  176.8690  146.8770 C   0  0  1  0  0  3  0  0  0  0  0  0
  188.4190  177.2800  142.5330 N   0  0  0  0  0  0  0  0  0  0  0  0
  192.2270  175.6930  147.3060 C   0  0  0  0  0  1  0  0  0  0  0  0
  189.5310  176.3630  142.2400 C   0  0  0  0  0  2  0  0  0  0  0  0
  190.4920  176.4330  144.5320 C   0  0  1  0  0  3  0  0  0  0  0  0
  191.5550  177.1360  145.3780 C   0  0  0  0  0  2  0  0  0  0  0  0
  185.0570  178.5010  145.9500 C   0  0  0  0  0  0  0  0  0  0  0  0
  186.9410  178.0330  144.3090 C   0  0  0  0  0  0  0  0  0  0  0  0
  184.0490  178.6010  144.9230 C   0  0  0  0  0  3  0  0  0  0  0  0
  184.6890  178.6650  147.2420 F   0  0  0  0  0  0  0  0  0  0  0  0
  185.0120  178.2570  142.3850 O   0  0  0  0  0  0  0  0  0  0  0  0
  186.4630  178.2260  145.6510 C   0  0  0  0  0  3  0  0  0  0  0  0
  185.9230  178.1590  143.4150 C   0  0  0  0  0  0  0  0  0  0  0  0
  184.6170  178.4160  143.6960 C   0  0  0  0  0  0  0  0  0  0  0  0
  188.5800  178.4420  141.6670 C   0  0  0  0  0  2  0  0  0  0  0  0
  187.8880  178.2060  140.3340 C   0  0  0  0  0  2  0  0  0  0  0  0
  188.8720  178.3930  139.1960 C   0  0  0  0  0  2  0  0  0  0  0  0
  189.0150  178.1380  136.5220 S   0  0  0  0  0  0  0  0  0  0  0  0
  188.1530  178.3830  137.8960 C   0  0  0  0  0  0  0  0  0  0  0  0
  186.7290  178.5640  137.8960 N   0  0  0  0  0  2  0  0  0  0  0  0
  186.0250  176.4390  137.1910 O   0  0  0  0  0  0  0  0  0  0  0  0
  185.7160  177.5850  137.6090 C   0  0  0  0  0  0  0  0  0  0  0  0
  184.3670  177.8990  137.7760 O   0  0  0  0  0  0  0  0  0  0  0  0
  183.8330  178.3400  139.0180 C   0  0  0  0  0  3  0  0  0  0  0  0
  183.0510  177.2200  139.6780 C   0  0  0  0  0  1  0  0  0  0  0  0
  182.9080  179.5140  138.7770 C   0  0  0  0  0  1  0  0  0  0  0  0
  1 13  1  1  0  0  0
  1  2  1  0  0  0  0
  2  4  1  1  0  0  0
  4  3  1  0  0  0  0
  6  3  1  0  0  0  0
  6  8  1  6  0  0  0
  7  1  1  0  0  0  0
  9  7  1  0  0  0  0
  9  5  1  0  0  0  0
 10  5  1  6  0  0  0
 10  2  1  0  0  0  0
 10 11  1  0  0  0  0
 11  6  1  0  0  0  0
 12 15  1  0  0  0  0
 13 17  2  0  0  0  0
 14 12  2  0  0  0  0
 16 18  1  0  0  0  0
 16 19  1  0  0  0  0
 17 12  1  0  0  0  0
 18 19  2  0  0  0  0
 18 13  1  0  0  0  0
 19 14  1  0  0  0  0
 20  7  1  0  0  0  0
 21 20  1  0  0  0  0
 22 21  1  0  0  0  0
 23 24  2  0  0  0  0
 24 22  1  0  0  0  0
 25 24  1  0  0  0  0
 26 27  2  0  0  0  0
 27 28  1  0  0  0  0
 27 25  1  0  0  0  0
 28 29  1  0  0  0  0
 29 30  1  0  0  0  0
 31 29  1  0  0  0  0
M  END
>  <MODEL>
2

>  <REMARK>
 VINA RESULT:      -9.2      2.591      4.111
  Name = 
  8 active torsions:
  status: ('A' for Active; 'I' for Inactive)
    1  A    between atoms: C_1  and  O_24
    2  A    between atoms: N_3  and  C_22
    3  A    between atoms: C_4  and  C_12
    4  A    between atoms: C_9  and  C_22
    5  A    between atoms: C_9  and  C_23
    6  A    between atoms: C_15  and  N_21
    7  A    between atoms: C_15  and  C_23
    8  A    between atoms: C_19  and  O_24
                            x       y       z     vdW  Elec       q    Type
                         _______ _______ _______ _____ _____    ______ ____

>  <TORSDO>
F 8

$$$$
=
 OpenBabel10272400283D

 31 34  0  0  1  0  0  0  0  0999 V2000
  188.3000  177.8410  143.9700 C   0  0  1  0  0  3  0  0  0  0  0  0
  188.9170  176.8780  145.0100 C   0  0  2  0  0  3  0  0  0  0  0  0
  189.7120  176.6860  147.3900 C   0  0  0  0  0  2  0  0  0  0  0  0
  188.8010  177.4450  146.4360 C   0  0  0  0  0  2  0  0  0  0  0  0
  190.7070  176.6910  143.1830 C   0  0  0  0  0  2  0  0  0  0  0  0
  191.1860  176.8880  147.0200 C   0  0  1  0  0  3  0  0  0  0  0  0
  188.3850  177.3470  142.5790 N   0  0  0  0  0  0  0  0  0  0  0  0
  191.9940  175.6930  147.4820 C   0  0  0  0  0  1  0  0  0  0  0  0
  189.4830  176.4000  142.3270 C   0  0  0  0  0  2  0  0  0  0  0  0
  190.3700  176.4600  144.6490 C   0  0  1  0  0  3  0  0  0  0  0  0
  191.4220  177.1410  145.5260 C   0  0  0  0  0  2  0  0  0  0  0  0
  184.3980  178.3920  143.7660 C   0  0  0  0  0  0  0  0  0  0  0  0
  186.8700  178.1480  144.3010 C   0  0  0  0  0  0  0  0  0  0  0  0
  184.0360  178.7570  145.1140 C   0  0  0  0  0  3  0  0  0  0  0  0
  183.4250  178.3240  142.8270 F   0  0  0  0  0  0  0  0  0  0  0  0
  186.1480  178.8140  146.8520 O   0  0  0  0  0  0  0  0  0  0  0  0
  185.7740  178.0940  143.3710 C   0  0  0  0  0  3  0  0  0  0  0  0
  186.4280  178.4860  145.5430 C   0  0  0  0  0  0  0  0  0  0  0  0
  185.1470  178.7610  145.9070 C   0  0  0  0  0  0  0  0  0  0  0  0
  188.6040  178.4980  141.7120 C   0  0  0  0  0  2  0  0  0  0  0  0
  187.8400  178.3310  140.4090 C   0  0  0  0  0  2  0  0  0  0  0  0
  188.8080  178.1270  139.2600 C   0  0  0  0  0  2  0  0  0  0  0  0
  188.9620  178.1570  136.5740 S   0  0  0  0  0  0  0  0  0  0  0  0
  188.1020  178.3000  137.9640 C   0  0  0  0  0  0  0  0  0  0  0  0
  186.6910  178.5620  137.9790 N   0  0  0  0  0  2  0  0  0  0  0  0
  185.8620  176.4950  137.2390 O   0  0  0  0  0  0  0  0  0  0  0  0
  185.6220  177.6480  137.6810 C   0  0  0  0  0  0  0  0  0  0  0  0
  184.2930  178.0350  137.8660 O   0  0  0  0  0  0  0  0  0  0  0  0
  183.7630  178.3630  139.1440 C   0  0  0  0  0  3  0  0  0  0  0  0
  183.0220  177.1740  139.7230 C   0  0  0  0  0  1  0  0  0  0  0  0
  182.8020  179.5240  139.0040 C   0  0  0  0  0  1  0  0  0  0  0  0
  1 13  1  1  0  0  0
  1  2  1  0  0  0  0
  2  4  1  1  0  0  0
  4  3  1  0  0  0  0
  6  3  1  0  0  0  0
  6  8  1  6  0  0  0
  7  1  1  0  0  0  0
  9  7  1  0  0  0  0
  9  5  1  0  0  0  0
 10  5  1  6  0  0  0
 10  2  1  0  0  0  0
 10 11  1  0  0  0  0
 11  6  1  0  0  0  0
 12 14  1  0  0  0  0
 13 18  2  0  0  0  0
 14 19  2  0  0  0  0
 15 12  1  0  0  0  0
 17 12  2  0  0  0  0
 17 13  1  0  0  0  0
 18 19  1  0  0  0  0
 18 16  1  0  0  0  0
 19 16  1  0  0  0  0
 20  7  1  0  0  0  0
 21 20  1  0  0  0  0
 22 21  1  0  0  0  0
 23 24  2  0  0  0  0
 24 25  1  0  0  0  0
 24 22  1  0  0  0  0
 26 27  2  0  0  0  0
 27 28  1  0  0  0  0
 27 25  1  0  0  0  0
 28 29  1  0  0  0  0
 29 30  1  0  0  0  0
 31 29  1  0  0  0  0
M  END
>  <MODEL>
3

>  <REMARK>
 VINA RESULT:      -9.1      2.842      4.396
  Name = 
  8 active torsions:
  status: ('A' for Active; 'I' for Inactive)
    1  A    between atoms: C_1  and  O_24
    2  A    between atoms: N_3  and  C_22
    3  A    between atoms: C_4  and  C_12
    4  A    between atoms: C_9  and  C_22
    5  A    between atoms: C_9  and  C_23
    6  A    between atoms: C_15  and  N_21
    7  A    between atoms: C_15  and  C_23
    8  A    between atoms: C_19  and  O_24
                            x       y       z     vdW  Elec       q    Type
                         _______ _______ _______ _____ _____    ______ ____

>  <TORSDO>
F 8

$$$$
=
 OpenBabel10272400283D

 31 34  0  0  1  0  0  0  0  0999 V2000
  188.4060  177.7590  143.8590 C   0  0  1  0  0  3  0  0  0  0  0  0
  189.0470  176.8090  144.8960 C   0  0  2  0  0  3  0  0  0  0  0  0
  189.8300  176.6230  147.2800 C   0  0  0  0  0  2  0  0  0  0  0  0
  188.9000  177.3600  146.3260 C   0  0  0  0  0  2  0  0  0  0  0  0
  190.8550  176.6970  143.0820 C   0  0  0  0  0  2  0  0  0  0  0  0
  191.2980  176.8770  146.9240 C   0  0  1  0  0  3  0  0  0  0  0  0
  188.5180  177.2810  142.4650 N   0  0  0  0  0  0  0  0  0  0  0  0
  192.1420  175.7060  147.3830 C   0  0  0  0  0  1  0  0  0  0  0  0
  189.6490  176.3730  142.2140 C   0  0  0  0  0  2  0  0  0  0  0  0
  190.5160  176.4430  144.5430 C   0  0  1  0  0  3  0  0  0  0  0  0
  191.5370  177.1510  145.4340 C   0  0  0  0  0  2  0  0  0  0  0  0
  185.0090  178.4480  145.7470 C   0  0  0  0  0  0  0  0  0  0  0  0
  186.9640  178.0160  144.1820 C   0  0  0  0  0  0  0  0  0  0  0  0
  184.0450  178.5610  144.6800 C   0  0  0  0  0  3  0  0  0  0  0  0
  184.5850  178.5900  147.0250 F   0  0  0  0  0  0  0  0  0  0  0  0
  185.1180  178.2630  142.1810 O   0  0  0  0  0  0  0  0  0  0  0  0
  186.4280  178.1850  145.5050 C   0  0  0  0  0  3  0  0  0  0  0  0
  185.9840  178.1520  143.2470 C   0  0  0  0  0  0  0  0  0  0  0  0
  184.6660  178.3980  143.4760 C   0  0  0  0  0  0  0  0  0  0  0  0
  188.7050  178.4460  141.6090 C   0  0  0  0  0  2  0  0  0  0  0  0
  188.8660  178.0180  140.1600 C   0  0  0  0  0  2  0  0  0  0  0  0
  187.5500  178.1720  139.4220 C   0  0  0  0  0  2  0  0  0  0  0  0
  188.8260  178.7470  137.1240 S   0  0  0  0  0  0  0  0  0  0  0  0
  187.7370  177.8670  137.9800 C   0  0  0  0  0  0  0  0  0  0  0  0
  186.9750  176.7990  137.3980 N   0  0  0  0  0  2  0  0  0  0  0  0
  188.6040  175.1130  137.2990 O   0  0  0  0  0  0  0  0  0  0  0  0
  187.4040  175.4520  137.1350 C   0  0  0  0  0  0  0  0  0  0  0  0
  186.4920  174.5000  136.6770 O   0  0  0  0  0  0  0  0  0  0  0  0
  186.4210  173.1860  137.2170 C   0  0  0  0  0  3  0  0  0  0  0  0
  186.7550  172.1630  136.1490 C   0  0  0  0  0  1  0  0  0  0  0  0
  185.0200  172.9300  137.7270 C   0  0  0  0  0  1  0  0  0  0  0  0
  1 13  1  1  0  0  0
  1  2  1  0  0  0  0
  2  4  1  1  0  0  0
  4  3  1  0  0  0  0
  6  3  1  0  0  0  0
  6  8  1  6  0  0  0
  7  1  1  0  0  0  0
  9  7  1  0  0  0  0
  9  5  1  0  0  0  0
 10  5  1  6  0  0  0
 10  2  1  0  0  0  0
 10 11  1  0  0  0  0
 11  6  1  0  0  0  0
 12 15  1  0  0  0  0
 13 17  2  0  0  0  0
 14 12  2  0  0  0  0
 16 18  1  0  0  0  0
 16 19  1  0  0  0  0
 17 12  1  0  0  0  0
 18 19  2  0  0  0  0
 18 13  1  0  0  0  0
 19 14  1  0  0  0  0
 20  7  1  0  0  0  0
 21 20  1  0  0  0  0
 22 21  1  0  0  0  0
 23 24  2  0  0  0  0
 24 22  1  0  0  0  0
 25 24  1  0  0  0  0
 27 26  2  0  0  0  0
 27 25  1  0  0  0  0
 28 27  1  0  0  0  0
 28 29  1  0  0  0  0
 29 31  1  0  0  0  0
 30 29  1  0  0  0  0
M  END
>  <MODEL>
4

>  <REMARK>
 VINA RESULT:      -9.1      2.367      3.024
  Name = 
  8 active torsions:
  status: ('A' for Active; 'I' for Inactive)
    1  A    between atoms: C_1  and  O_24
    2  A    between atoms: N_3  and  C_22
    3  A    between atoms: C_4  and  C_12
    4  A    between atoms: C_9  and  C_22
    5  A    between atoms: C_9  and  C_23
    6  A    between atoms: C_15  and  N_21
    7  A    between atoms: C_15  and  C_23
    8  A    between atoms: C_19  and  O_24
                            x       y       z     vdW  Elec       q    Type
                         _______ _______ _______ _____ _____    ______ ____

>  <TORSDO>
F 8

$$$$
=
 OpenBabel10272400283D

 31 34  0  0  1  0  0  0  0  0999 V2000
  188.1860  177.8560  143.9750 C   0  0  1  0  0  3  0  0  0  0  0  0
  188.8340  176.9140  145.0150 C   0  0  2  0  0  3  0  0  0  0  0  0
  189.6960  176.7670  147.3750 C   0  0  0  0  0  2  0  0  0  0  0  0
  188.7570  177.5080  146.4330 C   0  0  0  0  0  2  0  0  0  0  0  0
  190.5700  176.6920  143.1420 C   0  0  0  0  0  2  0  0  0  0  0  0
  191.1580  176.9630  146.9590 C   0  0  1  0  0  3  0  0  0  0  0  0
  188.2320  177.3360  142.5920 N   0  0  0  0  0  0  0  0  0  0  0  0
  191.9800  175.7770  147.4210 C   0  0  0  0  0  1  0  0  0  0  0  0
  189.3230  176.3850  142.3270 C   0  0  0  0  0  2  0  0  0  0  0  0
  190.2760  176.4900  144.6210 C   0  0  1  0  0  3  0  0  0  0  0  0
  191.3520  177.1870  145.4550 C   0  0  0  0  0  2  0  0  0  0  0  0
  184.2860  178.4460  143.8600 C   0  0  0  0  0  0  0  0  0  0  0  0
  186.7660  178.1690  144.3410 C   0  0  0  0  0  0  0  0  0  0  0  0
  183.9540  178.7870  145.2220 C   0  0  0  0  0  3  0  0  0  0  0  0
  183.2940  178.4050  142.9400 F   0  0  0  0  0  0  0  0  0  0  0  0
  186.1010  178.7900  146.9190 O   0  0  0  0  0  0  0  0  0  0  0  0
  185.6510  178.1440  143.4320 C   0  0  0  0  0  3  0  0  0  0  0  0
  186.3520  178.4860  145.5980 C   0  0  0  0  0  0  0  0  0  0  0  0
  185.0810  178.7650  145.9930 C   0  0  0  0  0  0  0  0  0  0  0  0
  188.4250  178.4710  141.6970 C   0  0  0  0  0  2  0  0  0  0  0  0
  188.0220  178.1010  140.2790 C   0  0  0  0  0  2  0  0  0  0  0  0
  189.1500  178.4190  139.3170 C   0  0  0  0  0  2  0  0  0  0  0  0
  187.5270  177.1090  137.6180 S   0  0  0  0  0  0  0  0  0  0  0  0
  189.0220  177.5870  138.0930 C   0  0  0  0  0  0  0  0  0  0  0  0
  190.2120  177.2540  137.3610 N   0  0  0  0  0  2  0  0  0  0  0  0
  190.8620  175.2910  138.4700 O   0  0  0  0  0  0  0  0  0  0  0  0
  191.0530  176.0990  137.5250 C   0  0  0  0  0  0  0  0  0  0  0  0
  192.1080  175.8660  136.6420 O   0  0  0  0  0  0  0  0  0  0  0  0
  193.4590  176.1620  136.9690 C   0  0  0  0  0  3  0  0  0  0  0  0
  194.2570  176.4310  135.7080 C   0  0  0  0  0  1  0  0  0  0  0  0
  194.0680  174.9830  137.6980 C   0  0  0  0  0  1  0  0  0  0  0  0
  1 13  1  1  0  0  0
  1  2  1  0  0  0  0
  2  4  1  1  0  0  0
  4  3  1  0  0  0  0
  6  3  1  0  0  0  0
  6  8  1  6  0  0  0
  7  1  1  0  0  0  0
  9  7  1  0  0  0  0
  9  5  1  0  0  0  0
 10  5  1  6  0  0  0
 10  2  1  0  0  0  0
 10 11  1  0  0  0  0
 11  6  1  0  0  0  0
 12 14  1  0  0  0  0
 13 18  2  0  0  0  0
 14 19  2  0  0  0  0
 15 12  1  0  0  0  0
 17 12  2  0  0  0  0
 17 13  1  0  0  0  0
 18 19  1  0  0  0  0
 18 16  1  0  0  0  0
 19 16  1  0  0  0  0
 20  7  1  0  0  0  0
 21 20  1  0  0  0  0
 22 21  1  0  0  0  0
 23 24  2  0  0  0  0
 24 22  1  0  0  0  0
 25 27  1  0  0  0  0
 25 24  1  0  0  0  0
 27 26  2  0  0  0  0
 28 29  1  0  0  0  0
 28 27  1  0  0  0  0
 29 31  1  0  0  0  0
 30 29  1  0  0  0  0
M  END
>  <MODEL>
5

>  <REMARK>
 VINA RESULT:      -8.9      1.203      1.456
  Name = 
  8 active torsions:
  status: ('A' for Active; 'I' for Inactive)
    1  A    between atoms: C_1  and  O_24
    2  A    between atoms: N_3  and  C_22
    3  A    between atoms: C_4  and  C_12
    4  A    between atoms: C_9  and  C_22
    5  A    between atoms: C_9  and  C_23
    6  A    between atoms: C_15  and  N_21
    7  A    between atoms: C_15  and  C_23
    8  A    between atoms: C_19  and  O_24
                            x       y       z     vdW  Elec       q    Type
                         _______ _______ _______ _____ _____    ______ ____

>  <TORSDO>
F 8

$$$$
=
 OpenBabel10272400283D

 31 34  0  0  1  0  0  0  0  0999 V2000
  188.1160  177.5940  143.6090 C   0  0  1  0  0  3  0  0  0  0  0  0
  186.9280  178.5260  143.9360 C   0  0  2  0  0  3  0  0  0  0  0  0
  184.7580  178.6980  145.2000 C   0  0  0  0  0  2  0  0  0  0  0  0
  186.1040  177.9890  145.1190 C   0  0  0  0  0  2  0  0  0  0  0  0
  186.7720  178.5650  141.3770 C   0  0  0  0  0  2  0  0  0  0  0  0
  183.9000  178.3900  143.9680 C   0  0  1  0  0  3  0  0  0  0  0  0
  188.9440  178.0610  142.4770 N   0  0  0  0  0  0  0  0  0  0  0  0
  182.9380  179.5340  143.7220 C   0  0  0  0  0  1  0  0  0  0  0  0
  188.2430  178.9270  141.5160 C   0  0  0  0  0  2  0  0  0  0  0  0
  186.0530  178.8390  142.6900 C   0  0  1  0  0  3  0  0  0  0  0  0
  184.7140  178.1000  142.7010 C   0  0  0  0  0  2  0  0  0  0  0  0
  189.4700  177.3170  147.3060 C   0  0  0  0  0  0  0  0  0  0  0  0
  188.9890  177.3900  144.8120 C   0  0  0  0  0  0  0  0  0  0  0  0
  190.8430  176.9130  147.1350 C   0  0  0  0  0  3  0  0  0  0  0  0
  188.9950  177.4920  148.5620 F   0  0  0  0  0  0  0  0  0  0  0  0
  191.5890  176.5970  144.5210 O   0  0  0  0  0  0  0  0  0  0  0  0
  188.5680  177.5470  146.1780 C   0  0  0  0  0  3  0  0  0  0  0  0
  190.2900  176.9960  144.7540 C   0  0  0  0  0  0  0  0  0  0  0  0
  191.1260  176.7820  145.8060 C   0  0  0  0  0  0  0  0  0  0  0  0
  189.3970  176.8840  141.7440 C   0  0  0  0  0  2  0  0  0  0  0  0
  190.3480  177.2900  140.6290 C   0  0  0  0  0  2  0  0  0  0  0  0
  190.4820  176.1640  139.6230 C   0  0  0  0  0  2  0  0  0  0  0  0
  190.8530  176.4270  136.9720 S   0  0  0  0  0  0  0  0  0  0  0  0
  189.9210  176.5840  138.3130 C   0  0  0  0  0  0  0  0  0  0  0  0
  188.5780  177.0900  138.2700 N   0  0  0  0  0  2  0  0  0  0  0  0
  188.9820  179.3330  137.7090 O   0  0  0  0  0  0  0  0  0  0  0  0
  188.1470  178.4140  137.9130 C   0  0  0  0  0  0  0  0  0  0  0  0
  186.7860  178.7050  137.8030 O   0  0  0  0  0  0  0  0  0  0  0  0
  185.7880  177.6920  137.7690 C   0  0  0  0  0  3  0  0  0  0  0  0
  185.5020  177.2880  136.3360 C   0  0  0  0  0  1  0  0  0  0  0  0
  184.5170  178.2210  138.3970 C   0  0  0  0  0  1  0  0  0  0  0  0
  1  2  1  0  0  0  0
  1 13  1  1  0  0  0
  2  4  1  1  0  0  0
  4  3  1  0  0  0  0
  5  9  1  0  0  0  0
  6  8  1  6  0  0  0
  6  3  1  0  0  0  0
  7  1  1  0  0  0  0
  9  7  1  0  0  0  0
 10  5  1  6  0  0  0
 10 11  1  0  0  0  0
 10  2  1  0  0  0  0
 11  6  1  0  0  0  0
 12 15  1  0  0  0  0
 13 17  1  0  0  0  0
 14 12  1  0  0  0  0
 16 18  1  0  0  0  0
 16 19  1  0  0  0  0
 17 12  2  0  0  0  0
 18 13  2  0  0  0  0
 18 19  1  0  0  0  0
 19 14  2  0  0  0  0
 20  7  1  0  0  0  0
 21 20  1  0  0  0  0
 22 21  1  0  0  0  0
 23 24  2  0  0  0  0
 24 22  1  0  0  0  0
 25 24  1  0  0  0  0
 26 27  2  0  0  0  0
 27 25  1  0  0  0  0
 28 27  1  0  0  0  0
 29 28  1  0  0  0  0
 29 31  1  0  0  0  0
 30 29  1  0  0  0  0
M  END
>  <MODEL>
6

>  <REMARK>
 VINA RESULT:      -8.7      2.410      5.459
  Name = 
  8 active torsions:
  status: ('A' for Active; 'I' for Inactive)
    1  A    between atoms: C_1  and  O_24
    2  A    between atoms: N_3  and  C_22
    3  A    between atoms: C_4  and  C_12
    4  A    between atoms: C_9  and  C_22
    5  A    between atoms: C_9  and  C_23
    6  A    between atoms: C_15  and  N_21
    7  A    between atoms: C_15  and  C_23
    8  A    between atoms: C_19  and  O_24
                            x       y       z     vdW  Elec       q    Type
                         _______ _______ _______ _____ _____    ______ ____

>  <TORSDO>
F 8

$$$$
=
 OpenBabel10272400283D

 31 34  0  0  1  0  0  0  0  0999 V2000
  187.0160  177.7590  143.2200 C   0  0  1  0  0  3  0  0  0  0  0  0
  187.6800  178.2360  144.5320 C   0  0  2  0  0  3  0  0  0  0  0  0
  189.2410  177.5660  146.3880 C   0  0  0  0  0  2  0  0  0  0  0  0
  188.8380  177.3100  144.9420 C   0  0  0  0  0  2  0  0  0  0  0  0
  185.2240  178.6020  145.1730 C   0  0  0  0  0  2  0  0  0  0  0  0
  188.1040  177.2000  147.3480 C   0  0  1  0  0  3  0  0  0  0  0  0
  185.8920  178.6130  142.7780 N   0  0  0  0  0  0  0  0  0  0  0  0
  188.2210  178.0280  148.6120 C   0  0  0  0  0  1  0  0  0  0  0  0
  185.2260  179.3610  143.8550 C   0  0  0  0  0  2  0  0  0  0  0  0
  186.6520  178.4530  145.6780 C   0  0  1  0  0  3  0  0  0  0  0  0
  186.7040  177.3550  146.7410 C   0  0  0  0  0  2  0  0  0  0  0  0
  189.0860  178.3380  139.9100 C   0  0  0  0  0  0  0  0  0  0  0  0
  188.0230  177.6510  142.1140 C   0  0  0  0  0  0  0  0  0  0  0  0
  190.1280  177.3430  139.9840 C   0  0  0  0  0  3  0  0  0  0  0  0
  189.0500  179.1650  138.8400 F   0  0  0  0  0  0  0  0  0  0  0  0
  190.0260  175.7950  142.2380 O   0  0  0  0  0  0  0  0  0  0  0  0
  188.0640  178.4890  140.9460 C   0  0  0  0  0  3  0  0  0  0  0  0
  189.0490  176.7570  142.0990 C   0  0  0  0  0  0  0  0  0  0  0  0
  189.9980  176.6200  141.1340 C   0  0  0  0  0  0  0  0  0  0  0  0
  184.8890  177.7460  142.1720 C   0  0  0  0  0  2  0  0  0  0  0  0
  183.7580  178.5760  141.5860 C   0  0  0  0  0  2  0  0  0  0  0  0
  182.8550  177.7020  140.7390 C   0  0  0  0  0  2  0  0  0  0  0  0
  181.9160  179.3570  138.8360 S   0  0  0  0  0  0  0  0  0  0  0  0
  182.9070  178.1420  139.3210 C   0  0  0  0  0  0  0  0  0  0  0  0
  183.8380  177.5010  138.4350 N   0  0  0  0  0  2  0  0  0  0  0  0
  185.6000  179.0500  138.4720 O   0  0  0  0  0  0  0  0  0  0  0  0
  185.1650  177.9340  138.0890 C   0  0  0  0  0  0  0  0  0  0  0  0
  185.9870  177.1240  137.3050 O   0  0  0  0  0  0  0  0  0  0  0  0
  187.2040  177.5910  136.7380 C   0  0  0  0  0  3  0  0  0  0  0  0
  186.9780  178.0330  135.3050 C   0  0  0  0  0  1  0  0  0  0  0  0
  188.2260  176.4740  136.7550 C   0  0  0  0  0  1  0  0  0  0  0  0
  1 13  1  6  0  0  0
  1  2  1  0  0  0  0
  2  4  1  1  0  0  0
  2 10  1  0  0  0  0
  3  6  1  0  0  0  0
  4  3  1  0  0  0  0
  6  8  1  1  0  0  0
  7  1  1  0  0  0  0
  7  9  1  0  0  0  0
  9  5  1  0  0  0  0
 10  5  1  6  0  0  0
 10 11  1  0  0  0  0
 11  6  1  0  0  0  0
 12 14  2  0  0  0  0
 12 17  1  0  0  0  0
 14 19  1  0  0  0  0
 15 12  1  0  0  0  0
 17 13  2  0  0  0  0
 18 13  1  0  0  0  0
 18 16  1  0  0  0  0
 19 18  2  0  0  0  0
 19 16  1  0  0  0  0
 20  7  1  0  0  0  0
 21 20  1  0  0  0  0
 22 21  1  0  0  0  0
 23 24  2  0  0  0  0
 24 22  1  0  0  0  0
 25 24  1  0  0  0  0
 27 25  1  0  0  0  0
 27 26  2  0  0  0  0
 28 27  1  0  0  0  0
 29 31  1  0  0  0  0
 29 28  1  0  0  0  0
 30 29  1  0  0  0  0
M  END
>  <MODEL>
7

>  <REMARK>
 VINA RESULT:      -8.6      3.448      5.450
  Name = 
  8 active torsions:
  status: ('A' for Active; 'I' for Inactive)
    1  A    between atoms: C_1  and  O_24
    2  A    between atoms: N_3  and  C_22
    3  A    between atoms: C_4  and  C_12
    4  A    between atoms: C_9  and  C_22
    5  A    between atoms: C_9  and  C_23
    6  A    between atoms: C_15  and  N_21
    7  A    between atoms: C_15  and  C_23
    8  A    between atoms: C_19  and  O_24
                            x       y       z     vdW  Elec       q    Type
                         _______ _______ _______ _____ _____    ______ ____

>  <TORSDO>
F 8

$$$$
=
 OpenBabel10272400283D

 31 34  0  0  1  0  0  0  0  0999 V2000
  188.2210  177.8710  143.9100 C   0  0  1  0  0  3  0  0  0  0  0  0
  188.8510  176.9130  144.9470 C   0  0  2  0  0  3  0  0  0  0  0  0
  189.6700  176.7290  147.3190 C   0  0  0  0  0  2  0  0  0  0  0  0
  188.7470  177.4840  146.3720 C   0  0  0  0  0  2  0  0  0  0  0  0
  190.6220  176.7240  143.1020 C   0  0  0  0  0  2  0  0  0  0  0  0
  191.1390  176.9340  146.9340 C   0  0  1  0  0  3  0  0  0  0  0  0
  188.2940  177.3730  142.5200 N   0  0  0  0  0  0  0  0  0  0  0  0
  191.9540  175.7420  147.3920 C   0  0  0  0  0  1  0  0  0  0  0  0
  189.3910  176.4270  142.2590 C   0  0  0  0  0  2  0  0  0  0  0  0
  190.3010  176.4970  144.5730 C   0  0  1  0  0  3  0  0  0  0  0  0
  191.3600  177.1830  145.4370 C   0  0  0  0  0  2  0  0  0  0  0  0
  184.3160  178.4200  143.7410 C   0  0  0  0  0  0  0  0  0  0  0  0
  186.7930  178.1760  144.2540 C   0  0  0  0  0  0  0  0  0  0  0  0
  183.9660  178.7810  145.0930 C   0  0  0  0  0  3  0  0  0  0  0  0
  183.3360  178.3530  142.8110 F   0  0  0  0  0  0  0  0  0  0  0  0
  186.0930  178.8340  146.8130 O   0  0  0  0  0  0  0  0  0  0  0  0
  185.6900  178.1240  143.3340 C   0  0  0  0  0  3  0  0  0  0  0  0
  186.3620  178.5100  145.5010 C   0  0  0  0  0  0  0  0  0  0  0  0
  185.0840  178.7830  145.8760 C   0  0  0  0  0  0  0  0  0  0  0  0
  188.5010  178.5220  141.6470 C   0  0  0  0  0  2  0  0  0  0  0  0
  187.9770  178.2270  140.2510 C   0  0  0  0  0  2  0  0  0  0  0  0
  189.0500  178.5200  139.2200 C   0  0  0  0  0  2  0  0  0  0  0  0
  190.9580  176.6470  138.9180 S   0  0  0  0  0  0  0  0  0  0  0  0
  189.4780  177.2590  138.5600 C   0  0  0  0  0  0  0  0  0  0  0  0
  188.5710  176.6150  137.6530 N   0  0  0  0  0  2  0  0  0  0  0  0
  189.6150  177.0770  135.6020 O   0  0  0  0  0  0  0  0  0  0  0  0
  188.6940  176.4890  136.2260 C   0  0  0  0  0  0  0  0  0  0  0  0
  187.7790  175.7200  135.5060 O   0  0  0  0  0  0  0  0  0  0  0  0
  186.5010  176.2120  135.1230 C   0  0  0  0  0  3  0  0  0  0  0  0
  186.5250  177.7260  135.0460 C   0  0  0  0  0  1  0  0  0  0  0  0
  185.4720  175.7840  136.1470 C   0  0  0  0  0  1  0  0  0  0  0  0
  1 13  1  1  0  0  0
  1  2  1  0  0  0  0
  2  4  1  1  0  0  0
  4  3  1  0  0  0  0
  6  3  1  0  0  0  0
  6  8  1  6  0  0  0
  7  1  1  0  0  0  0
  9  7  1  0  0  0  0
  9  5  1  0  0  0  0
 10  5  1  6  0  0  0
 10  2  1  0  0  0  0
 10 11  1  0  0  0  0
 11  6  1  0  0  0  0
 12 14  1  0  0  0  0
 13 18  2  0  0  0  0
 14 19  2  0  0  0  0
 15 12  1  0  0  0  0
 17 12  2  0  0  0  0
 17 13  1  0  0  0  0
 18 19  1  0  0  0  0
 18 16  1  0  0  0  0
 19 16  1  0  0  0  0
 20  7  1  0  0  0  0
 21 20  1  0  0  0  0
 22 21  1  0  0  0  0
 24 23  2  0  0  0  0
 24 22  1  0  0  0  0
 25 24  1  0  0  0  0
 26 27  2  0  0  0  0
 27 25  1  0  0  0  0
 28 27  1  0  0  0  0
 29 28  1  0  0  0  0
 29 31  1  0  0  0  0
 30 29  1  0  0  0  0
M  END
>  <MODEL>
8

>  <REMARK>
 VINA RESULT:      -8.5      2.312      3.179
  Name = 
  8 active torsions:
  status: ('A' for Active; 'I' for Inactive)
    1  A    between atoms: C_1  and  O_24
    2  A    between atoms: N_3  and  C_22
    3  A    between atoms: C_4  and  C_12
    4  A    between atoms: C_9  and  C_22
    5  A    between atoms: C_9  and  C_23
    6  A    between atoms: C_15  and  N_21
    7  A    between atoms: C_15  and  C_23
    8  A    between atoms: C_19  and  O_24
                            x       y       z     vdW  Elec       q    Type
                         _______ _______ _______ _____ _____    ______ ____

>  <TORSDO>
F 8

$$$$
=
 OpenBabel10272400283D

 31 34  0  0  1  0  0  0  0  0999 V2000
  187.3050  178.0610  143.2060 C   0  0  1  0  0  3  0  0  0  0  0  0
  187.1410  177.4960  144.6350 C   0  0  2  0  0  3  0  0  0  0  0  0
  186.5020  178.0810  146.9970 C   0  0  0  0  0  2  0  0  0  0  0  0
  186.3480  178.4630  145.5310 C   0  0  0  0  0  2  0  0  0  0  0  0
  189.5910  176.8570  144.2330 C   0  0  0  0  0  2  0  0  0  0  0  0
  187.9550  178.2410  147.4580 C   0  0  1  0  0  3  0  0  0  0  0  0
  188.0610  177.1720  142.2980 N   0  0  0  0  0  0  0  0  0  0  0  0
  188.2310  177.2890  148.6030 C   0  0  0  0  0  1  0  0  0  0  0  0
  188.9940  176.2540  142.9710 C   0  0  0  0  0  2  0  0  0  0  0  0
  188.4940  177.0670  145.2670 C   0  0  1  0  0  3  0  0  0  0  0  0
  188.9860  178.0380  146.3410 C   0  0  0  0  0  2  0  0  0  0  0  0
  183.4540  178.7130  142.6400 C   0  0  0  0  0  0  0  0  0  0  0  0
  185.9720  178.3770  142.5940 C   0  0  0  0  0  0  0  0  0  0  0  0
  183.3710  179.0650  141.2440 C   0  0  0  0  0  3  0  0  0  0  0  0
  182.3160  178.6890  143.3730 F   0  0  0  0  0  0  0  0  0  0  0  0
  185.7860  179.0750  139.9580 O   0  0  0  0  0  0  0  0  0  0  0  0
  184.7180  178.3800  143.2970 C   0  0  0  0  0  3  0  0  0  0  0  0
  185.7930  178.7330  141.2930 C   0  0  0  0  0  0  0  0  0  0  0  0
  184.6160  179.0430  140.6860 C   0  0  0  0  0  0  0  0  0  0  0  0
  188.8530  178.0140  141.4100 C   0  0  0  0  0  2  0  0  0  0  0  0
  188.9800  177.3660  140.0410 C   0  0  0  0  0  2  0  0  0  0  0  0
  190.4070  176.9090  139.8110 C   0  0  0  0  0  2  0  0  0  0  0  0
  189.5660  177.0270  137.2580 S   0  0  0  0  0  0  0  0  0  0  0  0
  190.5690  176.4340  138.4120 C   0  0  0  0  0  0  0  0  0  0  0  0
  191.6140  175.4920  138.1230 N   0  0  0  0  0  2  0  0  0  0  0  0
  193.4810  176.9140  138.1070 O   0  0  0  0  0  0  0  0  0  0  0  0
  193.0280  175.7430  138.0410 C   0  0  0  0  0  0  0  0  0  0  0  0
  193.9200  174.6840  137.8710 O   0  0  0  0  0  0  0  0  0  0  0  0
  194.3570  174.2500  136.5890 C   0  0  0  0  0  3  0  0  0  0  0  0
  193.4970  173.0990  136.1050 C   0  0  0  0  0  1  0  0  0  0  0  0
  195.7960  173.7890  136.6800 C   0  0  0  0  0  1  0  0  0  0  0  0
  1 13  1  6  0  0  0
  1  2  1  0  0  0  0
  2 10  1  0  0  0  0
  2  4  1  1  0  0  0
  3  6  1  0  0  0  0
  4  3  1  0  0  0  0
  6  8  1  1  0  0  0
  7  9  1  0  0  0  0
  7  1  1  0  0  0  0
  9  5  1  0  0  0  0
 10  5  1  6  0  0  0
 10 11  1  0  0  0  0
 11  6  1  0  0  0  0
 12 17  1  0  0  0  0
 12 15  1  0  0  0  0
 13 17  2  0  0  0  0
 14 12  2  0  0  0  0
 16 19  1  0  0  0  0
 16 18  1  0  0  0  0
 18 13  1  0  0  0  0
 19 14  1  0  0  0  0
 19 18  2  0  0  0  0
 20  7  1  0  0  0  0
 21 20  1  0  0  0  0
 22 21  1  0  0  0  0
 23 24  2  0  0  0  0
 24 22  1  0  0  0  0
 25 24  1  0  0  0  0
 27 26  2  0  0  0  0
 27 25  1  0  0  0  0
 28 27  1  0  0  0  0
 29 31  1  0  0  0  0
 29 28  1  0  0  0  0
 30 29  1  0  0  0  0
M  END
>  <MODEL>
9

>  <REMARK>
 VINA RESULT:      -8.3      1.908      2.640
  Name = 
  8 active torsions:
  status: ('A' for Active; 'I' for Inactive)
    1  A    between atoms: C_1  and  O_24
    2  A    between atoms: N_3  and  C_22
    3  A    between atoms: C_4  and  C_12
    4  A    between atoms: C_9  and  C_22
    5  A    between atoms: C_9  and  C_23
    6  A    between atoms: C_15  and  N_21
    7  A    between atoms: C_15  and  C_23
    8  A    between atoms: C_19  and  O_24
                            x       y       z     vdW  Elec       q    Type
                         _______ _______ _______ _____ _____    ______ ____

>  <TORSDO>
F 8

$$$$
