=
 OpenBabel10272401513D

 28 32  0  0  1  0  0  0  0  0999 V2000
  187.2610  177.6590  144.9930 C   0  0  1  0  0  0  0  0  0  0  0  0
  185.4860  179.5010  147.5210 O   0  0  0  0  0  0  0  0  0  0  0  0
  184.3040  178.4100  142.6540 C   0  0  0  0  0  0  0  0  0  0  0  0
  185.2330  178.8630  145.2270 C   0  0  0  0  0  0  0  0  0  0  0  0
  185.5480  177.8830  143.0540 C   0  0  0  0  0  3  0  0  0  0  0  0
  187.2710  178.2620  146.4070 C   0  0  1  0  0  3  0  0  0  0  0  0
  183.9950  179.3970  144.8680 C   0  0  0  0  0  3  0  0  0  0  0  0
  185.9320  178.9340  146.4890 C   0  0  0  0  0  0  0  0  0  0  0  0
  183.5350  179.1650  143.5620 C   0  0  0  0  0  3  0  0  0  0  0  0
  187.1390  176.7560  146.2040 C   0  0  0  0  0  2  0  0  0  0  0  0
  185.9910  178.1310  144.3520 C   0  0  0  0  0  0  0  0  0  0  0  0
  182.2860  178.3390  141.2570 C   0  0  0  0  0  3  0  0  0  0  0  0
  183.9410  179.0040  138.8180 C   0  0  0  0  0  2  0  0  0  0  0  0
  181.9560  177.5330  138.9150 C   0  0  0  0  0  0  0  0  0  0  0  0
  183.7820  178.1860  141.2670 C   0  0  1  0  0  3  0  0  0  0  0  0
  186.2450  178.6420  140.1690 Cl  0  0  0  0  0  0  0  0  0  0  0  0
  183.3850  177.6270  138.4780 C   0  0  0  0  0  2  0  0  0  0  0  0
  184.5140  179.0720  140.2370 C   0  0  1  0  0  3  0  0  0  0  0  0
  181.1120  177.0470  138.1180 O   0  0  0  0  0  0  0  0  0  0  0  0
  181.4940  178.0150  140.2310 C   0  0  0  0  0  3  0  0  0  0  0  0
  188.6180  177.7530  144.2920 C   0  0  1  0  0  3  0  0  0  0  0  0
  189.6740  178.1700  145.2860 C   0  0  0  0  0  3  0  0  0  0  0  0
  190.4060  176.1300  143.4970 N   0  0  0  0  0  0  0  0  0  0  0  0
  190.9680  177.8660  145.1110 C   0  0  0  0  0  3  0  0  0  0  0  0
  188.1480  175.7460  143.0370 O   0  0  0  0  0  0  0  0  0  0  0  0
  189.0170  176.4750  143.5900 C   0  0  0  0  0  0  0  0  0  0  0  0
  190.7850  175.0050  142.8450 O   0  0  0  0  0  1  0  0  0  0  0  0
  191.4230  177.0960  143.9030 C   0  0  0  0  0  2  0  0  0  0  0  0
  1 10  1  1  0  0  0
  1  6  1  0  0  0  0
  3  5  2  0  0  0  0
  3  9  1  0  0  0  0
  4  8  1  0  0  0  0
  5 11  1  0  0  0  0
  6 10  1  1  0  0  0
  6  8  1  0  0  0  0
  7  4  1  0  0  0  0
  8  2  2  0  0  0  0
  9  7  2  0  0  0  0
 11  1  1  0  0  0  0
 11  4  2  0  0  0  0
 12 15  1  0  0  0  0
 13 18  1  0  0  0  0
 14 20  1  0  0  0  0
 15  3  1  1  0  0  0
 17 13  1  0  0  0  0
 17 14  1  0  0  0  0
 18 16  1  6  0  0  0
 18 15  1  0  0  0  0
 19 14  2  0  0  0  0
 20 12  2  0  0  0  0
 21  1  1  0  0  0  0
 21 22  1  1  0  0  0
 23 26  1  0  0  0  0
 23 28  1  0  0  0  0
 24 22  2  0  0  0  0
 25 26  2  0  0  0  0
 26 21  1  0  0  0  0
 27 23  1  0  0  0  0
 28 24  1  0  0  0  0
M  END
>  <MODEL>
1

>  <REMARK>
 VINA RESULT:     -10.3      0.000      0.000
  Name = 
  2 active torsions:
  status: ('A' for Active; 'I' for Inactive)
    1  A    between atoms: C_1  and  C_2
    2  A    between atoms: C_10  and  C_13
                            x       y       z     vdW  Elec       q    Type
                         _______ _______ _______ _____ _____    ______ ____

>  <TORSDO>
F 2

$$$$
=
 OpenBabel10272401513D

 28 32  0  0  1  0  0  0  0  0999 V2000
  189.1510  177.6480  139.6360 C   0  0  1  0  0  0  0  0  0  0  0  0
  185.7400  178.7230  139.2590 O   0  0  0  0  0  0  0  0  0  0  0  0
  188.5030  177.5920  143.4260 C   0  0  0  0  0  0  0  0  0  0  0  0
  187.2640  178.1030  140.9970 C   0  0  0  0  0  0  0  0  0  0  0  0
  189.2280  177.4540  142.2250 C   0  0  0  0  0  3  0  0  0  0  0  0
  187.9910  177.9740  138.6820 C   0  0  1  0  0  3  0  0  0  0  0  0
  186.5170  178.2540  142.1650 C   0  0  0  0  0  3  0  0  0  0  0  0
  186.8740  178.3170  139.6230 C   0  0  0  0  0  0  0  0  0  0  0  0
  187.1520  177.9900  143.3890 C   0  0  0  0  0  3  0  0  0  0  0  0
  189.1710  178.9290  138.8270 C   0  0  0  0  0  2  0  0  0  0  0  0
  188.5770  177.7130  141.0200 C   0  0  0  0  0  0  0  0  0  0  0  0
  190.6100  177.6570  144.6840 C   0  0  0  0  0  3  0  0  0  0  0  0
  189.0670  177.8860  147.2720 C   0  0  0  0  0  2  0  0  0  0  0  0
  191.2040  176.6970  146.9120 C   0  0  0  0  0  0  0  0  0  0  0  0
  189.1470  177.3150  144.7500 C   0  0  1  0  0  3  0  0  0  0  0  0
  186.7330  177.3520  146.0340 Cl  0  0  0  0  0  0  0  0  0  0  0  0
  189.8100  176.5670  147.4420 C   0  0  0  0  0  2  0  0  0  0  0  0
  188.3880  178.0060  145.9030 C   0  0  1  0  0  3  0  0  0  0  0  0
  192.1570  176.2550  147.6060 O   0  0  0  0  0  0  0  0  0  0  0  0
  191.5080  177.3490  145.6240 C   0  0  0  0  0  3  0  0  0  0  0  0
  190.0090  176.4750  139.1570 C   0  0  1  0  0  3  0  0  0  0  0  0
  189.6090  176.0940  137.7530 C   0  0  0  0  0  3  0  0  0  0  0  0
  192.3700  176.1490  138.2740 N   0  0  0  0  0  0  0  0  0  0  0  0
  190.4590  175.4800  136.9190 C   0  0  0  0  0  3  0  0  0  0  0  0
  191.9690  177.4490  140.1730 O   0  0  0  0  0  0  0  0  0  0  0  0
  191.4930  176.7490  139.2370 C   0  0  0  0  0  0  0  0  0  0  0  0
  193.7060  176.3580  138.3470 O   0  0  0  0  0  1  0  0  0  0  0  0
  191.8560  175.1360  137.3550 C   0  0  0  0  0  2  0  0  0  0  0  0
  1 10  1  6  0  0  0
  1 11  1  0  0  0  0
  2  8  2  0  0  0  0
  4 11  2  0  0  0  0
  4  7  1  0  0  0  0
  5  3  2  0  0  0  0
  6 10  1  6  0  0  0
  6  8  1  0  0  0  0
  6  1  1  0  0  0  0
  7  9  2  0  0  0  0
  8  4  1  0  0  0  0
  9  3  1  0  0  0  0
 11  5  1  0  0  0  0
 12 15  1  0  0  0  0
 12 20  2  0  0  0  0
 13 17  1  0  0  0  0
 14 17  1  0  0  0  0
 14 19  2  0  0  0  0
 15  3  1  6  0  0  0
 15 18  1  0  0  0  0
 18 16  1  1  0  0  0
 18 13  1  0  0  0  0
 20 14  1  0  0  0  0
 21 22  1  6  0  0  0
 21 26  1  0  0  0  0
 21  1  1  0  0  0  0
 23 27  1  0  0  0  0
 23 26  1  0  0  0  0
 24 28  1  0  0  0  0
 24 22  2  0  0  0  0
 26 25  2  0  0  0  0
 28 23  1  0  0  0  0
M  END
>  <MODEL>
2

>  <REMARK>
 VINA RESULT:      -9.6      3.971      7.611
  Name = 
  2 active torsions:
  status: ('A' for Active; 'I' for Inactive)
    1  A    between atoms: C_1  and  C_2
    2  A    between atoms: C_10  and  C_13
                            x       y       z     vdW  Elec       q    Type
                         _______ _______ _______ _____ _____    ______ ____

>  <TORSDO>
F 2

$$$$
=
 OpenBabel10272401513D

 28 32  0  0  1  0  0  0  0  0999 V2000
  188.5250  177.5720  145.3830 C   0  0  1  0  0  0  0  0  0  0  0  0
  187.8510  178.5250  148.7840 O   0  0  0  0  0  0  0  0  0  0  0  0
  184.8440  178.3930  144.6340 C   0  0  0  0  0  0  0  0  0  0  0  0
  186.7170  178.3870  146.6800 C   0  0  0  0  0  0  0  0  0  0  0  0
  186.1650  177.9750  144.3760 C   0  0  0  0  0  3  0  0  0  0  0  0
  189.0820  177.8380  146.7900 C   0  0  1  0  0  3  0  0  0  0  0  0
  185.4190  178.8030  146.9740 C   0  0  0  0  0  3  0  0  0  0  0  0
  187.8640  178.2740  147.5500 C   0  0  0  0  0  0  0  0  0  0  0  0
  184.4790  178.8060  145.9310 C   0  0  0  0  0  3  0  0  0  0  0  0
  188.9430  176.4130  146.2650 C   0  0  0  0  0  2  0  0  0  0  0  0
  187.0850  177.9870  145.4230 C   0  0  0  0  0  0  0  0  0  0  0  0
  182.5250  178.9710  144.0770 C   0  0  0  0  0  3  0  0  0  0  0  0
  183.2980  179.3130  141.1760 C   0  0  0  0  0  2  0  0  0  0  0  0
  181.1570  178.4420  142.0540 C   0  0  0  0  0  0  0  0  0  0  0  0
  183.8160  178.4120  143.5450 C   0  0  1  0  0  3  0  0  0  0  0  0
  185.7350  178.2440  141.6040 Cl  0  0  0  0  0  0  0  0  0  0  0  0
  182.2950  178.1670  141.1210 C   0  0  0  0  0  2  0  0  0  0  0  0
  184.3410  179.1280  142.2830 C   0  0  1  0  0  3  0  0  0  0  0  0
  179.9820  178.2600  141.6420 O   0  0  0  0  0  0  0  0  0  0  0  0
  181.3580  178.9450  143.4270 C   0  0  0  0  0  3  0  0  0  0  0  0
  189.4760  178.0150  144.2690 C   0  0  1  0  0  3  0  0  0  0  0  0
  190.8730  178.1580  144.8210 C   0  0  0  0  0  3  0  0  0  0  0  0
  190.6660  176.9210  142.3070 N   0  0  0  0  0  0  0  0  0  0  0  0
  191.9570  178.0440  144.0410 C   0  0  0  0  0  3  0  0  0  0  0  0
  188.3990  176.5230  142.7070 O   0  0  0  0  0  0  0  0  0  0  0  0
  189.4650  177.0920  143.0710 C   0  0  0  0  0  0  0  0  0  0  0  0
  190.6670  176.1220  141.2130 O   0  0  0  0  0  1  0  0  0  0  0  0
  191.8220  177.7740  142.5680 C   0  0  0  0  0  2  0  0  0  0  0  0
  1 11  1  0  0  0  0
  1 10  1  6  0  0  0
  1  6  1  0  0  0  0
  3  9  1  0  0  0  0
  4  7  1  0  0  0  0
  4  8  1  0  0  0  0
  5  3  2  0  0  0  0
  5 11  1  0  0  0  0
  6 10  1  1  0  0  0
  6  8  1  0  0  0  0
  8  2  2  0  0  0  0
  9  7  2  0  0  0  0
 11  4  2  0  0  0  0
 13 18  1  0  0  0  0
 14 20  1  0  0  0  0
 15 12  1  0  0  0  0
 15  3  1  1  0  0  0
 17 13  1  0  0  0  0
 17 14  1  0  0  0  0
 18 16  1  6  0  0  0
 18 15  1  0  0  0  0
 19 14  2  0  0  0  0
 20 12  2  0  0  0  0
 21 22  1  1  0  0  0
 21  1  1  0  0  0  0
 23 28  1  0  0  0  0
 23 26  1  0  0  0  0
 24 22  2  0  0  0  0
 25 26  2  0  0  0  0
 26 21  1  0  0  0  0
 27 23  1  0  0  0  0
 28 24  1  0  0  0  0
M  END
>  <MODEL>
3

>  <REMARK>
 VINA RESULT:      -9.6      1.597      2.204
  Name = 
  2 active torsions:
  status: ('A' for Active; 'I' for Inactive)
    1  A    between atoms: C_1  and  C_2
    2  A    between atoms: C_10  and  C_13
                            x       y       z     vdW  Elec       q    Type
                         _______ _______ _______ _____ _____    ______ ____

>  <TORSDO>
F 2

$$$$
=
 OpenBabel10272401513D

 28 32  0  0  1  0  0  0  0  0999 V2000
  183.5130  178.6270  140.1550 C   0  0  1  0  0  0  0  0  0  0  0  0
  180.3810  179.2170  141.8210 O   0  0  0  0  0  0  0  0  0  0  0  0
  185.1020  178.4150  143.6500 C   0  0  0  0  0  0  0  0  0  0  0  0
  182.6730  178.7880  142.3660 C   0  0  0  0  0  0  0  0  0  0  0  0
  185.0430  178.4010  142.2420 C   0  0  0  0  0  3  0  0  0  0  0  0
  181.9920  178.8030  140.0330 C   0  0  1  0  0  3  0  0  0  0  0  0
  182.6940  178.8120  143.7600 C   0  0  0  0  0  3  0  0  0  0  0  0
  181.5620  178.9690  141.4610 C   0  0  0  0  0  0  0  0  0  0  0  0
  183.9270  178.6190  144.4010 C   0  0  0  0  0  3  0  0  0  0  0  0
  182.9410  179.9130  139.5920 C   0  0  0  0  0  2  0  0  0  0  0  0
  183.8070  178.5870  141.6250 C   0  0  0  0  0  0  0  0  0  0  0  0
  186.1340  177.7500  145.7760 C   0  0  0  0  0  3  0  0  0  0  0  0
  188.6390  176.9130  144.3080 C   0  0  0  0  0  2  0  0  0  0  0  0
  188.5000  177.9230  146.5600 C   0  0  0  0  0  0  0  0  0  0  0  0
  186.4010  178.2090  144.3690 C   0  0  1  0  0  3  0  0  0  0  0  0
  187.7820  178.0400  142.0140 Cl  0  0  0  0  0  0  0  0  0  0  0  0
  189.1410  178.0330  145.2110 C   0  0  0  0  0  2  0  0  0  0  0  0
  187.3480  177.2860  143.5720 C   0  0  1  0  0  3  0  0  0  0  0  0
  189.2250  178.0320  147.5830 O   0  0  0  0  0  0  0  0  0  0  0  0
  187.0580  177.6630  146.7370 C   0  0  0  0  0  3  0  0  0  0  0  0
  184.0780  177.5950  139.1770 C   0  0  1  0  0  3  0  0  0  0  0  0
  183.0160  177.2110  138.1760 C   0  0  0  0  0  3  0  0  0  0  0  0
  185.5960  177.6160  137.1370 N   0  0  0  0  0  0  0  0  0  0  0  0
  183.3280  176.7430  136.9600 C   0  0  0  0  0  3  0  0  0  0  0  0
  186.1740  178.7880  139.0730 O   0  0  0  0  0  0  0  0  0  0  0  0
  185.3330  178.0630  138.4750 C   0  0  0  0  0  0  0  0  0  0  0  0
  186.7300  177.9990  136.5030 O   0  0  0  0  0  1  0  0  0  0  0  0
  184.7620  176.5750  136.5420 C   0  0  0  0  0  2  0  0  0  0  0  0
  1 10  1  6  0  0  0
  1 11  1  0  0  0  0
  3  9  1  0  0  0  0
  4  7  1  0  0  0  0
  5  3  2  0  0  0  0
  6 10  1  6  0  0  0
  6  1  1  0  0  0  0
  6  8  1  0  0  0  0
  7  9  2  0  0  0  0
  8  2  2  0  0  0  0
  8  4  1  0  0  0  0
 11  5  1  0  0  0  0
 11  4  2  0  0  0  0
 12 20  2  0  0  0  0
 13 17  1  0  0  0  0
 14 20  1  0  0  0  0
 14 19  2  0  0  0  0
 15  3  1  6  0  0  0
 15 12  1  0  0  0  0
 17 14  1  0  0  0  0
 18 16  1  6  0  0  0
 18 13  1  0  0  0  0
 18 15  1  0  0  0  0
 21 22  1  6  0  0  0
 21  1  1  0  0  0  0
 23 26  1  0  0  0  0
 24 22  2  0  0  0  0
 26 25  2  0  0  0  0
 26 21  1  0  0  0  0
 27 23  1  0  0  0  0
 28 24  1  0  0  0  0
 28 23  1  0  0  0  0
M  END
>  <MODEL>
4

>  <REMARK>
 VINA RESULT:      -9.2      2.693      7.154
  Name = 
  2 active torsions:
  status: ('A' for Active; 'I' for Inactive)
    1  A    between atoms: C_1  and  C_2
    2  A    between atoms: C_10  and  C_13
                            x       y       z     vdW  Elec       q    Type
                         _______ _______ _______ _____ _____    ______ ____

>  <TORSDO>
F 2

$$$$
=
 OpenBabel10272401513D

 28 32  0  0  1  0  0  0  0  0999 V2000
  189.0410  177.7020  139.0280 C   0  0  1  0  0  0  0  0  0  0  0  0
  185.7860  178.7220  137.8900 O   0  0  0  0  0  0  0  0  0  0  0  0
  187.6820  178.0620  142.6070 C   0  0  0  0  0  0  0  0  0  0  0  0
  186.9390  178.3000  139.9460 C   0  0  0  0  0  0  0  0  0  0  0  0
  188.6200  177.7940  141.5900 C   0  0  0  0  0  3  0  0  0  0  0  0
  188.0920  177.9190  137.8400 C   0  0  1  0  0  3  0  0  0  0  0  0
  185.9860  178.5770  140.9250 C   0  0  0  0  0  3  0  0  0  0  0  0
  186.8230  178.3610  138.5070 C   0  0  0  0  0  0  0  0  0  0  0  0
  186.3700  178.4510  142.2690 C   0  0  0  0  0  3  0  0  0  0  0  0
  189.2400  178.8870  138.1040 C   0  0  0  0  0  2  0  0  0  0  0  0
  188.2160  177.9180  140.2610 C   0  0  0  0  0  0  0  0  0  0  0  0
  186.9040  177.3510  144.8240 C   0  0  0  0  0  3  0  0  0  0  0  0
  189.7620  176.8750  145.6830 C   0  0  0  0  0  2  0  0  0  0  0  0
  187.9020  177.7000  147.0870 C   0  0  0  0  0  0  0  0  0  0  0  0
  188.0560  177.9340  144.0520 C   0  0  1  0  0  3  0  0  0  0  0  0
  190.7240  178.0730  143.4690 Cl  0  0  0  0  0  0  0  0  0  0  0  0
  189.3050  177.9700  146.6380 C   0  0  0  0  0  2  0  0  0  0  0  0
  189.3850  177.1700  144.2270 C   0  0  1  0  0  3  0  0  0  0  0  0
  187.6300  177.8060  148.3120 O   0  0  0  0  0  0  0  0  0  0  0  0
  186.8340  177.2870  146.1570 C   0  0  0  0  0  3  0  0  0  0  0  0
  189.9530  176.4850  138.8530 C   0  0  1  0  0  3  0  0  0  0  0  0
  189.7890  175.9250  137.4620 C   0  0  0  0  0  3  0  0  0  0  0  0
  192.4240  176.0700  138.4260 N   0  0  0  0  0  0  0  0  0  0  0  0
  190.7580  175.2170  136.8670 C   0  0  0  0  0  3  0  0  0  0  0  0
  191.7280  177.5990  140.0500 O   0  0  0  0  0  0  0  0  0  0  0  0
  191.4060  176.7810  139.1450 C   0  0  0  0  0  0  0  0  0  0  0  0
  193.7320  176.2990  138.6950 O   0  0  0  0  0  1  0  0  0  0  0  0
  192.0580  174.9440  137.5710 C   0  0  0  0  0  2  0  0  0  0  0  0
  1 10  1  6  0  0  0
  1 11  1  0  0  0  0
  2  8  2  0  0  0  0
  4 11  2  0  0  0  0
  4  7  1  0  0  0  0
  5  3  2  0  0  0  0
  6 10  1  6  0  0  0
  6  8  1  0  0  0  0
  6  1  1  0  0  0  0
  7  9  2  0  0  0  0
  8  4  1  0  0  0  0
  9  3  1  0  0  0  0
 11  5  1  0  0  0  0
 12 20  2  0  0  0  0
 13 17  1  0  0  0  0
 14 19  2  0  0  0  0
 15  3  1  6  0  0  0
 15 18  1  0  0  0  0
 15 12  1  0  0  0  0
 17 14  1  0  0  0  0
 18 16  1  1  0  0  0
 18 13  1  0  0  0  0
 20 14  1  0  0  0  0
 21 22  1  6  0  0  0
 21  1  1  0  0  0  0
 21 26  1  0  0  0  0
 23 27  1  0  0  0  0
 23 26  1  0  0  0  0
 24 22  2  0  0  0  0
 24 28  1  0  0  0  0
 26 25  2  0  0  0  0
 28 23  1  0  0  0  0
M  END
>  <MODEL>
5

>  <REMARK>
 VINA RESULT:      -9.0      3.943      7.111
  Name = 
  2 active torsions:
  status: ('A' for Active; 'I' for Inactive)
    1  A    between atoms: C_1  and  C_2
    2  A    between atoms: C_10  and  C_13
                            x       y       z     vdW  Elec       q    Type
                         _______ _______ _______ _____ _____    ______ ____

>  <TORSDO>
F 2

$$$$
=
 OpenBabel10272401513D

 28 32  0  0  1  0  0  0  0  0999 V2000
  186.7960  177.8530  145.4520 C   0  0  1  0  0  0  0  0  0  0  0  0
  183.5850  179.2480  144.6300 O   0  0  0  0  0  0  0  0  0  0  0  0
  187.5610  177.9100  141.6840 C   0  0  0  0  0  0  0  0  0  0  0  0
  185.6010  178.5660  143.5330 C   0  0  0  0  0  0  0  0  0  0  0  0
  187.7850  177.6790  143.0560 C   0  0  0  0  0  3  0  0  0  0  0  0
  185.4710  178.4440  145.9570 C   0  0  1  0  0  3  0  0  0  0  0  0
  185.3430  178.8040  142.1830 C   0  0  0  0  0  3  0  0  0  0  0  0
  184.7590  178.7960  144.6840 C   0  0  0  0  0  0  0  0  0  0  0  0
  186.3420  178.4720  141.2550 C   0  0  0  0  0  3  0  0  0  0  0  0
  185.7450  176.9480  146.0600 C   0  0  0  0  0  2  0  0  0  0  0  0
  186.7830  178.0240  143.9620 C   0  0  0  0  0  0  0  0  0  0  0  0
  188.5130  178.5250  139.5070 C   0  0  0  0  0  3  0  0  0  0  0  0
  191.1520  177.2840  140.3000 C   0  0  0  0  0  2  0  0  0  0  0  0
  190.1410  177.3210  138.0440 C   0  0  0  0  0  0  0  0  0  0  0  0
  188.6070  177.5710  140.6650 C   0  0  1  0  0  3  0  0  0  0  0  0
  190.0690  176.1650  142.5000 Cl  0  0  0  0  0  0  0  0  0  0  0  0
  190.7340  176.4420  139.1010 C   0  0  0  0  0  2  0  0  0  0  0  0
  190.0100  177.4870  141.3020 C   0  0  1  0  0  3  0  0  0  0  0  0
  190.5100  177.1620  136.8510 O   0  0  0  0  0  0  0  0  0  0  0  0
  189.1650  178.3840  138.3490 C   0  0  0  0  0  3  0  0  0  0  0  0
  187.9970  178.2510  146.3130 C   0  0  1  0  0  3  0  0  0  0  0  0
  187.5390  178.5300  147.7230 C   0  0  0  0  0  3  0  0  0  0  0  0
  189.9190  177.0580  147.4720 N   0  0  0  0  0  0  0  0  0  0  0  0
  188.3670  178.4130  148.7710 C   0  0  0  0  0  3  0  0  0  0  0  0
  189.3580  176.5590  145.2600 O   0  0  0  0  0  0  0  0  0  0  0  0
  189.1060  177.2240  146.3020 C   0  0  0  0  0  0  0  0  0  0  0  0
  190.9370  176.1640  147.4710 O   0  0  0  0  0  1  0  0  0  0  0  0
  189.8000  178.0020  148.5800 C   0  0  0  0  0  2  0  0  0  0  0  0
  1  6  1  0  0  0  0
  1 10  1  1  0  0  0
  1 21  1  0  0  0  0
  2  8  2  0  0  0  0
  3  5  1  0  0  0  0
  4 11  1  0  0  0  0
  4  8  1  0  0  0  0
  5 11  2  0  0  0  0
  6 10  1  6  0  0  0
  7  4  2  0  0  0  0
  8  6  1  0  0  0  0
  9  3  2  0  0  0  0
  9  7  1  0  0  0  0
 11  1  1  0  0  0  0
 12 15  1  0  0  0  0
 13 18  1  0  0  0  0
 14 20  1  0  0  0  0
 14 17  1  0  0  0  0
 15 18  1  0  0  0  0
 15  3  1  1  0  0  0
 17 13  1  0  0  0  0
 18 16  1  1  0  0  0
 19 14  2  0  0  0  0
 20 12  2  0  0  0  0
 21 22  1  1  0  0  0
 22 24  2  0  0  0  0
 23 28  1  0  0  0  0
 25 26  2  0  0  0  0
 26 21  1  0  0  0  0
 26 23  1  0  0  0  0
 27 23  1  0  0  0  0
 28 24  1  0  0  0  0
M  END
>  <MODEL>
6

>  <REMARK>
 VINA RESULT:      -8.9      3.249      4.786
  Name = 
  2 active torsions:
  status: ('A' for Active; 'I' for Inactive)
    1  A    between atoms: C_1  and  C_2
    2  A    between atoms: C_10  and  C_13
                            x       y       z     vdW  Elec       q    Type
                         _______ _______ _______ _____ _____    ______ ____

>  <TORSDO>
F 2

$$$$
=
 OpenBabel10272401513D

 28 32  0  0  1  0  0  0  0  0999 V2000
  190.4240  175.8890  137.8190 C   0  0  1  0  0  0  0  0  0  0  0  0
  193.8670  176.8900  137.5360 O   0  0  0  0  0  0  0  0  0  0  0  0
  190.5640  177.1520  141.4480 C   0  0  0  0  0  0  0  0  0  0  0  0
  192.1000  176.9050  139.1520 C   0  0  0  0  0  0  0  0  0  0  0  0
  190.0050  176.5800  140.2880 C   0  0  0  0  0  3  0  0  0  0  0  0
  191.6510  176.0750  136.9120 C   0  0  1  0  0  3  0  0  0  0  0  0
  192.6870  177.4730  140.2830 C   0  0  0  0  0  3  0  0  0  0  0  0
  192.6710  176.6490  137.8510 C   0  0  0  0  0  0  0  0  0  0  0  0
  191.9010  177.5960  141.4390 C   0  0  0  0  0  3  0  0  0  0  0  0
  191.2050  174.6810  137.3410 C   0  0  0  0  0  2  0  0  0  0  0  0
  190.8000  176.4740  139.1470 C   0  0  0  0  0  0  0  0  0  0  0  0
  188.5810  176.3620  142.6600 C   0  0  0  0  0  3  0  0  0  0  0  0
  189.8510  177.1680  145.2810 C   0  0  0  0  0  2  0  0  0  0  0  0
  187.4510  177.2670  144.6960 C   0  0  0  0  0  0  0  0  0  0  0  0
  189.7530  177.3030  142.6990 C   0  0  1  0  0  3  0  0  0  0  0  0
  191.8410  178.4770  144.0190 Cl  0  0  0  0  0  0  0  0  0  0  0  0
  188.6110  178.0520  145.2250 C   0  0  0  0  0  2  0  0  0  0  0  0
  190.6310  177.1670  143.9610 C   0  0  1  0  0  3  0  0  0  0  0  0
  186.3460  177.3480  145.2930 O   0  0  0  0  0  0  0  0  0  0  0  0
  187.5600  176.3800  143.5220 C   0  0  0  0  0  3  0  0  0  0  0  0
  189.1050  176.2230  137.1190 C   0  0  1  0  0  3  0  0  0  0  0  0
  188.1000  175.1280  137.3830 C   0  0  0  0  0  3  0  0  0  0  0  0
  187.1240  177.7580  137.5400 N   0  0  0  0  0  0  0  0  0  0  0  0
  186.7800  175.3560  137.3360 C   0  0  0  0  0  3  0  0  0  0  0  0
  189.3140  178.5420  137.7540 O   0  0  0  0  0  0  0  0  0  0  0  0
  188.5450  177.5710  137.5110 C   0  0  0  0  0  0  0  0  0  0  0  0
  186.6040  178.9680  137.8590 O   0  0  0  0  0  1  0  0  0  0  0  0
  186.2430  176.7210  137.0100 C   0  0  0  0  0  2  0  0  0  0  0  0
  1 10  1  1  0  0  0
  1 11  1  0  0  0  0
  2  8  2  0  0  0  0
  4  7  1  0  0  0  0
  5  3  2  0  0  0  0
  6 10  1  1  0  0  0
  6  1  1  0  0  0  0
  6  8  1  0  0  0  0
  7  9  2  0  0  0  0
  8  4  1  0  0  0  0
  9  3  1  0  0  0  0
 11  4  2  0  0  0  0
 11  5  1  0  0  0  0
 12 15  1  0  0  0  0
 12 20  2  0  0  0  0
 14 17  1  0  0  0  0
 14 19  2  0  0  0  0
 15  3  1  6  0  0  0
 15 18  1  0  0  0  0
 17 13  1  0  0  0  0
 18 16  1  1  0  0  0
 18 13  1  0  0  0  0
 20 14  1  0  0  0  0
 21 22  1  1  0  0  0
 21 26  1  0  0  0  0
 21  1  1  0  0  0  0
 23 27  1  0  0  0  0
 24 22  2  0  0  0  0
 26 23  1  0  0  0  0
 26 25  2  0  0  0  0
 28 24  1  0  0  0  0
 28 23  1  0  0  0  0
M  END
>  <MODEL>
7

>  <REMARK>
 VINA RESULT:      -8.8      4.641      8.388
  Name = 
  2 active torsions:
  status: ('A' for Active; 'I' for Inactive)
    1  A    between atoms: C_1  and  C_2
    2  A    between atoms: C_10  and  C_13
                            x       y       z     vdW  Elec       q    Type
                         _______ _______ _______ _____ _____    ______ ____

>  <TORSDO>
F 2

$$$$
=
 OpenBabel10272401513D

 28 32  0  0  1  0  0  0  0  0999 V2000
  187.4700  177.5720  144.7420 C   0  0  1  0  0  0  0  0  0  0  0  0
  184.4220  179.1160  145.8630 O   0  0  0  0  0  0  0  0  0  0  0  0
  186.4460  178.6000  141.1810 C   0  0  0  0  0  0  0  0  0  0  0  0
  185.6270  178.7480  143.8270 C   0  0  0  0  0  0  0  0  0  0  0  0
  187.2390  178.0250  142.1950 C   0  0  0  0  0  3  0  0  0  0  0  0
  186.5960  178.0060  145.9290 C   0  0  1  0  0  3  0  0  0  0  0  0
  184.8160  179.3250  142.8510 C   0  0  0  0  0  3  0  0  0  0  0  0
  185.4310  178.6700  145.2560 C   0  0  0  0  0  0  0  0  0  0  0  0
  185.2400  179.2480  141.5150 C   0  0  0  0  0  3  0  0  0  0  0  0
  186.7110  176.5350  145.5450 C   0  0  0  0  0  2  0  0  0  0  0  0
  186.8040  178.1200  143.5160 C   0  0  0  0  0  0  0  0  0  0  0  0
  188.1370  177.7400  139.6240 C   0  0  0  0  0  3  0  0  0  0  0  0
  186.1200  177.8250  137.3750 C   0  0  0  0  0  2  0  0  0  0  0  0
  188.5480  178.2650  137.2160 C   0  0  0  0  0  0  0  0  0  0  0  0
  186.8690  178.5400  139.7450 C   0  0  1  0  0  3  0  0  0  0  0  0
  184.3590  179.1990  138.8830 Cl  0  0  0  0  0  0  0  0  0  0  0  0
  187.1870  178.8060  136.9040 C   0  0  0  0  0  2  0  0  0  0  0  0
  185.7220  178.0480  138.8380 C   0  0  1  0  0  3  0  0  0  0  0  0
  189.4340  178.3100  136.3230 O   0  0  0  0  0  0  0  0  0  0  0  0
  188.8830  177.6570  138.5180 C   0  0  0  0  0  3  0  0  0  0  0  0
  188.9680  177.7400  145.0070 C   0  0  1  0  0  3  0  0  0  0  0  0
  189.2420  177.5860  146.4830 C   0  0  0  0  0  3  0  0  0  0  0  0
  191.0620  176.3220  144.7550 N   0  0  0  0  0  0  0  0  0  0  0  0
  190.4400  177.1970  146.9410 C   0  0  0  0  0  3  0  0  0  0  0  0
  189.4970  176.4660  143.0270 O   0  0  0  0  0  0  0  0  0  0  0  0
  189.8270  176.7940  144.2000 C   0  0  0  0  0  0  0  0  0  0  0  0
  191.8610  175.4980  144.0350 O   0  0  0  0  0  1  0  0  0  0  0  0
  191.5700  176.9020  145.9960 C   0  0  0  0  0  2  0  0  0  0  0  0
  1 21  1  0  0  0  0
  1 10  1  6  0  0  0
  1  6  1  0  0  0  0
  3  9  2  0  0  0  0
  3  5  1  0  0  0  0
  4  8  1  0  0  0  0
  5 11  2  0  0  0  0
  6 10  1  6  0  0  0
  7  4  2  0  0  0  0
  8  2  2  0  0  0  0
  8  6  1  0  0  0  0
  9  7  1  0  0  0  0
 11  4  1  0  0  0  0
 11  1  1  0  0  0  0
 12 15  1  0  0  0  0
 13 18  1  0  0  0  0
 14 20  1  0  0  0  0
 15  3  1  1  0  0  0
 17 14  1  0  0  0  0
 17 13  1  0  0  0  0
 18 16  1  6  0  0  0
 18 15  1  0  0  0  0
 19 14  2  0  0  0  0
 20 12  2  0  0  0  0
 21 22  1  1  0  0  0
 22 24  2  0  0  0  0
 23 28  1  0  0  0  0
 25 26  2  0  0  0  0
 26 23  1  0  0  0  0
 26 21  1  0  0  0  0
 27 23  1  0  0  0  0
 28 24  1  0  0  0  0
M  END
>  <MODEL>
8

>  <REMARK>
 VINA RESULT:      -8.8      2.617      3.364
  Name = 
  2 active torsions:
  status: ('A' for Active; 'I' for Inactive)
    1  A    between atoms: C_1  and  C_2
    2  A    between atoms: C_10  and  C_13
                            x       y       z     vdW  Elec       q    Type
                         _______ _______ _______ _____ _____    ______ ____

>  <TORSDO>
F 2

$$$$
=
 OpenBabel10272401513D

 28 32  0  0  1  0  0  0  0  0999 V2000
  190.1420  177.8010  143.6090 C   0  0  1  0  0  0  0  0  0  0  0  0
  191.2820  177.5410  140.2090 O   0  0  0  0  0  0  0  0  0  0  0  0
  186.6240  178.3930  142.1730 C   0  0  0  0  0  0  0  0  0  0  0  0
  189.2440  177.8870  141.4170 C   0  0  0  0  0  0  0  0  0  0  0  0
  187.6210  178.2390  143.1570 C   0  0  0  0  0  3  0  0  0  0  0  0
  191.3010  177.4890  142.6500 C   0  0  1  0  0  3  0  0  0  0  0  0
  188.2850  178.0370  140.4160 C   0  0  0  0  0  3  0  0  0  0  0  0
  190.6620  177.6380  141.3000 C   0  0  0  0  0  0  0  0  0  0  0  0
  186.9610  178.2900  140.8090 C   0  0  0  0  0  3  0  0  0  0  0  0
  191.2740  178.7940  143.4390 C   0  0  0  0  0  2  0  0  0  0  0  0
  188.9290  177.9810  142.7470 C   0  0  0  0  0  0  0  0  0  0  0  0
  184.2780  178.0120  141.5590 C   0  0  0  0  0  3  0  0  0  0  0  0
  183.4550  178.3730  144.4440 C   0  0  0  0  0  2  0  0  0  0  0  0
  182.1790  179.0440  142.4350 C   0  0  0  0  0  0  0  0  0  0  0  0
  185.2000  178.6590  142.5560 C   0  0  1  0  0  3  0  0  0  0  0  0
  185.9070  179.2590  145.1280 Cl  0  0  0  0  0  0  0  0  0  0  0  0
  182.7310  179.5160  143.7450 C   0  0  0  0  0  2  0  0  0  0  0  0
  184.9240  178.2620  144.0210 C   0  0  1  0  0  3  0  0  0  0  0  0
  180.9930  179.3430  142.1370 O   0  0  0  0  0  0  0  0  0  0  0  0
  182.9600  178.2170  141.4950 C   0  0  0  0  0  3  0  0  0  0  0  0
  190.1380  176.9120  144.8550 C   0  0  1  0  0  3  0  0  0  0  0  0
  191.5280  176.3750  145.0980 C   0  0  0  0  0  3  0  0  0  0  0  0
  190.1340  177.2560  147.3740 N   0  0  0  0  0  0  0  0  0  0  0  0
  191.9370  176.0030  146.3180 C   0  0  0  0  0  3  0  0  0  0  0  0
  188.6790  178.4570  145.9970 O   0  0  0  0  0  0  0  0  0  0  0  0
  189.6110  177.6120  146.0870 C   0  0  0  0  0  0  0  0  0  0  0  0
  189.6520  177.8490  148.4920 O   0  0  0  0  0  1  0  0  0  0  0  0
  191.0190  176.1010  147.5040 C   0  0  0  0  0  2  0  0  0  0  0  0
  1 10  1  1  0  0  0
  1 21  1  0  0  0  0
  2  8  2  0  0  0  0
  3  5  1  0  0  0  0
  4 11  1  0  0  0  0
  6 10  1  6  0  0  0
  6  1  1  0  0  0  0
  7  9  1  0  0  0  0
  7  4  2  0  0  0  0
  8  4  1  0  0  0  0
  8  6  1  0  0  0  0
  9  3  2  0  0  0  0
 11  5  2  0  0  0  0
 11  1  1  0  0  0  0
 12 15  1  0  0  0  0
 14 17  1  0  0  0  0
 15  3  1  6  0  0  0
 15 18  1  0  0  0  0
 17 13  1  0  0  0  0
 18 13  1  0  0  0  0
 18 16  1  1  0  0  0
 19 14  2  0  0  0  0
 20 12  2  0  0  0  0
 20 14  1  0  0  0  0
 21 22  1  1  0  0  0
 21 26  1  0  0  0  0
 22 24  2  0  0  0  0
 23 28  1  0  0  0  0
 23 27  1  0  0  0  0
 24 28  1  0  0  0  0
 25 26  2  0  0  0  0
 26 23  1  0  0  0  0
M  END
>  <MODEL>
9

>  <REMARK>
 VINA RESULT:      -8.7      2.579      4.587
  Name = 
  2 active torsions:
  status: ('A' for Active; 'I' for Inactive)
    1  A    between atoms: C_1  and  C_2
    2  A    between atoms: C_10  and  C_13
                            x       y       z     vdW  Elec       q    Type
                         _______ _______ _______ _____ _____    ______ ____

>  <TORSDO>
F 2

$$$$
