=
 OpenBabel10272413193D

 32 33  0  0  1  0  0  0  0  0999 V2000
  188.6370  177.4680  140.6020 O   0  0  0  0  0  0  0  0  0  0  0  0
  187.7950  178.5330  140.2210 C   0  0  2  0  0  3  0  0  0  0  0  0
  186.7440  178.8160  141.2970 C   0  0  1  0  0  3  0  0  0  0  0  0
  185.0610  178.5900  140.6040 S   0  0  0  0  0  0  0  0  0  0  0  0
  186.0080  178.0480  146.0180 C   0  0  0  0  0  2  0  0  0  0  0  0
  186.9320  177.9570  142.5110 C   0  0  0  0  0  3  0  0  0  0  0  0
  184.0030  178.8920  144.6470 C   0  0  0  0  0  2  0  0  0  0  0  0
  184.8980  179.0020  143.4160 C   0  0  2  0  0  3  0  0  0  0  0  0
  184.0820  178.6830  142.1650 C   0  0  0  0  0  2  0  0  0  0  0  0
  186.0740  178.0640  143.5270 C   0  0  0  0  0  0  0  0  0  0  0  0
  184.8270  179.0330  145.9300 C   0  0  0  0  0  2  0  0  0  0  0  0
  186.2450  177.2180  144.7510 C   0  0  0  0  0  2  0  0  0  0  0  0
  187.2070  178.2810  138.9720 O   0  0  0  0  0  0  0  0  0  0  0  0
  188.1780  177.5820  138.2500 C   0  0  1  0  0  3  0  0  0  0  0  0
  187.5470  176.4940  137.5210 N   0  0  0  0  0  1  0  0  0  0  0  0
  188.9460  177.8860  135.9020 C   0  0  0  0  0  1  0  0  0  0  0  0
  188.8610  178.5250  137.2750 C   0  0  0  0  0  2  0  0  0  0  0  0
  189.8460  177.9850  140.7770 O   0  0  0  0  0  0  0  0  0  0  0  0
  190.6410  176.9850  141.3680 C   0  0  1  0  0  3  0  0  0  0  0  0
  192.0030  177.2960  141.2710 O   0  0  0  0  0  1  0  0  0  0  0  0
  190.2280  176.6920  142.7880 C   0  0  0  0  0  0  0  0  0  0  0  0
  189.8990  175.5620  143.1130 O   0  0  0  0  0  0  0  0  0  0  0  0
  190.2070  177.7840  143.8210 C   0  0  0  0  0  2  0  0  0  0  0  0
  190.2310  177.2780  145.2660 C   0  0  1  0  0  3  0  0  0  0  0  0
  191.6500  176.9890  145.7500 C   0  0  0  0  0  2  0  0  0  0  0  0
  191.7480  175.5940  146.3480 C   0  0  0  0  0  3  0  0  0  0  0  0
  192.5570  175.6540  147.6270 C   0  0  0  0  0  1  0  0  0  0  0  0
  192.4270  174.6410  145.3820 C   0  0  0  0  0  1  0  0  0  0  0  0
  189.5050  178.2310  146.2080 C   0  0  0  0  0  2  0  0  0  0  0  0
  188.7300  176.3610  147.4680 O   0  0  0  0  0  0  0  0  0  0  0  0
  189.2780  178.2380  148.7220 N   0  0  0  0  0  1  0  0  0  0  0  0
  189.1570  177.5450  147.4850 C   0  0  0  0  0  0  0  0  0  0  0  0
  1 18  1  0  0  0  0
  2 13  1  6  0  0  0
  2  1  1  0  0  0  0
  3  2  1  6  0  0  0
  3  6  1  0  0  0  0
  4  3  1  0  0  0  0
  4  9  1  0  0  0  0
  6 10  2  0  0  0  0
  7 11  1  0  0  0  0
  8  9  1  6  0  0  0
  8 10  1  0  0  0  0
  8  7  1  0  0  0  0
 10 12  1  0  0  0  0
 11  5  1  0  0  0  0
 12  5  1  0  0  0  0
 14 15  1  6  0  0  0
 14 13  1  0  0  0  0
 16 17  1  0  0  0  0
 17 14  1  0  0  0  0
 18 19  1  0  0  0  0
 19 20  1  1  0  0  0
 19 21  1  0  0  0  0
 21 22  2  0  0  0  0
 21 23  1  0  0  0  0
 24 23  1  6  0  0  0
 24 25  1  0  0  0  0
 24 29  1  0  0  0  0
 25 26  1  0  0  0  0
 26 27  1  0  0  0  0
 28 26  1  0  0  0  0
 29 32  1  0  0  0  0
 30 32  2  0  0  0  0
 32 31  1  0  0  0  0
M  END
>  <MODEL>
1

>  <REMARK>
 VINA RESULT:      -7.3      0.000      0.000
  Name = 
  14 active torsions:
  status: ('A' for Active; 'I' for Inactive)
    1  A    between atoms: O_1  and  C_5
    2  A    between atoms: O_1  and  O_30
    3  A    between atoms: C_2  and  C_5
    4  A    between atoms: C_3  and  C_8
    5  A    between atoms: C_3  and  C_20
    6  A    between atoms: C_4  and  C_24
    7  A    between atoms: C_4  and  O_30
    8  A    between atoms: C_5  and  O_14
    9  A    between atoms: C_13  and  O_14
   10  A    between atoms: C_13  and  C_29
   11  A    between atoms: C_15  and  C_20
   12  A    between atoms: C_15  and  C_26
   13  A    between atoms: C_16  and  C_20
   14  A    between atoms: C_16  and  C_24
                            x       y       z     vdW  Elec       q    Type
                         _______ _______ _______ _____ _____    ______ ____

>  <TORSDO>
F 14

$$$$
=
 OpenBabel10272413193D

 32 33  0  0  1  0  0  0  0  0999 V2000
  186.0910  179.0000  139.9150 O   0  0  0  0  0  0  0  0  0  0  0  0
  184.7790  179.1720  140.4020 C   0  0  2  0  0  3  0  0  0  0  0  0
  184.7560  179.1890  141.9320 C   0  0  1  0  0  3  0  0  0  0  0  0
  183.0630  178.8290  142.5380 S   0  0  0  0  0  0  0  0  0  0  0  0
  187.4900  177.7860  145.6710 C   0  0  0  0  0  2  0  0  0  0  0  0
  185.7410  178.2250  142.5230 C   0  0  0  0  0  3  0  0  0  0  0  0
  185.0820  178.5170  146.1960 C   0  0  0  0  0  2  0  0  0  0  0  0
  184.8780  178.8850  144.7290 C   0  0  2  0  0  3  0  0  0  0  0  0
  183.4300  178.6110  144.3330 C   0  0  0  0  0  2  0  0  0  0  0  0
  185.8190  178.1000  143.8480 C   0  0  0  0  0  0  0  0  0  0  0  0
  186.5610  178.6130  146.5790 C   0  0  0  0  0  2  0  0  0  0  0  0
  186.7990  177.1470  144.4600 C   0  0  0  0  0  2  0  0  0  0  0  0
  183.9210  178.1910  139.8780 O   0  0  0  0  0  0  0  0  0  0  0  0
  183.3840  178.7610  138.7220 C   0  0  1  0  0  3  0  0  0  0  0  0
  183.2630  177.7410  137.6930 N   0  0  0  0  0  1  0  0  0  0  0  0
  181.9300  180.7740  138.5450 C   0  0  0  0  0  1  0  0  0  0  0  0
  182.0150  179.3410  139.0330 C   0  0  0  0  0  2  0  0  0  0  0  0
  186.0960  177.8660  139.2290 O   0  0  0  0  0  0  0  0  0  0  0  0
  187.0940  177.9820  138.2440 C   0  0  1  0  0  3  0  0  0  0  0  0
  186.7300  178.9080  137.2590 O   0  0  0  0  0  1  0  0  0  0  0  0
  188.4470  178.2890  138.8360 C   0  0  0  0  0  0  0  0  0  0  0  0
  189.0760  179.2650  138.4610 O   0  0  0  0  0  0  0  0  0  0  0  0
  189.0430  177.3970  139.8890 C   0  0  0  0  0  2  0  0  0  0  0  0
  190.5700  177.3040  139.8380 C   0  0  1  0  0  3  0  0  0  0  0  0
  191.1940  177.3210  141.2310 C   0  0  0  0  0  2  0  0  0  0  0  0
  190.1260  177.2130  142.3080 C   0  0  0  0  0  3  0  0  0  0  0  0
  190.3580  178.2870  143.3510 C   0  0  0  0  0  1  0  0  0  0  0  0
  190.1760  175.8550  142.9810 C   0  0  0  0  0  1  0  0  0  0  0  0
  191.0340  176.0940  139.0350 C   0  0  0  0  0  2  0  0  0  0  0  0
  190.8160  176.7630  136.7570 O   0  0  0  0  0  0  0  0  0  0  0  0
  192.9990  176.6140  137.5380 N   0  0  0  0  0  1  0  0  0  0  0  0
  191.5910  176.5170  137.7180 C   0  0  0  0  0  0  0  0  0  0  0  0
  1  2  1  0  0  0  0
  2 13  1  1  0  0  0
  3  2  1  6  0  0  0
  3  6  1  0  0  0  0
  3  4  1  0  0  0  0
  4  9  1  0  0  0  0
  5 11  1  0  0  0  0
  6 10  2  0  0  0  0
  7 11  1  0  0  0  0
  8  9  1  6  0  0  0
  8  7  1  0  0  0  0
 10 12  1  0  0  0  0
 10  8  1  0  0  0  0
 12  5  1  0  0  0  0
 14 15  1  6  0  0  0
 14 17  1  0  0  0  0
 14 13  1  0  0  0  0
 16 17  1  0  0  0  0
 18  1  1  0  0  0  0
 19 20  1  6  0  0  0
 19 21  1  0  0  0  0
 19 18  1  0  0  0  0
 21 23  1  0  0  0  0
 22 21  2  0  0  0  0
 24 29  1  1  0  0  0
 24 23  1  0  0  0  0
 24 25  1  0  0  0  0
 25 26  1  0  0  0  0
 26 28  1  0  0  0  0
 26 27  1  0  0  0  0
 30 32  2  0  0  0  0
 31 32  1  0  0  0  0
 32 29  1  0  0  0  0
M  END
>  <MODEL>
2

>  <REMARK>
 VINA RESULT:      -7.0      3.606      5.354
  Name = 
  14 active torsions:
  status: ('A' for Active; 'I' for Inactive)
    1  A    between atoms: O_1  and  C_5
    2  A    between atoms: O_1  and  O_30
    3  A    between atoms: C_2  and  C_5
    4  A    between atoms: C_3  and  C_8
    5  A    between atoms: C_3  and  C_20
    6  A    between atoms: C_4  and  C_24
    7  A    between atoms: C_4  and  O_30
    8  A    between atoms: C_5  and  O_14
    9  A    between atoms: C_13  and  O_14
   10  A    between atoms: C_13  and  C_29
   11  A    between atoms: C_15  and  C_20
   12  A    between atoms: C_15  and  C_26
   13  A    between atoms: C_16  and  C_20
   14  A    between atoms: C_16  and  C_24
                            x       y       z     vdW  Elec       q    Type
                         _______ _______ _______ _____ _____    ______ ____

>  <TORSDO>
F 14

$$$$
=
 OpenBabel10272413193D

 32 33  0  0  1  0  0  0  0  0999 V2000
  188.5590  177.7130  143.5610 O   0  0  0  0  0  0  0  0  0  0  0  0
  187.7540  177.3700  144.6670 C   0  0  2  0  0  3  0  0  0  0  0  0
  186.2810  177.6820  144.3940 C   0  0  1  0  0  3  0  0  0  0  0  0
  185.6430  178.8490  145.6560 S   0  0  0  0  0  0  0  0  0  0  0  0
  183.3250  178.5180  140.6550 C   0  0  0  0  0  2  0  0  0  0  0  0
  186.0650  178.2300  143.0150 C   0  0  0  0  0  3  0  0  0  0  0  0
  182.4040  179.0160  143.0040 C   0  0  0  0  0  2  0  0  0  0  0  0
  183.6930  178.4760  143.6180 C   0  0  2  0  0  3  0  0  0  0  0  0
  184.0150  179.2550  144.8900 C   0  0  0  0  0  2  0  0  0  0  0  0
  184.8350  178.5800  142.6370 C   0  0  0  0  0  0  0  0  0  0  0  0
  182.1470  178.3770  141.6360 C   0  0  0  0  0  2  0  0  0  0  0  0
  184.5960  179.1260  141.2630 C   0  0  0  0  0  2  0  0  0  0  0  0
  188.2140  178.0020  145.8330 O   0  0  0  0  0  0  0  0  0  0  0  0
  188.8280  176.9900  146.5750 C   0  0  1  0  0  3  0  0  0  0  0  0
  190.2640  177.2110  146.5970 N   0  0  0  0  0  1  0  0  0  0  0  0
  188.6500  178.3040  148.6820 C   0  0  0  0  0  1  0  0  0  0  0  0
  188.2840  177.0030  147.9940 C   0  0  0  0  0  2  0  0  0  0  0  0
  189.0820  176.5830  143.1070 O   0  0  0  0  0  0  0  0  0  0  0  0
  190.4620  176.8010  142.9430 C   0  0  1  0  0  3  0  0  0  0  0  0
  191.2090  175.7250  143.4370 O   0  0  0  0  0  1  0  0  0  0  0  0
  190.8220  177.1330  141.5170 C   0  0  0  0  0  0  0  0  0  0  0  0
  191.9350  177.5530  141.2450 O   0  0  0  0  0  0  0  0  0  0  0  0
  189.8180  176.9580  140.4120 C   0  0  0  0  0  2  0  0  0  0  0  0
  190.4030  177.1130  139.0060 C   0  0  1  0  0  3  0  0  0  0  0  0
  190.5980  175.7670  138.3130 C   0  0  0  0  0  2  0  0  0  0  0  0
  191.8020  175.8020  137.3840 C   0  0  0  0  0  3  0  0  0  0  0  0
  192.2070  174.3850  137.0350 C   0  0  0  0  0  1  0  0  0  0  0  0
  192.9740  176.4990  138.0480 C   0  0  0  0  0  1  0  0  0  0  0  0
  189.5700  178.0620  138.1510 C   0  0  0  0  0  2  0  0  0  0  0  0
  187.4350  178.5330  139.1010 O   0  0  0  0  0  0  0  0  0  0  0  0
  187.4990  176.7010  137.6750 N   0  0  0  0  0  1  0  0  0  0  0  0
  188.1150  177.7990  138.3370 C   0  0  0  0  0  0  0  0  0  0  0  0
  2  1  1  6  0  0  0
  2 13  1  0  0  0  0
  3  2  1  1  0  0  0
  3  4  1  0  0  0  0
  5 12  1  0  0  0  0
  5 11  1  0  0  0  0
  6  3  1  0  0  0  0
  8  7  1  6  0  0  0
  8  9  1  0  0  0  0
  9  4  1  0  0  0  0
 10  6  2  0  0  0  0
 10  8  1  0  0  0  0
 11  7  1  0  0  0  0
 12 10  1  0  0  0  0
 13 14  1  0  0  0  0
 14 15  1  1  0  0  0
 14 17  1  0  0  0  0
 17 16  1  0  0  0  0
 18  1  1  0  0  0  0
 19 18  1  0  0  0  0
 19 20  1  6  0  0  0
 21 19  1  0  0  0  0
 22 21  2  0  0  0  0
 23 21  1  0  0  0  0
 24 29  1  6  0  0  0
 24 23  1  0  0  0  0
 25 24  1  0  0  0  0
 26 28  1  0  0  0  0
 26 25  1  0  0  0  0
 27 26  1  0  0  0  0
 29 32  1  0  0  0  0
 31 32  1  0  0  0  0
 32 30  2  0  0  0  0
M  END
>  <MODEL>
3

>  <REMARK>
 VINA RESULT:      -6.9      2.123      6.622
  Name = 
  14 active torsions:
  status: ('A' for Active; 'I' for Inactive)
    1  A    between atoms: O_1  and  C_5
    2  A    between atoms: O_1  and  O_30
    3  A    between atoms: C_2  and  C_5
    4  A    between atoms: C_3  and  C_8
    5  A    between atoms: C_3  and  C_20
    6  A    between atoms: C_4  and  C_24
    7  A    between atoms: C_4  and  O_30
    8  A    between atoms: C_5  and  O_14
    9  A    between atoms: C_13  and  O_14
   10  A    between atoms: C_13  and  C_29
   11  A    between atoms: C_15  and  C_20
   12  A    between atoms: C_15  and  C_26
   13  A    between atoms: C_16  and  C_20
   14  A    between atoms: C_16  and  C_24
                            x       y       z     vdW  Elec       q    Type
                         _______ _______ _______ _____ _____    ______ ____

>  <TORSDO>
F 14

$$$$
=
 OpenBabel10272413193D

 32 33  0  0  1  0  0  0  0  0999 V2000
  190.4230  176.1960  140.6410 O   0  0  0  0  0  0  0  0  0  0  0  0
  190.4900  176.6350  139.3030 C   0  0  2  0  0  3  0  0  0  0  0  0
  189.0970  176.9620  138.7610 C   0  0  1  0  0  3  0  0  0  0  0  0
  189.1220  178.5850  137.9070 S   0  0  0  0  0  0  0  0  0  0  0  0
  185.3650  174.7480  136.6170 C   0  0  0  0  0  2  0  0  0  0  0  0
  188.5810  175.8940  137.8430 C   0  0  0  0  0  3  0  0  0  0  0  0
  185.3270  177.3190  136.6620 C   0  0  0  0  0  2  0  0  0  0  0  0
  186.6070  177.3180  137.4930 C   0  0  2  0  0  3  0  0  0  0  0  0
  187.4520  178.5360  137.1240 C   0  0  0  0  0  2  0  0  0  0  0  0
  187.3900  176.0500  137.2630 C   0  0  0  0  0  0  0  0  0  0  0  0
  184.5410  176.0230  136.8780 C   0  0  0  0  0  2  0  0  0  0  0  0
  186.8540  174.9930  136.3470 C   0  0  0  0  0  2  0  0  0  0  0  0
  191.1530  175.6920  138.5020 O   0  0  0  0  0  0  0  0  0  0  0  0
  192.0560  176.4370  137.7400 C   0  0  1  0  0  3  0  0  0  0  0  0
  193.2940  176.6000  138.4830 N   0  0  0  0  0  1  0  0  0  0  0  0
  191.2960  176.0910  135.3940 C   0  0  0  0  0  1  0  0  0  0  0  0
  192.3340  175.7120  136.4340 C   0  0  0  0  0  2  0  0  0  0  0  0
  189.7000  177.0920  141.2990 O   0  0  0  0  0  0  0  0  0  0  0  0
  189.3530  176.5180  142.5360 C   0  0  1  0  0  3  0  0  0  0  0  0
  190.1960  175.4450  142.8510 O   0  0  0  0  0  1  0  0  0  0  0  0
  189.2990  177.5380  143.6440 C   0  0  0  0  0  0  0  0  0  0  0  0
  189.9630  178.5610  143.5730 O   0  0  0  0  0  0  0  0  0  0  0  0
  188.4370  177.3110  144.8530 C   0  0  0  0  0  2  0  0  0  0  0  0
  187.0140  177.8600  144.7190 C   0  0  1  0  0  3  0  0  0  0  0  0
  186.3390  177.4000  143.4290 C   0  0  0  0  0  2  0  0  0  0  0  0
  185.7920  178.5850  142.6470 C   0  0  0  0  0  3  0  0  0  0  0  0
  184.3270  178.3500  142.3430 C   0  0  0  0  0  1  0  0  0  0  0  0
  186.5440  178.7630  141.3420 C   0  0  0  0  0  1  0  0  0  0  0  0
  186.1640  177.5260  145.9390 C   0  0  0  0  0  2  0  0  0  0  0  0
  185.8720  179.5160  147.2200 O   0  0  0  0  0  0  0  0  0  0  0  0
  184.0720  178.9370  145.8710 N   0  0  0  0  0  1  0  0  0  0  0  0
  185.3830  178.7180  146.3790 C   0  0  0  0  0  0  0  0  0  0  0  0
  1 18  1  0  0  0  0
  2 13  1  6  0  0  0
  2  1  1  0  0  0  0
  3  2  1  6  0  0  0
  4  3  1  0  0  0  0
  5 11  1  0  0  0  0
  6  3  1  0  0  0  0
  7 11  1  0  0  0  0
  8  7  1  6  0  0  0
  9  8  1  0  0  0  0
  9  4  1  0  0  0  0
 10  8  1  0  0  0  0
 10  6  2  0  0  0  0
 12  5  1  0  0  0  0
 12 10  1  0  0  0  0
 14 15  1  1  0  0  0
 14 13  1  0  0  0  0
 16 17  1  0  0  0  0
 17 14  1  0  0  0  0
 18 19  1  0  0  0  0
 19 20  1  1  0  0  0
 19 21  1  0  0  0  0
 21 23  1  0  0  0  0
 22 21  2  0  0  0  0
 24 25  1  6  0  0  0
 24 23  1  0  0  0  0
 24 29  1  0  0  0  0
 26 25  1  0  0  0  0
 27 26  1  0  0  0  0
 28 26  1  0  0  0  0
 29 32  1  0  0  0  0
 31 32  1  0  0  0  0
 32 30  2  0  0  0  0
M  END
>  <MODEL>
4

>  <REMARK>
 VINA RESULT:      -6.8      2.861      5.674
  Name = 
  14 active torsions:
  status: ('A' for Active; 'I' for Inactive)
    1  A    between atoms: O_1  and  C_5
    2  A    between atoms: O_1  and  O_30
    3  A    between atoms: C_2  and  C_5
    4  A    between atoms: C_3  and  C_8
    5  A    between atoms: C_3  and  C_20
    6  A    between atoms: C_4  and  C_24
    7  A    between atoms: C_4  and  O_30
    8  A    between atoms: C_5  and  O_14
    9  A    between atoms: C_13  and  O_14
   10  A    between atoms: C_13  and  C_29
   11  A    between atoms: C_15  and  C_20
   12  A    between atoms: C_15  and  C_26
   13  A    between atoms: C_16  and  C_20
   14  A    between atoms: C_16  and  C_24
                            x       y       z     vdW  Elec       q    Type
                         _______ _______ _______ _____ _____    ______ ____

>  <TORSDO>
F 14

$$$$
=
 OpenBabel10272413193D

 32 33  0  0  1  0  0  0  0  0999 V2000
  190.9700  177.3420  139.8430 O   0  0  0  0  0  0  0  0  0  0  0  0
  190.7360  177.1560  138.4650 C   0  0  2  0  0  3  0  0  0  0  0  0
  189.2420  177.2390  138.1440 C   0  0  1  0  0  3  0  0  0  0  0  0
  188.9060  178.7040  137.0940 S   0  0  0  0  0  0  0  0  0  0  0  0
  185.5510  174.3180  137.0160 C   0  0  0  0  0  2  0  0  0  0  0  0
  188.7360  175.9920  137.4820 C   0  0  0  0  0  3  0  0  0  0  0  0
  185.1690  176.8450  136.7290 C   0  0  0  0  0  2  0  0  0  0  0  0
  186.5550  177.1150  137.3090 C   0  0  2  0  0  3  0  0  0  0  0  0
  187.1550  178.3490  136.6380 C   0  0  0  0  0  2  0  0  0  0  0  0
  187.4570  175.9220  137.1110 C   0  0  0  0  0  0  0  0  0  0  0  0
  184.6130  175.5170  137.2510 C   0  0  0  0  0  2  0  0  0  0  0  0
  186.9300  174.6850  136.4520 C   0  0  0  0  0  2  0  0  0  0  0  0
  191.2990  175.9490  138.0220 O   0  0  0  0  0  0  0  0  0  0  0  0
  192.4130  176.3250  137.2680 C   0  0  1  0  0  3  0  0  0  0  0  0
  193.6150  176.1660  138.0710 N   0  0  0  0  0  1  0  0  0  0  0  0
  191.5040  175.9140  134.9870 C   0  0  0  0  0  1  0  0  0  0  0  0
  192.5040  175.4510  136.0290 C   0  0  0  0  0  2  0  0  0  0  0  0
  190.4620  176.2830  140.4590 O   0  0  0  0  0  0  0  0  0  0  0  0
  190.3590  176.6090  141.8240 C   0  0  1  0  0  3  0  0  0  0  0  0
  191.2950  177.5850  142.1850 O   0  0  0  0  0  1  0  0  0  0  0  0
  188.9550  177.0010  142.2130 C   0  0  0  0  0  0  0  0  0  0  0  0
  188.3610  177.8640  141.5860 O   0  0  0  0  0  0  0  0  0  0  0  0
  188.2710  176.3440  143.3780 C   0  0  0  0  0  2  0  0  0  0  0  0
  188.0650  177.2660  144.5830 C   0  0  1  0  0  3  0  0  0  0  0  0
  186.6370  177.2020  145.1190 C   0  0  0  0  0  2  0  0  0  0  0  0
  186.0620  178.5980  145.3050 C   0  0  0  0  0  3  0  0  0  0  0  0
  185.6160  178.7680  146.7420 C   0  0  0  0  0  1  0  0  0  0  0  0
  184.8710  178.8150  144.3910 C   0  0  0  0  0  1  0  0  0  0  0  0
  189.0840  176.9900  145.6830 C   0  0  0  0  0  2  0  0  0  0  0  0
  190.2890  178.8830  144.8760 O   0  0  0  0  0  0  0  0  0  0  0  0
  191.5940  177.2150  145.8310 N   0  0  0  0  0  1  0  0  0  0  0  0
  190.3380  177.7610  145.4440 C   0  0  0  0  0  0  0  0  0  0  0  0
  1 18  1  0  0  0  0
  2 13  1  1  0  0  0
  2  1  1  0  0  0  0
  3  2  1  6  0  0  0
  4  3  1  0  0  0  0
  5 11  1  0  0  0  0
  6  3  1  0  0  0  0
  7 11  1  0  0  0  0
  7  8  1  0  0  0  0
  8  9  1  6  0  0  0
  9  4  1  0  0  0  0
 10  8  1  0  0  0  0
 10  6  2  0  0  0  0
 12  5  1  0  0  0  0
 12 10  1  0  0  0  0
 14 13  1  0  0  0  0
 14 15  1  1  0  0  0
 16 17  1  0  0  0  0
 17 14  1  0  0  0  0
 18 19  1  0  0  0  0
 19 20  1  6  0  0  0
 19 21  1  0  0  0  0
 21 23  1  0  0  0  0
 22 21  2  0  0  0  0
 24 23  1  6  0  0  0
 24 25  1  0  0  0  0
 24 29  1  0  0  0  0
 25 26  1  0  0  0  0
 26 27  1  0  0  0  0
 28 26  1  0  0  0  0
 30 32  2  0  0  0  0
 32 29  1  0  0  0  0
 32 31  1  0  0  0  0
M  END
>  <MODEL>
5

>  <REMARK>
 VINA RESULT:      -6.7      2.858      5.423
  Name = 
  14 active torsions:
  status: ('A' for Active; 'I' for Inactive)
    1  A    between atoms: O_1  and  C_5
    2  A    between atoms: O_1  and  O_30
    3  A    between atoms: C_2  and  C_5
    4  A    between atoms: C_3  and  C_8
    5  A    between atoms: C_3  and  C_20
    6  A    between atoms: C_4  and  C_24
    7  A    between atoms: C_4  and  O_30
    8  A    between atoms: C_5  and  O_14
    9  A    between atoms: C_13  and  O_14
   10  A    between atoms: C_13  and  C_29
   11  A    between atoms: C_15  and  C_20
   12  A    between atoms: C_15  and  C_26
   13  A    between atoms: C_16  and  C_20
   14  A    between atoms: C_16  and  C_24
                            x       y       z     vdW  Elec       q    Type
                         _______ _______ _______ _____ _____    ______ ____

>  <TORSDO>
F 14

$$$$
=
 OpenBabel10272413193D

 32 33  0  0  1  0  0  0  0  0999 V2000
  186.2110  178.0440  140.5400 O   0  0  0  0  0  0  0  0  0  0  0  0
  185.1450  178.8730  140.9430 C   0  0  2  0  0  3  0  0  0  0  0  0
  185.1070  179.0220  142.4660 C   0  0  1  0  0  3  0  0  0  0  0  0
  183.3850  178.8490  143.0700 S   0  0  0  0  0  0  0  0  0  0  0  0
  187.6800  177.7300  146.3560 C   0  0  0  0  0  2  0  0  0  0  0  0
  186.0050  178.0370  143.1530 C   0  0  0  0  0  3  0  0  0  0  0  0
  185.3320  178.6910  146.7770 C   0  0  0  0  0  2  0  0  0  0  0  0
  185.1750  178.9480  145.2800 C   0  0  2  0  0  3  0  0  0  0  0  0
  183.7130  178.7560  144.8830 C   0  0  0  0  0  2  0  0  0  0  0  0
  186.0590  178.0200  144.4850 C   0  0  0  0  0  0  0  0  0  0  0  0
  186.8100  178.7020  147.1760 C   0  0  0  0  0  2  0  0  0  0  0  0
  186.9530  177.0470  145.1910 C   0  0  0  0  0  2  0  0  0  0  0  0
  183.9250  178.3990  140.4350 O   0  0  0  0  0  0  0  0  0  0  0  0
  183.3490  179.4970  139.7930 C   0  0  1  0  0  3  0  0  0  0  0  0
  184.3250  180.1000  138.9000 N   0  0  0  0  0  1  0  0  0  0  0  0
  181.3240  178.0490  139.8060 C   0  0  0  0  0  1  0  0  0  0  0  0
  182.1390  179.0400  138.9970 C   0  0  0  0  0  2  0  0  0  0  0  0
  187.0380  178.8040  139.8360 O   0  0  0  0  0  0  0  0  0  0  0  0
  187.5290  178.0140  138.7800 C   0  0  1  0  0  3  0  0  0  0  0  0
  186.5130  177.6870  137.8750 O   0  0  0  0  0  1  0  0  0  0  0  0
  188.7140  178.6480  138.0960 C   0  0  0  0  0  0  0  0  0  0  0  0
  188.5450  179.4870  137.2250 O   0  0  0  0  0  0  0  0  0  0  0  0
  190.1150  178.2540  138.4670 C   0  0  0  0  0  2  0  0  0  0  0  0
  190.2080  176.9500  139.2650 C   0  0  1  0  0  3  0  0  0  0  0  0
  190.8030  175.8120  138.4410 C   0  0  0  0  0  2  0  0  0  0  0  0
  191.5850  176.3500  137.2520 C   0  0  0  0  0  3  0  0  0  0  0  0
  191.1770  175.5970  136.0030 C   0  0  0  0  0  1  0  0  0  0  0  0
  193.0760  176.1760  137.4660 C   0  0  0  0  0  1  0  0  0  0  0  0
  190.9660  177.1430  140.5730 C   0  0  0  0  0  2  0  0  0  0  0  0
  189.2030  177.8250  142.0270 O   0  0  0  0  0  0  0  0  0  0  0  0
  190.1820  175.7850  142.5510 N   0  0  0  0  0  1  0  0  0  0  0  0
  190.0600  176.9480  141.7410 C   0  0  0  0  0  0  0  0  0  0  0  0
  1  2  1  0  0  0  0
  2 13  1  1  0  0  0
  3  2  1  6  0  0  0
  3  4  1  0  0  0  0
  3  6  1  0  0  0  0
  4  9  1  0  0  0  0
  5 11  1  0  0  0  0
  6 10  2  0  0  0  0
  7 11  1  0  0  0  0
  8  9  1  6  0  0  0
  8  7  1  0  0  0  0
 10 12  1  0  0  0  0
 10  8  1  0  0  0  0
 12  5  1  0  0  0  0
 14 15  1  6  0  0  0
 14 13  1  0  0  0  0
 17 14  1  0  0  0  0
 17 16  1  0  0  0  0
 18  1  1  0  0  0  0
 19 20  1  6  0  0  0
 19 18  1  0  0  0  0
 21 23  1  0  0  0  0
 21 19  1  0  0  0  0
 22 21  2  0  0  0  0
 23 24  1  0  0  0  0
 24 25  1  6  0  0  0
 24 29  1  0  0  0  0
 26 28  1  0  0  0  0
 26 25  1  0  0  0  0
 27 26  1  0  0  0  0
 29 32  1  0  0  0  0
 32 30  2  0  0  0  0
 32 31  1  0  0  0  0
M  END
>  <MODEL>
6

>  <REMARK>
 VINA RESULT:      -6.6      2.873      5.438
  Name = 
  14 active torsions:
  status: ('A' for Active; 'I' for Inactive)
    1  A    between atoms: O_1  and  C_5
    2  A    between atoms: O_1  and  O_30
    3  A    between atoms: C_2  and  C_5
    4  A    between atoms: C_3  and  C_8
    5  A    between atoms: C_3  and  C_20
    6  A    between atoms: C_4  and  C_24
    7  A    between atoms: C_4  and  O_30
    8  A    between atoms: C_5  and  O_14
    9  A    between atoms: C_13  and  O_14
   10  A    between atoms: C_13  and  C_29
   11  A    between atoms: C_15  and  C_20
   12  A    between atoms: C_15  and  C_26
   13  A    between atoms: C_16  and  C_20
   14  A    between atoms: C_16  and  C_24
                            x       y       z     vdW  Elec       q    Type
                         _______ _______ _______ _____ _____    ______ ____

>  <TORSDO>
F 14

$$$$
=
 OpenBabel10272413193D

 32 33  0  0  1  0  0  0  0  0999 V2000
  190.8340  177.3040  140.8910 O   0  0  0  0  0  0  0  0  0  0  0  0
  190.8170  177.1530  139.4890 C   0  0  2  0  0  3  0  0  0  0  0  0
  189.3840  177.1680  138.9510 C   0  0  1  0  0  3  0  0  0  0  0  0
  189.0170  178.7950  138.1890 S   0  0  0  0  0  0  0  0  0  0  0  0
  186.2840  174.2490  136.6510 C   0  0  0  0  0  2  0  0  0  0  0  0
  189.1360  176.0610  137.9710 C   0  0  0  0  0  3  0  0  0  0  0  0
  185.6310  176.7290  136.8370 C   0  0  0  0  0  2  0  0  0  0  0  0
  186.8780  176.9880  137.6800 C   0  0  2  0  0  3  0  0  0  0  0  0
  187.4050  178.3910  137.3880 C   0  0  0  0  0  2  0  0  0  0  0  0
  187.9410  175.9590  137.3890 C   0  0  0  0  0  0  0  0  0  0  0  0
  185.1790  175.2730  136.9730 C   0  0  0  0  0  2  0  0  0  0  0  0
  187.6700  174.8580  136.4100 C   0  0  0  0  0  2  0  0  0  0  0  0
  191.5060  175.9920  139.1050 O   0  0  0  0  0  0  0  0  0  0  0  0
  192.6340  176.4520  138.4210 C   0  0  1  0  0  3  0  0  0  0  0  0
  193.6060  176.9550  139.3780 N   0  0  0  0  0  1  0  0  0  0  0  0
  192.1730  174.2980  137.2610 C   0  0  0  0  0  1  0  0  0  0  0  0
  193.2420  175.3110  137.6230 C   0  0  0  0  0  2  0  0  0  0  0  0
  190.1280  176.2980  141.3900 O   0  0  0  0  0  0  0  0  0  0  0  0
  189.8260  176.6270  142.7240 C   0  0  1  0  0  3  0  0  0  0  0  0
  190.7900  177.4850  143.2660 O   0  0  0  0  0  1  0  0  0  0  0  0
  188.4300  177.1760  142.8750 C   0  0  0  0  0  0  0  0  0  0  0  0
  188.0640  178.1230  142.1970 O   0  0  0  0  0  0  0  0  0  0  0  0
  187.4720  176.5740  143.8640 C   0  0  0  0  0  2  0  0  0  0  0  0
  187.1800  177.4660  145.0740 C   0  0  1  0  0  3  0  0  0  0  0  0
  188.4560  178.0180  145.7040 C   0  0  0  0  0  2  0  0  0  0  0  0
  188.9400  177.1180  146.8320 C   0  0  0  0  0  3  0  0  0  0  0  0
  188.6000  177.7580  148.1620 C   0  0  0  0  0  1  0  0  0  0  0  0
  190.4410  176.9160  146.7520 C   0  0  0  0  0  1  0  0  0  0  0  0
  186.2040  178.5840  144.7260 C   0  0  0  0  0  2  0  0  0  0  0  0
  185.3870  178.3910  146.9570 O   0  0  0  0  0  0  0  0  0  0  0  0
  183.8280  179.1130  145.3940 N   0  0  0  0  0  1  0  0  0  0  0  0
  185.1370  178.6940  145.7620 C   0  0  0  0  0  0  0  0  0  0  0  0
  1 18  1  0  0  0  0
  2 13  1  1  0  0  0
  2  1  1  0  0  0  0
  3  2  1  6  0  0  0
  4  3  1  0  0  0  0
  5 11  1  0  0  0  0
  6  3  1  0  0  0  0
  7 11  1  0  0  0  0
  8  7  1  6  0  0  0
  9  8  1  0  0  0  0
  9  4  1  0  0  0  0
 10  8  1  0  0  0  0
 10  6  2  0  0  0  0
 12  5  1  0  0  0  0
 12 10  1  0  0  0  0
 14 13  1  0  0  0  0
 14 15  1  1  0  0  0
 16 17  1  0  0  0  0
 17 14  1  0  0  0  0
 18 19  1  0  0  0  0
 19 21  1  0  0  0  0
 19 20  1  6  0  0  0
 21 23  1  0  0  0  0
 22 21  2  0  0  0  0
 24 23  1  6  0  0  0
 24 25  1  0  0  0  0
 25 26  1  0  0  0  0
 26 27  1  0  0  0  0
 28 26  1  0  0  0  0
 29 24  1  0  0  0  0
 29 32  1  0  0  0  0
 31 32  1  0  0  0  0
 32 30  2  0  0  0  0
M  END
>  <MODEL>
7

>  <REMARK>
 VINA RESULT:      -6.6      2.981      5.223
  Name = 
  14 active torsions:
  status: ('A' for Active; 'I' for Inactive)
    1  A    between atoms: O_1  and  C_5
    2  A    between atoms: O_1  and  O_30
    3  A    between atoms: C_2  and  C_5
    4  A    between atoms: C_3  and  C_8
    5  A    between atoms: C_3  and  C_20
    6  A    between atoms: C_4  and  C_24
    7  A    between atoms: C_4  and  O_30
    8  A    between atoms: C_5  and  O_14
    9  A    between atoms: C_13  and  O_14
   10  A    between atoms: C_13  and  C_29
   11  A    between atoms: C_15  and  C_20
   12  A    between atoms: C_15  and  C_26
   13  A    between atoms: C_16  and  C_20
   14  A    between atoms: C_16  and  C_24
                            x       y       z     vdW  Elec       q    Type
                         _______ _______ _______ _____ _____    ______ ____

>  <TORSDO>
F 14

$$$$
=
 OpenBabel10272413193D

 32 33  0  0  1  0  0  0  0  0999 V2000
  187.0490  178.7900  140.4480 O   0  0  0  0  0  0  0  0  0  0  0  0
  188.0920  178.0370  139.8710 C   0  0  2  0  0  3  0  0  0  0  0  0
  189.0230  177.4730  140.9460 C   0  0  1  0  0  3  0  0  0  0  0  0
  190.7440  177.4110  140.3160 S   0  0  0  0  0  0  0  0  0  0  0  0
  189.7070  177.7300  145.7310 C   0  0  0  0  0  2  0  0  0  0  0  0
  188.9590  178.2610  142.2210 C   0  0  0  0  0  3  0  0  0  0  0  0
  191.5610  176.6080  144.3460 C   0  0  0  0  0  2  0  0  0  0  0  0
  190.7110  176.7690  143.0880 C   0  0  2  0  0  3  0  0  0  0  0  0
  191.6230  177.0110  141.8880 C   0  0  0  0  0  2  0  0  0  0  0  0
  189.7390  177.9110  143.2450 C   0  0  0  0  0  0  0  0  0  0  0  0
  190.6740  176.5400  145.5930 C   0  0  0  0  0  2  0  0  0  0  0  0
  189.6870  178.6820  144.5280 C   0  0  0  0  0  2  0  0  0  0  0  0
  188.7920  178.7990  138.9230 O   0  0  0  0  0  0  0  0  0  0  0  0
  188.2690  178.4080  137.6880 C   0  0  1  0  0  3  0  0  0  0  0  0
  189.1840  178.8030  136.6300 N   0  0  0  0  0  1  0  0  0  0  0  0
  189.2180  176.2430  136.9060 C   0  0  0  0  0  1  0  0  0  0  0  0
  188.0850  176.9000  137.6710 C   0  0  0  0  0  2  0  0  0  0  0  0
  185.9140  178.2690  140.0020 O   0  0  0  0  0  0  0  0  0  0  0  0
  184.8780  179.1400  140.3910 C   0  0  1  0  0  3  0  0  0  0  0  0
  184.4850  179.9660  139.3320 O   0  0  0  0  0  1  0  0  0  0  0  0
  183.7110  178.4030  140.9970 C   0  0  0  0  0  0  0  0  0  0  0  0
  183.5000  177.2360  140.7050 O   0  0  0  0  0  0  0  0  0  0  0  0
  182.7870  179.0920  141.9610 C   0  0  0  0  0  2  0  0  0  0  0  0
  183.0840  178.7940  143.4330 C   0  0  1  0  0  3  0  0  0  0  0  0
  184.0900  179.7770  144.0270 C   0  0  0  0  0  2  0  0  0  0  0  0
  185.2150  179.0420  144.7390 C   0  0  0  0  0  3  0  0  0  0  0  0
  185.7260  177.9280  143.8500 C   0  0  0  0  0  1  0  0  0  0  0  0
  184.7250  178.4440  146.0440 C   0  0  0  0  0  1  0  0  0  0  0  0
  181.8070  178.7350  144.2640 C   0  0  0  0  0  2  0  0  0  0  0  0
  179.9820  177.8750  142.9950 O   0  0  0  0  0  0  0  0  0  0  0  0
  180.1800  180.1890  142.9970 N   0  0  0  0  0  1  0  0  0  0  0  0
  180.6050  178.8920  143.3960 C   0  0  0  0  0  0  0  0  0  0  0  0
  2 13  1  6  0  0  0
  2  1  1  0  0  0  0
  3  2  1  6  0  0  0
  3  6  1  0  0  0  0
  4  3  1  0  0  0  0
  4  9  1  0  0  0  0
  6 10  2  0  0  0  0
  7 11  1  0  0  0  0
  8  9  1  6  0  0  0
  8 10  1  0  0  0  0
  8  7  1  0  0  0  0
 10 12  1  0  0  0  0
 11  5  1  0  0  0  0
 12  5  1  0  0  0  0
 14 15  1  6  0  0  0
 14 13  1  0  0  0  0
 16 17  1  0  0  0  0
 17 14  1  0  0  0  0
 18 19  1  0  0  0  0
 18  1  1  0  0  0  0
 19 20  1  6  0  0  0
 19 21  1  0  0  0  0
 21 23  1  0  0  0  0
 22 21  2  0  0  0  0
 24 23  1  6  0  0  0
 24 25  1  0  0  0  0
 24 29  1  0  0  0  0
 25 26  1  0  0  0  0
 26 28  1  0  0  0  0
 27 26  1  0  0  0  0
 30 32  2  0  0  0  0
 31 32  1  0  0  0  0
 32 29  1  0  0  0  0
M  END
>  <MODEL>
8

>  <REMARK>
 VINA RESULT:      -6.5      3.172      6.346
  Name = 
  14 active torsions:
  status: ('A' for Active; 'I' for Inactive)
    1  A    between atoms: O_1  and  C_5
    2  A    between atoms: O_1  and  O_30
    3  A    between atoms: C_2  and  C_5
    4  A    between atoms: C_3  and  C_8
    5  A    between atoms: C_3  and  C_20
    6  A    between atoms: C_4  and  C_24
    7  A    between atoms: C_4  and  O_30
    8  A    between atoms: C_5  and  O_14
    9  A    between atoms: C_13  and  O_14
   10  A    between atoms: C_13  and  C_29
   11  A    between atoms: C_15  and  C_20
   12  A    between atoms: C_15  and  C_26
   13  A    between atoms: C_16  and  C_20
   14  A    between atoms: C_16  and  C_24
                            x       y       z     vdW  Elec       q    Type
                         _______ _______ _______ _____ _____    ______ ____

>  <TORSDO>
F 14

$$$$
=
 OpenBabel10272413193D

 32 33  0  0  1  0  0  0  0  0999 V2000
  190.9050  177.5420  140.2310 O   0  0  0  0  0  0  0  0  0  0  0  0
  190.7640  177.2800  138.8530 C   0  0  2  0  0  3  0  0  0  0  0  0
  189.2930  177.3250  138.4320 C   0  0  1  0  0  3  0  0  0  0  0  0
  188.9770  178.8220  137.4200 S   0  0  0  0  0  0  0  0  0  0  0  0
  185.7980  174.3320  136.9340 C   0  0  0  0  0  2  0  0  0  0  0  0
  188.8800  176.0910  137.6870 C   0  0  0  0  0  3  0  0  0  0  0  0
  185.3440  176.8540  136.7210 C   0  0  0  0  0  2  0  0  0  0  0  0
  186.6770  177.1460  137.4070 C   0  0  2  0  0  3  0  0  0  0  0  0
  187.2750  178.4270  136.8290 C   0  0  0  0  0  2  0  0  0  0  0  0
  187.6330  175.9940  137.2250 C   0  0  0  0  0  0  0  0  0  0  0  0
  184.8030  175.4880  137.1500 C   0  0  0  0  0  2  0  0  0  0  0  0
  187.1980  174.7680  136.4830 C   0  0  0  0  0  2  0  0  0  0  0  0
  191.3660  176.0590  138.5140 O   0  0  0  0  0  0  0  0  0  0  0  0
  192.4380  176.4020  137.6870 C   0  0  1  0  0  3  0  0  0  0  0  0
  193.6860  176.2080  138.4080 N   0  0  0  0  0  1  0  0  0  0  0  0
  191.9580  174.1250  136.8010 C   0  0  0  0  0  1  0  0  0  0  0  0
  192.4210  175.5250  136.4460 C   0  0  0  0  0  2  0  0  0  0  0  0
  190.1780  176.6340  140.8670 O   0  0  0  0  0  0  0  0  0  0  0  0
  190.6740  176.5510  142.1810 C   0  0  1  0  0  3  0  0  0  0  0  0
  191.8020  177.3630  142.3490 O   0  0  0  0  0  1  0  0  0  0  0  0
  189.6120  176.8370  143.2110 C   0  0  0  0  0  0  0  0  0  0  0  0
  188.6090  176.1440  143.2710 O   0  0  0  0  0  0  0  0  0  0  0  0
  189.7660  177.9810  144.1740 C   0  0  0  0  0  2  0  0  0  0  0  0
  190.1230  177.5550  145.6000 C   0  0  1  0  0  3  0  0  0  0  0  0
  188.9290  176.9570  146.3390 C   0  0  0  0  0  2  0  0  0  0  0  0
  188.1060  178.0440  147.0150 C   0  0  0  0  0  3  0  0  0  0  0  0
  188.2350  177.9070  148.5170 C   0  0  0  0  0  1  0  0  0  0  0  0
  186.6430  177.9270  146.6340 C   0  0  0  0  0  1  0  0  0  0  0  0
  191.3190  176.6100  145.6220 C   0  0  0  0  0  2  0  0  0  0  0  0
  191.7010  177.2860  147.8760 O   0  0  0  0  0  0  0  0  0  0  0  0
  192.3140  175.1000  147.3830 N   0  0  0  0  0  1  0  0  0  0  0  0
  191.7720  176.3650  147.0210 C   0  0  0  0  0  0  0  0  0  0  0  0
  1 18  1  0  0  0  0
  2 13  1  1  0  0  0
  2  1  1  0  0  0  0
  3  2  1  6  0  0  0
  4  3  1  0  0  0  0
  5 11  1  0  0  0  0
  6  3  1  0  0  0  0
  7 11  1  0  0  0  0
  8  7  1  6  0  0  0
  9  8  1  0  0  0  0
  9  4  1  0  0  0  0
 10  8  1  0  0  0  0
 10  6  2  0  0  0  0
 12  5  1  0  0  0  0
 12 10  1  0  0  0  0
 14 15  1  1  0  0  0
 14 13  1  0  0  0  0
 17 16  1  0  0  0  0
 17 14  1  0  0  0  0
 18 19  1  0  0  0  0
 19 20  1  6  0  0  0
 19 21  1  0  0  0  0
 21 22  2  0  0  0  0
 21 23  1  0  0  0  0
 24 23  1  6  0  0  0
 24 29  1  0  0  0  0
 24 25  1  0  0  0  0
 25 26  1  0  0  0  0
 26 27  1  0  0  0  0
 28 26  1  0  0  0  0
 29 32  1  0  0  0  0
 32 31  1  0  0  0  0
 32 30  2  0  0  0  0
M  END
>  <MODEL>
9

>  <REMARK>
 VINA RESULT:      -6.5      2.838      5.081
  Name = 
  14 active torsions:
  status: ('A' for Active; 'I' for Inactive)
    1  A    between atoms: O_1  and  C_5
    2  A    between atoms: O_1  and  O_30
    3  A    between atoms: C_2  and  C_5
    4  A    between atoms: C_3  and  C_8
    5  A    between atoms: C_3  and  C_20
    6  A    between atoms: C_4  and  C_24
    7  A    between atoms: C_4  and  O_30
    8  A    between atoms: C_5  and  O_14
    9  A    between atoms: C_13  and  O_14
   10  A    between atoms: C_13  and  C_29
   11  A    between atoms: C_15  and  C_20
   12  A    between atoms: C_15  and  C_26
   13  A    between atoms: C_16  and  C_20
   14  A    between atoms: C_16  and  C_24
                            x       y       z     vdW  Elec       q    Type
                         _______ _______ _______ _____ _____    ______ ____

>  <TORSDO>
F 14

$$$$
