=
 OpenBabel10262423443D

 34 38  0  0  1  0  0  0  0  0999 V2000
  182.6160  178.8940  140.2450 C   0  0  0  0  0  0  0  0  0  0  0  0
  184.4440  178.7220  141.9760 C   0  0  0  0  0  0  0  0  0  0  0  0
  184.9800  178.4160  139.6140 C   0  0  0  0  0  0  0  0  0  0  0  0
  187.1450  178.9050  137.8130 O   0  0  0  0  0  0  0  0  0  0  0  0
  182.3790  180.7650  138.6560 C   0  0  0  0  0  1  0  0  0  0  0  0
  183.5410  178.9470  143.0080 O   0  0  0  0  0  1  0  0  0  0  0  0
  186.6960  178.3720  141.2930 N   0  0  0  0  0  0  0  0  0  0  0  0
  184.0290  178.6660  140.6330 C   0  0  0  0  0  0  0  0  0  0  0  0
  187.4360  178.1340  138.9410 C   0  0  2  0  0  3  0  0  0  0  0  0
  181.6850  178.8290  141.0900 O   0  0  0  0  0  0  0  0  0  0  0  0
  184.4920  178.2470  138.2000 C   0  0  0  0  0  0  0  0  0  0  0  0
  182.2960  179.2590  138.8290 C   0  0  1  0  0  3  0  0  0  0  0  0
  185.7900  178.5610  142.2820 C   0  0  0  0  0  3  0  0  0  0  0  0
  186.6900  177.9920  136.8550 C   0  0  0  0  0  2  0  0  0  0  0  0
  185.2630  177.5010  137.1390 C   0  0  1  0  0  3  0  0  0  0  0  0
  186.3500  178.3200  139.9770 C   0  0  0  0  0  0  0  0  0  0  0  0
  183.2390  178.5880  137.8740 C   0  0  0  0  0  3  0  0  0  0  0  0
  186.2150  173.8210  137.3190 C   0  0  0  0  0  0  0  0  0  0  0  0
  184.9790  173.2660  137.6550 C   0  0  0  0  0  3  0  0  0  0  0  0
  185.1920  176.0140  137.3080 C   0  0  0  0  0  0  0  0  0  0  0  0
  183.8920  174.0700  137.8090 N   0  0  0  0  0  0  0  0  0  0  0  0
  186.3200  175.2010  137.1460 C   0  0  0  0  0  3  0  0  0  0  0  0
  183.9730  175.4190  137.6450 C   0  0  0  0  0  3  0  0  0  0  0  0
  187.3010  173.0270  137.1640 F   0  0  0  0  0  0  0  0  0  0  0  0
  188.8200  178.5080  139.4560 C   0  0  0  0  0  2  0  0  0  0  0  0
  189.6690  177.2590  139.6150 C   0  0  0  0  0  2  0  0  0  0  0  0
  190.6660  177.4370  140.7490 C   0  0  0  0  0  2  0  0  0  0  0  0
  190.3000  175.3460  142.8000 O   0  0  0  0  0  1  0  0  0  0  0  0
  189.9500  177.6230  142.0820 C   0  0  1  0  0  3  0  0  0  0  0  0
  189.3180  176.3170  142.5900 C   0  0  2  0  0  3  0  0  0  0  0  0
  188.9590  177.7830  144.6730 C   0  0  0  0  0  2  0  0  0  0  0  0
  190.4660  178.0020  144.5650 C   0  0  0  0  0  2  0  0  0  0  0  0
  190.8980  178.2500  143.1140 C   0  0  0  0  0  2  0  0  0  0  0  0
  188.5270  176.5370  143.8880 C   0  0  0  0  0  2  0  0  0  0  0  0
  1  8  1  0  0  0  0
  1 10  2  0  0  0  0
  2 13  1  0  0  0  0
  2  6  1  0  0  0  0
  3 16  2  0  0  0  0
  3  8  1  0  0  0  0
  4  9  1  0  0  0  0
  7 13  2  0  0  0  0
  8  2  2  0  0  0  0
  9 25  1  1  0  0  0
  9 16  1  0  0  0  0
 11  3  1  0  0  0  0
 12  5  1  1  0  0  0
 12  1  1  0  0  0  0
 14 15  1  0  0  0  0
 14  4  1  0  0  0  0
 15 20  1  1  0  0  0
 15 11  1  0  0  0  0
 16  7  1  0  0  0  0
 17 11  2  0  0  0  0
 17 12  1  0  0  0  0
 18 19  1  0  0  0  0
 19 21  2  0  0  0  0
 20 23  2  0  0  0  0
 22 20  1  0  0  0  0
 22 18  2  0  0  0  0
 23 21  1  0  0  0  0
 24 18  1  0  0  0  0
 25 26  1  0  0  0  0
 26 27  1  0  0  0  0
 29 27  1  6  0  0  0
 29 30  1  0  0  0  0
 29 33  1  0  0  0  0
 30 28  1  1  0  0  0
 30 34  1  0  0  0  0
 32 31  1  0  0  0  0
 33 32  1  0  0  0  0
 34 31  1  0  0  0  0
M  END
>  <MODEL>
1

>  <REMARK>
 VINA RESULT:      -8.2      0.000      0.000
  Name = 
  5 active torsions:
  status: ('A' for Active; 'I' for Inactive)
    1  A    between atoms: C_3  and  C_13
    2  A    between atoms: C_3  and  C_17
    3  A    between atoms: C_12  and  C_28
    4  A    between atoms: C_17  and  C_29
    5  A    between atoms: C_18  and  C_29
                            x       y       z     vdW  Elec       q    Type
                         _______ _______ _______ _____ _____    ______ ____

>  <TORSDO>
F 5

$$$$
=
 OpenBabel10262423443D

 34 38  0  0  1  0  0  0  0  0999 V2000
  183.9330  176.3280  136.3330 C   0  0  0  0  0  0  0  0  0  0  0  0
  186.0210  177.6260  136.9030 C   0  0  0  0  0  0  0  0  0  0  0  0
  184.1340  177.6230  138.4530 C   0  0  0  0  0  0  0  0  0  0  0  0
  183.6570  177.7380  141.2680 O   0  0  0  0  0  0  0  0  0  0  0  0
  183.2400  174.2450  137.4590 C   0  0  0  0  0  1  0  0  0  0  0  0
  186.6220  177.2600  135.7040 O   0  0  0  0  0  1  0  0  0  0  0  0
  186.1850  178.7510  138.9930 N   0  0  0  0  0  0  0  0  0  0  0  0
  184.7150  177.2140  137.2290 C   0  0  0  0  0  0  0  0  0  0  0  0
  184.4120  178.7780  140.7230 C   0  0  2  0  0  3  0  0  0  0  0  0
  184.2530  176.1650  135.1260 O   0  0  0  0  0  0  0  0  0  0  0  0
  182.6970  177.2660  138.7230 C   0  0  0  0  0  0  0  0  0  0  0  0
  182.7680  175.5710  136.8890 C   0  0  1  0  0  3  0  0  0  0  0  0
  186.7340  178.4070  137.8030 C   0  0  0  0  0  3  0  0  0  0  0  0
  182.3250  178.1440  141.1310 C   0  0  0  0  0  2  0  0  0  0  0  0
  181.8180  178.0260  139.6860 C   0  0  1  0  0  3  0  0  0  0  0  0
  184.9300  178.3700  139.3620 C   0  0  0  0  0  0  0  0  0  0  0  0
  182.0730  176.3610  137.9590 C   0  0  0  0  0  3  0  0  0  0  0  0
  181.0250  180.8770  137.2930 C   0  0  0  0  0  0  0  0  0  0  0  0
  180.4510  181.7870  138.1820 C   0  0  0  0  0  3  0  0  0  0  0  0
  181.3530  179.3380  139.1320 C   0  0  0  0  0  0  0  0  0  0  0  0
  180.3380  181.4720  139.5010 N   0  0  0  0  0  0  0  0  0  0  0  0
  181.4760  179.6470  137.7720 C   0  0  0  0  0  3  0  0  0  0  0  0
  180.7730  180.2780  139.9880 C   0  0  0  0  0  3  0  0  0  0  0  0
  181.1400  181.1830  135.9790 F   0  0  0  0  0  0  0  0  0  0  0  0
  185.5240  179.1500  141.6960 C   0  0  0  0  0  2  0  0  0  0  0  0
  185.4840  178.2320  142.9060 C   0  0  0  0  0  2  0  0  0  0  0  0
  186.8290  177.5500  143.0970 C   0  0  0  0  0  2  0  0  0  0  0  0
  189.2110  178.5120  144.5510 O   0  0  0  0  0  1  0  0  0  0  0  0
  187.1160  177.3150  144.5760 C   0  0  1  0  0  3  0  0  0  0  0  0
  188.6220  177.2880  144.8790 C   0  0  2  0  0  3  0  0  0  0  0  0
  187.7190  177.2750  147.2880 C   0  0  0  0  0  2  0  0  0  0  0  0
  186.9750  178.5260  146.8320 C   0  0  0  0  0  2  0  0  0  0  0  0
  186.3680  178.3450  145.4350 C   0  0  0  0  0  2  0  0  0  0  0  0
  188.8980  176.9650  146.3560 C   0  0  0  0  0  2  0  0  0  0  0  0
  1 12  1  0  0  0  0
  1  8  1  0  0  0  0
  2  8  2  0  0  0  0
  2 13  1  0  0  0  0
  3 11  1  0  0  0  0
  3 16  2  0  0  0  0
  6  2  1  0  0  0  0
  7 16  1  0  0  0  0
  8  3  1  0  0  0  0
  9  4  1  0  0  0  0
  9 25  1  1  0  0  0
 10  1  2  0  0  0  0
 11 15  1  0  0  0  0
 12  5  1  1  0  0  0
 12 17  1  0  0  0  0
 13  7  2  0  0  0  0
 14  4  1  0  0  0  0
 15 20  1  6  0  0  0
 15 14  1  0  0  0  0
 16  9  1  0  0  0  0
 17 11  2  0  0  0  0
 18 22  2  0  0  0  0
 18 19  1  0  0  0  0
 19 21  2  0  0  0  0
 20 23  2  0  0  0  0
 21 23  1  0  0  0  0
 22 20  1  0  0  0  0
 24 18  1  0  0  0  0
 25 26  1  0  0  0  0
 26 27  1  0  0  0  0
 29 27  1  6  0  0  0
 29 30  1  0  0  0  0
 29 33  1  0  0  0  0
 30 28  1  1  0  0  0
 30 34  1  0  0  0  0
 32 31  1  0  0  0  0
 33 32  1  0  0  0  0
 34 31  1  0  0  0  0
M  END
>  <MODEL>
2

>  <REMARK>
 VINA RESULT:      -7.6      2.904      5.421
  Name = 
  5 active torsions:
  status: ('A' for Active; 'I' for Inactive)
    1  A    between atoms: C_3  and  C_13
    2  A    between atoms: C_3  and  C_17
    3  A    between atoms: C_12  and  C_28
    4  A    between atoms: C_17  and  C_29
    5  A    between atoms: C_18  and  C_29
                            x       y       z     vdW  Elec       q    Type
                         _______ _______ _______ _____ _____    ______ ____

>  <TORSDO>
F 5

$$$$
=
 OpenBabel10262423443D

 34 38  0  0  1  0  0  0  0  0999 V2000
  184.1490  176.4370  135.9360 C   0  0  0  0  0  0  0  0  0  0  0  0
  186.1730  177.6210  136.8670 C   0  0  0  0  0  0  0  0  0  0  0  0
  184.0610  177.6900  138.0890 C   0  0  0  0  0  0  0  0  0  0  0  0
  183.1360  177.7880  140.7910 O   0  0  0  0  0  0  0  0  0  0  0  0
  183.1850  174.3760  136.8870 C   0  0  0  0  0  1  0  0  0  0  0  0
  186.9440  177.2440  135.7740 O   0  0  0  0  0  1  0  0  0  0  0  0
  186.0460  178.7060  138.9800 N   0  0  0  0  0  0  0  0  0  0  0  0
  184.8140  177.2700  136.9670 C   0  0  0  0  0  0  0  0  0  0  0  0
  184.0180  178.7970  140.3990 C   0  0  2  0  0  3  0  0  0  0  0  0
  184.6540  176.2760  134.7940 O   0  0  0  0  0  0  0  0  0  0  0  0
  182.5840  177.4000  138.1140 C   0  0  0  0  0  0  0  0  0  0  0  0
  182.8740  175.7310  136.2790 C   0  0  1  0  0  3  0  0  0  0  0  0
  186.7660  178.3530  137.8880 C   0  0  0  0  0  3  0  0  0  0  0  0
  181.8650  178.2620  140.4480 C   0  0  0  0  0  2  0  0  0  0  0  0
  181.5960  178.1900  138.9380 C   0  0  1  0  0  3  0  0  0  0  0  0
  184.7320  178.3830  139.1320 C   0  0  0  0  0  0  0  0  0  0  0  0
  182.0520  176.5390  137.2380 C   0  0  0  0  0  3  0  0  0  0  0  0
  180.8420  180.9700  136.4510 C   0  0  0  0  0  0  0  0  0  0  0  0
  180.7060  182.0490  137.3280 C   0  0  0  0  0  3  0  0  0  0  0  0
  181.2900  179.5310  138.3450 C   0  0  0  0  0  0  0  0  0  0  0  0
  180.8580  181.8620  138.6670 N   0  0  0  0  0  0  0  0  0  0  0  0
  181.1340  179.7070  136.9650 C   0  0  0  0  0  3  0  0  0  0  0  0
  181.1440  180.6370  139.1880 C   0  0  0  0  0  3  0  0  0  0  0  0
  180.6910  181.1490  135.1180 F   0  0  0  0  0  0  0  0  0  0  0  0
  184.9720  179.0990  141.5480 C   0  0  0  0  0  2  0  0  0  0  0  0
  184.4520  178.4770  142.8320 C   0  0  0  0  0  2  0  0  0  0  0  0
  184.6400  179.4330  143.9990 C   0  0  0  0  0  2  0  0  0  0  0  0
  184.3970  178.3190  146.7210 O   0  0  0  0  0  1  0  0  0  0  0  0
  185.8030  178.9960  144.8810 C   0  0  1  0  0  3  0  0  0  0  0  0
  185.4810  179.1300  146.3780 C   0  0  2  0  0  3  0  0  0  0  0  0
  187.7150  177.8670  146.5520 C   0  0  0  0  0  2  0  0  0  0  0  0
  187.0230  176.8680  145.6290 C   0  0  0  0  0  2  0  0  0  0  0  0
  186.2510  177.5750  144.5080 C   0  0  0  0  0  2  0  0  0  0  0  0
  186.6910  178.7690  147.2530 C   0  0  0  0  0  2  0  0  0  0  0  0
  1 12  1  0  0  0  0
  1  8  1  0  0  0  0
  2  8  2  0  0  0  0
  2 13  1  0  0  0  0
  3 11  1  0  0  0  0
  3 16  2  0  0  0  0
  6  2  1  0  0  0  0
  7 16  1  0  0  0  0
  8  3  1  0  0  0  0
  9  4  1  0  0  0  0
  9 25  1  1  0  0  0
 10  1  2  0  0  0  0
 11 15  1  0  0  0  0
 12  5  1  1  0  0  0
 12 17  1  0  0  0  0
 13  7  2  0  0  0  0
 14  4  1  0  0  0  0
 15 20  1  6  0  0  0
 15 14  1  0  0  0  0
 16  9  1  0  0  0  0
 17 11  2  0  0  0  0
 18 22  2  0  0  0  0
 18 19  1  0  0  0  0
 19 21  2  0  0  0  0
 20 23  2  0  0  0  0
 21 23  1  0  0  0  0
 22 20  1  0  0  0  0
 24 18  1  0  0  0  0
 25 26  1  0  0  0  0
 26 27  1  0  0  0  0
 29 27  1  6  0  0  0
 29 30  1  0  0  0  0
 30 28  1  1  0  0  0
 30 34  1  0  0  0  0
 31 34  1  0  0  0  0
 32 31  1  0  0  0  0
 33 29  1  0  0  0  0
 33 32  1  0  0  0  0
M  END
>  <MODEL>
3

>  <REMARK>
 VINA RESULT:      -7.5      3.360      5.856
  Name = 
  5 active torsions:
  status: ('A' for Active; 'I' for Inactive)
    1  A    between atoms: C_3  and  C_13
    2  A    between atoms: C_3  and  C_17
    3  A    between atoms: C_12  and  C_28
    4  A    between atoms: C_17  and  C_29
    5  A    between atoms: C_18  and  C_29
                            x       y       z     vdW  Elec       q    Type
                         _______ _______ _______ _____ _____    ______ ____

>  <TORSDO>
F 5

$$$$
=
 OpenBabel10262423443D

 34 38  0  0  1  0  0  0  0  0999 V2000
  191.0340  174.3930  137.1630 C   0  0  0  0  0  0  0  0  0  0  0  0
  188.6140  173.9000  136.6420 C   0  0  0  0  0  0  0  0  0  0  0  0
  189.2170  176.0040  137.7240 C   0  0  0  0  0  0  0  0  0  0  0  0
  188.3350  178.7210  137.7950 O   0  0  0  0  0  0  0  0  0  0  0  0
  192.3980  176.0660  135.9710 C   0  0  0  0  0  1  0  0  0  0  0  0
  188.9410  172.6570  136.1130 O   0  0  0  0  0  1  0  0  0  0  0  0
  186.9450  175.5300  137.1070 N   0  0  0  0  0  0  0  0  0  0  0  0
  189.5960  174.7530  137.1790 C   0  0  0  0  0  0  0  0  0  0  0  0
  187.3840  177.7510  138.1130 C   0  0  2  0  0  3  0  0  0  0  0  0
  191.4110  173.2070  136.9710 O   0  0  0  0  0  0  0  0  0  0  0  0
  190.2690  176.8450  138.3950 C   0  0  0  0  0  0  0  0  0  0  0  0
  192.0600  175.4700  137.3260 C   0  0  1  0  0  3  0  0  0  0  0  0
  187.2870  174.3100  136.6280 C   0  0  0  0  0  3  0  0  0  0  0  0
  188.9810  179.0080  139.0030 C   0  0  0  0  0  2  0  0  0  0  0  0
  189.9560  177.9000  139.4280 C   0  0  1  0  0  3  0  0  0  0  0  0
  187.8560  176.3990  137.6280 C   0  0  0  0  0  0  0  0  0  0  0  0
  191.5660  176.5490  138.2430 C   0  0  0  0  0  3  0  0  0  0  0  0
  190.1300  175.9220  142.6740 C   0  0  0  0  0  0  0  0  0  0  0  0
  188.9150  176.2950  143.2510 C   0  0  0  0  0  3  0  0  0  0  0  0
  189.6140  177.3180  140.7650 C   0  0  0  0  0  0  0  0  0  0  0  0
  188.0860  177.1530  142.5970 N   0  0  0  0  0  0  0  0  0  0  0  0
  190.4800  176.4380  141.4260 C   0  0  0  0  0  3  0  0  0  0  0  0
  188.4080  177.6660  141.3790 C   0  0  0  0  0  3  0  0  0  0  0  0
  190.9610  175.0700  143.3190 F   0  0  0  0  0  0  0  0  0  0  0  0
  186.0400  178.1590  137.5230 C   0  0  0  0  0  2  0  0  0  0  0  0
  184.9240  177.8400  138.5030 C   0  0  0  0  0  2  0  0  0  0  0  0
  184.1430  179.0990  138.8450 C   0  0  0  0  0  2  0  0  0  0  0  0
  182.3480  177.2840  140.3260 O   0  0  0  0  0  1  0  0  0  0  0  0
  183.8510  179.1710  140.3400 C   0  0  1  0  0  3  0  0  0  0  0  0
  182.4550  178.6300  140.6860 C   0  0  2  0  0  3  0  0  0  0  0  0
  183.3880  178.9130  143.0670 C   0  0  0  0  0  2  0  0  0  0  0  0
  184.5220  178.0390  142.5400 C   0  0  0  0  0  2  0  0  0  0  0  0
  184.9610  178.4690  141.1350 C   0  0  0  0  0  2  0  0  0  0  0  0
  182.1410  178.7880  142.1820 C   0  0  0  0  0  2  0  0  0  0  0  0
  1  8  1  0  0  0  0
  1 12  1  0  0  0  0
  2  8  1  0  0  0  0
  3 11  1  0  0  0  0
  4  9  1  0  0  0  0
  4 14  1  0  0  0  0
  6  2  1  0  0  0  0
  7 16  2  0  0  0  0
  8  3  2  0  0  0  0
  9 25  1  6  0  0  0
 10  1  2  0  0  0  0
 11 15  1  0  0  0  0
 12  5  1  6  0  0  0
 12 17  1  0  0  0  0
 13  2  2  0  0  0  0
 13  7  1  0  0  0  0
 14 15  1  0  0  0  0
 15 20  1  1  0  0  0
 16  3  1  0  0  0  0
 16  9  1  0  0  0  0
 17 11  2  0  0  0  0
 18 19  1  0  0  0  0
 18 24  1  0  0  0  0
 20 23  2  0  0  0  0
 20 22  1  0  0  0  0
 21 19  2  0  0  0  0
 22 18  2  0  0  0  0
 23 21  1  0  0  0  0
 25 26  1  0  0  0  0
 26 27  1  0  0  0  0
 29 27  1  6  0  0  0
 29 30  1  0  0  0  0
 29 33  1  0  0  0  0
 30 28  1  1  0  0  0
 30 34  1  0  0  0  0
 32 31  1  0  0  0  0
 33 32  1  0  0  0  0
 34 31  1  0  0  0  0
M  END
>  <MODEL>
4

>  <REMARK>
 VINA RESULT:      -7.5      2.825      7.139
  Name = 
  5 active torsions:
  status: ('A' for Active; 'I' for Inactive)
    1  A    between atoms: C_3  and  C_13
    2  A    between atoms: C_3  and  C_17
    3  A    between atoms: C_12  and  C_28
    4  A    between atoms: C_17  and  C_29
    5  A    between atoms: C_18  and  C_29
                            x       y       z     vdW  Elec       q    Type
                         _______ _______ _______ _____ _____    ______ ____

>  <TORSDO>
F 5

$$$$
=
 OpenBabel10262423443D

 34 38  0  0  1  0  0  0  0  0999 V2000
  191.0300  174.3890  137.0200 C   0  0  0  0  0  0  0  0  0  0  0  0
  188.5980  173.8530  136.6110 C   0  0  0  0  0  0  0  0  0  0  0  0
  189.2130  175.9690  137.6620 C   0  0  0  0  0  0  0  0  0  0  0  0
  188.2880  178.6710  137.7690 O   0  0  0  0  0  0  0  0  0  0  0  0
  192.3100  176.0830  135.7660 C   0  0  0  0  0  1  0  0  0  0  0  0
  188.9220  172.6140  136.0690 O   0  0  0  0  0  1  0  0  0  0  0  0
  186.9230  175.4540  137.1490 N   0  0  0  0  0  0  0  0  0  0  0  0
  189.5880  174.7240  137.1010 C   0  0  0  0  0  0  0  0  0  0  0  0
  187.3680  177.6840  138.1310 C   0  0  2  0  0  3  0  0  0  0  0  0
  191.4190  173.2090  136.8130 O   0  0  0  0  0  0  0  0  0  0  0  0
  190.2790  176.8300  138.2830 C   0  0  0  0  0  0  0  0  0  0  0  0
  192.0430  175.4840  137.1350 C   0  0  1  0  0  3  0  0  0  0  0  0
  187.2650  174.2400  136.6560 C   0  0  0  0  0  3  0  0  0  0  0  0
  188.9820  178.9710  138.9460 C   0  0  0  0  0  2  0  0  0  0  0  0
  189.9950  177.8810  139.3280 C   0  0  1  0  0  3  0  0  0  0  0  0
  187.8420  176.3400  137.6270 C   0  0  0  0  0  0  0  0  0  0  0  0
  191.5730  176.5560  138.0730 C   0  0  0  0  0  3  0  0  0  0  0  0
  188.2870  176.9310  142.5930 C   0  0  0  0  0  0  0  0  0  0  0  0
  189.2950  176.1630  143.1790 C   0  0  0  0  0  3  0  0  0  0  0  0
  189.7240  177.2960  140.6800 C   0  0  0  0  0  0  0  0  0  0  0  0
  190.4750  175.9750  142.5270 N   0  0  0  0  0  0  0  0  0  0  0  0
  188.5040  177.4980  141.3370 C   0  0  0  0  0  3  0  0  0  0  0  0
  190.7070  176.5210  141.3020 C   0  0  0  0  0  3  0  0  0  0  0  0
  187.1110  177.1210  143.2350 F   0  0  0  0  0  0  0  0  0  0  0  0
  185.9920  178.0680  137.6020 C   0  0  0  0  0  2  0  0  0  0  0  0
  184.9420  177.8420  138.6760 C   0  0  0  0  0  2  0  0  0  0  0  0
  184.0890  179.0890  138.8530 C   0  0  0  0  0  2  0  0  0  0  0  0
  182.4030  177.1810  140.3470 O   0  0  0  0  0  1  0  0  0  0  0  0
  183.6490  179.2470  140.3040 C   0  0  1  0  0  3  0  0  0  0  0  0
  182.3060  178.5540  140.5830 C   0  0  2  0  0  3  0  0  0  0  0  0
  182.9640  179.1600  142.9950 C   0  0  0  0  0  2  0  0  0  0  0  0
  184.2440  178.4050  142.6520 C   0  0  0  0  0  2  0  0  0  0  0  0
  184.7580  178.7700  141.2530 C   0  0  0  0  0  2  0  0  0  0  0  0
  181.8320  178.7950  142.0250 C   0  0  0  0  0  2  0  0  0  0  0  0
  1  8  1  0  0  0  0
  1 12  1  0  0  0  0
  2 13  2  0  0  0  0
  2  8  1  0  0  0  0
  3 11  1  0  0  0  0
  4  9  1  0  0  0  0
  4 14  1  0  0  0  0
  6  2  1  0  0  0  0
  7 16  2  0  0  0  0
  8  3  2  0  0  0  0
  9 25  1  6  0  0  0
 10  1  2  0  0  0  0
 11 15  1  0  0  0  0
 12  5  1  6  0  0  0
 12 17  1  0  0  0  0
 13  7  1  0  0  0  0
 14 15  1  0  0  0  0
 15 20  1  1  0  0  0
 16  3  1  0  0  0  0
 16  9  1  0  0  0  0
 17 11  2  0  0  0  0
 18 19  1  0  0  0  0
 18 24  1  0  0  0  0
 20 23  2  0  0  0  0
 20 22  1  0  0  0  0
 21 19  2  0  0  0  0
 22 18  2  0  0  0  0
 23 21  1  0  0  0  0
 25 26  1  0  0  0  0
 26 27  1  0  0  0  0
 29 27  1  6  0  0  0
 29 30  1  0  0  0  0
 29 33  1  0  0  0  0
 30 28  1  1  0  0  0
 30 34  1  0  0  0  0
 32 31  1  0  0  0  0
 33 32  1  0  0  0  0
 34 31  1  0  0  0  0
M  END
>  <MODEL>
5

>  <REMARK>
 VINA RESULT:      -7.4      2.931      7.238
  Name = 
  5 active torsions:
  status: ('A' for Active; 'I' for Inactive)
    1  A    between atoms: C_3  and  C_13
    2  A    between atoms: C_3  and  C_17
    3  A    between atoms: C_12  and  C_28
    4  A    between atoms: C_17  and  C_29
    5  A    between atoms: C_18  and  C_29
                            x       y       z     vdW  Elec       q    Type
                         _______ _______ _______ _____ _____    ______ ____

>  <TORSDO>
F 5

$$$$
=
 OpenBabel10262423443D

 34 38  0  0  1  0  0  0  0  0999 V2000
  182.9580  178.7110  140.1600 C   0  0  0  0  0  0  0  0  0  0  0  0
  185.0360  178.8330  141.5870 C   0  0  0  0  0  0  0  0  0  0  0  0
  185.2320  178.3670  139.1980 C   0  0  0  0  0  0  0  0  0  0  0  0
  187.0450  178.8670  137.0470 O   0  0  0  0  0  0  0  0  0  0  0  0
  182.3130  180.4140  138.4970 C   0  0  0  0  0  1  0  0  0  0  0  0
  184.2840  179.0740  142.7300 O   0  0  0  0  0  1  0  0  0  0  0  0
  187.1800  178.6020  140.5830 N   0  0  0  0  0  0  0  0  0  0  0  0
  184.4280  178.6290  140.3340 C   0  0  0  0  0  0  0  0  0  0  0  0
  187.5720  178.2210  138.1670 C   0  0  2  0  0  3  0  0  0  0  0  0
  182.1750  178.6470  141.1450 O   0  0  0  0  0  0  0  0  0  0  0  0
  184.5520  178.0390  137.8960 C   0  0  0  0  0  0  0  0  0  0  0  0
  182.3950  178.9270  138.7900 C   0  0  1  0  0  3  0  0  0  0  0  0
  186.4210  178.8040  141.6860 C   0  0  0  0  0  3  0  0  0  0  0  0
  186.5350  177.8420  136.2420 C   0  0  0  0  0  2  0  0  0  0  0  0
  185.2180  177.2670  136.7830 C   0  0  1  0  0  3  0  0  0  0  0  0
  186.6440  178.4100  139.3450 C   0  0  0  0  0  0  0  0  0  0  0  0
  183.2390  178.2520  137.7500 C   0  0  0  0  0  3  0  0  0  0  0  0
  186.5660  173.7400  137.2590 C   0  0  0  0  0  0  0  0  0  0  0  0
  185.3930  173.0810  137.6330 C   0  0  0  0  0  3  0  0  0  0  0  0
  185.3080  175.7990  137.0690 C   0  0  0  0  0  0  0  0  0  0  0  0
  184.2230  173.7690  137.7190 N   0  0  0  0  0  0  0  0  0  0  0  0
  186.5210  175.1050  136.9780 C   0  0  0  0  0  3  0  0  0  0  0  0
  184.1570  175.1010  137.4480 C   0  0  0  0  0  3  0  0  0  0  0  0
  187.7340  173.0620  137.1720 F   0  0  0  0  0  0  0  0  0  0  0  0
  188.9790  178.7450  138.4270 C   0  0  0  0  0  2  0  0  0  0  0  0
  190.0050  177.7860  137.8480 C   0  0  0  0  0  2  0  0  0  0  0  0
  189.6950  176.3590  138.2700 C   0  0  0  0  0  2  0  0  0  0  0  0
  190.5200  175.2670  135.6540 O   0  0  0  0  0  1  0  0  0  0  0  0
  190.8920  175.4470  138.0310 C   0  0  1  0  0  3  0  0  0  0  0  0
  190.6870  174.5200  136.8230 C   0  0  2  0  0  3  0  0  0  0  0  0
  193.1670  174.0280  137.3000 C   0  0  0  0  0  2  0  0  0  0  0  0
  193.3110  175.5420  137.1830 C   0  0  0  0  0  2  0  0  0  0  0  0
  192.1800  176.2760  137.9160 C   0  0  0  0  0  2  0  0  0  0  0  0
  191.8630  173.5470  136.6470 C   0  0  0  0  0  2  0  0  0  0  0  0
  1  8  1  0  0  0  0
  1 10  2  0  0  0  0
  2 13  1  0  0  0  0
  2  6  1  0  0  0  0
  3 16  2  0  0  0  0
  3  8  1  0  0  0  0
  4  9  1  0  0  0  0
  7 13  2  0  0  0  0
  8  2  2  0  0  0  0
  9 25  1  1  0  0  0
  9 16  1  0  0  0  0
 11  3  1  0  0  0  0
 12  5  1  6  0  0  0
 12  1  1  0  0  0  0
 14 15  1  0  0  0  0
 14  4  1  0  0  0  0
 15 20  1  1  0  0  0
 15 11  1  0  0  0  0
 16  7  1  0  0  0  0
 17 11  2  0  0  0  0
 17 12  1  0  0  0  0
 18 19  1  0  0  0  0
 19 21  2  0  0  0  0
 20 23  2  0  0  0  0
 22 20  1  0  0  0  0
 22 18  2  0  0  0  0
 23 21  1  0  0  0  0
 24 18  1  0  0  0  0
 26 27  1  0  0  0  0
 26 25  1  0  0  0  0
 29 27  1  6  0  0  0
 30 28  1  6  0  0  0
 30 29  1  0  0  0  0
 32 31  1  0  0  0  0
 32 33  1  0  0  0  0
 33 29  1  0  0  0  0
 34 30  1  0  0  0  0
 34 31  1  0  0  0  0
M  END
>  <MODEL>
6

>  <REMARK>
 VINA RESULT:      -7.0      2.286      3.395
  Name = 
  5 active torsions:
  status: ('A' for Active; 'I' for Inactive)
    1  A    between atoms: C_3  and  C_13
    2  A    between atoms: C_3  and  C_17
    3  A    between atoms: C_12  and  C_28
    4  A    between atoms: C_17  and  C_29
    5  A    between atoms: C_18  and  C_29
                            x       y       z     vdW  Elec       q    Type
                         _______ _______ _______ _____ _____    ______ ____

>  <TORSDO>
F 5

$$$$
=
 OpenBabel10262423443D

 34 38  0  0  1  0  0  0  0  0999 V2000
  191.0750  174.3510  137.1410 C   0  0  0  0  0  0  0  0  0  0  0  0
  188.6660  173.8120  136.6200 C   0  0  0  0  0  0  0  0  0  0  0  0
  189.2350  175.9550  137.6410 C   0  0  0  0  0  0  0  0  0  0  0  0
  188.3190  178.6620  137.6230 O   0  0  0  0  0  0  0  0  0  0  0  0
  192.4280  176.0040  135.9080 C   0  0  0  0  0  1  0  0  0  0  0  0
  189.0110  172.5580  136.1320 O   0  0  0  0  0  1  0  0  0  0  0  0
  186.9730  175.4340  137.0250 N   0  0  0  0  0  0  0  0  0  0  0  0
  189.6330  174.6940  137.1370 C   0  0  0  0  0  0  0  0  0  0  0  0
  187.3780  177.6900  137.9650 C   0  0  2  0  0  3  0  0  0  0  0  0
  191.4690  173.1640  136.9890 O   0  0  0  0  0  0  0  0  0  0  0  0
  190.2720  176.8300  138.2930 C   0  0  0  0  0  0  0  0  0  0  0  0
  192.0870  175.4450  137.2780 C   0  0  1  0  0  3  0  0  0  0  0  0
  187.3340  174.2050  136.5850 C   0  0  0  0  0  3  0  0  0  0  0  0
  188.9530  178.9940  138.8260 C   0  0  0  0  0  2  0  0  0  0  0  0
  189.9390  177.9120  139.2910 C   0  0  1  0  0  3  0  0  0  0  0  0
  187.8700  176.3300  137.5240 C   0  0  0  0  0  0  0  0  0  0  0  0
  191.5730  176.5450  138.1590 C   0  0  0  0  0  3  0  0  0  0  0  0
  190.1270  176.0570  142.6090 C   0  0  0  0  0  0  0  0  0  0  0  0
  188.8910  176.4100  143.1540 C   0  0  0  0  0  3  0  0  0  0  0  0
  189.5950  177.3670  140.6440 C   0  0  0  0  0  0  0  0  0  0  0  0
  188.0440  177.2150  142.4570 N   0  0  0  0  0  0  0  0  0  0  0  0
  190.4790  176.5400  141.3480 C   0  0  0  0  0  3  0  0  0  0  0  0
  188.3680  177.6960  141.2260 C   0  0  0  0  0  3  0  0  0  0  0  0
  190.9750  175.2570  143.2970 F   0  0  0  0  0  0  0  0  0  0  0  0
  186.0330  178.0630  137.3540 C   0  0  0  0  0  2  0  0  0  0  0  0
  184.9310  177.9030  138.3870 C   0  0  0  0  0  2  0  0  0  0  0  0
  184.5190  179.2580  138.9380 C   0  0  0  0  0  2  0  0  0  0  0  0
  181.7930  179.3450  137.8080 O   0  0  0  0  0  1  0  0  0  0  0  0
  183.2270  179.1530  139.7390 C   0  0  1  0  0  3  0  0  0  0  0  0
  182.0610  179.8930  139.0650 C   0  0  2  0  0  3  0  0  0  0  0  0
  180.7590  178.6930  140.9310 C   0  0  0  0  0  2  0  0  0  0  0  0
  181.4130  177.4450  140.3470 C   0  0  0  0  0  2  0  0  0  0  0  0
  182.8940  177.6810  140.0230 C   0  0  0  0  0  2  0  0  0  0  0  0
  180.7890  179.8520  139.9250 C   0  0  0  0  0  2  0  0  0  0  0  0
  1 12  1  0  0  0  0
  2  8  1  0  0  0  0
  3 11  1  0  0  0  0
  4  9  1  0  0  0  0
  4 14  1  0  0  0  0
  6  2  1  0  0  0  0
  7 16  2  0  0  0  0
  8  1  1  0  0  0  0
  8  3  2  0  0  0  0
  9 25  1  6  0  0  0
 10  1  2  0  0  0  0
 11 15  1  0  0  0  0
 12  5  1  6  0  0  0
 12 17  1  0  0  0  0
 13  2  2  0  0  0  0
 13  7  1  0  0  0  0
 14 15  1  0  0  0  0
 15 20  1  1  0  0  0
 16  3  1  0  0  0  0
 16  9  1  0  0  0  0
 17 11  2  0  0  0  0
 18 19  1  0  0  0  0
 18 24  1  0  0  0  0
 20 23  2  0  0  0  0
 20 22  1  0  0  0  0
 21 19  2  0  0  0  0
 22 18  2  0  0  0  0
 23 21  1  0  0  0  0
 25 26  1  0  0  0  0
 26 27  1  0  0  0  0
 29 27  1  6  0  0  0
 29 33  1  0  0  0  0
 30 28  1  6  0  0  0
 30 29  1  0  0  0  0
 30 34  1  0  0  0  0
 32 31  1  0  0  0  0
 33 32  1  0  0  0  0
 34 31  1  0  0  0  0
M  END
>  <MODEL>
7

>  <REMARK>
 VINA RESULT:      -6.9      2.916      7.652
  Name = 
  5 active torsions:
  status: ('A' for Active; 'I' for Inactive)
    1  A    between atoms: C_3  and  C_13
    2  A    between atoms: C_3  and  C_17
    3  A    between atoms: C_12  and  C_28
    4  A    between atoms: C_17  and  C_29
    5  A    between atoms: C_18  and  C_29
                            x       y       z     vdW  Elec       q    Type
                         _______ _______ _______ _____ _____    ______ ____

>  <TORSDO>
F 5

$$$$
=
 OpenBabel10262423443D

 34 38  0  0  1  0  0  0  0  0999 V2000
  184.0420  176.0700  136.2310 C   0  0  0  0  0  0  0  0  0  0  0  0
  186.0850  177.4900  136.6520 C   0  0  0  0  0  0  0  0  0  0  0  0
  184.2260  177.5410  138.2340 C   0  0  0  0  0  0  0  0  0  0  0  0
  183.7930  177.8660  141.0400 O   0  0  0  0  0  0  0  0  0  0  0  0
  183.4540  174.0610  137.5350 C   0  0  0  0  0  1  0  0  0  0  0  0
  186.6800  177.0520  135.4750 O   0  0  0  0  0  1  0  0  0  0  0  0
  186.2390  178.7880  138.6400 N   0  0  0  0  0  0  0  0  0  0  0  0
  184.8030  177.0550  137.0360 C   0  0  0  0  0  0  0  0  0  0  0  0
  184.4960  178.8870  140.3970 C   0  0  2  0  0  3  0  0  0  0  0  0
  184.3490  175.8220  135.0350 O   0  0  0  0  0  0  0  0  0  0  0  0
  182.8100  177.1500  138.5610 C   0  0  0  0  0  0  0  0  0  0  0  0
  182.9180  175.3160  136.8700 C   0  0  1  0  0  3  0  0  0  0  0  0
  186.7810  178.3700  137.4710 C   0  0  0  0  0  3  0  0  0  0  0  0
  182.4430  178.2070  140.8970 C   0  0  0  0  0  2  0  0  0  0  0  0
  181.9170  177.9520  139.4770 C   0  0  1  0  0  3  0  0  0  0  0  0
  185.0070  178.3900  139.0640 C   0  0  0  0  0  0  0  0  0  0  0  0
  182.2110  176.1630  137.8850 C   0  0  0  0  0  3  0  0  0  0  0  0
  180.9730  180.5670  136.8780 C   0  0  0  0  0  0  0  0  0  0  0  0
  180.3730  181.5220  137.7010 C   0  0  0  0  0  3  0  0  0  0  0  0
  181.3900  179.1960  138.8280 C   0  0  0  0  0  0  0  0  0  0  0  0
  180.2910  181.3090  139.0430 N   0  0  0  0  0  0  0  0  0  0  0  0
  181.4820  179.3990  137.4460 C   0  0  0  0  0  3  0  0  0  0  0  0
  180.7820  180.1770  139.6160 C   0  0  0  0  0  3  0  0  0  0  0  0
  181.0570  180.7710  135.5420 F   0  0  0  0  0  0  0  0  0  0  0  0
  185.6070  179.3800  141.3150 C   0  0  0  0  0  2  0  0  0  0  0  0
  186.2110  178.2120  142.0740 C   0  0  0  0  0  2  0  0  0  0  0  0
  187.6970  178.0940  141.7710 C   0  0  0  0  0  2  0  0  0  0  0  0
  188.2780  175.6640  143.3420 O   0  0  0  0  0  1  0  0  0  0  0  0
  188.5140  178.0480  143.0570 C   0  0  1  0  0  3  0  0  0  0  0  0
  188.0870  176.8940  143.9770 C   0  0  2  0  0  3  0  0  0  0  0  0
  190.1960  177.6610  145.2350 C   0  0  0  0  0  2  0  0  0  0  0  0
  190.8680  177.4530  143.8810 C   0  0  0  0  0  2  0  0  0  0  0  0
  190.0150  178.0100  142.7340 C   0  0  0  0  0  2  0  0  0  0  0  0
  188.8590  176.9120  145.3050 C   0  0  0  0  0  2  0  0  0  0  0  0
  1 12  1  0  0  0  0
  1  8  1  0  0  0  0
  2  8  2  0  0  0  0
  2 13  1  0  0  0  0
  3 11  1  0  0  0  0
  3 16  2  0  0  0  0
  6  2  1  0  0  0  0
  7 16  1  0  0  0  0
  8  3  1  0  0  0  0
  9  4  1  0  0  0  0
  9 25  1  1  0  0  0
 10  1  2  0  0  0  0
 11 15  1  0  0  0  0
 12  5  1  1  0  0  0
 12 17  1  0  0  0  0
 13  7  2  0  0  0  0
 14  4  1  0  0  0  0
 15 20  1  6  0  0  0
 15 14  1  0  0  0  0
 16  9  1  0  0  0  0
 17 11  2  0  0  0  0
 18 22  2  0  0  0  0
 18 19  1  0  0  0  0
 19 21  2  0  0  0  0
 20 23  2  0  0  0  0
 21 23  1  0  0  0  0
 22 20  1  0  0  0  0
 24 18  1  0  0  0  0
 25 26  1  0  0  0  0
 27 26  1  0  0  0  0
 29 27  1  6  0  0  0
 29 30  1  0  0  0  0
 30 28  1  6  0  0  0
 30 34  1  0  0  0  0
 31 34  1  0  0  0  0
 32 31  1  0  0  0  0
 33 29  1  0  0  0  0
 33 32  1  0  0  0  0
M  END
>  <MODEL>
8

>  <REMARK>
 VINA RESULT:      -6.9      2.746      5.133
  Name = 
  5 active torsions:
  status: ('A' for Active; 'I' for Inactive)
    1  A    between atoms: C_3  and  C_13
    2  A    between atoms: C_3  and  C_17
    3  A    between atoms: C_12  and  C_28
    4  A    between atoms: C_17  and  C_29
    5  A    between atoms: C_18  and  C_29
                            x       y       z     vdW  Elec       q    Type
                         _______ _______ _______ _____ _____    ______ ____

>  <TORSDO>
F 5

$$$$
=
 OpenBabel10262423443D

 34 38  0  0  1  0  0  0  0  0999 V2000
  191.1110  174.3910  137.1740 C   0  0  0  0  0  0  0  0  0  0  0  0
  188.7060  173.8650  136.6200 C   0  0  0  0  0  0  0  0  0  0  0  0
  189.2700  175.9940  137.6730 C   0  0  0  0  0  0  0  0  0  0  0  0
  188.3610  178.7040  137.6780 O   0  0  0  0  0  0  0  0  0  0  0  0
  192.4810  176.0550  135.9750 C   0  0  0  0  0  1  0  0  0  0  0  0
  189.0540  172.6150  136.1210 O   0  0  0  0  0  1  0  0  0  0  0  0
  187.0130  175.4860  137.0260 N   0  0  0  0  0  0  0  0  0  0  0  0
  189.6700  174.7380  137.1580 C   0  0  0  0  0  0  0  0  0  0  0  0
  187.4130  177.7290  137.9970 C   0  0  2  0  0  3  0  0  0  0  0  0
  191.5040  173.2050  137.0110 O   0  0  0  0  0  0  0  0  0  0  0  0
  190.3020  176.8580  138.3470 C   0  0  0  0  0  0  0  0  0  0  0  0
  192.1240  175.4810  137.3340 C   0  0  1  0  0  3  0  0  0  0  0  0
  187.3760  174.2610  136.5750 C   0  0  0  0  0  3  0  0  0  0  0  0
  188.9820  179.0190  138.8910 C   0  0  0  0  0  2  0  0  0  0  0  0
  189.9600  177.9290  139.3540 C   0  0  1  0  0  3  0  0  0  0  0  0
  187.9060  176.3730  137.5460 C   0  0  0  0  0  0  0  0  0  0  0  0
  191.6030  176.5720  138.2230 C   0  0  0  0  0  3  0  0  0  0  0  0
  190.1120  176.0430  142.6560 C   0  0  0  0  0  0  0  0  0  0  0  0
  188.8660  176.3830  143.1870 C   0  0  0  0  0  3  0  0  0  0  0  0
  189.6010  177.3680  140.6960 C   0  0  0  0  0  0  0  0  0  0  0  0
  188.0240  177.1900  142.4850 N   0  0  0  0  0  0  0  0  0  0  0  0
  190.4790  176.5400  141.4050 C   0  0  0  0  0  3  0  0  0  0  0  0
  188.3640  177.6840  141.2640 C   0  0  0  0  0  3  0  0  0  0  0  0
  190.9550  175.2420  143.3480 F   0  0  0  0  0  0  0  0  0  0  0  0
  186.0750  178.1130  137.3770 C   0  0  0  0  0  2  0  0  0  0  0  0
  185.0630  178.4140  138.4680 C   0  0  0  0  0  2  0  0  0  0  0  0
  183.6620  178.0420  138.0090 C   0  0  0  0  0  2  0  0  0  0  0  0
  182.2740  175.5590  138.7950 O   0  0  0  0  0  1  0  0  0  0  0  0
  183.6740  176.7370  137.2220 C   0  0  1  0  0  3  0  0  0  0  0  0
  183.5020  175.5090  138.1290 C   0  0  2  0  0  3  0  0  0  0  0  0
  183.3020  174.3570  135.8380 C   0  0  0  0  0  2  0  0  0  0  0  0
  182.2050  175.3920  135.6070 C   0  0  0  0  0  2  0  0  0  0  0  0
  182.6270  176.7820  136.0990 C   0  0  0  0  0  2  0  0  0  0  0  0
  183.6020  174.1980  137.3350 C   0  0  0  0  0  2  0  0  0  0  0  0
  1 12  1  0  0  0  0
  2  8  1  0  0  0  0
  3 11  1  0  0  0  0
  4  9  1  0  0  0  0
  4 14  1  0  0  0  0
  6  2  1  0  0  0  0
  7 16  2  0  0  0  0
  8  1  1  0  0  0  0
  8  3  2  0  0  0  0
  9 25  1  6  0  0  0
 10  1  2  0  0  0  0
 11 15  1  0  0  0  0
 12  5  1  6  0  0  0
 12 17  1  0  0  0  0
 13  2  2  0  0  0  0
 13  7  1  0  0  0  0
 14 15  1  0  0  0  0
 15 20  1  1  0  0  0
 16  3  1  0  0  0  0
 16  9  1  0  0  0  0
 17 11  2  0  0  0  0
 18 19  1  0  0  0  0
 18 24  1  0  0  0  0
 20 23  2  0  0  0  0
 20 22  1  0  0  0  0
 21 19  2  0  0  0  0
 22 18  2  0  0  0  0
 23 21  1  0  0  0  0
 25 26  1  0  0  0  0
 27 26  1  0  0  0  0
 29 27  1  1  0  0  0
 29 30  1  0  0  0  0
 30 28  1  6  0  0  0
 31 34  1  0  0  0  0
 32 31  1  0  0  0  0
 32 33  1  0  0  0  0
 33 29  1  0  0  0  0
 34 30  1  0  0  0  0
M  END
>  <MODEL>
9

>  <REMARK>
 VINA RESULT:      -6.9      2.977      7.834
  Name = 
  5 active torsions:
  status: ('A' for Active; 'I' for Inactive)
    1  A    between atoms: C_3  and  C_13
    2  A    between atoms: C_3  and  C_17
    3  A    between atoms: C_12  and  C_28
    4  A    between atoms: C_17  and  C_29
    5  A    between atoms: C_18  and  C_29
                            x       y       z     vdW  Elec       q    Type
                         _______ _______ _______ _____ _____    ______ ____

>  <TORSDO>
F 5

$$$$
