=
 OpenBabel10272413313D

 32 36  0  0  1  0  0  0  0  0999 V2000
  180.6060  179.1020  141.1450 C   0  0  1  0  0  3  0  0  0  0  0  0
  185.4290  177.9640  142.5310 C   0  0  0  0  0  0  0  0  0  0  0  0
  185.6160  178.6260  147.3440 C   0  0  0  0  0  3  0  0  0  0  0  0
  186.9340  178.1650  147.3440 C   0  0  0  0  0  3  0  0  0  0  0  0
  183.4360  178.4880  141.2530 C   0  0  0  0  0  0  0  0  0  0  0  0
  183.4570  178.8220  143.6590 C   0  0  0  0  0  3  0  0  0  0  0  0
  181.3820  179.4370  142.4230 C   0  0  0  0  0  2  0  0  0  0  0  0
  184.8980  178.6940  146.1490 C   0  0  0  0  0  3  0  0  0  0  0  0
  184.7830  178.3660  143.7210 C   0  0  0  0  0  0  0  0  0  0  0  0
  185.4900  178.3010  144.9350 C   0  0  0  0  0  0  0  0  0  0  0  0
  187.4220  177.4390  143.7240 C   0  0  0  0  0  0  0  0  0  0  0  0
  181.4790  179.3430  139.9140 C   0  0  0  0  0  2  0  0  0  0  0  0
  182.7750  178.8710  142.4400 C   0  0  0  0  0  0  0  0  0  0  0  0
  182.7260  178.4560  139.9300 C   0  0  0  0  0  2  0  0  0  0  0  0
  187.5370  177.7710  146.1480 C   0  0  0  0  0  3  0  0  0  0  0  0
  186.8280  177.8330  144.9390 C   0  0  0  0  0  0  0  0  0  0  0  0
  184.7520  178.0230  141.3120 C   0  0  0  0  0  3  0  0  0  0  0  0
  186.7120  177.5200  142.5670 N   0  0  0  0  0  0  0  0  0  0  0  0
  180.0630  177.6790  141.1720 C   0  0  0  0  0  2  0  0  0  0  0  0
  180.1110  175.7440  139.5600 C   0  0  0  0  0  0  0  0  0  0  0  0
  180.0050  177.1430  139.8210 N   0  0  0  0  0  2  0  0  0  0  0  0
  180.2620  174.9240  140.5030 O   0  0  0  0  0  0  0  0  0  0  0  0
  180.0440  175.2510  138.1590 C   0  0  0  0  0  1  0  0  0  0  0  0
  188.8430  176.9730  143.6600 C   0  0  0  0  0  2  0  0  0  0  0  0
  189.7830  177.1850  141.3550 C   0  0  1  0  0  3  0  0  0  0  0  0
  191.0660  177.9910  143.2130 C   0  0  1  0  0  3  0  0  0  0  0  0
  191.9470  177.9810  142.0560 N   0  0  0  0  0  2  0  0  0  0  0  0
  191.2670  177.1790  141.0480 C   0  0  0  0  0  2  0  0  0  0  0  0
  191.2180  179.2990  143.9620 C   0  0  0  0  0  1  0  0  0  0  0  0
  189.6500  177.8450  142.7080 C   0  0  2  0  0  3  0  0  0  0  0  0
  188.5080  178.6070  139.5570 N   0  0  0  0  0  0  0  0  0  0  0  0
  189.0700  177.9780  140.3480 C   0  0  0  0  0  0  0  0  0  0  0  0
  1 19  1  1  0  0  0
  1  7  1  0  0  0  0
  2 18  2  0  0  0  0
  2  9  1  0  0  0  0
  4  3  1  0  0  0  0
  5 17  2  0  0  0  0
  5 13  1  0  0  0  0
  6  9  1  0  0  0  0
  7 13  1  0  0  0  0
  8  3  2  0  0  0  0
  9 10  2  0  0  0  0
 10 16  1  0  0  0  0
 10  8  1  0  0  0  0
 11 16  2  0  0  0  0
 12 14  1  0  0  0  0
 12  1  1  0  0  0  0
 13  6  2  0  0  0  0
 14  5  1  0  0  0  0
 15  4  2  0  0  0  0
 16 15  1  0  0  0  0
 17  2  1  0  0  0  0
 18 11  1  0  0  0  0
 20 21  1  0  0  0  0
 20 22  2  0  0  0  0
 21 19  1  0  0  0  0
 23 20  1  0  0  0  0
 24 11  1  0  0  0  0
 25 32  1  6  0  0  0
 25 30  1  0  0  0  0
 26 29  1  6  0  0  0
 27 26  1  0  0  0  0
 28 25  1  0  0  0  0
 28 27  1  0  0  0  0
 30 26  1  0  0  0  0
 30 24  1  1  0  0  0
 31 32  3  0  0  0  0
M  END
>  <MODEL>
1

>  <REMARK>
 VINA RESULT:      -9.5      0.000      0.000
  Name = 
  5 active torsions:
  status: ('A' for Active; 'I' for Inactive)
    1  A    between atoms: C_2  and  C_24
    2  A    between atoms: C_7  and  C_29
    3  A    between atoms: N_10  and  C_24
    4  A    between atoms: C_16  and  C_27
    5  A    between atoms: C_27  and  C_32
                            x       y       z     vdW  Elec       q    Type
                         _______ _______ _______ _____ _____    ______ ____

>  <TORSDO>
F 5

$$$$
=
 OpenBabel10272413313D

 32 36  0  0  1  0  0  0  0  0999 V2000
  188.6410  177.7260  136.9670 C   0  0  1  0  0  3  0  0  0  0  0  0
  188.5070  177.2930  142.0930 C   0  0  0  0  0  0  0  0  0  0  0  0
  184.3310  179.3540  143.4870 C   0  0  0  0  0  3  0  0  0  0  0  0
  184.6010  178.9820  144.8050 C   0  0  0  0  0  3  0  0  0  0  0  0
  189.2230  177.3150  139.7760 C   0  0  0  0  0  0  0  0  0  0  0  0
  187.1140  178.3440  140.4040 C   0  0  0  0  0  3  0  0  0  0  0  0
  187.7920  178.4610  138.0080 C   0  0  0  0  0  2  0  0  0  0  0  0
  185.2300  179.0300  142.4700 C   0  0  0  0  0  3  0  0  0  0  0  0
  187.3310  177.9950  141.7450 C   0  0  0  0  0  0  0  0  0  0  0  0
  186.4130  178.3270  142.7570 C   0  0  0  0  0  0  0  0  0  0  0  0
  187.8680  177.2450  144.3860 C   0  0  0  0  0  0  0  0  0  0  0  0
  190.0940  177.6360  137.4330 C   0  0  0  0  0  2  0  0  0  0  0  0
  188.0410  177.9970  139.4160 C   0  0  0  0  0  0  0  0  0  0  0  0
  190.2150  176.8580  138.7440 C   0  0  0  0  0  2  0  0  0  0  0  0
  185.7710  178.2830  145.1080 C   0  0  0  0  0  3  0  0  0  0  0  0
  186.6840  177.9490  144.0960 C   0  0  0  0  0  0  0  0  0  0  0  0
  189.4370  176.9550  141.1090 C   0  0  0  0  0  3  0  0  0  0  0  0
  188.7380  176.9450  143.3850 N   0  0  0  0  0  0  0  0  0  0  0  0
  188.0740  176.3480  136.6480 C   0  0  0  0  0  2  0  0  0  0  0  0
  185.8140  175.2840  136.9720 C   0  0  0  0  0  0  0  0  0  0  0  0
  186.6210  176.4040  136.6110 N   0  0  0  0  0  2  0  0  0  0  0  0
  186.3440  174.2010  137.3370 O   0  0  0  0  0  0  0  0  0  0  0  0
  184.3330  175.3970  136.9170 C   0  0  0  0  0  1  0  0  0  0  0  0
  188.2260  176.8540  145.7860 C   0  0  0  0  0  2  0  0  0  0  0  0
  190.6990  177.0400  145.4800 C   0  0  1  0  0  3  0  0  0  0  0  0
  189.7800  177.2570  147.6830 C   0  0  1  0  0  3  0  0  0  0  0  0
  191.2210  177.1250  147.8310 N   0  0  0  0  0  2  0  0  0  0  0  0
  191.7090  176.6550  146.5420 C   0  0  0  0  0  2  0  0  0  0  0  0
  189.2740  178.3830  148.5600 C   0  0  0  0  0  1  0  0  0  0  0  0
  189.4970  177.5640  146.2320 C   0  0  2  0  0  3  0  0  0  0  0  0
  191.6810  178.9390  143.9600 N   0  0  0  0  0  0  0  0  0  0  0  0
  191.2490  178.1020  144.6310 C   0  0  0  0  0  0  0  0  0  0  0  0
  1 19  1  1  0  0  0
  1 12  1  0  0  0  0
  1  7  1  0  0  0  0
  2 18  1  0  0  0  0
  3  4  1  0  0  0  0
  4 15  2  0  0  0  0
  5 17  1  0  0  0  0
  6  9  2  0  0  0  0
  7 13  1  0  0  0  0
  8 10  1  0  0  0  0
  8  3  2  0  0  0  0
  9  2  1  0  0  0  0
  9 10  1  0  0  0  0
 10 16  2  0  0  0  0
 11 24  1  0  0  0  0
 12 14  1  0  0  0  0
 13  5  2  0  0  0  0
 13  6  1  0  0  0  0
 14  5  1  0  0  0  0
 16 11  1  0  0  0  0
 16 15  1  0  0  0  0
 17  2  2  0  0  0  0
 18 11  2  0  0  0  0
 20 22  2  0  0  0  0
 21 19  1  0  0  0  0
 21 20  1  0  0  0  0
 23 20  1  0  0  0  0
 25 32  1  6  0  0  0
 25 30  1  0  0  0  0
 25 28  1  0  0  0  0
 26 27  1  0  0  0  0
 26 29  1  1  0  0  0
 28 27  1  0  0  0  0
 30 24  1  6  0  0  0
 30 26  1  0  0  0  0
 31 32  3  0  0  0  0
M  END
>  <MODEL>
2

>  <REMARK>
 VINA RESULT:      -9.3      3.091      5.421
  Name = 
  5 active torsions:
  status: ('A' for Active; 'I' for Inactive)
    1  A    between atoms: C_2  and  C_24
    2  A    between atoms: C_7  and  C_29
    3  A    between atoms: N_10  and  C_24
    4  A    between atoms: C_16  and  C_27
    5  A    between atoms: C_27  and  C_32
                            x       y       z     vdW  Elec       q    Type
                         _______ _______ _______ _____ _____    ______ ____

>  <TORSDO>
F 5

$$$$
=
 OpenBabel10272413313D

 32 36  0  0  1  0  0  0  0  0999 V2000
  189.8660  177.1880  136.7750 C   0  0  1  0  0  3  0  0  0  0  0  0
  189.0390  177.0370  141.8520 C   0  0  0  0  0  0  0  0  0  0  0  0
  184.8600  179.4110  142.5840 C   0  0  0  0  0  3  0  0  0  0  0  0
  184.9320  179.0940  143.9420 C   0  0  0  0  0  3  0  0  0  0  0  0
  190.0500  176.8940  139.6520 C   0  0  0  0  0  0  0  0  0  0  0  0
  187.9490  178.0770  139.9470 C   0  0  0  0  0  3  0  0  0  0  0  0
  188.9390  178.0260  137.6600 C   0  0  0  0  0  2  0  0  0  0  0  0
  185.8610  178.9810  141.7110 C   0  0  0  0  0  3  0  0  0  0  0  0
  187.9660  177.7870  141.3200 C   0  0  0  0  0  0  0  0  0  0  0  0
  186.9480  178.2260  142.1850 C   0  0  0  0  0  0  0  0  0  0  0  0
  188.1060  177.1490  144.0390 C   0  0  0  0  0  0  0  0  0  0  0  0
  191.2370  177.0380  137.4340 C   0  0  0  0  0  2  0  0  0  0  0  0
  188.9710  177.6240  139.1080 C   0  0  0  0  0  0  0  0  0  0  0  0
  191.1350  176.3250  138.7830 C   0  0  0  0  0  2  0  0  0  0  0  0
  186.0050  178.3440  144.4290 C   0  0  0  0  0  3  0  0  0  0  0  0
  187.0180  177.9040  143.5640 C   0  0  0  0  0  0  0  0  0  0  0  0
  190.0650  176.5940  141.0160 C   0  0  0  0  0  3  0  0  0  0  0  0
  189.0770  176.7450  143.1780 N   0  0  0  0  0  0  0  0  0  0  0  0
  189.2570  175.8310  136.4460 C   0  0  0  0  0  2  0  0  0  0  0  0
  190.5330  173.6620  136.3240 C   0  0  0  0  0  0  0  0  0  0  0  0
  190.2560  174.9720  135.8290 N   0  0  0  0  0  2  0  0  0  0  0  0
  189.9120  173.2070  137.3200 O   0  0  0  0  0  0  0  0  0  0  0  0
  191.5640  172.8270  135.6540 C   0  0  0  0  0  1  0  0  0  0  0  0
  188.2530  176.8120  145.4910 C   0  0  0  0  0  2  0  0  0  0  0  0
  190.7420  177.0240  145.4320 C   0  0  1  0  0  3  0  0  0  0  0  0
  189.6120  177.1560  147.5430 C   0  0  1  0  0  3  0  0  0  0  0  0
  191.0330  177.0280  147.8250 N   0  0  0  0  0  2  0  0  0  0  0  0
  191.6490  176.6070  146.5740 C   0  0  0  0  0  2  0  0  0  0  0  0
  189.0140  178.2480  148.4060 C   0  0  0  0  0  1  0  0  0  0  0  0
  189.4680  177.5130  146.0820 C   0  0  2  0  0  3  0  0  0  0  0  0
  191.8540  178.9810  144.0860 N   0  0  0  0  0  0  0  0  0  0  0  0
  191.3620  178.1180  144.6790 C   0  0  0  0  0  0  0  0  0  0  0  0
  1 19  1  1  0  0  0
  1 12  1  0  0  0  0
  1  7  1  0  0  0  0
  2 18  1  0  0  0  0
  3  4  1  0  0  0  0
  4 15  2  0  0  0  0
  5 17  1  0  0  0  0
  6  9  2  0  0  0  0
  7 13  1  0  0  0  0
  8 10  1  0  0  0  0
  8  3  2  0  0  0  0
  9  2  1  0  0  0  0
  9 10  1  0  0  0  0
 10 16  2  0  0  0  0
 11 24  1  0  0  0  0
 12 14  1  0  0  0  0
 13  5  2  0  0  0  0
 13  6  1  0  0  0  0
 14  5  1  0  0  0  0
 16 11  1  0  0  0  0
 16 15  1  0  0  0  0
 17  2  2  0  0  0  0
 18 11  2  0  0  0  0
 20 22  2  0  0  0  0
 21 20  1  0  0  0  0
 21 19  1  0  0  0  0
 23 20  1  0  0  0  0
 25 32  1  1  0  0  0
 25 30  1  0  0  0  0
 25 28  1  0  0  0  0
 26 27  1  0  0  0  0
 26 29  1  1  0  0  0
 28 27  1  0  0  0  0
 30 24  1  6  0  0  0
 30 26  1  0  0  0  0
 31 32  3  0  0  0  0
M  END
>  <MODEL>
3

>  <REMARK>
 VINA RESULT:      -9.1      3.851      6.771
  Name = 
  5 active torsions:
  status: ('A' for Active; 'I' for Inactive)
    1  A    between atoms: C_2  and  C_24
    2  A    between atoms: C_7  and  C_29
    3  A    between atoms: N_10  and  C_24
    4  A    between atoms: C_16  and  C_27
    5  A    between atoms: C_27  and  C_32
                            x       y       z     vdW  Elec       q    Type
                         _______ _______ _______ _____ _____    ______ ____

>  <TORSDO>
F 5

$$$$
=
 OpenBabel10272413313D

 32 36  0  0  1  0  0  0  0  0999 V2000
  187.7840  177.0590  136.3610 C   0  0  1  0  0  3  0  0  0  0  0  0
  189.5390  177.8130  141.1390 C   0  0  0  0  0  0  0  0  0  0  0  0
  185.5950  178.1960  143.9550 C   0  0  0  0  0  3  0  0  0  0  0  0
  186.4200  178.2880  145.0770 C   0  0  0  0  0  3  0  0  0  0  0  0
  189.3640  177.5940  138.7300 C   0  0  0  0  0  0  0  0  0  0  0  0
  187.3540  177.7600  140.0820 C   0  0  0  0  0  3  0  0  0  0  0  0
  187.0760  177.5910  137.6110 C   0  0  0  0  0  2  0  0  0  0  0  0
  186.1550  178.0520  142.6840 C   0  0  0  0  0  3  0  0  0  0  0  0
  188.1320  177.8550  141.2460 C   0  0  0  0  0  0  0  0  0  0  0  0
  187.5500  177.9980  142.5190 C   0  0  0  0  0  0  0  0  0  0  0  0
  189.7830  178.0350  143.4960 C   0  0  0  0  0  0  0  0  0  0  0  0
  189.1650  177.6970  136.2190 C   0  0  0  0  0  2  0  0  0  0  0  0
  187.9560  177.6140  138.8300 C   0  0  0  0  0  0  0  0  0  0  0  0
  190.0590  177.3690  137.4170 C   0  0  0  0  0  2  0  0  0  0  0  0
  187.8080  178.2350  144.9310 C   0  0  0  0  0  3  0  0  0  0  0  0
  188.3860  178.0900  143.6610 C   0  0  0  0  0  0  0  0  0  0  0  0
  190.1420  177.6770  139.8870 C   0  0  0  0  0  3  0  0  0  0  0  0
  190.3130  177.9040  142.2520 N   0  0  0  0  0  0  0  0  0  0  0  0
  187.8720  175.5380  136.3670 C   0  0  0  0  0  2  0  0  0  0  0  0
  186.4920  173.5630  137.1020 C   0  0  0  0  0  0  0  0  0  0  0  0
  186.6730  174.9720  136.9650 N   0  0  0  0  0  2  0  0  0  0  0  0
  187.3760  172.7600  136.7020 O   0  0  0  0  0  0  0  0  0  0  0  0
  185.2470  173.0390  137.7220 C   0  0  0  0  0  1  0  0  0  0  0  0
  190.7150  178.1670  144.6610 C   0  0  0  0  0  2  0  0  0  0  0  0
  190.5710  177.2650  146.9870 C   0  0  1  0  0  3  0  0  0  0  0  0
  191.9820  176.1590  145.3950 C   0  0  1  0  0  3  0  0  0  0  0  0
  192.3000  175.6090  146.7040 N   0  0  0  0  0  2  0  0  0  0  0  0
  191.6990  176.5180  147.6710 C   0  0  0  0  0  2  0  0  0  0  0  0
  191.8380  175.0360  144.3880 C   0  0  0  0  0  1  0  0  0  0  0  0
  190.6780  176.9110  145.5210 C   0  0  2  0  0  3  0  0  0  0  0  0
  188.2650  176.4410  147.9250 N   0  0  0  0  0  0  0  0  0  0  0  0
  189.2810  176.8060  147.5100 C   0  0  0  0  0  0  0  0  0  0  0  0
  1 19  1  1  0  0  0
  1  7  1  0  0  0  0
  2  9  1  0  0  0  0
  2 18  1  0  0  0  0
  3  4  1  0  0  0  0
  5 13  2  0  0  0  0
  5 17  1  0  0  0  0
  6  9  2  0  0  0  0
  7 13  1  0  0  0  0
  8  3  2  0  0  0  0
  9 10  1  0  0  0  0
 10  8  1  0  0  0  0
 10 16  2  0  0  0  0
 11 16  1  0  0  0  0
 11 24  1  0  0  0  0
 12  1  1  0  0  0  0
 12 14  1  0  0  0  0
 13  6  1  0  0  0  0
 14  5  1  0  0  0  0
 15  4  2  0  0  0  0
 16 15  1  0  0  0  0
 17  2  2  0  0  0  0
 18 11  2  0  0  0  0
 19 21  1  0  0  0  0
 20 23  1  0  0  0  0
 21 20  1  0  0  0  0
 22 20  2  0  0  0  0
 25 32  1  1  0  0  0
 25 28  1  0  0  0  0
 26 29  1  6  0  0  0
 26 30  1  0  0  0  0
 26 27  1  0  0  0  0
 27 28  1  0  0  0  0
 30 24  1  6  0  0  0
 30 25  1  0  0  0  0
 32 31  3  0  0  0  0
M  END
>  <MODEL>
4

>  <REMARK>
 VINA RESULT:      -8.4      3.656      5.851
  Name = 
  5 active torsions:
  status: ('A' for Active; 'I' for Inactive)
    1  A    between atoms: C_2  and  C_24
    2  A    between atoms: C_7  and  C_29
    3  A    between atoms: N_10  and  C_24
    4  A    between atoms: C_16  and  C_27
    5  A    between atoms: C_27  and  C_32
                            x       y       z     vdW  Elec       q    Type
                         _______ _______ _______ _____ _____    ______ ____

>  <TORSDO>
F 5

$$$$
=
 OpenBabel10272413313D

 32 36  0  0  1  0  0  0  0  0999 V2000
  191.5160  177.7210  144.2320 C   0  0  1  0  0  3  0  0  0  0  0  0
  188.8130  177.6520  139.8540 C   0  0  0  0  0  0  0  0  0  0  0  0
  191.8990  176.1420  136.4150 C   0  0  0  0  0  3  0  0  0  0  0  0
  190.8560  176.1640  135.4860 C   0  0  0  0  0  3  0  0  0  0  0  0
  189.5410  178.0370  142.1350 C   0  0  0  0  0  0  0  0  0  0  0  0
  191.1290  177.2620  140.4680 C   0  0  0  0  0  3  0  0  0  0  0  0
  191.9810  177.6800  142.7730 C   0  0  0  0  0  2  0  0  0  0  0  0
  191.6620  176.5040  137.7420 C   0  0  0  0  0  3  0  0  0  0  0  0
  190.1210  177.2630  139.4920 C   0  0  0  0  0  0  0  0  0  0  0  0
  190.3770  176.8930  138.1590 C   0  0  0  0  0  0  0  0  0  0  0  0
  188.0330  177.3030  137.6320 C   0  0  0  0  0  0  0  0  0  0  0  0
  190.3890  178.7380  144.4020 C   0  0  0  0  0  2  0  0  0  0  0  0
  190.8470  177.6300  141.7870 C   0  0  0  0  0  0  0  0  0  0  0  0
  189.1710  178.3730  143.5510 C   0  0  0  0  0  2  0  0  0  0  0  0
  189.5740  176.5480  135.8840 C   0  0  0  0  0  3  0  0  0  0  0  0
  189.3200  176.9130  137.2150 C   0  0  0  0  0  0  0  0  0  0  0  0
  188.5330  178.0290  141.1680 C   0  0  0  0  0  3  0  0  0  0  0  0
  187.8210  177.6610  138.9260 N   0  0  0  0  0  0  0  0  0  0  0  0
  191.1000  176.3430  144.7300 C   0  0  0  0  0  2  0  0  0  0  0  0
  191.7300  176.2370  147.1670 C   0  0  0  0  0  0  0  0  0  0  0  0
  191.9860  175.9120  145.8010 N   0  0  0  0  0  2  0  0  0  0  0  0
  190.7180  176.9140  147.4880 O   0  0  0  0  0  0  0  0  0  0  0  0
  192.6680  175.7700  148.2210 C   0  0  0  0  0  1  0  0  0  0  0  0
  186.8870  177.3810  136.6710 C   0  0  0  0  0  2  0  0  0  0  0  0
  185.4990  175.3360  136.3070 C   0  0  1  0  0  3  0  0  0  0  0  0
  184.4310  177.3510  137.0470 C   0  0  1  0  0  3  0  0  0  0  0  0
  183.3780  176.4280  136.6550 N   0  0  0  0  0  2  0  0  0  0  0  0
  184.0400  175.3720  135.9000 C   0  0  0  0  0  2  0  0  0  0  0  0
  184.0850  177.9900  138.3760 C   0  0  0  0  0  1  0  0  0  0  0  0
  185.7100  176.5570  137.1730 C   0  0  2  0  0  3  0  0  0  0  0  0
  185.9820  173.1720  137.7090 N   0  0  0  0  0  0  0  0  0  0  0  0
  185.7670  174.1260  137.0900 C   0  0  0  0  0  0  0  0  0  0  0  0
  1 12  1  0  0  0  0
  1 19  1  6  0  0  0
  2 17  1  0  0  0  0
  3  8  1  0  0  0  0
  4 15  1  0  0  0  0
  4  3  2  0  0  0  0
  5 14  1  0  0  0  0
  6 13  2  0  0  0  0
  7  1  1  0  0  0  0
  8 10  2  0  0  0  0
  9  2  2  0  0  0  0
  9  6  1  0  0  0  0
 10  9  1  0  0  0  0
 11 18  2  0  0  0  0
 13  5  1  0  0  0  0
 13  7  1  0  0  0  0
 14 12  1  0  0  0  0
 15 16  2  0  0  0  0
 16 11  1  0  0  0  0
 16 10  1  0  0  0  0
 17  5  2  0  0  0  0
 18  2  1  0  0  0  0
 19 21  1  0  0  0  0
 20 22  2  0  0  0  0
 20 23  1  0  0  0  0
 21 20  1  0  0  0  0
 24 11  1  0  0  0  0
 25 32  1  1  0  0  0
 25 30  1  0  0  0  0
 26 30  1  0  0  0  0
 26 29  1  1  0  0  0
 27 26  1  0  0  0  0
 28 25  1  0  0  0  0
 28 27  1  0  0  0  0
 30 24  1  6  0  0  0
 32 31  3  0  0  0  0
M  END
>  <MODEL>
5

>  <REMARK>
 VINA RESULT:      -8.3      4.206      9.546
  Name = 
  5 active torsions:
  status: ('A' for Active; 'I' for Inactive)
    1  A    between atoms: C_2  and  C_24
    2  A    between atoms: C_7  and  C_29
    3  A    between atoms: N_10  and  C_24
    4  A    between atoms: C_16  and  C_27
    5  A    between atoms: C_27  and  C_32
                            x       y       z     vdW  Elec       q    Type
                         _______ _______ _______ _____ _____    ______ ____

>  <TORSDO>
F 5

$$$$
=
 OpenBabel10272413313D

 32 36  0  0  1  0  0  0  0  0999 V2000
  191.8170  177.4440  143.6980 C   0  0  1  0  0  3  0  0  0  0  0  0
  188.1440  178.1010  140.1550 C   0  0  0  0  0  0  0  0  0  0  0  0
  189.7120  175.7890  136.1760 C   0  0  0  0  0  3  0  0  0  0  0  0
  188.5080  176.0930  135.5390 C   0  0  0  0  0  3  0  0  0  0  0  0
  189.5190  178.2810  142.1450 C   0  0  0  0  0  0  0  0  0  0  0  0
  190.3530  177.0940  140.1970 C   0  0  0  0  0  3  0  0  0  0  0  0
  191.8570  177.2710  142.1770 C   0  0  0  0  0  2  0  0  0  0  0  0
  189.9350  176.2080  137.4890 C   0  0  0  0  0  3  0  0  0  0  0  0
  189.1620  177.3670  139.5070 C   0  0  0  0  0  0  0  0  0  0  0  0
  188.9540  176.9360  138.1840 C   0  0  0  0  0  0  0  0  0  0  0  0
  186.7480  177.9710  138.2310 C   0  0  0  0  0  0  0  0  0  0  0  0
  191.0830  178.7320  144.0680 C   0  0  0  0  0  2  0  0  0  0  0  0
  190.5330  177.5300  141.5130 C   0  0  0  0  0  0  0  0  0  0  0  0
  189.6340  178.7110  143.5790 C   0  0  0  0  0  2  0  0  0  0  0  0
  187.5220  176.8150  136.2150 C   0  0  0  0  0  3  0  0  0  0  0  0
  187.7310  177.2420  137.5360 C   0  0  0  0  0  0  0  0  0  0  0  0
  188.3270  178.5460  141.4650 C   0  0  0  0  0  3  0  0  0  0  0  0
  186.9840  178.3790  139.5060 N   0  0  0  0  0  0  0  0  0  0  0  0
  191.1980  176.2340  144.3870 C   0  0  0  0  0  2  0  0  0  0  0  0
  191.6510  176.2400  146.8650 C   0  0  0  0  0  0  0  0  0  0  0  0
  192.0020  175.8510  145.5380 N   0  0  0  0  0  2  0  0  0  0  0  0
  190.6240  176.9360  147.0810 O   0  0  0  0  0  0  0  0  0  0  0  0
  192.5080  175.8200  148.0040 C   0  0  0  0  0  1  0  0  0  0  0  0
  185.4530  178.3570  137.5840 C   0  0  0  0  0  2  0  0  0  0  0  0
  183.7220  176.6170  137.1150 C   0  0  1  0  0  3  0  0  0  0  0  0
  183.1660  178.4550  138.5500 C   0  0  1  0  0  3  0  0  0  0  0  0
  181.9230  177.7700  138.2310 N   0  0  0  0  0  2  0  0  0  0  0  0
  182.2320  176.8940  137.1080 C   0  0  0  0  0  2  0  0  0  0  0  0
  183.2220  178.7510  140.0340 C   0  0  0  0  0  1  0  0  0  0  0  0
  184.3030  177.5420  138.1600 C   0  0  2  0  0  3  0  0  0  0  0  0
  184.1580  174.1240  137.8030 N   0  0  0  0  0  0  0  0  0  0  0  0
  183.9670  175.2240  137.5000 C   0  0  0  0  0  0  0  0  0  0  0  0
  1 12  1  0  0  0  0
  1 19  1  1  0  0  0
  2 17  1  0  0  0  0
  3  8  1  0  0  0  0
  4  3  2  0  0  0  0
  4 15  1  0  0  0  0
  5 14  1  0  0  0  0
  6 13  2  0  0  0  0
  7  1  1  0  0  0  0
  8 10  2  0  0  0  0
  9  2  2  0  0  0  0
  9  6  1  0  0  0  0
 10  9  1  0  0  0  0
 11 18  2  0  0  0  0
 13  5  1  0  0  0  0
 13  7  1  0  0  0  0
 14 12  1  0  0  0  0
 15 16  2  0  0  0  0
 16 10  1  0  0  0  0
 16 11  1  0  0  0  0
 17  5  2  0  0  0  0
 18  2  1  0  0  0  0
 19 21  1  0  0  0  0
 20 22  2  0  0  0  0
 20 23  1  0  0  0  0
 21 20  1  0  0  0  0
 24 11  1  0  0  0  0
 25 32  1  1  0  0  0
 25 30  1  0  0  0  0
 26 29  1  1  0  0  0
 27 26  1  0  0  0  0
 28 25  1  0  0  0  0
 28 27  1  0  0  0  0
 30 24  1  6  0  0  0
 30 26  1  0  0  0  0
 32 31  3  0  0  0  0
M  END
>  <MODEL>
6

>  <REMARK>
 VINA RESULT:      -8.2      3.709      9.404
  Name = 
  5 active torsions:
  status: ('A' for Active; 'I' for Inactive)
    1  A    between atoms: C_2  and  C_24
    2  A    between atoms: C_7  and  C_29
    3  A    between atoms: N_10  and  C_24
    4  A    between atoms: C_16  and  C_27
    5  A    between atoms: C_27  and  C_32
                            x       y       z     vdW  Elec       q    Type
                         _______ _______ _______ _____ _____    ______ ____

>  <TORSDO>
F 5

$$$$
=
 OpenBabel10272413313D

 32 36  0  0  1  0  0  0  0  0999 V2000
  180.6290  178.9090  140.1190 C   0  0  1  0  0  3  0  0  0  0  0  0
  185.5580  178.5460  141.5530 C   0  0  0  0  0  0  0  0  0  0  0  0
  188.1070  178.1180  137.4360 C   0  0  0  0  0  3  0  0  0  0  0  0
  189.2890  178.1410  138.1790 C   0  0  0  0  0  3  0  0  0  0  0  0
  183.1330  178.6080  141.5460 C   0  0  0  0  0  0  0  0  0  0  0  0
  184.3480  178.4140  139.4510 C   0  0  0  0  0  3  0  0  0  0  0  0
  181.8580  178.4160  139.3490 C   0  0  0  0  0  2  0  0  0  0  0  0
  186.8730  178.2150  138.0800 C   0  0  0  0  0  3  0  0  0  0  0  0
  185.5680  178.4330  140.1450 C   0  0  0  0  0  0  0  0  0  0  0  0
  186.8030  178.3360  139.4790 C   0  0  0  0  0  0  0  0  0  0  0  0
  187.9360  178.4820  141.6320 C   0  0  0  0  0  0  0  0  0  0  0  0
  180.6270  178.3410  141.5380 C   0  0  0  0  0  2  0  0  0  0  0  0
  183.1340  178.5160  140.1370 C   0  0  0  0  0  0  0  0  0  0  0  0
  181.8610  178.7900  142.3230 C   0  0  0  0  0  2  0  0  0  0  0  0
  189.2380  178.2610  139.5700 C   0  0  0  0  0  3  0  0  0  0  0  0
  188.0050  178.3610  140.2310 C   0  0  0  0  0  0  0  0  0  0  0  0
  184.3460  178.6380  142.2390 C   0  0  0  0  0  3  0  0  0  0  0  0
  186.7260  178.5660  142.2450 N   0  0  0  0  0  0  0  0  0  0  0  0
  180.5420  180.4300  140.1300 C   0  0  0  0  0  2  0  0  0  0  0  0
  181.0830  181.7090  138.0280 C   0  0  0  0  0  0  0  0  0  0  0  0
  180.1860  180.9170  138.8060 N   0  0  0  0  0  2  0  0  0  0  0  0
  182.2220  182.0130  138.4710 O   0  0  0  0  0  0  0  0  0  0  0  0
  180.6670  182.1800  136.6810 C   0  0  0  0  0  1  0  0  0  0  0  0
  189.1690  178.4740  142.4820 C   0  0  0  0  0  2  0  0  0  0  0  0
  188.7700  178.0390  144.9100 C   0  0  1  0  0  3  0  0  0  0  0  0
  190.3950  176.7170  143.7420 C   0  0  1  0  0  3  0  0  0  0  0  0
  190.5680  176.4520  145.1620 N   0  0  0  0  0  2  0  0  0  0  0  0
  189.8280  177.5000  145.8520 C   0  0  0  0  0  2  0  0  0  0  0  0
  190.4070  175.4140  142.9710 C   0  0  0  0  0  1  0  0  0  0  0  0
  189.0650  177.4110  143.5660 C   0  0  2  0  0  3  0  0  0  0  0  0
  186.3900  177.2940  145.7210 N   0  0  0  0  0  0  0  0  0  0  0  0
  187.4400  177.6230  145.3650 C   0  0  0  0  0  0  0  0  0  0  0  0
  1 19  1  1  0  0  0
  1 12  1  0  0  0  0
  2 17  2  0  0  0  0
  2 18  1  0  0  0  0
  3  8  2  0  0  0  0
  3  4  1  0  0  0  0
  4 15  2  0  0  0  0
  5 17  1  0  0  0  0
  5 14  1  0  0  0  0
  6 13  1  0  0  0  0
  6  9  2  0  0  0  0
  7  1  1  0  0  0  0
  7 13  1  0  0  0  0
  8 10  1  0  0  0  0
  9  2  1  0  0  0  0
 10  9  1  0  0  0  0
 10 16  2  0  0  0  0
 11 18  2  0  0  0  0
 11 24  1  0  0  0  0
 12 14  1  0  0  0  0
 13  5  2  0  0  0  0
 15 16  1  0  0  0  0
 16 11  1  0  0  0  0
 20 22  2  0  0  0  0
 20 21  1  0  0  0  0
 21 19  1  0  0  0  0
 23 20  1  0  0  0  0
 25 32  1  1  0  0  0
 25 28  1  0  0  0  0
 26 29  1  6  0  0  0
 26 27  1  0  0  0  0
 27 28  1  0  0  0  0
 30 24  1  6  0  0  0
 30 26  1  0  0  0  0
 30 25  1  0  0  0  0
 32 31  3  0  0  0  0
M  END
>  <MODEL>
7

>  <REMARK>
 VINA RESULT:      -8.0      2.458      4.864
  Name = 
  5 active torsions:
  status: ('A' for Active; 'I' for Inactive)
    1  A    between atoms: C_2  and  C_24
    2  A    between atoms: C_7  and  C_29
    3  A    between atoms: N_10  and  C_24
    4  A    between atoms: C_16  and  C_27
    5  A    between atoms: C_27  and  C_32
                            x       y       z     vdW  Elec       q    Type
                         _______ _______ _______ _____ _____    ______ ____

>  <TORSDO>
F 5

$$$$
=
 OpenBabel10272413313D

 32 36  0  0  1  0  0  0  0  0999 V2000
  192.1570  175.3560  135.3780 C   0  0  1  0  0  3  0  0  0  0  0  0
  191.2560  177.2870  140.0620 C   0  0  0  0  0  0  0  0  0  0  0  0
  186.5370  178.4550  140.1280 C   0  0  0  0  0  3  0  0  0  0  0  0
  186.6590  178.8190  141.4700 C   0  0  0  0  0  3  0  0  0  0  0  0
  192.3310  176.4560  138.0530 C   0  0  0  0  0  0  0  0  0  0  0  0
  189.9640  177.0020  138.0250 C   0  0  0  0  0  3  0  0  0  0  0  0
  190.9940  176.2050  135.9000 C   0  0  0  0  0  2  0  0  0  0  0  0
  187.6470  177.9780  139.4290 C   0  0  0  0  0  3  0  0  0  0  0  0
  190.0250  177.3810  139.3750 C   0  0  0  0  0  0  0  0  0  0  0  0
  188.8950  177.8580  140.0640 C   0  0  0  0  0  0  0  0  0  0  0  0
  190.2650  178.1060  142.0650 C   0  0  0  0  0  0  0  0  0  0  0  0
  193.4890  175.9110  135.8820 C   0  0  0  0  0  2  0  0  0  0  0  0
  191.1010  176.5270  137.3650 C   0  0  0  0  0  0  0  0  0  0  0  0
  193.5630  175.8870  137.4100 C   0  0  0  0  0  2  0  0  0  0  0  0
  187.8910  178.7060  142.1170 C   0  0  0  0  0  3  0  0  0  0  0  0
  189.0150  178.2270  141.4280 C   0  0  0  0  0  0  0  0  0  0  0  0
  192.3930  176.8220  139.4000 C   0  0  0  0  0  3  0  0  0  0  0  0
  191.3380  177.6490  141.3690 N   0  0  0  0  0  0  0  0  0  0  0  0
  191.9930  173.8870  135.7470 C   0  0  0  0  0  2  0  0  0  0  0  0
  189.6250  173.1090  136.1170 C   0  0  0  0  0  0  0  0  0  0  0  0
  190.7210  173.3870  135.2460 N   0  0  0  0  0  2  0  0  0  0  0  0
  189.7290  173.2910  137.3590 O   0  0  0  0  0  0  0  0  0  0  0  0
  188.3480  172.6010  135.5510 C   0  0  0  0  0  1  0  0  0  0  0  0
  190.4610  178.5180  143.4920 C   0  0  0  0  0  2  0  0  0  0  0  0
  189.2530  177.9190  145.5960 C   0  0  1  0  0  3  0  0  0  0  0  0
  191.2940  176.7800  145.0610 C   0  0  1  0  0  3  0  0  0  0  0  0
  190.9660  176.4470  146.4380 N   0  0  0  0  0  2  0  0  0  0  0  0
  189.9420  177.4010  146.8430 C   0  0  0  0  0  2  0  0  0  0  0  0
  191.6920  175.5260  144.3100 C   0  0  0  0  0  1  0  0  0  0  0  0
  190.0620  177.3900  144.4340 C   0  0  2  0  0  3  0  0  0  0  0  0
  186.8120  176.9670  145.4690 N   0  0  0  0  0  0  0  0  0  0  0  0
  187.8880  177.3890  145.5260 C   0  0  0  0  0  0  0  0  0  0  0  0
  1 19  1  1  0  0  0
  1 12  1  0  0  0  0
  1  7  1  0  0  0  0
  2 18  1  0  0  0  0
  3  4  1  0  0  0  0
  4 15  2  0  0  0  0
  5 17  1  0  0  0  0
  6  9  2  0  0  0  0
  7 13  1  0  0  0  0
  8 10  1  0  0  0  0
  8  3  2  0  0  0  0
  9  2  1  0  0  0  0
  9 10  1  0  0  0  0
 10 16  2  0  0  0  0
 11 24  1  0  0  0  0
 12 14  1  0  0  0  0
 13  6  1  0  0  0  0
 13  5  2  0  0  0  0
 14  5  1  0  0  0  0
 16 11  1  0  0  0  0
 16 15  1  0  0  0  0
 17  2  2  0  0  0  0
 18 11  2  0  0  0  0
 20 22  2  0  0  0  0
 21 19  1  0  0  0  0
 21 20  1  0  0  0  0
 23 20  1  0  0  0  0
 25 32  1  6  0  0  0
 25 28  1  0  0  0  0
 26 29  1  6  0  0  0
 26 27  1  0  0  0  0
 27 28  1  0  0  0  0
 30 24  1  6  0  0  0
 30 26  1  0  0  0  0
 30 25  1  0  0  0  0
 31 32  3  0  0  0  0
M  END
>  <MODEL>
8

>  <REMARK>
 VINA RESULT:      -8.0      4.193      8.103
  Name = 
  5 active torsions:
  status: ('A' for Active; 'I' for Inactive)
    1  A    between atoms: C_2  and  C_24
    2  A    between atoms: C_7  and  C_29
    3  A    between atoms: N_10  and  C_24
    4  A    between atoms: C_16  and  C_27
    5  A    between atoms: C_27  and  C_32
                            x       y       z     vdW  Elec       q    Type
                         _______ _______ _______ _____ _____    ______ ____

>  <TORSDO>
F 5

$$$$
=
 OpenBabel10272413313D

 32 36  0  0  1  0  0  0  0  0999 V2000
  181.8600  178.1120  139.2550 C   0  0  1  0  0  3  0  0  0  0  0  0
  186.1680  178.4370  142.0490 C   0  0  0  0  0  0  0  0  0  0  0  0
  184.7390  178.4140  146.6960 C   0  0  0  0  0  3  0  0  0  0  0  0
  186.0770  178.4190  147.0950 C   0  0  0  0  0  3  0  0  0  0  0  0
  184.5680  178.4550  140.2270 C   0  0  0  0  0  0  0  0  0  0  0  0
  183.7880  178.4230  142.5280 C   0  0  0  0  0  3  0  0  0  0  0  0
  182.0700  178.4930  140.7230 C   0  0  0  0  0  2  0  0  0  0  0  0
  184.4130  178.4160  145.3380 C   0  0  0  0  0  3  0  0  0  0  0  0
  185.1130  178.4250  142.9880 C   0  0  0  0  0  0  0  0  0  0  0  0
  185.4230  178.4210  144.3600 C   0  0  0  0  0  0  0  0  0  0  0  0
  187.7920  178.4290  143.7900 C   0  0  0  0  0  0  0  0  0  0  0  0
  182.8980  178.8030  138.3720 C   0  0  0  0  0  2  0  0  0  0  0  0
  183.5070  178.4220  141.1580 C   0  0  0  0  0  0  0  0  0  0  0  0
  184.3210  178.3840  138.7480 C   0  0  0  0  0  2  0  0  0  0  0  0
  187.0920  178.4240  146.1360 C   0  0  0  0  0  3  0  0  0  0  0  0
  186.7800  178.4240  144.7680 C   0  0  0  0  0  0  0  0  0  0  0  0
  185.8890  178.4460  140.6820 C   0  0  0  0  0  3  0  0  0  0  0  0
  187.4590  178.4400  142.4720 N   0  0  0  0  0  0  0  0  0  0  0  0
  181.8790  176.6010  139.0560 C   0  0  0  0  0  2  0  0  0  0  0  0
  182.6280  175.4040  136.9700 C   0  0  0  0  0  0  0  0  0  0  0  0
  181.7280  176.2820  137.6450 N   0  0  0  0  0  2  0  0  0  0  0  0
  183.5910  174.8740  137.5840 O   0  0  0  0  0  0  0  0  0  0  0  0
  182.4250  175.1120  135.5270 C   0  0  0  0  0  1  0  0  0  0  0  0
  189.2430  178.4730  144.1610 C   0  0  0  0  0  2  0  0  0  0  0  0
  190.4480  177.2830  145.9980 C   0  0  1  0  0  3  0  0  0  0  0  0
  190.6960  176.5000  143.7460 C   0  0  1  0  0  3  0  0  0  0  0  0
  191.7020  175.8220  144.5480 N   0  0  0  0  0  2  0  0  0  0  0  0
  191.7620  176.5530  145.8070 C   0  0  0  0  0  2  0  0  0  0  0  0
  190.0000  175.5020  142.8430 C   0  0  0  0  0  1  0  0  0  0  0  0
  189.6990  177.1220  144.6950 C   0  0  2  0  0  3  0  0  0  0  0  0
  189.0840  176.1690  147.9410 N   0  0  0  0  0  0  0  0  0  0  0  0
  189.6860  176.6580  147.0830 C   0  0  0  0  0  0  0  0  0  0  0  0
  1 19  1  1  0  0  0
  1  7  1  0  0  0  0
  2 18  2  0  0  0  0
  2  9  1  0  0  0  0
  3  4  1  0  0  0  0
  5 17  2  0  0  0  0
  5 13  1  0  0  0  0
  6  9  1  0  0  0  0
  7 13  1  0  0  0  0
  8  3  2  0  0  0  0
  9 10  2  0  0  0  0
 10 16  1  0  0  0  0
 10  8  1  0  0  0  0
 11 24  1  0  0  0  0
 11 16  2  0  0  0  0
 12 14  1  0  0  0  0
 12  1  1  0  0  0  0
 13  6  2  0  0  0  0
 14  5  1  0  0  0  0
 15  4  2  0  0  0  0
 16 15  1  0  0  0  0
 17  2  1  0  0  0  0
 18 11  1  0  0  0  0
 20 22  2  0  0  0  0
 20 21  1  0  0  0  0
 21 19  1  0  0  0  0
 23 20  1  0  0  0  0
 25 32  1  1  0  0  0
 26 29  1  6  0  0  0
 26 27  1  0  0  0  0
 26 30  1  0  0  0  0
 27 28  1  0  0  0  0
 28 25  1  0  0  0  0
 30 24  1  6  0  0  0
 30 25  1  0  0  0  0
 32 31  3  0  0  0  0
M  END
>  <MODEL>
9

>  <REMARK>
 VINA RESULT:      -7.9      2.209      3.091
  Name = 
  5 active torsions:
  status: ('A' for Active; 'I' for Inactive)
    1  A    between atoms: C_2  and  C_24
    2  A    between atoms: C_7  and  C_29
    3  A    between atoms: N_10  and  C_24
    4  A    between atoms: C_16  and  C_27
    5  A    between atoms: C_27  and  C_32
                            x       y       z     vdW  Elec       q    Type
                         _______ _______ _______ _____ _____    ______ ____

>  <TORSDO>
F 5

$$$$
