=
 OpenBabel10272400333D

 31 35  0  0  1  0  0  0  0  0999 V2000
  187.2650  177.9230  147.3450 C   0  0  0  0  0  0  0  0  0  0  0  0
  187.6640  177.8310  143.6460 C   0  0  0  0  0  0  0  0  0  0  0  0
  189.1390  177.5330  143.4690 C   0  0  2  0  0  3  0  0  0  0  0  0
  182.6330  178.9900  142.6720 O   0  0  0  0  0  0  0  0  0  0  0  0
  183.2380  178.8260  141.5780 C   0  0  0  0  0  0  0  0  0  0  0  0
  191.4790  178.3040  143.9340 C   0  0  0  0  0  2  0  0  0  0  0  0
  187.1060  177.9620  144.9320 C   0  0  0  0  0  0  0  0  0  0  0  0
  185.9460  178.2390  147.4360 N   0  0  0  0  0  0  0  0  0  0  0  0
  190.0140  178.7320  143.8360 C   0  0  0  0  0  2  0  0  0  0  0  0
  185.4800  178.3320  142.6940 C   0  0  0  0  0  0  0  0  0  0  0  0
  188.0690  177.7310  148.5810 C   0  0  0  0  0  1  0  0  0  0  0  0
  188.8920  177.8790  141.1020 C   0  0  0  0  0  2  0  0  0  0  0  0
  191.8150  177.0710  143.0860 C   0  0  1  0  0  3  0  0  0  0  0  0
  184.9750  178.4620  143.9510 N   0  0  0  0  0  0  0  0  0  0  0  0
  186.8380  178.0180  142.5160 C   0  0  0  0  0  0  0  0  0  0  0  0
  184.6330  178.5070  141.5480 N   0  0  0  0  0  2  0  0  0  0  0  0
  187.8680  177.7790  146.0940 C   0  0  0  0  0  3  0  0  0  0  0  0
  191.7330  175.8060  143.9230 C   0  0  0  0  0  1  0  0  0  0  0  0
  185.7400  178.2860  145.0570 C   0  0  0  0  0  0  0  0  0  0  0  0
  185.1780  178.4210  146.3280 C   0  0  0  0  0  3  0  0  0  0  0  0
  187.3740  177.7800  141.1320 C   0  0  0  0  0  2  0  0  0  0  0  0
  189.4680  177.0060  142.1220 N   0  0  1  0  0  0  0  0  0  0  0  0
  190.9160  176.9630  141.8440 C   0  0  0  0  0  2  0  0  0  0  0  0
  183.0140  176.7130  138.4410 C   0  0  1  0  0  3  0  0  0  0  0  0
  181.4790  177.8440  140.0720 C   0  0  0  0  0  2  0  0  0  0  0  0
  184.4000  180.0780  139.2700 O   0  0  0  0  0  1  0  0  0  0  0  0
  183.6800  175.4000  138.0890 C   0  0  0  0  0  1  0  0  0  0  0  0
  182.1560  176.5280  139.6890 C   0  0  0  0  0  2  0  0  0  0  0  0
  183.4250  179.1020  139.0530 C   0  0  2  0  0  3  0  0  0  0  0  0
  182.5020  178.9670  140.2760 C   0  0  2  0  0  3  0  0  0  0  0  0
  184.0830  177.7730  138.6880 C   0  0  0  0  0  2  0  0  0  0  0  0
  1  8  1  0  0  0  0
  1 11  1  0  0  0  0
  2  7  1  0  0  0  0
  3  2  1  0  0  0  0
  3  9  1  6  0  0  0
  5  4  2  0  0  0  0
  7 19  2  0  0  0  0
  7 17  1  0  0  0  0
  9  6  1  0  0  0  0
 10 14  2  0  0  0  0
 12 21  1  0  0  0  0
 13 18  1  1  0  0  0
 13  6  1  0  0  0  0
 14 19  1  0  0  0  0
 15 10  1  0  0  0  0
 15  2  2  0  0  0  0
 16  5  1  0  0  0  0
 16 10  1  0  0  0  0
 17  1  2  0  0  0  0
 19 20  1  0  0  0  0
 20  8  2  0  0  0  0
 21 15  1  0  0  0  0
 22 12  1  6  0  0  0
 22  3  1  0  0  0  0
 23 22  1  0  0  0  0
 23 13  1  0  0  0  0
 24 27  1  1  0  0  0
 24 31  1  0  0  0  0
 24 28  1  0  0  0  0
 25 30  1  0  0  0  0
 28 25  1  0  0  0  0
 29 26  1  1  0  0  0
 29 30  1  0  0  0  0
 30  5  1  1  0  0  0
 31 29  1  0  0  0  0
M  END
>  <MODEL>
1

>  <REMARK>
 VINA RESULT:     -11.1      0.000      0.000
  Name = 
  1 active torsions:
  status: ('A' for Active; 'I' for Inactive)
    1  A    between atoms: C_9  and  C_22
                            x       y       z     vdW  Elec       q    Type
                         _______ _______ _______ _____ _____    ______ ____

>  <TORSDO>
F 1

$$$$
=
 OpenBabel10272400333D

 31 35  0  0  1  0  0  0  0  0999 V2000
  191.0090  176.6110  145.9550 C   0  0  0  0  0  0  0  0  0  0  0  0
  188.3240  177.7010  143.6190 C   0  0  0  0  0  0  0  0  0  0  0  0
  187.2000  178.1020  144.5540 C   0  0  2  0  0  3  0  0  0  0  0  0
  191.0960  176.6180  139.2890 O   0  0  0  0  0  0  0  0  0  0  0  0
  189.9770  177.0940  138.9550 C   0  0  0  0  0  0  0  0  0  0  0  0
  185.6380  177.3410  146.3610 C   0  0  0  0  0  2  0  0  0  0  0  0
  189.5420  177.2080  144.1280 C   0  0  0  0  0  0  0  0  0  0  0  0
  191.9590  176.2240  145.0630 N   0  0  0  0  0  0  0  0  0  0  0  0
  186.5470  176.8890  145.2170 C   0  0  0  0  0  2  0  0  0  0  0  0
  189.1830  177.3740  141.3650 C   0  0  0  0  0  0  0  0  0  0  0  0
  191.2720  176.5040  147.4140 C   0  0  0  0  0  1  0  0  0  0  0  0
  185.7610  178.3870  142.6480 C   0  0  0  0  0  2  0  0  0  0  0  0
  185.1050  178.7690  146.1920 C   0  0  1  0  0  3  0  0  0  0  0  0
  190.3430  176.8920  141.8890 N   0  0  0  0  0  0  0  0  0  0  0  0
  188.1470  177.7850  142.2210 C   0  0  0  0  0  0  0  0  0  0  0  0
  189.0120  177.4720  139.9430 N   0  0  0  0  0  2  0  0  0  0  0  0
  189.7850  177.1100  145.5040 C   0  0  0  0  0  3  0  0  0  0  0  0
  185.9820  179.7610  146.9370 C   0  0  0  0  0  1  0  0  0  0  0  0
  190.5460  176.8020  143.2270 C   0  0  0  0  0  0  0  0  0  0  0  0
  191.7540  176.3080  143.7210 C   0  0  0  0  0  3  0  0  0  0  0  0
  186.9050  178.4060  141.6450 C   0  0  0  0  0  2  0  0  0  0  0  0
  186.1950  178.9820  143.9090 N   0  0  1  0  0  0  0  0  0  0  0  0
  184.9700  179.1630  144.7130 C   0  0  0  0  0  2  0  0  0  0  0  0
  186.7210  177.2240  137.0220 C   0  0  1  0  0  3  0  0  0  0  0  0
  188.8340  178.5570  137.2570 C   0  0  0  0  0  2  0  0  0  0  0  0
  189.6200  174.8770  137.1660 O   0  0  0  0  0  1  0  0  0  0  0  0
  185.2890  177.0990  137.4960 C   0  0  0  0  0  1  0  0  0  0  0  0
  187.3810  178.4130  137.7130 C   0  0  0  0  0  2  0  0  0  0  0  0
  188.9270  176.0550  136.8800 C   0  0  2  0  0  3  0  0  0  0  0  0
  189.6320  177.2720  137.5040 C   0  0  2  0  0  3  0  0  0  0  0  0
  187.4770  175.9390  137.3460 C   0  0  0  0  0  2  0  0  0  0  0  0
  1 11  1  0  0  0  0
  2  7  1  0  0  0  0
  2  3  1  0  0  0  0
  3  9  1  6  0  0  0
  5  4  2  0  0  0  0
  5 16  1  0  0  0  0
  7 17  2  0  0  0  0
  8  1  2  0  0  0  0
  9  6  1  0  0  0  0
 10 14  2  0  0  0  0
 10 15  1  0  0  0  0
 13  6  1  0  0  0  0
 13 18  1  1  0  0  0
 14 19  1  0  0  0  0
 15  2  2  0  0  0  0
 16 10  1  0  0  0  0
 17  1  1  0  0  0  0
 19 20  2  0  0  0  0
 19  7  1  0  0  0  0
 20  8  1  0  0  0  0
 21 15  1  0  0  0  0
 21 12  1  0  0  0  0
 22 12  1  6  0  0  0
 22  3  1  0  0  0  0
 22 23  1  0  0  0  0
 23 13  1  0  0  0  0
 24 31  1  0  0  0  0
 24 27  1  1  0  0  0
 24 28  1  0  0  0  0
 25 30  1  0  0  0  0
 25 28  1  0  0  0  0
 29 26  1  1  0  0  0
 29 31  1  0  0  0  0
 29 30  1  0  0  0  0
 30  5  1  1  0  0  0
M  END
>  <MODEL>
2

>  <REMARK>
 VINA RESULT:      -9.9      3.050      5.539
  Name = 
  1 active torsions:
  status: ('A' for Active; 'I' for Inactive)
    1  A    between atoms: C_9  and  C_22
                            x       y       z     vdW  Elec       q    Type
                         _______ _______ _______ _____ _____    ______ ____

>  <TORSDO>
F 1

$$$$
=
 OpenBabel10272400333D

 31 35  0  0  1  0  0  0  0  0999 V2000
  185.6150  178.4630  145.6430 C   0  0  0  0  0  0  0  0  0  0  0  0
  188.4140  177.5940  143.3500 C   0  0  0  0  0  0  0  0  0  0  0  0
  189.5260  177.2030  144.3010 C   0  0  2  0  0  3  0  0  0  0  0  0
  185.7260  178.7430  138.9840 O   0  0  0  0  0  0  0  0  0  0  0  0
  186.8750  178.3320  138.6650 C   0  0  0  0  0  0  0  0  0  0  0  0
  190.9980  177.9520  146.1880 C   0  0  0  0  0  2  0  0  0  0  0  0
  187.1610  178.0110  143.8400 C   0  0  0  0  0  0  0  0  0  0  0  0
  184.6750  178.8470  144.7390 N   0  0  0  0  0  0  0  0  0  0  0  0
  190.1040  178.4130  145.0360 C   0  0  0  0  0  2  0  0  0  0  0  0
  187.6090  177.9820  141.0850 C   0  0  0  0  0  0  0  0  0  0  0  0
  185.3030  178.4950  147.0960 C   0  0  0  0  0  1  0  0  0  0  0  0
  191.0330  177.0650  142.4320 C   0  0  0  0  0  2  0  0  0  0  0  0
  191.6000  176.5570  145.9760 C   0  0  1  0  0  3  0  0  0  0  0  0
  186.4130  178.3890  141.5920 N   0  0  0  0  0  0  0  0  0  0  0  0
  188.6360  177.5800  141.9550 C   0  0  0  0  0  0  0  0  0  0  0  0
  187.8260  177.9530  139.6660 N   0  0  0  0  0  2  0  0  0  0  0  0
  186.8730  178.0380  145.2110 C   0  0  0  0  0  3  0  0  0  0  0  0
  190.7470  175.4970  146.6490 C   0  0  0  0  0  1  0  0  0  0  0  0
  186.1670  178.4120  142.9250 C   0  0  0  0  0  0  0  0  0  0  0  0
  184.9230  178.8300  143.4010 C   0  0  0  0  0  3  0  0  0  0  0  0
  189.9220  177.0390  141.3930 C   0  0  0  0  0  2  0  0  0  0  0  0
  190.5890  176.3960  143.6530 N   0  0  1  0  0  0  0  0  0  0  0  0
  191.7960  176.2340  144.4860 C   0  0  0  0  0  2  0  0  0  0  0  0
  189.4430  176.2860  136.7750 C   0  0  1  0  0  3  0  0  0  0  0  0
  186.9990  176.8380  136.6450 C   0  0  0  0  0  2  0  0  0  0  0  0
  188.9820  179.9130  137.5240 O   0  0  0  0  0  1  0  0  0  0  0  0
  190.4490  175.2670  137.2690 C   0  0  0  0  0  1  0  0  0  0  0  0
  188.0340  175.8200  137.1260 C   0  0  0  0  0  2  0  0  0  0  0  0
  188.7180  178.6730  136.9410 C   0  0  2  0  0  3  0  0  0  0  0  0
  187.2700  178.2330  137.2190 C   0  0  2  0  0  3  0  0  0  0  0  0
  189.7300  177.6370  137.4240 C   0  0  0  0  0  2  0  0  0  0  0  0
  1 11  1  0  0  0  0
  2  7  1  0  0  0  0
  2  3  1  0  0  0  0
  3  9  1  6  0  0  0
  5  4  2  0  0  0  0
  5 16  1  0  0  0  0
  7 17  2  0  0  0  0
  8  1  2  0  0  0  0
  9  6  1  0  0  0  0
 10 14  2  0  0  0  0
 10 15  1  0  0  0  0
 13  6  1  0  0  0  0
 13 18  1  6  0  0  0
 14 19  1  0  0  0  0
 15  2  2  0  0  0  0
 16 10  1  0  0  0  0
 17  1  1  0  0  0  0
 19 20  2  0  0  0  0
 19  7  1  0  0  0  0
 20  8  1  0  0  0  0
 21 15  1  0  0  0  0
 21 12  1  0  0  0  0
 22 12  1  6  0  0  0
 22  3  1  0  0  0  0
 22 23  1  0  0  0  0
 23 13  1  0  0  0  0
 24 28  1  0  0  0  0
 24 27  1  1  0  0  0
 24 31  1  0  0  0  0
 25 28  1  0  0  0  0
 25 30  1  0  0  0  0
 29 30  1  0  0  0  0
 29 31  1  0  0  0  0
 29 26  1  1  0  0  0
 30  5  1  1  0  0  0
M  END
>  <MODEL>
3

>  <REMARK>
 VINA RESULT:      -9.8      2.564      3.897
  Name = 
  1 active torsions:
  status: ('A' for Active; 'I' for Inactive)
    1  A    between atoms: C_9  and  C_22
                            x       y       z     vdW  Elec       q    Type
                         _______ _______ _______ _____ _____    ______ ____

>  <TORSDO>
F 1

$$$$
=
 OpenBabel10272400333D

 31 35  0  0  1  0  0  0  0  0999 V2000
  185.6260  178.0560  145.6050 C   0  0  0  0  0  0  0  0  0  0  0  0
  188.8820  177.2880  143.9750 C   0  0  0  0  0  0  0  0  0  0  0  0
  189.7700  176.9130  145.1450 C   0  0  2  0  0  3  0  0  0  0  0  0
  187.1840  178.4220  139.1340 O   0  0  0  0  0  0  0  0  0  0  0  0
  188.3860  178.0450  139.0720 C   0  0  0  0  0  0  0  0  0  0  0  0
  190.7710  177.6760  147.3130 C   0  0  0  0  0  2  0  0  0  0  0  0
  187.5410  177.6670  144.1810 C   0  0  0  0  0  0  0  0  0  0  0  0
  184.8960  178.4270  144.5200 N   0  0  0  0  0  0  0  0  0  0  0  0
  190.1390  178.1290  145.9960 C   0  0  0  0  0  2  0  0  0  0  0  0
  188.5820  177.6840  141.5920 C   0  0  0  0  0  0  0  0  0  0  0  0
  185.0030  178.0620  146.9550 C   0  0  0  0  0  1  0  0  0  0  0  0
  191.6520  176.8380  143.6500 C   0  0  0  0  0  2  0  0  0  0  0  0
  191.4440  176.3000  147.2290 C   0  0  1  0  0  3  0  0  0  0  0  0
  187.2930  178.0540  141.8270 N   0  0  0  0  0  0  0  0  0  0  0  0
  189.4050  177.2970  142.6630 C   0  0  0  0  0  0  0  0  0  0  0  0
  189.1040  177.6780  140.2550 N   0  0  0  0  0  2  0  0  0  0  0  0
  186.9590  177.6700  145.4560 C   0  0  0  0  0  3  0  0  0  0  0  0
  190.4940  175.2100  147.6920 C   0  0  0  0  0  1  0  0  0  0  0  0
  186.7600  178.0540  143.0740 C   0  0  0  0  0  0  0  0  0  0  0  0
  185.4310  178.4340  143.2690 C   0  0  0  0  0  3  0  0  0  0  0  0
  190.7960  176.7960  142.3930 C   0  0  0  0  0  2  0  0  0  0  0  0
  190.9700  176.1430  144.7390 N   0  0  1  0  0  0  0  0  0  0  0  0
  191.9700  176.0010  145.8160 C   0  0  0  0  0  2  0  0  0  0  0  0
  187.2420  177.4280  135.5130 C   0  0  1  0  0  3  0  0  0  0  0  0
  188.6300  179.0810  136.7930 C   0  0  0  0  0  2  0  0  0  0  0  0
  189.3620  175.5810  137.9680 O   0  0  0  0  0  1  0  0  0  0  0  0
  185.8610  177.1540  134.9560 C   0  0  0  0  0  1  0  0  0  0  0  0
  187.2460  178.7840  136.2120 C   0  0  0  0  0  2  0  0  0  0  0  0
  189.0080  176.5930  137.0740 C   0  0  2  0  0  3  0  0  0  0  0  0
  189.0910  177.9740  137.7480 C   0  0  2  0  0  3  0  0  0  0  0  0
  187.6190  176.3250  136.4970 C   0  0  0  0  0  2  0  0  0  0  0  0
  1 11  1  0  0  0  0
  2  7  1  0  0  0  0
  2  3  1  0  0  0  0
  3  9  1  6  0  0  0
  5  4  2  0  0  0  0
  5 16  1  0  0  0  0
  7 17  2  0  0  0  0
  8  1  2  0  0  0  0
  9  6  1  0  0  0  0
 10 14  2  0  0  0  0
 10 15  1  0  0  0  0
 13  6  1  0  0  0  0
 13 18  1  6  0  0  0
 14 19  1  0  0  0  0
 15  2  2  0  0  0  0
 16 10  1  0  0  0  0
 17  1  1  0  0  0  0
 19 20  2  0  0  0  0
 19  7  1  0  0  0  0
 20  8  1  0  0  0  0
 21 15  1  0  0  0  0
 21 12  1  0  0  0  0
 22 12  1  6  0  0  0
 22  3  1  0  0  0  0
 22 23  1  0  0  0  0
 23 13  1  0  0  0  0
 24 27  1  1  0  0  0
 24 28  1  0  0  0  0
 24 31  1  0  0  0  0
 25 30  1  0  0  0  0
 28 25  1  0  0  0  0
 29 30  1  0  0  0  0
 29 26  1  1  0  0  0
 30  5  1  1  0  0  0
 31 29  1  0  0  0  0
M  END
>  <MODEL>
4

>  <REMARK>
 VINA RESULT:      -9.4      2.866      4.344
  Name = 
  1 active torsions:
  status: ('A' for Active; 'I' for Inactive)
    1  A    between atoms: C_9  and  C_22
                            x       y       z     vdW  Elec       q    Type
                         _______ _______ _______ _____ _____    ______ ____

>  <TORSDO>
F 1

$$$$
=
 OpenBabel10272400333D

 31 35  0  0  1  0  0  0  0  0999 V2000
  186.8180  178.2320  147.0500 C   0  0  0  0  0  0  0  0  0  0  0  0
  187.6460  177.8450  143.4430 C   0  0  0  0  0  0  0  0  0  0  0  0
  189.1360  177.5720  143.4620 C   0  0  2  0  0  3  0  0  0  0  0  0
  182.7440  178.7880  141.8030 O   0  0  0  0  0  0  0  0  0  0  0  0
  183.4750  178.5510  140.8040 C   0  0  0  0  0  0  0  0  0  0  0  0
  191.3940  178.4390  144.1240 C   0  0  0  0  0  2  0  0  0  0  0  0
  186.9400  178.0670  144.6410 C   0  0  0  0  0  0  0  0  0  0  0  0
  185.4920  178.5200  146.9620 N   0  0  0  0  0  0  0  0  0  0  0  0
  189.9430  178.8200  143.8230 C   0  0  0  0  0  2  0  0  0  0  0  0
  185.5800  178.2090  142.2080 C   0  0  0  0  0  0  0  0  0  0  0  0
  187.4750  178.1640  148.3810 C   0  0  0  0  0  1  0  0  0  0  0  0
  189.1600  177.7150  141.0610 C   0  0  0  0  0  2  0  0  0  0  0  0
  191.8460  177.1500  143.4290 C   0  0  1  0  0  3  0  0  0  0  0  0
  184.9290  178.4290  143.3830 N   0  0  0  0  0  0  0  0  0  0  0  0
  186.9540  177.9160  142.2140 C   0  0  0  0  0  0  0  0  0  0  0  0
  184.8690  178.2660  140.9620 N   0  0  0  0  0  2  0  0  0  0  0  0
  187.5650  178.0010  145.8930 C   0  0  0  0  0  3  0  0  0  0  0  0
  191.6870  175.9570  144.3550 C   0  0  0  0  0  1  0  0  0  0  0  0
  185.5640  178.3650  144.5800 C   0  0  0  0  0  0  0  0  0  0  0  0
  184.8560  178.5900  145.7620 C   0  0  0  0  0  3  0  0  0  0  0  0
  187.6510  177.5790  140.9250 C   0  0  0  0  0  2  0  0  0  0  0  0
  189.6280  176.9440  142.2110 N   0  0  1  0  0  0  0  0  0  0  0  0
  191.1000  176.9160  142.1050 C   0  0  0  0  0  2  0  0  0  0  0  0
  180.8310  180.6470  139.0810 C   0  0  1  0  0  3  0  0  0  0  0  0
  183.1860  179.8780  138.6860 C   0  0  0  0  0  2  0  0  0  0  0  0
  181.1190  177.0680  140.1000 O   0  0  0  0  0  1  0  0  0  0  0  0
  179.9820  181.7870  139.6050 C   0  0  0  0  0  1  0  0  0  0  0  0
  182.3060  181.0180  139.2010 C   0  0  0  0  0  2  0  0  0  0  0  0
  181.3920  178.2280  139.3730 C   0  0  2  0  0  3  0  0  0  0  0  0
  182.8930  178.5640  139.4190 C   0  0  2  0  0  3  0  0  0  0  0  0
  180.5360  179.3850  139.8860 C   0  0  0  0  0  2  0  0  0  0  0  0
  1 11  1  0  0  0  0
  2  3  1  0  0  0  0
  2  7  1  0  0  0  0
  3  9  1  6  0  0  0
  5 16  1  0  0  0  0
  5  4  2  0  0  0  0
  7 17  1  0  0  0  0
  8  1  1  0  0  0  0
  9  6  1  0  0  0  0
 10 15  1  0  0  0  0
 10 14  2  0  0  0  0
 13  6  1  0  0  0  0
 13 18  1  1  0  0  0
 14 19  1  0  0  0  0
 15  2  2  0  0  0  0
 16 10  1  0  0  0  0
 17  1  2  0  0  0  0
 19  7  2  0  0  0  0
 19 20  1  0  0  0  0
 20  8  2  0  0  0  0
 21 12  1  0  0  0  0
 21 15  1  0  0  0  0
 22 12  1  6  0  0  0
 22  3  1  0  0  0  0
 23 22  1  0  0  0  0
 23 13  1  0  0  0  0
 24 28  1  0  0  0  0
 24 27  1  1  0  0  0
 24 31  1  0  0  0  0
 25 28  1  0  0  0  0
 25 30  1  0  0  0  0
 29 30  1  0  0  0  0
 29 31  1  0  0  0  0
 29 26  1  1  0  0  0
 30  5  1  1  0  0  0
M  END
>  <MODEL>
5

>  <REMARK>
 VINA RESULT:      -9.2      1.280      2.244
  Name = 
  1 active torsions:
  status: ('A' for Active; 'I' for Inactive)
    1  A    between atoms: C_9  and  C_22
                            x       y       z     vdW  Elec       q    Type
                         _______ _______ _______ _____ _____    ______ ____

>  <TORSDO>
F 1

$$$$
=
 OpenBabel10272400333D

 31 35  0  0  1  0  0  0  0  0999 V2000
  191.0210  176.5690  145.9670 C   0  0  0  0  0  0  0  0  0  0  0  0
  188.2170  177.6790  143.7870 C   0  0  0  0  0  0  0  0  0  0  0  0
  187.1480  178.0810  144.7830 C   0  0  2  0  0  3  0  0  0  0  0  0
  190.7410  176.6030  139.3060 O   0  0  0  0  0  0  0  0  0  0  0  0
  189.6080  177.0850  139.0360 C   0  0  0  0  0  0  0  0  0  0  0  0
  185.6850  177.3190  146.6710 C   0  0  0  0  0  2  0  0  0  0  0  0
  189.4580  177.1790  144.2250 C   0  0  0  0  0  0  0  0  0  0  0  0
  191.9200  176.1820  145.0220 N   0  0  0  0  0  0  0  0  0  0  0  0
  186.5270  176.8680  145.4770 C   0  0  0  0  0  2  0  0  0  0  0  0
  188.9480  177.3580  141.4870 C   0  0  0  0  0  0  0  0  0  0  0  0
  191.3650  176.4540  147.4080 C   0  0  0  0  0  1  0  0  0  0  0  0
  185.6070  178.3790  142.9610 C   0  0  0  0  0  2  0  0  0  0  0  0
  185.1490  178.7500  146.5370 C   0  0  1  0  0  3  0  0  0  0  0  0
  190.1340  176.8690  141.9450 N   0  0  0  0  0  0  0  0  0  0  0  0
  187.9630  177.7700  142.4010 C   0  0  0  0  0  0  0  0  0  0  0  0
  188.7010  177.4630  140.0770 N   0  0  0  0  0  2  0  0  0  0  0  0
  189.7760  177.0750  145.5860 C   0  0  0  0  0  3  0  0  0  0  0  0
  186.0700  179.7350  147.2360 C   0  0  0  0  0  1  0  0  0  0  0  0
  190.4100  176.7730  143.2690 C   0  0  0  0  0  0  0  0  0  0  0  0
  191.6420  176.2720  143.6940 C   0  0  0  0  0  3  0  0  0  0  0  0
  186.6940  178.3980  141.8970 C   0  0  0  0  0  2  0  0  0  0  0  0
  186.1130  178.9680  144.1990 N   0  0  1  0  0  0  0  0  0  0  0  0
  184.9350  179.1510  145.0690 C   0  0  0  0  0  2  0  0  0  0  0  0
  188.4420  174.7240  136.3110 C   0  0  1  0  0  3  0  0  0  0  0  0
  187.7200  176.8730  137.3870 C   0  0  0  0  0  2  0  0  0  0  0  0
  191.4440  176.8790  136.8380 O   0  0  0  0  0  1  0  0  0  0  0  0
  188.2570  173.2220  136.3230 C   0  0  0  0  0  1  0  0  0  0  0  0
  187.5440  175.3540  137.3710 C   0  0  0  0  0  2  0  0  0  0  0  0
  190.1050  176.5710  136.5910 C   0  0  2  0  0  3  0  0  0  0  0  0
  189.1840  177.2700  137.6070 C   0  0  2  0  0  3  0  0  0  0  0  0
  189.9040  175.0570  136.5920 C   0  0  0  0  0  2  0  0  0  0  0  0
  1 11  1  0  0  0  0
  2  7  1  0  0  0  0
  2  3  1  0  0  0  0
  3  9  1  6  0  0  0
  5  4  2  0  0  0  0
  5 16  1  0  0  0  0
  7 17  2  0  0  0  0
  8  1  2  0  0  0  0
  9  6  1  0  0  0  0
 10 14  2  0  0  0  0
 10 15  1  0  0  0  0
 13  6  1  0  0  0  0
 13 18  1  6  0  0  0
 14 19  1  0  0  0  0
 15  2  2  0  0  0  0
 16 10  1  0  0  0  0
 17  1  1  0  0  0  0
 19 20  2  0  0  0  0
 19  7  1  0  0  0  0
 20  8  1  0  0  0  0
 21 15  1  0  0  0  0
 21 12  1  0  0  0  0
 22 12  1  6  0  0  0
 22  3  1  0  0  0  0
 22 23  1  0  0  0  0
 23 13  1  0  0  0  0
 24 27  1  1  0  0  0
 24 31  1  0  0  0  0
 24 28  1  0  0  0  0
 25 30  1  0  0  0  0
 28 25  1  0  0  0  0
 29 31  1  0  0  0  0
 29 26  1  1  0  0  0
 29 30  1  0  0  0  0
 30  5  1  1  0  0  0
M  END
>  <MODEL>
6

>  <REMARK>
 VINA RESULT:      -9.1      3.306      5.720
  Name = 
  1 active torsions:
  status: ('A' for Active; 'I' for Inactive)
    1  A    between atoms: C_9  and  C_22
                            x       y       z     vdW  Elec       q    Type
                         _______ _______ _______ _____ _____    ______ ____

>  <TORSDO>
F 1

$$$$
=
 OpenBabel10272400333D

 31 35  0  0  1  0  0  0  0  0999 V2000
  190.4790  177.0780  142.8700 C   0  0  0  0  0  0  0  0  0  0  0  0
  187.2370  178.0350  144.4260 C   0  0  0  0  0  0  0  0  0  0  0  0
  187.5470  178.0030  145.9090 C   0  0  2  0  0  3  0  0  0  0  0  0
  184.6940  178.4270  139.8450 O   0  0  0  0  0  0  0  0  0  0  0  0
  183.9030  178.7190  140.7820 C   0  0  0  0  0  0  0  0  0  0  0  0
  188.3190  176.5940  147.8340 C   0  0  0  0  0  2  0  0  0  0  0  0
  188.2260  177.7120  143.4770 C   0  0  0  0  0  0  0  0  0  0  0  0
  190.1250  177.0790  141.5580 N   0  0  0  0  0  0  0  0  0  0  0  0
  187.7190  176.5750  146.4270 C   0  0  0  0  0  2  0  0  0  0  0  0
  185.6510  178.3450  142.6050 C   0  0  0  0  0  0  0  0  0  0  0  0
  191.8720  176.7390  143.2620 C   0  0  0  0  0  1  0  0  0  0  0  0
  185.2140  178.3590  146.3710 C   0  0  0  0  0  2  0  0  0  0  0  0
  188.0280  177.8870  148.6060 C   0  0  1  0  0  3  0  0  0  0  0  0
  186.6280  178.0180  141.7150 N   0  0  0  0  0  0  0  0  0  0  0  0
  185.9360  178.3570  143.9810 C   0  0  0  0  0  0  0  0  0  0  0  0
  184.3350  178.6870  142.1470 N   0  0  0  0  0  2  0  0  0  0  0  0
  189.5380  177.3940  143.8520 C   0  0  0  0  0  3  0  0  0  0  0  0
  189.1770  178.8690  148.4600 C   0  0  0  0  0  1  0  0  0  0  0  0
  187.8870  177.7070  142.1090 C   0  0  0  0  0  0  0  0  0  0  0  0
  188.8600  177.3850  141.1610 C   0  0  0  0  0  3  0  0  0  0  0  0
  184.8860  178.8120  144.9570 C   0  0  0  0  0  2  0  0  0  0  0  0
  186.5710  178.7680  146.7230 N   0  0  1  0  0  0  0  0  0  0  0  0
  186.7010  178.5310  148.1740 C   0  0  0  0  0  2  0  0  0  0  0  0
  181.3620  177.6080  138.2020 C   0  0  1  0  0  3  0  0  0  0  0  0
  181.5140  177.9370  140.6850 C   0  0  0  0  0  2  0  0  0  0  0  0
  183.2240  180.7680  138.8890 O   0  0  0  0  0  1  0  0  0  0  0  0
  181.4700  176.5870  137.0880 C   0  0  0  0  0  1  0  0  0  0  0  0
  181.6090  176.9240  139.5420 C   0  0  0  0  0  2  0  0  0  0  0  0
  182.2950  179.7480  139.0970 C   0  0  2  0  0  3  0  0  0  0  0  0
  182.4830  179.1070  140.4830 C   0  0  2  0  0  3  0  0  0  0  0  0
  182.3870  178.7150  137.9760 C   0  0  0  0  0  2  0  0  0  0  0  0
  1 11  1  0  0  0  0
  1 17  1  0  0  0  0
  2  3  1  0  0  0  0
  3  9  1  1  0  0  0
  3 22  1  0  0  0  0
  4  5  2  0  0  0  0
  5 16  1  0  0  0  0
  6 13  1  0  0  0  0
  7 17  2  0  0  0  0
  7  2  1  0  0  0  0
  8  1  2  0  0  0  0
  9  6  1  0  0  0  0
 10 15  1  0  0  0  0
 13 18  1  6  0  0  0
 14 19  1  0  0  0  0
 14 10  2  0  0  0  0
 15  2  2  0  0  0  0
 15 21  1  0  0  0  0
 16 10  1  0  0  0  0
 19  7  1  0  0  0  0
 20  8  1  0  0  0  0
 20 19  2  0  0  0  0
 21 12  1  0  0  0  0
 22 12  1  6  0  0  0
 22 23  1  0  0  0  0
 23 13  1  0  0  0  0
 24 27  1  6  0  0  0
 24 28  1  0  0  0  0
 28 25  1  0  0  0  0
 29 26  1  6  0  0  0
 29 30  1  0  0  0  0
 30 25  1  0  0  0  0
 30  5  1  6  0  0  0
 31 24  1  0  0  0  0
 31 29  1  0  0  0  0
M  END
>  <MODEL>
7

>  <REMARK>
 VINA RESULT:      -8.9      1.313      4.143
  Name = 
  1 active torsions:
  status: ('A' for Active; 'I' for Inactive)
    1  A    between atoms: C_9  and  C_22
                            x       y       z     vdW  Elec       q    Type
                         _______ _______ _______ _____ _____    ______ ____

>  <TORSDO>
F 1

$$$$
=
 OpenBabel10272400333D

 31 35  0  0  1  0  0  0  0  0999 V2000
  185.4710  178.6710  144.1250 C   0  0  0  0  0  0  0  0  0  0  0  0
  188.4780  177.8390  142.0960 C   0  0  0  0  0  0  0  0  0  0  0  0
  189.5240  177.5300  143.1480 C   0  0  2  0  0  3  0  0  0  0  0  0
  186.1070  178.7130  137.4900 O   0  0  0  0  0  0  0  0  0  0  0  0
  187.2930  178.3390  137.2790 C   0  0  0  0  0  0  0  0  0  0  0  0
  190.8080  178.4090  145.1140 C   0  0  0  0  0  2  0  0  0  0  0  0
  187.1740  178.2200  142.4690 C   0  0  0  0  0  0  0  0  0  0  0  0
  184.5920  178.9810  143.1350 N   0  0  0  0  0  0  0  0  0  0  0  0
  189.9930  178.7900  143.8770 C   0  0  0  0  0  2  0  0  0  0  0  0
  187.8430  178.1100  139.7610 C   0  0  0  0  0  0  0  0  0  0  0  0
  185.0420  178.7430  145.5470 C   0  0  0  0  0  1  0  0  0  0  0  0
  191.1810  177.3880  141.4100 C   0  0  0  0  0  2  0  0  0  0  0  0
  191.4800  177.0340  145.0050 C   0  0  1  0  0  3  0  0  0  0  0  0
  186.5950  178.4840  140.1560 N   0  0  0  0  0  0  0  0  0  0  0  0
  188.8120  177.7830  140.7260 C   0  0  0  0  0  0  0  0  0  0  0  0
  188.1740  178.0380  138.3670 N   0  0  0  0  0  2  0  0  0  0  0  0
  186.7750  178.2850  143.8110 C   0  0  0  0  0  3  0  0  0  0  0  0
  190.6180  175.9630  145.6510 C   0  0  0  0  0  1  0  0  0  0  0  0
  186.2410  178.5450  141.4640 C   0  0  0  0  0  0  0  0  0  0  0  0
  184.9480  178.9270  141.8230 C   0  0  0  0  0  3  0  0  0  0  0  0
  190.1590  177.2770  140.2890 C   0  0  0  0  0  2  0  0  0  0  0  0
  190.6660  176.7460  142.6180 N   0  0  1  0  0  0  0  0  0  0  0  0
  191.8080  176.6660  143.5490 C   0  0  0  0  0  2  0  0  0  0  0  0
  187.2960  175.5300  134.7380 C   0  0  1  0  0  3  0  0  0  0  0  0
  186.6750  177.9570  134.8710 C   0  0  0  0  0  2  0  0  0  0  0  0
  189.9180  177.3420  136.6800 O   0  0  0  0  0  1  0  0  0  0  0  0
  186.7580  174.1170  134.8300 C   0  0  0  0  0  1  0  0  0  0  0  0
  186.1560  176.5210  134.9500 C   0  0  0  0  0  2  0  0  0  0  0  0
  188.9220  177.1550  135.7200 C   0  0  2  0  0  3  0  0  0  0  0  0
  187.8070  178.2050  135.8750 C   0  0  2  0  0  3  0  0  0  0  0  0
  188.3760  175.7310  135.7960 C   0  0  0  0  0  2  0  0  0  0  0  0
  1 11  1  0  0  0  0
  2  7  1  0  0  0  0
  2  3  1  0  0  0  0
  3  9  1  6  0  0  0
  5  4  2  0  0  0  0
  5 16  1  0  0  0  0
  7 17  2  0  0  0  0
  8  1  2  0  0  0  0
  9  6  1  0  0  0  0
 10 14  2  0  0  0  0
 10 15  1  0  0  0  0
 13  6  1  0  0  0  0
 13 18  1  6  0  0  0
 14 19  1  0  0  0  0
 15  2  2  0  0  0  0
 16 10  1  0  0  0  0
 17  1  1  0  0  0  0
 19 20  2  0  0  0  0
 19  7  1  0  0  0  0
 20  8  1  0  0  0  0
 21 15  1  0  0  0  0
 21 12  1  0  0  0  0
 22 12  1  6  0  0  0
 22  3  1  0  0  0  0
 22 23  1  0  0  0  0
 23 13  1  0  0  0  0
 24 27  1  1  0  0  0
 24 28  1  0  0  0  0
 24 31  1  0  0  0  0
 25 28  1  0  0  0  0
 25 30  1  0  0  0  0
 29 31  1  0  0  0  0
 29 30  1  0  0  0  0
 29 26  1  1  0  0  0
 30  5  1  1  0  0  0
M  END
>  <MODEL>
8

>  <REMARK>
 VINA RESULT:      -8.6      2.986      4.348
  Name = 
  1 active torsions:
  status: ('A' for Active; 'I' for Inactive)
    1  A    between atoms: C_9  and  C_22
                            x       y       z     vdW  Elec       q    Type
                         _______ _______ _______ _____ _____    ______ ____

>  <TORSDO>
F 1

$$$$
=
 OpenBabel10272400333D

 31 35  0  0  1  0  0  0  0  0999 V2000
  190.5860  177.3630  138.8080 C   0  0  0  0  0  0  0  0  0  0  0  0
  188.2330  177.8620  141.6480 C   0  0  0  0  0  0  0  0  0  0  0  0
  189.0860  177.5390  142.8590 C   0  0  2  0  0  3  0  0  0  0  0  0
  184.1500  179.0860  138.5760 O   0  0  0  0  0  0  0  0  0  0  0  0
  183.7930  179.1520  139.7830 C   0  0  0  0  0  0  0  0  0  0  0  0
  190.4720  175.7960  144.0110 C   0  0  0  0  0  2  0  0  0  0  0  0
  188.7680  177.7760  140.3480 C   0  0  0  0  0  0  0  0  0  0  0  0
  189.7560  177.6190  137.7620 N   0  0  0  0  0  0  0  0  0  0  0  0
  189.3780  176.0420  142.9700 C   0  0  0  0  0  2  0  0  0  0  0  0
  186.0870  178.4790  140.6790 C   0  0  0  0  0  0  0  0  0  0  0  0
  192.0060  177.0030  138.5570 C   0  0  0  0  0  1  0  0  0  0  0  0
  187.1260  177.7060  144.2430 C   0  0  0  0  0  2  0  0  0  0  0  0
  190.5580  176.8920  145.0800 C   0  0  1  0  0  3  0  0  0  0  0  0
  186.6320  178.3760  139.4360 N   0  0  0  0  0  0  0  0  0  0  0  0
  186.8770  178.2190  141.8110 C   0  0  0  0  0  0  0  0  0  0  0  0
  184.7120  178.8580  140.8410 N   0  0  0  0  0  2  0  0  0  0  0  0
  190.1080  177.4370  140.1180 C   0  0  0  0  0  3  0  0  0  0  0  0
  191.6060  177.9260  144.7070 C   0  0  0  0  0  1  0  0  0  0  0  0
  187.9320  178.0380  139.2440 C   0  0  0  0  0  0  0  0  0  0  0  0
  188.4510  177.9520  137.9520 C   0  0  0  0  0  3  0  0  0  0  0  0
  186.3030  178.4260  143.1850 C   0  0  0  0  0  2  0  0  0  0  0  0
  188.5320  178.0850  144.1210 N   0  0  1  0  0  0  0  0  0  0  0  0
  189.1970  177.5610  145.3310 C   0  0  0  0  0  2  0  0  0  0  0  0
  180.3810  178.1560  138.4710 C   0  0  1  0  0  3  0  0  0  0  0  0
  181.5790  178.3500  140.6680 C   0  0  0  0  0  2  0  0  0  0  0  0
  182.4020  181.2940  138.4730 O   0  0  0  0  0  1  0  0  0  0  0  0
  179.9920  177.1990  137.3640 C   0  0  0  0  0  1  0  0  0  0  0  0
  181.1660  177.4020  139.5400 C   0  0  0  0  0  2  0  0  0  0  0  0
  181.6340  180.2540  139.0000 C   0  0  2  0  0  3  0  0  0  0  0  0
  182.3860  179.5400  140.1370 C   0  0  2  0  0  3  0  0  0  0  0  0
  181.2280  179.2850  137.8920 C   0  0  0  0  0  2  0  0  0  0  0  0
  1 17  1  0  0  0  0
  2 15  2  0  0  0  0
  2  3  1  0  0  0  0
  3  9  1  1  0  0  0
  3 22  1  0  0  0  0
  4  5  2  0  0  0  0
  5 16  1  0  0  0  0
  6 13  1  0  0  0  0
  7  2  1  0  0  0  0
  8 20  1  0  0  0  0
  8  1  2  0  0  0  0
  9  6  1  0  0  0  0
 10 16  1  0  0  0  0
 10 15  1  0  0  0  0
 11  1  1  0  0  0  0
 13 18  1  6  0  0  0
 13 23  1  0  0  0  0
 14 10  2  0  0  0  0
 15 21  1  0  0  0  0
 17  7  2  0  0  0  0
 19 14  1  0  0  0  0
 19  7  1  0  0  0  0
 20 19  2  0  0  0  0
 21 12  1  0  0  0  0
 22 12  1  1  0  0  0
 22 23  1  0  0  0  0
 24 27  1  6  0  0  0
 24 28  1  0  0  0  0
 28 25  1  0  0  0  0
 29 26  1  6  0  0  0
 29 30  1  0  0  0  0
 30  5  1  6  0  0  0
 30 25  1  0  0  0  0
 31 24  1  0  0  0  0
 31 29  1  0  0  0  0
M  END
>  <MODEL>
9

>  <REMARK>
 VINA RESULT:      -8.4      2.075      4.640
  Name = 
  1 active torsions:
  status: ('A' for Active; 'I' for Inactive)
    1  A    between atoms: C_9  and  C_22
                            x       y       z     vdW  Elec       q    Type
                         _______ _______ _______ _____ _____    ______ ____

>  <TORSDO>
F 1

$$$$
