=
 OpenBabel10272400533D

 25 28  0  0  0  0  0  0  0  0999 V2000
  187.3540  177.8450  145.3850 C   0  0  0  0  0  0  0  0  0  0  0  0
  188.5250  177.3940  144.7780 C   0  0  0  0  0  3  0  0  0  0  0  0
  187.9830  177.9560  147.8540 C   0  0  0  0  0  3  0  0  0  0  0  0
  186.2090  178.1160  144.6130 C   0  0  0  0  0  0  0  0  0  0  0  0
  183.7810  178.7490  143.3800 C   0  0  0  0  0  3  0  0  0  0  0  0
  189.3030  177.5280  147.8890 C   0  0  0  0  0  3  0  0  0  0  0  0
  185.1260  178.5640  145.3530 C   0  0  0  0  0  0  0  0  0  0  0  0
  183.9030  178.8870  144.7710 C   0  0  0  0  0  3  0  0  0  0  0  0
  191.3820  176.7080  146.8490 C   0  0  0  0  0  0  0  0  0  0  0  0
  192.0900  176.5910  147.9230 N   0  0  0  0  0  2  0  0  0  0  0  0
  189.7290  177.0980  145.3910 C   0  0  0  0  0  0  0  0  0  0  0  0
  184.8670  178.2960  142.6110 C   0  0  0  0  0  3  0  0  0  0  0  0
  187.1340  178.0950  146.7590 C   0  0  0  0  0  0  0  0  0  0  0  0
  185.5470  178.6370  146.9690 S   0  0  0  0  0  0  0  0  0  0  0  0
  191.8350  176.4160  145.6520 O   0  0  0  0  0  0  0  0  0  0  0  0
  186.0900  177.9770  143.2240 C   0  0  0  0  0  3  0  0  0  0  0  0
  190.8880  176.6400  144.7680 C   0  0  0  0  0  0  0  0  0  0  0  0
  190.0730  177.1460  146.8030 C   0  0  0  0  0  0  0  0  0  0  0  0
  191.0810  176.4080  143.3670 N   0  0  0  0  0  2  0  0  0  0  0  0
  191.5570  177.4070  142.4210 C   0  0  0  0  0  2  0  0  0  0  0  0
  191.5520  177.2410  139.9120 C   0  0  0  0  0  0  0  0  0  0  0  0
  190.9230  177.1550  138.8240 O   0  0  0  0  0  0  0  0  0  0  0  0
  192.9760  177.3000  139.8910 N   0  0  0  0  0  1  0  0  0  0  0  0
  189.3900  177.2090  141.1790 C   0  0  0  0  0  1  0  0  0  0  0  0
  190.8420  177.2770  141.1580 N   0  0  0  0  0  0  0  0  0  0  0  0
  1 13  1  0  0  0  0
  2  1  2  0  0  0  0
  2 11  1  0  0  0  0
  3  6  1  0  0  0  0
  4  7  1  0  0  0  0
  4  1  1  0  0  0  0
  5  8  1  0  0  0  0
  7 14  1  0  0  0  0
  8  7  2  0  0  0  0
  9 10  2  0  0  0  0
 11 18  1  0  0  0  0
 12 16  1  0  0  0  0
 12  5  2  0  0  0  0
 13 14  1  0  0  0  0
 13  3  2  0  0  0  0
 15  9  1  0  0  0  0
 16  4  2  0  0  0  0
 17 11  2  0  0  0  0
 17 15  1  0  0  0  0
 18  9  1  0  0  0  0
 18  6  2  0  0  0  0
 19 17  1  0  0  0  0
 20 19  1  0  0  0  0
 21 25  1  0  0  0  0
 22 21  2  0  0  0  0
 23 21  1  0  0  0  0
 25 24  1  0  0  0  0
 25 20  1  0  0  0  0
M  END
>  <MODEL>
1

>  <REMARK>
 VINA RESULT:     -11.0      0.000      0.000
  Name = 
  3 active torsions:
  status: ('A' for Active; 'I' for Inactive)
    1  A    between atoms: N_6  and  C_15
    2  A    between atoms: N_6  and  C_23
    3  A    between atoms: C_15  and  N_25
                            x       y       z     vdW  Elec       q    Type
                         _______ _______ _______ _____ _____    ______ ____

>  <TORSDO>
F 3

$$$$
=
 OpenBabel10272400533D

 25 28  0  0  0  0  0  0  0  0999 V2000
  187.1770  177.8540  145.1720 C   0  0  0  0  0  0  0  0  0  0  0  0
  188.2430  177.4100  144.3910 C   0  0  0  0  0  3  0  0  0  0  0  0
  188.1440  177.8560  147.5320 C   0  0  0  0  0  3  0  0  0  0  0  0
  185.9420  178.1730  144.5770 C   0  0  0  0  0  0  0  0  0  0  0  0
  183.3800  178.8920  143.7190 C   0  0  0  0  0  3  0  0  0  0  0  0
  189.4470  177.4070  147.3660 C   0  0  0  0  0  3  0  0  0  0  0  0
  184.9810  178.6070  145.4770 C   0  0  0  0  0  0  0  0  0  0  0  0
  183.6970  178.9720  145.0830 C   0  0  0  0  0  3  0  0  0  0  0  0
  191.3450  176.5980  146.0170 C   0  0  0  0  0  0  0  0  0  0  0  0
  192.1920  176.4270  146.9780 N   0  0  0  0  0  2  0  0  0  0  0  0
  189.5150  177.0710  144.8190 C   0  0  0  0  0  0  0  0  0  0  0  0
  184.3400  178.4540  142.7890 C   0  0  0  0  0  3  0  0  0  0  0  0
  187.1550  178.0520  146.5710 C   0  0  0  0  0  0  0  0  0  0  0  0
  185.6230  178.6100  147.0200 S   0  0  0  0  0  0  0  0  0  0  0  0
  191.6220  176.3480  144.7590 O   0  0  0  0  0  0  0  0  0  0  0  0
  185.6290  178.0920  143.2140 C   0  0  0  0  0  3  0  0  0  0  0  0
  190.5660  176.6210  144.0240 C   0  0  0  0  0  0  0  0  0  0  0  0
  190.0510  177.0580  146.1700 C   0  0  0  0  0  0  0  0  0  0  0  0
  190.5580  176.4430  142.6020 N   0  0  0  0  0  2  0  0  0  0  0  0
  190.9000  177.4780  141.6370 C   0  0  0  0  0  2  0  0  0  0  0  0
  188.9000  177.8590  140.1620 C   0  0  0  0  0  0  0  0  0  0  0  0
  188.2730  177.6360  139.0920 O   0  0  0  0  0  0  0  0  0  0  0  0
  188.3250  178.7220  141.1400 N   0  0  0  0  0  1  0  0  0  0  0  0
  190.7680  176.3780  139.3890 C   0  0  0  0  0  1  0  0  0  0  0  0
  190.1800  177.2520  140.3910 N   0  0  0  0  0  0  0  0  0  0  0  0
  1 13  1  0  0  0  0
  2 11  1  0  0  0  0
  2  1  2  0  0  0  0
  4  1  1  0  0  0  0
  4  7  1  0  0  0  0
  5  8  1  0  0  0  0
  6  3  1  0  0  0  0
  7 14  1  0  0  0  0
  8  7  2  0  0  0  0
  9 18  1  0  0  0  0
  9 10  2  0  0  0  0
 11 18  1  0  0  0  0
 12 16  1  0  0  0  0
 12  5  2  0  0  0  0
 13 14  1  0  0  0  0
 13  3  2  0  0  0  0
 15  9  1  0  0  0  0
 16  4  2  0  0  0  0
 17 15  1  0  0  0  0
 17 11  2  0  0  0  0
 18  6  2  0  0  0  0
 19 17  1  0  0  0  0
 20 19  1  0  0  0  0
 21 25  1  0  0  0  0
 21 23  1  0  0  0  0
 22 21  2  0  0  0  0
 24 25  1  0  0  0  0
 25 20  1  0  0  0  0
M  END
>  <MODEL>
2

>  <REMARK>
 VINA RESULT:     -10.9      1.056      1.478
  Name = 
  3 active torsions:
  status: ('A' for Active; 'I' for Inactive)
    1  A    between atoms: N_6  and  C_15
    2  A    between atoms: N_6  and  C_23
    3  A    between atoms: C_15  and  N_25
                            x       y       z     vdW  Elec       q    Type
                         _______ _______ _______ _____ _____    ______ ____

>  <TORSDO>
F 3

$$$$
=
 OpenBabel10272400533D

 25 28  0  0  0  0  0  0  0  0999 V2000
  188.0140  177.6280  145.6580 C   0  0  0  0  0  0  0  0  0  0  0  0
  187.5580  177.7480  144.3460 C   0  0  0  0  0  3  0  0  0  0  0  0
  185.9790  178.2900  147.0460 C   0  0  0  0  0  3  0  0  0  0  0  0
  189.3340  177.2170  145.9200 C   0  0  0  0  0  0  0  0  0  0  0  0
  191.8740  176.4240  146.7790 C   0  0  0  0  0  3  0  0  0  0  0  0
  185.0060  178.5890  146.1010 C   0  0  0  0  0  3  0  0  0  0  0  0
  189.6410  177.1370  147.2690 C   0  0  0  0  0  0  0  0  0  0  0  0
  190.8950  176.7460  147.7300 C   0  0  0  0  0  3  0  0  0  0  0  0
  184.1750  178.8310  143.7940 C   0  0  0  0  0  0  0  0  0  0  0  0
  182.9800  179.2370  144.0710 N   0  0  0  0  0  2  0  0  0  0  0  0
  186.2950  178.1240  143.9270 C   0  0  0  0  0  0  0  0  0  0  0  0
  191.5840  176.4990  145.4050 C   0  0  0  0  0  3  0  0  0  0  0  0
  187.2920  177.8690  146.8490 C   0  0  0  0  0  0  0  0  0  0  0  0
  188.3020  177.5680  148.1710 S   0  0  0  0  0  0  0  0  0  0  0  0
  184.6140  178.6680  142.5670 O   0  0  0  0  0  0  0  0  0  0  0  0
  190.3100  176.8950  144.9670 C   0  0  0  0  0  3  0  0  0  0  0  0
  185.8590  178.2460  142.6090 C   0  0  0  0  0  0  0  0  0  0  0  0
  185.1460  178.5180  144.7260 C   0  0  0  0  0  0  0  0  0  0  0  0
  186.6160  177.9810  141.4220 N   0  0  0  0  0  2  0  0  0  0  0  0
  187.7010  178.8170  140.9290 C   0  0  0  0  0  2  0  0  0  0  0  0
  189.3370  178.1390  139.1440 C   0  0  0  0  0  0  0  0  0  0  0  0
  190.2710  177.3920  138.7440 O   0  0  0  0  0  0  0  0  0  0  0  0
  188.8220  179.1400  138.2710 N   0  0  0  0  0  1  0  0  0  0  0  0
  189.3320  176.9640  141.3580 C   0  0  0  0  0  1  0  0  0  0  0  0
  188.8010  177.9810  140.4650 N   0  0  0  0  0  0  0  0  0  0  0  0
  1  4  1  0  0  0  0
  1 13  1  0  0  0  0
  2  1  2  0  0  0  0
  4  7  1  0  0  0  0
  5  8  1  0  0  0  0
  6  3  1  0  0  0  0
  7  8  2  0  0  0  0
  7 14  1  0  0  0  0
  9 10  2  0  0  0  0
  9 18  1  0  0  0  0
 11  2  1  0  0  0  0
 11 18  1  0  0  0  0
 12  5  2  0  0  0  0
 13  3  2  0  0  0  0
 13 14  1  0  0  0  0
 15 17  1  0  0  0  0
 15  9  1  0  0  0  0
 16 12  1  0  0  0  0
 16  4  2  0  0  0  0
 17 11  2  0  0  0  0
 18  6  2  0  0  0  0
 19 17  1  0  0  0  0
 20 19  1  0  0  0  0
 21 25  1  0  0  0  0
 22 21  2  0  0  0  0
 23 21  1  0  0  0  0
 25 20  1  0  0  0  0
 25 24  1  0  0  0  0
M  END
>  <MODEL>
3

>  <REMARK>
 VINA RESULT:     -10.1      2.828      5.279
  Name = 
  3 active torsions:
  status: ('A' for Active; 'I' for Inactive)
    1  A    between atoms: N_6  and  C_15
    2  A    between atoms: N_6  and  C_23
    3  A    between atoms: C_15  and  N_25
                            x       y       z     vdW  Elec       q    Type
                         _______ _______ _______ _____ _____    ______ ____

>  <TORSDO>
F 3

$$$$
=
 OpenBabel10272400533D

 25 28  0  0  0  0  0  0  0  0999 V2000
  188.2260  177.7140  144.2690 C   0  0  0  0  0  0  0  0  0  0  0  0
  188.4650  177.8690  142.9050 C   0  0  0  0  0  3  0  0  0  0  0  0
  185.7430  178.2510  144.4900 C   0  0  0  0  0  3  0  0  0  0  0  0
  189.2680  177.3400  145.1390 C   0  0  0  0  0  0  0  0  0  0  0  0
  191.0970  176.6040  147.1210 C   0  0  0  0  0  3  0  0  0  0  0  0
  185.3430  178.5520  143.1950 C   0  0  0  0  0  3  0  0  0  0  0  0
  188.8780  177.2190  146.4630 C   0  0  0  0  0  0  0  0  0  0  0  0
  189.7630  176.8550  147.4740 C   0  0  0  0  0  3  0  0  0  0  0  0
  185.7380  178.8530  140.7810 C   0  0  0  0  0  0  0  0  0  0  0  0
  184.5420  179.2060  140.4420 N   0  0  0  0  0  2  0  0  0  0  0  0
  187.5520  178.2160  141.9250 C   0  0  0  0  0  0  0  0  0  0  0  0
  191.5130  176.7210  145.7830 C   0  0  0  0  0  3  0  0  0  0  0  0
  187.0030  177.8840  144.9570 C   0  0  0  0  0  0  0  0  0  0  0  0
  187.2490  177.5680  146.5990 S   0  0  0  0  0  0  0  0  0  0  0  0
  186.7290  178.7530  139.9250 O   0  0  0  0  0  0  0  0  0  0  0  0
  190.6000  177.0890  144.7820 C   0  0  0  0  0  3  0  0  0  0  0  0
  187.8130  178.3730  140.5660 C   0  0  0  0  0  0  0  0  0  0  0  0
  186.1420  178.5390  142.0640 C   0  0  0  0  0  0  0  0  0  0  0  0
  189.0660  178.1810  139.8990 N   0  0  0  0  0  2  0  0  0  0  0  0
  189.7100  176.8900  139.7060 C   0  0  0  0  0  2  0  0  0  0  0  0
  191.9890  176.7190  138.6570 C   0  0  0  0  0  0  0  0  0  0  0  0
  193.2420  176.8280  138.7420 O   0  0  0  0  0  0  0  0  0  0  0  0
  191.4090  176.2760  137.4330 N   0  0  0  0  0  1  0  0  0  0  0  0
  191.7500  177.4990  141.0270 C   0  0  0  0  0  1  0  0  0  0  0  0
  191.1580  177.0410  139.7810 N   0  0  0  0  0  0  0  0  0  0  0  0
  1 13  1  0  0  0  0
  1  4  1  0  0  0  0
  2  1  2  0  0  0  0
  3 13  2  0  0  0  0
  4  7  1  0  0  0  0
  5  8  1  0  0  0  0
  6  3  1  0  0  0  0
  7 14  1  0  0  0  0
  7  8  2  0  0  0  0
  9 18  1  0  0  0  0
 10  9  2  0  0  0  0
 11 18  1  0  0  0  0
 11  2  1  0  0  0  0
 12  5  2  0  0  0  0
 13 14  1  0  0  0  0
 15 17  1  0  0  0  0
 15  9  1  0  0  0  0
 16  4  2  0  0  0  0
 16 12  1  0  0  0  0
 17 11  2  0  0  0  0
 18  6  2  0  0  0  0
 19 17  1  0  0  0  0
 20 25  1  0  0  0  0
 20 19  1  0  0  0  0
 21 22  2  0  0  0  0
 21 25  1  0  0  0  0
 23 21  1  0  0  0  0
 25 24  1  0  0  0  0
M  END
>  <MODEL>
4

>  <REMARK>
 VINA RESULT:      -9.8      2.610      5.270
  Name = 
  3 active torsions:
  status: ('A' for Active; 'I' for Inactive)
    1  A    between atoms: N_6  and  C_15
    2  A    between atoms: N_6  and  C_23
    3  A    between atoms: C_15  and  N_25
                            x       y       z     vdW  Elec       q    Type
                         _______ _______ _______ _____ _____    ______ ____

>  <TORSDO>
F 3

$$$$
=
 OpenBabel10272400533D

 25 28  0  0  0  0  0  0  0  0999 V2000
  188.2440  177.7400  144.3470 C   0  0  0  0  0  0  0  0  0  0  0  0
  188.4210  177.8940  142.9730 C   0  0  0  0  0  3  0  0  0  0  0  0
  185.7760  178.2850  144.6830 C   0  0  0  0  0  3  0  0  0  0  0  0
  189.3240  177.3610  145.1670 C   0  0  0  0  0  0  0  0  0  0  0  0
  191.2400  176.6170  147.0620 C   0  0  0  0  0  3  0  0  0  0  0  0
  185.3180  178.5880  143.4080 C   0  0  0  0  0  3  0  0  0  0  0  0
  188.9950  177.2400  146.5080 C   0  0  0  0  0  0  0  0  0  0  0  0
  189.9250  176.8730  147.4760 C   0  0  0  0  0  3  0  0  0  0  0  0
  185.6010  178.8900  140.9780 C   0  0  0  0  0  0  0  0  0  0  0  0
  184.3920  179.2480  140.6960 N   0  0  0  0  0  2  0  0  0  0  0  0
  187.4640  178.2460  142.0370 C   0  0  0  0  0  0  0  0  0  0  0  0
  191.5950  176.7340  145.7050 C   0  0  0  0  0  3  0  0  0  0  0  0
  187.0550  177.9140  145.0900 C   0  0  0  0  0  0  0  0  0  0  0  0
  187.3760  177.5950  146.7190 S   0  0  0  0  0  0  0  0  0  0  0  0
  186.5510  178.7870  140.0770 O   0  0  0  0  0  0  0  0  0  0  0  0
  190.6370  177.1060  144.7490 C   0  0  0  0  0  3  0  0  0  0  0  0
  187.6620  178.4030  140.6670 C   0  0  0  0  0  0  0  0  0  0  0  0
  186.0630  178.5740  142.2410 C   0  0  0  0  0  0  0  0  0  0  0  0
  188.8820  178.2070  139.9420 N   0  0  0  0  0  2  0  0  0  0  0  0
  189.3430  176.9240  139.4300 C   0  0  0  0  0  2  0  0  0  0  0  0
  190.5080  176.0390  137.3850 C   0  0  0  0  0  0  0  0  0  0  0  0
  190.8610  176.1770  136.1830 O   0  0  0  0  0  0  0  0  0  0  0  0
  190.8880  174.8630  138.0930 N   0  0  0  0  0  1  0  0  0  0  0  0
  189.3370  178.2540  137.3070 C   0  0  0  0  0  1  0  0  0  0  0  0
  189.7300  177.0570  138.0320 N   0  0  0  0  0  0  0  0  0  0  0  0
  1 13  1  0  0  0  0
  1  4  1  0  0  0  0
  2  1  2  0  0  0  0
  3 13  2  0  0  0  0
  4  7  1  0  0  0  0
  5  8  1  0  0  0  0
  6  3  1  0  0  0  0
  7 14  1  0  0  0  0
  7  8  2  0  0  0  0
  9 18  1  0  0  0  0
 10  9  2  0  0  0  0
 11 18  1  0  0  0  0
 11  2  1  0  0  0  0
 12  5  2  0  0  0  0
 13 14  1  0  0  0  0
 15 17  1  0  0  0  0
 15  9  1  0  0  0  0
 16  4  2  0  0  0  0
 16 12  1  0  0  0  0
 17 11  2  0  0  0  0
 18  6  2  0  0  0  0
 19 17  1  0  0  0  0
 20 19  1  0  0  0  0
 21 25  1  0  0  0  0
 21 23  1  0  0  0  0
 22 21  2  0  0  0  0
 24 25  1  0  0  0  0
 25 20  1  0  0  0  0
M  END
>  <MODEL>
5

>  <REMARK>
 VINA RESULT:      -9.6      3.008      5.404
  Name = 
  3 active torsions:
  status: ('A' for Active; 'I' for Inactive)
    1  A    between atoms: N_6  and  C_15
    2  A    between atoms: N_6  and  C_23
    3  A    between atoms: C_15  and  N_25
                            x       y       z     vdW  Elec       q    Type
                         _______ _______ _______ _____ _____    ______ ____

>  <TORSDO>
F 3

$$$$
=
 OpenBabel10272400533D

 25 28  0  0  0  0  0  0  0  0999 V2000
  186.8590  178.2150  144.6570 C   0  0  0  0  0  0  0  0  0  0  0  0
  187.4010  178.2180  143.3730 C   0  0  0  0  0  3  0  0  0  0  0  0
  184.4060  178.7870  144.2560 C   0  0  0  0  0  3  0  0  0  0  0  0
  187.6680  177.9310  145.7730 C   0  0  0  0  0  0  0  0  0  0  0  0
  188.9870  177.4040  148.1810 C   0  0  0  0  0  3  0  0  0  0  0  0
  184.3150  178.9470  142.8800 C   0  0  0  0  0  3  0  0  0  0  0  0
  186.9890  177.9570  146.9800 C   0  0  0  0  0  0  0  0  0  0  0  0
  187.6160  177.7000  148.1970 C   0  0  0  0  0  3  0  0  0  0  0  0
  185.2470  178.9820  140.5980 C   0  0  0  0  0  0  0  0  0  0  0  0
  184.1680  179.3030  139.9640 N   0  0  0  0  0  2  0  0  0  0  0  0
  186.7400  178.4630  142.1820 C   0  0  0  0  0  0  0  0  0  0  0  0
  189.6940  177.3730  146.9660 C   0  0  0  0  0  3  0  0  0  0  0  0
  185.5190  178.4650  145.0290 C   0  0  0  0  0  0  0  0  0  0  0  0
  185.3830  178.3280  146.7090 S   0  0  0  0  0  0  0  0  0  0  0  0
  186.4000  178.7840  140.0030 O   0  0  0  0  0  0  0  0  0  0  0  0
  189.0380  177.6350  145.7530 C   0  0  0  0  0  3  0  0  0  0  0  0
  187.3020  178.4700  140.9070 C   0  0  0  0  0  0  0  0  0  0  0  0
  185.3450  178.8070  141.9650 C   0  0  0  0  0  0  0  0  0  0  0  0
  188.6660  178.1990  140.5630 N   0  0  0  0  0  2  0  0  0  0  0  0
  189.2720  176.8750  140.5650 C   0  0  0  0  0  2  0  0  0  0  0  0
  190.5520  176.1740  142.6130 C   0  0  0  0  0  0  0  0  0  0  0  0
  191.5980  176.2120  143.3140 O   0  0  0  0  0  0  0  0  0  0  0  0
  189.4350  175.4140  143.0680 N   0  0  0  0  0  1  0  0  0  0  0  0
  191.6300  177.6560  140.9030 C   0  0  0  0  0  1  0  0  0  0  0  0
  190.4870  176.8860  141.3700 N   0  0  0  0  0  0  0  0  0  0  0  0
  1 13  1  0  0  0  0
  1  4  1  0  0  0  0
  2  1  2  0  0  0  0
  3 13  2  0  0  0  0
  4  7  1  0  0  0  0
  5  8  1  0  0  0  0
  6  3  1  0  0  0  0
  7  8  2  0  0  0  0
  9 18  1  0  0  0  0
 10  9  2  0  0  0  0
 11  2  1  0  0  0  0
 12  5  2  0  0  0  0
 13 14  1  0  0  0  0
 14  7  1  0  0  0  0
 15  9  1  0  0  0  0
 15 17  1  0  0  0  0
 16  4  2  0  0  0  0
 16 12  1  0  0  0  0
 17 11  2  0  0  0  0
 18 11  1  0  0  0  0
 18  6  2  0  0  0  0
 19 20  1  0  0  0  0
 19 17  1  0  0  0  0
 20 25  1  0  0  0  0
 21 23  1  0  0  0  0
 21 22  2  0  0  0  0
 24 25  1  0  0  0  0
 25 21  1  0  0  0  0
M  END
>  <MODEL>
6

>  <REMARK>
 VINA RESULT:      -9.6      2.131      5.322
  Name = 
  3 active torsions:
  status: ('A' for Active; 'I' for Inactive)
    1  A    between atoms: N_6  and  C_15
    2  A    between atoms: N_6  and  C_23
    3  A    between atoms: C_15  and  N_25
                            x       y       z     vdW  Elec       q    Type
                         _______ _______ _______ _____ _____    ______ ____

>  <TORSDO>
F 3

$$$$
=
 OpenBabel10272400533D

 25 28  0  0  0  0  0  0  0  0999 V2000
  186.8570  178.2020  144.5700 C   0  0  0  0  0  0  0  0  0  0  0  0
  187.3420  178.1680  143.2630 C   0  0  0  0  0  3  0  0  0  0  0  0
  184.4270  178.9170  144.2720 C   0  0  0  0  0  3  0  0  0  0  0  0
  187.6970  177.8750  145.6510 C   0  0  0  0  0  0  0  0  0  0  0  0
  189.0870  177.2810  148.0040 C   0  0  0  0  0  3  0  0  0  0  0  0
  184.2860  179.0770  142.9010 C   0  0  0  0  0  3  0  0  0  0  0  0
  187.0750  177.9470  146.8870 C   0  0  0  0  0  0  0  0  0  0  0  0
  187.7380  177.6580  148.0770 C   0  0  0  0  0  3  0  0  0  0  0  0
  185.1170  179.0470  140.5800 C   0  0  0  0  0  0  0  0  0  0  0  0
  184.0320  179.4290  139.9920 N   0  0  0  0  0  2  0  0  0  0  0  0
  186.6450  178.4470  142.1010 C   0  0  0  0  0  0  0  0  0  0  0  0
  189.7370  177.2030  146.7590 C   0  0  0  0  0  3  0  0  0  0  0  0
  185.5520  178.5330  144.9990 C   0  0  0  0  0  0  0  0  0  0  0  0
  185.4830  178.4120  146.6840 S   0  0  0  0  0  0  0  0  0  0  0  0
  186.2290  178.7780  139.9370 O   0  0  0  0  0  0  0  0  0  0  0  0
  189.0450  177.4990  145.5740 C   0  0  0  0  0  3  0  0  0  0  0  0
  187.1490  178.4150  140.8030 C   0  0  0  0  0  0  0  0  0  0  0  0
  185.2640  178.8720  141.9430 C   0  0  0  0  0  0  0  0  0  0  0  0
  188.4790  178.0620  140.4010 N   0  0  0  0  0  2  0  0  0  0  0  0
  188.9930  178.1830  139.0440 C   0  0  0  0  0  2  0  0  0  0  0  0
  190.4490  176.1780  138.6200 C   0  0  0  0  0  0  0  0  0  0  0  0
  190.6240  175.0450  138.0960 O   0  0  0  0  0  0  0  0  0  0  0  0
  191.5100  176.7730  139.3620 N   0  0  0  0  0  1  0  0  0  0  0  0
  188.1110  176.2470  137.7190 C   0  0  0  0  0  1  0  0  0  0  0  0
  189.1950  176.8590  138.4700 N   0  0  0  0  0  0  0  0  0  0  0  0
  1 13  1  0  0  0  0
  1  4  1  0  0  0  0
  2  1  2  0  0  0  0
  3 13  2  0  0  0  0
  4  7  1  0  0  0  0
  5  8  1  0  0  0  0
  6  3  1  0  0  0  0
  7  8  2  0  0  0  0
  9 18  1  0  0  0  0
 10  9  2  0  0  0  0
 11  2  1  0  0  0  0
 12  5  2  0  0  0  0
 13 14  1  0  0  0  0
 14  7  1  0  0  0  0
 15  9  1  0  0  0  0
 15 17  1  0  0  0  0
 16  4  2  0  0  0  0
 16 12  1  0  0  0  0
 17 11  2  0  0  0  0
 18 11  1  0  0  0  0
 18  6  2  0  0  0  0
 19 17  1  0  0  0  0
 20 19  1  0  0  0  0
 21 23  1  0  0  0  0
 22 21  2  0  0  0  0
 24 25  1  0  0  0  0
 25 21  1  0  0  0  0
 25 20  1  0  0  0  0
M  END
>  <MODEL>
7

>  <REMARK>
 VINA RESULT:      -9.6      2.834      5.303
  Name = 
  3 active torsions:
  status: ('A' for Active; 'I' for Inactive)
    1  A    between atoms: N_6  and  C_15
    2  A    between atoms: N_6  and  C_23
    3  A    between atoms: C_15  and  N_25
                            x       y       z     vdW  Elec       q    Type
                         _______ _______ _______ _____ _____    ______ ____

>  <TORSDO>
F 3

$$$$
=
 OpenBabel10272400533D

 25 28  0  0  0  0  0  0  0  0999 V2000
  186.4750  177.8950  143.9230 C   0  0  0  0  0  0  0  0  0  0  0  0
  187.3230  177.5230  142.8800 C   0  0  0  0  0  3  0  0  0  0  0  0
  187.9700  177.7180  145.9810 C   0  0  0  0  0  3  0  0  0  0  0  0
  185.1380  178.2510  143.6630 C   0  0  0  0  0  0  0  0  0  0  0  0
  182.4540  179.0150  143.4910 C   0  0  0  0  0  3  0  0  0  0  0  0
  189.1920  177.2930  145.4780 C   0  0  0  0  0  3  0  0  0  0  0  0
  184.4210  178.6040  144.7950 C   0  0  0  0  0  0  0  0  0  0  0  0
  183.0840  178.9890  144.7440 C   0  0  0  0  0  3  0  0  0  0  0  0
  190.7100  176.6100  143.6610 C   0  0  0  0  0  0  0  0  0  0  0  0
  191.7580  176.3700  144.3780 N   0  0  0  0  0  2  0  0  0  0  0  0
  188.6550  177.1620  142.9690 C   0  0  0  0  0  0  0  0  0  0  0  0
  183.1640  178.6600  142.3300 C   0  0  0  0  0  3  0  0  0  0  0  0
  186.7840  177.9810  145.2990 C   0  0  0  0  0  0  0  0  0  0  0  0
  185.4070  178.4890  146.1380 S   0  0  0  0  0  0  0  0  0  0  0  0
  190.6810  176.4620  142.3570 O   0  0  0  0  0  0  0  0  0  0  0  0
  184.5120  178.2760  142.4090 C   0  0  0  0  0  3  0  0  0  0  0  0
  189.4850  176.7850  141.9150 C   0  0  0  0  0  0  0  0  0  0  0  0
  189.4940  177.0460  144.1500 C   0  0  0  0  0  0  0  0  0  0  0  0
  189.1410  176.7200  140.5260 N   0  0  0  0  0  2  0  0  0  0  0  0
  189.0100  177.8770  139.6510 C   0  0  0  0  0  2  0  0  0  0  0  0
  188.8090  178.3970  137.2000 C   0  0  0  0  0  0  0  0  0  0  0  0
  188.6710  178.0100  136.0080 O   0  0  0  0  0  0  0  0  0  0  0  0
  188.8920  179.7930  137.4740 N   0  0  0  0  0  1  0  0  0  0  0  0
  188.8050  176.0170  137.9850 C   0  0  0  0  0  1  0  0  0  0  0  0
  188.8820  177.4410  138.2670 N   0  0  0  0  0  0  0  0  0  0  0  0
  1 13  1  0  0  0  0
  2 11  1  0  0  0  0
  2  1  2  0  0  0  0
  4  1  1  0  0  0  0
  4  7  1  0  0  0  0
  5  8  1  0  0  0  0
  6  3  1  0  0  0  0
  7 14  1  0  0  0  0
  8  7  2  0  0  0  0
  9 18  1  0  0  0  0
  9 10  2  0  0  0  0
 11 18  1  0  0  0  0
 12 16  1  0  0  0  0
 12  5  2  0  0  0  0
 13  3  2  0  0  0  0
 13 14  1  0  0  0  0
 15  9  1  0  0  0  0
 16  4  2  0  0  0  0
 17 15  1  0  0  0  0
 17 11  2  0  0  0  0
 18  6  2  0  0  0  0
 19 17  1  0  0  0  0
 20 19  1  0  0  0  0
 21 23  1  0  0  0  0
 21 25  1  0  0  0  0
 22 21  2  0  0  0  0
 24 25  1  0  0  0  0
 25 20  1  0  0  0  0
M  END
>  <MODEL>
8

>  <REMARK>
 VINA RESULT:      -9.3      2.146      2.839
  Name = 
  3 active torsions:
  status: ('A' for Active; 'I' for Inactive)
    1  A    between atoms: N_6  and  C_15
    2  A    between atoms: N_6  and  C_23
    3  A    between atoms: C_15  and  N_25
                            x       y       z     vdW  Elec       q    Type
                         _______ _______ _______ _____ _____    ______ ____

>  <TORSDO>
F 3

$$$$
=
 OpenBabel10272400533D

 25 28  0  0  0  0  0  0  0  0999 V2000
  187.0750  178.1120  143.6780 C   0  0  0  0  0  0  0  0  0  0  0  0
  188.1430  177.6900  142.8860 C   0  0  0  0  0  3  0  0  0  0  0  0
  185.3880  178.9730  141.9710 C   0  0  0  0  0  3  0  0  0  0  0  0
  187.1350  177.9930  145.0790 C   0  0  0  0  0  0  0  0  0  0  0  0
  186.9310  177.8890  147.8660 C   0  0  0  0  0  3  0  0  0  0  0  0
  186.0160  178.7840  140.7470 C   0  0  0  0  0  3  0  0  0  0  0  0
  185.9990  178.4460  145.7300 C   0  0  0  0  0  0  0  0  0  0  0  0
  185.8660  178.4100  147.1160 C   0  0  0  0  0  3  0  0  0  0  0  0
  187.8930  178.0670  139.3200 C   0  0  0  0  0  0  0  0  0  0  0  0
  187.3890  178.3930  138.1760 N   0  0  0  0  0  2  0  0  0  0  0  0
  188.2320  177.7280  141.5060 C   0  0  0  0  0  0  0  0  0  0  0  0
  188.0930  177.4240  147.2240 C   0  0  0  0  0  3  0  0  0  0  0  0
  185.8530  178.6770  143.2500 C   0  0  0  0  0  0  0  0  0  0  0  0
  184.8970  179.0040  144.6060 S   0  0  0  0  0  0  0  0  0  0  0  0
  189.0820  177.5270  139.4560 O   0  0  0  0  0  0  0  0  0  0  0  0
  188.2010  177.4720  145.8250 C   0  0  0  0  0  3  0  0  0  0  0  0
  189.3110  177.3080  140.7320 C   0  0  0  0  0  0  0  0  0  0  0  0
  187.2710  178.2380  140.5420 C   0  0  0  0  0  0  0  0  0  0  0  0
  190.5350  176.7270  141.2000 N   0  0  0  0  0  2  0  0  0  0  0  0
  191.5800  177.4560  141.9050 C   0  0  0  0  0  2  0  0  0  0  0  0
  191.6110  178.0380  144.3510 C   0  0  0  0  0  0  0  0  0  0  0  0
  191.6600  177.6820  145.5590 O   0  0  0  0  0  0  0  0  0  0  0  0
  191.5590  179.4270  144.0350 N   0  0  0  0  0  1  0  0  0  0  0  0
  191.6510  175.6380  143.6290 C   0  0  0  0  0  1  0  0  0  0  0  0
  191.6050  177.0550  143.3060 N   0  0  0  0  0  0  0  0  0  0  0  0
  1  4  1  0  0  0  0
  2  1  2  0  0  0  0
  3 13  2  0  0  0  0
  4  7  2  0  0  0  0
  4 16  1  0  0  0  0
  6  3  1  0  0  0  0
  7  8  1  0  0  0  0
  8  5  2  0  0  0  0
  9 15  1  0  0  0  0
  9 18  1  0  0  0  0
 10  9  2  0  0  0  0
 11  2  1  0  0  0  0
 12  5  1  0  0  0  0
 13  1  1  0  0  0  0
 13 14  1  0  0  0  0
 14  7  1  0  0  0  0
 15 17  1  0  0  0  0
 16 12  2  0  0  0  0
 17 19  1  0  0  0  0
 17 11  2  0  0  0  0
 18  6  2  0  0  0  0
 18 11  1  0  0  0  0
 19 20  1  0  0  0  0
 20 25  1  0  0  0  0
 21 22  2  0  0  0  0
 23 21  1  0  0  0  0
 25 24  1  0  0  0  0
 25 21  1  0  0  0  0
M  END
>  <MODEL>
9

>  <REMARK>
 VINA RESULT:      -9.2      1.827      5.127
  Name = 
  3 active torsions:
  status: ('A' for Active; 'I' for Inactive)
    1  A    between atoms: N_6  and  C_15
    2  A    between atoms: N_6  and  C_23
    3  A    between atoms: C_15  and  N_25
                            x       y       z     vdW  Elec       q    Type
                         _______ _______ _______ _____ _____    ______ ____

>  <TORSDO>
F 3

$$$$
