=
 OpenBabel10272415013D

 37 37  0  0  1  0  0  0  0  0999 V2000
  187.5690  177.6190  143.4310 C   0  0  2  0  0  3  0  0  0  0  0  0
  188.4830  176.8820  144.4180 C   0  0  1  0  0  3  0  0  0  0  0  0
  189.4860  176.0340  143.6600 C   0  0  0  0  0  1  0  0  0  0  0  0
  189.2110  177.8390  145.3570 C   0  0  0  0  0  2  0  0  0  0  0  0
  188.9330  176.5440  147.3090 O   0  0  0  0  0  0  0  0  0  0  0  0
  189.7140  177.1210  146.5670 C   0  0  0  0  0  0  0  0  0  0  0  0
  191.1860  177.0900  146.8400 C   0  0  2  0  0  3  0  0  0  0  0  0
  191.8910  177.3930  145.6750 O   0  0  0  0  0  1  0  0  0  0  0  0
  192.3630  175.0690  146.3960 F   0  0  0  0  0  0  0  0  0  0  0  0
  191.6160  175.7260  147.3560 C   0  0  0  0  0  2  0  0  0  0  0  0
  186.2090  177.3450  143.6360 O   0  0  0  0  0  0  0  0  0  0  0  0
  185.7050  178.4770  144.2850 C   0  0  2  0  0  3  0  0  0  0  0  0
  185.9600  178.8790  146.4500 C   0  0  0  0  0  1  0  0  0  0  0  0
  185.2130  178.1220  145.5460 O   0  0  0  0  0  0  0  0  0  0  0  0
  184.6170  179.1400  143.4370 C   0  0  2  0  0  3  0  0  0  0  0  0
  183.2980  179.1130  144.1960 C   0  0  0  0  0  2  0  0  0  0  0  0
  182.1350  178.9570  143.2690 C   0  0  0  0  0  3  0  0  0  0  0  0
  180.9100  178.7320  143.7370 C   0  0  0  0  0  2  0  0  0  0  0  0
  184.4500  178.4120  141.9710 C   0  0  0  0  0  2  0  0  0  0  0  0
  185.0170  179.2480  140.8070 C   0  0  0  0  0  2  0  0  0  0  0  0
  184.7950  178.1600  141.4010 O   0  0  0  0  0  0  0  0  0  0  0  0
  184.2800  179.6050  139.6340 N   0  0  0  0  0  2  0  0  0  0  0  0
  183.0080  179.0000  139.2630 C   0  0  0  0  0  2  0  0  0  0  0  0
  181.9070  180.0430  139.2970 C   0  0  0  0  0  1  0  0  0  0  0  0
  187.9720  177.4260  141.9660 C   0  0  0  0  0  2  0  0  0  0  0  0
  188.4840  178.6890  141.2700 C   0  0  0  0  0  2  0  0  0  0  0  0
  188.9500  178.4640  139.8310 C   0  0  1  0  0  3  0  0  0  0  0  0
  189.5930  177.0990  139.6600 C   0  0  2  0  0  3  0  0  0  0  0  0
  190.7160  177.0080  140.5000 O   0  0  0  0  0  0  0  0  0  0  0  0
  190.9660  177.2470  139.1360 C   0  0  1  0  0  3  0  0  0  0  0  0
  191.4030  175.9470  138.4770 C   0  0  0  0  0  2  0  0  0  0  0  0
  192.0030  176.1670  137.0880 C   0  0  1  0  0  3  0  0  0  0  0  0
  193.3720  175.5210  136.9730 C   0  0  0  0  0  1  0  0  0  0  0  0
  190.3850  174.3910  136.4070 C   0  0  0  0  0  1  0  0  0  0  0  0
  191.0900  175.6640  135.9780 C   0  0  0  0  0  2  0  0  0  0  0  0
  187.8960  178.6280  138.9270 O   0  0  0  0  0  0  0  0  0  0  0  0
  187.7450  177.3810  138.3200 C   0  0  0  0  0  1  0  0  0  0  0  0
  1 25  1  6  0  0  0
  1 11  1  0  0  0  0
  1  2  1  0  0  0  0
  2  3  1  6  0  0  0
  2  4  1  0  0  0  0
  4  6  1  0  0  0  0
  6  7  1  0  0  0  0
  6  5  2  0  0  0  0
  7  8  1  6  0  0  0
  7 10  1  0  0  0  0
  9 10  1  0  0  0  0
 12 11  1  6  0  0  0
 12 14  1  0  0  0  0
 14 13  1  0  0  0  0
 15 19  1  6  0  0  0
 15 16  1  0  0  0  0
 15 12  1  0  0  0  0
 17 18  2  0  0  0  0
 17 16  1  0  0  0  0
 20 21  1  0  0  0  0
 21 19  1  0  0  0  0
 22 20  1  0  0  0  0
 23 24  1  0  0  0  0
 23 22  1  0  0  0  0
 26 25  1  0  0  0  0
 27 26  1  1  0  0  0
 28 27  1  1  0  0  0
 28 29  1  0  0  0  0
 30 31  1  6  0  0  0
 30 28  1  0  0  0  0
 30 29  1  0  0  0  0
 32 33  1  1  0  0  0
 32 31  1  0  0  0  0
 35 34  1  0  0  0  0
 35 32  1  0  0  0  0
 36 27  1  0  0  0  0
 37 36  1  0  0  0  0
M  END
>  <MODEL>
1

>  <REMARK>
 VINA RESULT:      -6.4      0.000      0.000
  Name = 
  22 active torsions:
  status: ('A' for Active; 'I' for Inactive)
    1  A    between atoms: C_1  and  C_5
    2  A    between atoms: C_1  and  C_36
    3  A    between atoms: C_2  and  C_19
    4  A    between atoms: C_2  and  C_35
    5  A    between atoms: C_3  and  N_32
    6  A    between atoms: C_4  and  O_10
    7  A    between atoms: C_4  and  C_13
    8  A    between atoms: C_4  and  O_28
    9  A    between atoms: C_5  and  C_23
   10  A    between atoms: C_6  and  C_31
   11  A    between atoms: C_6  and  C_35
   12  A    between atoms: C_7  and  C_14
   13  A    between atoms: C_7  and  C_27
   14  A    between atoms: C_9  and  C_13
   15  A    between atoms: C_9  and  C_16
   16  A    between atoms: O_10  and  C_14
   17  A    between atoms: O_11  and  C_33
   18  A    between atoms: C_13  and  C_20
   19  A    between atoms: C_14  and  C_31
   20  A    between atoms: C_20  and  C_21
   21  A    between atoms: C_26  and  C_33
   22  A    between atoms: C_27  and  C_33
                            x       y       z     vdW  Elec       q    Type
                         _______ _______ _______ _____ _____    ______ ____

>  <TORSDO>
F 22

$$$$
=
 OpenBabel10272415013D

 37 37  0  0  1  0  0  0  0  0999 V2000
  188.7860  177.8170  141.3280 C   0  0  2  0  0  3  0  0  0  0  0  0
  189.1730  177.4000  139.9030 C   0  0  1  0  0  3  0  0  0  0  0  0
  189.1290  178.6040  138.9820 C   0  0  0  0  0  1  0  0  0  0  0  0
  190.5500  176.7470  139.8450 C   0  0  0  0  0  2  0  0  0  0  0  0
  190.0240  175.1440  138.1970 O   0  0  0  0  0  0  0  0  0  0  0  0
  190.7610  176.0580  138.5360 C   0  0  0  0  0  0  0  0  0  0  0  0
  191.8620  176.5210  137.6340 C   0  0  2  0  0  3  0  0  0  0  0  0
  191.9430  175.6900  136.5170 O   0  0  0  0  0  1  0  0  0  0  0  0
  193.7980  175.2880  138.2630 F   0  0  0  0  0  0  0  0  0  0  0  0
  193.1960  176.5290  138.3630 C   0  0  0  0  0  2  0  0  0  0  0  0
  189.5450  177.1700  142.3130 O   0  0  0  0  0  0  0  0  0  0  0  0
  189.8320  178.1610  143.2580 C   0  0  2  0  0  3  0  0  0  0  0  0
  191.2770  179.6980  143.9380 C   0  0  0  0  0  1  0  0  0  0  0  0
  191.1670  178.5610  143.1370 O   0  0  0  0  0  0  0  0  0  0  0  0
  189.5360  177.6530  144.6710 C   0  0  2  0  0  3  0  0  0  0  0  0
  190.5290  176.5570  145.0320 C   0  0  0  0  0  2  0  0  0  0  0  0
  191.3420  176.9270  146.2320 C   0  0  0  0  0  3  0  0  0  0  0  0
  191.5940  176.0390  147.1900 C   0  0  0  0  0  2  0  0  0  0  0  0
  187.9940  177.1000  144.8170 C   0  0  0  0  0  2  0  0  0  0  0  0
  187.0760  178.0550  145.6060 C   0  0  0  0  0  2  0  0  0  0  0  0
  187.3610  176.9370  145.1020 O   0  0  0  0  0  0  0  0  0  0  0  0
  187.1480  178.2600  147.0200 N   0  0  0  0  0  2  0  0  0  0  0  0
  187.8970  177.4000  147.9250 C   0  0  0  0  0  2  0  0  0  0  0  0
  188.9300  178.2140  148.6810 C   0  0  0  0  0  1  0  0  0  0  0  0
  187.2840  177.7100  141.6080 C   0  0  0  0  0  2  0  0  0  0  0  0
  186.5480  179.0500  141.6800 C   0  0  0  0  0  2  0  0  0  0  0  0
  185.0390  178.9460  141.4490 C   0  0  1  0  0  3  0  0  0  0  0  0
  184.7160  178.6770  139.9900 C   0  0  2  0  0  3  0  0  0  0  0  0
  184.8690  179.8650  139.2540 O   0  0  0  0  0  0  0  0  0  0  0  0
  183.5510  179.4840  139.5700 C   0  0  1  0  0  3  0  0  0  0  0  0
  182.9110  178.8540  138.3420 C   0  0  0  0  0  2  0  0  0  0  0  0
  181.5690  179.4960  137.9880 C   0  0  1  0  0  3  0  0  0  0  0  0
  180.4260  178.8180  138.7220 C   0  0  0  0  0  1  0  0  0  0  0  0
  180.4230  181.3480  139.2110 C   0  0  0  0  0  1  0  0  0  0  0  0
  181.5550  180.9930  138.2650 C   0  0  0  0  0  2  0  0  0  0  0  0
  184.4680  177.9680  142.2680 O   0  0  0  0  0  0  0  0  0  0  0  0
  184.1200  178.6390  143.4410 C   0  0  0  0  0  1  0  0  0  0  0  0
  1 25  1  1  0  0  0
  1 11  1  0  0  0  0
  2  3  1  6  0  0  0
  2  1  1  0  0  0  0
  4  2  1  0  0  0  0
  5  6  2  0  0  0  0
  6  4  1  0  0  0  0
  7  8  1  6  0  0  0
  7 10  1  0  0  0  0
  7  6  1  0  0  0  0
  9 10  1  0  0  0  0
 12 11  1  6  0  0  0
 12 15  1  0  0  0  0
 14 12  1  0  0  0  0
 14 13  1  0  0  0  0
 15 19  1  6  0  0  0
 15 16  1  0  0  0  0
 16 17  1  0  0  0  0
 17 18  2  0  0  0  0
 19 21  1  0  0  0  0
 20 22  1  0  0  0  0
 21 20  1  0  0  0  0
 22 23  1  0  0  0  0
 23 24  1  0  0  0  0
 25 26  1  0  0  0  0
 27 26  1  6  0  0  0
 27 36  1  0  0  0  0
 28 27  1  1  0  0  0
 29 30  1  0  0  0  0
 29 28  1  0  0  0  0
 30 31  1  6  0  0  0
 30 28  1  0  0  0  0
 32 35  1  0  0  0  0
 32 31  1  0  0  0  0
 32 33  1  1  0  0  0
 35 34  1  0  0  0  0
 36 37  1  0  0  0  0
M  END
>  <MODEL>
2

>  <REMARK>
 VINA RESULT:      -6.4      2.579      7.803
  Name = 
  22 active torsions:
  status: ('A' for Active; 'I' for Inactive)
    1  A    between atoms: C_1  and  C_5
    2  A    between atoms: C_1  and  C_36
    3  A    between atoms: C_2  and  C_19
    4  A    between atoms: C_2  and  C_35
    5  A    between atoms: C_3  and  N_32
    6  A    between atoms: C_4  and  O_10
    7  A    between atoms: C_4  and  C_13
    8  A    between atoms: C_4  and  O_28
    9  A    between atoms: C_5  and  C_23
   10  A    between atoms: C_6  and  C_31
   11  A    between atoms: C_6  and  C_35
   12  A    between atoms: C_7  and  C_14
   13  A    between atoms: C_7  and  C_27
   14  A    between atoms: C_9  and  C_13
   15  A    between atoms: C_9  and  C_16
   16  A    between atoms: O_10  and  C_14
   17  A    between atoms: O_11  and  C_33
   18  A    between atoms: C_13  and  C_20
   19  A    between atoms: C_14  and  C_31
   20  A    between atoms: C_20  and  C_21
   21  A    between atoms: C_26  and  C_33
   22  A    between atoms: C_27  and  C_33
                            x       y       z     vdW  Elec       q    Type
                         _______ _______ _______ _____ _____    ______ ____

>  <TORSDO>
F 22

$$$$
=
 OpenBabel10272415013D

 37 37  0  0  1  0  0  0  0  0999 V2000
  189.0240  178.0390  141.0150 C   0  0  2  0  0  3  0  0  0  0  0  0
  189.7680  177.7620  139.7030 C   0  0  1  0  0  3  0  0  0  0  0  0
  191.0930  177.0830  139.9930 C   0  0  0  0  0  1  0  0  0  0  0  0
  188.9460  176.9130  138.7380 C   0  0  0  0  0  2  0  0  0  0  0  0
  190.0870  177.3460  136.7200 O   0  0  0  0  0  0  0  0  0  0  0  0
  189.0410  177.4430  137.3440 C   0  0  0  0  0  0  0  0  0  0  0  0
  187.8330  178.0620  136.7130 C   0  0  2  0  0  3  0  0  0  0  0  0
  187.3690  179.1120  137.5050 O   0  0  0  0  0  1  0  0  0  0  0  0
  187.2680  175.8200  136.1490 F   0  0  0  0  0  0  0  0  0  0  0  0
  186.7280  177.0350  136.5280 C   0  0  0  0  0  2  0  0  0  0  0  0
  189.5050  177.2770  142.0890 O   0  0  0  0  0  0  0  0  0  0  0  0
  189.8190  178.2100  143.0830 C   0  0  2  0  0  3  0  0  0  0  0  0
  191.3170  179.6550  143.8450 C   0  0  0  0  0  1  0  0  0  0  0  0
  191.1730  178.5510  143.0030 O   0  0  0  0  0  0  0  0  0  0  0  0
  189.4720  177.6540  144.4660 C   0  0  2  0  0  3  0  0  0  0  0  0
  190.4610  176.5570  144.8330 C   0  0  0  0  0  2  0  0  0  0  0  0
  191.1470  176.8480  146.1300 C   0  0  0  0  0  3  0  0  0  0  0  0
  191.9730  175.9640  146.6830 C   0  0  0  0  0  2  0  0  0  0  0  0
  187.9310  177.0820  144.5320 C   0  0  0  0  0  2  0  0  0  0  0  0
  186.9700  178.0050  145.3060 C   0  0  0  0  0  2  0  0  0  0  0  0
  187.2890  176.9040  144.7840 O   0  0  0  0  0  0  0  0  0  0  0  0
  186.9780  178.1710  146.7270 N   0  0  0  0  0  2  0  0  0  0  0  0
  187.6970  177.2930  147.6390 C   0  0  0  0  0  2  0  0  0  0  0  0
  188.6150  178.1070  148.5310 C   0  0  0  0  0  1  0  0  0  0  0  0
  187.5010  177.9380  140.8850 C   0  0  0  0  0  2  0  0  0  0  0  0
  186.7200  178.9970  141.6660 C   0  0  0  0  0  2  0  0  0  0  0  0
  185.2110  178.9710  141.4150 C   0  0  1  0  0  3  0  0  0  0  0  0
  184.8940  178.7790  139.9430 C   0  0  2  0  0  3  0  0  0  0  0  0
  184.6620  180.0330  139.3510 O   0  0  0  0  0  0  0  0  0  0  0  0
  183.5260  179.2580  139.6510 C   0  0  1  0  0  3  0  0  0  0  0  0
  183.0200  178.6070  138.3730 C   0  0  0  0  0  2  0  0  0  0  0  0
  181.5460  178.2100  138.4630 C   0  0  1  0  0  3  0  0  0  0  0  0
  181.1970  177.7080  139.8520 C   0  0  0  0  0  1  0  0  0  0  0  0
  180.9920  179.8930  136.7020 C   0  0  0  0  0  1  0  0  0  0  0  0
  180.6160  179.3500  138.0680 C   0  0  0  0  0  2  0  0  0  0  0  0
  184.5880  177.9840  142.1850 O   0  0  0  0  0  0  0  0  0  0  0  0
  184.0030  178.6730  143.2480 C   0  0  0  0  0  1  0  0  0  0  0  0
  1 25  1  6  0  0  0
  1 11  1  0  0  0  0
  2  3  1  1  0  0  0
  2  1  1  0  0  0  0
  4  2  1  0  0  0  0
  5  6  2  0  0  0  0
  6  4  1  0  0  0  0
  7  6  1  0  0  0  0
  7  8  1  1  0  0  0
  9 10  1  0  0  0  0
 10  7  1  0  0  0  0
 12 11  1  6  0  0  0
 12 15  1  0  0  0  0
 14 12  1  0  0  0  0
 14 13  1  0  0  0  0
 15 19  1  6  0  0  0
 15 16  1  0  0  0  0
 16 17  1  0  0  0  0
 17 18  2  0  0  0  0
 19 21  1  0  0  0  0
 20 22  1  0  0  0  0
 21 20  1  0  0  0  0
 22 23  1  0  0  0  0
 23 24  1  0  0  0  0
 25 26  1  0  0  0  0
 27 26  1  6  0  0  0
 27 36  1  0  0  0  0
 28 27  1  1  0  0  0
 29 30  1  0  0  0  0
 29 28  1  0  0  0  0
 30 31  1  6  0  0  0
 30 28  1  0  0  0  0
 31 32  1  0  0  0  0
 32 33  1  1  0  0  0
 34 35  1  0  0  0  0
 35 32  1  0  0  0  0
 36 37  1  0  0  0  0
M  END
>  <MODEL>
3

>  <REMARK>
 VINA RESULT:      -6.3      2.942      8.005
  Name = 
  22 active torsions:
  status: ('A' for Active; 'I' for Inactive)
    1  A    between atoms: C_1  and  C_5
    2  A    between atoms: C_1  and  C_36
    3  A    between atoms: C_2  and  C_19
    4  A    between atoms: C_2  and  C_35
    5  A    between atoms: C_3  and  N_32
    6  A    between atoms: C_4  and  O_10
    7  A    between atoms: C_4  and  C_13
    8  A    between atoms: C_4  and  O_28
    9  A    between atoms: C_5  and  C_23
   10  A    between atoms: C_6  and  C_31
   11  A    between atoms: C_6  and  C_35
   12  A    between atoms: C_7  and  C_14
   13  A    between atoms: C_7  and  C_27
   14  A    between atoms: C_9  and  C_13
   15  A    between atoms: C_9  and  C_16
   16  A    between atoms: O_10  and  C_14
   17  A    between atoms: O_11  and  C_33
   18  A    between atoms: C_13  and  C_20
   19  A    between atoms: C_14  and  C_31
   20  A    between atoms: C_20  and  C_21
   21  A    between atoms: C_26  and  C_33
   22  A    between atoms: C_27  and  C_33
                            x       y       z     vdW  Elec       q    Type
                         _______ _______ _______ _____ _____    ______ ____

>  <TORSDO>
F 22

$$$$
=
 OpenBabel10272415013D

 37 37  0  0  1  0  0  0  0  0999 V2000
  187.8040  177.5100  143.1860 C   0  0  2  0  0  3  0  0  0  0  0  0
  188.9180  176.9710  144.0910 C   0  0  1  0  0  3  0  0  0  0  0  0
  189.8470  176.0770  143.2920 C   0  0  0  0  0  1  0  0  0  0  0  0
  189.7150  178.0880  144.7580 C   0  0  0  0  0  2  0  0  0  0  0  0
  191.9730  177.6960  145.3120 O   0  0  0  0  0  0  0  0  0  0  0  0
  190.8020  177.5310  145.6180 C   0  0  0  0  0  0  0  0  0  0  0  0
  190.4390  176.7990  146.8730 C   0  0  2  0  0  3  0  0  0  0  0  0
  189.6820  177.6260  147.7030 O   0  0  0  0  0  1  0  0  0  0  0  0
  191.6660  174.9610  147.7550 F   0  0  0  0  0  0  0  0  0  0  0  0
  191.6840  176.3360  147.6120 C   0  0  0  0  0  2  0  0  0  0  0  0
  186.5330  177.0340  143.5400 O   0  0  0  0  0  0  0  0  0  0  0  0
  185.8630  178.1460  144.0620 C   0  0  2  0  0  3  0  0  0  0  0  0
  186.2880  178.7150  146.1620 C   0  0  0  0  0  1  0  0  0  0  0  0
  185.4770  177.8890  145.3820 O   0  0  0  0  0  0  0  0  0  0  0  0
  184.6530  178.4970  143.1930 C   0  0  2  0  0  3  0  0  0  0  0  0
  185.1230  179.2290  141.9440 C   0  0  0  0  0  2  0  0  0  0  0  0
  184.6040  178.5810  140.7010 C   0  0  0  0  0  3  0  0  0  0  0  0
  184.3200  179.3010  139.6190 C   0  0  0  0  0  2  0  0  0  0  0  0
  183.5520  179.4070  144.0090 C   0  0  0  0  0  2  0  0  0  0  0  0
  182.2800  178.6250  144.3940 C   0  0  0  0  0  2  0  0  0  0  0  0
  183.0370  179.6300  144.4490 O   0  0  0  0  0  0  0  0  0  0  0  0
  181.0510  178.6720  143.6640 N   0  0  0  0  0  2  0  0  0  0  0  0
  180.7560  179.6660  142.6410 C   0  0  0  0  0  2  0  0  0  0  0  0
  180.9560  179.0660  141.2620 C   0  0  0  0  0  1  0  0  0  0  0  0
  188.0860  177.3200  141.6920 C   0  0  0  0  0  2  0  0  0  0  0  0
  188.6030  178.5680  140.9740 C   0  0  0  0  0  2  0  0  0  0  0  0
  188.8380  178.3720  139.4750 C   0  0  1  0  0  3  0  0  0  0  0  0
  189.3360  176.9720  139.1660 C   0  0  2  0  0  3  0  0  0  0  0  0
  190.5310  176.7400  139.8680 O   0  0  0  0  0  0  0  0  0  0  0  0
  190.6520  177.0360  138.4980 C   0  0  1  0  0  3  0  0  0  0  0  0
  190.8990  175.7460  137.7320 C   0  0  0  0  0  2  0  0  0  0  0  0
  192.1590  175.8110  136.8660 C   0  0  1  0  0  3  0  0  0  0  0  0
  193.4050  175.9490  137.7220 C   0  0  0  0  0  1  0  0  0  0  0  0
  191.3990  173.4740  136.4200 C   0  0  0  0  0  1  0  0  0  0  0  0
  192.2870  174.6080  135.9420 C   0  0  0  0  0  2  0  0  0  0  0  0
  187.6820  178.6570  138.7420 O   0  0  0  0  0  0  0  0  0  0  0  0
  187.3810  177.4710  138.0700 C   0  0  0  0  0  1  0  0  0  0  0  0
  1 25  1  6  0  0  0
  1 11  1  0  0  0  0
  1  2  1  0  0  0  0
  2  3  1  6  0  0  0
  2  4  1  0  0  0  0
  4  6  1  0  0  0  0
  5  6  2  0  0  0  0
  6  7  1  0  0  0  0
  7 10  1  0  0  0  0
  7  8  1  1  0  0  0
 10  9  1  0  0  0  0
 12 11  1  6  0  0  0
 12 14  1  0  0  0  0
 14 13  1  0  0  0  0
 15 16  1  6  0  0  0
 15 19  1  0  0  0  0
 15 12  1  0  0  0  0
 17 16  1  0  0  0  0
 18 17  2  0  0  0  0
 19 21  1  0  0  0  0
 20 21  1  0  0  0  0
 22 20  1  0  0  0  0
 23 22  1  0  0  0  0
 24 23  1  0  0  0  0
 26 25  1  0  0  0  0
 27 26  1  1  0  0  0
 28 27  1  1  0  0  0
 28 29  1  0  0  0  0
 30 31  1  6  0  0  0
 30 28  1  0  0  0  0
 30 29  1  0  0  0  0
 32 33  1  1  0  0  0
 32 31  1  0  0  0  0
 35 34  1  0  0  0  0
 35 32  1  0  0  0  0
 36 27  1  0  0  0  0
 37 36  1  0  0  0  0
M  END
>  <MODEL>
4

>  <REMARK>
 VINA RESULT:      -6.3      1.342      2.216
  Name = 
  22 active torsions:
  status: ('A' for Active; 'I' for Inactive)
    1  A    between atoms: C_1  and  C_5
    2  A    between atoms: C_1  and  C_36
    3  A    between atoms: C_2  and  C_19
    4  A    between atoms: C_2  and  C_35
    5  A    between atoms: C_3  and  N_32
    6  A    between atoms: C_4  and  O_10
    7  A    between atoms: C_4  and  C_13
    8  A    between atoms: C_4  and  O_28
    9  A    between atoms: C_5  and  C_23
   10  A    between atoms: C_6  and  C_31
   11  A    between atoms: C_6  and  C_35
   12  A    between atoms: C_7  and  C_14
   13  A    between atoms: C_7  and  C_27
   14  A    between atoms: C_9  and  C_13
   15  A    between atoms: C_9  and  C_16
   16  A    between atoms: O_10  and  C_14
   17  A    between atoms: O_11  and  C_33
   18  A    between atoms: C_13  and  C_20
   19  A    between atoms: C_14  and  C_31
   20  A    between atoms: C_20  and  C_21
   21  A    between atoms: C_26  and  C_33
   22  A    between atoms: C_27  and  C_33
                            x       y       z     vdW  Elec       q    Type
                         _______ _______ _______ _____ _____    ______ ____

>  <TORSDO>
F 22

$$$$
=
 OpenBabel10272415013D

 37 37  0  0  1  0  0  0  0  0999 V2000
  188.3680  177.9700  140.7330 C   0  0  2  0  0  3  0  0  0  0  0  0
  189.1240  177.8940  139.4010 C   0  0  1  0  0  3  0  0  0  0  0  0
  190.0980  176.7330  139.4240 C   0  0  0  0  0  1  0  0  0  0  0  0
  188.1830  177.7640  138.2070 C   0  0  0  0  0  2  0  0  0  0  0  0
  189.0610  179.6870  137.1630 O   0  0  0  0  0  0  0  0  0  0  0  0
  188.7000  178.5280  137.0310 C   0  0  0  0  0  0  0  0  0  0  0  0
  188.8000  177.8450  135.7030 C   0  0  2  0  0  3  0  0  0  0  0  0
  187.5900  177.9600  135.0180 O   0  0  0  0  0  1  0  0  0  0  0  0
  188.0350  175.5920  135.6680 F   0  0  0  0  0  0  0  0  0  0  0  0
  189.1550  176.3770  135.8700 C   0  0  0  0  0  2  0  0  0  0  0  0
  188.7870  177.0000  141.6550 O   0  0  0  0  0  0  0  0  0  0  0  0
  189.3850  177.7220  142.6930 C   0  0  2  0  0  3  0  0  0  0  0  0
  190.9140  176.1300  142.9010 C   0  0  0  0  0  1  0  0  0  0  0  0
  190.7670  177.5020  142.6890 O   0  0  0  0  0  0  0  0  0  0  0  0
  188.7700  177.3330  144.0400 C   0  0  2  0  0  3  0  0  0  0  0  0
  187.2720  177.6040  144.0080 C   0  0  0  0  0  2  0  0  0  0  0  0
  186.6660  177.4880  145.3700 C   0  0  0  0  0  3  0  0  0  0  0  0
  185.5490  178.1410  145.6820 C   0  0  0  0  0  2  0  0  0  0  0  0
  189.4710  178.1350  145.2930 C   0  0  0  0  0  2  0  0  0  0  0  0
  190.2210  177.2070  146.2680 C   0  0  0  0  0  2  0  0  0  0  0  0
  190.0890  178.2770  145.6180 O   0  0  0  0  0  0  0  0  0  0  0  0
  190.0080  177.1770  147.6820 N   0  0  0  0  0  2  0  0  0  0  0  0
  189.2670  178.1990  148.4090 C   0  0  0  0  0  2  0  0  0  0  0  0
  187.9020  177.6700  148.8040 C   0  0  0  0  0  1  0  0  0  0  0  0
  186.8450  177.9790  140.5700 C   0  0  0  0  0  2  0  0  0  0  0  0
  186.1320  179.1360  141.2740 C   0  0  0  0  0  2  0  0  0  0  0  0
  184.6080  179.0940  141.1550 C   0  0  1  0  0  3  0  0  0  0  0  0
  184.1650  178.9610  139.7090 C   0  0  2  0  0  3  0  0  0  0  0  0
  184.4520  180.1550  139.0250 O   0  0  0  0  0  0  0  0  0  0  0  0
  183.1130  179.9540  139.4070 C   0  0  1  0  0  3  0  0  0  0  0  0
  182.3150  179.4990  138.1950 C   0  0  0  0  0  2  0  0  0  0  0  0
  180.9690  180.2160  138.0780 C   0  0  1  0  0  3  0  0  0  0  0  0
  180.7040  181.0880  139.2920 C   0  0  0  0  0  1  0  0  0  0  0  0
  180.7740  180.1410  135.5890 C   0  0  0  0  0  1  0  0  0  0  0  0
  180.8650  181.0440  136.8040 C   0  0  0  0  0  2  0  0  0  0  0  0
  184.0690  178.0640  141.9320 O   0  0  0  0  0  0  0  0  0  0  0  0
  183.3540  178.7110  142.9420 C   0  0  0  0  0  1  0  0  0  0  0  0
  1 25  1  6  0  0  0
  1 11  1  0  0  0  0
  2  3  1  1  0  0  0
  2  1  1  0  0  0  0
  4  2  1  0  0  0  0
  6  5  2  0  0  0  0
  6  4  1  0  0  0  0
  7  8  1  1  0  0  0
  7 10  1  0  0  0  0
  7  6  1  0  0  0  0
  9 10  1  0  0  0  0
 12 11  1  6  0  0  0
 12 15  1  0  0  0  0
 14 12  1  0  0  0  0
 14 13  1  0  0  0  0
 15 16  1  6  0  0  0
 15 19  1  0  0  0  0
 16 17  1  0  0  0  0
 17 18  2  0  0  0  0
 19 21  1  0  0  0  0
 20 22  1  0  0  0  0
 21 20  1  0  0  0  0
 22 23  1  0  0  0  0
 23 24  1  0  0  0  0
 25 26  1  0  0  0  0
 27 26  1  6  0  0  0
 27 36  1  0  0  0  0
 28 27  1  1  0  0  0
 29 30  1  0  0  0  0
 29 28  1  0  0  0  0
 30 31  1  6  0  0  0
 30 28  1  0  0  0  0
 32 31  1  0  0  0  0
 32 33  1  1  0  0  0
 34 35  1  0  0  0  0
 35 32  1  0  0  0  0
 36 37  1  0  0  0  0
M  END
>  <MODEL>
5

>  <REMARK>
 VINA RESULT:      -6.2      3.145      8.211
  Name = 
  22 active torsions:
  status: ('A' for Active; 'I' for Inactive)
    1  A    between atoms: C_1  and  C_5
    2  A    between atoms: C_1  and  C_36
    3  A    between atoms: C_2  and  C_19
    4  A    between atoms: C_2  and  C_35
    5  A    between atoms: C_3  and  N_32
    6  A    between atoms: C_4  and  O_10
    7  A    between atoms: C_4  and  C_13
    8  A    between atoms: C_4  and  O_28
    9  A    between atoms: C_5  and  C_23
   10  A    between atoms: C_6  and  C_31
   11  A    between atoms: C_6  and  C_35
   12  A    between atoms: C_7  and  C_14
   13  A    between atoms: C_7  and  C_27
   14  A    between atoms: C_9  and  C_13
   15  A    between atoms: C_9  and  C_16
   16  A    between atoms: O_10  and  C_14
   17  A    between atoms: O_11  and  C_33
   18  A    between atoms: C_13  and  C_20
   19  A    between atoms: C_14  and  C_31
   20  A    between atoms: C_20  and  C_21
   21  A    between atoms: C_26  and  C_33
   22  A    between atoms: C_27  and  C_33
                            x       y       z     vdW  Elec       q    Type
                         _______ _______ _______ _____ _____    ______ ____

>  <TORSDO>
F 22

$$$$
=
 OpenBabel10272415013D

 37 37  0  0  1  0  0  0  0  0999 V2000
  190.1090  176.2530  138.3200 C   0  0  2  0  0  3  0  0  0  0  0  0
  191.0560  175.1750  137.7790 C   0  0  1  0  0  3  0  0  0  0  0  0
  190.2570  174.0570  137.1380 C   0  0  0  0  0  1  0  0  0  0  0  0
  192.0630  175.7370  136.7800 C   0  0  0  0  0  2  0  0  0  0  0  0
  193.8240  177.0250  137.6770 O   0  0  0  0  0  0  0  0  0  0  0  0
  193.4060  175.9080  137.4120 C   0  0  0  0  0  0  0  0  0  0  0  0
  194.2170  174.6940  137.7450 C   0  0  2  0  0  3  0  0  0  0  0  0
  195.5210  175.0680  138.0670 O   0  0  0  0  0  1  0  0  0  0  0  0
  193.8380  172.4630  137.0080 F   0  0  0  0  0  0  0  0  0  0  0  0
  194.2370  173.7160  136.5820 C   0  0  0  0  0  2  0  0  0  0  0  0
  189.8020  177.2390  137.3710 O   0  0  0  0  0  0  0  0  0  0  0  0
  188.7190  176.7240  136.6510 C   0  0  2  0  0  3  0  0  0  0  0  0
  189.2450  176.9390  134.5080 C   0  0  0  0  0  1  0  0  0  0  0  0
  188.4800  177.5160  135.5220 O   0  0  0  0  0  0  0  0  0  0  0  0
  187.4760  176.6420  137.5390 C   0  0  2  0  0  3  0  0  0  0  0  0
  186.4050  175.8190  136.8370 C   0  0  0  0  0  2  0  0  0  0  0  0
  185.0430  176.4010  137.0420 C   0  0  0  0  0  3  0  0  0  0  0  0
  184.0980  175.7240  137.6880 C   0  0  0  0  0  2  0  0  0  0  0  0
  186.8930  178.1320  137.9220 C   0  0  0  0  0  2  0  0  0  0  0  0
  186.9980  178.4600  139.4250 C   0  0  0  0  0  2  0  0  0  0  0  0
  186.9840  178.7790  138.2070 O   0  0  0  0  0  0  0  0  0  0  0  0
  185.8800  178.7450  140.2700 N   0  0  0  0  0  2  0  0  0  0  0  0
  184.5430  179.0340  139.7710 C   0  0  0  0  0  2  0  0  0  0  0  0
  183.5010  178.5250  140.7490 C   0  0  0  0  0  1  0  0  0  0  0  0
  190.5750  176.8650  139.6450 C   0  0  0  0  0  2  0  0  0  0  0  0
  189.6250  176.6400  140.8240 C   0  0  0  0  0  2  0  0  0  0  0  0
  189.9130  177.5300  142.0350 C   0  0  1  0  0  3  0  0  0  0  0  0
  189.3200  176.9490  143.3060 C   0  0  2  0  0  3  0  0  0  0  0  0
  188.1500  176.2380  142.9900 O   0  0  0  0  0  0  0  0  0  0  0  0
  187.9780  177.5180  143.5470 C   0  0  1  0  0  3  0  0  0  0  0  0
  187.6190  177.3740  145.0190 C   0  0  0  0  0  2  0  0  0  0  0  0
  186.1600  177.7340  145.3030 C   0  0  1  0  0  3  0  0  0  0  0  0
  186.0510  178.6860  146.4800 C   0  0  0  0  0  1  0  0  0  0  0  0
  184.0920  178.8520  144.4610 C   0  0  0  0  0  1  0  0  0  0  0  0
  185.4630  178.3230  144.0850 C   0  0  0  0  0  2  0  0  0  0  0  0
  191.2850  177.7490  142.1860 O   0  0  0  0  0  0  0  0  0  0  0  0
  191.4250  178.2830  143.4680 C   0  0  0  0  0  1  0  0  0  0  0  0
  1 25  1  1  0  0  0
  2  3  1  6  0  0  0
  2  1  1  0  0  0  0
  4  6  1  0  0  0  0
  4  2  1  0  0  0  0
  6  5  2  0  0  0  0
  6  7  1  0  0  0  0
  7  8  1  6  0  0  0
 10  9  1  0  0  0  0
 10  7  1  0  0  0  0
 11  1  1  0  0  0  0
 12 14  1  6  0  0  0
 12 11  1  0  0  0  0
 12 15  1  0  0  0  0
 13 14  1  0  0  0  0
 15 16  1  6  0  0  0
 15 19  1  0  0  0  0
 16 17  1  0  0  0  0
 17 18  2  0  0  0  0
 19 21  1  0  0  0  0
 20 22  1  0  0  0  0
 21 20  1  0  0  0  0
 23 22  1  0  0  0  0
 23 24  1  0  0  0  0
 25 26  1  0  0  0  0
 27 26  1  6  0  0  0
 27 36  1  0  0  0  0
 28 27  1  6  0  0  0
 28 30  1  0  0  0  0
 29 28  1  0  0  0  0
 29 30  1  0  0  0  0
 30 31  1  1  0  0  0
 31 32  1  0  0  0  0
 32 33  1  1  0  0  0
 35 34  1  0  0  0  0
 35 32  1  0  0  0  0
 36 37  1  0  0  0  0
M  END
>  <MODEL>
6

>  <REMARK>
 VINA RESULT:      -6.1      2.717      7.724
  Name = 
  22 active torsions:
  status: ('A' for Active; 'I' for Inactive)
    1  A    between atoms: C_1  and  C_5
    2  A    between atoms: C_1  and  C_36
    3  A    between atoms: C_2  and  C_19
    4  A    between atoms: C_2  and  C_35
    5  A    between atoms: C_3  and  N_32
    6  A    between atoms: C_4  and  O_10
    7  A    between atoms: C_4  and  C_13
    8  A    between atoms: C_4  and  O_28
    9  A    between atoms: C_5  and  C_23
   10  A    between atoms: C_6  and  C_31
   11  A    between atoms: C_6  and  C_35
   12  A    between atoms: C_7  and  C_14
   13  A    between atoms: C_7  and  C_27
   14  A    between atoms: C_9  and  C_13
   15  A    between atoms: C_9  and  C_16
   16  A    between atoms: O_10  and  C_14
   17  A    between atoms: O_11  and  C_33
   18  A    between atoms: C_13  and  C_20
   19  A    between atoms: C_14  and  C_31
   20  A    between atoms: C_20  and  C_21
   21  A    between atoms: C_26  and  C_33
   22  A    between atoms: C_27  and  C_33
                            x       y       z     vdW  Elec       q    Type
                         _______ _______ _______ _____ _____    ______ ____

>  <TORSDO>
F 22

$$$$
=
 OpenBabel10272415013D

 37 37  0  0  1  0  0  0  0  0999 V2000
  189.1640  177.4880  140.9100 C   0  0  2  0  0  3  0  0  0  0  0  0
  189.4340  177.2710  142.4040 C   0  0  1  0  0  3  0  0  0  0  0  0
  189.1200  175.8370  142.7840 C   0  0  0  0  0  1  0  0  0  0  0  0
  190.8710  177.6120  142.7890 C   0  0  0  0  0  2  0  0  0  0  0  0
  190.5160  179.1600  144.5310 O   0  0  0  0  0  0  0  0  0  0  0  0
  190.9510  178.0650  144.2100 C   0  0  0  0  0  0  0  0  0  0  0  0
  191.5400  177.1490  145.2370 C   0  0  2  0  0  3  0  0  0  0  0  0
  191.8790  175.9310  144.6490 O   0  0  0  0  0  1  0  0  0  0  0  0
  191.1550  177.2430  147.5840 F   0  0  0  0  0  0  0  0  0  0  0  0
  190.5650  176.9120  146.3790 C   0  0  0  0  0  2  0  0  0  0  0  0
  190.2750  177.9940  140.2210 O   0  0  0  0  0  0  0  0  0  0  0  0
  190.7600  176.9150  139.4750 C   0  0  2  0  0  3  0  0  0  0  0  0
  192.9050  177.1510  139.9830 C   0  0  0  0  0  1  0  0  0  0  0  0
  192.0030  177.2410  138.9210 O   0  0  0  0  0  0  0  0  0  0  0  0
  189.7590  176.5240  138.3860 C   0  0  2  0  0  3  0  0  0  0  0  0
  190.1900  175.2090  137.7510 C   0  0  0  0  0  2  0  0  0  0  0  0
  189.1370  174.6710  136.8360 C   0  0  0  0  0  3  0  0  0  0  0  0
  188.8330  173.3760  136.8250 C   0  0  0  0  0  2  0  0  0  0  0  0
  189.6090  177.6920  137.2380 C   0  0  0  0  0  2  0  0  0  0  0  0
  188.2300  178.3800  137.2440 C   0  0  0  0  0  2  0  0  0  0  0  0
  189.4630  178.3450  136.9930 O   0  0  0  0  0  0  0  0  0  0  0  0
  187.2650  178.2660  136.1950 N   0  0  0  0  0  2  0  0  0  0  0  0
  187.5640  177.7220  134.8780 C   0  0  0  0  0  2  0  0  0  0  0  0
  186.7460  176.4680  134.6350 C   0  0  0  0  0  1  0  0  0  0  0  0
  187.9010  178.3100  140.6320 C   0  0  0  0  0  2  0  0  0  0  0  0
  186.9960  178.5260  141.8470 C   0  0  0  0  0  2  0  0  0  0  0  0
  185.5020  178.5280  141.5200 C   0  0  1  0  0  3  0  0  0  0  0  0
  184.6550  178.4950  142.7790 C   0  0  2  0  0  3  0  0  0  0  0  0
  184.4600  179.8080  143.2410 O   0  0  0  0  0  0  0  0  0  0  0  0
  185.4210  179.0370  143.9210 C   0  0  1  0  0  3  0  0  0  0  0  0
  184.8200  178.5330  145.2240 C   0  0  0  0  0  2  0  0  0  0  0  0
  185.8630  177.8870  146.1380 C   0  0  1  0  0  3  0  0  0  0  0  0
  187.0990  177.4780  145.3560 C   0  0  0  0  0  1  0  0  0  0  0  0
  187.5310  178.3000  147.9510 C   0  0  0  0  0  1  0  0  0  0  0  0
  186.2530  178.7930  147.2980 C   0  0  0  0  0  2  0  0  0  0  0  0
  185.1600  179.6260  140.7250 O   0  0  0  0  0  0  0  0  0  0  0  0
  184.3060  179.1120  139.7480 C   0  0  0  0  0  1  0  0  0  0  0  0
  1 25  1  1  0  0  0
  1  2  1  0  0  0  0
  2  3  1  6  0  0  0
  2  4  1  0  0  0  0
  4  6  1  0  0  0  0
  6  5  2  0  0  0  0
  6  7  1  0  0  0  0
  7  8  1  6  0  0  0
  7 10  1  0  0  0  0
 10  9  1  0  0  0  0
 11  1  1  0  0  0  0
 12 14  1  6  0  0  0
 12 11  1  0  0  0  0
 14 13  1  0  0  0  0
 15 19  1  6  0  0  0
 15 12  1  0  0  0  0
 16 15  1  0  0  0  0
 17 16  1  0  0  0  0
 18 17  2  0  0  0  0
 21 19  1  0  0  0  0
 21 20  1  0  0  0  0
 22 20  1  0  0  0  0
 23 22  1  0  0  0  0
 24 23  1  0  0  0  0
 25 26  1  0  0  0  0
 27 26  1  1  0  0  0
 28 27  1  6  0  0  0
 28 29  1  0  0  0  0
 28 30  1  0  0  0  0
 29 30  1  0  0  0  0
 30 31  1  1  0  0  0
 31 32  1  0  0  0  0
 32 33  1  6  0  0  0
 32 35  1  0  0  0  0
 35 34  1  0  0  0  0
 36 27  1  0  0  0  0
 37 36  1  0  0  0  0
M  END
>  <MODEL>
7

>  <REMARK>
 VINA RESULT:      -6.1      2.113      7.019
  Name = 
  22 active torsions:
  status: ('A' for Active; 'I' for Inactive)
    1  A    between atoms: C_1  and  C_5
    2  A    between atoms: C_1  and  C_36
    3  A    between atoms: C_2  and  C_19
    4  A    between atoms: C_2  and  C_35
    5  A    between atoms: C_3  and  N_32
    6  A    between atoms: C_4  and  O_10
    7  A    between atoms: C_4  and  C_13
    8  A    between atoms: C_4  and  O_28
    9  A    between atoms: C_5  and  C_23
   10  A    between atoms: C_6  and  C_31
   11  A    between atoms: C_6  and  C_35
   12  A    between atoms: C_7  and  C_14
   13  A    between atoms: C_7  and  C_27
   14  A    between atoms: C_9  and  C_13
   15  A    between atoms: C_9  and  C_16
   16  A    between atoms: O_10  and  C_14
   17  A    between atoms: O_11  and  C_33
   18  A    between atoms: C_13  and  C_20
   19  A    between atoms: C_14  and  C_31
   20  A    between atoms: C_20  and  C_21
   21  A    between atoms: C_26  and  C_33
   22  A    between atoms: C_27  and  C_33
                            x       y       z     vdW  Elec       q    Type
                         _______ _______ _______ _____ _____    ______ ____

>  <TORSDO>
F 22

$$$$
=
 OpenBabel10272415013D

 37 36  0  0  1  0  0  0  0  0999 V2000
  184.4800  179.1320  142.5100 C   0  0  2  0  0  3  0  0  0  0  0  0
  184.3410  179.0740  144.0360 C   0  0  1  0  0  3  0  0  0  0  0  0
  182.8840  178.8970  144.4160 C   0  0  0  0  0  1  0  0  0  0  0  0
  185.1820  177.9600  144.6520 C   0  0  0  0  0  2  0  0  0  0  0  0
  185.4410  179.1750  146.6570 O   0  0  0  0  0  0  0  0  0  0  0  0
  185.9720  178.4670  145.8150 C   0  0  0  0  0  0  0  0  0  0  0  0
  187.4090  178.0700  145.9510 C   0  0  2  0  0  3  0  0  0  0  0  0
  187.6940  177.0140  145.0860 O   0  0  0  0  0  1  0  0  0  0  0  0
  189.0910  177.4790  147.5270 F   0  0  0  0  0  0  0  0  0  0  0  0
  187.7290  177.6610  147.3790 C   0  0  0  0  0  2  0  0  0  0  0  0
  183.9230  178.0170  141.8670 O   0  0  0  0  0  0  0  0  0  0  0  0
  182.9780  178.5450  140.9810 C   0  0  2  0  0  3  0  0  0  0  0  0
  180.8230  178.5920  141.5010 C   0  0  0  0  0  1  0  0  0  0  0  0
  181.8210  177.7570  140.9950 O   0  0  0  0  0  0  0  0  0  0  0  0
  183.5620  178.6390  139.5690 C   0  0  0  0  0  2  0  0  0  0  0  0
  183.2880  180.0240  138.9990 C   0  0  0  0  0  2  0  0  0  0  0  0
  181.8320  180.2270  138.7280 C   0  0  0  0  0  3  0  0  0  0  0  0
  181.4150  180.7550  137.5800 C   0  0  0  0  0  2  0  0  0  0  0  0
  182.9540  177.4790  138.5730 C   0  0  0  0  0  1  0  0  0  0  0  0
  183.9510  177.0240  137.4880 C   0  0  0  0  0  2  0  0  0  0  0  0
  183.6350  177.2940  138.6770 O   0  0  0  0  0  0  0  0  0  0  0  0
  184.1220  175.6690  137.0660 N   0  0  0  0  0  2  0  0  0  0  0  0
  183.5870  174.5230  137.7890 C   0  0  0  0  0  2  0  0  0  0  0  0
  183.6450  173.2840  136.9160 C   0  0  0  0  0  1  0  0  0  0  0  0
  185.9120  179.4020  142.0370 C   0  0  0  0  0  2  0  0  0  0  0  0
  186.6460  178.1780  141.4840 C   0  0  0  0  0  2  0  0  0  0  0  0
  187.8660  178.5180  140.6250 C   0  0  1  0  0  3  0  0  0  0  0  0
  189.0550  177.6420  140.9760 C   0  0  2  0  0  3  0  0  0  0  0  0
  188.7440  176.8680  142.1080 O   0  0  0  0  0  0  0  0  0  0  0  0
  189.5650  177.9910  142.3190 C   0  0  1  0  0  3  0  0  0  0  0  0
  191.0090  177.5310  142.4510 C   0  0  0  0  0  2  0  0  0  0  0  0
  191.6530  177.9960  143.7580 C   0  0  1  0  0  3  0  0  0  0  0  0
  191.1760  179.3860  144.1400 C   0  0  0  0  0  1  0  0  0  0  0  0
  191.6000  175.5930  144.4350 C   0  0  0  0  0  1  0  0  0  0  0  0
  191.4050  177.0230  144.9020 C   0  0  0  0  0  2  0  0  0  0  0  0
  187.5680  178.4210  139.2630 O   0  0  0  0  0  0  0  0  0  0  0  0
  188.8060  178.3060  138.6310 C   0  0  0  0  0  1  0  0  0  0  0  0
  1 25  1  1  0  0  0
  1  2  1  0  0  0  0
  2  3  1  6  0  0  0
  2  4  1  0  0  0  0
  4  6  1  0  0  0  0
  6  7  1  0  0  0  0
  6  5  2  0  0  0  0
  7  8  1  6  0  0  0
  7 10  1  0  0  0  0
 10  9  1  0  0  0  0
 11  1  1  0  0  0  0
 12 15  1  6  0  0  0
 12 14  1  0  0  0  0
 12 11  1  0  0  0  0
 14 13  1  0  0  0  0
 16 15  1  0  0  0  0
 17 16  1  0  0  0  0
 18 17  2  0  0  0  0
 19 21  1  0  0  0  0
 20 21  1  0  0  0  0
 22 20  1  0  0  0  0
 22 23  1  0  0  0  0
 24 23  1  0  0  0  0
 26 25  1  0  0  0  0
 27 26  1  1  0  0  0
 28 27  1  1  0  0  0
 28 29  1  0  0  0  0
 28 30  1  0  0  0  0
 29 30  1  0  0  0  0
 30 31  1  6  0  0  0
 31 32  1  0  0  0  0
 32 33  1  1  0  0  0
 32 35  1  0  0  0  0
 34 35  1  0  0  0  0
 36 27  1  0  0  0  0
 37 36  1  0  0  0  0
M  END
>  <MODEL>
8

>  <REMARK>
 VINA RESULT:      -6.0      2.571      4.916
  Name = 
  22 active torsions:
  status: ('A' for Active; 'I' for Inactive)
    1  A    between atoms: C_1  and  C_5
    2  A    between atoms: C_1  and  C_36
    3  A    between atoms: C_2  and  C_19
    4  A    between atoms: C_2  and  C_35
    5  A    between atoms: C_3  and  N_32
    6  A    between atoms: C_4  and  O_10
    7  A    between atoms: C_4  and  C_13
    8  A    between atoms: C_4  and  O_28
    9  A    between atoms: C_5  and  C_23
   10  A    between atoms: C_6  and  C_31
   11  A    between atoms: C_6  and  C_35
   12  A    between atoms: C_7  and  C_14
   13  A    between atoms: C_7  and  C_27
   14  A    between atoms: C_9  and  C_13
   15  A    between atoms: C_9  and  C_16
   16  A    between atoms: O_10  and  C_14
   17  A    between atoms: O_11  and  C_33
   18  A    between atoms: C_13  and  C_20
   19  A    between atoms: C_14  and  C_31
   20  A    between atoms: C_20  and  C_21
   21  A    between atoms: C_26  and  C_33
   22  A    between atoms: C_27  and  C_33
                            x       y       z     vdW  Elec       q    Type
                         _______ _______ _______ _____ _____    ______ ____

>  <TORSDO>
F 22

$$$$
=
 OpenBabel10272415013D

 37 37  0  0  1  0  0  0  0  0999 V2000
  187.9570  177.9500  138.9990 C   0  0  2  0  0  3  0  0  0  0  0  0
  188.9400  177.6730  137.8550 C   0  0  1  0  0  3  0  0  0  0  0  0
  188.9980  178.8660  136.9220 C   0  0  0  0  0  1  0  0  0  0  0  0
  190.3390  177.3370  138.3630 C   0  0  0  0  0  2  0  0  0  0  0  0
  190.0090  175.0180  138.0880 O   0  0  0  0  0  0  0  0  0  0  0  0
  190.7550  175.9710  137.9220 C   0  0  0  0  0  0  0  0  0  0  0  0
  192.0790  175.7930  137.2470 C   0  0  2  0  0  3  0  0  0  0  0  0
  191.9760  176.1410  135.9000 O   0  0  0  0  0  1  0  0  0  0  0  0
  193.7990  174.2200  136.7640 F   0  0  0  0  0  0  0  0  0  0  0  0
  192.5630  174.3570  137.3670 C   0  0  0  0  0  2  0  0  0  0  0  0
  186.9120  178.8080  138.6260 O   0  0  0  0  0  0  0  0  0  0  0  0
  185.7610  178.0130  138.6610 C   0  0  2  0  0  3  0  0  0  0  0  0
  185.5350  176.4190  137.1380 C   0  0  0  0  0  1  0  0  0  0  0  0
  185.3070  177.7780  137.3590 O   0  0  0  0  0  0  0  0  0  0  0  0
  184.6760  178.6790  139.5100 C   0  0  2  0  0  3  0  0  0  0  0  0
  185.2830  179.1560  140.8230 C   0  0  0  0  0  2  0  0  0  0  0  0
  185.1080  178.1410  141.9070 C   0  0  0  0  0  3  0  0  0  0  0  0
  184.6390  178.4890  143.1030 C   0  0  0  0  0  2  0  0  0  0  0  0
  183.4110  177.6690  139.7970 C   0  0  0  0  0  2  0  0  0  0  0  0
  182.0380  178.3560  139.6610 C   0  0  0  0  0  2  0  0  0  0  0  0
  183.0080  177.6920  139.2100 O   0  0  0  0  0  0  0  0  0  0  0  0
  180.7860  177.7250  139.9420 N   0  0  0  0  0  2  0  0  0  0  0  0
  180.6280  176.2880  140.1230 C   0  0  0  0  0  2  0  0  0  0  0  0
  180.1140  175.6570  138.8430 C   0  0  0  0  0  1  0  0  0  0  0  0
  188.6380  178.4140  140.2900 C   0  0  0  0  0  2  0  0  0  0  0  0
  188.7860  177.3310  141.3610 C   0  0  0  0  0  2  0  0  0  0  0  0
  189.6870  177.7300  142.5320 C   0  0  1  0  0  3  0  0  0  0  0  0
  189.4330  176.8630  143.7520 C   0  0  2  0  0  3  0  0  0  0  0  0
  188.0530  176.6250  143.8710 O   0  0  0  0  0  0  0  0  0  0  0  0
  188.6020  177.5950  144.7300 C   0  0  1  0  0  3  0  0  0  0  0  0
  188.7850  176.9860  146.1120 C   0  0  0  0  0  2  0  0  0  0  0  0
  187.6240  177.3090  147.0530 C   0  0  1  0  0  3  0  0  0  0  0  0
  188.0790  178.1880  148.2040 C   0  0  0  0  0  1  0  0  0  0  0  0
  185.9360  179.1490  147.1120 C   0  0  0  0  0  1  0  0  0  0  0  0
  186.4560  177.9610  146.3250 C   0  0  0  0  0  2  0  0  0  0  0  0
  191.0360  177.6850  142.1680 O   0  0  0  0  0  0  0  0  0  0  0  0
  191.6290  176.8190  143.0880 C   0  0  0  0  0  1  0  0  0  0  0  0
  1 25  1  1  0  0  0
  2  3  1  6  0  0  0
  2  4  1  0  0  0  0
  2  1  1  0  0  0  0
  6  5  2  0  0  0  0
  6  4  1  0  0  0  0
  7  8  1  6  0  0  0
  7 10  1  0  0  0  0
  7  6  1  0  0  0  0
  9 10  1  0  0  0  0
 11 12  1  0  0  0  0
 11  1  1  0  0  0  0
 12 14  1  6  0  0  0
 12 15  1  0  0  0  0
 13 14  1  0  0  0  0
 15 19  1  1  0  0  0
 15 16  1  0  0  0  0
 16 17  1  0  0  0  0
 17 18  2  0  0  0  0
 20 22  1  0  0  0  0
 21 20  1  0  0  0  0
 21 19  1  0  0  0  0
 22 23  1  0  0  0  0
 24 23  1  0  0  0  0
 25 26  1  0  0  0  0
 27 26  1  6  0  0  0
 28 27  1  6  0  0  0
 28 29  1  0  0  0  0
 28 30  1  0  0  0  0
 29 30  1  0  0  0  0
 30 31  1  1  0  0  0
 31 32  1  0  0  0  0
 32 33  1  1  0  0  0
 35 32  1  0  0  0  0
 35 34  1  0  0  0  0
 36 27  1  0  0  0  0
 36 37  1  0  0  0  0
M  END
>  <MODEL>
9

>  <REMARK>
 VINA RESULT:      -5.8      2.659      7.094
  Name = 
  22 active torsions:
  status: ('A' for Active; 'I' for Inactive)
    1  A    between atoms: C_1  and  C_5
    2  A    between atoms: C_1  and  C_36
    3  A    between atoms: C_2  and  C_19
    4  A    between atoms: C_2  and  C_35
    5  A    between atoms: C_3  and  N_32
    6  A    between atoms: C_4  and  O_10
    7  A    between atoms: C_4  and  C_13
    8  A    between atoms: C_4  and  O_28
    9  A    between atoms: C_5  and  C_23
   10  A    between atoms: C_6  and  C_31
   11  A    between atoms: C_6  and  C_35
   12  A    between atoms: C_7  and  C_14
   13  A    between atoms: C_7  and  C_27
   14  A    between atoms: C_9  and  C_13
   15  A    between atoms: C_9  and  C_16
   16  A    between atoms: O_10  and  C_14
   17  A    between atoms: O_11  and  C_33
   18  A    between atoms: C_13  and  C_20
   19  A    between atoms: C_14  and  C_31
   20  A    between atoms: C_20  and  C_21
   21  A    between atoms: C_26  and  C_33
   22  A    between atoms: C_27  and  C_33
                            x       y       z     vdW  Elec       q    Type
                         _______ _______ _______ _____ _____    ______ ____

>  <TORSDO>
F 22

$$$$
