=
 OpenBabel10272402093D

 32 35  0  0  1  0  0  0  0  0999 V2000
  188.6810  178.7710  139.2940 N   0  0  1  0  0  0  0  0  0  0  0  0
  188.8520  176.9040  140.7980 C   0  0  1  0  0  3  0  0  0  0  0  0
  190.1120  175.0550  137.4360 C   0  0  2  0  0  3  0  0  0  0  0  0
  187.6840  178.3910  138.2730 C   0  0  0  0  0  2  0  0  0  0  0  0
  188.3020  178.3040  140.6380 C   0  0  2  0  0  3  0  0  0  0  0  0
  188.4960  177.3240  143.3220 C   0  0  0  0  0  2  0  0  0  0  0  0
  190.9960  173.9040  136.9860 C   0  0  0  0  0  1  0  0  0  0  0  0
  190.1300  176.9230  139.9720 C   0  0  1  0  0  3  0  0  0  0  0  0
  186.9750  177.4280  143.2940 C   0  0  1  0  0  3  0  0  0  0  0  0
  188.6380  174.8860  137.0370 C   0  0  1  0  0  3  0  0  0  0  0  0
  188.2980  177.3930  137.3090 C   0  0  2  0  0  3  0  0  0  0  0  0
  189.0150  176.3840  142.2380 C   0  0  0  0  0  2  0  0  0  0  0  0
  186.8040  178.3690  140.9380 C   0  0  0  0  0  2  0  0  0  0  0  0
  187.8130  175.9880  137.6930 C   0  0  0  0  0  2  0  0  0  0  0  0
  190.6940  176.4300  137.0750 C   0  0  1  0  0  3  0  0  0  0  0  0
  190.9400  176.5380  135.6450 N   0  0  0  0  0  1  0  0  0  0  0  0
  189.9280  178.0670  138.9620 C   0  0  1  0  0  3  0  0  0  0  0  0
  186.5140  177.5830  144.7350 C   0  0  0  0  0  1  0  0  0  0  0  0
  189.7840  177.5830  137.5290 C   0  0  2  0  0  3  0  0  0  0  0  0
  186.5280  178.6180  142.4180 C   0  0  1  0  0  3  0  0  0  0  0  0
  185.0610  178.8920  142.5480 C   0  0  0  0  0  3  0  0  0  0  0  0
  184.1830  178.3050  141.7370 C   0  0  0  0  0  3  0  0  0  0  0  0
  182.7290  178.5910  141.8830 C   0  0  0  0  0  1  0  0  0  0  0  0
  188.4000  174.8640  135.5290 C   0  0  0  0  0  2  0  0  0  0  0  0
  187.6150  172.8050  135.6080 C   0  0  0  0  0  1  0  0  0  0  0  0
  187.2720  174.1020  135.2280 O   0  0  0  0  0  0  0  0  0  0  0  0
  191.4220  177.1030  140.7910 C   0  0  1  0  0  3  0  0  0  0  0  0
  193.7750  176.9440  140.3900 O   0  0  0  0  0  1  0  0  0  0  0  0
  192.5840  177.4510  139.8720 C   0  0  0  0  0  2  0  0  0  0  0  0
  191.2740  178.1360  141.9070 C   0  0  0  0  0  2  0  0  0  0  0  0
  191.9990  177.7410  143.0300 O   0  0  0  0  0  0  0  0  0  0  0  0
  191.6990  178.7020  143.9940 C   0  0  0  0  0  1  0  0  0  0  0  0
  1  4  1  6  0  0  0
  1  5  1  0  0  0  0
  2 12  1  1  0  0  0
  3  7  1  6  0  0  0
  5  2  1  0  0  0  0
  5 13  1  6  0  0  0
  8 27  1  1  0  0  0
  8  2  1  0  0  0  0
  9  6  1  0  0  0  0
  9 18  1  1  0  0  0
 10 24  1  6  0  0  0
 10  3  1  0  0  0  0
 10 14  1  0  0  0  0
 11 19  1  0  0  0  0
 11 14  1  1  0  0  0
 11  4  1  0  0  0  0
 12  6  1  0  0  0  0
 13 20  1  0  0  0  0
 15 16  1  6  0  0  0
 15  3  1  0  0  0  0
 15 19  1  0  0  0  0
 17  1  1  0  0  0  0
 17  8  1  0  0  0  0
 19 17  1  0  0  0  0
 20 21  1  0  0  0  0
 20  9  1  0  0  0  0
 22 23  1  0  0  0  0
 22 21  2  0  0  0  0
 26 24  1  0  0  0  0
 26 25  1  0  0  0  0
 27 30  1  0  0  0  0
 29 28  1  0  0  0  0
 29 27  1  0  0  0  0
 30 31  1  0  0  0  0
 31 32  1  0  0  0  0
M  END
>  <MODEL>
1

>  <REMARK>
 VINA RESULT:      -6.6      0.000      0.000
  Name = 
  7 active torsions:
  status: ('A' for Active; 'I' for Inactive)
    1  A    between atoms: C_10  and  C_28
    2  A    between atoms: O_11  and  C_12
    3  A    between atoms: C_12  and  C_28
    4  A    between atoms: C_14  and  C_29
    5  A    between atoms: C_15  and  C_19
    6  A    between atoms: C_19  and  O_26
    7  A    between atoms: C_28  and  C_32
                            x       y       z     vdW  Elec       q    Type
                         _______ _______ _______ _____ _____    ______ ____

>  <TORSDO>
F 7

$$$$
=
 OpenBabel10272402093D

 32 35  0  0  1  0  0  0  0  0999 V2000
  186.5330  175.6600  134.9520 N   0  0  1  0  0  0  0  0  0  0  0  0
  185.6540  174.7080  136.9770 C   0  0  1  0  0  3  0  0  0  0  0  0
  188.0840  177.4700  138.6430 C   0  0  2  0  0  3  0  0  0  0  0  0
  187.9880  175.4100  134.9740 C   0  0  0  0  0  2  0  0  0  0  0  0
  185.7670  174.5190  135.4810 C   0  0  2  0  0  3  0  0  0  0  0  0
  183.7270  172.9980  136.7940 C   0  0  0  0  0  2  0  0  0  0  0  0
  188.2210  178.3130  139.9010 C   0  0  0  0  0  1  0  0  0  0  0  0
  185.6110  176.2190  137.1460 C   0  0  1  0  0  3  0  0  0  0  0  0
  184.5620  171.8030  136.3490 C   0  0  1  0  0  3  0  0  0  0  0  0
  189.2540  176.4980  138.4290 C   0  0  1  0  0  3  0  0  0  0  0  0
  188.6520  176.3520  135.9610 C   0  0  2  0  0  3  0  0  0  0  0  0
  184.5260  173.9400  137.6890 C   0  0  0  0  0  2  0  0  0  0  0  0
  186.3350  173.1460  135.1170 C   0  0  0  0  0  2  0  0  0  0  0  0
  188.9300  175.5780  137.2560 C   0  0  0  0  0  2  0  0  0  0  0  0
  187.7410  178.3060  137.4010 C   0  0  1  0  0  3  0  0  0  0  0  0
  188.7300  179.3500  137.1800 N   0  0  0  0  0  1  0  0  0  0  0  0
  186.2740  176.7770  135.8740 C   0  0  1  0  0  3  0  0  0  0  0  0
  183.6230  170.6090  136.2690 C   0  0  0  0  0  1  0  0  0  0  0  0
  187.6150  177.4410  136.1370 C   0  0  2  0  0  3  0  0  0  0  0  0
  185.2410  172.0900  134.9930 C   0  0  1  0  0  3  0  0  0  0  0  0
  185.8820  170.8650  134.4140 C   0  0  0  0  0  3  0  0  0  0  0  0
  187.0010  170.3690  134.9370 C   0  0  0  0  0  3  0  0  0  0  0  0
  187.6220  169.1520  134.3460 C   0  0  0  0  0  1  0  0  0  0  0  0
  190.6020  177.1830  138.2150 C   0  0  0  0  0  2  0  0  0  0  0  0
  192.6390  176.3890  137.9240 C   0  0  0  0  0  1  0  0  0  0  0  0
  191.6120  176.4740  138.8640 O   0  0  0  0  0  0  0  0  0  0  0  0
  184.2010  176.8020  137.3600 C   0  0  1  0  0  3  0  0  0  0  0  0
  183.4870  177.4940  139.5360 O   0  0  0  0  0  1  0  0  0  0  0  0
  184.2360  177.8860  138.4270 C   0  0  0  0  0  2  0  0  0  0  0  0
  183.5750  177.3210  136.0670 C   0  0  0  0  0  2  0  0  0  0  0  0
  182.7850  176.3330  135.4820 O   0  0  0  0  0  0  0  0  0  0  0  0
  181.7230  176.1660  136.3700 C   0  0  0  0  0  1  0  0  0  0  0  0
  1  4  1  1  0  0  0
  1  5  1  0  0  0  0
  1 17  1  0  0  0  0
  2  8  1  0  0  0  0
  2 12  1  6  0  0  0
  3  7  1  1  0  0  0
  5 13  1  1  0  0  0
  5  2  1  0  0  0  0
  6 12  1  0  0  0  0
  8 27  1  6  0  0  0
  9 18  1  6  0  0  0
  9  6  1  0  0  0  0
 10 24  1  6  0  0  0
 10  3  1  0  0  0  0
 11  4  1  6  0  0  0
 11 19  1  0  0  0  0
 11 14  1  0  0  0  0
 14 10  1  0  0  0  0
 15 16  1  6  0  0  0
 15  3  1  0  0  0  0
 17 19  1  0  0  0  0
 17  8  1  0  0  0  0
 19 15  1  0  0  0  0
 20 13  1  0  0  0  0
 20  9  1  0  0  0  0
 21 22  2  0  0  0  0
 21 20  1  0  0  0  0
 23 22  1  0  0  0  0
 24 26  1  0  0  0  0
 25 26  1  0  0  0  0
 27 29  1  0  0  0  0
 29 28  1  0  0  0  0
 30 27  1  0  0  0  0
 31 30  1  0  0  0  0
 31 32  1  0  0  0  0
M  END
>  <MODEL>
2

>  <REMARK>
 VINA RESULT:      -6.1      3.210      7.790
  Name = 
  7 active torsions:
  status: ('A' for Active; 'I' for Inactive)
    1  A    between atoms: C_10  and  C_28
    2  A    between atoms: O_11  and  C_12
    3  A    between atoms: C_12  and  C_28
    4  A    between atoms: C_14  and  C_29
    5  A    between atoms: C_15  and  C_19
    6  A    between atoms: C_19  and  O_26
    7  A    between atoms: C_28  and  C_32
                            x       y       z     vdW  Elec       q    Type
                         _______ _______ _______ _____ _____    ______ ____

>  <TORSDO>
F 7

$$$$
=
 OpenBabel10272402093D

 32 35  0  0  1  0  0  0  0  0999 V2000
  188.2150  178.8380  138.8810 N   0  0  1  0  0  0  0  0  0  0  0  0
  188.5410  177.1410  140.5510 C   0  0  1  0  0  3  0  0  0  0  0  0
  189.9010  175.0780  137.3560 C   0  0  2  0  0  3  0  0  0  0  0  0
  187.2400  178.2900  137.9180 C   0  0  0  0  0  2  0  0  0  0  0  0
  187.8870  178.4740  140.2690 C   0  0  2  0  0  3  0  0  0  0  0  0
  188.1810  177.7710  143.0290 C   0  0  0  0  0  2  0  0  0  0  0  0
  190.8650  173.9570  137.0010 C   0  0  0  0  0  1  0  0  0  0  0  0
  189.8050  177.1750  139.7050 C   0  0  1  0  0  3  0  0  0  0  0  0
  186.6560  177.7600  143.0190 C   0  0  1  0  0  3  0  0  0  0  0  0
  188.4410  174.7640  137.0000 C   0  0  1  0  0  3  0  0  0  0  0  0
  187.9160  177.2530  137.0420 C   0  0  2  0  0  3  0  0  0  0  0  0
  188.7570  176.7740  142.0310 C   0  0  0  0  0  2  0  0  0  0  0  0
  186.3910  178.4580  140.5880 C   0  0  0  0  0  2  0  0  0  0  0  0
  187.5410  175.8600  137.5640 C   0  0  0  0  0  2  0  0  0  0  0  0
  190.3750  176.4520  136.8570 C   0  0  1  0  0  3  0  0  0  0  0  0
  190.5980  176.4410  135.4190 N   0  0  0  0  0  1  0  0  0  0  0  0
  189.5090  178.1990  138.5950 C   0  0  1  0  0  3  0  0  0  0  0  0
  186.2000  178.0170  144.4470 C   0  0  0  0  0  1  0  0  0  0  0  0
  189.3860  177.5720  137.2160 C   0  0  2  0  0  3  0  0  0  0  0  0
  186.1130  178.8260  142.0430 C   0  0  1  0  0  3  0  0  0  0  0  0
  184.6310  179.0020  142.1710 C   0  0  0  0  0  3  0  0  0  0  0  0
  183.7960  178.4090  141.3190 C   0  0  0  0  0  3  0  0  0  0  0  0
  182.3270  178.5980  141.4650 C   0  0  0  0  0  1  0  0  0  0  0  0
  188.1880  174.5810  135.5050 C   0  0  0  0  0  2  0  0  0  0  0  0
  187.5600  172.5070  135.9130 C   0  0  0  0  0  1  0  0  0  0  0  0
  187.1410  173.6850  135.2970 O   0  0  0  0  0  0  0  0  0  0  0  0
  191.0890  177.5270  140.4810 C   0  0  1  0  0  3  0  0  0  0  0  0
  192.0060  177.1200  142.6520 O   0  0  0  0  0  1  0  0  0  0  0  0
  191.3230  176.5180  141.5960 C   0  0  0  0  0  2  0  0  0  0  0  0
  192.3140  177.6400  139.5740 C   0  0  0  0  0  2  0  0  0  0  0  0
  192.7610  176.3710  139.2080 O   0  0  0  0  0  0  0  0  0  0  0  0
  193.4610  176.5800  138.0200 C   0  0  0  0  0  1  0  0  0  0  0  0
  1  4  1  6  0  0  0
  1  5  1  0  0  0  0
  2 12  1  1  0  0  0
  3  7  1  6  0  0  0
  5  2  1  0  0  0  0
  5 13  1  6  0  0  0
  8 27  1  1  0  0  0
  8  2  1  0  0  0  0
  9  6  1  0  0  0  0
  9 18  1  1  0  0  0
 10 24  1  6  0  0  0
 10  3  1  0  0  0  0
 10 14  1  0  0  0  0
 11 19  1  0  0  0  0
 11 14  1  1  0  0  0
 11  4  1  0  0  0  0
 12  6  1  0  0  0  0
 13 20  1  0  0  0  0
 15 16  1  6  0  0  0
 15 19  1  0  0  0  0
 15  3  1  0  0  0  0
 17  1  1  0  0  0  0
 17  8  1  0  0  0  0
 19 17  1  0  0  0  0
 20 21  1  0  0  0  0
 20  9  1  0  0  0  0
 22 23  1  0  0  0  0
 22 21  2  0  0  0  0
 26 24  1  0  0  0  0
 26 25  1  0  0  0  0
 27 29  1  0  0  0  0
 29 28  1  0  0  0  0
 30 27  1  0  0  0  0
 31 30  1  0  0  0  0
 32 31  1  0  0  0  0
M  END
>  <MODEL>
3

>  <REMARK>
 VINA RESULT:      -6.0      0.854      1.655
  Name = 
  7 active torsions:
  status: ('A' for Active; 'I' for Inactive)
    1  A    between atoms: C_10  and  C_28
    2  A    between atoms: O_11  and  C_12
    3  A    between atoms: C_12  and  C_28
    4  A    between atoms: C_14  and  C_29
    5  A    between atoms: C_15  and  C_19
    6  A    between atoms: C_19  and  O_26
    7  A    between atoms: C_28  and  C_32
                            x       y       z     vdW  Elec       q    Type
                         _______ _______ _______ _____ _____    ______ ____

>  <TORSDO>
F 7

$$$$
=
 OpenBabel10272402093D

 32 35  0  0  1  0  0  0  0  0999 V2000
  183.8880  176.5120  136.1530 N   0  0  1  0  0  0  0  0  0  0  0  0
  184.0550  174.5700  137.5590 C   0  0  1  0  0  3  0  0  0  0  0  0
  181.2250  176.5560  139.6470 C   0  0  2  0  0  3  0  0  0  0  0  0
  184.2920  177.6620  136.9850 C   0  0  0  0  0  2  0  0  0  0  0  0
  184.7090  175.3190  136.4210 C   0  0  2  0  0  3  0  0  0  0  0  0
  185.4930  172.5850  136.7470 C   0  0  0  0  0  2  0  0  0  0  0  0
  180.0580  176.3000  140.5870 C   0  0  0  0  0  1  0  0  0  0  0  0
  182.5720  174.8490  137.3680 C   0  0  1  0  0  3  0  0  0  0  0  0
  186.8590  173.1850  137.0610 C   0  0  1  0  0  3  0  0  0  0  0  0
  182.3490  177.3890  140.2820 C   0  0  1  0  0  3  0  0  0  0  0  0
  183.1780  178.0040  137.9560 C   0  0  2  0  0  3  0  0  0  0  0  0
  184.4240  173.0830  137.7130 C   0  0  0  0  0  2  0  0  0  0  0  0
  186.1850  175.6100  136.6990 C   0  0  0  0  0  2  0  0  0  0  0  0
  183.5410  177.4270  139.3310 C   0  0  0  0  0  2  0  0  0  0  0  0
  180.7790  177.0700  138.2700 C   0  0  1  0  0  3  0  0  0  0  0  0
  179.9820  178.2800  138.3930 N   0  0  0  0  0  1  0  0  0  0  0  0
  182.5180  176.1520  136.5500 C   0  0  1  0  0  3  0  0  0  0  0  0
  187.8970  172.1190  136.7460 C   0  0  0  0  0  1  0  0  0  0  0  0
  181.9710  177.3320  137.3350 C   0  0  2  0  0  3  0  0  0  0  0  0
  187.0890  174.4700  136.2370 C   0  0  1  0  0  3  0  0  0  0  0  0
  188.5000  174.9630  136.3460 C   0  0  0  0  0  3  0  0  0  0  0  0
  188.8920  175.6870  137.3910 C   0  0  0  0  0  3  0  0  0  0  0  0
  190.2980  176.1660  137.4790 C   0  0  0  0  0  1  0  0  0  0  0  0
  181.9310  178.8050  140.6720 C   0  0  0  0  0  2  0  0  0  0  0  0
  180.6700  179.5460  142.3230 C   0  0  0  0  0  1  0  0  0  0  0  0
  181.8950  178.9330  142.0600 O   0  0  0  0  0  0  0  0  0  0  0  0
  181.7870  173.7120  136.6860 C   0  0  1  0  0  3  0  0  0  0  0  0
  180.4770  171.9820  137.6930 O   0  0  0  0  0  1  0  0  0  0  0  0
  180.5520  173.3610  137.5040 C   0  0  0  0  0  2  0  0  0  0  0  0
  181.4160  174.0360  135.2400 C   0  0  0  0  0  2  0  0  0  0  0  0
  182.3720  173.5150  134.3690 O   0  0  0  0  0  0  0  0  0  0  0  0
  182.4080  172.1540  134.6660 C   0  0  0  0  0  1  0  0  0  0  0  0
  1  5  1  0  0  0  0
  1 17  1  0  0  0  0
  1  4  1  1  0  0  0
  2 12  1  6  0  0  0
  3 10  1  0  0  0  0
  3  7  1  1  0  0  0
  5 13  1  1  0  0  0
  5  2  1  0  0  0  0
  6  9  1  0  0  0  0
  6 12  1  0  0  0  0
  8 27  1  6  0  0  0
  8  2  1  0  0  0  0
  9 18  1  6  0  0  0
 10 24  1  6  0  0  0
 11  4  1  6  0  0  0
 11 14  1  0  0  0  0
 14 10  1  0  0  0  0
 15 16  1  1  0  0  0
 15  3  1  0  0  0  0
 17 19  1  0  0  0  0
 17  8  1  0  0  0  0
 19 11  1  0  0  0  0
 19 15  1  0  0  0  0
 20 21  1  0  0  0  0
 20 13  1  0  0  0  0
 20  9  1  0  0  0  0
 21 22  2  0  0  0  0
 22 23  1  0  0  0  0
 24 26  1  0  0  0  0
 26 25  1  0  0  0  0
 27 29  1  0  0  0  0
 29 28  1  0  0  0  0
 30 27  1  0  0  0  0
 31 32  1  0  0  0  0
 31 30  1  0  0  0  0
M  END
>  <MODEL>
4

>  <REMARK>
 VINA RESULT:      -5.4      4.741      9.391
  Name = 
  7 active torsions:
  status: ('A' for Active; 'I' for Inactive)
    1  A    between atoms: C_10  and  C_28
    2  A    between atoms: O_11  and  C_12
    3  A    between atoms: C_12  and  C_28
    4  A    between atoms: C_14  and  C_29
    5  A    between atoms: C_15  and  C_19
    6  A    between atoms: C_19  and  O_26
    7  A    between atoms: C_28  and  C_32
                            x       y       z     vdW  Elec       q    Type
                         _______ _______ _______ _____ _____    ______ ____

>  <TORSDO>
F 7

$$$$
=
 OpenBabel10272402093D

 32 35  0  0  1  0  0  0  0  0999 V2000
  190.3880  177.3120  138.0020 N   0  0  1  0  0  0  0  0  0  0  0  0
  188.6470  175.6570  138.0580 C   0  0  1  0  0  3  0  0  0  0  0  0
  187.8190  177.4890  141.5610 C   0  0  2  0  0  3  0  0  0  0  0  0
  191.2530  177.0450  139.1680 C   0  0  0  0  0  2  0  0  0  0  0  0
  189.9230  176.0710  137.3610 C   0  0  2  0  0  3  0  0  0  0  0  0
  188.2710  174.1970  135.9610 C   0  0  0  0  0  2  0  0  0  0  0  0
  186.6550  177.7640  142.5000 C   0  0  0  0  0  1  0  0  0  0  0  0
  188.0100  176.9800  138.4590 C   0  0  1  0  0  3  0  0  0  0  0  0
  189.4550  173.2570  136.1570 C   0  0  1  0  0  3  0  0  0  0  0  0
  188.9390  176.6570  142.2040 C   0  0  1  0  0  3  0  0  0  0  0  0
  190.5570  177.5070  140.4340 C   0  0  2  0  0  3  0  0  0  0  0  0
  187.7210  174.6930  137.2940 C   0  0  0  0  0  2  0  0  0  0  0  0
  190.9540  174.9410  137.3340 C   0  0  0  0  0  2  0  0  0  0  0  0
  189.9580  176.2800  141.1330 C   0  0  0  0  0  2  0  0  0  0  0  0
  188.3220  178.7540  140.8490 C   0  0  1  0  0  3  0  0  0  0  0  0
  188.7040  179.7800  141.8070 N   0  0  0  0  0  1  0  0  0  0  0  0
  189.1790  177.9800  138.5050 C   0  0  1  0  0  3  0  0  0  0  0  0
  189.3800  172.2110  135.0550 C   0  0  0  0  0  1  0  0  0  0  0  0
  189.5030  178.4600  139.9110 C   0  0  2  0  0  3  0  0  0  0  0  0
  190.7840  174.0420  136.1120 C   0  0  1  0  0  3  0  0  0  0  0  0
  191.9740  173.1320  136.0730 C   0  0  0  0  0  3  0  0  0  0  0  0
  193.1170  173.4770  136.6620 C   0  0  0  0  0  3  0  0  0  0  0  0
  194.2860  172.5580  136.6110 C   0  0  0  0  0  1  0  0  0  0  0  0
  189.6280  177.3430  143.3810 C   0  0  0  0  0  2  0  0  0  0  0  0
  188.9720  177.7670  145.4440 C   0  0  0  0  0  1  0  0  0  0  0  0
  189.2780  176.7180  144.5770 O   0  0  0  0  0  0  0  0  0  0  0  0
  186.8830  177.4590  137.5250 C   0  0  1  0  0  3  0  0  0  0  0  0
  185.5660  179.2040  138.4970 O   0  0  0  0  0  1  0  0  0  0  0  0
  185.6460  177.8210  138.3350 C   0  0  0  0  0  2  0  0  0  0  0  0
  187.3130  178.6180  136.6280 C   0  0  0  0  0  2  0  0  0  0  0  0
  187.7530  178.1370  135.3950 O   0  0  0  0  0  0  0  0  0  0  0  0
  186.6280  177.5300  134.8380 C   0  0  0  0  0  1  0  0  0  0  0  0
  1 17  1  0  0  0  0
  1  4  1  1  0  0  0
  2 12  1  6  0  0  0
  2  8  1  0  0  0  0
  3 10  1  0  0  0  0
  3  7  1  1  0  0  0
  5 13  1  1  0  0  0
  5  1  1  0  0  0  0
  5  2  1  0  0  0  0
  6  9  1  0  0  0  0
  6 12  1  0  0  0  0
  8 27  1  6  0  0  0
  8 17  1  0  0  0  0
  9 18  1  6  0  0  0
 10 24  1  1  0  0  0
 11  4  1  6  0  0  0
 11 14  1  0  0  0  0
 14 10  1  0  0  0  0
 15  3  1  0  0  0  0
 15 16  1  1  0  0  0
 17 19  1  0  0  0  0
 19 11  1  0  0  0  0
 19 15  1  0  0  0  0
 20  9  1  0  0  0  0
 20 13  1  0  0  0  0
 21 20  1  0  0  0  0
 21 22  2  0  0  0  0
 23 22  1  0  0  0  0
 24 26  1  0  0  0  0
 26 25  1  0  0  0  0
 27 29  1  0  0  0  0
 29 28  1  0  0  0  0
 30 27  1  0  0  0  0
 31 30  1  0  0  0  0
 32 31  1  0  0  0  0
M  END
>  <MODEL>
5

>  <REMARK>
 VINA RESULT:      -5.2      2.153      7.592
  Name = 
  7 active torsions:
  status: ('A' for Active; 'I' for Inactive)
    1  A    between atoms: C_10  and  C_28
    2  A    between atoms: O_11  and  C_12
    3  A    between atoms: C_12  and  C_28
    4  A    between atoms: C_14  and  C_29
    5  A    between atoms: C_15  and  C_19
    6  A    between atoms: C_19  and  O_26
    7  A    between atoms: C_28  and  C_32
                            x       y       z     vdW  Elec       q    Type
                         _______ _______ _______ _____ _____    ______ ____

>  <TORSDO>
F 7

$$$$
=
 OpenBabel10272402093D

 32 35  0  0  1  0  0  0  0  0999 V2000
  184.4510  177.2380  136.6030 N   0  0  1  0  0  0  0  0  0  0  0  0
  184.0460  175.0630  137.5420 C   0  0  1  0  0  3  0  0  0  0  0  0
  181.3140  177.1340  139.6780 C   0  0  2  0  0  3  0  0  0  0  0  0
  184.9130  178.0900  137.7150 C   0  0  0  0  0  2  0  0  0  0  0  0
  184.9950  175.8720  136.6880 C   0  0  2  0  0  3  0  0  0  0  0  0
  185.2220  173.0260  136.4760 C   0  0  0  0  0  2  0  0  0  0  0  0
  179.9850  176.9420  140.3900 C   0  0  0  0  0  1  0  0  0  0  0  0
  182.6850  175.6750  137.2460 C   0  0  1  0  0  3  0  0  0  0  0  0
  186.6040  173.2560  137.0770 C   0  0  1  0  0  3  0  0  0  0  0  0
  182.4510  177.5730  140.6120 C   0  0  1  0  0  3  0  0  0  0  0  0
  183.7360  178.4540  138.6010 C   0  0  2  0  0  3  0  0  0  0  0  0
  184.1170  173.5310  137.3970 C   0  0  0  0  0  2  0  0  0  0  0  0
  186.4350  175.7900  137.1970 C   0  0  0  0  0  2  0  0  0  0  0  0
  183.7670  177.5520  139.8420 C   0  0  0  0  0  2  0  0  0  0  0  0
  181.1920  177.9930  138.4100 C   0  0  1  0  0  3  0  0  0  0  0  0
  180.6110  179.2920  138.7090 N   0  0  0  0  0  1  0  0  0  0  0  0
  182.9930  177.0960  136.7440 C   0  0  1  0  0  3  0  0  0  0  0  0
  187.4750  172.0830  136.6520 C   0  0  0  0  0  1  0  0  0  0  0  0
  182.5450  178.1830  137.7060 C   0  0  2  0  0  3  0  0  0  0  0  0
  187.1860  174.6040  136.5990 C   0  0  1  0  0  3  0  0  0  0  0  0
  188.6260  174.7620  136.9810 C   0  0  0  0  0  3  0  0  0  0  0  0
  189.0600  175.8800  137.5580 C   0  0  0  0  0  3  0  0  0  0  0  0
  190.4950  176.0160  137.9300 C   0  0  0  0  0  1  0  0  0  0  0  0
  182.2320  178.9370  141.2620 C   0  0  0  0  0  2  0  0  0  0  0  0
  183.2490  178.7900  143.2130 C   0  0  0  0  0  1  0  0  0  0  0  0
  181.9850  178.7900  142.6260 O   0  0  0  0  0  0  0  0  0  0  0  0
  181.8310  174.8840  136.2360 C   0  0  1  0  0  3  0  0  0  0  0  0
  180.7450  174.1120  138.2230 O   0  0  0  0  0  1  0  0  0  0  0  0
  180.5280  174.4370  136.8850 C   0  0  0  0  0  2  0  0  0  0  0  0
  181.5660  175.6630  134.9490 C   0  0  0  0  0  2  0  0  0  0  0  0
  180.2210  176.0190  134.8680 O   0  0  0  0  0  0  0  0  0  0  0  0
  180.2340  177.3130  134.3510 C   0  0  0  0  0  1  0  0  0  0  0  0
  1  5  1  0  0  0  0
  1 17  1  0  0  0  0
  1  4  1  1  0  0  0
  2 12  1  6  0  0  0
  3  7  1  1  0  0  0
  3 10  1  0  0  0  0
  5 13  1  1  0  0  0
  5  2  1  0  0  0  0
  6  9  1  0  0  0  0
  6 12  1  0  0  0  0
  8 27  1  6  0  0  0
  8  2  1  0  0  0  0
  9 18  1  6  0  0  0
 10 24  1  6  0  0  0
 11  4  1  6  0  0  0
 11 14  1  0  0  0  0
 14 10  1  0  0  0  0
 15 16  1  1  0  0  0
 15  3  1  0  0  0  0
 17  8  1  0  0  0  0
 17 19  1  0  0  0  0
 19 15  1  0  0  0  0
 19 11  1  0  0  0  0
 20 21  1  0  0  0  0
 20  9  1  0  0  0  0
 20 13  1  0  0  0  0
 21 22  2  0  0  0  0
 22 23  1  0  0  0  0
 24 26  1  0  0  0  0
 26 25  1  0  0  0  0
 27 29  1  0  0  0  0
 29 28  1  0  0  0  0
 30 27  1  0  0  0  0
 31 30  1  0  0  0  0
 32 31  1  0  0  0  0
M  END
>  <MODEL>
6

>  <REMARK>
 VINA RESULT:      -5.2      4.634      9.230
  Name = 
  7 active torsions:
  status: ('A' for Active; 'I' for Inactive)
    1  A    between atoms: C_10  and  C_28
    2  A    between atoms: O_11  and  C_12
    3  A    between atoms: C_12  and  C_28
    4  A    between atoms: C_14  and  C_29
    5  A    between atoms: C_15  and  C_19
    6  A    between atoms: C_19  and  O_26
    7  A    between atoms: C_28  and  C_32
                            x       y       z     vdW  Elec       q    Type
                         _______ _______ _______ _____ _____    ______ ____

>  <TORSDO>
F 7

$$$$
=
 OpenBabel10272402093D

 32 35  0  0  1  0  0  0  0  0999 V2000
  189.3670  175.9680  135.5640 N   0  0  1  0  0  0  0  0  0  0  0  0
  187.8870  174.6200  136.8950 C   0  0  1  0  0  3  0  0  0  0  0  0
  188.5500  177.5680  139.5740 C   0  0  2  0  0  3  0  0  0  0  0  0
  190.6560  176.0010  136.2830 C   0  0  0  0  0  2  0  0  0  0  0  0
  188.7260  174.6440  135.6370 C   0  0  2  0  0  3  0  0  0  0  0  0
  186.7170  172.6080  135.7740 C   0  0  0  0  0  2  0  0  0  0  0  0
  187.8860  178.2580  140.7540 C   0  0  0  0  0  1  0  0  0  0  0  0
  187.4250  176.0620  137.0460 C   0  0  1  0  0  3  0  0  0  0  0  0
  187.9110  171.6600  135.7690 C   0  0  1  0  0  3  0  0  0  0  0  0
  189.8710  176.8740  139.9360 C   0  0  1  0  0  3  0  0  0  0  0  0
  190.5460  176.9220  137.4830 C   0  0  2  0  0  3  0  0  0  0  0  0
  186.7650  173.5670  136.9590 C   0  0  0  0  0  2  0  0  0  0  0  0
  189.6940  173.4610  135.5720 C   0  0  0  0  0  2  0  0  0  0  0  0
  190.3540  176.0610  138.7390 C   0  0  0  0  0  2  0  0  0  0  0  0
  188.6480  178.4710  138.3340 C   0  0  1  0  0  3  0  0  0  0  0  0
  189.3580  179.7040  138.6370 N   0  0  0  0  0  1  0  0  0  0  0  0
  188.4590  176.8900  136.2630 C   0  0  1  0  0  3  0  0  0  0  0  0
  187.4180  170.3280  135.2250 C   0  0  0  0  0  1  0  0  0  0  0  0
  189.3290  177.7620  137.1530 C   0  0  2  0  0  3  0  0  0  0  0  0
  189.0600  172.2390  134.9160 C   0  0  1  0  0  3  0  0  0  0  0  0
  190.1570  171.2420  134.7000 C   0  0  0  0  0  3  0  0  0  0  0  0
  191.4350  171.6050  134.7800 C   0  0  0  0  0  3  0  0  0  0  0  0
  192.5100  170.5990  134.5620 C   0  0  0  0  0  1  0  0  0  0  0  0
  190.9660  177.8260  140.4130 C   0  0  0  0  0  2  0  0  0  0  0  0
  190.6510  176.5940  142.2150 C   0  0  0  0  0  1  0  0  0  0  0  0
  191.6360  177.2820  141.5080 O   0  0  0  0  0  0  0  0  0  0  0  0
  185.9890  176.3320  136.5610 C   0  0  1  0  0  3  0  0  0  0  0  0
  183.9280  176.3680  137.7750 O   0  0  0  0  0  1  0  0  0  0  0  0
  185.1730  176.9860  137.6670 C   0  0  0  0  0  2  0  0  0  0  0  0
  185.9450  177.1620  135.2790 C   0  0  0  0  0  2  0  0  0  0  0  0
  184.7200  176.9920  134.6350 O   0  0  0  0  0  0  0  0  0  0  0  0
  184.6600  175.6270  134.3590 C   0  0  0  0  0  1  0  0  0  0  0  0
  1  5  1  0  0  0  0
  1 17  1  0  0  0  0
  1  4  1  1  0  0  0
  2 12  1  6  0  0  0
  2  8  1  0  0  0  0
  3 10  1  0  0  0  0
  3  7  1  1  0  0  0
  5 13  1  1  0  0  0
  5  2  1  0  0  0  0
  6 12  1  0  0  0  0
  8 27  1  6  0  0  0
  9 18  1  6  0  0  0
  9  6  1  0  0  0  0
 10 24  1  6  0  0  0
 11  4  1  6  0  0  0
 11 14  1  0  0  0  0
 14 10  1  0  0  0  0
 15 16  1  1  0  0  0
 15  3  1  0  0  0  0
 17  8  1  0  0  0  0
 17 19  1  0  0  0  0
 19 11  1  0  0  0  0
 19 15  1  0  0  0  0
 20 13  1  0  0  0  0
 20  9  1  0  0  0  0
 21 22  2  0  0  0  0
 21 20  1  0  0  0  0
 23 22  1  0  0  0  0
 24 26  1  0  0  0  0
 26 25  1  0  0  0  0
 27 29  1  0  0  0  0
 29 28  1  0  0  0  0
 30 27  1  0  0  0  0
 31 30  1  0  0  0  0
 32 31  1  0  0  0  0
M  END
>  <MODEL>
7

>  <REMARK>
 VINA RESULT:      -5.2      2.196      7.919
  Name = 
  7 active torsions:
  status: ('A' for Active; 'I' for Inactive)
    1  A    between atoms: C_10  and  C_28
    2  A    between atoms: O_11  and  C_12
    3  A    between atoms: C_12  and  C_28
    4  A    between atoms: C_14  and  C_29
    5  A    between atoms: C_15  and  C_19
    6  A    between atoms: C_19  and  O_26
    7  A    between atoms: C_28  and  C_32
                            x       y       z     vdW  Elec       q    Type
                         _______ _______ _______ _____ _____    ______ ____

>  <TORSDO>
F 7

$$$$
=
 OpenBabel10272402093D

 32 35  0  0  1  0  0  0  0  0999 V2000
  187.3690  174.0740  134.4420 N   0  0  1  0  0  0  0  0  0  0  0  0
  186.5860  173.9530  136.7110 C   0  0  1  0  0  3  0  0  0  0  0  0
  190.2830  175.4010  137.4510 C   0  0  2  0  0  3  0  0  0  0  0  0
  188.5240  173.1600  134.3530 C   0  0  0  0  0  2  0  0  0  0  0  0
  186.2960  173.5290  135.2900 C   0  0  2  0  0  3  0  0  0  0  0  0
  184.1030  173.3780  137.1250 C   0  0  0  0  0  2  0  0  0  0  0  0
  191.0380  176.2380  138.4710 C   0  0  0  0  0  1  0  0  0  0  0  0
  187.2660  175.3050  136.5520 C   0  0  1  0  0  3  0  0  0  0  0  0
  184.1970  171.8800  136.8590 C   0  0  1  0  0  3  0  0  0  0  0  0
  190.8170  173.9670  137.3220 C   0  0  1  0  0  3  0  0  0  0  0  0
  189.7270  173.7900  135.0290 C   0  0  2  0  0  3  0  0  0  0  0  0
  185.4030  173.9310  137.6970 C   0  0  0  0  0  2  0  0  0  0  0  0
  186.0950  172.0170  135.1720 C   0  0  0  0  0  2  0  0  0  0  0  0
  189.8820  173.1650  136.4220 C   0  0  0  0  0  2  0  0  0  0  0  0
  190.1110  176.1190  136.1030 C   0  0  1  0  0  3  0  0  0  0  0  0
  191.3970  176.5140  135.5500 N   0  0  0  0  0  1  0  0  0  0  0  0
  187.8350  175.2930  135.1220 C   0  0  1  0  0  3  0  0  0  0  0  0
  182.8260  171.2890  137.1480 C   0  0  0  0  0  1  0  0  0  0  0  0
  189.3540  175.2570  135.0800 C   0  0  2  0  0  3  0  0  0  0  0  0
  184.6410  171.6140  135.4050 C   0  0  1  0  0  3  0  0  0  0  0  0
  184.5280  170.1660  135.0380 C   0  0  0  0  0  3  0  0  0  0  0  0
  185.6050  169.3850  134.9960 C   0  0  0  0  0  3  0  0  0  0  0  0
  185.4700  167.9490  134.6290 C   0  0  0  0  0  1  0  0  0  0  0  0
  192.2540  173.8800  136.8130 C   0  0  0  0  0  2  0  0  0  0  0  0
  194.3280  174.5830  137.0690 C   0  0  0  0  0  1  0  0  0  0  0  0
  193.1360  174.3870  137.7650 O   0  0  0  0  0  0  0  0  0  0  0  0
  186.3480  176.5180  136.7920 C   0  0  1  0  0  3  0  0  0  0  0  0
  186.1810  178.6000  137.9590 O   0  0  0  0  0  1  0  0  0  0  0  0
  187.0170  177.5060  137.7370 C   0  0  0  0  0  2  0  0  0  0  0  0
  185.9200  177.2010  135.4940 C   0  0  0  0  0  2  0  0  0  0  0  0
  184.7000  176.6870  135.0580 O   0  0  0  0  0  0  0  0  0  0  0  0
  183.8800  176.7360  136.1840 C   0  0  0  0  0  1  0  0  0  0  0  0
  1  4  1  1  0  0  0
  1 17  1  0  0  0  0
  1  5  1  0  0  0  0
  2 12  1  1  0  0  0
  3  7  1  1  0  0  0
  5 13  1  1  0  0  0
  5  2  1  0  0  0  0
  6 12  1  0  0  0  0
  8  2  1  0  0  0  0
  8 27  1  6  0  0  0
  9  6  1  0  0  0  0
  9 18  1  6  0  0  0
 10 24  1  6  0  0  0
 10  3  1  0  0  0  0
 11  4  1  6  0  0  0
 11 19  1  0  0  0  0
 11 14  1  0  0  0  0
 13 20  1  0  0  0  0
 14 10  1  0  0  0  0
 15 16  1  6  0  0  0
 15  3  1  0  0  0  0
 17  8  1  0  0  0  0
 19 17  1  0  0  0  0
 19 15  1  0  0  0  0
 20  9  1  0  0  0  0
 21 20  1  0  0  0  0
 22 21  2  0  0  0  0
 23 22  1  0  0  0  0
 24 26  1  0  0  0  0
 25 26  1  0  0  0  0
 27 29  1  0  0  0  0
 29 28  1  0  0  0  0
 30 27  1  0  0  0  0
 31 30  1  0  0  0  0
 31 32  1  0  0  0  0
M  END
>  <MODEL>
8

>  <REMARK>
 VINA RESULT:      -5.1      3.789      7.431
  Name = 
  7 active torsions:
  status: ('A' for Active; 'I' for Inactive)
    1  A    between atoms: C_10  and  C_28
    2  A    between atoms: O_11  and  C_12
    3  A    between atoms: C_12  and  C_28
    4  A    between atoms: C_14  and  C_29
    5  A    between atoms: C_15  and  C_19
    6  A    between atoms: C_19  and  O_26
    7  A    between atoms: C_28  and  C_32
                            x       y       z     vdW  Elec       q    Type
                         _______ _______ _______ _____ _____    ______ ____

>  <TORSDO>
F 7

$$$$
=
 OpenBabel10272402093D

 32 35  0  0  1  0  0  0  0  0999 V2000
  191.3770  177.6270  139.0640 N   0  0  1  0  0  0  0  0  0  0  0  0
  189.8590  175.8060  138.6690 C   0  0  1  0  0  3  0  0  0  0  0  0
  188.4040  177.0070  142.2400 C   0  0  2  0  0  3  0  0  0  0  0  0
  192.1240  177.2850  140.2900 C   0  0  0  0  0  2  0  0  0  0  0  0
  191.1470  176.4510  138.2090 C   0  0  2  0  0  3  0  0  0  0  0  0
  189.9160  174.6380  136.3660 C   0  0  0  0  0  2  0  0  0  0  0  0
  187.1140  177.0170  143.0420 C   0  0  0  0  0  1  0  0  0  0  0  0
  189.0210  176.9810  139.1510 C   0  0  1  0  0  3  0  0  0  0  0  0
  191.1760  173.8100  136.5930 C   0  0  1  0  0  3  0  0  0  0  0  0
  189.5350  176.2140  142.9110 C   0  0  1  0  0  3  0  0  0  0  0  0
  191.2330  177.4810  141.5020 C   0  0  2  0  0  3  0  0  0  0  0  0
  189.1550  174.8720  137.6670 C   0  0  0  0  0  2  0  0  0  0  0  0
  192.3060  175.4530  138.1710 C   0  0  0  0  0  2  0  0  0  0  0  0
  190.7120  176.1070  141.9470 C   0  0  0  0  0  2  0  0  0  0  0  0
  188.8270  178.4090  141.7740 C   0  0  1  0  0  3  0  0  0  0  0  0
  188.9640  179.3180  142.9010 N   0  0  0  0  0  1  0  0  0  0  0  0
  190.0430  178.0820  139.4850 C   0  0  1  0  0  3  0  0  0  0  0  0
  191.3610  172.9350  135.3630 C   0  0  0  0  0  1  0  0  0  0  0  0
  190.1380  178.3820  140.9720 C   0  0  2  0  0  3  0  0  0  0  0  0
  192.3930  174.7290  136.8300 C   0  0  1  0  0  3  0  0  0  0  0  0
  193.6830  173.9660  136.8310 C   0  0  0  0  0  3  0  0  0  0  0  0
  194.3860  173.8160  137.9510 C   0  0  0  0  0  3  0  0  0  0  0  0
  195.6650  173.0550  137.9290 C   0  0  0  0  0  1  0  0  0  0  0  0
  189.9910  176.7890  144.2500 C   0  0  0  0  0  2  0  0  0  0  0  0
  189.3780  177.4410  146.2660 C   0  0  0  0  0  1  0  0  0  0  0  0
  189.0070  176.5980  145.2190 O   0  0  0  0  0  0  0  0  0  0  0  0
  187.9600  177.4700  138.1460 C   0  0  1  0  0  3  0  0  0  0  0  0
  185.9670  178.7910  138.0960 O   0  0  0  0  0  1  0  0  0  0  0  0
  186.6980  177.8990  138.8800 C   0  0  0  0  0  2  0  0  0  0  0  0
  188.4770  178.5850  137.2390 C   0  0  0  0  0  2  0  0  0  0  0  0
  188.9790  178.0490  136.0540 O   0  0  0  0  0  0  0  0  0  0  0  0
  187.8470  177.6480  135.3470 C   0  0  0  0  0  1  0  0  0  0  0  0
  1 17  1  0  0  0  0
  1  4  1  1  0  0  0
  2 12  1  6  0  0  0
  2  8  1  0  0  0  0
  3 10  1  0  0  0  0
  3  7  1  1  0  0  0
  5 13  1  1  0  0  0
  5  2  1  0  0  0  0
  5  1  1  0  0  0  0
  6  9  1  0  0  0  0
  6 12  1  0  0  0  0
  8 27  1  6  0  0  0
  8 17  1  0  0  0  0
  9 18  1  6  0  0  0
  9 20  1  0  0  0  0
 10 24  1  1  0  0  0
 11  4  1  6  0  0  0
 11 14  1  0  0  0  0
 14 10  1  0  0  0  0
 15  3  1  0  0  0  0
 15 16  1  1  0  0  0
 17 19  1  0  0  0  0
 19 11  1  0  0  0  0
 19 15  1  0  0  0  0
 20 21  1  0  0  0  0
 20 13  1  0  0  0  0
 21 22  2  0  0  0  0
 23 22  1  0  0  0  0
 24 26  1  0  0  0  0
 26 25  1  0  0  0  0
 27 29  1  0  0  0  0
 28 29  1  0  0  0  0
 30 27  1  0  0  0  0
 31 30  1  0  0  0  0
 32 31  1  0  0  0  0
M  END
>  <MODEL>
9

>  <REMARK>
 VINA RESULT:      -5.0      2.451      7.665
  Name = 
  7 active torsions:
  status: ('A' for Active; 'I' for Inactive)
    1  A    between atoms: C_10  and  C_28
    2  A    between atoms: O_11  and  C_12
    3  A    between atoms: C_12  and  C_28
    4  A    between atoms: C_14  and  C_29
    5  A    between atoms: C_15  and  C_19
    6  A    between atoms: C_19  and  O_26
    7  A    between atoms: C_28  and  C_32
                            x       y       z     vdW  Elec       q    Type
                         _______ _______ _______ _____ _____    ______ ____

>  <TORSDO>
F 7

$$$$
