=
 OpenBabel10272414513D

 37 40  0  0  1  0  0  0  0  0999 V2000
  189.8280  175.5980  136.3870 C   0  0  1  0  0  0  0  0  0  0  0  0
  188.3200  175.9700  136.4470 C   0  0  2  0  0  3  0  0  0  0  0  0
  189.1290  179.5170  137.4000 N   0  0  0  0  0  1  0  0  0  0  0  0
  188.1270  177.4920  136.4860 C   0  0  2  0  0  3  0  0  0  0  0  0
  188.7530  178.1530  137.7400 C   0  0  1  0  0  0  0  0  0  0  0  0
  190.7140  176.6870  137.0440 C   0  0  0  0  0  2  0  0  0  0  0  0
  190.0090  177.3930  138.2010 C   0  0  0  0  0  2  0  0  0  0  0  0
  186.6850  177.8990  136.2040 C   0  0  0  0  0  1  0  0  0  0  0  0
  190.0290  174.3900  137.0630 O   0  0  0  0  0  1  0  0  0  0  0  0
  190.1540  175.3820  134.8850 C   0  0  2  0  0  3  0  0  0  0  0  0
  191.4850  174.8050  134.4960 C   0  0  1  0  0  3  0  0  0  0  0  0
  191.2260  176.1890  134.4450 O   0  0  0  0  0  0  0  0  0  0  0  0
  192.4540  174.4970  135.6350 C   0  0  1  0  0  3  0  0  0  0  0  0
  192.5040  173.1200  135.8560 O   0  0  0  0  0  1  0  0  0  0  0  0
  196.1140  174.4760  134.3460 C   0  0  0  0  0  2  0  0  0  0  0  0
  194.1810  176.4200  135.7850 C   0  0  0  0  0  2  0  0  0  0  0  0
  194.7060  174.1620  134.7770 C   0  0  0  0  0  3  0  0  0  0  0  0
  195.0770  177.1480  134.7930 C   0  0  0  0  0  2  0  0  0  0  0  0
  198.3330  175.1270  135.2420 C   0  0  0  0  0  1  0  0  0  0  0  0
  196.5550  176.8480  135.0600 C   0  0  0  0  0  2  0  0  0  0  0  0
  196.8430  175.3710  135.3380 C   0  0  1  0  0  3  0  0  0  0  0  0
  193.8270  175.0180  135.3370 C   0  0  0  0  0  0  0  0  0  0  0  0
  186.6440  174.6190  136.9830 C   0  0  0  0  0  1  0  0  0  0  0  0
  187.6810  175.3700  137.5410 O   0  0  0  0  0  0  0  0  0  0  0  0
  187.7570  178.1780  138.9040 C   0  0  0  0  0  2  0  0  0  0  0  0
  188.1050  177.2460  139.8880 O   0  0  0  0  0  0  0  0  0  0  0  0
  188.1750  177.9900  141.0680 C   0  0  0  0  0  2  0  0  0  0  0  0
  188.3250  177.0920  142.2100 N   0  0  0  0  0  0  0  0  0  0  0  0
  190.8400  177.0010  141.8190 C   0  0  0  0  0  2  0  0  0  0  0  0
  189.6770  177.1860  142.7770 C   0  0  2  0  0  0  0  0  0  0  0  0
  191.3740  175.7470  143.8290 N   0  0  0  0  0  1  0  0  0  0  0  0
  190.4220  175.8570  142.7350 C   0  0  2  0  0  3  0  0  0  0  0  0
  189.8700  177.9340  143.9600 O   0  0  0  0  0  0  0  0  0  0  0  0
  191.7730  179.2990  144.3800 C   0  0  0  0  0  1  0  0  0  0  0  0
  190.4880  179.1360  143.5960 C   0  0  0  0  0  2  0  0  0  0  0  0
  187.2830  177.3310  143.2210 C   0  0  0  0  0  2  0  0  0  0  0  0
  186.2240  178.3410  142.7840 C   0  0  0  0  0  1  0  0  0  0  0  0
  1  2  1  0  0  0  0
  1  6  1  0  0  0  0
  1  9  1  1  0  0  0
  2  4  1  0  0  0  0
  2 24  1  1  0  0  0
  4  8  1  1  0  0  0
  4  5  1  0  0  0  0
  5  3  1  6  0  0  0
  5  7  1  0  0  0  0
  5 25  1  0  0  0  0
  6  7  1  0  0  0  0
 10 12  1  6  0  0  0
 10  1  1  0  0  0  0
 11 10  1  0  0  0  0
 11 13  1  1  0  0  0
 12 11  1  0  0  0  0
 13 14  1  6  0  0  0
 15 17  1  0  0  0  0
 15 21  1  0  0  0  0
 17 22  2  0  0  0  0
 18 20  1  0  0  0  0
 18 16  1  0  0  0  0
 20 21  1  0  0  0  0
 21 19  1  6  0  0  0
 22 13  1  0  0  0  0
 22 16  1  0  0  0  0
 23 24  1  0  0  0  0
 25 26  1  0  0  0  0
 26 27  1  0  0  0  0
 27 28  1  0  0  0  0
 28 30  1  0  0  0  0
 28 36  1  0  0  0  0
 29 32  1  0  0  0  0
 29 30  1  0  0  0  0
 30 33  1  1  0  0  0
 32 30  1  0  0  0  0
 32 31  1  1  0  0  0
 35 33  1  0  0  0  0
 35 34  1  0  0  0  0
 37 36  1  0  0  0  0
M  END
>  <MODEL>
1

>  <REMARK>
 VINA RESULT:      -5.8      0.000      0.000
  Name = 
  12 active torsions:
  status: ('A' for Active; 'I' for Inactive)
    1  A    between atoms: C_1  and  C_20
    2  A    between atoms: C_3  and  C_21
    3  A    between atoms: C_3  and  C_30
    4  A    between atoms: C_5  and  O_23
    5  A    between atoms: C_6  and  O_8
    6  A    between atoms: C_6  and  N_31
    7  A    between atoms: C_7  and  O_27
    8  A    between atoms: C_7  and  N_31
    9  A    between atoms: O_8  and  C_19
   10  A    between atoms: C_10  and  C_26
   11  A    between atoms: C_10  and  O_27
   12  A    between atoms: C_14  and  N_31
                            x       y       z     vdW  Elec       q    Type
                         _______ _______ _______ _____ _____    ______ ____

>  <TORSDO>
F 12

$$$$
=
 OpenBabel10272414513D

 37 40  0  0  1  0  0  0  0  0999 V2000
  190.0710  176.8910  140.3410 C   0  0  1  0  0  0  0  0  0  0  0  0
  190.5550  176.5560  138.9030 C   0  0  2  0  0  3  0  0  0  0  0  0
  188.1000  178.9780  137.4030 N   0  0  0  0  0  1  0  0  0  0  0  0
  190.0430  177.5910  137.8920 C   0  0  2  0  0  3  0  0  0  0  0  0
  188.4970  177.6340  137.7950 C   0  0  1  0  0  0  0  0  0  0  0  0
  188.7360  177.6800  140.3290 C   0  0  0  0  0  2  0  0  0  0  0  0
  187.8450  177.2990  139.1480 C   0  0  0  0  0  2  0  0  0  0  0  0
  190.7640  177.4960  136.5520 C   0  0  0  0  0  1  0  0  0  0  0  0
  189.8800  175.7010  141.0490 O   0  0  0  0  0  1  0  0  0  0  0  0
  191.2300  177.6810  141.0080 C   0  0  2  0  0  3  0  0  0  0  0  0
  191.6490  177.3330  142.4080 C   0  0  1  0  0  3  0  0  0  0  0  0
  190.8010  178.4230  142.1290 O   0  0  0  0  0  0  0  0  0  0  0  0
  190.8610  176.2220  143.0990 C   0  0  1  0  0  3  0  0  0  0  0  0
  191.7400  175.3290  143.7140 O   0  0  0  0  0  1  0  0  0  0  0  0
  189.6810  178.0060  146.3370 C   0  0  0  0  0  2  0  0  0  0  0  0
  188.4230  176.5820  143.8920 C   0  0  0  0  0  2  0  0  0  0  0  0
  190.4370  177.3390  145.2180 C   0  0  0  0  0  3  0  0  0  0  0  0
  187.5960  177.7810  144.3330 C   0  0  0  0  0  2  0  0  0  0  0  0
  188.0620  177.5320  148.1560 C   0  0  0  0  0  1  0  0  0  0  0  0
  187.2390  177.6890  145.8200 C   0  0  0  0  0  2  0  0  0  0  0  0
  188.4080  177.2580  146.7080 C   0  0  1  0  0  3  0  0  0  0  0  0
  189.9070  176.7820  144.1110 C   0  0  0  0  0  0  0  0  0  0  0  0
  191.3160  174.7080  137.9410 C   0  0  0  0  0  1  0  0  0  0  0  0
  190.1720  175.2650  138.5150 O   0  0  0  0  0  0  0  0  0  0  0  0
  187.9830  176.6320  136.7560 C   0  0  0  0  0  2  0  0  0  0  0  0
  187.1510  175.6740  137.3450 O   0  0  0  0  0  0  0  0  0  0  0  0
  186.0420  175.6040  136.5000 C   0  0  0  0  0  2  0  0  0  0  0  0
  184.8540  175.2520  137.2740 N   0  0  0  0  0  0  0  0  0  0  0  0
  184.2930  177.6930  137.7370 C   0  0  0  0  0  2  0  0  0  0  0  0
  183.8580  176.3310  137.2260 C   0  0  2  0  0  0  0  0  0  0  0  0
  182.0650  177.2910  138.6130 N   0  0  0  0  0  1  0  0  0  0  0  0
  183.4310  176.7940  138.6150 C   0  0  2  0  0  3  0  0  0  0  0  0
  182.8100  176.2510  136.2830 O   0  0  0  0  0  0  0  0  0  0  0  0
  181.8690  177.3310  134.3820 C   0  0  0  0  0  1  0  0  0  0  0  0
  183.0800  177.1910  135.2810 C   0  0  0  0  0  2  0  0  0  0  0  0
  184.2930  173.9630  136.8390 C   0  0  0  0  0  2  0  0  0  0  0  0
  184.8380  172.7640  137.6130 C   0  0  0  0  0  1  0  0  0  0  0  0
  1 10  1  0  0  0  0
  1  9  1  1  0  0  0
  2 24  1  6  0  0  0
  2  1  1  0  0  0  0
  4  8  1  6  0  0  0
  4  2  1  0  0  0  0
  5  3  1  6  0  0  0
  5  4  1  0  0  0  0
  5  7  1  0  0  0  0
  6  1  1  0  0  0  0
  7  6  1  0  0  0  0
 10 12  1  1  0  0  0
 10 11  1  0  0  0  0
 11 13  1  1  0  0  0
 12 11  1  0  0  0  0
 13 14  1  1  0  0  0
 13 22  1  0  0  0  0
 15 21  1  0  0  0  0
 16 22  1  0  0  0  0
 16 18  1  0  0  0  0
 17 15  1  0  0  0  0
 18 20  1  0  0  0  0
 20 21  1  0  0  0  0
 21 19  1  1  0  0  0
 22 17  2  0  0  0  0
 23 24  1  0  0  0  0
 25 26  1  0  0  0  0
 25  5  1  0  0  0  0
 27 28  1  0  0  0  0
 27 26  1  0  0  0  0
 29 32  1  0  0  0  0
 30 33  1  6  0  0  0
 30 28  1  0  0  0  0
 30 29  1  0  0  0  0
 30 32  1  0  0  0  0
 32 31  1  6  0  0  0
 34 35  1  0  0  0  0
 35 33  1  0  0  0  0
 36 28  1  0  0  0  0
 36 37  1  0  0  0  0
M  END
>  <MODEL>
2

>  <REMARK>
 VINA RESULT:      -5.6      3.449      8.618
  Name = 
  12 active torsions:
  status: ('A' for Active; 'I' for Inactive)
    1  A    between atoms: C_1  and  C_20
    2  A    between atoms: C_3  and  C_21
    3  A    between atoms: C_3  and  C_30
    4  A    between atoms: C_5  and  O_23
    5  A    between atoms: C_6  and  O_8
    6  A    between atoms: C_6  and  N_31
    7  A    between atoms: C_7  and  O_27
    8  A    between atoms: C_7  and  N_31
    9  A    between atoms: O_8  and  C_19
   10  A    between atoms: C_10  and  C_26
   11  A    between atoms: C_10  and  O_27
   12  A    between atoms: C_14  and  N_31
                            x       y       z     vdW  Elec       q    Type
                         _______ _______ _______ _____ _____    ______ ____

>  <TORSDO>
F 12

$$$$
=
 OpenBabel10272414513D

 37 40  0  0  1  0  0  0  0  0999 V2000
  189.3730  177.0650  139.8240 C   0  0  1  0  0  0  0  0  0  0  0  0
  189.8030  176.7470  138.3640 C   0  0  2  0  0  3  0  0  0  0  0  0
  187.6370  179.5100  137.0170 N   0  0  0  0  0  1  0  0  0  0  0  0
  189.4080  177.8840  137.4110 C   0  0  2  0  0  3  0  0  0  0  0  0
  187.8770  178.1120  137.3370 C   0  0  1  0  0  0  0  0  0  0  0  0
  188.1390  178.0030  139.8670 C   0  0  0  0  0  2  0  0  0  0  0  0
  187.2010  177.7880  138.6810 C   0  0  0  0  0  2  0  0  0  0  0  0
  190.1030  177.7720  136.0590 C   0  0  0  0  0  1  0  0  0  0  0  0
  189.0490  175.8700  140.4750 O   0  0  0  0  0  1  0  0  0  0  0  0
  190.6210  177.6800  140.5120 C   0  0  2  0  0  3  0  0  0  0  0  0
  191.0070  177.2160  141.8880 C   0  0  1  0  0  3  0  0  0  0  0  0
  190.2900  178.4110  141.6740 O   0  0  0  0  0  0  0  0  0  0  0  0
  190.0990  176.1730  142.5350 C   0  0  1  0  0  3  0  0  0  0  0  0
  190.8610  175.0880  142.9720 O   0  0  0  0  0  1  0  0  0  0  0  0
  189.4860  178.0450  145.8780 C   0  0  0  0  0  2  0  0  0  0  0  0
  187.8340  176.5400  143.7350 C   0  0  0  0  0  2  0  0  0  0  0  0
  190.0410  177.3500  144.6630 C   0  0  0  0  0  3  0  0  0  0  0  0
  187.0830  177.7460  144.2790 C   0  0  0  0  0  2  0  0  0  0  0  0
  188.2180  177.6160  147.9660 C   0  0  0  0  0  1  0  0  0  0  0  0
  186.9940  177.6980  145.8080 C   0  0  0  0  0  2  0  0  0  0  0  0
  188.3070  177.3010  146.4880 C   0  0  1  0  0  3  0  0  0  0  0  0
  189.3320  176.7560  143.6830 C   0  0  0  0  0  0  0  0  0  0  0  0
  190.3790  174.7380  137.6230 C   0  0  0  0  0  1  0  0  0  0  0  0
  189.2690  175.5310  137.9190 O   0  0  0  0  0  0  0  0  0  0  0  0
  187.2420  177.2290  136.2580 C   0  0  0  0  0  2  0  0  0  0  0  0
  185.8570  177.1320  136.4330 O   0  0  0  0  0  0  0  0  0  0  0  0
  185.5690  175.7830  136.2150 C   0  0  0  0  0  2  0  0  0  0  0  0
  184.1840  175.6400  135.7720 N   0  0  0  0  0  0  0  0  0  0  0  0
  183.9670  173.6450  137.3410 C   0  0  0  0  0  2  0  0  0  0  0  0
  183.3830  174.9290  136.7770 C   0  0  2  0  0  0  0  0  0  0  0  0
  181.6180  173.2180  136.9010 N   0  0  0  0  0  1  0  0  0  0  0  0
  182.8800  173.5800  136.2750 C   0  0  2  0  0  3  0  0  0  0  0  0
  182.4500  175.6580  137.5470 O   0  0  0  0  0  0  0  0  0  0  0  0
  183.3110  177.2360  139.1060 C   0  0  0  0  0  1  0  0  0  0  0  0
  182.9810  175.7830  138.8360 C   0  0  0  0  0  2  0  0  0  0  0  0
  183.5970  176.9420  135.4180 C   0  0  0  0  0  2  0  0  0  0  0  0
  182.4800  176.8490  134.3800 C   0  0  0  0  0  1  0  0  0  0  0  0
  1  6  1  0  0  0  0
  1  9  1  1  0  0  0
  1 10  1  0  0  0  0
  2 24  1  6  0  0  0
  2  1  1  0  0  0  0
  4  8  1  6  0  0  0
  4  2  1  0  0  0  0
  5  3  1  6  0  0  0
  5  4  1  0  0  0  0
  5  7  1  0  0  0  0
  7  6  1  0  0  0  0
 10 12  1  1  0  0  0
 10 11  1  0  0  0  0
 11 13  1  1  0  0  0
 12 11  1  0  0  0  0
 13 14  1  1  0  0  0
 13 22  1  0  0  0  0
 15 21  1  0  0  0  0
 16 18  1  0  0  0  0
 17 15  1  0  0  0  0
 18 20  1  0  0  0  0
 20 21  1  0  0  0  0
 21 19  1  1  0  0  0
 22 16  1  0  0  0  0
 22 17  2  0  0  0  0
 23 24  1  0  0  0  0
 25 26  1  0  0  0  0
 25  5  1  0  0  0  0
 27 26  1  0  0  0  0
 28 27  1  0  0  0  0
 28 30  1  0  0  0  0
 30 29  1  0  0  0  0
 30 33  1  1  0  0  0
 32 30  1  0  0  0  0
 32 31  1  1  0  0  0
 32 29  1  0  0  0  0
 33 35  1  0  0  0  0
 35 34  1  0  0  0  0
 36 28  1  0  0  0  0
 37 36  1  0  0  0  0
M  END
>  <MODEL>
3

>  <REMARK>
 VINA RESULT:      -5.4      3.727      8.548
  Name = 
  12 active torsions:
  status: ('A' for Active; 'I' for Inactive)
    1  A    between atoms: C_1  and  C_20
    2  A    between atoms: C_3  and  C_21
    3  A    between atoms: C_3  and  C_30
    4  A    between atoms: C_5  and  O_23
    5  A    between atoms: C_6  and  O_8
    6  A    between atoms: C_6  and  N_31
    7  A    between atoms: C_7  and  O_27
    8  A    between atoms: C_7  and  N_31
    9  A    between atoms: O_8  and  C_19
   10  A    between atoms: C_10  and  C_26
   11  A    between atoms: C_10  and  O_27
   12  A    between atoms: C_14  and  N_31
                            x       y       z     vdW  Elec       q    Type
                         _______ _______ _______ _____ _____    ______ ____

>  <TORSDO>
F 12

$$$$
=
 OpenBabel10272414513D

 37 40  0  0  1  0  0  0  0  0999 V2000
  189.7620  175.5040  136.5800 C   0  0  1  0  0  0  0  0  0  0  0  0
  188.2660  175.9170  136.6700 C   0  0  2  0  0  3  0  0  0  0  0  0
  189.1830  179.3520  137.8940 N   0  0  0  0  0  1  0  0  0  0  0  0
  188.1200  177.4370  136.8270 C   0  0  2  0  0  3  0  0  0  0  0  0
  188.7650  177.9790  138.1280 C   0  0  1  0  0  0  0  0  0  0  0  0
  190.6810  176.5110  137.3190 C   0  0  0  0  0  2  0  0  0  0  0  0
  189.9960  177.1470  138.5270 C   0  0  0  0  0  2  0  0  0  0  0  0
  186.6920  177.9090  136.5780 C   0  0  0  0  0  1  0  0  0  0  0  0
  189.9250  174.2420  137.1600 O   0  0  0  0  0  1  0  0  0  0  0  0
  190.0840  175.3960  135.0650 C   0  0  2  0  0  3  0  0  0  0  0  0
  191.4330  174.8950  134.6330 C   0  0  1  0  0  3  0  0  0  0  0  0
  191.1210  176.2690  134.6710 O   0  0  0  0  0  0  0  0  0  0  0  0
  192.4220  174.5540  135.7450 C   0  0  1  0  0  3  0  0  0  0  0  0
  192.4480  173.1730  135.9490 O   0  0  0  0  0  1  0  0  0  0  0  0
  196.0410  174.4820  134.3480 C   0  0  0  0  0  2  0  0  0  0  0  0
  194.1990  176.4300  135.8970 C   0  0  0  0  0  2  0  0  0  0  0  0
  194.6390  174.1900  134.8120 C   0  0  0  0  0  3  0  0  0  0  0  0
  195.0820  177.1650  134.8990 C   0  0  0  0  0  2  0  0  0  0  0  0
  198.3010  175.0550  135.1950 C   0  0  0  0  0  1  0  0  0  0  0  0
  196.5600  176.8230  135.1140 C   0  0  0  0  0  2  0  0  0  0  0  0
  196.8200  175.3320  135.3420 C   0  0  1  0  0  3  0  0  0  0  0  0
  193.7980  175.0500  135.4200 C   0  0  0  0  0  0  0  0  0  0  0  0
  186.5460  174.5850  137.1010 C   0  0  0  0  0  1  0  0  0  0  0  0
  187.6070  175.2530  137.7140 O   0  0  0  0  0  0  0  0  0  0  0  0
  187.7680  177.9440  139.2910 C   0  0  0  0  0  2  0  0  0  0  0  0
  188.2580  178.6420  140.4000 O   0  0  0  0  0  0  0  0  0  0  0  0
  188.4750  177.6590  141.3670 C   0  0  0  0  0  2  0  0  0  0  0  0
  188.9830  178.2740  142.5910 N   0  0  0  0  0  0  0  0  0  0  0  0
  187.5130  176.4550  143.6000 C   0  0  0  0  0  2  0  0  0  0  0  0
  188.2760  177.7570  143.7700 C   0  0  2  0  0  0  0  0  0  0  0  0
  186.0850  177.9470  144.8760 N   0  0  0  0  0  1  0  0  0  0  0  0
  186.7610  177.7800  143.5990 C   0  0  2  0  0  3  0  0  0  0  0  0
  188.7310  178.1270  145.0550 O   0  0  0  0  0  0  0  0  0  0  0  0
  189.5760  177.2640  147.1060 C   0  0  0  0  0  1  0  0  0  0  0  0
  189.2760  176.9820  145.6480 C   0  0  0  0  0  2  0  0  0  0  0  0
  190.4410  178.1130  142.7060 C   0  0  0  0  0  2  0  0  0  0  0  0
  190.9380  176.7220  142.3180 C   0  0  0  0  0  1  0  0  0  0  0  0
  1  2  1  0  0  0  0
  1  9  1  1  0  0  0
  1  6  1  0  0  0  0
  2  4  1  0  0  0  0
  2 24  1  1  0  0  0
  4  8  1  1  0  0  0
  4  5  1  0  0  0  0
  5  3  1  6  0  0  0
  5  7  1  0  0  0  0
  5 25  1  0  0  0  0
  6  7  1  0  0  0  0
 10 12  1  1  0  0  0
 10  1  1  0  0  0  0
 11 12  1  0  0  0  0
 11 10  1  0  0  0  0
 11 13  1  1  0  0  0
 13 14  1  6  0  0  0
 15 17  1  0  0  0  0
 15 21  1  0  0  0  0
 17 22  2  0  0  0  0
 18 20  1  0  0  0  0
 18 16  1  0  0  0  0
 20 21  1  0  0  0  0
 21 19  1  6  0  0  0
 22 13  1  0  0  0  0
 22 16  1  0  0  0  0
 23 24  1  0  0  0  0
 25 26  1  0  0  0  0
 26 27  1  0  0  0  0
 27 28  1  0  0  0  0
 28 36  1  0  0  0  0
 28 30  1  0  0  0  0
 29 30  1  0  0  0  0
 30 33  1  1  0  0  0
 32 29  1  0  0  0  0
 32 30  1  0  0  0  0
 32 31  1  1  0  0  0
 33 35  1  0  0  0  0
 35 34  1  0  0  0  0
 37 36  1  0  0  0  0
M  END
>  <MODEL>
4

>  <REMARK>
 VINA RESULT:      -5.4      1.176      1.951
  Name = 
  12 active torsions:
  status: ('A' for Active; 'I' for Inactive)
    1  A    between atoms: C_1  and  C_20
    2  A    between atoms: C_3  and  C_21
    3  A    between atoms: C_3  and  C_30
    4  A    between atoms: C_5  and  O_23
    5  A    between atoms: C_6  and  O_8
    6  A    between atoms: C_6  and  N_31
    7  A    between atoms: C_7  and  O_27
    8  A    between atoms: C_7  and  N_31
    9  A    between atoms: O_8  and  C_19
   10  A    between atoms: C_10  and  C_26
   11  A    between atoms: C_10  and  O_27
   12  A    between atoms: C_14  and  N_31
                            x       y       z     vdW  Elec       q    Type
                         _______ _______ _______ _____ _____    ______ ____

>  <TORSDO>
F 12

$$$$
=
 OpenBabel10272414513D

 37 40  0  0  1  0  0  0  0  0999 V2000
  189.3600  177.0450  139.8370 C   0  0  1  0  0  0  0  0  0  0  0  0
  189.7840  176.7270  138.3760 C   0  0  2  0  0  3  0  0  0  0  0  0
  187.6330  179.5070  137.0400 N   0  0  0  0  0  1  0  0  0  0  0  0
  189.3940  177.8690  137.4260 C   0  0  2  0  0  3  0  0  0  0  0  0
  187.8640  178.1060  137.3570 C   0  0  1  0  0  0  0  0  0  0  0  0
  188.1330  177.9910  139.8860 C   0  0  0  0  0  2  0  0  0  0  0  0
  187.1900  177.7850  138.7020 C   0  0  0  0  0  2  0  0  0  0  0  0
  190.0840  177.7540  136.0720 C   0  0  0  0  0  1  0  0  0  0  0  0
  189.0310  175.8520  140.4880 O   0  0  0  0  0  1  0  0  0  0  0  0
  190.6140  177.6510  140.5230 C   0  0  2  0  0  3  0  0  0  0  0  0
  191.0020  177.1820  141.8960 C   0  0  1  0  0  3  0  0  0  0  0  0
  190.2920  178.3810  141.6880 O   0  0  0  0  0  0  0  0  0  0  0  0
  190.0900  176.1420  142.5440 C   0  0  1  0  0  3  0  0  0  0  0  0
  190.8480  175.0560  142.9850 O   0  0  0  0  0  1  0  0  0  0  0  0
  189.4800  177.9860  145.9040 C   0  0  0  0  0  2  0  0  0  0  0  0
  187.8200  176.5530  143.7180 C   0  0  0  0  0  2  0  0  0  0  0  0
  190.0340  177.2920  144.6870 C   0  0  0  0  0  3  0  0  0  0  0  0
  187.0930  177.7710  144.2690 C   0  0  0  0  0  2  0  0  0  0  0  0
  188.1730  177.5630  147.9680 C   0  0  0  0  0  1  0  0  0  0  0  0
  186.9820  177.7040  145.7960 C   0  0  0  0  0  2  0  0  0  0  0  0
  188.2740  177.2650  146.4880 C   0  0  1  0  0  3  0  0  0  0  0  0
  189.3230  176.7300  143.6890 C   0  0  0  0  0  0  0  0  0  0  0  0
  190.3370  174.7680  137.4960 C   0  0  0  0  0  1  0  0  0  0  0  0
  189.2410  175.5150  137.9300 O   0  0  0  0  0  0  0  0  0  0  0  0
  187.2200  177.2290  136.2780 C   0  0  0  0  0  2  0  0  0  0  0  0
  185.8580  177.5160  136.1390 O   0  0  0  0  0  0  0  0  0  0  0  0
  185.2300  176.2700  136.1760 C   0  0  0  0  0  2  0  0  0  0  0  0
  183.8590  176.4220  136.6560 N   0  0  0  0  0  0  0  0  0  0  0  0
  182.8680  174.6560  135.1110 C   0  0  0  0  0  2  0  0  0  0  0  0
  183.1130  175.1640  136.5220 C   0  0  2  0  0  0  0  0  0  0  0  0
  180.7910  174.3710  136.3350 N   0  0  0  0  0  1  0  0  0  0  0  0
  181.7490  175.3600  135.8690 C   0  0  2  0  0  3  0  0  0  0  0  0
  183.1280  174.2430  137.5930 O   0  0  0  0  0  0  0  0  0  0  0  0
  185.2480  173.1690  137.7220 C   0  0  0  0  0  1  0  0  0  0  0  0
  183.8410  173.1170  137.1640 C   0  0  0  0  0  2  0  0  0  0  0  0
  183.8270  176.9380  138.0340 C   0  0  0  0  0  2  0  0  0  0  0  0
  183.1370  178.2940  138.1650 C   0  0  0  0  0  1  0  0  0  0  0  0
  1  6  1  0  0  0  0
  1  9  1  1  0  0  0
  1 10  1  0  0  0  0
  2 24  1  6  0  0  0
  2  1  1  0  0  0  0
  4  8  1  6  0  0  0
  4  2  1  0  0  0  0
  5  3  1  6  0  0  0
  5  4  1  0  0  0  0
  5  7  1  0  0  0  0
  7  6  1  0  0  0  0
 10 12  1  1  0  0  0
 10 11  1  0  0  0  0
 11 13  1  1  0  0  0
 12 11  1  0  0  0  0
 13 14  1  1  0  0  0
 13 22  1  0  0  0  0
 15 21  1  0  0  0  0
 16 18  1  0  0  0  0
 17 15  1  0  0  0  0
 18 20  1  0  0  0  0
 20 21  1  0  0  0  0
 21 19  1  1  0  0  0
 22 16  1  0  0  0  0
 22 17  2  0  0  0  0
 23 24  1  0  0  0  0
 25  5  1  0  0  0  0
 26 27  1  0  0  0  0
 26 25  1  0  0  0  0
 27 28  1  0  0  0  0
 28 36  1  0  0  0  0
 29 32  1  0  0  0  0
 29 30  1  0  0  0  0
 30 28  1  0  0  0  0
 30 33  1  1  0  0  0
 32 31  1  1  0  0  0
 32 30  1  0  0  0  0
 35 33  1  0  0  0  0
 35 34  1  0  0  0  0
 36 37  1  0  0  0  0
M  END
>  <MODEL>
5

>  <REMARK>
 VINA RESULT:      -5.3      3.726      8.600
  Name = 
  12 active torsions:
  status: ('A' for Active; 'I' for Inactive)
    1  A    between atoms: C_1  and  C_20
    2  A    between atoms: C_3  and  C_21
    3  A    between atoms: C_3  and  C_30
    4  A    between atoms: C_5  and  O_23
    5  A    between atoms: C_6  and  O_8
    6  A    between atoms: C_6  and  N_31
    7  A    between atoms: C_7  and  O_27
    8  A    between atoms: C_7  and  N_31
    9  A    between atoms: O_8  and  C_19
   10  A    between atoms: C_10  and  C_26
   11  A    between atoms: C_10  and  O_27
   12  A    between atoms: C_14  and  N_31
                            x       y       z     vdW  Elec       q    Type
                         _______ _______ _______ _____ _____    ______ ____

>  <TORSDO>
F 12

$$$$
=
 OpenBabel10272414513D

 37 40  0  0  1  0  0  0  0  0999 V2000
  185.1690  176.0410  136.8060 C   0  0  1  0  0  0  0  0  0  0  0  0
  185.7010  177.4870  137.0070 C   0  0  2  0  0  3  0  0  0  0  0  0
  189.1310  176.4980  135.8240 N   0  0  0  0  0  1  0  0  0  0  0  0
  187.0570  177.6790  136.3120 C   0  0  2  0  0  3  0  0  0  0  0  0
  188.1680  176.7610  136.8810 C   0  0  1  0  0  0  0  0  0  0  0  0
  186.3250  175.0270  136.6030 C   0  0  0  0  0  2  0  0  0  0  0  0
  187.5870  175.4210  137.3670 C   0  0  0  0  0  2  0  0  0  0  0  0
  187.4430  179.1500  136.1950 C   0  0  0  0  0  1  0  0  0  0  0  0
  184.4360  175.6620  137.9340 O   0  0  0  0  0  1  0  0  0  0  0  0
  184.2060  176.1050  135.5900 C   0  0  2  0  0  3  0  0  0  0  0  0
  183.0780  175.1190  135.4910 C   0  0  1  0  0  3  0  0  0  0  0  0
  184.2830  174.9530  134.7790 O   0  0  0  0  0  0  0  0  0  0  0  0
  182.9820  174.0780  136.6040 C   0  0  1  0  0  3  0  0  0  0  0  0
  181.7240  174.1410  137.2050 O   0  0  0  0  0  1  0  0  0  0  0  0
  182.3360  170.8070  134.6180 C   0  0  0  0  0  2  0  0  0  0  0  0
  184.4630  171.9550  136.5540 C   0  0  0  0  0  2  0  0  0  0  0  0
  182.2800  172.1520  135.2950 C   0  0  0  0  0  3  0  0  0  0  0  0
  185.0960  171.1040  135.4630 C   0  0  0  0  0  2  0  0  0  0  0  0
  182.3900  168.3760  135.1040 C   0  0  0  0  0  1  0  0  0  0  0  0
  184.4590  169.7120  135.4080 C   0  0  0  0  0  2  0  0  0  0  0  0
  182.9320  169.7290  135.5110 C   0  0  1  0  0  3  0  0  0  0  0  0
  183.2310  172.6960  136.0800 C   0  0  0  0  0  0  0  0  0  0  0  0
  184.7980  178.7730  138.5720 C   0  0  0  0  0  1  0  0  0  0  0  0
  185.7980  177.8210  138.3640 O   0  0  0  0  0  0  0  0  0  0  0  0
  188.8810  177.4280  138.0620 C   0  0  0  0  0  2  0  0  0  0  0  0
  188.6260  176.7480  139.2580 O   0  0  0  0  0  0  0  0  0  0  0  0
  189.1520  177.5750  140.2520 C   0  0  0  0  0  2  0  0  0  0  0  0
  188.2620  177.5820  141.4100 N   0  0  0  0  0  0  0  0  0  0  0  0
  189.5750  176.0510  142.9650 C   0  0  0  0  0  2  0  0  0  0  0  0
  189.0230  177.4320  142.6580 C   0  0  2  0  0  0  0  0  0  0  0  0
  188.6460  176.9170  145.0350 N   0  0  0  0  0  1  0  0  0  0  0  0
  188.3150  176.5390  143.6700 C   0  0  2  0  0  3  0  0  0  0  0  0
  189.6560  178.5660  143.2120 O   0  0  0  0  0  0  0  0  0  0  0  0
  191.7740  178.8220  144.2680 C   0  0  0  0  0  1  0  0  0  0  0  0
  191.0340  178.4140  143.0110 C   0  0  0  0  0  2  0  0  0  0  0  0
  187.4100  178.7810  141.4250 C   0  0  0  0  0  2  0  0  0  0  0  0
  186.0210  178.5400  142.0130 C   0  0  0  0  0  1  0  0  0  0  0  0
  1  2  1  0  0  0  0
  1  9  1  1  0  0  0
  2 24  1  1  0  0  0
  4  8  1  1  0  0  0
  4  5  1  0  0  0  0
  4  2  1  0  0  0  0
  5  3  1  6  0  0  0
  5  7  1  0  0  0  0
  5 25  1  0  0  0  0
  6  1  1  0  0  0  0
  6  7  1  0  0  0  0
 10 12  1  6  0  0  0
 10  1  1  0  0  0  0
 11 10  1  0  0  0  0
 11 13  1  1  0  0  0
 12 11  1  0  0  0  0
 13 14  1  6  0  0  0
 15 17  1  0  0  0  0
 15 21  1  0  0  0  0
 17 22  2  0  0  0  0
 18 16  1  0  0  0  0
 20 18  1  0  0  0  0
 20 21  1  0  0  0  0
 21 19  1  6  0  0  0
 22 16  1  0  0  0  0
 22 13  1  0  0  0  0
 24 23  1  0  0  0  0
 25 26  1  0  0  0  0
 26 27  1  0  0  0  0
 27 28  1  0  0  0  0
 28 36  1  0  0  0  0
 28 30  1  0  0  0  0
 29 32  1  0  0  0  0
 30 29  1  0  0  0  0
 30 33  1  1  0  0  0
 30 32  1  0  0  0  0
 32 31  1  1  0  0  0
 35 33  1  0  0  0  0
 35 34  1  0  0  0  0
 36 37  1  0  0  0  0
M  END
>  <MODEL>
6

>  <REMARK>
 VINA RESULT:      -5.3      4.317      7.364
  Name = 
  12 active torsions:
  status: ('A' for Active; 'I' for Inactive)
    1  A    between atoms: C_1  and  C_20
    2  A    between atoms: C_3  and  C_21
    3  A    between atoms: C_3  and  C_30
    4  A    between atoms: C_5  and  O_23
    5  A    between atoms: C_6  and  O_8
    6  A    between atoms: C_6  and  N_31
    7  A    between atoms: C_7  and  O_27
    8  A    between atoms: C_7  and  N_31
    9  A    between atoms: O_8  and  C_19
   10  A    between atoms: C_10  and  C_26
   11  A    between atoms: C_10  and  O_27
   12  A    between atoms: C_14  and  N_31
                            x       y       z     vdW  Elec       q    Type
                         _______ _______ _______ _____ _____    ______ ____

>  <TORSDO>
F 12

$$$$
=
 OpenBabel10272414513D

 37 40  0  0  1  0  0  0  0  0999 V2000
  187.1600  177.9800  137.4480 C   0  0  1  0  0  0  0  0  0  0  0  0
  187.9620  177.1030  136.4470 C   0  0  2  0  0  3  0  0  0  0  0  0
  190.0670  175.6820  139.2210 N   0  0  0  0  0  1  0  0  0  0  0  0
  188.7790  176.0310  137.1820 C   0  0  2  0  0  3  0  0  0  0  0  0
  189.8450  176.6260  138.1360 C   0  0  1  0  0  0  0  0  0  0  0  0
  187.8510  178.0460  138.8340 C   0  0  0  0  0  2  0  0  0  0  0  0
  189.3720  177.9640  138.7320 C   0  0  0  0  0  2  0  0  0  0  0  0
  189.2990  174.9520  136.2380 C   0  0  0  0  0  1  0  0  0  0  0  0
  187.0560  179.2780  136.9380 O   0  0  0  0  0  1  0  0  0  0  0  0
  185.7380  177.3600  137.5140 C   0  0  2  0  0  3  0  0  0  0  0  0
  184.7150  177.9590  138.4360 C   0  0  1  0  0  3  0  0  0  0  0  0
  185.4490  176.8060  138.7800 O   0  0  0  0  0  0  0  0  0  0  0  0
  185.1740  179.1420  139.2870 C   0  0  1  0  0  3  0  0  0  0  0  0
  184.4570  180.2860  138.9340 O   0  0  0  0  0  1  0  0  0  0  0  0
  183.3550  178.2210  142.5890 C   0  0  0  0  0  2  0  0  0  0  0  0
  186.2000  179.0170  141.6610 C   0  0  0  0  0  2  0  0  0  0  0  0
  183.7560  178.5840  141.1830 C   0  0  0  0  0  3  0  0  0  0  0  0
  186.2400  177.9730  142.7670 C   0  0  0  0  0  2  0  0  0  0  0  0
  183.2360  179.1460  144.8870 C   0  0  0  0  0  1  0  0  0  0  0  0
  185.4360  178.4300  143.9880 C   0  0  0  0  0  2  0  0  0  0  0  0
  184.0820  179.0520  143.6360 C   0  0  1  0  0  3  0  0  0  0  0  0
  185.0020  178.8590  140.7490 C   0  0  0  0  0  0  0  0  0  0  0  0
  188.2610  177.7560  134.3480 C   0  0  0  0  0  1  0  0  0  0  0  0
  188.7970  177.8780  135.6320 O   0  0  0  0  0  0  0  0  0  0  0  0
  191.1660  176.8720  137.4000 C   0  0  0  0  0  2  0  0  0  0  0  0
  191.9230  175.6990  137.3130 O   0  0  0  0  0  0  0  0  0  0  0  0
  193.1090  175.9950  137.9880 C   0  0  0  0  0  2  0  0  0  0  0  0
  194.2430  175.8540  137.0780 N   0  0  0  0  0  0  0  0  0  0  0  0
  195.1040  173.9490  138.5330 C   0  0  0  0  0  2  0  0  0  0  0  0
  194.8070  174.5000  137.1490 C   0  0  2  0  0  0  0  0  0  0  0  0
  196.9980  173.3770  137.1250 N   0  0  0  0  0  1  0  0  0  0  0  0
  196.2400  174.4910  137.6720 C   0  0  2  0  0  3  0  0  0  0  0  0
  194.5620  173.6010  136.0880 O   0  0  0  0  0  0  0  0  0  0  0  0
  192.3940  172.7700  135.5650 C   0  0  0  0  0  1  0  0  0  0  0  0
  193.5690  172.7110  136.5180 C   0  0  0  0  0  2  0  0  0  0  0  0
  193.8770  176.2280  135.7030 C   0  0  0  0  0  2  0  0  0  0  0  0
  194.9900  176.9500  134.9460 C   0  0  0  0  0  1  0  0  0  0  0  0
  1  9  1  6  0  0  0
  1 10  1  0  0  0  0
  1  6  1  0  0  0  0
  2 24  1  1  0  0  0
  2  4  1  0  0  0  0
  2  1  1  0  0  0  0
  4  8  1  6  0  0  0
  4  5  1  0  0  0  0
  5  7  1  0  0  0  0
  5  3  1  1  0  0  0
  7  6  1  0  0  0  0
 10 11  1  0  0  0  0
 10 12  1  1  0  0  0
 11 12  1  0  0  0  0
 11 13  1  1  0  0  0
 13 14  1  6  0  0  0
 13 22  1  0  0  0  0
 15 21  1  0  0  0  0
 16 18  1  0  0  0  0
 17 15  1  0  0  0  0
 18 20  1  0  0  0  0
 21 20  1  0  0  0  0
 21 19  1  1  0  0  0
 22 17  2  0  0  0  0
 22 16  1  0  0  0  0
 23 24  1  0  0  0  0
 25  5  1  0  0  0  0
 26 25  1  0  0  0  0
 26 27  1  0  0  0  0
 28 30  1  0  0  0  0
 28 27  1  0  0  0  0
 30 33  1  6  0  0  0
 30 32  1  0  0  0  0
 30 29  1  0  0  0  0
 32 31  1  6  0  0  0
 32 29  1  0  0  0  0
 33 35  1  0  0  0  0
 34 35  1  0  0  0  0
 36 28  1  0  0  0  0
 37 36  1  0  0  0  0
M  END
>  <MODEL>
7

>  <REMARK>
 VINA RESULT:      -5.3      2.926      9.060
  Name = 
  12 active torsions:
  status: ('A' for Active; 'I' for Inactive)
    1  A    between atoms: C_1  and  C_20
    2  A    between atoms: C_3  and  C_21
    3  A    between atoms: C_3  and  C_30
    4  A    between atoms: C_5  and  O_23
    5  A    between atoms: C_6  and  O_8
    6  A    between atoms: C_6  and  N_31
    7  A    between atoms: C_7  and  O_27
    8  A    between atoms: C_7  and  N_31
    9  A    between atoms: O_8  and  C_19
   10  A    between atoms: C_10  and  C_26
   11  A    between atoms: C_10  and  O_27
   12  A    between atoms: C_14  and  N_31
                            x       y       z     vdW  Elec       q    Type
                         _______ _______ _______ _____ _____    ______ ____

>  <TORSDO>
F 12

$$$$
=
 OpenBabel10272414513D

 37 40  0  0  1  0  0  0  0  0999 V2000
  190.1050  175.4660  136.7790 C   0  0  1  0  0  0  0  0  0  0  0  0
  189.1180  176.6300  137.0760 C   0  0  2  0  0  3  0  0  0  0  0  0
  191.4140  178.0400  139.7000 N   0  0  0  0  0  1  0  0  0  0  0  0
  189.7950  177.7300  137.9050 C   0  0  2  0  0  3  0  0  0  0  0  0
  190.2680  177.2390  139.2970 C   0  0  1  0  0  0  0  0  0  0  0  0
  191.1960  175.3440  137.8730 C   0  0  0  0  0  2  0  0  0  0  0  0
  190.6880  175.7600  139.2520 C   0  0  0  0  0  2  0  0  0  0  0  0
  188.9830  179.0200  137.9260 C   0  0  0  0  0  1  0  0  0  0  0  0
  189.3920  174.2640  136.7230 O   0  0  0  0  0  1  0  0  0  0  0  0
  190.6940  175.7560  135.3710 C   0  0  2  0  0  3  0  0  0  0  0  0
  191.7150  174.8180  134.7930 C   0  0  1  0  0  3  0  0  0  0  0  0
  192.0780  176.0310  135.4130 O   0  0  0  0  0  0  0  0  0  0  0  0
  192.1320  173.6390  135.6700 C   0  0  1  0  0  3  0  0  0  0  0  0
  191.6490  172.4490  135.1250 O   0  0  0  0  0  1  0  0  0  0  0  0
  195.5750  173.4610  137.4520 C   0  0  0  0  0  2  0  0  0  0  0  0
  194.4720  173.6210  134.5630 C   0  0  0  0  0  2  0  0  0  0  0  0
  194.1230  173.5740  137.0660 C   0  0  0  0  0  3  0  0  0  0  0  0
  195.7010  172.7270  134.6480 C   0  0  0  0  0  2  0  0  0  0  0  0
  197.7390  174.6610  137.2930 C   0  0  0  0  0  1  0  0  0  0  0  0
  196.8760  173.4640  135.2980 C   0  0  0  0  0  2  0  0  0  0  0  0
  196.4860  174.2690  136.5400 C   0  0  1  0  0  3  0  0  0  0  0  0
  193.6220  173.5700  135.8140 C   0  0  0  0  0  0  0  0  0  0  0  0
  186.9250  176.4260  136.8210 C   0  0  0  0  0  1  0  0  0  0  0  0
  187.9610  176.1760  137.7220 O   0  0  0  0  0  0  0  0  0  0  0  0
  189.1550  177.3880  140.3400 C   0  0  0  0  0  2  0  0  0  0  0  0
  189.4050  176.5940  141.4640 O   0  0  0  0  0  0  0  0  0  0  0  0
  189.1610  177.4360  142.5510 C   0  0  0  0  0  2  0  0  0  0  0  0
  188.8540  176.6370  143.7350 N   0  0  0  0  0  0  0  0  0  0  0  0
  190.3920  178.4110  144.7220 C   0  0  0  0  0  2  0  0  0  0  0  0
  189.5560  177.1580  144.9150 C   0  0  2  0  0  0  0  0  0  0  0  0
  191.7020  176.8930  146.0910 N   0  0  0  0  0  1  0  0  0  0  0  0
  191.0710  177.0480  144.7900 C   0  0  2  0  0  3  0  0  0  0  0  0
  189.0470  176.8610  146.1990 O   0  0  0  0  0  0  0  0  0  0  0  0
  188.7880  178.1190  148.2020 C   0  0  0  0  0  1  0  0  0  0  0  0
  188.5050  178.0440  146.7160 C   0  0  0  0  0  2  0  0  0  0  0  0
  187.4030  176.5380  143.9540 C   0  0  0  0  0  2  0  0  0  0  0  0
  186.6150  177.7200  143.3920 C   0  0  0  0  0  1  0  0  0  0  0  0
  1  9  1  6  0  0  0
  1  2  1  0  0  0  0
  1  6  1  0  0  0  0
  2 24  1  1  0  0  0
  2  4  1  0  0  0  0
  4  8  1  1  0  0  0
  4  5  1  0  0  0  0
  5  3  1  1  0  0  0
  5 25  1  0  0  0  0
  6  7  1  0  0  0  0
  7  5  1  0  0  0  0
 10 12  1  1  0  0  0
 10  1  1  0  0  0  0
 11 10  1  0  0  0  0
 11 12  1  0  0  0  0
 11 13  1  1  0  0  0
 13 14  1  6  0  0  0
 13 22  1  0  0  0  0
 16 18  1  0  0  0  0
 16 22  1  0  0  0  0
 17 15  1  0  0  0  0
 18 20  1  0  0  0  0
 20 21  1  0  0  0  0
 21 19  1  1  0  0  0
 21 15  1  0  0  0  0
 22 17  2  0  0  0  0
 23 24  1  0  0  0  0
 25 26  1  0  0  0  0
 26 27  1  0  0  0  0
 27 28  1  0  0  0  0
 28 36  1  0  0  0  0
 28 30  1  0  0  0  0
 29 32  1  0  0  0  0
 29 30  1  0  0  0  0
 30 33  1  1  0  0  0
 32 30  1  0  0  0  0
 32 31  1  1  0  0  0
 33 35  1  0  0  0  0
 35 34  1  0  0  0  0
 37 36  1  0  0  0  0
M  END
>  <MODEL>
8

>  <REMARK>
 VINA RESULT:      -5.3      1.930      2.387
  Name = 
  12 active torsions:
  status: ('A' for Active; 'I' for Inactive)
    1  A    between atoms: C_1  and  C_20
    2  A    between atoms: C_3  and  C_21
    3  A    between atoms: C_3  and  C_30
    4  A    between atoms: C_5  and  O_23
    5  A    between atoms: C_6  and  O_8
    6  A    between atoms: C_6  and  N_31
    7  A    between atoms: C_7  and  O_27
    8  A    between atoms: C_7  and  N_31
    9  A    between atoms: O_8  and  C_19
   10  A    between atoms: C_10  and  C_26
   11  A    between atoms: C_10  and  O_27
   12  A    between atoms: C_14  and  N_31
                            x       y       z     vdW  Elec       q    Type
                         _______ _______ _______ _____ _____    ______ ____

>  <TORSDO>
F 12

$$$$
=
 OpenBabel10272414513D

 37 40  0  0  1  0  0  0  0  0999 V2000
  183.6610  179.0080  140.2270 C   0  0  1  0  0  0  0  0  0  0  0  0
  182.2150  179.1290  139.6710 C   0  0  2  0  0  3  0  0  0  0  0  0
  181.8970  175.3910  139.4080 N   0  0  0  0  0  1  0  0  0  0  0  0
  181.4930  177.7750  139.7100 C   0  0  2  0  0  3  0  0  0  0  0  0
  182.1730  176.6960  138.8290 C   0  0  1  0  0  0  0  0  0  0  0  0
  184.2340  177.5800  140.0340 C   0  0  0  0  0  2  0  0  0  0  0  0
  183.6970  176.9020  138.7760 C   0  0  0  0  0  2  0  0  0  0  0  0
  179.9900  177.9150  139.4990 C   0  0  0  0  0  1  0  0  0  0  0  0
  184.4870  179.9150  139.5560 O   0  0  0  0  0  1  0  0  0  0  0  0
  183.5800  179.4270  141.7200 C   0  0  2  0  0  3  0  0  0  0  0  0
  184.7740  179.2220  142.6090 C   0  0  1  0  0  3  0  0  0  0  0  0
  183.6870  178.3250  142.5960 O   0  0  0  0  0  0  0  0  0  0  0  0
  185.9960  178.5690  141.9680 C   0  0  1  0  0  3  0  0  0  0  0  0
  186.7000  179.5140  141.2190 O   0  0  0  0  0  1  0  0  0  0  0  0
  187.1410  177.3230  145.4600 C   0  0  0  0  0  2  0  0  0  0  0  0
  188.2910  177.5460  142.5940 C   0  0  0  0  0  2  0  0  0  0  0  0
  186.4390  177.9260  144.2720 C   0  0  0  0  0  3  0  0  0  0  0  0
  188.7530  176.2740  143.2880 C   0  0  0  0  0  2  0  0  0  0  0  0
  189.1470  177.5970  146.8920 C   0  0  0  0  0  1  0  0  0  0  0  0
  189.4030  176.5870  144.6400 C   0  0  0  0  0  2  0  0  0  0  0  0
  188.6330  177.6180  145.4680 C   0  0  1  0  0  3  0  0  0  0  0  0
  186.8950  177.9640  143.0040 C   0  0  0  0  0  0  0  0  0  0  0  0
  181.7370  180.9590  138.5120 C   0  0  0  0  0  1  0  0  0  0  0  0
  182.2020  179.6500  138.3700 O   0  0  0  0  0  0  0  0  0  0  0  0
  181.6350  176.7380  137.3950 C   0  0  0  0  0  2  0  0  0  0  0  0
  181.0030  175.5380  137.0560 O   0  0  0  0  0  0  0  0  0  0  0  0
  181.7110  175.0680  135.9480 C   0  0  0  0  0  2  0  0  0  0  0  0
  181.5990  173.6130  135.8720 N   0  0  0  0  0  0  0  0  0  0  0  0
  183.8870  173.4360  134.7670 C   0  0  0  0  0  2  0  0  0  0  0  0
  182.9270  172.9850  135.8540 C   0  0  2  0  0  0  0  0  0  0  0  0
  184.0580  171.0180  134.9000 N   0  0  0  0  0  1  0  0  0  0  0  0
  183.1440  172.1130  134.6210 C   0  0  2  0  0  3  0  0  0  0  0  0
  183.4460  172.4500  137.0530 O   0  0  0  0  0  0  0  0  0  0  0  0
  185.6980  172.8640  137.7030 C   0  0  0  0  0  1  0  0  0  0  0  0
  184.2920  173.4190  137.6080 C   0  0  0  0  0  2  0  0  0  0  0  0
  180.7530  173.0830  136.9520 C   0  0  0  0  0  2  0  0  0  0  0  0
  180.2540  171.6620  136.7000 C   0  0  0  0  0  1  0  0  0  0  0  0
  1  9  1  6  0  0  0
  1 10  1  0  0  0  0
  2 24  1  6  0  0  0
  2  4  1  0  0  0  0
  2  1  1  0  0  0  0
  4  8  1  6  0  0  0
  5  3  1  1  0  0  0
  5  4  1  0  0  0  0
  6  1  1  0  0  0  0
  7  5  1  0  0  0  0
  7  6  1  0  0  0  0
 10 12  1  1  0  0  0
 10 11  1  0  0  0  0
 11 13  1  6  0  0  0
 12 11  1  0  0  0  0
 13 14  1  1  0  0  0
 13 22  1  0  0  0  0
 15 21  1  0  0  0  0
 16 22  1  0  0  0  0
 16 18  1  0  0  0  0
 17 15  1  0  0  0  0
 18 20  1  0  0  0  0
 20 21  1  0  0  0  0
 21 19  1  1  0  0  0
 22 17  2  0  0  0  0
 24 23  1  0  0  0  0
 25  5  1  0  0  0  0
 26 25  1  0  0  0  0
 27 26  1  0  0  0  0
 28 27  1  0  0  0  0
 28 36  1  0  0  0  0
 29 30  1  0  0  0  0
 30 28  1  0  0  0  0
 30 33  1  1  0  0  0
 32 29  1  0  0  0  0
 32 31  1  1  0  0  0
 32 30  1  0  0  0  0
 33 35  1  0  0  0  0
 35 34  1  0  0  0  0
 37 36  1  0  0  0  0
M  END
>  <MODEL>
9

>  <REMARK>
 VINA RESULT:      -5.2      6.877     10.117
  Name = 
  12 active torsions:
  status: ('A' for Active; 'I' for Inactive)
    1  A    between atoms: C_1  and  C_20
    2  A    between atoms: C_3  and  C_21
    3  A    between atoms: C_3  and  C_30
    4  A    between atoms: C_5  and  O_23
    5  A    between atoms: C_6  and  O_8
    6  A    between atoms: C_6  and  N_31
    7  A    between atoms: C_7  and  O_27
    8  A    between atoms: C_7  and  N_31
    9  A    between atoms: O_8  and  C_19
   10  A    between atoms: C_10  and  C_26
   11  A    between atoms: C_10  and  O_27
   12  A    between atoms: C_14  and  N_31
                            x       y       z     vdW  Elec       q    Type
                         _______ _______ _______ _____ _____    ______ ____

>  <TORSDO>
F 12

$$$$
