=
 OpenBabel10272400503D

 25 29  0  0  0  0  0  0  0  0999 V2000
  187.2150  177.9760  145.5050 C   0  0  0  0  0  0  0  0  0  0  0  0
  188.5250  177.6740  145.0900 C   0  0  0  0  0  0  0  0  0  0  0  0
  187.9050  177.8070  147.8260 C   0  0  0  0  0  3  0  0  0  0  0  0
  186.0780  178.2410  144.7170 C   0  0  0  0  0  0  0  0  0  0  0  0
  183.6260  178.8130  143.5020 C   0  0  0  0  0  3  0  0  0  0  0  0
  189.1710  177.5170  147.4130 N   0  0  0  0  0  0  0  0  0  0  0  0
  184.9420  178.5000  145.4820 C   0  0  0  0  0  0  0  0  0  0  0  0
  183.7100  178.7880  144.9020 C   0  0  0  0  0  3  0  0  0  0  0  0
  190.8210  177.1410  145.7140 C   0  0  0  0  0  0  0  0  0  0  0  0
  191.7960  176.9120  146.6780 O   0  0  0  0  0  1  0  0  0  0  0  0
  188.8870  177.5960  143.7390 C   0  0  0  0  0  3  0  0  0  0  0  0
  184.7630  178.5520  142.7160 C   0  0  0  0  0  3  0  0  0  0  0  0
  186.9280  178.0370  146.8650 C   0  0  0  0  0  0  0  0  0  0  0  0
  185.3040  178.4110  147.1250 S   0  0  0  0  0  0  0  0  0  0  0  0
  191.1620  177.0680  144.3610 C   0  0  0  0  0  3  0  0  0  0  0  0
  185.9970  178.2650  143.3200 C   0  0  0  0  0  3  0  0  0  0  0  0
  190.2030  177.2930  143.3610 C   0  0  0  0  0  0  0  0  0  0  0  0
  189.5060  177.4440  146.0900 C   0  0  0  0  0  0  0  0  0  0  0  0
  192.2670  177.2430  140.1780 C   0  0  0  0  0  0  0  0  0  0  0  0
  190.5740  177.2120  141.9280 C   0  0  0  0  0  0  0  0  0  0  0  0
  191.9170  177.3190  141.5290 C   0  0  0  0  0  3  0  0  0  0  0  0
  193.6300  177.3530  139.7890 N   0  0  0  0  0  1  0  0  0  0  0  0
  189.5880  177.0290  140.9430 C   0  0  0  0  0  3  0  0  0  0  0  0
  191.2770  177.0610  139.2100 C   0  0  0  0  0  3  0  0  0  0  0  0
  189.9380  176.9530  139.5920 C   0  0  0  0  0  3  0  0  0  0  0  0
  1 13  1  0  0  0  0
  2  1  2  0  0  0  0
  2 18  1  0  0  0  0
  4  7  1  0  0  0  0
  4  1  1  0  0  0  0
  5  8  1  0  0  0  0
  6  3  1  0  0  0  0
  7 14  1  0  0  0  0
  8  7  2  0  0  0  0
  9 18  1  0  0  0  0
  9 10  1  0  0  0  0
 11  2  1  0  0  0  0
 12 16  1  0  0  0  0
 12  5  2  0  0  0  0
 13 14  1  0  0  0  0
 13  3  2  0  0  0  0
 15  9  2  0  0  0  0
 16  4  2  0  0  0  0
 17 11  2  0  0  0  0
 17 15  1  0  0  0  0
 18  6  2  0  0  0  0
 19 21  1  0  0  0  0
 20 17  1  0  0  0  0
 21 20  2  0  0  0  0
 22 19  1  0  0  0  0
 23 20  1  0  0  0  0
 24 25  1  0  0  0  0
 24 19  2  0  0  0  0
 25 23  2  0  0  0  0
M  END
>  <MODEL>
1

>  <REMARK>
 VINA RESULT:     -11.2      0.000      0.000
  Name = 
  1 active torsions:
  status: ('A' for Active; 'I' for Inactive)
    1  A    between atoms: C_6  and  C_23
                            x       y       z     vdW  Elec       q    Type
                         _______ _______ _______ _____ _____    ______ ____

>  <TORSDO>
F 1

$$$$
=
 OpenBabel10272400503D

 25 29  0  0  0  0  0  0  0  0999 V2000
  187.1980  177.9810  145.5140 C   0  0  0  0  0  0  0  0  0  0  0  0
  188.5120  177.6830  145.1060 C   0  0  0  0  0  0  0  0  0  0  0  0
  187.8710  177.7950  147.8380 C   0  0  0  0  0  3  0  0  0  0  0  0
  186.0670  178.2510  144.7190 C   0  0  0  0  0  0  0  0  0  0  0  0
  183.6240  178.8300  143.4910 C   0  0  0  0  0  3  0  0  0  0  0  0
  189.1400  177.5090  147.4330 N   0  0  0  0  0  0  0  0  0  0  0  0
  184.9250  178.5040  145.4780 C   0  0  0  0  0  0  0  0  0  0  0  0
  183.6970  178.7940  144.8920 C   0  0  0  0  0  3  0  0  0  0  0  0
  190.8040  177.1480  145.7430 C   0  0  0  0  0  0  0  0  0  0  0  0
  191.7720  176.9120  146.7130 O   0  0  0  0  0  1  0  0  0  0  0  0
  188.8840  177.6160  143.7580 C   0  0  0  0  0  3  0  0  0  0  0  0
  184.7670  178.5770  142.7110 C   0  0  0  0  0  3  0  0  0  0  0  0
  186.9010  178.0310  146.8730 C   0  0  0  0  0  0  0  0  0  0  0  0
  185.2750  178.4010  147.1230 S   0  0  0  0  0  0  0  0  0  0  0  0
  191.1550  177.0850  144.3920 C   0  0  0  0  0  3  0  0  0  0  0  0
  185.9970  178.2860  143.3230 C   0  0  0  0  0  3  0  0  0  0  0  0
  190.2030  177.3170  143.3870 C   0  0  0  0  0  0  0  0  0  0  0  0
  189.4850  177.4460  146.1120 C   0  0  0  0  0  0  0  0  0  0  0  0
  189.9720  176.9640  139.6160 C   0  0  0  0  0  0  0  0  0  0  0  0
  190.5840  177.2480  141.9560 C   0  0  0  0  0  0  0  0  0  0  0  0
  189.6120  177.0290  140.9660 C   0  0  0  0  0  3  0  0  0  0  0  0
  188.9770  176.7410  138.6250 N   0  0  0  0  0  1  0  0  0  0  0  0
  191.9260  177.4000  141.5650 C   0  0  0  0  0  3  0  0  0  0  0  0
  191.3080  177.1170  139.2420 C   0  0  0  0  0  3  0  0  0  0  0  0
  192.2860  177.3350  140.2160 C   0  0  0  0  0  3  0  0  0  0  0  0
  1 13  1  0  0  0  0
  2  1  2  0  0  0  0
  2 18  1  0  0  0  0
  4  7  1  0  0  0  0
  4  1  1  0  0  0  0
  5  8  1  0  0  0  0
  6  3  1  0  0  0  0
  7 14  1  0  0  0  0
  8  7  2  0  0  0  0
  9 18  1  0  0  0  0
  9 10  1  0  0  0  0
 11  2  1  0  0  0  0
 12 16  1  0  0  0  0
 12  5  2  0  0  0  0
 13 14  1  0  0  0  0
 13  3  2  0  0  0  0
 15  9  2  0  0  0  0
 16  4  2  0  0  0  0
 17 11  2  0  0  0  0
 17 15  1  0  0  0  0
 18  6  2  0  0  0  0
 19 21  1  0  0  0  0
 20 17  1  0  0  0  0
 21 20  2  0  0  0  0
 22 19  1  0  0  0  0
 23 20  1  0  0  0  0
 24 19  2  0  0  0  0
 24 25  1  0  0  0  0
 25 23  2  0  0  0  0
M  END
>  <MODEL>
2

>  <REMARK>
 VINA RESULT:     -11.0      0.968      1.369
  Name = 
  1 active torsions:
  status: ('A' for Active; 'I' for Inactive)
    1  A    between atoms: C_6  and  C_23
                            x       y       z     vdW  Elec       q    Type
                         _______ _______ _______ _____ _____    ______ ____

>  <TORSDO>
F 1

$$$$
=
 OpenBabel10272400503D

 25 29  0  0  0  0  0  0  0  0999 V2000
  186.8870  177.9730  144.9520 C   0  0  0  0  0  0  0  0  0  0  0  0
  188.1060  177.6680  144.3170 C   0  0  0  0  0  0  0  0  0  0  0  0
  187.9240  177.6330  147.1200 C   0  0  0  0  0  3  0  0  0  0  0  0
  185.6520  178.3190  144.3710 C   0  0  0  0  0  0  0  0  0  0  0  0
  183.0620  179.0300  143.5970 C   0  0  0  0  0  3  0  0  0  0  0  0
  189.1000  177.3390  146.4950 N   0  0  0  0  0  0  0  0  0  0  0  0
  184.6580  178.5540  145.3210 C   0  0  0  0  0  0  0  0  0  0  0  0
  183.3610  178.9100  144.9620 C   0  0  0  0  0  3  0  0  0  0  0  0
  190.4510  177.0380  144.5360 C   0  0  0  0  0  0  0  0  0  0  0  0
  191.5560  176.7210  145.3190 O   0  0  0  0  0  1  0  0  0  0  0  0
  188.2500  177.6720  142.9240 C   0  0  0  0  0  3  0  0  0  0  0  0
  184.0530  178.7960  142.6260 C   0  0  0  0  0  3  0  0  0  0  0  0
  186.8180  177.9500  146.3420 C   0  0  0  0  0  0  0  0  0  0  0  0
  185.2690  178.3460  146.8770 S   0  0  0  0  0  0  0  0  0  0  0  0
  190.5740  177.0470  143.1450 C   0  0  0  0  0  3  0  0  0  0  0  0
  185.3550  178.4380  143.0090 C   0  0  0  0  0  3  0  0  0  0  0  0
  189.4790  177.3620  142.3250 C   0  0  0  0  0  0  0  0  0  0  0  0
  189.2220  177.3470  145.1340 C   0  0  0  0  0  0  0  0  0  0  0  0
  188.8600  178.1110  138.6570 C   0  0  0  0  0  0  0  0  0  0  0  0
  189.6190  177.3690  140.8490 C   0  0  0  0  0  0  0  0  0  0  0  0
  188.7280  178.1040  140.0490 C   0  0  0  0  0  3  0  0  0  0  0  0
  187.9500  178.8590  137.8600 N   0  0  0  0  0  1  0  0  0  0  0  0
  190.6450  176.6390  140.2240 C   0  0  0  0  0  3  0  0  0  0  0  0
  189.8840  177.3810  138.0500 C   0  0  0  0  0  3  0  0  0  0  0  0
  190.7770  176.6460  138.8330 C   0  0  0  0  0  3  0  0  0  0  0  0
  1 13  1  0  0  0  0
  2  1  2  0  0  0  0
  2 18  1  0  0  0  0
  4  1  1  0  0  0  0
  4  7  1  0  0  0  0
  5  8  1  0  0  0  0
  6  3  1  0  0  0  0
  7 14  1  0  0  0  0
  8  7  2  0  0  0  0
  9 18  1  0  0  0  0
  9 10  1  0  0  0  0
 11  2  1  0  0  0  0
 12 16  1  0  0  0  0
 12  5  2  0  0  0  0
 13 14  1  0  0  0  0
 13  3  2  0  0  0  0
 15  9  2  0  0  0  0
 16  4  2  0  0  0  0
 17 11  2  0  0  0  0
 17 15  1  0  0  0  0
 18  6  2  0  0  0  0
 19 21  1  0  0  0  0
 20 17  1  0  0  0  0
 21 20  2  0  0  0  0
 22 19  1  0  0  0  0
 23 20  1  0  0  0  0
 24 19  2  0  0  0  0
 24 25  1  0  0  0  0
 25 23  2  0  0  0  0
M  END
>  <MODEL>
3

>  <REMARK>
 VINA RESULT:     -10.9      1.540      1.882
  Name = 
  1 active torsions:
  status: ('A' for Active; 'I' for Inactive)
    1  A    between atoms: C_6  and  C_23
                            x       y       z     vdW  Elec       q    Type
                         _______ _______ _______ _____ _____    ______ ____

>  <TORSDO>
F 1

$$$$
=
 OpenBabel10272400503D

 25 29  0  0  0  0  0  0  0  0999 V2000
  188.9380  177.6910  144.0040 C   0  0  0  0  0  0  0  0  0  0  0  0
  187.9990  177.9610  142.9900 C   0  0  0  0  0  0  0  0  0  0  0  0
  190.7100  177.6090  142.3480 C   0  0  0  0  0  3  0  0  0  0  0  0
  188.7260  177.5580  145.3900 C   0  0  0  0  0  0  0  0  0  0  0  0
  188.7050  177.2290  148.1660 C   0  0  0  0  0  3  0  0  0  0  0  0
  189.7930  177.8710  141.3740 N   0  0  0  0  0  0  0  0  0  0  0  0
  189.9020  177.2880  146.0890 C   0  0  0  0  0  0  0  0  0  0  0  0
  189.9190  177.1200  147.4710 C   0  0  0  0  0  3  0  0  0  0  0  0
  187.5600  178.3140  140.6180 C   0  0  0  0  0  0  0  0  0  0  0  0
  187.9990  178.4030  139.3020 O   0  0  0  0  0  1  0  0  0  0  0  0
  186.6360  178.1450  143.2570 C   0  0  0  0  0  3  0  0  0  0  0  0
  187.5100  177.5010  147.4750 C   0  0  0  0  0  3  0  0  0  0  0  0
  190.2760  177.5200  143.6650 C   0  0  0  0  0  0  0  0  0  0  0  0
  191.2120  177.2080  145.0320 S   0  0  0  0  0  0  0  0  0  0  0  0
  186.2050  178.4950  140.9050 C   0  0  0  0  0  3  0  0  0  0  0  0
  187.5150  177.6670  146.0810 C   0  0  0  0  0  3  0  0  0  0  0  0
  185.7280  178.4120  142.2220 C   0  0  0  0  0  0  0  0  0  0  0  0
  188.4670  178.0470  141.6530 C   0  0  0  0  0  0  0  0  0  0  0  0
  181.9810  178.7880  141.7590 C   0  0  0  0  0  0  0  0  0  0  0  0
  184.2880  178.6050  142.5170 C   0  0  0  0  0  0  0  0  0  0  0  0
  183.3390  178.6070  141.4810 C   0  0  0  0  0  3  0  0  0  0  0  0
  181.0320  178.7890  140.6990 N   0  0  0  0  0  1  0  0  0  0  0  0
  183.8460  178.7890  143.8390 C   0  0  0  0  0  3  0  0  0  0  0  0
  181.5570  178.9700  143.0770 C   0  0  0  0  0  3  0  0  0  0  0  0
  182.4890  178.9700  144.1170 C   0  0  0  0  0  3  0  0  0  0  0  0
  1  4  1  0  0  0  0
  2 11  1  0  0  0  0
  2  1  1  0  0  0  0
  3 13  1  0  0  0  0
  4 16  2  0  0  0  0
  4  7  1  0  0  0  0
  6 18  1  0  0  0  0
  6  3  2  0  0  0  0
  7  8  2  0  0  0  0
  8  5  1  0  0  0  0
  9 15  2  0  0  0  0
  9 18  1  0  0  0  0
 10  9  1  0  0  0  0
 12  5  2  0  0  0  0
 13  1  2  0  0  0  0
 13 14  1  0  0  0  0
 14  7  1  0  0  0  0
 15 17  1  0  0  0  0
 16 12  1  0  0  0  0
 17 20  1  0  0  0  0
 17 11  2  0  0  0  0
 18  2  2  0  0  0  0
 19 24  1  0  0  0  0
 20 23  2  0  0  0  0
 21 19  2  0  0  0  0
 21 20  1  0  0  0  0
 22 19  1  0  0  0  0
 23 25  1  0  0  0  0
 24 25  2  0  0  0  0
M  END
>  <MODEL>
4

>  <REMARK>
 VINA RESULT:     -10.7      3.349      6.768
  Name = 
  1 active torsions:
  status: ('A' for Active; 'I' for Inactive)
    1  A    between atoms: C_6  and  C_23
                            x       y       z     vdW  Elec       q    Type
                         _______ _______ _______ _____ _____    ______ ____

>  <TORSDO>
F 1

$$$$
=
 OpenBabel10272400503D

 25 29  0  0  0  0  0  0  0  0999 V2000
  189.4650  177.4620  143.5500 C   0  0  0  0  0  0  0  0  0  0  0  0
  188.3080  177.6650  144.3250 C   0  0  0  0  0  0  0  0  0  0  0  0
  190.7690  177.1400  145.5720 C   0  0  0  0  0  3  0  0  0  0  0  0
  189.6030  177.4800  142.1490 C   0  0  0  0  0  0  0  0  0  0  0  0
  190.2690  177.4360  139.4340 C   0  0  0  0  0  3  0  0  0  0  0  0
  189.6420  177.3380  146.3130 N   0  0  0  0  0  0  0  0  0  0  0  0
  190.9120  177.2360  141.7350 C   0  0  0  0  0  0  0  0  0  0  0  0
  191.2700  177.2090  140.3900 C   0  0  0  0  0  3  0  0  0  0  0  0
  187.2980  177.7920  146.5400 C   0  0  0  0  0  0  0  0  0  0  0  0
  187.3960  177.7280  147.9260 O   0  0  0  0  0  1  0  0  0  0  0  0
  187.0570  177.9290  143.7530 C   0  0  0  0  0  3  0  0  0  0  0  0
  188.9440  177.6840  139.8350 C   0  0  0  0  0  3  0  0  0  0  0  0
  190.6750  177.2030  144.1870 C   0  0  0  0  0  0  0  0  0  0  0  0
  191.9170  176.9950  143.0660 S   0  0  0  0  0  0  0  0  0  0  0  0
  186.0590  178.0550  145.9510 C   0  0  0  0  0  3  0  0  0  0  0  0
  188.6040  177.7070  141.1970 C   0  0  0  0  0  3  0  0  0  0  0  0
  185.9230  178.1260  144.5550 C   0  0  0  0  0  0  0  0  0  0  0  0
  188.4290  177.5950  145.7370 C   0  0  0  0  0  0  0  0  0  0  0  0
  183.1880  178.5780  141.9650 C   0  0  0  0  0  0  0  0  0  0  0  0
  184.6050  178.4060  143.9390 C   0  0  0  0  0  0  0  0  0  0  0  0
  184.4320  178.3140  142.5470 C   0  0  0  0  0  3  0  0  0  0  0  0
  183.0280  178.4810  140.5550 N   0  0  0  0  0  1  0  0  0  0  0  0
  183.5040  178.7680  144.7350 C   0  0  0  0  0  3  0  0  0  0  0  0
  182.1040  178.9360  142.7690 C   0  0  0  0  0  3  0  0  0  0  0  0
  182.2620  179.0310  144.1530 C   0  0  0  0  0  3  0  0  0  0  0  0
  1 13  1  0  0  0  0
  1  2  2  0  0  0  0
  2 18  1  0  0  0  0
  3  6  1  0  0  0  0
  4  1  1  0  0  0  0
  5 12  2  0  0  0  0
  5  8  1  0  0  0  0
  7  4  1  0  0  0  0
  7 14  1  0  0  0  0
  8  7  2  0  0  0  0
  9 10  1  0  0  0  0
 11  2  1  0  0  0  0
 11 17  2  0  0  0  0
 12 16  1  0  0  0  0
 13  3  2  0  0  0  0
 14 13  1  0  0  0  0
 15  9  2  0  0  0  0
 16  4  2  0  0  0  0
 17 15  1  0  0  0  0
 18  6  2  0  0  0  0
 18  9  1  0  0  0  0
 19 21  2  0  0  0  0
 19 24  1  0  0  0  0
 20 17  1  0  0  0  0
 20 23  2  0  0  0  0
 21 20  1  0  0  0  0
 22 19  1  0  0  0  0
 24 25  2  0  0  0  0
 25 23  1  0  0  0  0
M  END
>  <MODEL>
5

>  <REMARK>
 VINA RESULT:     -10.6      2.765      6.293
  Name = 
  1 active torsions:
  status: ('A' for Active; 'I' for Inactive)
    1  A    between atoms: C_6  and  C_23
                            x       y       z     vdW  Elec       q    Type
                         _______ _______ _______ _____ _____    ______ ____

>  <TORSDO>
F 1

$$$$
=
 OpenBabel10272400503D

 25 29  0  0  0  0  0  0  0  0999 V2000
  185.9890  178.4170  141.9150 C   0  0  0  0  0  0  0  0  0  0  0  0
  187.3510  178.1070  142.0960 C   0  0  0  0  0  0  0  0  0  0  0  0
  186.3350  178.5580  139.5170 C   0  0  0  0  0  3  0  0  0  0  0  0
  184.9770  178.5480  142.8850 C   0  0  0  0  0  0  0  0  0  0  0  0
  182.7210  178.8890  144.5000 C   0  0  0  0  0  3  0  0  0  0  0  0
  187.6520  178.2570  139.7030 N   0  0  0  0  0  0  0  0  0  0  0  0
  183.7380  178.8650  142.3300 C   0  0  0  0  0  0  0  0  0  0  0  0
  182.6000  179.0400  143.1110 C   0  0  0  0  0  3  0  0  0  0  0  0
  189.5370  177.7270  141.0880 C   0  0  0  0  0  0  0  0  0  0  0  0
  190.3640  177.6490  139.9730 O   0  0  0  0  0  1  0  0  0  0  0  0
  187.9060  177.8740  143.3600 C   0  0  0  0  0  3  0  0  0  0  0  0
  183.9640  178.5690  145.0760 C   0  0  0  0  0  3  0  0  0  0  0  0
  185.5060  178.6360  140.6280 C   0  0  0  0  0  0  0  0  0  0  0  0
  183.8580  178.9900  140.6540 S   0  0  0  0  0  0  0  0  0  0  0  0
  190.0730  177.4970  142.3580 C   0  0  0  0  0  3  0  0  0  0  0  0
  185.1010  178.3970  144.2700 C   0  0  0  0  0  3  0  0  0  0  0  0
  189.2680  177.5670  143.5050 C   0  0  0  0  0  0  0  0  0  0  0  0
  188.1770  178.0320  140.9450 C   0  0  0  0  0  0  0  0  0  0  0  0
  189.6710  177.4300  147.2750 C   0  0  0  0  0  0  0  0  0  0  0  0
  189.8440  177.3220  144.8480 C   0  0  0  0  0  0  0  0  0  0  0  0
  189.1270  177.6610  146.0080 C   0  0  0  0  0  3  0  0  0  0  0  0
  188.9340  177.7780  148.4400 N   0  0  0  0  0  1  0  0  0  0  0  0
  191.1200  176.7470  144.9850 C   0  0  0  0  0  3  0  0  0  0  0  0
  190.9390  176.8580  147.3960 C   0  0  0  0  0  3  0  0  0  0  0  0
  191.6630  176.5160  146.2520 C   0  0  0  0  0  3  0  0  0  0  0  0
  1  2  1  0  0  0  0
  1  4  1  0  0  0  0
  2 11  1  0  0  0  0
  3  6  2  0  0  0  0
  3 13  1  0  0  0  0
  4 16  1  0  0  0  0
  5 12  1  0  0  0  0
  6 18  1  0  0  0  0
  7  4  2  0  0  0  0
  7  8  1  0  0  0  0
  8  5  2  0  0  0  0
  9 15  2  0  0  0  0
 10  9  1  0  0  0  0
 11 17  2  0  0  0  0
 13 14  1  0  0  0  0
 13  1  2  0  0  0  0
 14  7  1  0  0  0  0
 15 17  1  0  0  0  0
 16 12  2  0  0  0  0
 17 20  1  0  0  0  0
 18  9  1  0  0  0  0
 18  2  2  0  0  0  0
 19 24  1  0  0  0  0
 19 22  1  0  0  0  0
 20 23  2  0  0  0  0
 20 21  1  0  0  0  0
 21 19  2  0  0  0  0
 23 25  1  0  0  0  0
 25 24  2  0  0  0  0
M  END
>  <MODEL>
6

>  <REMARK>
 VINA RESULT:     -10.6      2.649      5.319
  Name = 
  1 active torsions:
  status: ('A' for Active; 'I' for Inactive)
    1  A    between atoms: C_6  and  C_23
                            x       y       z     vdW  Elec       q    Type
                         _______ _______ _______ _____ _____    ______ ____

>  <TORSDO>
F 1

$$$$
=
 OpenBabel10272400503D

 25 29  0  0  0  0  0  0  0  0999 V2000
  187.2140  177.9550  145.5810 C   0  0  0  0  0  0  0  0  0  0  0  0
  186.3910  178.2600  144.4810 C   0  0  0  0  0  0  0  0  0  0  0  0
  185.3850  178.4510  147.0960 C   0  0  0  0  0  3  0  0  0  0  0  0
  188.5600  177.5390  145.5870 C   0  0  0  0  0  0  0  0  0  0  0  0
  191.1950  176.7050  146.0030 C   0  0  0  0  0  3  0  0  0  0  0  0
  184.5950  178.7440  146.0240 N   0  0  0  0  0  0  0  0  0  0  0  0
  189.0510  177.3280  146.8750 C   0  0  0  0  0  0  0  0  0  0  0  0
  190.3590  176.9130  147.1100 C   0  0  0  0  0  3  0  0  0  0  0  0
  184.2060  178.9730  143.6680 C   0  0  0  0  0  0  0  0  0  0  0  0
  182.8930  179.3680  143.9000 O   0  0  0  0  0  1  0  0  0  0  0  0
  186.8430  178.1810  143.1580 C   0  0  0  0  0  3  0  0  0  0  0  0
  190.7150  176.9140  144.6980 C   0  0  0  0  0  3  0  0  0  0  0  0
  186.6970  178.0560  146.8690 C   0  0  0  0  0  0  0  0  0  0  0  0
  187.8570  177.6450  148.0210 S   0  0  0  0  0  0  0  0  0  0  0  0
  184.6760  178.8870  142.3550 C   0  0  0  0  0  3  0  0  0  0  0  0
  189.3930  177.3320  144.4830 C   0  0  0  0  0  3  0  0  0  0  0  0
  185.9950  178.4920  142.0850 C   0  0  0  0  0  0  0  0  0  0  0  0
  185.0540  178.6610  144.7390 C   0  0  0  0  0  0  0  0  0  0  0  0
  188.3200  178.1810  139.1030 C   0  0  0  0  0  0  0  0  0  0  0  0
  186.4860  178.4040  140.6890 C   0  0  0  0  0  0  0  0  0  0  0  0
  187.8580  178.2640  140.4200 C   0  0  0  0  0  3  0  0  0  0  0  0
  189.7120  178.0380  138.8460 N   0  0  0  0  0  1  0  0  0  0  0  0
  185.5870  178.4620  139.6090 C   0  0  0  0  0  3  0  0  0  0  0  0
  187.4160  178.2390  138.0400 C   0  0  0  0  0  3  0  0  0  0  0  0
  186.0500  178.3790  138.2940 C   0  0  0  0  0  3  0  0  0  0  0  0
  1  4  1  0  0  0  0
  1 13  2  0  0  0  0
  2 18  1  0  0  0  0
  2  1  1  0  0  0  0
  4  7  1  0  0  0  0
  5  8  1  0  0  0  0
  6  3  2  0  0  0  0
  7  8  2  0  0  0  0
  7 14  1  0  0  0  0
  9 10  1  0  0  0  0
  9 18  2  0  0  0  0
 11  2  2  0  0  0  0
 12  5  2  0  0  0  0
 13  3  1  0  0  0  0
 13 14  1  0  0  0  0
 15  9  1  0  0  0  0
 16 12  1  0  0  0  0
 16  4  2  0  0  0  0
 17 15  2  0  0  0  0
 17 11  1  0  0  0  0
 18  6  1  0  0  0  0
 19 21  1  0  0  0  0
 20 17  1  0  0  0  0
 21 20  2  0  0  0  0
 22 19  1  0  0  0  0
 23 20  1  0  0  0  0
 24 25  1  0  0  0  0
 24 19  2  0  0  0  0
 25 23  2  0  0  0  0
M  END
>  <MODEL>
7

>  <REMARK>
 VINA RESULT:     -10.5      2.893      4.981
  Name = 
  1 active torsions:
  status: ('A' for Active; 'I' for Inactive)
    1  A    between atoms: C_6  and  C_23
                            x       y       z     vdW  Elec       q    Type
                         _______ _______ _______ _____ _____    ______ ____

>  <TORSDO>
F 1

$$$$
=
 OpenBabel10272400503D

 25 29  0  0  0  0  0  0  0  0999 V2000
  188.7040  177.5920  144.7690 C   0  0  0  0  0  0  0  0  0  0  0  0
  187.3320  177.9010  144.8360 C   0  0  0  0  0  0  0  0  0  0  0  0
  188.8090  177.5030  147.1920 C   0  0  0  0  0  3  0  0  0  0  0  0
  189.5190  177.4380  143.6310 C   0  0  0  0  0  0  0  0  0  0  0  0
  191.4360  177.0560  141.6320 C   0  0  0  0  0  3  0  0  0  0  0  0
  187.4810  177.8030  147.2460 N   0  0  0  0  0  0  0  0  0  0  0  0
  190.8400  177.1290  143.9530 C   0  0  0  0  0  0  0  0  0  0  0  0
  191.8130  176.9340  142.9780 C   0  0  0  0  0  3  0  0  0  0  0  0
  185.3700  178.3100  146.2250 C   0  0  0  0  0  0  0  0  0  0  0  0
  184.7650  178.4130  147.4720 O   0  0  0  0  0  1  0  0  0  0  0  0
  186.5510  178.1090  143.6930 C   0  0  0  0  0  3  0  0  0  0  0  0
  190.1070  177.3670  141.2900 C   0  0  0  0  0  3  0  0  0  0  0  0
  189.4180  177.3980  145.9480 C   0  0  0  0  0  0  0  0  0  0  0  0
  191.0330  177.0400  145.6250 S   0  0  0  0  0  0  0  0  0  0  0  0
  184.6080  178.5130  145.0720 C   0  0  0  0  0  3  0  0  0  0  0  0
  189.1400  177.5590  142.2900 C   0  0  0  0  0  3  0  0  0  0  0  0
  185.1870  178.4160  143.7970 C   0  0  0  0  0  0  0  0  0  0  0  0
  186.7330  178.0020  146.1190 C   0  0  0  0  0  0  0  0  0  0  0  0
  184.2140  179.1010  140.1940 C   0  0  0  0  0  0  0  0  0  0  0  0
  184.3700  178.6340  142.5790 C   0  0  0  0  0  0  0  0  0  0  0  0
  184.9850  178.8960  141.3430 C   0  0  0  0  0  3  0  0  0  0  0  0
  184.8500  179.3650  138.9500 N   0  0  0  0  0  1  0  0  0  0  0  0
  182.9660  178.5840  142.6400 C   0  0  0  0  0  3  0  0  0  0  0  0
  182.8210  179.0480  140.2690 C   0  0  0  0  0  3  0  0  0  0  0  0
  182.1970  178.7890  141.4920 C   0  0  0  0  0  3  0  0  0  0  0  0
  1  2  2  0  0  0  0
  1 13  1  0  0  0  0
  2 18  1  0  0  0  0
  3  6  1  0  0  0  0
  4  7  1  0  0  0  0
  4  1  1  0  0  0  0
  5  8  1  0  0  0  0
  7 14  1  0  0  0  0
  8  7  2  0  0  0  0
  9 10  1  0  0  0  0
 11 17  2  0  0  0  0
 11  2  1  0  0  0  0
 12  5  2  0  0  0  0
 12 16  1  0  0  0  0
 13  3  2  0  0  0  0
 14 13  1  0  0  0  0
 15  9  2  0  0  0  0
 16  4  2  0  0  0  0
 17 15  1  0  0  0  0
 18  9  1  0  0  0  0
 18  6  2  0  0  0  0
 19 24  2  0  0  0  0
 19 21  1  0  0  0  0
 20 23  1  0  0  0  0
 20 17  1  0  0  0  0
 21 20  2  0  0  0  0
 22 19  1  0  0  0  0
 24 25  1  0  0  0  0
 25 23  2  0  0  0  0
M  END
>  <MODEL>
8

>  <REMARK>
 VINA RESULT:     -10.5      2.909      5.978
  Name = 
  1 active torsions:
  status: ('A' for Active; 'I' for Inactive)
    1  A    between atoms: C_6  and  C_23
                            x       y       z     vdW  Elec       q    Type
                         _______ _______ _______ _____ _____    ______ ____

>  <TORSDO>
F 1

$$$$
=
 OpenBabel10272400503D

 25 29  0  0  0  0  0  0  0  0999 V2000
  185.1570  178.5270  141.6240 C   0  0  0  0  0  0  0  0  0  0  0  0
  186.5020  178.2700  141.9510 C   0  0  0  0  0  0  0  0  0  0  0  0
  185.7470  178.6540  139.2730 C   0  0  0  0  0  3  0  0  0  0  0  0
  184.0450  178.6310  142.4810 C   0  0  0  0  0  0  0  0  0  0  0  0
  181.6210  178.9060  143.8470 C   0  0  0  0  0  3  0  0  0  0  0  0
  187.0470  178.4040  139.6010 N   0  0  0  0  0  0  0  0  0  0  0  0
  182.8600  178.8960  141.7950 C   0  0  0  0  0  0  0  0  0  0  0  0
  181.6410  179.0380  142.4500 C   0  0  0  0  0  3  0  0  0  0  0  0
  188.7950  177.9600  141.1820 C   0  0  0  0  0  0  0  0  0  0  0  0
  189.7360  177.9000  140.1610 O   0  0  0  0  0  1  0  0  0  0  0  0
  186.9300  178.0710  143.2700 C   0  0  0  0  0  3  0  0  0  0  0  0
  182.8080  178.6390  144.5540 C   0  0  0  0  0  3  0  0  0  0  0  0
  184.8040  178.7140  140.2910 C   0  0  0  0  0  0  0  0  0  0  0  0
  183.1510  179.0070  140.1390 S   0  0  0  0  0  0  0  0  0  0  0  0
  189.2020  177.7640  142.5040 C   0  0  0  0  0  3  0  0  0  0  0  0
  184.0280  178.5000  143.8740 C   0  0  0  0  0  3  0  0  0  0  0  0
  188.2790  177.8170  143.5600 C   0  0  0  0  0  0  0  0  0  0  0  0
  187.4470  178.2130  140.8940 C   0  0  0  0  0  0  0  0  0  0  0  0
  190.4690  177.0740  146.5670 C   0  0  0  0  0  0  0  0  0  0  0  0
  188.7200  177.6090  144.9600 C   0  0  0  0  0  0  0  0  0  0  0  0
  190.0530  177.2710  145.2470 C   0  0  0  0  0  3  0  0  0  0  0  0
  191.8220  176.7330  146.8430 N   0  0  0  0  0  1  0  0  0  0  0  0
  187.8120  177.7440  146.0240 C   0  0  0  0  0  3  0  0  0  0  0  0
  189.5560  177.2120  147.6150 C   0  0  0  0  0  3  0  0  0  0  0  0
  188.2280  177.5470  147.3440 C   0  0  0  0  0  3  0  0  0  0  0  0
  1  2  1  0  0  0  0
  1  4  1  0  0  0  0
  2 11  1  0  0  0  0
  3  6  2  0  0  0  0
  3 13  1  0  0  0  0
  4 16  1  0  0  0  0
  5 12  1  0  0  0  0
  6 18  1  0  0  0  0
  7  8  1  0  0  0  0
  7  4  2  0  0  0  0
  8  5  2  0  0  0  0
  9 15  2  0  0  0  0
 10  9  1  0  0  0  0
 11 17  2  0  0  0  0
 13  1  2  0  0  0  0
 14 13  1  0  0  0  0
 14  7  1  0  0  0  0
 15 17  1  0  0  0  0
 16 12  2  0  0  0  0
 17 20  1  0  0  0  0
 18  9  1  0  0  0  0
 18  2  2  0  0  0  0
 19 22  1  0  0  0  0
 19 24  1  0  0  0  0
 20 21  1  0  0  0  0
 20 23  2  0  0  0  0
 21 19  2  0  0  0  0
 23 25  1  0  0  0  0
 25 24  2  0  0  0  0
M  END
>  <MODEL>
9

>  <REMARK>
 VINA RESULT:     -10.5      2.926      5.474
  Name = 
  1 active torsions:
  status: ('A' for Active; 'I' for Inactive)
    1  A    between atoms: C_6  and  C_23
                            x       y       z     vdW  Elec       q    Type
                         _______ _______ _______ _____ _____    ______ ____

>  <TORSDO>
F 1

$$$$
