=
 OpenBabel10272415013D

 37 45  0  0  1  0  0  0  0  0999 V2000
  185.3930  178.9060  145.5860 C   0  0  2  0  0  0  0  0  0  0  0  0
  191.5410  177.1310  147.2710 O   0  0  0  0  0  0  0  0  0  0  0  0
  189.6900  177.1820  143.2270 C   0  0  2  0  0  0  0  0  0  0  0  0
  186.9440  178.4000  140.8990 C   0  0  0  0  0  3  0  0  0  0  0  0
  190.1400  177.6890  145.4180 C   0  0  2  0  0  3  0  0  0  0  0  0
  188.4890  177.9110  142.7140 C   0  0  1  0  0  3  0  0  0  0  0  0
  185.7680  179.9300  146.4560 O   0  0  0  0  0  1  0  0  0  0  0  0
  189.4160  176.6560  144.6110 C   0  0  1  0  0  3  0  0  0  0  0  0
  188.2080  177.6440  141.2660 C   0  0  2  0  0  3  0  0  0  0  0  0
  191.2960  177.9990  144.7040 O   0  0  0  0  0  0  0  0  0  0  0  0
  187.8800  176.7470  144.7960 C   0  0  1  0  0  3  0  0  0  0  0  0
  187.9530  176.7100  147.2870 C   0  0  0  0  0  2  0  0  0  0  0  0
  192.0260  177.9930  142.5280 C   0  0  0  0  0  2  0  0  0  0  0  0
  185.9280  177.5800  146.1500 C   0  0  0  0  0  2  0  0  0  0  0  0
  190.8220  178.1840  143.3890 C   0  0  2  0  0  0  0  0  0  0  0  0
  187.4460  177.4930  146.0750 C   0  0  2  0  0  3  0  0  0  0  0  0
  185.9420  178.5470  141.8030 C   0  0  0  0  0  3  0  0  0  0  0  0
  190.9630  176.9400  142.4270 C   0  0  2  0  0  0  0  0  0  0  0  0
  187.3530  177.2840  143.4580 C   0  0  1  0  0  3  0  0  0  0  0  0
  190.3680  177.2550  146.8290 C   0  0  0  0  0  0  0  0  0  0  0  0
  189.4660  177.9790  140.4720 C   0  0  1  0  0  3  0  0  0  0  0  0
  189.2800  177.0730  147.6960 O   0  0  0  0  0  0  0  0  0  0  0  0
  186.0380  178.0550  143.2500 C   0  0  1  0  0  3  0  0  0  0  0  0
  185.9510  179.2500  144.1940 C   0  0  0  0  0  2  0  0  0  0  0  0
  190.6010  177.0230  140.9160 C   0  0  0  0  0  2  0  0  0  0  0  0
  189.0860  178.9940  138.1850 C   0  0  0  0  0  3  0  0  0  0  0  0
  189.2340  177.8570  138.9950 C   0  0  0  0  0  0  0  0  0  0  0  0
  189.2070  176.5840  138.4110 C   0  0  0  0  0  3  0  0  0  0  0  0
  188.9950  175.2150  136.4700 F   0  0  0  0  0  0  0  0  0  0  0  0
  188.8630  177.5830  136.2310 C   0  0  0  0  0  3  0  0  0  0  0  0
  189.0200  176.4470  137.0320 C   0  0  0  0  0  0  0  0  0  0  0  0
  188.8960  178.8560  136.8080 C   0  0  0  0  0  3  0  0  0  0  0  0
  183.8620  178.8750  145.5520 C   0  0  0  0  0  2  0  0  0  0  0  0
  183.2650  179.5840  144.3460 C   0  0  0  0  0  2  0  0  0  0  0  0
  182.1030  178.7780  143.8080 C   0  0  0  0  0  2  0  0  0  0  0  0
  182.2010  178.6910  142.3510 C   0  0  0  0  0  0  0  0  0  0  0  0
  182.2790  178.6150  141.1500 C   0  0  0  0  0  3  0  0  0  0  0  0
  1 14  1  0  0  0  0
  1  7  1  1  0  0  0
  3 15  1  0  0  0  0
  3  8  1  0  0  0  0
  4  9  1  0  0  0  0
  4 17  2  0  0  0  0
  5 20  1  0  0  0  0
  6  3  1  0  0  0  0
  6 19  1  0  0  0  0
  8 11  1  0  0  0  0
  8  5  1  0  0  0  0
  9  6  1  0  0  0  0
 10  5  1  0  0  0  0
 11 16  1  0  0  0  0
 12 22  1  0  0  0  0
 13 15  1  0  0  0  0
 15 10  1  0  0  0  0
 16 14  1  0  0  0  0
 16 12  1  0  0  0  0
 17 23  1  0  0  0  0
 18 13  1  0  0  0  0
 18  3  1  0  0  0  0
 18 15  1  0  0  0  0
 19 11  1  0  0  0  0
 20  2  2  0  0  0  0
 20 22  1  0  0  0  0
 21 25  1  0  0  0  0
 21  9  1  0  0  0  0
 23 19  1  0  0  0  0
 23 24  1  0  0  0  0
 24  1  1  0  0  0  0
 25 18  1  0  0  0  0
 26 27  1  0  0  0  0
 27 21  1  0  0  0  0
 28 27  2  0  0  0  0
 29 31  1  0  0  0  0
 30 32  1  0  0  0  0
 30 31  2  0  0  0  0
 31 28  1  0  0  0  0
 32 26  2  0  0  0  0
 33  1  1  0  0  0  0
 34 33  1  0  0  0  0
 35 34  1  0  0  0  0
 36 35  1  0  0  0  0
 37 36  3  0  0  0  0
M  END
>  <MODEL>
1

>  <REMARK>
 VINA RESULT:     -10.6      0.000      0.000
  Name = 
  5 active torsions:
  status: ('A' for Active; 'I' for Inactive)
    1  A    between atoms: C_1  and  C_5
    2  A    between atoms: C_5  and  C_17
    3  A    between atoms: C_6  and  C_31
    4  A    between atoms: C_11  and  C_26
    5  A    between atoms: C_17  and  C_26
                            x       y       z     vdW  Elec       q    Type
                         _______ _______ _______ _____ _____    ______ ____

>  <TORSDO>
F 5

$$$$
=
 OpenBabel10272415013D

 37 45  0  0  1  0  0  0  0  0999 V2000
  183.7360  178.0300  139.5900 C   0  0  2  0  0  0  0  0  0  0  0  0
  189.9130  176.8280  137.5460 O   0  0  0  0  0  0  0  0  0  0  0  0
  188.5090  177.8720  141.6360 C   0  0  2  0  0  0  0  0  0  0  0  0
  185.6770  178.1370  144.1560 C   0  0  0  0  0  3  0  0  0  0  0  0
  188.5420  177.0680  139.4890 C   0  0  2  0  0  3  0  0  0  0  0  0
  187.1510  177.7760  142.2540 C   0  0  1  0  0  3  0  0  0  0  0  0
  183.5700  176.8870  138.8080 O   0  0  0  0  0  1  0  0  0  0  0  0
  188.3930  178.3660  140.2190 C   0  0  1  0  0  3  0  0  0  0  0  0
  187.1140  178.2400  143.6790 C   0  0  2  0  0  3  0  0  0  0  0  0
  189.4980  176.3360  140.1900 O   0  0  0  0  0  0  0  0  0  0  0  0
  186.9590  178.9400  140.0930 C   0  0  1  0  0  3  0  0  0  0  0  0
  186.8660  178.7670  137.6080 C   0  0  0  0  0  2  0  0  0  0  0  0
  190.3110  176.1760  142.3310 C   0  0  0  0  0  2  0  0  0  0  0  0
  184.7490  178.9480  138.8880 C   0  0  0  0  0  2  0  0  0  0  0  0
  189.0840  176.4680  141.5320 C   0  0  2  0  0  0  0  0  0  0  0  0
  186.1570  178.3700  138.9050 C   0  0  2  0  0  3  0  0  0  0  0  0
  184.6480  178.3780  143.3030 C   0  0  0  0  0  3  0  0  0  0  0  0
  189.8150  177.5910  142.3680 C   0  0  2  0  0  0  0  0  0  0  0  0
  186.3460  178.7820  141.4920 C   0  0  1  0  0  3  0  0  0  0  0  0
  188.8350  177.2580  138.0370 C   0  0  0  0  0  0  0  0  0  0  0  0
  188.1570  177.4470  144.4590 C   0  0  1  0  0  3  0  0  0  0  0  0
  187.8750  177.8350  137.1930 O   0  0  0  0  0  0  0  0  0  0  0  0
  184.8460  178.6770  141.8140 C   0  0  1  0  0  3  0  0  0  0  0  0
  184.1870  177.5760  140.9890 C   0  0  0  0  0  2  0  0  0  0  0  0
  189.5590  177.7800  143.8910 C   0  0  0  0  0  2  0  0  0  0  0  0
  186.8860  178.0280  146.5690 C   0  0  0  0  0  3  0  0  0  0  0  0
  188.1050  177.7610  145.9250 C   0  0  0  0  0  0  0  0  0  0  0  0
  189.2910  177.7460  146.6700 C   0  0  0  0  0  3  0  0  0  0  0  0
  190.4120  177.9930  148.7590 F   0  0  0  0  0  0  0  0  0  0  0  0
  188.0470  178.2840  148.6770 C   0  0  0  0  0  3  0  0  0  0  0  0
  189.2630  178.0100  148.0430 C   0  0  0  0  0  0  0  0  0  0  0  0
  186.8590  178.2940  147.9410 C   0  0  0  0  0  3  0  0  0  0  0  0
  182.3740  178.7270  139.6710 C   0  0  0  0  0  2  0  0  0  0  0  0
  181.3980  178.0490  140.6210 C   0  0  0  0  0  2  0  0  0  0  0  0
  180.6800  179.0960  141.4430 C   0  0  0  0  0  2  0  0  0  0  0  0
  180.8960  178.8360  142.8660 C   0  0  0  0  0  0  0  0  0  0  0  0
  181.0760  178.6250  144.0390 C   0  0  0  0  0  3  0  0  0  0  0  0
  1  7  1  6  0  0  0
  1 33  1  0  0  0  0
  1 24  1  0  0  0  0
  2 20  2  0  0  0  0
  3  6  1  0  0  0  0
  3 18  1  0  0  0  0
  5 10  1  0  0  0  0
  5  8  1  0  0  0  0
  6  9  1  0  0  0  0
  8  3  1  0  0  0  0
  9  4  1  0  0  0  0
  9 21  1  0  0  0  0
 10 15  1  0  0  0  0
 11  8  1  0  0  0  0
 11 19  1  0  0  0  0
 12 16  1  0  0  0  0
 13 18  1  0  0  0  0
 14 16  1  0  0  0  0
 14  1  1  0  0  0  0
 15  3  1  0  0  0  0
 15 13  1  0  0  0  0
 15 18  1  0  0  0  0
 16 11  1  0  0  0  0
 17  4  2  0  0  0  0
 18 25  1  0  0  0  0
 19 23  1  0  0  0  0
 19  6  1  0  0  0  0
 20  5  1  0  0  0  0
 21 27  1  0  0  0  0
 22 12  1  0  0  0  0
 22 20  1  0  0  0  0
 23 17  1  0  0  0  0
 24 23  1  0  0  0  0
 25 21  1  0  0  0  0
 26 32  1  0  0  0  0
 27 26  2  0  0  0  0
 27 28  1  0  0  0  0
 28 31  2  0  0  0  0
 31 30  1  0  0  0  0
 31 29  1  0  0  0  0
 32 30  2  0  0  0  0
 33 34  1  0  0  0  0
 34 35  1  0  0  0  0
 35 36  1  0  0  0  0
 36 37  3  0  0  0  0
M  END
>  <MODEL>
2

>  <REMARK>
 VINA RESULT:      -8.6      3.496      6.717
  Name = 
  5 active torsions:
  status: ('A' for Active; 'I' for Inactive)
    1  A    between atoms: C_1  and  C_5
    2  A    between atoms: C_5  and  C_17
    3  A    between atoms: C_6  and  C_31
    4  A    between atoms: C_11  and  C_26
    5  A    between atoms: C_17  and  C_26
                            x       y       z     vdW  Elec       q    Type
                         _______ _______ _______ _____ _____    ______ ____

>  <TORSDO>
F 5

$$$$
=
 OpenBabel10272415013D

 37 45  0  0  1  0  0  0  0  0999 V2000
  183.8330  177.9030  139.2990 C   0  0  2  0  0  0  0  0  0  0  0  0
  190.0980  176.8070  137.4730 O   0  0  0  0  0  0  0  0  0  0  0  0
  188.5400  177.8770  141.4990 C   0  0  2  0  0  0  0  0  0  0  0  0
  185.6230  178.1160  143.9230 C   0  0  0  0  0  3  0  0  0  0  0  0
  188.6600  177.0430  139.3660 C   0  0  2  0  0  3  0  0  0  0  0  0
  187.1650  177.7600  142.0740 C   0  0  1  0  0  3  0  0  0  0  0  0
  183.7180  176.7460  138.5290 O   0  0  0  0  0  1  0  0  0  0  0  0
  188.4600  178.3490  140.0720 C   0  0  1  0  0  3  0  0  0  0  0  0
  187.0720  178.2430  143.4910 C   0  0  2  0  0  3  0  0  0  0  0  0
  189.6080  176.3430  140.1080 O   0  0  0  0  0  0  0  0  0  0  0  0
  187.0190  178.8900  139.8920 C   0  0  1  0  0  3  0  0  0  0  0  0
  187.0100  178.6790  137.4080 C   0  0  0  0  0  2  0  0  0  0  0  0
  190.3540  176.2300  142.2770 C   0  0  0  0  0  2  0  0  0  0  0  0
  184.8490  178.8320  138.6160 C   0  0  0  0  0  2  0  0  0  0  0  0
  189.1480  176.4850  141.4340 C   0  0  2  0  0  0  0  0  0  0  0  0
  186.2680  178.2850  138.6870 C   0  0  2  0  0  3  0  0  0  0  0  0
  184.6180  178.3220  143.0340 C   0  0  0  0  0  3  0  0  0  0  0  0
  189.8270  177.6340  142.2770 C   0  0  2  0  0  0  0  0  0  0  0  0
  186.3650  178.7380  141.2730 C   0  0  1  0  0  3  0  0  0  0  0  0
  188.9960  177.2200  137.9220 C   0  0  0  0  0  0  0  0  0  0  0  0
  188.1060  177.4840  144.3160 C   0  0  1  0  0  3  0  0  0  0  0  0
  188.0520  177.7640  137.0390 O   0  0  0  0  0  0  0  0  0  0  0  0
  184.8570  178.6050  141.5480 C   0  0  1  0  0  3  0  0  0  0  0  0
  184.2490  177.4780  140.7180 C   0  0  0  0  0  2  0  0  0  0  0  0
  189.5180  177.8390  143.7880 C   0  0  0  0  0  2  0  0  0  0  0  0
  186.7630  178.1300  146.3610 C   0  0  0  0  0  3  0  0  0  0  0  0
  188.0000  177.8170  145.7750 C   0  0  0  0  0  0  0  0  0  0  0  0
  189.1510  177.7740  146.5710 C   0  0  0  0  0  3  0  0  0  0  0  0
  190.1860  178.0110  148.7050 F   0  0  0  0  0  0  0  0  0  0  0  0
  187.8380  178.3750  148.5160 C   0  0  0  0  0  3  0  0  0  0  0  0
  189.0710  178.0540  147.9390 C   0  0  0  0  0  0  0  0  0  0  0  0
  186.6840  178.4130  147.7270 C   0  0  0  0  0  3  0  0  0  0  0  0
  182.4560  178.5710  139.3250 C   0  0  0  0  0  2  0  0  0  0  0  0
  182.4920  180.0550  138.9870 C   0  0  0  0  0  2  0  0  0  0  0  0
  181.0830  180.6060  138.9720 C   0  0  0  0  0  2  0  0  0  0  0  0
  181.0570  181.8630  138.2250 C   0  0  0  0  0  0  0  0  0  0  0  0
  181.0380  182.9020  137.6130 C   0  0  0  0  0  3  0  0  0  0  0  0
  1  7  1  6  0  0  0
  1 33  1  0  0  0  0
  1 24  1  0  0  0  0
  2 20  2  0  0  0  0
  3  6  1  0  0  0  0
  3 18  1  0  0  0  0
  5  8  1  0  0  0  0
  5 10  1  0  0  0  0
  6  9  1  0  0  0  0
  8  3  1  0  0  0  0
  9  4  1  0  0  0  0
  9 21  1  0  0  0  0
 10 15  1  0  0  0  0
 11  8  1  0  0  0  0
 11 19  1  0  0  0  0
 12 16  1  0  0  0  0
 14 16  1  0  0  0  0
 14  1  1  0  0  0  0
 15  3  1  0  0  0  0
 15 18  1  0  0  0  0
 15 13  1  0  0  0  0
 16 11  1  0  0  0  0
 17  4  2  0  0  0  0
 18 13  1  0  0  0  0
 18 25  1  0  0  0  0
 19 23  1  0  0  0  0
 19  6  1  0  0  0  0
 20  5  1  0  0  0  0
 21 27  1  0  0  0  0
 22 12  1  0  0  0  0
 22 20  1  0  0  0  0
 23 17  1  0  0  0  0
 24 23  1  0  0  0  0
 25 21  1  0  0  0  0
 26 32  1  0  0  0  0
 27 26  2  0  0  0  0
 27 28  1  0  0  0  0
 28 31  2  0  0  0  0
 31 30  1  0  0  0  0
 31 29  1  0  0  0  0
 32 30  2  0  0  0  0
 34 33  1  0  0  0  0
 35 34  1  0  0  0  0
 36 35  1  0  0  0  0
 37 36  3  0  0  0  0
M  END
>  <MODEL>
3

>  <REMARK>
 VINA RESULT:      -8.1      3.763      6.899
  Name = 
  5 active torsions:
  status: ('A' for Active; 'I' for Inactive)
    1  A    between atoms: C_1  and  C_5
    2  A    between atoms: C_5  and  C_17
    3  A    between atoms: C_6  and  C_31
    4  A    between atoms: C_11  and  C_26
    5  A    between atoms: C_17  and  C_26
                            x       y       z     vdW  Elec       q    Type
                         _______ _______ _______ _____ _____    ______ ____

>  <TORSDO>
F 5

$$$$
=
 OpenBabel10272415013D

 37 45  0  0  1  0  0  0  0  0999 V2000
  189.2300  177.4640  141.8320 C   0  0  2  0  0  0  0  0  0  0  0  0
  185.5230  176.3640  136.4630 O   0  0  0  0  0  0  0  0  0  0  0  0
  189.9530  176.6340  136.7550 C   0  0  2  0  0  0  0  0  0  0  0  0
  193.1060  176.5380  138.8740 C   0  0  0  0  0  3  0  0  0  0  0  0
  187.7560  176.2800  137.3080 C   0  0  2  0  0  3  0  0  0  0  0  0
  190.8630  176.4890  137.9330 C   0  0  1  0  0  3  0  0  0  0  0  0
  188.3190  176.5130  142.2930 O   0  0  0  0  0  1  0  0  0  0  0  0
  188.7250  177.4100  137.1480 C   0  0  1  0  0  3  0  0  0  0  0  0
  192.3120  176.6560  137.5860 C   0  0  2  0  0  3  0  0  0  0  0  0
  188.0500  175.3700  136.2950 O   0  0  0  0  0  0  0  0  0  0  0  0
  189.0690  178.0750  138.5050 C   0  0  1  0  0  3  0  0  0  0  0  0
  186.6980  178.4130  139.1950 C   0  0  0  0  0  2  0  0  0  0  0  0
  189.8540  174.7360  135.0240 C   0  0  0  0  0  2  0  0  0  0  0  0
  188.4770  178.4470  140.9230 C   0  0  0  0  0  2  0  0  0  0  0  0
  189.4540  175.2510  136.3670 C   0  0  2  0  0  0  0  0  0  0  0  0
  188.0350  177.8020  139.6170 C   0  0  2  0  0  3  0  0  0  0  0  0
  192.5960  177.0020  140.0440 C   0  0  0  0  0  3  0  0  0  0  0  0
  190.2720  176.1390  135.3490 C   0  0  2  0  0  0  0  0  0  0  0  0
  190.5230  177.6710  138.7850 C   0  0  1  0  0  3  0  0  0  0  0  0
  186.3380  176.7440  137.3460 C   0  0  0  0  0  0  0  0  0  0  0  0
  192.6480  175.6660  136.4770 C   0  0  1  0  0  3  0  0  0  0  0  0
  185.8800  177.5310  138.4130 O   0  0  0  0  0  0  0  0  0  0  0  0
  191.1860  177.5850  140.1710 C   0  0  1  0  0  3  0  0  0  0  0  0
  190.3650  176.7110  141.1150 C   0  0  0  0  0  2  0  0  0  0  0  0
  191.8180  176.0300  135.2200 C   0  0  0  0  0  2  0  0  0  0  0  0
  194.9490  174.6120  136.5170 C   0  0  0  0  0  3  0  0  0  0  0  0
  194.1130  175.6790  136.1510 C   0  0  0  0  0  0  0  0  0  0  0  0
  194.6430  176.7590  135.4330 C   0  0  0  0  0  3  0  0  0  0  0  0
  196.5090  177.8250  134.4010 F   0  0  0  0  0  0  0  0  0  0  0  0
  196.8310  175.7190  135.4710 C   0  0  0  0  0  3  0  0  0  0  0  0
  196.0000  176.7800  135.0960 C   0  0  0  0  0  0  0  0  0  0  0  0
  196.3050  174.6350  136.1820 C   0  0  0  0  0  3  0  0  0  0  0  0
  189.7740  178.2030  143.0580 C   0  0  0  0  0  2  0  0  0  0  0  0
  190.1050  177.2850  144.2260 C   0  0  0  0  0  2  0  0  0  0  0  0
  189.5410  177.8670  145.5040 C   0  0  0  0  0  2  0  0  0  0  0  0
  188.0880  177.6990  145.5190 C   0  0  0  0  0  0  0  0  0  0  0  0
  186.8900  177.5620  145.5370 C   0  0  0  0  0  3  0  0  0  0  0  0
  1  7  1  1  0  0  0
  1 33  1  0  0  0  0
  2 20  2  0  0  0  0
  3  8  1  0  0  0  0
  3  6  1  0  0  0  0
  4 17  2  0  0  0  0
  5 20  1  0  0  0  0
  6 19  1  0  0  0  0
  8  5  1  0  0  0  0
  8 11  1  0  0  0  0
  9  6  1  0  0  0  0
  9  4  1  0  0  0  0
 10 15  1  0  0  0  0
 10  5  1  0  0  0  0
 11 19  1  0  0  0  0
 11 16  1  0  0  0  0
 12 16  1  0  0  0  0
 13 18  1  0  0  0  0
 13 15  1  0  0  0  0
 14  1  1  0  0  0  0
 15  3  1  0  0  0  0
 16 14  1  0  0  0  0
 17 23  1  0  0  0  0
 18 15  1  0  0  0  0
 18  3  1  0  0  0  0
 19 23  1  0  0  0  0
 20 22  1  0  0  0  0
 21  9  1  0  0  0  0
 22 12  1  0  0  0  0
 23 24  1  0  0  0  0
 24  1  1  0  0  0  0
 25 18  1  0  0  0  0
 25 21  1  0  0  0  0
 27 21  1  0  0  0  0
 27 26  2  0  0  0  0
 28 27  1  0  0  0  0
 29 31  1  0  0  0  0
 30 32  2  0  0  0  0
 31 28  2  0  0  0  0
 31 30  1  0  0  0  0
 32 26  1  0  0  0  0
 33 34  1  0  0  0  0
 34 35  1  0  0  0  0
 35 36  1  0  0  0  0
 36 37  3  0  0  0  0
M  END
>  <MODEL>
4

>  <REMARK>
 VINA RESULT:      -7.6      4.391      7.382
  Name = 
  5 active torsions:
  status: ('A' for Active; 'I' for Inactive)
    1  A    between atoms: C_1  and  C_5
    2  A    between atoms: C_5  and  C_17
    3  A    between atoms: C_6  and  C_31
    4  A    between atoms: C_11  and  C_26
    5  A    between atoms: C_17  and  C_26
                            x       y       z     vdW  Elec       q    Type
                         _______ _______ _______ _____ _____    ______ ____

>  <TORSDO>
F 5

$$$$
