=
 OpenBabel10272401523D

 28 32  0  0  1  0  0  0  0  0999 V2000
  190.0440  176.3940  143.8330 C   0  0  0  0  0  0  0  0  0  0  0  0
  185.2910  178.2590  142.7690 C   0  0  0  0  0  3  0  0  0  0  0  0
  188.2190  177.2760  148.2300 C   0  0  0  0  0  1  0  0  0  0  0  0
  184.3490  178.6020  144.9810 C   0  0  0  0  0  0  0  0  0  0  0  0
  186.8400  178.1210  144.7530 C   0  0  2  0  0  3  0  0  0  0  0  0
  182.9370  178.7630  143.0150 C   0  0  0  0  0  0  0  0  0  0  0  0
  185.4560  178.2830  144.1620 C   0  0  0  0  0  0  0  0  0  0  0  0
  185.8930  178.8830  146.9370 C   0  0  0  0  0  2  0  0  0  0  0  0
  183.0940  178.8190  144.4020 C   0  0  0  0  0  3  0  0  0  0  0  0
  189.2890  177.3140  145.9710 C   0  0  0  0  0  0  0  0  0  0  0  0
  187.6030  176.9710  144.1090 C   0  0  0  0  0  2  0  0  0  0  0  0
  184.4600  178.6370  146.4800 C   0  0  0  0  0  2  0  0  0  0  0  0
  191.6250  176.7270  145.6430 C   0  0  0  0  0  3  0  0  0  0  0  0
  188.2260  177.9370  146.8580 C   0  0  1  0  0  3  0  0  0  0  0  0
  190.6060  177.2390  146.4460 C   0  0  0  0  0  3  0  0  0  0  0  0
  181.6900  178.9830  142.4480 O   0  0  0  0  0  1  0  0  0  0  0  0
  184.0360  178.4890  142.1990 C   0  0  0  0  0  3  0  0  0  0  0  0
  186.8130  177.8740  146.2640 C   0  0  2  0  0  3  0  0  0  0  0  0
  191.3430  176.3020  144.3460 C   0  0  0  0  0  3  0  0  0  0  0  0
  189.0090  176.9080  144.6410 C   0  0  0  0  0  0  0  0  0  0  0  0
  189.7830  175.9280  142.4200 C   0  0  0  0  0  2  0  0  0  0  0  0
  189.8180  176.9950  141.4090 N   0  0  0  0  0  0  0  0  0  0  0  0
  189.3880  178.3980  139.0070 C   0  0  0  0  0  0  0  0  0  0  0  0
  188.4550  177.4200  141.0780 C   0  0  0  0  0  2  0  0  0  0  0  0
  190.4940  176.5320  140.1930 C   0  0  0  0  0  2  0  0  0  0  0  0
  190.6920  177.6900  139.2200 C   0  0  0  0  0  2  0  0  0  0  0  0
  189.1010  178.8350  137.9050 O   0  0  0  0  0  0  0  0  0  0  0  0
  188.4860  178.6520  140.1750 C   0  0  0  0  0  2  0  0  0  0  0  0
  1 19  2  0  0  0  0
  1 20  1  0  0  0  0
  2  7  1  0  0  0  0
  4 12  1  0  0  0  0
  5 11  1  6  0  0  0
  5 18  1  0  0  0  0
  6  9  2  0  0  0  0
  7  5  1  0  0  0  0
  7  4  2  0  0  0  0
  9  4  1  0  0  0  0
 10 15  1  0  0  0  0
 10 14  1  0  0  0  0
 11 20  1  0  0  0  0
 12  8  1  0  0  0  0
 13 15  2  0  0  0  0
 14  3  1  1  0  0  0
 16  6  1  0  0  0  0
 17  2  2  0  0  0  0
 17  6  1  0  0  0  0
 18 14  1  0  0  0  0
 18  8  1  1  0  0  0
 19 13  1  0  0  0  0
 20 10  2  0  0  0  0
 21  1  1  0  0  0  0
 22 21  1  0  0  0  0
 23 26  1  0  0  0  0
 23 28  1  0  0  0  0
 24 22  1  0  0  0  0
 25 22  1  0  0  0  0
 26 25  1  0  0  0  0
 27 23  2  0  0  0  0
 28 24  1  0  0  0  0
M  END
>  <MODEL>
1

>  <REMARK>
 VINA RESULT:     -12.4      0.000      0.000
  Name = 
  2 active torsions:
  status: ('A' for Active; 'I' for Inactive)
    1  A    between atoms: C_1  and  C_2
    2  A    between atoms: C_2  and  N_3
                            x       y       z     vdW  Elec       q    Type
                         _______ _______ _______ _____ _____    ______ ____

>  <TORSDO>
F 2

$$$$
=
 OpenBabel10272401523D

 28 32  0  0  1  0  0  0  0  0999 V2000
  187.2140  178.4410  140.8900 C   0  0  0  0  0  0  0  0  0  0  0  0
  190.3630  176.7940  144.7080 C   0  0  0  0  0  3  0  0  0  0  0  0
  184.5610  179.1760  144.8740 C   0  0  0  0  0  1  0  0  0  0  0  0
  189.0630  177.2610  146.7060 C   0  0  0  0  0  0  0  0  0  0  0  0
  187.9340  177.4070  144.4280 C   0  0  2  0  0  3  0  0  0  0  0  0
  191.3950  176.6190  146.8900 C   0  0  0  0  0  0  0  0  0  0  0  0
  189.1550  177.1970  145.2970 C   0  0  0  0  0  0  0  0  0  0  0  0
  186.5700  177.4700  146.5210 C   0  0  0  0  0  2  0  0  0  0  0  0
  190.1900  176.9910  147.4900 C   0  0  0  0  0  3  0  0  0  0  0  0
  185.7460  178.3220  142.8450 C   0  0  0  0  0  0  0  0  0  0  0  0
  188.2560  178.2150  143.1780 C   0  0  0  0  0  2  0  0  0  0  0  0
  187.7990  177.6930  147.3960 C   0  0  0  0  0  2  0  0  0  0  0  0
  184.8070  178.5510  140.6140 C   0  0  0  0  0  3  0  0  0  0  0  0
  185.5110  178.1170  144.3300 C   0  0  1  0  0  3  0  0  0  0  0  0
  184.6370  178.4190  141.9920 C   0  0  0  0  0  3  0  0  0  0  0  0
  192.5070  176.3490  147.6750 O   0  0  0  0  0  1  0  0  0  0  0  0
  191.4790  176.5150  145.5010 C   0  0  0  0  0  3  0  0  0  0  0  0
  186.7980  178.1210  145.1650 C   0  0  2  0  0  3  0  0  0  0  0  0
  186.0890  178.5680  140.0680 C   0  0  0  0  0  3  0  0  0  0  0  0
  187.0500  178.3100  142.2850 C   0  0  0  0  0  0  0  0  0  0  0  0
  188.5860  178.4580  140.2580 C   0  0  0  0  0  2  0  0  0  0  0  0
  188.6490  177.8460  138.9220 N   0  0  0  0  0  0  0  0  0  0  0  0
  189.6630  176.9350  136.4590 C   0  0  0  0  0  0  0  0  0  0  0  0
  189.5970  176.7290  138.9230 C   0  0  0  0  0  2  0  0  0  0  0  0
  189.0620  178.8350  137.9210 C   0  0  0  0  0  2  0  0  0  0  0  0
  188.9490  178.2500  136.5160 C   0  0  0  0  0  2  0  0  0  0  0  0
  190.2840  176.6170  135.4580 O   0  0  0  0  0  0  0  0  0  0  0  0
  189.5280  175.9710  137.5980 C   0  0  0  0  0  2  0  0  0  0  0  0
  1 20  1  0  0  0  0
  2  7  2  0  0  0  0
  2 17  1  0  0  0  0
  4 12  1  0  0  0  0
  4  9  2  0  0  0  0
  5 11  1  6  0  0  0
  5 18  1  0  0  0  0
  5  7  1  0  0  0  0
  6  9  1  0  0  0  0
  6 16  1  0  0  0  0
  7  4  1  0  0  0  0
  8 12  1  0  0  0  0
 10 14  1  0  0  0  0
 13 15  2  0  0  0  0
 14  3  1  1  0  0  0
 14 18  1  0  0  0  0
 15 10  1  0  0  0  0
 17  6  2  0  0  0  0
 18  8  1  1  0  0  0
 19 13  1  0  0  0  0
 19  1  2  0  0  0  0
 20 10  2  0  0  0  0
 20 11  1  0  0  0  0
 21  1  1  0  0  0  0
 22 24  1  0  0  0  0
 22 21  1  0  0  0  0
 23 26  1  0  0  0  0
 23 28  1  0  0  0  0
 25 22  1  0  0  0  0
 26 25  1  0  0  0  0
 27 23  2  0  0  0  0
 28 24  1  0  0  0  0
M  END
>  <MODEL>
2

>  <REMARK>
 VINA RESULT:     -11.3      2.564      5.474
  Name = 
  2 active torsions:
  status: ('A' for Active; 'I' for Inactive)
    1  A    between atoms: C_1  and  C_2
    2  A    between atoms: C_2  and  N_3
                            x       y       z     vdW  Elec       q    Type
                         _______ _______ _______ _____ _____    ______ ____

>  <TORSDO>
F 2

$$$$
=
 OpenBabel10272401523D

 28 32  0  0  1  0  0  0  0  0999 V2000
  189.1840  177.0820  146.3830 C   0  0  0  0  0  0  0  0  0  0  0  0
  187.8610  178.1910  141.4610 C   0  0  0  0  0  3  0  0  0  0  0  0
  184.5130  178.3000  146.7660 C   0  0  0  0  0  1  0  0  0  0  0  0
  185.4940  178.7020  141.6510 C   0  0  0  0  0  0  0  0  0  0  0  0
  186.8960  178.5070  143.7680 C   0  0  2  0  0  3  0  0  0  0  0  0
  186.5130  178.4300  139.4660 C   0  0  0  0  0  0  0  0  0  0  0  0
  186.7350  178.4180  142.2670 C   0  0  0  0  0  0  0  0  0  0  0  0
  184.5740  179.4250  143.8690 C   0  0  0  0  0  2  0  0  0  0  0  0
  185.3890  178.6860  140.2560 C   0  0  0  0  0  3  0  0  0  0  0  0
  187.0040  178.1740  146.5990 C   0  0  0  0  0  0  0  0  0  0  0  0
  187.7700  177.3850  144.3140 C   0  0  0  0  0  2  0  0  0  0  0  0
  184.2500  178.9460  142.4580 C   0  0  0  0  0  2  0  0  0  0  0  0
  188.4110  177.8410  148.5530 C   0  0  0  0  0  3  0  0  0  0  0  0
  185.7430  178.7710  146.0010 C   0  0  1  0  0  3  0  0  0  0  0  0
  187.2380  178.3240  147.9730 C   0  0  0  0  0  3  0  0  0  0  0  0
  186.4010  178.4180  138.0830 O   0  0  0  0  0  1  0  0  0  0  0  0
  187.7490  178.1890  140.0680 C   0  0  0  0  0  3  0  0  0  0  0  0
  185.5580  178.4580  144.5110 C   0  0  2  0  0  3  0  0  0  0  0  0
  189.3750  177.2180  147.7620 C   0  0  0  0  0  3  0  0  0  0  0  0
  187.9990  177.5660  145.7900 C   0  0  0  0  0  0  0  0  0  0  0  0
  190.2570  176.4060  145.5610 C   0  0  0  0  0  2  0  0  0  0  0  0
  190.3940  176.9260  144.1920 N   0  0  0  0  0  0  0  0  0  0  0  0
  191.5010  177.5290  141.6750 C   0  0  0  0  0  0  0  0  0  0  0  0
  190.6600  175.8270  143.2610 C   0  0  0  0  0  2  0  0  0  0  0  0
  191.4860  177.9030  144.1190 C   0  0  0  0  0  2  0  0  0  0  0  0
  191.5080  178.5740  142.7490 C   0  0  0  0  0  2  0  0  0  0  0  0
  192.1500  177.6940  140.6560 O   0  0  0  0  0  0  0  0  0  0  0  0
  190.6160  176.3300  141.8180 C   0  0  0  0  0  2  0  0  0  0  0  0
  1 19  1  0  0  0  0
  2  7  1  0  0  0  0
  4  7  2  0  0  0  0
  4 12  1  0  0  0  0
  5 11  1  1  0  0  0
  5 18  1  0  0  0  0
  6 17  1  0  0  0  0
  6  9  2  0  0  0  0
  7  5  1  0  0  0  0
  9  4  1  0  0  0  0
 10 15  2  0  0  0  0
 11 20  1  0  0  0  0
 12  8  1  0  0  0  0
 14 10  1  0  0  0  0
 14  3  1  1  0  0  0
 15 13  1  0  0  0  0
 16  6  1  0  0  0  0
 17  2  2  0  0  0  0
 18  8  1  6  0  0  0
 18 14  1  0  0  0  0
 19 13  2  0  0  0  0
 20  1  2  0  0  0  0
 20 10  1  0  0  0  0
 21  1  1  0  0  0  0
 22 21  1  0  0  0  0
 23 28  1  0  0  0  0
 23 26  1  0  0  0  0
 24 22  1  0  0  0  0
 25 22  1  0  0  0  0
 26 25  1  0  0  0  0
 27 23  2  0  0  0  0
 28 24  1  0  0  0  0
M  END
>  <MODEL>
3

>  <REMARK>
 VINA RESULT:     -10.5      1.844      3.618
  Name = 
  2 active torsions:
  status: ('A' for Active; 'I' for Inactive)
    1  A    between atoms: C_1  and  C_2
    2  A    between atoms: C_2  and  N_3
                            x       y       z     vdW  Elec       q    Type
                         _______ _______ _______ _____ _____    ______ ____

>  <TORSDO>
F 2

$$$$
=
 OpenBabel10272401523D

 28 32  0  0  1  0  0  0  0  0999 V2000
  186.2150  178.4360  140.3450 C   0  0  0  0  0  0  0  0  0  0  0  0
  189.6970  176.9280  143.9250 C   0  0  0  0  0  3  0  0  0  0  0  0
  183.9370  179.3430  144.5200 C   0  0  0  0  0  1  0  0  0  0  0  0
  188.5840  177.4820  146.0120 C   0  0  0  0  0  0  0  0  0  0  0  0
  187.2530  177.5410  143.8420 C   0  0  2  0  0  3  0  0  0  0  0  0
  190.9230  176.8360  146.0090 C   0  0  0  0  0  0  0  0  0  0  0  0
  188.5470  177.3610  144.6030 C   0  0  0  0  0  0  0  0  0  0  0  0
  186.0850  177.6950  146.0460 C   0  0  0  0  0  2  0  0  0  0  0  0
  189.7770  177.2380  146.7000 C   0  0  0  0  0  3  0  0  0  0  0  0
  184.9310  178.4030  142.4280 C   0  0  0  0  0  0  0  0  0  0  0  0
  187.4610  178.2970  142.5360 C   0  0  0  0  0  2  0  0  0  0  0  0
  187.3890  177.9470  146.7950 C   0  0  0  0  0  2  0  0  0  0  0  0
  183.7930  178.5460  140.2850 C   0  0  0  0  0  3  0  0  0  0  0  0
  184.8320  178.2590  143.9360 C   0  0  1  0  0  3  0  0  0  0  0  0
  183.7490  178.4710  141.6770 C   0  0  0  0  0  3  0  0  0  0  0  0
  192.1010  176.5930  146.7000 O   0  0  0  0  0  1  0  0  0  0  0  0
  190.8800  176.6760  144.6230 C   0  0  0  0  0  3  0  0  0  0  0  0
  186.1900  178.2900  144.6490 C   0  0  2  0  0  3  0  0  0  0  0  0
  185.0200  178.5350  139.6240 C   0  0  0  0  0  3  0  0  0  0  0  0
  186.1780  178.3620  141.7530 C   0  0  0  0  0  0  0  0  0  0  0  0
  187.5240  178.4210  139.5900 C   0  0  0  0  0  2  0  0  0  0  0  0
  187.4720  177.7290  138.2940 N   0  0  0  0  0  0  0  0  0  0  0  0
  188.2590  176.7000  135.7950 C   0  0  0  0  0  0  0  0  0  0  0  0
  188.4610  176.6490  138.2590 C   0  0  0  0  0  2  0  0  0  0  0  0
  187.7350  178.6670  137.1980 C   0  0  0  0  0  2  0  0  0  0  0  0
  187.5000  177.9900  135.8500 C   0  0  0  0  0  2  0  0  0  0  0  0
  188.7840  176.3420  134.7530 O   0  0  0  0  0  0  0  0  0  0  0  0
  188.2860  175.8070  136.9960 C   0  0  0  0  0  2  0  0  0  0  0  0
  1 20  1  0  0  0  0
  2  7  2  0  0  0  0
  2 17  1  0  0  0  0
  4  9  2  0  0  0  0
  4 12  1  0  0  0  0
  5 11  1  6  0  0  0
  5  7  1  0  0  0  0
  5 18  1  0  0  0  0
  6 16  1  0  0  0  0
  6  9  1  0  0  0  0
  7  4  1  0  0  0  0
  8 12  1  0  0  0  0
 10 14  1  0  0  0  0
 13 15  2  0  0  0  0
 14  3  1  1  0  0  0
 14 18  1  0  0  0  0
 15 10  1  0  0  0  0
 17  6  2  0  0  0  0
 18  8  1  1  0  0  0
 19 13  1  0  0  0  0
 19  1  2  0  0  0  0
 20 10  2  0  0  0  0
 20 11  1  0  0  0  0
 21  1  1  0  0  0  0
 22 21  1  0  0  0  0
 23 26  1  0  0  0  0
 23 28  1  0  0  0  0
 24 22  1  0  0  0  0
 25 22  1  0  0  0  0
 26 25  1  0  0  0  0
 27 23  2  0  0  0  0
 28 24  1  0  0  0  0
M  END
>  <MODEL>
4

>  <REMARK>
 VINA RESULT:     -10.5      2.705      5.659
  Name = 
  2 active torsions:
  status: ('A' for Active; 'I' for Inactive)
    1  A    between atoms: C_1  and  C_2
    2  A    between atoms: C_2  and  N_3
                            x       y       z     vdW  Elec       q    Type
                         _______ _______ _______ _____ _____    ______ ____

>  <TORSDO>
F 2

$$$$
=
 OpenBabel10272401523D

 28 32  0  0  1  0  0  0  0  0999 V2000
  184.1730  178.4920  142.7510 C   0  0  0  0  0  0  0  0  0  0  0  0
  188.9250  176.3550  142.9990 C   0  0  0  0  0  3  0  0  0  0  0  0
  185.5880  179.5220  147.2660 C   0  0  0  0  0  1  0  0  0  0  0  0
  189.6640  176.9650  145.2310 C   0  0  0  0  0  0  0  0  0  0  0  0
  187.2210  177.3060  144.5960 C   0  0  2  0  0  3  0  0  0  0  0  0
  191.2280  176.0000  143.6470 C   0  0  0  0  0  0  0  0  0  0  0  0
  188.6420  176.9130  144.2550 C   0  0  0  0  0  0  0  0  0  0  0  0
  187.9510  177.5240  146.9760 C   0  0  0  0  0  2  0  0  0  0  0  0
  190.9540  176.5270  144.9120 C   0  0  0  0  0  3  0  0  0  0  0  0
  184.7110  178.5460  145.1380 C   0  0  0  0  0  0  0  0  0  0  0  0
  186.5590  178.0830  143.4650 C   0  0  0  0  0  2  0  0  0  0  0  0
  189.4260  177.5580  146.5910 C   0  0  0  0  0  2  0  0  0  0  0  0
  182.4350  178.9420  144.3820 C   0  0  0  0  0  3  0  0  0  0  0  0
  185.6720  178.3500  146.2970 C   0  0  1  0  0  3  0  0  0  0  0  0
  183.3620  178.8110  145.4150 C   0  0  0  0  0  3  0  0  0  0  0  0
  192.5100  175.5650  143.3410 O   0  0  0  0  0  1  0  0  0  0  0  0
  190.2130  175.9090  142.6940 C   0  0  0  0  0  3  0  0  0  0  0  0
  187.1310  178.1600  145.8630 C   0  0  2  0  0  3  0  0  0  0  0  0
  182.8400  178.7890  143.0570 C   0  0  0  0  0  3  0  0  0  0  0  0
  185.1170  178.3610  143.7910 C   0  0  0  0  0  0  0  0  0  0  0  0
  184.5690  178.3270  141.3020 C   0  0  0  0  0  2  0  0  0  0  0  0
  183.4720  178.5220  140.3440 N   0  0  0  0  0  0  0  0  0  0  0  0
  182.0390  178.6070  137.9220 C   0  0  0  0  0  0  0  0  0  0  0  0
  183.1670  177.2610  139.6640 C   0  0  0  0  0  2  0  0  0  0  0  0
  183.8300  179.5380  139.3490 C   0  0  0  0  0  2  0  0  0  0  0  0
  182.6270  179.8710  138.4710 C   0  0  0  0  0  2  0  0  0  0  0  0
  181.5960  178.5810  136.7860 O   0  0  0  0  0  0  0  0  0  0  0  0
  181.9090  177.4080  138.8090 C   0  0  0  0  0  2  0  0  0  0  0  0
  1 19  2  0  0  0  0
  1 20  1  0  0  0  0
  2  7  1  0  0  0  0
  4 12  1  0  0  0  0
  5 11  1  6  0  0  0
  5 18  1  0  0  0  0
  6  9  2  0  0  0  0
  7  5  1  0  0  0  0
  7  4  2  0  0  0  0
  9  4  1  0  0  0  0
 10 15  1  0  0  0  0
 10 14  1  0  0  0  0
 11 20  1  0  0  0  0
 12  8  1  0  0  0  0
 13 15  2  0  0  0  0
 14  3  1  1  0  0  0
 16  6  1  0  0  0  0
 17  2  2  0  0  0  0
 17  6  1  0  0  0  0
 18 14  1  0  0  0  0
 18  8  1  1  0  0  0
 19 13  1  0  0  0  0
 20 10  2  0  0  0  0
 21  1  1  0  0  0  0
 22 21  1  0  0  0  0
 23 26  1  0  0  0  0
 23 28  1  0  0  0  0
 24 22  1  0  0  0  0
 25 22  1  0  0  0  0
 26 25  1  0  0  0  0
 27 23  2  0  0  0  0
 28 24  1  0  0  0  0
M  END
>  <MODEL>
5

>  <REMARK>
 VINA RESULT:     -10.3      2.770      6.366
  Name = 
  2 active torsions:
  status: ('A' for Active; 'I' for Inactive)
    1  A    between atoms: C_1  and  C_2
    2  A    between atoms: C_2  and  N_3
                            x       y       z     vdW  Elec       q    Type
                         _______ _______ _______ _____ _____    ______ ____

>  <TORSDO>
F 2

$$$$
=
 OpenBabel10272401523D

 28 32  0  0  1  0  0  0  0  0999 V2000
  185.0900  178.8790  144.3720 C   0  0  0  0  0  0  0  0  0  0  0  0
  188.1180  177.6190  140.3160 C   0  0  0  0  0  3  0  0  0  0  0  0
  189.2790  177.6750  146.4820 C   0  0  0  0  0  1  0  0  0  0  0  0
  190.2440  177.1140  141.3790 C   0  0  0  0  0  0  0  0  0  0  0  0
  188.1640  177.3750  142.8250 C   0  0  2  0  0  3  0  0  0  0  0  0
  190.1030  177.3190  138.9660 C   0  0  0  0  0  0  0  0  0  0  0  0
  188.8670  177.4170  141.4860 C   0  0  0  0  0  0  0  0  0  0  0  0
  190.2760  176.4600  143.8000 C   0  0  0  0  0  2  0  0  0  0  0  0
  190.8550  177.0880  140.1210 C   0  0  0  0  0  3  0  0  0  0  0  0
  187.0250  177.7950  145.4060 C   0  0  0  0  0  0  0  0  0  0  0  0
  187.1630  178.5130  142.9790 C   0  0  0  0  0  2  0  0  0  0  0  0
  191.1010  176.8960  142.5940 C   0  0  0  0  0  2  0  0  0  0  0  0
  185.0020  178.1880  146.6950 C   0  0  0  0  0  3  0  0  0  0  0  0
  188.4110  177.1800  145.3330 C   0  0  1  0  0  3  0  0  0  0  0  0
  186.3010  177.6870  146.6020 C   0  0  0  0  0  3  0  0  0  0  0  0
  190.7170  177.2880  137.7210 O   0  0  0  0  0  1  0  0  0  0  0  0
  188.7360  177.5780  139.0640 C   0  0  0  0  0  3  0  0  0  0  0  0
  189.1350  177.4470  144.0070 C   0  0  2  0  0  3  0  0  0  0  0  0
  184.4040  178.7860  145.5880 C   0  0  0  0  0  3  0  0  0  0  0  0
  186.4040  178.3780  144.2710 C   0  0  0  0  0  0  0  0  0  0  0  0
  184.4030  179.5300  143.1940 C   0  0  0  0  0  2  0  0  0  0  0  0
  183.5050  178.6390  142.4440 N   0  0  0  0  0  0  0  0  0  0  0  0
  181.6960  177.7110  140.4980 C   0  0  0  0  0  0  0  0  0  0  0  0
  183.9700  178.5020  141.0620 C   0  0  0  0  0  2  0  0  0  0  0  0
  182.1360  179.1640  142.4490 C   0  0  0  0  0  2  0  0  0  0  0  0
  181.1750  178.1510  141.8320 C   0  0  0  0  0  2  0  0  0  0  0  0
  180.9230  177.5020  139.5770 O   0  0  0  0  0  0  0  0  0  0  0  0
  183.1580  177.4340  140.3300 C   0  0  0  0  0  2  0  0  0  0  0  0
  1 19  1  0  0  0  0
  2  7  1  0  0  0  0
  4  7  2  0  0  0  0
  4 12  1  0  0  0  0
  5 11  1  6  0  0  0
  5 18  1  0  0  0  0
  6 17  1  0  0  0  0
  6  9  2  0  0  0  0
  7  5  1  0  0  0  0
  9  4  1  0  0  0  0
 10 15  2  0  0  0  0
 11 20  1  0  0  0  0
 12  8  1  0  0  0  0
 14 10  1  0  0  0  0
 14  3  1  1  0  0  0
 15 13  1  0  0  0  0
 16  6  1  0  0  0  0
 17  2  2  0  0  0  0
 18  8  1  6  0  0  0
 18 14  1  0  0  0  0
 19 13  2  0  0  0  0
 20  1  2  0  0  0  0
 20 10  1  0  0  0  0
 21  1  1  0  0  0  0
 22 25  1  0  0  0  0
 22 21  1  0  0  0  0
 23 26  1  0  0  0  0
 24 22  1  0  0  0  0
 26 25  1  0  0  0  0
 27 23  2  0  0  0  0
 28 23  1  0  0  0  0
 28 24  1  0  0  0  0
M  END
>  <MODEL>
6

>  <REMARK>
 VINA RESULT:     -10.0      1.906      6.317
  Name = 
  2 active torsions:
  status: ('A' for Active; 'I' for Inactive)
    1  A    between atoms: C_1  and  C_2
    2  A    between atoms: C_2  and  N_3
                            x       y       z     vdW  Elec       q    Type
                         _______ _______ _______ _____ _____    ______ ____

>  <TORSDO>
F 2

$$$$
=
 OpenBabel10272401523D

 28 32  0  0  1  0  0  0  0  0999 V2000
  187.0300  177.7020  145.4040 C   0  0  0  0  0  0  0  0  0  0  0  0
  188.4020  178.0670  140.3840 C   0  0  0  0  0  3  0  0  0  0  0  0
  182.8090  178.5460  143.1870 C   0  0  0  0  0  1  0  0  0  0  0  0
  186.2660  178.3890  139.2740 C   0  0  0  0  0  0  0  0  0  0  0  0
  186.3880  178.5830  141.8100 C   0  0  2  0  0  3  0  0  0  0  0  0
  188.2620  177.9350  137.9730 C   0  0  0  0  0  0  0  0  0  0  0  0
  187.0190  178.2930  140.4670 C   0  0  0  0  0  0  0  0  0  0  0  0
  184.3310  179.3000  140.5850 C   0  0  0  0  0  2  0  0  0  0  0  0
  186.8900  178.1890  138.0380 C   0  0  0  0  0  3  0  0  0  0  0  0
  185.0360  178.6170  144.3210 C   0  0  0  0  0  0  0  0  0  0  0  0
  186.8710  177.6190  142.8860 C   0  0  0  0  0  2  0  0  0  0  0  0
  184.7810  178.6220  139.2950 C   0  0  0  0  0  2  0  0  0  0  0  0
  185.2470  178.6560  146.7430 C   0  0  0  0  0  3  0  0  0  0  0  0
  184.2510  179.0230  143.0860 C   0  0  1  0  0  3  0  0  0  0  0  0
  184.5320  178.9590  145.5840 C   0  0  0  0  0  3  0  0  0  0  0  0
  188.8740  177.7410  136.7420 O   0  0  0  0  0  1  0  0  0  0  0  0
  189.0180  177.8800  139.1450 C   0  0  0  0  0  3  0  0  0  0  0  0
  184.8590  178.5110  141.7740 C   0  0  2  0  0  3  0  0  0  0  0  0
  186.4870  178.0260  146.6520 C   0  0  0  0  0  3  0  0  0  0  0  0
  186.3110  178.0020  144.2290 C   0  0  0  0  0  0  0  0  0  0  0  0
  188.3800  177.0250  145.3490 C   0  0  0  0  0  2  0  0  0  0  0  0
  189.1630  177.3210  144.1400 N   0  0  0  0  0  0  0  0  0  0  0  0
  191.3350  177.5260  142.3620 C   0  0  0  0  0  0  0  0  0  0  0  0
  189.7520  176.0900  143.6080 C   0  0  0  0  0  2  0  0  0  0  0  0
  190.2280  178.2830  144.4390 C   0  0  0  0  0  2  0  0  0  0  0  0
  190.9190  178.7290  143.1530 C   0  0  0  0  0  2  0  0  0  0  0  0
  192.3880  177.5320  141.7470 O   0  0  0  0  0  0  0  0  0  0  0  0
  190.4060  176.3560  142.2520 C   0  0  0  0  0  2  0  0  0  0  0  0
  1 19  1  0  0  0  0
  2  7  1  0  0  0  0
  4 12  1  0  0  0  0
  4  7  2  0  0  0  0
  5 11  1  1  0  0  0
  6  9  2  0  0  0  0
  6 17  1  0  0  0  0
  7  5  1  0  0  0  0
  9  4  1  0  0  0  0
 10 15  2  0  0  0  0
 11 20  1  0  0  0  0
 12  8  1  0  0  0  0
 14  3  1  1  0  0  0
 14 10  1  0  0  0  0
 15 13  1  0  0  0  0
 16  6  1  0  0  0  0
 17  2  2  0  0  0  0
 18  8  1  6  0  0  0
 18  5  1  0  0  0  0
 18 14  1  0  0  0  0
 19 13  2  0  0  0  0
 20 10  1  0  0  0  0
 20  1  2  0  0  0  0
 21  1  1  0  0  0  0
 22 25  1  0  0  0  0
 22 21  1  0  0  0  0
 23 26  1  0  0  0  0
 24 22  1  0  0  0  0
 26 25  1  0  0  0  0
 27 23  2  0  0  0  0
 28 23  1  0  0  0  0
 28 24  1  0  0  0  0
M  END
>  <MODEL>
7

>  <REMARK>
 VINA RESULT:      -9.8      2.239      5.352
  Name = 
  2 active torsions:
  status: ('A' for Active; 'I' for Inactive)
    1  A    between atoms: C_1  and  C_2
    2  A    between atoms: C_2  and  N_3
                            x       y       z     vdW  Elec       q    Type
                         _______ _______ _______ _____ _____    ______ ____

>  <TORSDO>
F 2

$$$$
=
 OpenBabel10272401523D

 28 32  0  0  1  0  0  0  0  0999 V2000
  183.6920  178.9090  142.0140 C   0  0  0  0  0  0  0  0  0  0  0  0
  188.6380  177.4700  141.1910 C   0  0  0  0  0  3  0  0  0  0  0  0
  185.6300  179.1120  146.4470 C   0  0  0  0  0  1  0  0  0  0  0  0
  189.6230  177.6730  143.4020 C   0  0  0  0  0  0  0  0  0  0  0  0
  187.0910  177.7940  143.1560 C   0  0  2  0  0  3  0  0  0  0  0  0
  191.0370  177.3130  141.4640 C   0  0  0  0  0  0  0  0  0  0  0  0
  188.4810  177.6920  142.5680 C   0  0  0  0  0  0  0  0  0  0  0  0
  188.1330  177.5840  145.4180 C   0  0  0  0  0  2  0  0  0  0  0  0
  190.8930  177.5040  142.8410 C   0  0  0  0  0  3  0  0  0  0  0  0
  184.5640  178.5130  144.2660 C   0  0  0  0  0  0  0  0  0  0  0  0
  186.1870  178.6980  142.3270 C   0  0  0  0  0  2  0  0  0  0  0  0
  189.5220  177.9120  144.8830 C   0  0  0  0  0  2  0  0  0  0  0  0
  182.1720  178.7370  143.8970 C   0  0  0  0  0  3  0  0  0  0  0  0
  185.7000  178.2060  145.2250 C   0  0  1  0  0  3  0  0  0  0  0  0
  183.2500  178.5160  144.7540 C   0  0  0  0  0  3  0  0  0  0  0  0
  192.3000  177.1420  140.9150 O   0  0  0  0  0  1  0  0  0  0  0  0
  189.9090  177.2900  140.6420 C   0  0  0  0  0  3  0  0  0  0  0  0
  187.0920  178.3260  144.5910 C   0  0  2  0  0  3  0  0  0  0  0  0
  182.3940  178.9380  142.5350 C   0  0  0  0  0  3  0  0  0  0  0  0
  184.7870  178.6890  142.8750 C   0  0  0  0  0  0  0  0  0  0  0  0
  183.8880  179.1250  140.5310 C   0  0  0  0  0  2  0  0  0  0  0  0
  183.9670  177.8890  139.7400 N   0  0  0  0  0  0  0  0  0  0  0  0
  183.5080  176.0000  137.7040 C   0  0  0  0  0  0  0  0  0  0  0  0
  184.4400  178.1870  138.3860 C   0  0  0  0  0  2  0  0  0  0  0  0
  182.6550  177.2390  139.6660 C   0  0  0  0  0  2  0  0  0  0  0  0
  182.7760  175.8690  139.0050 C   0  0  0  0  0  2  0  0  0  0  0  0
  183.1770  175.3230  136.7440 O   0  0  0  0  0  0  0  0  0  0  0  0
  184.7070  176.8930  137.6180 C   0  0  0  0  0  2  0  0  0  0  0  0
  1 19  2  0  0  0  0
  1 20  1  0  0  0  0
  2  7  1  0  0  0  0
  4 12  1  0  0  0  0
  5 11  1  6  0  0  0
  5 18  1  0  0  0  0
  6  9  2  0  0  0  0
  7  5  1  0  0  0  0
  7  4  2  0  0  0  0
  9  4  1  0  0  0  0
 10 15  1  0  0  0  0
 10 14  1  0  0  0  0
 11 20  1  0  0  0  0
 12  8  1  0  0  0  0
 13 15  2  0  0  0  0
 14  3  1  1  0  0  0
 16  6  1  0  0  0  0
 17  2  2  0  0  0  0
 17  6  1  0  0  0  0
 18 14  1  0  0  0  0
 18  8  1  1  0  0  0
 19 13  1  0  0  0  0
 20 10  2  0  0  0  0
 21  1  1  0  0  0  0
 22 21  1  0  0  0  0
 23 26  1  0  0  0  0
 24 22  1  0  0  0  0
 25 22  1  0  0  0  0
 26 25  1  0  0  0  0
 27 23  2  0  0  0  0
 28 23  1  0  0  0  0
 28 24  1  0  0  0  0
M  END
>  <MODEL>
8

>  <REMARK>
 VINA RESULT:      -9.7      2.849      6.332
  Name = 
  2 active torsions:
  status: ('A' for Active; 'I' for Inactive)
    1  A    between atoms: C_1  and  C_2
    2  A    between atoms: C_2  and  N_3
                            x       y       z     vdW  Elec       q    Type
                         _______ _______ _______ _____ _____    ______ ____

>  <TORSDO>
F 2

$$$$
