=
 OpenBabel10272400413D

 25 27  0  0  1  0  0  0  0  0999 V2000
  187.1550  177.7800  146.0210 C   0  0  0  0  0  0  0  0  0  0  0  0
  188.3600  177.3940  145.3910 C   0  0  0  0  0  0  0  0  0  0  0  0
  188.2120  177.5840  148.1410 C   0  0  0  0  0  3  0  0  0  0  0  0
  189.3800  177.2230  147.5550 N   0  0  0  0  0  0  0  0  0  0  0  0
  190.6980  176.7260  145.6110 C   0  0  0  0  0  0  0  0  0  0  0  0
  191.9040  176.4350  146.4370 C   0  0  0  0  0  1  0  0  0  0  0  0
  188.4710  177.2490  144.0000 C   0  0  0  0  0  3  0  0  0  0  0  0
  187.1210  177.8550  147.3800 N   0  0  0  0  0  0  0  0  0  0  0  0
  190.7850  176.6000  144.2230 C   0  0  0  0  0  3  0  0  0  0  0  0
  189.6740  176.8560  143.4100 C   0  0  0  0  0  0  0  0  0  0  0  0
  189.4840  177.1170  146.2030 C   0  0  0  0  0  0  0  0  0  0  0  0
  185.9150  178.1110  145.2700 C   0  0  0  0  0  0  0  0  0  0  0  0
  183.6160  179.1350  143.9180 C   0  0  0  0  0  3  0  0  0  0  0  0
  184.6980  178.5760  145.9700 C   0  0  0  0  0  0  0  0  0  0  0  0
  183.6290  179.1570  145.2170 N   0  0  0  0  0  0  0  0  0  0  0  0
  184.6770  178.4230  143.1230 C   0  0  0  0  0  2  0  0  0  0  0  0
  184.6010  178.4940  147.2230 O   0  0  0  0  0  0  0  0  0  0  0  0
  185.9090  178.1120  143.9320 C   0  0  0  0  0  3  0  0  0  0  0  0
  189.7330  176.7300  141.9830 N   0  0  0  0  0  2  0  0  0  0  0  0
  189.2000  177.6460  141.0180 C   0  0  0  0  0  0  0  0  0  0  0  0
  188.6130  178.7030  141.3780 O   0  0  0  0  0  0  0  0  0  0  0  0
  189.0170  178.5380  138.6970 C   0  0  0  0  0  1  0  0  0  0  0  0
  189.3700  177.3410  139.5630 C   0  0  1  0  0  3  0  0  0  0  0  0
  190.7670  176.8160  139.2500 C   0  0  0  0  0  2  0  0  0  0  0  0
  190.7210  175.4850  138.8240 O   0  0  0  0  0  1  0  0  0  0  0  0
  1  8  1  0  0  0  0
  2  1  2  0  0  0  0
  2 11  1  0  0  0  0
  4  3  1  0  0  0  0
  5 11  1  0  0  0  0
  5  6  1  0  0  0  0
  7  2  1  0  0  0  0
  8  3  2  0  0  0  0
  9  5  2  0  0  0  0
 10  7  2  0  0  0  0
 10  9  1  0  0  0  0
 11  4  2  0  0  0  0
 12 14  1  0  0  0  0
 12  1  1  0  0  0  0
 13 15  2  0  0  0  0
 14 17  2  0  0  0  0
 15 14  1  0  0  0  0
 16 13  1  0  0  0  0
 16 18  1  0  0  0  0
 18 12  2  0  0  0  0
 19 10  1  0  0  0  0
 20 21  2  0  0  0  0
 20 19  1  0  0  0  0
 23 22  1  6  0  0  0
 23 20  1  0  0  0  0
 24 23  1  0  0  0  0
 25 24  1  0  0  0  0
M  END
>  <MODEL>
1

>  <REMARK>
 VINA RESULT:     -10.1      0.000      0.000
  Name = 
  4 active torsions:
  status: ('A' for Active; 'I' for Inactive)
    1  A    between atoms: C_1  and  C_5
    2  A    between atoms: C_2  and  C_21
    3  A    between atoms: N_6  and  C_23
    4  A    between atoms: C_15  and  C_21
                            x       y       z     vdW  Elec       q    Type
                         _______ _______ _______ _____ _____    ______ ____

>  <TORSDO>
F 4

$$$$
=
 OpenBabel10272400413D

 25 27  0  0  1  0  0  0  0  0999 V2000
  190.6540  176.9500  144.7490 C   0  0  0  0  0  0  0  0  0  0  0  0
  189.4110  177.2960  145.3270 C   0  0  0  0  0  0  0  0  0  0  0  0
  191.5620  176.6230  146.9210 C   0  0  0  0  0  3  0  0  0  0  0  0
  190.3760  176.9410  147.4940 N   0  0  0  0  0  0  0  0  0  0  0  0
  188.0790  177.6210  147.3470 C   0  0  0  0  0  0  0  0  0  0  0  0
  187.9230  177.6070  148.8300 C   0  0  0  0  0  1  0  0  0  0  0  0
  188.3020  177.6780  144.5580 C   0  0  0  0  0  3  0  0  0  0  0  0
  191.6920  176.6310  145.5700 N   0  0  0  0  0  0  0  0  0  0  0  0
  186.9870  177.9890  146.5580 C   0  0  0  0  0  3  0  0  0  0  0  0
  187.0910  178.0230  145.1620 C   0  0  0  0  0  0  0  0  0  0  0  0
  189.2990  177.2790  146.7370 C   0  0  0  0  0  0  0  0  0  0  0  0
  190.8850  176.9170  143.2800 C   0  0  0  0  0  0  0  0  0  0  0  0
  190.9640  177.0360  140.4270 C   0  0  0  0  0  3  0  0  0  0  0  0
  190.1050  176.0140  142.4050 C   0  0  0  0  0  0  0  0  0  0  0  0
  190.1380  176.2050  140.9870 N   0  0  0  0  0  0  0  0  0  0  0  0
  191.9980  177.7880  141.2210 C   0  0  0  0  0  2  0  0  0  0  0  0
  189.3910  175.0980  142.8920 O   0  0  0  0  0  0  0  0  0  0  0  0
  191.7160  177.7900  142.7010 C   0  0  0  0  0  3  0  0  0  0  0  0
  185.9870  178.4010  144.3280 N   0  0  0  0  0  2  0  0  0  0  0  0
  184.6850  178.8130  144.7610 C   0  0  0  0  0  0  0  0  0  0  0  0
  184.4010  178.8880  145.9880 O   0  0  0  0  0  0  0  0  0  0  0  0
  183.9890  178.5560  142.3810 C   0  0  0  0  0  1  0  0  0  0  0  0
  183.6640  179.1760  143.7310 C   0  0  1  0  0  3  0  0  0  0  0  0
  182.2490  178.8260  144.1800 C   0  0  0  0  0  2  0  0  0  0  0  0
  181.2990  179.3250  143.2850 O   0  0  0  0  0  1  0  0  0  0  0  0
  1  2  2  0  0  0  0
  1  8  1  0  0  0  0
  2 11  1  0  0  0  0
  3  4  1  0  0  0  0
  5  6  1  0  0  0  0
  7 10  2  0  0  0  0
  7  2  1  0  0  0  0
  8  3  2  0  0  0  0
  9  5  2  0  0  0  0
 10  9  1  0  0  0  0
 11  5  1  0  0  0  0
 11  4  2  0  0  0  0
 12  1  1  0  0  0  0
 13 15  2  0  0  0  0
 13 16  1  0  0  0  0
 14 17  2  0  0  0  0
 14 12  1  0  0  0  0
 15 14  1  0  0  0  0
 16 18  1  0  0  0  0
 18 12  2  0  0  0  0
 19 20  1  0  0  0  0
 19 10  1  0  0  0  0
 20 21  2  0  0  0  0
 23 22  1  6  0  0  0
 23 24  1  0  0  0  0
 23 20  1  0  0  0  0
 25 24  1  0  0  0  0
M  END
>  <MODEL>
2

>  <REMARK>
 VINA RESULT:     -10.0      1.882      6.005
  Name = 
  4 active torsions:
  status: ('A' for Active; 'I' for Inactive)
    1  A    between atoms: C_1  and  C_5
    2  A    between atoms: C_2  and  C_21
    3  A    between atoms: N_6  and  C_23
    4  A    between atoms: C_15  and  C_21
                            x       y       z     vdW  Elec       q    Type
                         _______ _______ _______ _____ _____    ______ ____

>  <TORSDO>
F 4

$$$$
=
 OpenBabel10272400413D

 25 27  0  0  1  0  0  0  0  0999 V2000
  183.6030  178.3700  142.0780 C   0  0  0  0  0  0  0  0  0  0  0  0
  184.7280  178.2140  142.9210 C   0  0  0  0  0  0  0  0  0  0  0  0
  182.3570  179.2170  143.9160 C   0  0  0  0  0  3  0  0  0  0  0  0
  183.4270  179.0850  144.7370 N   0  0  0  0  0  0  0  0  0  0  0  0
  185.7050  178.4460  145.1460 C   0  0  0  0  0  0  0  0  0  0  0  0
  185.6150  178.8420  146.5800 C   0  0  0  0  0  1  0  0  0  0  0  0
  185.9410  177.6750  142.4660 C   0  0  0  0  0  3  0  0  0  0  0  0
  182.4500  178.8620  142.6100 N   0  0  0  0  0  0  0  0  0  0  0  0
  186.9040  177.9170  144.6660 C   0  0  0  0  0  3  0  0  0  0  0  0
  187.0300  177.5250  143.3280 C   0  0  0  0  0  0  0  0  0  0  0  0
  184.6080  178.5910  144.2780 C   0  0  0  0  0  0  0  0  0  0  0  0
  183.6170  178.0220  140.6320 C   0  0  0  0  0  0  0  0  0  0  0  0
  184.0270  177.2270  137.9190 C   0  0  0  0  0  3  0  0  0  0  0  0
  184.4190  178.8050  139.6660 C   0  0  0  0  0  0  0  0  0  0  0  0
  184.6450  178.2850  138.3530 N   0  0  0  0  0  0  0  0  0  0  0  0
  182.9720  176.5310  138.7360 C   0  0  0  0  0  2  0  0  0  0  0  0
  184.9290  179.9090  139.9930 O   0  0  0  0  0  0  0  0  0  0  0  0
  183.0020  176.9190  140.1910 C   0  0  0  0  0  3  0  0  0  0  0  0
  188.2480  176.9740  142.8090 N   0  0  0  0  0  2  0  0  0  0  0  0
  189.0600  177.5220  141.7620 C   0  0  0  0  0  0  0  0  0  0  0  0
  188.7470  178.6030  141.1940 O   0  0  0  0  0  0  0  0  0  0  0  0
  190.4290  176.6860  139.8540 C   0  0  0  0  0  1  0  0  0  0  0  0
  190.3070  176.7980  141.3640 C   0  0  1  0  0  3  0  0  0  0  0  0
  191.5530  177.4270  141.9800 C   0  0  0  0  0  2  0  0  0  0  0  0
  191.7550  176.9690  143.2850 O   0  0  0  0  0  1  0  0  0  0  0  0
  1  8  2  0  0  0  0
  1  2  1  0  0  0  0
  2 11  1  0  0  0  0
  3  4  2  0  0  0  0
  5  6  1  0  0  0  0
  7  2  2  0  0  0  0
  7 10  1  0  0  0  0
  8  3  1  0  0  0  0
  9  5  1  0  0  0  0
 10  9  2  0  0  0  0
 11  4  1  0  0  0  0
 11  5  2  0  0  0  0
 12  1  1  0  0  0  0
 13 15  2  0  0  0  0
 13 16  1  0  0  0  0
 14 17  2  0  0  0  0
 14 12  1  0  0  0  0
 15 14  1  0  0  0  0
 16 18  1  0  0  0  0
 18 12  2  0  0  0  0
 19 10  1  0  0  0  0
 20 19  1  0  0  0  0
 21 20  2  0  0  0  0
 23 22  1  6  0  0  0
 23 20  1  0  0  0  0
 23 24  1  0  0  0  0
 24 25  1  0  0  0  0
M  END
>  <MODEL>
3

>  <REMARK>
 VINA RESULT:      -9.3      2.892      5.052
  Name = 
  4 active torsions:
  status: ('A' for Active; 'I' for Inactive)
    1  A    between atoms: C_1  and  C_5
    2  A    between atoms: C_2  and  C_21
    3  A    between atoms: N_6  and  C_23
    4  A    between atoms: C_15  and  C_21
                            x       y       z     vdW  Elec       q    Type
                         _______ _______ _______ _____ _____    ______ ____

>  <TORSDO>
F 4

$$$$
=
 OpenBabel10272400413D

 25 27  0  0  1  0  0  0  0  0999 V2000
  187.7320  177.8080  144.5300 C   0  0  0  0  0  0  0  0  0  0  0  0
  186.7270  178.1420  143.5930 C   0  0  0  0  0  0  0  0  0  0  0  0
  186.1400  177.9870  146.2870 C   0  0  0  0  0  3  0  0  0  0  0  0
  185.1610  178.2990  145.4030 N   0  0  0  0  0  0  0  0  0  0  0  0
  184.3950  178.7250  143.1690 C   0  0  0  0  0  0  0  0  0  0  0  0
  183.0030  178.9810  143.6370 C   0  0  0  0  0  1  0  0  0  0  0  0
  186.9880  178.2680  142.2210 C   0  0  0  0  0  3  0  0  0  0  0  0
  187.4030  177.7480  145.8500 N   0  0  0  0  0  0  0  0  0  0  0  0
  184.6780  178.8340  141.8060 C   0  0  0  0  0  3  0  0  0  0  0  0
  185.9730  178.6100  141.3230 C   0  0  0  0  0  0  0  0  0  0  0  0
  185.4180  178.3860  144.0710 C   0  0  0  0  0  0  0  0  0  0  0  0
  189.1380  177.5150  144.1430 C   0  0  0  0  0  0  0  0  0  0  0  0
  191.7270  177.0660  143.0220 C   0  0  0  0  0  3  0  0  0  0  0  0
  189.4700  176.3440  143.3030 C   0  0  0  0  0  0  0  0  0  0  0  0
  190.7690  176.2470  142.7100 N   0  0  0  0  0  0  0  0  0  0  0  0
  191.5610  178.1150  144.0890 C   0  0  0  0  0  2  0  0  0  0  0  0
  188.6170  175.4450  143.0780 O   0  0  0  0  0  0  0  0  0  0  0  0
  190.1200  178.3720  144.4430 C   0  0  0  0  0  3  0  0  0  0  0  0
  186.2940  178.7190  139.9300 N   0  0  0  0  0  2  0  0  0  0  0  0
  187.4410  178.1700  139.2680 C   0  0  0  0  0  0  0  0  0  0  0  0
  188.3000  177.5000  139.9030 O   0  0  0  0  0  0  0  0  0  0  0  0
  189.0020  178.8430  137.4440 C   0  0  0  0  0  1  0  0  0  0  0  0
  187.5960  178.3870  137.7960 C   0  0  1  0  0  3  0  0  0  0  0  0
  187.1890  177.1560  136.9920 C   0  0  0  0  0  2  0  0  0  0  0  0
  185.8000  177.0110  136.9610 O   0  0  0  0  0  1  0  0  0  0  0  0
  1  8  1  0  0  0  0
  2 11  1  0  0  0  0
  2  1  2  0  0  0  0
  4  3  1  0  0  0  0
  5  6  1  0  0  0  0
  5 11  1  0  0  0  0
  7  2  1  0  0  0  0
  8  3  2  0  0  0  0
  9  5  2  0  0  0  0
 10  9  1  0  0  0  0
 10  7  2  0  0  0  0
 11  4  2  0  0  0  0
 12 18  2  0  0  0  0
 12  1  1  0  0  0  0
 13 16  1  0  0  0  0
 14 12  1  0  0  0  0
 15 13  2  0  0  0  0
 15 14  1  0  0  0  0
 16 18  1  0  0  0  0
 17 14  2  0  0  0  0
 19 10  1  0  0  0  0
 20 21  2  0  0  0  0
 20 19  1  0  0  0  0
 23 22  1  1  0  0  0
 23 20  1  0  0  0  0
 24 23  1  0  0  0  0
 25 24  1  0  0  0  0
M  END
>  <MODEL>
4

>  <REMARK>
 VINA RESULT:      -9.2      2.286      5.155
  Name = 
  4 active torsions:
  status: ('A' for Active; 'I' for Inactive)
    1  A    between atoms: C_1  and  C_5
    2  A    between atoms: C_2  and  C_21
    3  A    between atoms: N_6  and  C_23
    4  A    between atoms: C_15  and  C_21
                            x       y       z     vdW  Elec       q    Type
                         _______ _______ _______ _____ _____    ______ ____

>  <TORSDO>
F 4

$$$$
=
 OpenBabel10272400413D

 25 27  0  0  1  0  0  0  0  0999 V2000
  187.5250  177.7610  145.6950 C   0  0  0  0  0  0  0  0  0  0  0  0
  186.9340  178.0550  144.4440 C   0  0  0  0  0  0  0  0  0  0  0  0
  185.4130  178.0440  146.7480 C   0  0  0  0  0  3  0  0  0  0  0  0
  184.8260  178.3170  145.5570 N   0  0  0  0  0  0  0  0  0  0  0  0
  184.9270  178.6340  143.1800 C   0  0  0  0  0  0  0  0  0  0  0  0
  183.4670  178.9250  143.1020 C   0  0  0  0  0  1  0  0  0  0  0  0
  187.6750  178.1070  143.2540 C   0  0  0  0  0  3  0  0  0  0  0  0
  186.7410  177.7730  146.8080 N   0  0  0  0  0  0  0  0  0  0  0  0
  185.6850  178.6690  142.0080 C   0  0  0  0  0  3  0  0  0  0  0  0
  187.0610  178.4100  142.0360 C   0  0  0  0  0  0  0  0  0  0  0  0
  185.5480  178.3330  144.4050 C   0  0  0  0  0  0  0  0  0  0  0  0
  188.9670  177.4380  145.8550 C   0  0  0  0  0  0  0  0  0  0  0  0
  191.6110  176.4770  146.3520 C   0  0  0  0  0  3  0  0  0  0  0  0
  189.6210  177.5010  147.1800 C   0  0  0  0  0  0  0  0  0  0  0  0
  190.9140  176.9140  147.3570 N   0  0  0  0  0  0  0  0  0  0  0  0
  191.1440  176.6370  144.9300 C   0  0  0  0  0  2  0  0  0  0  0  0
  189.0440  178.0380  148.1620 O   0  0  0  0  0  0  0  0  0  0  0  0
  189.6780  176.9640  144.8250 C   0  0  0  0  0  3  0  0  0  0  0  0
  187.8650  178.4440  140.8490 N   0  0  0  0  0  2  0  0  0  0  0  0
  188.9810  177.5980  140.5450 C   0  0  0  0  0  0  0  0  0  0  0  0
  189.3530  176.6980  141.3460 O   0  0  0  0  0  0  0  0  0  0  0  0
  190.4780  176.5430  138.8530 C   0  0  0  0  0  1  0  0  0  0  0  0
  189.6920  177.7840  139.2420 C   0  0  1  0  0  3  0  0  0  0  0  0
  188.7420  178.2160  138.1300 C   0  0  0  0  0  2  0  0  0  0  0  0
  188.9840  179.5370  137.7450 O   0  0  0  0  0  1  0  0  0  0  0  0
  1 12  1  0  0  0  0
  1  8  1  0  0  0  0
  2  1  2  0  0  0  0
  3  8  2  0  0  0  0
  4  3  1  0  0  0  0
  5 11  1  0  0  0  0
  6  5  1  0  0  0  0
  7  2  1  0  0  0  0
  9 10  1  0  0  0  0
  9  5  2  0  0  0  0
 10  7  2  0  0  0  0
 11  2  1  0  0  0  0
 11  4  2  0  0  0  0
 12 14  1  0  0  0  0
 13 15  2  0  0  0  0
 14 15  1  0  0  0  0
 14 17  2  0  0  0  0
 16 13  1  0  0  0  0
 18 16  1  0  0  0  0
 18 12  2  0  0  0  0
 19 10  1  0  0  0  0
 20 19  1  0  0  0  0
 20 21  2  0  0  0  0
 23 22  1  6  0  0  0
 23 20  1  0  0  0  0
 24 23  1  0  0  0  0
 25 24  1  0  0  0  0
M  END
>  <MODEL>
5

>  <REMARK>
 VINA RESULT:      -9.2      1.690      4.685
  Name = 
  4 active torsions:
  status: ('A' for Active; 'I' for Inactive)
    1  A    between atoms: C_1  and  C_5
    2  A    between atoms: C_2  and  C_21
    3  A    between atoms: N_6  and  C_23
    4  A    between atoms: C_15  and  C_21
                            x       y       z     vdW  Elec       q    Type
                         _______ _______ _______ _____ _____    ______ ____

>  <TORSDO>
F 4

$$$$
=
 OpenBabel10272400413D

 25 27  0  0  1  0  0  0  0  0999 V2000
  187.2110  178.1940  141.0110 C   0  0  0  0  0  0  0  0  0  0  0  0
  186.6310  178.2200  142.3000 C   0  0  0  0  0  0  0  0  0  0  0  0
  185.1800  179.0180  140.0920 C   0  0  0  0  0  3  0  0  0  0  0  0
  184.6100  179.0600  141.3200 N   0  0  0  0  0  0  0  0  0  0  0  0
  184.6870  178.7060  143.6930 C   0  0  0  0  0  0  0  0  0  0  0  0
  183.2840  179.1830  143.8640 C   0  0  0  0  0  1  0  0  0  0  0  0
  187.3190  177.7900  143.4450 C   0  0  0  0  0  3  0  0  0  0  0  0
  186.4600  178.5890  139.9470 N   0  0  0  0  0  0  0  0  0  0  0  0
  185.3960  178.2820  144.8180 C   0  0  0  0  0  3  0  0  0  0  0  0
  186.7130  177.8190  144.7030 C   0  0  0  0  0  0  0  0  0  0  0  0
  185.2970  178.6710  142.4270 C   0  0  0  0  0  0  0  0  0  0  0  0
  188.6100  177.7550  140.7580 C   0  0  0  0  0  0  0  0  0  0  0  0
  191.3290  177.2500  140.0450 C   0  0  0  0  0  3  0  0  0  0  0  0
  189.0240  177.2510  139.4300 C   0  0  0  0  0  0  0  0  0  0  0  0
  190.4160  177.1120  139.1310 N   0  0  0  0  0  0  0  0  0  0  0  0
  190.9810  177.4800  141.4910 C   0  0  0  0  0  2  0  0  0  0  0  0
  188.1690  176.9690  138.5490 O   0  0  0  0  0  0  0  0  0  0  0  0
  189.5550  177.9210  141.6900 C   0  0  0  0  0  3  0  0  0  0  0  0
  187.4640  177.3740  145.8400 N   0  0  0  0  0  2  0  0  0  0  0  0
  188.8490  177.6280  146.1070 C   0  0  0  0  0  0  0  0  0  0  0  0
  189.5490  178.3160  145.3140 O   0  0  0  0  0  0  0  0  0  0  0  0
  190.8930  176.6430  147.1400 C   0  0  0  0  0  1  0  0  0  0  0  0
  189.4540  177.0800  147.3600 C   0  0  1  0  0  3  0  0  0  0  0  0
  189.3400  178.0590  148.5240 C   0  0  0  0  0  2  0  0  0  0  0  0
  188.0480  178.0580  149.0570 O   0  0  0  0  0  1  0  0  0  0  0  0
  1  2  1  0  0  0  0
  2 11  2  0  0  0  0
  2  7  1  0  0  0  0
  3  4  2  0  0  0  0
  4 11  1  0  0  0  0
  5  6  1  0  0  0  0
  5  9  2  0  0  0  0
  7 10  2  0  0  0  0
  8  3  1  0  0  0  0
  8  1  2  0  0  0  0
 10  9  1  0  0  0  0
 10 19  1  0  0  0  0
 11  5  1  0  0  0  0
 12  1  1  0  0  0  0
 12 18  2  0  0  0  0
 13 16  1  0  0  0  0
 14 12  1  0  0  0  0
 15 14  1  0  0  0  0
 15 13  2  0  0  0  0
 16 18  1  0  0  0  0
 17 14  2  0  0  0  0
 19 20  1  0  0  0  0
 20 23  1  0  0  0  0
 21 20  2  0  0  0  0
 23 22  1  6  0  0  0
 23 24  1  0  0  0  0
 24 25  1  0  0  0  0
M  END
>  <MODEL>
6

>  <REMARK>
 VINA RESULT:      -9.1      2.189      7.117
  Name = 
  4 active torsions:
  status: ('A' for Active; 'I' for Inactive)
    1  A    between atoms: C_1  and  C_5
    2  A    between atoms: C_2  and  C_21
    3  A    between atoms: N_6  and  C_23
    4  A    between atoms: C_15  and  C_21
                            x       y       z     vdW  Elec       q    Type
                         _______ _______ _______ _____ _____    ______ ____

>  <TORSDO>
F 4

$$$$
=
 OpenBabel10272400413D

 25 27  0  0  1  0  0  0  0  0999 V2000
  188.3740  177.6020  144.8940 C   0  0  0  0  0  0  0  0  0  0  0  0
  187.1060  178.0430  144.4520 C   0  0  0  0  0  0  0  0  0  0  0  0
  187.5530  177.5060  147.1230 C   0  0  0  0  0  3  0  0  0  0  0  0
  186.3280  177.9180  146.7170 N   0  0  0  0  0  0  0  0  0  0  0  0
  184.8030  178.6340  145.0070 C   0  0  0  0  0  0  0  0  0  0  0  0
  183.6930  178.7960  145.9890 C   0  0  0  0  0  1  0  0  0  0  0  0
  186.8430  178.3630  143.1110 C   0  0  0  0  0  3  0  0  0  0  0  0
  188.5560  177.3540  146.2200 N   0  0  0  0  0  0  0  0  0  0  0  0
  184.5650  178.9360  143.6650 C   0  0  0  0  0  3  0  0  0  0  0  0
  185.5810  178.8060  142.7100 C   0  0  0  0  0  0  0  0  0  0  0  0
  186.0760  178.1930  145.4100 C   0  0  0  0  0  0  0  0  0  0  0  0
  189.5260  177.3930  143.9770 C   0  0  0  0  0  0  0  0  0  0  0  0
  191.4930  177.1380  141.9220 C   0  0  0  0  0  3  0  0  0  0  0  0
  189.5060  176.3200  142.9590 C   0  0  0  0  0  0  0  0  0  0  0  0
  190.4830  176.3220  141.9130 N   0  0  0  0  0  0  0  0  0  0  0  0
  191.7520  178.0730  143.0720 C   0  0  0  0  0  2  0  0  0  0  0  0
  188.6250  175.4200  142.9830 O   0  0  0  0  0  0  0  0  0  0  0  0
  190.5550  178.2480  143.9690 C   0  0  0  0  0  3  0  0  0  0  0  0
  185.3670  179.1120  141.3260 N   0  0  0  0  0  2  0  0  0  0  0  0
  184.3750  178.5380  140.4640 C   0  0  0  0  0  0  0  0  0  0  0  0
  183.5620  177.6760  140.8920 O   0  0  0  0  0  0  0  0  0  0  0  0
  185.0350  178.0430  138.1110 C   0  0  0  0  0  1  0  0  0  0  0  0
  184.3050  178.9970  139.0420 C   0  0  1  0  0  3  0  0  0  0  0  0
  182.8680  179.2300  138.5880 C   0  0  0  0  0  2  0  0  0  0  0  0
  182.4800  180.5550  138.8050 O   0  0  0  0  0  1  0  0  0  0  0  0
  1  8  1  0  0  0  0
  2  1  2  0  0  0  0
  2 11  1  0  0  0  0
  4  3  1  0  0  0  0
  5 11  1  0  0  0  0
  5  6  1  0  0  0  0
  7  2  1  0  0  0  0
  8  3  2  0  0  0  0
  9  5  2  0  0  0  0
 10  7  2  0  0  0  0
 10  9  1  0  0  0  0
 11  4  2  0  0  0  0
 12  1  1  0  0  0  0
 13 16  1  0  0  0  0
 14 17  2  0  0  0  0
 14 12  1  0  0  0  0
 15 13  2  0  0  0  0
 15 14  1  0  0  0  0
 16 18  1  0  0  0  0
 18 12  2  0  0  0  0
 19 10  1  0  0  0  0
 20 21  2  0  0  0  0
 20 19  1  0  0  0  0
 23 22  1  6  0  0  0
 23 20  1  0  0  0  0
 24 25  1  0  0  0  0
 24 23  1  0  0  0  0
M  END
>  <MODEL>
7

>  <REMARK>
 VINA RESULT:      -9.1      2.817      5.673
  Name = 
  4 active torsions:
  status: ('A' for Active; 'I' for Inactive)
    1  A    between atoms: C_1  and  C_5
    2  A    between atoms: C_2  and  C_21
    3  A    between atoms: N_6  and  C_23
    4  A    between atoms: C_15  and  C_21
                            x       y       z     vdW  Elec       q    Type
                         _______ _______ _______ _____ _____    ______ ____

>  <TORSDO>
F 4

$$$$
=
 OpenBabel10272400413D

 25 27  0  0  1  0  0  0  0  0999 V2000
  187.5460  178.3110  140.8180 C   0  0  0  0  0  0  0  0  0  0  0  0
  188.8340  178.0270  141.3290 C   0  0  0  0  0  0  0  0  0  0  0  0
  188.4020  178.1650  138.6050 C   0  0  0  0  0  3  0  0  0  0  0  0
  189.6410  177.8820  139.0750 N   0  0  0  0  0  0  0  0  0  0  0  0
  191.1820  177.5290  140.8820 C   0  0  0  0  0  0  0  0  0  0  0  0
  192.3130  177.2870  139.9410 C   0  0  0  0  0  1  0  0  0  0  0  0
  189.1070  177.9830  142.7040 C   0  0  0  0  0  3  0  0  0  0  0  0
  187.3760  178.3770  139.4690 N   0  0  0  0  0  0  0  0  0  0  0  0
  191.4250  177.4810  142.2560 C   0  0  0  0  0  3  0  0  0  0  0  0
  190.3930  177.7100  143.1740 C   0  0  0  0  0  0  0  0  0  0  0  0
  189.8870  177.8100  140.4100 C   0  0  0  0  0  0  0  0  0  0  0  0
  186.3610  178.5410  141.6870 C   0  0  0  0  0  0  0  0  0  0  0  0
  183.9200  178.6600  143.1660 C   0  0  0  0  0  3  0  0  0  0  0  0
  185.0950  179.0640  141.1280 C   0  0  0  0  0  0  0  0  0  0  0  0
  183.9000  179.0020  141.9130 N   0  0  0  0  0  0  0  0  0  0  0  0
  185.2080  178.3900  143.8970 C   0  0  0  0  0  2  0  0  0  0  0  0
  185.0470  179.5350  139.9620 O   0  0  0  0  0  0  0  0  0  0  0  0
  186.3740  178.1650  142.9710 C   0  0  0  0  0  3  0  0  0  0  0  0
  190.6150  177.6700  144.5910 N   0  0  0  0  0  2  0  0  0  0  0  0
  191.3300  176.6650  145.3200 C   0  0  0  0  0  0  0  0  0  0  0  0
  191.8600  175.6850  144.7280 O   0  0  0  0  0  0  0  0  0  0  0  0
  190.1000  176.9140  147.4740 C   0  0  0  0  0  1  0  0  0  0  0  0
  191.4600  176.8050  146.8030 C   0  0  1  0  0  3  0  0  0  0  0  0
  192.2960  175.6850  147.4120 C   0  0  0  0  0  2  0  0  0  0  0  0
  193.1050  176.1650  148.4460 O   0  0  0  0  0  1  0  0  0  0  0  0
  1  2  1  0  0  0  0
  1 12  1  0  0  0  0
  2  7  1  0  0  0  0
  3  4  2  0  0  0  0
  3  8  1  0  0  0  0
  4 11  1  0  0  0  0
  5  9  2  0  0  0  0
  6  5  1  0  0  0  0
  7 10  2  0  0  0  0
  8  1  2  0  0  0  0
  9 10  1  0  0  0  0
 10 19  1  0  0  0  0
 11  5  1  0  0  0  0
 11  2  2  0  0  0  0
 12 18  2  0  0  0  0
 13 16  1  0  0  0  0
 14 12  1  0  0  0  0
 14 15  1  0  0  0  0
 15 13  2  0  0  0  0
 17 14  2  0  0  0  0
 18 16  1  0  0  0  0
 19 20  1  0  0  0  0
 20 23  1  0  0  0  0
 21 20  2  0  0  0  0
 23 24  1  0  0  0  0
 23 22  1  1  0  0  0
 24 25  1  0  0  0  0
M  END
>  <MODEL>
8

>  <REMARK>
 VINA RESULT:      -9.0      2.848      5.851
  Name = 
  4 active torsions:
  status: ('A' for Active; 'I' for Inactive)
    1  A    between atoms: C_1  and  C_5
    2  A    between atoms: C_2  and  C_21
    3  A    between atoms: N_6  and  C_23
    4  A    between atoms: C_15  and  C_21
                            x       y       z     vdW  Elec       q    Type
                         _______ _______ _______ _____ _____    ______ ____

>  <TORSDO>
F 4

$$$$
=
 OpenBabel10272400413D

 25 27  0  0  1  0  0  0  0  0999 V2000
  186.9190  177.7020  145.4520 C   0  0  0  0  0  0  0  0  0  0  0  0
  188.0940  177.5610  144.6770 C   0  0  0  0  0  0  0  0  0  0  0  0
  188.1550  177.1560  147.4070 C   0  0  0  0  0  3  0  0  0  0  0  0
  189.2940  177.0270  146.6830 N   0  0  0  0  0  0  0  0  0  0  0  0
  190.4820  177.0630  144.5980 C   0  0  0  0  0  0  0  0  0  0  0  0
  191.7690  176.7080  145.2630 C   0  0  0  0  0  1  0  0  0  0  0  0
  188.1010  177.7210  143.2830 C   0  0  0  0  0  3  0  0  0  0  0  0
  186.9900  177.4870  146.7940 N   0  0  0  0  0  0  0  0  0  0  0  0
  190.4650  177.2390  143.2130 C   0  0  0  0  0  3  0  0  0  0  0  0
  189.2770  177.5650  142.5470 C   0  0  0  0  0  0  0  0  0  0  0  0
  189.2960  177.2160  145.3370 C   0  0  0  0  0  0  0  0  0  0  0  0
  185.6030  178.0760  144.8700 C   0  0  0  0  0  0  0  0  0  0  0  0
  183.1810  179.1820  143.8330 C   0  0  0  0  0  3  0  0  0  0  0  0
  184.5050  178.5790  145.7250 C   0  0  0  0  0  0  0  0  0  0  0  0
  183.3670  179.1990  145.1190 N   0  0  0  0  0  0  0  0  0  0  0  0
  184.1040  178.4380  142.9060 C   0  0  0  0  0  2  0  0  0  0  0  0
  184.5720  178.4970  146.9800 O   0  0  0  0  0  0  0  0  0  0  0  0
  185.4200  178.0830  143.5450 C   0  0  0  0  0  3  0  0  0  0  0  0
  189.2290  177.7470  141.1250 N   0  0  0  0  0  2  0  0  0  0  0  0
  190.0170  177.0590  140.1450 C   0  0  0  0  0  0  0  0  0  0  0  0
  190.8550  176.1800  140.4840 O   0  0  0  0  0  0  0  0  0  0  0  0
  189.4730  176.1460  137.8900 C   0  0  0  0  0  1  0  0  0  0  0  0
  189.8150  177.3860  138.6990 C   0  0  1  0  0  3  0  0  0  0  0  0
  188.7760  178.4850  138.5030 C   0  0  0  0  0  2  0  0  0  0  0  0
  188.7930  178.9650  137.1900 O   0  0  0  0  0  1  0  0  0  0  0  0
  1  8  1  0  0  0  0
  2 11  1  0  0  0  0
  2  1  2  0  0  0  0
  4  3  1  0  0  0  0
  5  6  1  0  0  0  0
  5 11  1  0  0  0  0
  7  2  1  0  0  0  0
  8  3  2  0  0  0  0
  9  5  2  0  0  0  0
 10  9  1  0  0  0  0
 10  7  2  0  0  0  0
 11  4  2  0  0  0  0
 12  1  1  0  0  0  0
 12 14  1  0  0  0  0
 13 15  2  0  0  0  0
 14 17  2  0  0  0  0
 15 14  1  0  0  0  0
 16 18  1  0  0  0  0
 16 13  1  0  0  0  0
 18 12  2  0  0  0  0
 19 10  1  0  0  0  0
 20 21  2  0  0  0  0
 20 19  1  0  0  0  0
 23 22  1  6  0  0  0
 23 20  1  0  0  0  0
 24 23  1  0  0  0  0
 25 24  1  0  0  0  0
M  END
>  <MODEL>
9

>  <REMARK>
 VINA RESULT:      -9.0      1.247      1.563
  Name = 
  4 active torsions:
  status: ('A' for Active; 'I' for Inactive)
    1  A    between atoms: C_1  and  C_5
    2  A    between atoms: C_2  and  C_21
    3  A    between atoms: N_6  and  C_23
    4  A    between atoms: C_15  and  C_21
                            x       y       z     vdW  Elec       q    Type
                         _______ _______ _______ _____ _____    ______ ____

>  <TORSDO>
F 4

$$$$
