=
 OpenBabel10272413363D

 32 36  0  0  1  0  0  0  0  0999 V2000
  187.0310  177.6390  144.2370 C   0  0  0  0  0  0  0  0  0  0  0  0
  183.7980  178.3280  140.5130 C   0  0  2  0  0  3  0  0  0  0  0  0
  183.4200  177.7640  138.1010 C   0  0  0  0  0  0  0  0  0  0  0  0
  182.5860  177.9040  136.9160 C   0  0  0  0  0  0  0  0  0  0  0  0
  185.8120  178.8690  141.9620 C   0  0  1  0  0  3  0  0  0  0  0  0
  183.6530  178.5320  143.0240 C   0  0  0  0  0  2  0  0  0  0  0  0
  181.0260  178.7820  135.6320 N   0  0  0  0  0  0  0  0  0  0  0  0
  185.6080  178.1080  144.2450 C   0  0  0  0  0  2  0  0  0  0  0  0
  183.0530  178.9840  141.6830 C   0  0  2  0  0  3  0  0  0  0  0  0
  181.5360  178.7370  141.6070 C   0  0  2  0  0  3  0  0  0  0  0  0
  182.0040  179.5460  139.2310 C   0  0  2  0  0  3  0  0  0  0  0  0
  181.5720  177.7380  134.9730 C   0  0  0  0  0  3  0  0  0  0  0  0
  187.6960  177.4060  142.9120 C   0  0  0  0  0  2  0  0  0  0  0  0
  185.0310  178.0290  142.9020 N   0  0  2  0  0  0  0  0  0  0  0  0
  182.5660  177.1520  135.7550 C   0  0  0  0  0  3  0  0  0  0  0  0
  187.3130  178.5240  141.9430 C   0  0  0  0  0  2  0  0  0  0  0  0
  187.6570  177.4230  145.3980 C   0  0  0  0  0  3  0  0  0  0  0  0
  180.9350  179.0430  140.2150 C   0  0  1  0  0  3  0  0  0  0  0  0
  181.4490  179.9490  137.8440 C   0  0  0  0  0  2  0  0  0  0  0  0
  185.2640  178.7610  140.5300 C   0  0  0  0  0  2  0  0  0  0  0  0
  184.3280  176.8890  138.1460 O   0  0  0  0  0  0  0  0  0  0  0  0
  179.9820  179.6520  135.1190 C   0  0  0  0  0  1  0  0  0  0  0  0
  183.1680  178.6330  139.2230 N   0  0  0  0  0  0  0  0  0  0  0  0
  181.6360  178.8720  136.8210 C   0  0  0  0  0  0  0  0  0  0  0  0
  180.0670  178.6050  143.2610 C   0  0  0  0  0  1  0  0  0  0  0  0
  180.8800  179.5070  142.5710 O   0  0  0  0  0  0  0  0  0  0  0  0
  180.7110  176.5610  140.3950 C   0  0  0  0  0  1  0  0  0  0  0  0
  180.2270  177.8050  139.6760 C   0  0  0  0  0  2  0  0  0  0  0  0
  189.0730  176.9440  145.4790 C   0  0  0  0  0  2  0  0  0  0  0  0
  189.5510  177.0190  146.8860 C   0  0  0  0  0  0  0  0  0  0  0  0
  190.8630  176.6820  147.1930 O   0  0  0  0  0  0  0  0  0  0  0  0
  188.7580  177.3590  147.8020 O   0  0  0  0  0  1  0  0  0  0  0  0
  1  8  1  0  0  0  0
  1 17  2  0  0  0  0
  2 20  1  6  0  0  0
  2  9  1  0  0  0  0
  3 21  2  0  0  0  0
  3 23  1  0  0  0  0
  4  3  1  0  0  0  0
  5 20  1  6  0  0  0
  5 14  1  0  0  0  0
  7 24  1  0  0  0  0
  9  6  1  1  0  0  0
 10  9  1  0  0  0  0
 10 26  1  1  0  0  0
 11 19  1  6  0  0  0
 11 18  1  0  0  0  0
 12  7  1  0  0  0  0
 12 15  2  0  0  0  0
 13  1  1  0  0  0  0
 14  6  1  1  0  0  0
 14  8  1  0  0  0  0
 15  4  1  0  0  0  0
 16  5  1  0  0  0  0
 16 13  1  0  0  0  0
 17 29  1  0  0  0  0
 18 28  1  6  0  0  0
 18 10  1  0  0  0  0
 22  7  1  0  0  0  0
 23 11  1  0  0  0  0
 23  2  1  0  0  0  0
 24  4  2  0  0  0  0
 24 19  1  0  0  0  0
 26 25  1  0  0  0  0
 28 27  1  0  0  0  0
 29 30  1  0  0  0  0
 30 31  2  0  0  0  0
 30 32  1  0  0  0  0
M  END
>  <MODEL>
1

>  <REMARK>
 VINA RESULT:      -7.6      0.000      0.000
  Name = 
  4 active torsions:
  status: ('A' for Active; 'I' for Inactive)
    1  A    between atoms: C_1  and  C_10
    2  A    between atoms: C_10  and  C_24
    3  A    between atoms: O_13  and  C_15
    4  A    between atoms: C_25  and  C_26
                            x       y       z     vdW  Elec       q    Type
                         _______ _______ _______ _____ _____    ______ ____

>  <TORSDO>
F 4

$$$$
=
 OpenBabel10272413363D

 32 36  0  0  1  0  0  0  0  0999 V2000
  188.8920  177.4360  144.0630 C   0  0  0  0  0  0  0  0  0  0  0  0
  185.1290  178.2420  140.9020 C   0  0  2  0  0  3  0  0  0  0  0  0
  184.3820  177.7520  138.5620 C   0  0  0  0  0  0  0  0  0  0  0  0
  183.3760  177.9300  137.5230 C   0  0  0  0  0  0  0  0  0  0  0  0
  187.3450  178.7360  142.0400 C   0  0  1  0  0  3  0  0  0  0  0  0
  185.3730  178.3710  143.4100 C   0  0  0  0  0  2  0  0  0  0  0  0
  181.6430  178.8480  136.5210 N   0  0  0  0  0  0  0  0  0  0  0  0
  187.4890  177.9060  144.3030 C   0  0  0  0  0  2  0  0  0  0  0  0
  184.5770  178.8630  142.1920 C   0  0  2  0  0  3  0  0  0  0  0  0
  183.0650  178.6210  142.3420 C   0  0  2  0  0  3  0  0  0  0  0  0
  183.1670  179.5020  139.9480 C   0  0  2  0  0  3  0  0  0  0  0  0
  182.0750  177.8240  135.7550 C   0  0  0  0  0  3  0  0  0  0  0  0
  189.3440  177.2420  142.6450 C   0  0  0  0  0  2  0  0  0  0  0  0
  186.7120  177.8700  143.0630 N   0  0  2  0  0  0  0  0  0  0  0  0
  183.1740  177.2130  136.3570 C   0  0  0  0  0  3  0  0  0  0  0  0
  188.8240  178.3900  141.7800 C   0  0  0  0  0  2  0  0  0  0  0  0
  189.6870  177.1840  145.1060 C   0  0  0  0  0  3  0  0  0  0  0  0
  182.2590  178.9710  141.0690 C   0  0  1  0  0  3  0  0  0  0  0  0
  182.4080  179.9470  138.6750 C   0  0  0  0  0  2  0  0  0  0  0  0
  186.5830  178.6730  140.7070 C   0  0  0  0  0  2  0  0  0  0  0  0
  185.2800  176.8750  138.4400 O   0  0  0  0  0  0  0  0  0  0  0  0
  180.5380  179.7350  136.2010 C   0  0  0  0  0  1  0  0  0  0  0  0
  184.3100  178.5870  139.7340 N   0  0  0  0  0  0  0  0  0  0  0  0
  182.4290  178.9010  137.6040 C   0  0  0  0  0  0  0  0  0  0  0  0
  181.6930  178.4990  144.0790 C   0  0  0  0  0  1  0  0  0  0  0  0
  182.5690  179.3630  143.4190 O   0  0  0  0  0  0  0  0  0  0  0  0
  179.9820  177.9750  140.8030 C   0  0  0  0  0  1  0  0  0  0  0  0
  181.4690  177.7500  140.6090 C   0  0  0  0  0  2  0  0  0  0  0  0
  191.0960  176.7010  144.9550 C   0  0  0  0  0  2  0  0  0  0  0  0
  191.6770  176.4130  146.2940 C   0  0  0  0  0  0  0  0  0  0  0  0
  192.3290  175.2080  146.5230 O   0  0  0  0  0  0  0  0  0  0  0  0
  191.5510  177.2470  147.2270 O   0  0  0  0  0  1  0  0  0  0  0  0
  1  8  1  0  0  0  0
  1 17  2  0  0  0  0
  2 20  1  6  0  0  0
  2  9  1  0  0  0  0
  3 23  1  0  0  0  0
  4 24  2  0  0  0  0
  4  3  1  0  0  0  0
  5 20  1  6  0  0  0
  5 14  1  0  0  0  0
  7 24  1  0  0  0  0
  9 10  1  0  0  0  0
  9  6  1  1  0  0  0
 10 26  1  1  0  0  0
 11 19  1  6  0  0  0
 11 18  1  0  0  0  0
 12 15  2  0  0  0  0
 12  7  1  0  0  0  0
 13  1  1  0  0  0  0
 14  6  1  1  0  0  0
 14  8  1  0  0  0  0
 15  4  1  0  0  0  0
 16  5  1  0  0  0  0
 16 13  1  0  0  0  0
 18 28  1  6  0  0  0
 18 10  1  0  0  0  0
 21  3  2  0  0  0  0
 22  7  1  0  0  0  0
 23 11  1  0  0  0  0
 23  2  1  0  0  0  0
 24 19  1  0  0  0  0
 26 25  1  0  0  0  0
 28 27  1  0  0  0  0
 29 17  1  0  0  0  0
 29 30  1  0  0  0  0
 30 31  2  0  0  0  0
 30 32  1  0  0  0  0
M  END
>  <MODEL>
2

>  <REMARK>
 VINA RESULT:      -6.8      1.307      1.629
  Name = 
  4 active torsions:
  status: ('A' for Active; 'I' for Inactive)
    1  A    between atoms: C_1  and  C_10
    2  A    between atoms: C_10  and  C_24
    3  A    between atoms: O_13  and  C_15
    4  A    between atoms: C_25  and  C_26
                            x       y       z     vdW  Elec       q    Type
                         _______ _______ _______ _____ _____    ______ ____

>  <TORSDO>
F 4

$$$$
=
 OpenBabel10272413363D

 32 36  0  0  1  0  0  0  0  0999 V2000
  187.6680  177.6600  145.8230 C   0  0  0  0  0  0  0  0  0  0  0  0
  188.3250  177.6930  140.8880 C   0  0  2  0  0  3  0  0  0  0  0  0
  189.7210  176.6650  139.0780 C   0  0  0  0  0  0  0  0  0  0  0  0
  190.0460  176.5920  137.6600 C   0  0  0  0  0  0  0  0  0  0  0  0
  188.7150  178.4450  143.2810 C   0  0  1  0  0  3  0  0  0  0  0  0
  186.4470  178.4070  142.4140 C   0  0  0  0  0  2  0  0  0  0  0  0
  190.0870  177.2450  135.5570 N   0  0  0  0  0  0  0  0  0  0  0  0
  186.7940  178.1700  144.7190 C   0  0  0  0  0  2  0  0  0  0  0  0
  187.0950  178.5980  141.0330 C   0  0  2  0  0  3  0  0  0  0  0  0
  186.0940  178.3940  139.8820 C   0  0  2  0  0  3  0  0  0  0  0  0
  188.2670  178.6880  138.5740 C   0  0  2  0  0  3  0  0  0  0  0  0
  190.7470  176.0710  135.6430 C   0  0  0  0  0  3  0  0  0  0  0  0
  189.0310  177.1400  145.4700 C   0  0  0  0  0  2  0  0  0  0  0  0
  187.3670  177.8410  143.4120 N   0  0  2  0  0  0  0  0  0  0  0  0
  190.7430  175.6210  136.9630 C   0  0  0  0  0  3  0  0  0  0  0  0
  189.6710  178.0510  144.4230 C   0  0  0  0  0  2  0  0  0  0  0  0
  187.2090  177.6610  147.0780 C   0  0  0  0  0  3  0  0  0  0  0  0
  186.7540  178.4330  138.4830 C   0  0  1  0  0  3  0  0  0  0  0  0
  188.9710  178.8210  137.2020 C   0  0  0  0  0  2  0  0  0  0  0  0
  189.3670  178.0690  141.9410 C   0  0  0  0  0  2  0  0  0  0  0  0
  190.1420  175.7860  139.8780 O   0  0  0  0  0  0  0  0  0  0  0  0
  189.9120  178.0300  134.3470 C   0  0  0  0  0  1  0  0  0  0  0  0
  188.8910  177.7520  139.5350 N   0  0  0  0  0  0  0  0  0  0  0  0
  189.6490  177.5530  136.7850 C   0  0  0  0  0  0  0  0  0  0  0  0
  183.8960  178.6480  140.0030 C   0  0  0  0  0  1  0  0  0  0  0  0
  185.0920  179.3660  139.9450 O   0  0  0  0  0  0  0  0  0  0  0  0
  185.1320  177.2360  137.0060 C   0  0  0  0  0  1  0  0  0  0  0  0
  186.4560  177.1370  137.7380 C   0  0  0  0  0  2  0  0  0  0  0  0
  188.0120  177.1600  148.2370 C   0  0  0  0  0  2  0  0  0  0  0  0
  189.3480  177.8140  148.2460 C   0  0  0  0  0  0  0  0  0  0  0  0
  190.4880  177.0670  147.9820 O   0  0  0  0  0  0  0  0  0  0  0  0
  189.4470  179.0360  148.5230 O   0  0  0  0  0  1  0  0  0  0  0  0
  1 17  2  0  0  0  0
  2  9  1  0  0  0  0
  2 20  1  1  0  0  0
  3 23  1  0  0  0  0
  3 21  2  0  0  0  0
  4  3  1  0  0  0  0
  5 20  1  6  0  0  0
  5 14  1  0  0  0  0
  5 16  1  0  0  0  0
  7 12  1  0  0  0  0
  7 24  1  0  0  0  0
  8  1  1  0  0  0  0
  9  6  1  1  0  0  0
 10 26  1  6  0  0  0
 10  9  1  0  0  0  0
 11 19  1  6  0  0  0
 11 23  1  0  0  0  0
 12 15  2  0  0  0  0
 13  1  1  0  0  0  0
 14  6  1  6  0  0  0
 14  8  1  0  0  0  0
 15  4  1  0  0  0  0
 16 13  1  0  0  0  0
 17 29  1  0  0  0  0
 18 28  1  1  0  0  0
 18 11  1  0  0  0  0
 18 10  1  0  0  0  0
 22  7  1  0  0  0  0
 23  2  1  0  0  0  0
 24 19  1  0  0  0  0
 24  4  2  0  0  0  0
 26 25  1  0  0  0  0
 27 28  1  0  0  0  0
 29 30  1  0  0  0  0
 30 32  1  0  0  0  0
 31 30  2  0  0  0  0
M  END
>  <MODEL>
3

>  <REMARK>
 VINA RESULT:      -6.3      3.835      5.566
  Name = 
  4 active torsions:
  status: ('A' for Active; 'I' for Inactive)
    1  A    between atoms: C_1  and  C_10
    2  A    between atoms: C_10  and  C_24
    3  A    between atoms: O_13  and  C_15
    4  A    between atoms: C_25  and  C_26
                            x       y       z     vdW  Elec       q    Type
                         _______ _______ _______ _____ _____    ______ ____

>  <TORSDO>
F 4

$$$$
=
 OpenBabel10272413363D

 32 36  0  0  1  0  0  0  0  0999 V2000
  191.1010  176.5630  138.0280 C   0  0  0  0  0  0  0  0  0  0  0  0
  186.3390  177.9400  138.5010 C   0  0  2  0  0  3  0  0  0  0  0  0
  184.0920  177.6670  137.4270 C   0  0  0  0  0  0  0  0  0  0  0  0
  182.6760  178.0090  137.4210 C   0  0  0  0  0  0  0  0  0  0  0  0
  188.7360  178.1330  137.6850 C   0  0  1  0  0  3  0  0  0  0  0  0
  188.3180  177.8970  140.0670 C   0  0  0  0  0  2  0  0  0  0  0  0
  180.8700  179.1600  137.9350 N   0  0  0  0  0  0  0  0  0  0  0  0
  190.3610  177.1630  139.1860 C   0  0  0  0  0  2  0  0  0  0  0  0
  186.9540  178.5400  139.7730 C   0  0  2  0  0  3  0  0  0  0  0  0
  185.9920  178.4500  140.9720 C   0  0  2  0  0  3  0  0  0  0  0  0
  184.4480  179.4510  139.2020 C   0  0  2  0  0  3  0  0  0  0  0  0
  180.5020  178.1430  137.1280 C   0  0  0  0  0  3  0  0  0  0  0  0
  190.3750  176.4050  136.7240 C   0  0  0  0  0  2  0  0  0  0  0  0
  188.9340  177.2800  138.8820 N   0  0  2  0  0  0  0  0  0  0  0  0
  181.6200  177.3870  136.7800 C   0  0  0  0  0  3  0  0  0  0  0  0
  189.5280  177.6490  136.4560 C   0  0  0  0  0  2  0  0  0  0  0  0
  192.3670  176.1690  138.1920 C   0  0  0  0  0  3  0  0  0  0  0  0
  184.5660  178.9550  140.6520 C   0  0  1  0  0  3  0  0  0  0  0  0
  183.0660  180.0470  138.8450 C   0  0  0  0  0  2  0  0  0  0  0  0
  187.2490  178.2270  137.3070 C   0  0  0  0  0  2  0  0  0  0  0  0
  184.5230  176.7100  136.7290 O   0  0  0  0  0  0  0  0  0  0  0  0
  179.9820  180.1760  138.4740 C   0  0  0  0  0  1  0  0  0  0  0  0
  184.9780  178.4360  138.2650 N   0  0  0  0  0  0  0  0  0  0  0  0
  182.1940  179.0680  138.1220 C   0  0  0  0  0  0  0  0  0  0  0  0
  186.3580  178.3350  143.1550 C   0  0  0  0  0  1  0  0  0  0  0  0
  186.5070  179.1750  142.0500 O   0  0  0  0  0  0  0  0  0  0  0  0
  182.5470  178.3130  141.9780 C   0  0  0  0  0  1  0  0  0  0  0  0
  183.5530  177.8520  140.9420 C   0  0  0  0  0  2  0  0  0  0  0  0
  193.1730  175.5510  137.0930 C   0  0  0  0  0  2  0  0  0  0  0  0
  194.2890  174.7550  137.6720 C   0  0  0  0  0  0  0  0  0  0  0  0
  194.5460  173.4740  137.2000 O   0  0  0  0  0  0  0  0  0  0  0  0
  194.9790  175.2300  138.6100 O   0  0  0  0  0  1  0  0  0  0  0  0
  1 17  2  0  0  0  0
  1  8  1  0  0  0  0
  2 20  1  6  0  0  0
  2  9  1  0  0  0  0
  3 23  1  0  0  0  0
  4  3  1  0  0  0  0
  4 24  2  0  0  0  0
  5 16  1  6  0  0  0
  5 14  1  0  0  0  0
  7 24  1  0  0  0  0
  7 22  1  0  0  0  0
  9  6  1  1  0  0  0
  9 10  1  0  0  0  0
 10 26  1  1  0  0  0
 11 19  1  6  0  0  0
 11 18  1  0  0  0  0
 12  7  1  0  0  0  0
 13  1  1  0  0  0  0
 14  8  1  1  0  0  0
 14  6  1  0  0  0  0
 15 12  2  0  0  0  0
 15  4  1  0  0  0  0
 16 13  1  0  0  0  0
 18 28  1  6  0  0  0
 18 10  1  0  0  0  0
 20  5  1  0  0  0  0
 21  3  2  0  0  0  0
 23  2  1  0  0  0  0
 23 11  1  0  0  0  0
 24 19  1  0  0  0  0
 26 25  1  0  0  0  0
 28 27  1  0  0  0  0
 29 30  1  0  0  0  0
 29 17  1  0  0  0  0
 30 32  1  0  0  0  0
 31 30  2  0  0  0  0
M  END
>  <MODEL>
4

>  <REMARK>
 VINA RESULT:      -6.2      4.555      5.651
  Name = 
  4 active torsions:
  status: ('A' for Active; 'I' for Inactive)
    1  A    between atoms: C_1  and  C_10
    2  A    between atoms: C_10  and  C_24
    3  A    between atoms: O_13  and  C_15
    4  A    between atoms: C_25  and  C_26
                            x       y       z     vdW  Elec       q    Type
                         _______ _______ _______ _____ _____    ______ ____

>  <TORSDO>
F 4

$$$$
=
 OpenBabel10272413363D

 32 36  0  0  1  0  0  0  0  0999 V2000
  186.2140  177.3220  136.6530 C   0  0  0  0  0  0  0  0  0  0  0  0
  188.1450  177.4590  141.2410 C   0  0  2  0  0  3  0  0  0  0  0  0
  187.4910  177.3850  143.6580 C   0  0  0  0  0  0  0  0  0  0  0  0
  187.9070  177.4420  145.0530 C   0  0  0  0  0  0  0  0  0  0  0  0
  187.1540  178.4310  139.1150 C   0  0  1  0  0  3  0  0  0  0  0  0
  189.0900  176.9750  138.9510 C   0  0  0  0  0  2  0  0  0  0  0  0
  189.2480  177.8610  146.7490 N   0  0  0  0  0  0  0  0  0  0  0  0
  187.6200  177.1320  137.1330 C   0  0  0  0  0  2  0  0  0  0  0  0
  189.4150  177.4390  140.3800 C   0  0  2  0  0  3  0  0  0  0  0  0
  190.5330  176.6030  141.0280 C   0  0  2  0  0  3  0  0  0  0  0  0
  189.8440  178.0780  142.9950 C   0  0  2  0  0  3  0  0  0  0  0  0
  188.1050  177.3360  147.2390 C   0  0  0  0  0  3  0  0  0  0  0  0
  185.1670  177.7160  137.6540 C   0  0  0  0  0  2  0  0  0  0  0  0
  187.6720  177.1430  138.5970 N   0  0  2  0  0  0  0  0  0  0  0  0
  187.2270  177.0540  146.1930 C   0  0  0  0  0  3  0  0  0  0  0  0
  185.7380  178.7660  138.6060 C   0  0  0  0  0  2  0  0  0  0  0  0
  185.9270  177.1180  135.3640 C   0  0  0  0  0  3  0  0  0  0  0  0
  190.7750  176.9530  142.5150 C   0  0  1  0  0  3  0  0  0  0  0  0
  190.0950  178.5300  144.4530 C   0  0  0  0  0  2  0  0  0  0  0  0
  187.1420  178.4510  140.6510 C   0  0  0  0  0  2  0  0  0  0  0  0
  186.3330  176.9910  143.3500 O   0  0  0  0  0  0  0  0  0  0  0  0
  190.3810  178.3070  147.5410 C   0  0  0  0  0  1  0  0  0  0  0  0
  188.4400  177.7700  142.6440 N   0  0  0  0  0  0  0  0  0  0  0  0
  189.1290  177.9120  145.4150 C   0  0  0  0  0  0  0  0  0  0  0  0
  192.4530  177.7100  141.0470 C   0  0  0  0  0  1  0  0  0  0  0  0
  191.7250  176.7690  140.3160 O   0  0  0  0  0  0  0  0  0  0  0  0
  191.8890  175.4140  144.1390 C   0  0  0  0  0  1  0  0  0  0  0  0
  190.6140  175.7000  143.3710 C   0  0  0  0  0  2  0  0  0  0  0  0
  184.5480  177.2750  134.8040 C   0  0  0  0  0  2  0  0  0  0  0  0
  183.9360  175.9360  134.5880 C   0  0  0  0  0  0  0  0  0  0  0  0
  184.7300  174.7960  134.6190 O   0  0  0  0  0  1  0  0  0  0  0  0
  182.7060  175.8390  134.3460 O   0  0  0  0  0  0  0  0  0  0  0  0
  1  8  1  0  0  0  0
  1 13  1  0  0  0  0
  2 20  1  6  0  0  0
  2 23  1  0  0  0  0
  3  4  1  0  0  0  0
  4 24  2  0  0  0  0
  4 15  1  0  0  0  0
  5 16  1  6  0  0  0
  5 20  1  0  0  0  0
  7 12  1  0  0  0  0
  7 22  1  0  0  0  0
  9  6  1  6  0  0  0
  9 10  1  0  0  0  0
  9  2  1  0  0  0  0
 10 26  1  6  0  0  0
 10 18  1  0  0  0  0
 11 19  1  1  0  0  0
 13 16  1  0  0  0  0
 14  8  1  6  0  0  0
 14  6  1  0  0  0  0
 14  5  1  0  0  0  0
 15 12  2  0  0  0  0
 17  1  2  0  0  0  0
 18 11  1  0  0  0  0
 18 28  1  1  0  0  0
 19 24  1  0  0  0  0
 21  3  2  0  0  0  0
 23 11  1  0  0  0  0
 23  3  1  0  0  0  0
 24  7  1  0  0  0  0
 26 25  1  0  0  0  0
 28 27  1  0  0  0  0
 29 17  1  0  0  0  0
 30 31  1  0  0  0  0
 30 29  1  0  0  0  0
 32 30  2  0  0  0  0
M  END
>  <MODEL>
5

>  <REMARK>
 VINA RESULT:      -6.2      4.056     10.043
  Name = 
  4 active torsions:
  status: ('A' for Active; 'I' for Inactive)
    1  A    between atoms: C_1  and  C_10
    2  A    between atoms: C_10  and  C_24
    3  A    between atoms: O_13  and  C_15
    4  A    between atoms: C_25  and  C_26
                            x       y       z     vdW  Elec       q    Type
                         _______ _______ _______ _____ _____    ______ ____

>  <TORSDO>
F 4

$$$$
=
 OpenBabel10272413363D

 32 36  0  0  1  0  0  0  0  0999 V2000
  190.5330  176.7080  145.7960 C   0  0  0  0  0  0  0  0  0  0  0  0
  189.5020  177.3380  140.9650 C   0  0  2  0  0  3  0  0  0  0  0  0
  190.0910  176.4600  138.6940 C   0  0  0  0  0  0  0  0  0  0  0  0
  189.9130  176.5500  137.2510 C   0  0  0  0  0  0  0  0  0  0  0  0
  190.7490  177.7430  143.1390 C   0  0  1  0  0  3  0  0  0  0  0  0
  188.3320  177.9770  143.1080 C   0  0  0  0  0  2  0  0  0  0  0  0
  189.3200  177.4670  135.3380 N   0  0  0  0  0  0  0  0  0  0  0  0
  189.4010  177.4180  145.1170 C   0  0  0  0  0  2  0  0  0  0  0  0
  188.4990  178.3000  141.6150 C   0  0  2  0  0  3  0  0  0  0  0  0
  187.1550  178.3180  140.8650 C   0  0  2  0  0  3  0  0  0  0  0  0
  188.7840  178.6280  138.9240 C   0  0  2  0  0  3  0  0  0  0  0  0
  189.8380  176.2490  135.0750 C   0  0  0  0  0  3  0  0  0  0  0  0
  191.6330  176.1450  144.9450 C   0  0  0  0  0  2  0  0  0  0  0  0
  189.4650  177.2230  143.6670 N   0  0  2  0  0  0  0  0  0  0  0  0
  190.2260  175.6320  136.2640 C   0  0  0  0  0  3  0  0  0  0  0  0
  191.9830  177.1380  143.8370 C   0  0  0  0  0  2  0  0  0  0  0  0
  190.5220  176.5780  147.1260 C   0  0  0  0  0  3  0  0  0  0  0  0
  187.3090  178.4930  139.3360 C   0  0  1  0  0  3  0  0  0  0  0  0
  189.0000  178.8890  137.4140 C   0  0  0  0  0  2  0  0  0  0  0  0
  190.8710  177.5000  141.6270 C   0  0  0  0  0  2  0  0  0  0  0  0
  190.6560  175.4570  139.2080 O   0  0  0  0  0  0  0  0  0  0  0  0
  188.8390  178.4130  134.3460 C   0  0  0  0  0  1  0  0  0  0  0  0
  189.5870  177.5330  139.5130 N   0  0  0  0  0  0  0  0  0  0  0  0
  189.3550  177.6420  136.6660 C   0  0  0  0  0  0  0  0  0  0  0  0
  185.1280  178.7250  141.6650 C   0  0  0  0  0  1  0  0  0  0  0  0
  186.3450  179.3410  141.3660 O   0  0  0  0  0  0  0  0  0  0  0  0
  185.5230  177.8300  137.7190 C   0  0  0  0  0  1  0  0  0  0  0  0
  186.6390  177.3290  138.6150 C   0  0  0  0  0  2  0  0  0  0  0  0
  191.6060  175.8750  147.8820 C   0  0  0  0  0  2  0  0  0  0  0  0
  192.4240  176.8670  148.6300 C   0  0  0  0  0  0  0  0  0  0  0  0
  193.7080  176.5360  149.0450 O   0  0  0  0  0  1  0  0  0  0  0  0
  191.9430  177.9940  148.9130 O   0  0  0  0  0  0  0  0  0  0  0  0
  1 17  2  0  0  0  0
  2  9  1  0  0  0  0
  2 20  1  1  0  0  0
  3 21  2  0  0  0  0
  3 23  1  0  0  0  0
  4  3  1  0  0  0  0
  5 20  1  6  0  0  0
  5 14  1  0  0  0  0
  5 16  1  0  0  0  0
  7 24  1  0  0  0  0
  8  1  1  0  0  0  0
  9  6  1  1  0  0  0
 10 26  1  1  0  0  0
 10  9  1  0  0  0  0
 11 19  1  6  0  0  0
 11 18  1  0  0  0  0
 11 23  1  0  0  0  0
 12  7  1  0  0  0  0
 12 15  2  0  0  0  0
 13  1  1  0  0  0  0
 14  6  1  6  0  0  0
 14  8  1  0  0  0  0
 15  4  1  0  0  0  0
 16 13  1  0  0  0  0
 17 29  1  0  0  0  0
 18 28  1  6  0  0  0
 18 10  1  0  0  0  0
 22  7  1  0  0  0  0
 23  2  1  0  0  0  0
 24  4  2  0  0  0  0
 24 19  1  0  0  0  0
 26 25  1  0  0  0  0
 27 28  1  0  0  0  0
 29 30  1  0  0  0  0
 30 32  2  0  0  0  0
 30 31  1  0  0  0  0
M  END
>  <MODEL>
6

>  <REMARK>
 VINA RESULT:      -6.0      4.132      6.003
  Name = 
  4 active torsions:
  status: ('A' for Active; 'I' for Inactive)
    1  A    between atoms: C_1  and  C_10
    2  A    between atoms: C_10  and  C_24
    3  A    between atoms: O_13  and  C_15
    4  A    between atoms: C_25  and  C_26
                            x       y       z     vdW  Elec       q    Type
                         _______ _______ _______ _____ _____    ______ ____

>  <TORSDO>
F 4

$$$$
=
 OpenBabel10272413363D

 32 36  0  0  1  0  0  0  0  0999 V2000
  183.7710  178.5450  138.7680 C   0  0  0  0  0  0  0  0  0  0  0  0
  187.1680  177.9140  142.3540 C   0  0  2  0  0  3  0  0  0  0  0  0
  187.3880  177.3200  144.7780 C   0  0  0  0  0  0  0  0  0  0  0  0
  188.2610  177.1300  145.9290 C   0  0  0  0  0  0  0  0  0  0  0  0
  185.5050  179.2120  140.9420 C   0  0  1  0  0  3  0  0  0  0  0  0
  187.2640  177.9570  139.8330 C   0  0  0  0  0  2  0  0  0  0  0  0
  190.1060  177.3030  147.1200 N   0  0  0  0  0  0  0  0  0  0  0  0
  185.2570  178.3640  138.6940 C   0  0  0  0  0  2  0  0  0  0  0  0
  188.0630  178.1530  141.1310 C   0  0  2  0  0  3  0  0  0  0  0  0
  189.3350  177.2880  141.1730 C   0  0  2  0  0  3  0  0  0  0  0  0
  189.3690  178.2950  143.5190 C   0  0  2  0  0  3  0  0  0  0  0  0
  189.2020  176.6120  147.8460 C   0  0  0  0  0  3  0  0  0  0  0  0
  183.1350  178.6590  140.1230 C   0  0  0  0  0  2  0  0  0  0  0  0
  185.8110  178.0910  140.0220 N   0  0  2  0  0  0  0  0  0  0  0  0
  188.0160  176.4790  147.1250 C   0  0  0  0  0  3  0  0  0  0  0  0
  184.0010  179.5390  141.0230 C   0  0  0  0  0  2  0  0  0  0  0  0
  183.0560  178.5780  137.6400 C   0  0  0  0  0  3  0  0  0  0  0  0
  190.0760  177.3540  142.5290 C   0  0  1  0  0  3  0  0  0  0  0  0
  190.1090  178.4680  144.8670 C   0  0  0  0  0  2  0  0  0  0  0  0
  186.0250  178.9280  142.3590 C   0  0  0  0  0  2  0  0  0  0  0  0
  186.1950  176.9130  144.8050 O   0  0  0  0  0  0  0  0  0  0  0  0
  191.4430  177.6630  147.5570 C   0  0  0  0  0  1  0  0  0  0  0  0
  187.9300  177.9630  143.6070 N   0  0  0  0  0  0  0  0  0  0  0  0
  189.5340  177.6050  145.9470 C   0  0  0  0  0  0  0  0  0  0  0  0
  190.5430  176.4890  139.4950 C   0  0  0  0  0  1  0  0  0  0  0  0
  190.2080  177.6740  140.1520 O   0  0  0  0  0  0  0  0  0  0  0  0
  191.6070  175.7500  143.6810 C   0  0  0  0  0  1  0  0  0  0  0  0
  190.2180  175.9500  143.1070 C   0  0  0  0  0  2  0  0  0  0  0  0
  181.5690  178.7440  137.6250 C   0  0  0  0  0  2  0  0  0  0  0  0
  181.2210  180.1460  137.2690 C   0  0  0  0  0  0  0  0  0  0  0  0
  181.4950  181.1760  138.1590 O   0  0  0  0  0  1  0  0  0  0  0  0
  180.6510  180.3940  136.1760 O   0  0  0  0  0  0  0  0  0  0  0  0
  1 13  1  0  0  0  0
  2 20  1  1  0  0  0
  2 23  1  0  0  0  0
  3 21  2  0  0  0  0
  3  4  1  0  0  0  0
  4 24  2  0  0  0  0
  4 15  1  0  0  0  0
  5 16  1  1  0  0  0
  5 20  1  0  0  0  0
  6 14  1  0  0  0  0
  7 22  1  0  0  0  0
  7 12  1  0  0  0  0
  8  1  1  0  0  0  0
  9  6  1  6  0  0  0
  9 10  1  0  0  0  0
  9  2  1  0  0  0  0
 10 26  1  6  0  0  0
 10 18  1  0  0  0  0
 11 23  1  0  0  0  0
 11 19  1  1  0  0  0
 13 16  1  0  0  0  0
 14  8  1  6  0  0  0
 14  5  1  0  0  0  0
 15 12  2  0  0  0  0
 17  1  2  0  0  0  0
 18 28  1  1  0  0  0
 18 11  1  0  0  0  0
 19 24  1  0  0  0  0
 23  3  1  0  0  0  0
 24  7  1  0  0  0  0
 25 26  1  0  0  0  0
 28 27  1  0  0  0  0
 29 17  1  0  0  0  0
 30 29  1  0  0  0  0
 30 31  1  0  0  0  0
 32 30  2  0  0  0  0
M  END
>  <MODEL>
7

>  <REMARK>
 VINA RESULT:      -5.7      2.817      9.839
  Name = 
  4 active torsions:
  status: ('A' for Active; 'I' for Inactive)
    1  A    between atoms: C_1  and  C_10
    2  A    between atoms: C_10  and  C_24
    3  A    between atoms: O_13  and  C_15
    4  A    between atoms: C_25  and  C_26
                            x       y       z     vdW  Elec       q    Type
                         _______ _______ _______ _____ _____    ______ ____

>  <TORSDO>
F 4

$$$$
=
 OpenBabel10272413363D

 32 36  0  0  1  0  0  0  0  0999 V2000
  182.4090  177.6830  139.8390 C   0  0  0  0  0  0  0  0  0  0  0  0
  186.6790  176.6670  137.4870 C   0  0  2  0  0  3  0  0  0  0  0  0
  189.1620  176.6670  137.8220 C   0  0  0  0  0  0  0  0  0  0  0  0
  190.4850  176.4400  137.2560 C   0  0  0  0  0  0  0  0  0  0  0  0
  184.7410  178.1220  138.2430 C   0  0  1  0  0  3  0  0  0  0  0  0
  184.2680  176.0310  137.1020 C   0  0  0  0  0  2  0  0  0  0  0  0
  191.9840  176.1510  135.6690 N   0  0  0  0  0  0  0  0  0  0  0  0
  182.6810  176.9080  138.5860 C   0  0  0  0  0  2  0  0  0  0  0  0
  185.6470  176.2100  136.4480 C   0  0  2  0  0  3  0  0  0  0  0  0
  186.1100  174.9470  135.6990 C   0  0  2  0  0  3  0  0  0  0  0  0
  188.1900  176.4120  135.4880 C   0  0  2  0  0  3  0  0  0  0  0  0
  192.6180  176.0890  136.8590 C   0  0  0  0  0  3  0  0  0  0  0  0
  183.5580  178.3810  140.5070 C   0  0  0  0  0  2  0  0  0  0  0  0
  184.1220  176.7800  138.3600 N   0  0  2  0  0  0  0  0  0  0  0  0
  191.7000  176.2670  137.8930 C   0  0  0  0  0  3  0  0  0  0  0  0
  184.4460  179.0350  139.4490 C   0  0  0  0  0  2  0  0  0  0  0  0
  181.1690  177.7150  140.3350 C   0  0  0  0  0  3  0  0  0  0  0  0
  187.5560  175.0500  135.1600 C   0  0  1  0  0  3  0  0  0  0  0  0
  189.6090  176.6070  134.9030 C   0  0  0  0  0  2  0  0  0  0  0  0
  186.2630  178.0210  138.0620 C   0  0  0  0  0  2  0  0  0  0  0  0
  189.0120  176.7950  139.0680 O   0  0  0  0  0  0  0  0  0  0  0  0
  192.6190  176.0410  134.3670 C   0  0  0  0  0  1  0  0  0  0  0  0
  188.0340  176.7210  136.9260 N   0  0  0  0  0  0  0  0  0  0  0  0
  190.6820  176.3520  135.9150 C   0  0  0  0  0  0  0  0  0  0  0  0
  184.7760  173.3840  134.8690 C   0  0  0  0  0  1  0  0  0  0  0  0
  185.2410  174.6800  134.6370 O   0  0  0  0  0  0  0  0  0  0  0  0
  187.6710  173.2210  136.8590 C   0  0  0  0  0  1  0  0  0  0  0  0
  188.3940  173.9030  135.7140 C   0  0  0  0  0  2  0  0  0  0  0  0
  180.8140  178.4550  141.5870 C   0  0  0  0  0  2  0  0  0  0  0  0
  180.2270  179.7780  141.2420 C   0  0  0  0  0  0  0  0  0  0  0  0
  179.9820  180.1030  139.9140 O   0  0  0  0  0  0  0  0  0  0  0  0
  179.9820  180.6130  142.1500 O   0  0  0  0  0  1  0  0  0  0  0  0
  1 17  2  0  0  0  0
  1 13  1  0  0  0  0
  2 20  1  6  0  0  0
  3 21  2  0  0  0  0
  4  3  1  0  0  0  0
  4 15  1  0  0  0  0
  5 20  1  1  0  0  0
  5 14  1  0  0  0  0
  5 16  1  0  0  0  0
  7 24  1  0  0  0  0
  7 12  1  0  0  0  0
  8  1  1  0  0  0  0
  9  6  1  1  0  0  0
  9  2  1  0  0  0  0
 10 26  1  6  0  0  0
 10  9  1  0  0  0  0
 11 19  1  1  0  0  0
 11 23  1  0  0  0  0
 12 15  2  0  0  0  0
 14  6  1  6  0  0  0
 14  8  1  0  0  0  0
 16 13  1  0  0  0  0
 17 29  1  0  0  0  0
 18 11  1  0  0  0  0
 18 10  1  0  0  0  0
 18 28  1  1  0  0  0
 19 24  1  0  0  0  0
 22  7  1  0  0  0  0
 23  2  1  0  0  0  0
 23  3  1  0  0  0  0
 24  4  2  0  0  0  0
 26 25  1  0  0  0  0
 28 27  1  0  0  0  0
 30 29  1  0  0  0  0
 30 32  1  0  0  0  0
 31 30  2  0  0  0  0
M  END
>  <MODEL>
8

>  <REMARK>
 VINA RESULT:      -5.5      4.907      8.502
  Name = 
  4 active torsions:
  status: ('A' for Active; 'I' for Inactive)
    1  A    between atoms: C_1  and  C_10
    2  A    between atoms: C_10  and  C_24
    3  A    between atoms: O_13  and  C_15
    4  A    between atoms: C_25  and  C_26
                            x       y       z     vdW  Elec       q    Type
                         _______ _______ _______ _____ _____    ______ ____

>  <TORSDO>
F 4

$$$$
=
 OpenBabel10272413363D

 32 36  0  0  1  0  0  0  0  0999 V2000
  192.8510  175.0970  136.7160 C   0  0  0  0  0  0  0  0  0  0  0  0
  187.9070  174.7280  136.2530 C   0  0  2  0  0  3  0  0  0  0  0  0
  186.0010  173.1560  136.6660 C   0  0  0  0  0  0  0  0  0  0  0  0
  184.5720  172.8940  136.5640 C   0  0  0  0  0  0  0  0  0  0  0  0
  190.3260  174.5030  135.5150 C   0  0  1  0  0  3  0  0  0  0  0  0
  189.5280  176.6620  136.2880 C   0  0  0  0  0  2  0  0  0  0  0  0
  182.5080  173.1780  135.8480 N   0  0  0  0  0  0  0  0  0  0  0  0
  191.8050  176.1450  136.4890 C   0  0  0  0  0  2  0  0  0  0  0  0
  188.1420  176.1840  135.8290 C   0  0  2  0  0  3  0  0  0  0  0  0
  187.0120  177.1110  136.3130 C   0  0  2  0  0  3  0  0  0  0  0  0
  185.6560  175.2320  135.2410 C   0  0  2  0  0  3  0  0  0  0  0  0
  182.5080  172.1560  136.7290 C   0  0  0  0  0  3  0  0  0  0  0  0
  192.4270  173.6580  136.7250 C   0  0  0  0  0  2  0  0  0  0  0  0
  190.4650  175.5580  136.5470 N   0  0  2  0  0  0  0  0  0  0  0  0
  183.8000  171.9440  137.2090 C   0  0  0  0  0  3  0  0  0  0  0  0
  191.4140  173.4160  135.6070 C   0  0  0  0  0  2  0  0  0  0  0  0
  194.1180  175.4690  136.9250 C   0  0  0  0  0  3  0  0  0  0  0  0
  185.5980  176.5720  135.9930 C   0  0  1  0  0  3  0  0  0  0  0  0
  184.2730  174.6820  134.8180 C   0  0  0  0  0  2  0  0  0  0  0  0
  188.9480  173.8270  135.5890 C   0  0  0  0  0  2  0  0  0  0  0  0
  186.7370  172.4240  137.3810 O   0  0  0  0  0  0  0  0  0  0  0  0
  181.3500  173.6670  135.1200 C   0  0  0  0  0  1  0  0  0  0  0  0
  186.5430  174.2820  135.9480 N   0  0  0  0  0  0  0  0  0  0  0  0
  183.7650  173.6350  135.7600 C   0  0  0  0  0  0  0  0  0  0  0  0
  186.8660  178.2050  134.3920 C   0  0  0  0  0  1  0  0  0  0  0  0
  187.1600  178.3790  135.7450 O   0  0  0  0  0  0  0  0  0  0  0  0
  183.7390  177.5370  137.3560 C   0  0  0  0  0  1  0  0  0  0  0  0
  184.7900  176.4480  137.2810 C   0  0  0  0  0  2  0  0  0  0  0  0
  195.2220  174.4890  137.1710 C   0  0  0  0  0  2  0  0  0  0  0  0
  195.3600  174.2410  138.6310 C   0  0  0  0  0  0  0  0  0  0  0  0
  195.2950  172.9450  139.1250 O   0  0  0  0  0  0  0  0  0  0  0  0
  195.5050  175.2080  139.4220 O   0  0  0  0  0  1  0  0  0  0  0  0
  1 13  1  0  0  0  0
  1 17  2  0  0  0  0
  2 20  1  6  0  0  0
  3 21  2  0  0  0  0
  4  3  1  0  0  0  0
  4 15  1  0  0  0  0
  5 20  1  1  0  0  0
  5 16  1  0  0  0  0
  5 14  1  0  0  0  0
  7 12  1  0  0  0  0
  8 14  1  0  0  0  0
  8  1  1  0  0  0  0
  9  2  1  0  0  0  0
  9  6  1  1  0  0  0
  9 10  1  0  0  0  0
 10 26  1  6  0  0  0
 11 19  1  1  0  0  0
 11 23  1  0  0  0  0
 11 18  1  0  0  0  0
 12 15  2  0  0  0  0
 14  6  1  6  0  0  0
 16 13  1  0  0  0  0
 17 29  1  0  0  0  0
 18 10  1  0  0  0  0
 18 28  1  1  0  0  0
 19 24  1  0  0  0  0
 22  7  1  0  0  0  0
 23  2  1  0  0  0  0
 23  3  1  0  0  0  0
 24  7  1  0  0  0  0
 24  4  2  0  0  0  0
 25 26  1  0  0  0  0
 28 27  1  0  0  0  0
 29 30  1  0  0  0  0
 30 31  2  0  0  0  0
 30 32  1  0  0  0  0
M  END
>  <MODEL>
9

>  <REMARK>
 VINA RESULT:      -5.3      6.496      8.083
  Name = 
  4 active torsions:
  status: ('A' for Active; 'I' for Inactive)
    1  A    between atoms: C_1  and  C_10
    2  A    between atoms: C_10  and  C_24
    3  A    between atoms: O_13  and  C_15
    4  A    between atoms: C_25  and  C_26
                            x       y       z     vdW  Elec       q    Type
                         _______ _______ _______ _____ _____    ______ ____

>  <TORSDO>
F 4

$$$$
