=
 OpenBabel10272415073D

 34 39  0  0  1  0  0  0  0  0999 V2000
  190.6890  176.1930  138.3970 C   0  0  0  0  0  0  0  0  0  0  0  0
  192.6200  173.4570  136.3040 C   0  0  0  0  0  2  0  0  0  0  0  0
  190.4430  174.5380  136.0440 C   0  0  0  0  0  3  0  0  0  0  0  0
  189.3950  177.3120  140.0210 C   0  0  0  0  0  0  0  0  0  0  0  0
  190.5540  176.7540  139.6050 O   0  0  0  0  0  0  0  0  0  0  0  0
  188.3800  176.7560  137.9330 C   0  0  0  0  0  0  0  0  0  0  0  0
  187.4550  176.2700  137.0790 N   0  0  0  0  0  0  0  0  0  0  0  0
  188.2250  177.2850  139.2070 C   0  0  0  0  0  3  0  0  0  0  0  0
  189.4190  175.5040  136.4640 C   0  0  0  0  0  0  0  0  0  0  0  0
  189.6360  176.2810  137.5350 C   0  0  0  0  0  0  0  0  0  0  0  0
  188.0920  175.5030  136.1840 N   0  0  0  0  0  0  0  0  0  0  0  0
  193.8430  173.4280  137.2240 C   0  0  0  0  0  2  0  0  0  0  0  0
  194.7910  174.6220  137.0340 C   0  0  2  0  0  3  0  0  0  0  0  0
  194.0950  175.9350  136.6590 C   0  0  0  0  0  2  0  0  0  0  0  0
  191.6090  174.4850  136.7300 C   0  0  0  0  0  0  0  0  0  0  0  0
  193.0620  176.3980  137.6890 C   0  0  0  0  0  2  0  0  0  0  0  0
  191.9050  175.4180  137.9380 C   0  0  1  0  0  3  0  0  0  0  0  0
  190.0620  177.7560  143.5010 C   0  0  0  0  0  2  0  0  0  0  0  0
  187.1440  177.5270  142.5920 C   0  0  0  0  0  2  0  0  0  0  0  0
  188.1750  177.7280  146.7810 C   0  0  0  0  0  0  0  0  0  0  0  0
  189.1990  177.7350  145.8260 C   0  0  0  0  0  3  0  0  0  0  0  0
  188.9080  177.6770  144.4590 C   0  0  0  0  0  0  0  0  0  0  0  0
  189.3470  177.9290  141.3800 C   0  0  1  0  0  3  0  0  0  0  0  0
  186.5380  177.6270  144.9930 C   0  0  0  0  0  3  0  0  0  0  0  0
  187.5550  177.6450  144.0340 C   0  0  0  0  0  0  0  0  0  0  0  0
  186.8420  177.6730  146.3550 C   0  0  0  0  0  3  0  0  0  0  0  0
  187.9360  178.4630  141.6830 C   0  0  0  0  0  2  0  0  0  0  0  0
  189.8010  177.0110  142.3450 O   0  0  0  0  0  0  0  0  0  0  0  0
  188.4920  177.7820  148.1790 N   0  0  0  0  0  0  0  0  0  0  0  0
  187.6930  177.3360  149.0280 O   0  0  0  0  0  0  0  0  0  0  0  0
  189.6840  178.3250  148.6000 O   0  0  0  0  0  0  0  0  0  0  0  0
  195.8380  174.2960  136.0220 C   0  0  0  0  0  0  0  0  0  0  0  0
  196.0730  172.9780  135.6490 O   0  0  0  0  0  1  0  0  0  0  0  0
  196.5150  175.2230  135.5050 O   0  0  0  0  0  0  0  0  0  0  0  0
  1  5  1  0  0  0  0
  2 15  1  0  0  0  0
  2 12  1  0  0  0  0
  3  9  1  0  0  0  0
  3 15  2  0  0  0  0
  5  4  1  0  0  0  0
  6  8  1  0  0  0  0
  7  6  2  0  0  0  0
  8  4  2  0  0  0  0
  9 10  1  0  0  0  0
 10  6  1  0  0  0  0
 10  1  2  0  0  0  0
 11  9  2  0  0  0  0
 11  7  1  0  0  0  0
 13 32  1  6  0  0  0
 13 12  1  0  0  0  0
 14 13  1  0  0  0  0
 14 16  1  0  0  0  0
 15 17  1  0  0  0  0
 17 16  1  6  0  0  0
 17  1  1  0  0  0  0
 18 22  1  0  0  0  0
 19 25  1  0  0  0  0
 20 29  1  0  0  0  0
 21 20  2  0  0  0  0
 22 21  1  0  0  0  0
 23  4  1  6  0  0  0
 23 27  1  0  0  0  0
 23 28  1  0  0  0  0
 24 26  2  0  0  0  0
 25 22  2  0  0  0  0
 25 24  1  0  0  0  0
 26 20  1  0  0  0  0
 27 19  1  0  0  0  0
 28 18  1  0  0  0  0
 29 31  2  0  0  0  0
 29 30  2  0  0  0  0
 33 32  1  0  0  0  0
 34 32  2  0  0  0  0
M  END
>  <MODEL>
1

>  <REMARK>
 VINA RESULT:      -9.5      0.000      0.000
  Name = 
  3 active torsions:
  status: ('A' for Active; 'I' for Inactive)
    1  A    between atoms: C_3  and  C_25
    2  A    between atoms: C_7  and  N_11
    3  A    between atoms: C_8  and  C_18
                            x       y       z     vdW  Elec       q    Type
                         _______ _______ _______ _____ _____    ______ ____

>  <TORSDO>
F 3

$$$$
=
 OpenBabel10272415073D

 34 39  0  0  1  0  0  0  0  0999 V2000
  186.1400  178.2230  143.4930 C   0  0  0  0  0  0  0  0  0  0  0  0
  189.3720  178.0850  145.7570 C   0  0  0  0  0  2  0  0  0  0  0  0
  186.9790  178.1420  146.2540 C   0  0  0  0  0  3  0  0  0  0  0  0
  184.3640  178.9370  142.1150 C   0  0  0  0  0  0  0  0  0  0  0  0
  185.6550  178.5790  142.2970 O   0  0  0  0  0  0  0  0  0  0  0  0
  183.9390  178.5800  144.4360 C   0  0  0  0  0  0  0  0  0  0  0  0
  183.4890  178.8380  145.6820 N   0  0  0  0  0  2  0  0  0  0  0  0
  183.4520  179.0060  143.2080 C   0  0  0  0  0  3  0  0  0  0  0  0
  185.5720  178.1580  145.8370 C   0  0  0  0  0  0  0  0  0  0  0  0
  185.2620  178.1330  144.5330 C   0  0  0  0  0  0  0  0  0  0  0  0
  184.4890  178.5820  146.5360 N   0  0  0  0  0  0  0  0  0  0  0  0
  190.3540  178.0930  144.5840 C   0  0  0  0  0  2  0  0  0  0  0  0
  190.4760  176.7380  143.8680 C   0  0  2  0  0  3  0  0  0  0  0  0
  189.1830  175.9170  143.8320 C   0  0  0  0  0  2  0  0  0  0  0  0
  187.9400  178.0570  145.3030 C   0  0  0  0  0  0  0  0  0  0  0  0
  188.0200  176.6350  143.1430 C   0  0  0  0  0  2  0  0  0  0  0  0
  187.6020  177.9660  143.7880 C   0  0  0  0  0  0  0  0  0  0  0  0
  182.1500  179.4110  139.3540 C   0  0  0  0  0  2  0  0  0  0  0  0
  184.5950  177.6030  138.9700 C   0  0  0  0  0  2  0  0  0  0  0  0
  181.6210  178.0350  135.8680 C   0  0  0  0  0  0  0  0  0  0  0  0
  181.4420  178.7090  137.0820 C   0  0  0  0  0  3  0  0  0  0  0  0
  182.3850  178.6010  138.1100 C   0  0  0  0  0  0  0  0  0  0  0  0
  183.9120  179.3030  140.7390 C   0  0  1  0  0  3  0  0  0  0  0  0
  183.7200  177.1440  136.6960 C   0  0  0  0  0  3  0  0  0  0  0  0
  183.5530  177.8240  137.9070 C   0  0  0  0  0  0  0  0  0  0  0  0
  182.7660  177.2510  135.6830 C   0  0  0  0  0  3  0  0  0  0  0  0
  184.9670  178.8930  139.6950 C   0  0  0  0  0  2  0  0  0  0  0  0
  182.6460  178.7450  140.4810 O   0  0  0  0  0  0  0  0  0  0  0  0
  180.6410  178.1520  134.8270 N   0  0  0  0  0  0  0  0  0  0  0  0
  180.3560  179.2670  134.3470 O   0  0  0  0  0  0  0  0  0  0  0  0
  180.0030  177.0310  134.3460 O   0  0  0  0  0  0  0  0  0  0  0  0
  191.5740  175.9290  144.4750 C   0  0  0  0  0  0  0  0  0  0  0  0
  192.0030  176.1820  145.7720 O   0  0  0  0  0  1  0  0  0  0  0  0
  192.1160  175.0120  143.8050 O   0  0  0  0  0  0  0  0  0  0  0  0
  1 17  2  0  0  0  0
  1 10  1  0  0  0  0
  4  5  1  0  0  0  0
  4  8  2  0  0  0  0
  5  1  1  0  0  0  0
  6 10  2  0  0  0  0
  6  7  1  0  0  0  0
  7 11  1  0  0  0  0
  8  6  1  0  0  0  0
  9  3  1  0  0  0  0
  9 11  2  0  0  0  0
 10  9  1  0  0  0  0
 12  2  1  0  0  0  0
 13 32  1  1  0  0  0
 13 12  1  0  0  0  0
 14 13  1  0  0  0  0
 15  2  1  0  0  0  0
 15  3  2  0  0  0  0
 16 17  1  0  0  0  0
 16 14  1  0  0  0  0
 17 15  1  0  0  0  0
 18 28  1  0  0  0  0
 19 27  1  0  0  0  0
 20 21  1  0  0  0  0
 21 22  2  0  0  0  0
 22 18  1  0  0  0  0
 23  4  1  1  0  0  0
 24 25  2  0  0  0  0
 25 22  1  0  0  0  0
 25 19  1  0  0  0  0
 26 20  2  0  0  0  0
 26 24  1  0  0  0  0
 27 23  1  0  0  0  0
 28 23  1  0  0  0  0
 29 20  1  0  0  0  0
 30 29  2  0  0  0  0
 31 29  2  0  0  0  0
 32 33  1  0  0  0  0
 34 32  2  0  0  0  0
M  END
>  <MODEL>
2

>  <REMARK>
 VINA RESULT:      -9.2      5.706      9.854
  Name = 
  3 active torsions:
  status: ('A' for Active; 'I' for Inactive)
    1  A    between atoms: C_3  and  C_25
    2  A    between atoms: C_7  and  N_11
    3  A    between atoms: C_8  and  C_18
                            x       y       z     vdW  Elec       q    Type
                         _______ _______ _______ _____ _____    ______ ____

>  <TORSDO>
F 3

$$$$
=
 OpenBabel10272415073D

 34 39  0  0  1  0  0  0  0  0999 V2000
  189.1290  176.6070  137.9180 C   0  0  0  0  0  0  0  0  0  0  0  0
  190.2420  173.6690  135.5270 C   0  0  0  0  0  2  0  0  0  0  0  0
  188.3600  175.2290  135.5000 C   0  0  0  0  0  3  0  0  0  0  0  0
  188.2320  177.8660  139.7000 C   0  0  0  0  0  0  0  0  0  0  0  0
  189.2030  177.0940  139.1630 O   0  0  0  0  0  0  0  0  0  0  0  0
  186.9880  177.7100  137.6690 C   0  0  0  0  0  0  0  0  0  0  0  0
  185.9240  177.5100  136.8640 N   0  0  0  0  0  0  0  0  0  0  0  0
  187.0390  178.1640  138.9800 C   0  0  0  0  0  3  0  0  0  0  0  0
  187.6160  176.3670  136.0540 C   0  0  0  0  0  0  0  0  0  0  0  0
  188.0720  176.9940  137.1480 C   0  0  0  0  0  0  0  0  0  0  0  0
  186.3090  176.6870  135.8780 N   0  0  0  0  0  0  0  0  0  0  0  0
  191.4800  173.2960  136.3450 C   0  0  0  0  0  2  0  0  0  0  0  0
  192.6640  174.2560  136.1510 C   0  0  2  0  0  3  0  0  0  0  0  0
  192.2680  175.7160  135.9080 C   0  0  0  0  0  2  0  0  0  0  0  0
  189.5240  174.8640  136.0890 C   0  0  0  0  0  0  0  0  0  0  0  0
  191.4360  176.3230  137.0410 C   0  0  0  0  0  2  0  0  0  0  0  0
  190.1020  175.6140  137.3220 C   0  0  1  0  0  3  0  0  0  0  0  0
  189.5510  178.1150  143.0090 C   0  0  0  0  0  2  0  0  0  0  0  0
  186.5350  177.6900  142.6680 C   0  0  0  0  0  2  0  0  0  0  0  0
  188.3700  177.6780  146.5780 C   0  0  0  0  0  0  0  0  0  0  0  0
  189.1780  177.8460  145.4460 C   0  0  0  0  0  3  0  0  0  0  0  0
  188.6220  177.8620  144.1630 C   0  0  0  0  0  0  0  0  0  0  0  0
  188.4130  178.3760  141.0920 C   0  0  1  0  0  3  0  0  0  0  0  0
  186.4180  177.5600  145.1410 C   0  0  0  0  0  3  0  0  0  0  0  0
  187.2180  177.7390  144.0080 C   0  0  0  0  0  0  0  0  0  0  0  0
  186.9860  177.5340  146.4160 C   0  0  0  0  0  3  0  0  0  0  0  0
  187.0560  178.7570  141.7100 C   0  0  0  0  0  2  0  0  0  0  0  0
  189.1190  177.4340  141.8640 O   0  0  0  0  0  0  0  0  0  0  0  0
  188.9570  177.6580  147.8870 N   0  0  0  0  0  0  0  0  0  0  0  0
  188.2590  177.8760  148.8980 O   0  0  0  0  0  0  0  0  0  0  0  0
  190.2990  177.3960  148.0410 O   0  0  0  0  0  0  0  0  0  0  0  0
  193.5420  173.7780  135.0430 C   0  0  0  0  0  0  0  0  0  0  0  0
  193.4080  172.4880  134.5430 O   0  0  0  0  0  0  0  0  0  0  0  0
  194.4120  174.5480  134.5610 O   0  0  0  0  0  1  0  0  0  0  0  0
  1  5  1  0  0  0  0
  2 15  1  0  0  0  0
  2 12  1  0  0  0  0
  3  9  1  0  0  0  0
  3 15  2  0  0  0  0
  5  4  1  0  0  0  0
  6  8  1  0  0  0  0
  7  6  2  0  0  0  0
  8  4  2  0  0  0  0
  9 10  1  0  0  0  0
 10  6  1  0  0  0  0
 10  1  2  0  0  0  0
 11  9  2  0  0  0  0
 11  7  1  0  0  0  0
 13 32  1  6  0  0  0
 13 12  1  0  0  0  0
 14 13  1  0  0  0  0
 14 16  1  0  0  0  0
 15 17  1  0  0  0  0
 17 16  1  6  0  0  0
 17  1  1  0  0  0  0
 18 22  1  0  0  0  0
 19 25  1  0  0  0  0
 20 29  1  0  0  0  0
 21 20  2  0  0  0  0
 22 21  1  0  0  0  0
 23  4  1  6  0  0  0
 23 27  1  0  0  0  0
 23 28  1  0  0  0  0
 24 26  2  0  0  0  0
 25 22  2  0  0  0  0
 25 24  1  0  0  0  0
 26 20  1  0  0  0  0
 27 19  1  0  0  0  0
 28 18  1  0  0  0  0
 29 31  2  0  0  0  0
 29 30  2  0  0  0  0
 33 32  2  0  0  0  0
 34 32  1  0  0  0  0
M  END
>  <MODEL>
3

>  <REMARK>
 VINA RESULT:      -9.1      1.347      1.667
  Name = 
  3 active torsions:
  status: ('A' for Active; 'I' for Inactive)
    1  A    between atoms: C_3  and  C_25
    2  A    between atoms: C_7  and  N_11
    3  A    between atoms: C_8  and  C_18
                            x       y       z     vdW  Elec       q    Type
                         _______ _______ _______ _____ _____    ______ ____

>  <TORSDO>
F 3

$$$$
=
 OpenBabel10272415073D

 34 39  0  0  1  0  0  0  0  0999 V2000
  190.4570  176.4440  138.5210 C   0  0  0  0  0  0  0  0  0  0  0  0
  191.7630  174.7660  135.1930 C   0  0  0  0  0  2  0  0  0  0  0  0
  190.4520  176.7770  135.6530 C   0  0  0  0  0  3  0  0  0  0  0  0
  189.2180  176.9860  140.4530 C   0  0  0  0  0  0  0  0  0  0  0  0
  190.1250  176.2270  139.7990 O   0  0  0  0  0  0  0  0  0  0  0  0
  188.9050  178.3010  138.4860 C   0  0  0  0  0  0  0  0  0  0  0  0
  188.2450  178.9470  137.5020 N   0  0  0  0  0  0  0  0  0  0  0  0
  188.5190  178.0390  139.7930 C   0  0  0  0  0  3  0  0  0  0  0  0
  189.8200  177.7260  136.5780 C   0  0  0  0  0  0  0  0  0  0  0  0
  189.9200  177.5330  137.9020 C   0  0  2  0  0  3  0  0  0  0  0  0
  188.8040  178.5920  136.3370 N   0  0  0  0  0  0  0  0  0  0  0  0
  192.4450  173.5910  135.8980 C   0  0  0  0  0  2  0  0  0  0  0  0
  193.7860  173.9560  136.5530 C   0  0  2  0  0  3  0  0  0  0  0  0
  193.8580  175.3820  137.1090 C   0  0  0  0  0  2  0  0  0  0  0  0
  191.1630  175.7440  136.1640 C   0  0  0  0  0  0  0  0  0  0  0  0
  192.7960  175.6810  138.1700 C   0  0  0  0  0  2  0  0  0  0  0  0
  191.3420  175.5360  137.6940 C   0  0  0  0  0  0  0  0  0  0  0  0
  188.0810  177.4820  143.8010 C   0  0  0  0  0  2  0  0  0  0  0  0
  191.0040  176.6730  143.3570 C   0  0  0  0  0  2  0  0  0  0  0  0
  189.5240  177.6480  147.2960 C   0  0  0  0  0  0  0  0  0  0  0  0
  188.6560  177.7370  146.2010 C   0  0  0  0  0  3  0  0  0  0  0  0
  189.0940  177.4250  144.9100 C   0  0  0  0  0  0  0  0  0  0  0  0
  188.9260  176.6760  141.8850 C   0  0  1  0  0  3  0  0  0  0  0  0
  191.2900  176.9030  145.8090 C   0  0  0  0  0  3  0  0  0  0  0  0
  190.4260  176.9790  144.7120 C   0  0  0  0  0  0  0  0  0  0  0  0
  190.8440  177.2290  147.0900 C   0  0  0  0  0  3  0  0  0  0  0  0
  190.0600  175.8360  142.4990 C   0  0  0  0  0  2  0  0  0  0  0  0
  188.6830  177.8660  142.5970 O   0  0  0  0  0  0  0  0  0  0  0  0
  189.0600  177.9790  148.6130 N   0  0  0  0  0  0  0  0  0  0  0  0
  189.8350  178.4860  149.4490 O   0  0  0  0  0  0  0  0  0  0  0  0
  187.7520  177.7390  148.9680 O   0  0  0  0  0  0  0  0  0  0  0  0
  194.9090  173.7270  135.5960 C   0  0  0  0  0  0  0  0  0  0  0  0
  195.4690  172.4640  135.4530 O   0  0  0  0  0  1  0  0  0  0  0  0
  195.3520  174.6880  134.9150 O   0  0  0  0  0  0  0  0  0  0  0  0
  1  5  1  0  0  0  0
  2 12  1  0  0  0  0
  2 15  1  0  0  0  0
  3 15  2  0  0  0  0
  3  9  1  0  0  0  0
  5  4  1  0  0  0  0
  6  8  1  0  0  0  0
  7  6  2  0  0  0  0
  8  4  2  0  0  0  0
 10  9  1  6  0  0  0
 10  6  1  0  0  0  0
 10  1  1  0  0  0  0
 11  9  2  0  0  0  0
 11  7  1  0  0  0  0
 12 13  1  0  0  0  0
 13 32  1  6  0  0  0
 13 14  1  0  0  0  0
 14 16  1  0  0  0  0
 15 17  1  0  0  0  0
 17 16  1  0  0  0  0
 17  1  2  0  0  0  0
 18 22  1  0  0  0  0
 19 25  1  0  0  0  0
 20 29  1  0  0  0  0
 21 20  2  0  0  0  0
 22 21  1  0  0  0  0
 23  4  1  6  0  0  0
 23 27  1  0  0  0  0
 23 28  1  0  0  0  0
 24 26  2  0  0  0  0
 25 22  2  0  0  0  0
 25 24  1  0  0  0  0
 26 20  1  0  0  0  0
 27 19  1  0  0  0  0
 28 18  1  0  0  0  0
 29 31  2  0  0  0  0
 29 30  2  0  0  0  0
 33 32  1  0  0  0  0
 34 32  2  0  0  0  0
M  END
>  <MODEL>
4

>  <REMARK>
 VINA RESULT:      -8.9      1.397      2.113
  Name = 
  3 active torsions:
  status: ('A' for Active; 'I' for Inactive)
    1  A    between atoms: C_3  and  C_25
    2  A    between atoms: C_7  and  N_11
    3  A    between atoms: C_8  and  C_18
                            x       y       z     vdW  Elec       q    Type
                         _______ _______ _______ _____ _____    ______ ____

>  <TORSDO>
F 3

$$$$
=
 OpenBabel10272415073D

 34 39  0  0  1  0  0  0  0  0999 V2000
  190.1540  176.8700  140.6230 C   0  0  0  0  0  0  0  0  0  0  0  0
  190.2520  178.7850  144.0760 C   0  0  0  0  0  2  0  0  0  0  0  0
  188.6390  178.7200  142.2400 C   0  0  0  0  0  3  0  0  0  0  0  0
  190.4940  176.2110  138.3850 C   0  0  0  0  0  0  0  0  0  0  0  0
  190.8960  176.2880  139.6730 O   0  0  0  0  0  0  0  0  0  0  0  0
  188.4740  177.3490  138.9480 C   0  0  0  0  0  0  0  0  0  0  0  0
  187.4800  178.2580  138.8580 N   0  0  0  0  0  0  0  0  0  0  0  0
  189.2690  176.7980  137.9530 C   0  0  0  0  0  3  0  0  0  0  0  0
  188.1780  178.2170  140.9400 C   0  0  0  0  0  0  0  0  0  0  0  0
  188.9110  177.3100  140.2780 C   0  0  0  0  0  0  0  0  0  0  0  0
  187.3020  178.7880  140.0750 N   0  0  0  0  0  0  0  0  0  0  0  0
  191.6070  178.2160  144.5030 C   0  0  0  0  0  2  0  0  0  0  0  0
  191.5390  176.7660  145.0080 C   0  0  2  0  0  3  0  0  0  0  0  0
  190.4810  175.8980  144.3170 C   0  0  0  0  0  2  0  0  0  0  0  0
  189.7830  178.2200  142.7640 C   0  0  0  0  0  0  0  0  0  0  0  0
  190.6710  175.7910  142.8020 C   0  0  0  0  0  2  0  0  0  0  0  0
  190.6180  177.1250  142.0410 C   0  0  1  0  0  3  0  0  0  0  0  0
  192.0360  173.5390  136.5860 C   0  0  0  0  0  2  0  0  0  0  0  0
  193.8330  175.5090  138.0960 C   0  0  0  0  0  2  0  0  0  0  0  0
  195.4760  172.0240  136.1440 C   0  0  0  0  0  0  0  0  0  0  0  0
  194.0920  172.2350  136.1120 C   0  0  0  0  0  3  0  0  0  0  0  0
  193.5210  173.3540  136.7260 C   0  0  0  0  0  0  0  0  0  0  0  0
  191.3840  175.5260  137.3990 C   0  0  1  0  0  3  0  0  0  0  0  0
  195.7380  174.0830  137.4010 C   0  0  0  0  0  3  0  0  0  0  0  0
  194.3580  174.3050  137.3620 C   0  0  0  0  0  0  0  0  0  0  0  0
  196.2950  172.9560  136.7940 C   0  0  0  0  0  3  0  0  0  0  0  0
  192.7460  176.2390  137.3120 C   0  0  0  0  0  2  0  0  0  0  0  0
  191.5030  174.1620  137.7210 O   0  0  0  0  0  0  0  0  0  0  0  0
  196.0450  170.8670  135.5150 N   0  0  0  0  0  0  0  0  0  0  0  0
  197.2820  170.7110  135.4750 O   0  0  0  0  0  0  0  0  0  0  0  0
  195.2300  169.9150  134.9480 O   0  0  0  0  0  0  0  0  0  0  0  0
  191.3280  176.7420  146.4850 C   0  0  0  0  0  0  0  0  0  0  0  0
  190.0620  176.9460  147.0210 O   0  0  0  0  0  0  0  0  0  0  0  0
  192.3060  176.5380  147.2510 O   0  0  0  0  0  1  0  0  0  0  0  0
  1 17  1  0  0  0  0
  2 12  1  0  0  0  0
  3 15  2  0  0  0  0
  4  5  1  0  0  0  0
  5  1  1  0  0  0  0
  6 10  1  0  0  0  0
  7  6  2  0  0  0  0
  7 11  1  0  0  0  0
  8  4  2  0  0  0  0
  8  6  1  0  0  0  0
  9  3  1  0  0  0  0
 10  1  2  0  0  0  0
 10  9  1  0  0  0  0
 11  9  2  0  0  0  0
 12 13  1  0  0  0  0
 13 32  1  1  0  0  0
 14 13  1  0  0  0  0
 15  2  1  0  0  0  0
 16 14  1  0  0  0  0
 17 15  1  0  0  0  0
 17 16  1  1  0  0  0
 18 22  1  0  0  0  0
 18 28  1  0  0  0  0
 20 26  1  0  0  0  0
 21 20  2  0  0  0  0
 21 22  1  0  0  0  0
 22 25  2  0  0  0  0
 23 28  1  0  0  0  0
 23  4  1  1  0  0  0
 25 24  1  0  0  0  0
 25 19  1  0  0  0  0
 26 24  2  0  0  0  0
 27 23  1  0  0  0  0
 27 19  1  0  0  0  0
 29 20  1  0  0  0  0
 30 29  2  0  0  0  0
 31 29  2  0  0  0  0
 32 33  2  0  0  0  0
 32 34  1  0  0  0  0
M  END
>  <MODEL>
5

>  <REMARK>
 VINA RESULT:      -8.9      2.552      9.514
  Name = 
  3 active torsions:
  status: ('A' for Active; 'I' for Inactive)
    1  A    between atoms: C_3  and  C_25
    2  A    between atoms: C_7  and  N_11
    3  A    between atoms: C_8  and  C_18
                            x       y       z     vdW  Elec       q    Type
                         _______ _______ _______ _____ _____    ______ ____

>  <TORSDO>
F 3

$$$$
=
 OpenBabel10272415073D

 34 39  0  0  1  0  0  0  0  0999 V2000
  188.6960  176.7320  138.0760 C   0  0  0  0  0  0  0  0  0  0  0  0
  186.9610  176.6860  134.5290 C   0  0  0  0  0  2  0  0  0  0  0  0
  189.2100  176.1190  135.3020 C   0  0  0  0  0  3  0  0  0  0  0  0
  189.7840  177.3950  140.0600 C   0  0  0  0  0  0  0  0  0  0  0  0
  188.6740  177.2760  139.2990 O   0  0  0  0  0  0  0  0  0  0  0  0
  191.0760  176.3740  138.3330 C   0  0  0  0  0  0  0  0  0  0  0  0
  192.0930  176.2040  137.4630 N   0  0  0  0  0  0  0  0  0  0  0  0
  191.0620  176.9910  139.5760 C   0  0  0  0  0  3  0  0  0  0  0  0
  190.2090  175.9510  136.3650 C   0  0  0  0  0  0  0  0  0  0  0  0
  189.8730  176.1990  137.6400 C   0  0  2  0  0  3  0  0  0  0  0  0
  191.5610  175.9480  136.2610 N   0  0  0  0  0  0  0  0  0  0  0  0
  185.6110  177.1970  135.0370 C   0  0  0  0  0  2  0  0  0  0  0  0
  184.7730  176.1280  135.7540 C   0  0  2  0  0  3  0  0  0  0  0  0
  185.5910  175.0950  136.5370 C   0  0  0  0  0  2  0  0  0  0  0  0
  187.9500  176.4810  135.6420 C   0  0  0  0  0  0  0  0  0  0  0  0
  186.4760  175.7110  137.6240 C   0  0  0  0  0  2  0  0  0  0  0  0
  187.5240  176.7150  137.1190 C   0  0  0  0  0  0  0  0  0  0  0  0
  190.2920  177.8440  143.5660 C   0  0  0  0  0  2  0  0  0  0  0  0
  187.4240  177.4990  142.5390 C   0  0  0  0  0  2  0  0  0  0  0  0
  188.2770  177.7160  146.7680 C   0  0  0  0  0  0  0  0  0  0  0  0
  189.3380  177.7720  145.8550 C   0  0  0  0  0  3  0  0  0  0  0  0
  189.1040  177.7110  144.4770 C   0  0  0  0  0  0  0  0  0  0  0  0
  189.6560  178.0010  141.4200 C   0  0  1  0  0  3  0  0  0  0  0  0
  186.7180  177.5580  144.9150 C   0  0  0  0  0  3  0  0  0  0  0  0
  187.7720  177.6240  143.9980 C   0  0  0  0  0  0  0  0  0  0  0  0
  186.9660  177.6080  146.2880 C   0  0  0  0  0  3  0  0  0  0  0  0
  188.2120  178.4730  141.6680 C   0  0  0  0  0  2  0  0  0  0  0  0
  190.1090  177.0960  142.3980 O   0  0  0  0  0  0  0  0  0  0  0  0
  188.5350  177.7730  148.1780 N   0  0  0  0  0  0  0  0  0  0  0  0
  187.7420  177.2540  148.9890 O   0  0  0  0  0  0  0  0  0  0  0  0
  189.6630  178.4030  148.6520 O   0  0  0  0  0  0  0  0  0  0  0  0
  183.8780  175.4340  134.7820 C   0  0  0  0  0  0  0  0  0  0  0  0
  182.6980  176.0330  134.3570 O   0  0  0  0  0  1  0  0  0  0  0  0
  184.1940  174.2970  134.3460 O   0  0  0  0  0  0  0  0  0  0  0  0
  1  5  1  0  0  0  0
  2 12  1  0  0  0  0
  2 15  1  0  0  0  0
  3 15  2  0  0  0  0
  3  9  1  0  0  0  0
  5  4  1  0  0  0  0
  6  8  1  0  0  0  0
  7  6  2  0  0  0  0
  8  4  2  0  0  0  0
 10  9  1  6  0  0  0
 10  1  1  0  0  0  0
 10  6  1  0  0  0  0
 11  9  2  0  0  0  0
 11  7  1  0  0  0  0
 12 13  1  0  0  0  0
 13 32  1  6  0  0  0
 13 14  1  0  0  0  0
 14 16  1  0  0  0  0
 15 17  1  0  0  0  0
 17 16  1  0  0  0  0
 17  1  2  0  0  0  0
 18 22  1  0  0  0  0
 19 25  1  0  0  0  0
 20 29  1  0  0  0  0
 21 20  2  0  0  0  0
 22 21  1  0  0  0  0
 23  4  1  6  0  0  0
 23 27  1  0  0  0  0
 23 28  1  0  0  0  0
 24 26  2  0  0  0  0
 25 22  2  0  0  0  0
 25 24  1  0  0  0  0
 26 20  1  0  0  0  0
 27 19  1  0  0  0  0
 28 18  1  0  0  0  0
 29 31  2  0  0  0  0
 29 30  2  0  0  0  0
 33 32  1  0  0  0  0
 34 32  2  0  0  0  0
M  END
>  <MODEL>
6

>  <REMARK>
 VINA RESULT:      -8.7      3.016      5.280
  Name = 
  3 active torsions:
  status: ('A' for Active; 'I' for Inactive)
    1  A    between atoms: C_3  and  C_25
    2  A    between atoms: C_7  and  N_11
    3  A    between atoms: C_8  and  C_18
                            x       y       z     vdW  Elec       q    Type
                         _______ _______ _______ _____ _____    ______ ____

>  <TORSDO>
F 3

$$$$
=
 OpenBabel10272415073D

 34 39  0  0  1  0  0  0  0  0999 V2000
  190.8900  175.8160  138.0200 C   0  0  0  0  0  0  0  0  0  0  0  0
  193.1680  173.0940  136.2900 C   0  0  0  0  0  2  0  0  0  0  0  0
  191.0140  174.0920  135.7080 C   0  0  0  0  0  3  0  0  0  0  0  0
  189.3560  176.9330  139.4210 C   0  0  0  0  0  0  0  0  0  0  0  0
  190.5770  176.4050  139.1810 O   0  0  0  0  0  0  0  0  0  0  0  0
  188.6500  176.2880  137.2350 C   0  0  0  0  0  0  0  0  0  0  0  0
  187.8630  175.7480  136.2800 N   0  0  0  0  0  0  0  0  0  0  0  0
  188.3080  176.8440  138.4590 C   0  0  0  0  0  3  0  0  0  0  0  0
  189.9150  175.0330  135.9570 C   0  0  0  0  0  0  0  0  0  0  0  0
  189.9610  175.8460  137.0230 C   0  0  0  0  0  0  0  0  0  0  0  0
  188.6380  174.9800  135.5020 N   0  0  0  0  0  0  0  0  0  0  0  0
  194.2560  173.1310  137.3650 C   0  0  0  0  0  2  0  0  0  0  0  0
  195.1840  174.3510  137.2680 C   0  0  2  0  0  3  0  0  0  0  0  0
  194.5060  175.6290  136.7630 C   0  0  0  0  0  2  0  0  0  0  0  0
  192.0780  174.0970  136.5450 C   0  0  0  0  0  0  0  0  0  0  0  0
  193.3300  176.0840  137.6310 C   0  0  0  0  0  2  0  0  0  0  0  0
  192.1800  175.0720  137.7520 C   0  0  1  0  0  3  0  0  0  0  0  0
  188.8500  177.2290  142.9430 C   0  0  0  0  0  2  0  0  0  0  0  0
  186.6910  178.3210  141.0610 C   0  0  0  0  0  2  0  0  0  0  0  0
  186.1160  178.2770  145.3420 C   0  0  0  0  0  0  0  0  0  0  0  0
  187.2990  177.7510  144.8080 C   0  0  0  0  0  3  0  0  0  0  0  0
  187.5260  177.7520  143.4280 C   0  0  0  0  0  0  0  0  0  0  0  0
  189.1070  177.5840  140.7430 C   0  0  1  0  0  3  0  0  0  0  0  0
  185.3770  178.8360  143.0990 C   0  0  0  0  0  3  0  0  0  0  0  0
  186.5600  178.3230  142.5600 C   0  0  0  0  0  0  0  0  0  0  0  0
  185.1560  178.8190  144.4770 C   0  0  0  0  0  3  0  0  0  0  0  0
  188.0870  178.7270  140.5990 C   0  0  0  0  0  2  0  0  0  0  0  0
  188.7150  176.6200  141.6900 O   0  0  0  0  0  0  0  0  0  0  0  0
  185.8960  178.2630  146.7590 N   0  0  0  0  0  0  0  0  0  0  0  0
  184.7470  178.4140  147.2240 O   0  0  0  0  0  0  0  0  0  0  0  0
  186.9510  178.0810  147.6240 O   0  0  0  0  0  0  0  0  0  0  0  0
  196.3680  174.0340  136.4160 C   0  0  0  0  0  0  0  0  0  0  0  0
  196.6550  172.7200  136.0660 O   0  0  0  0  0  1  0  0  0  0  0  0
  197.1130  174.9650  136.0130 O   0  0  0  0  0  0  0  0  0  0  0  0
  1  5  1  0  0  0  0
  2 15  1  0  0  0  0
  2 12  1  0  0  0  0
  3  9  1  0  0  0  0
  3 15  2  0  0  0  0
  5  4  1  0  0  0  0
  6  8  1  0  0  0  0
  7  6  2  0  0  0  0
  8  4  2  0  0  0  0
  9 10  1  0  0  0  0
 10  6  1  0  0  0  0
 10  1  2  0  0  0  0
 11  9  2  0  0  0  0
 11  7  1  0  0  0  0
 13 32  1  6  0  0  0
 13 12  1  0  0  0  0
 14 13  1  0  0  0  0
 14 16  1  0  0  0  0
 15 17  1  0  0  0  0
 17 16  1  6  0  0  0
 17  1  1  0  0  0  0
 18 22  1  0  0  0  0
 19 25  1  0  0  0  0
 20 29  1  0  0  0  0
 21 20  1  0  0  0  0
 22 21  2  0  0  0  0
 23  4  1  6  0  0  0
 23 28  1  0  0  0  0
 24 26  1  0  0  0  0
 25 24  2  0  0  0  0
 25 22  1  0  0  0  0
 26 20  2  0  0  0  0
 27 23  1  0  0  0  0
 27 19  1  0  0  0  0
 28 18  1  0  0  0  0
 29 30  2  0  0  0  0
 29 31  2  0  0  0  0
 33 32  1  0  0  0  0
 34 32  2  0  0  0  0
M  END
>  <MODEL>
7

>  <REMARK>
 VINA RESULT:      -8.5      1.250      1.552
  Name = 
  3 active torsions:
  status: ('A' for Active; 'I' for Inactive)
    1  A    between atoms: C_3  and  C_25
    2  A    between atoms: C_7  and  N_11
    3  A    between atoms: C_8  and  C_18
                            x       y       z     vdW  Elec       q    Type
                         _______ _______ _______ _____ _____    ______ ____

>  <TORSDO>
F 3

$$$$
=
 OpenBabel10272415073D

 34 39  0  0  1  0  0  0  0  0999 V2000
  186.9380  177.1600  137.7080 C   0  0  0  0  0  0  0  0  0  0  0  0
  184.4060  177.2590  134.6780 C   0  0  0  0  0  2  0  0  0  0  0  0
  186.7980  176.7810  134.8490 C   0  0  0  0  0  3  0  0  0  0  0  0
  188.4400  177.7470  139.4290 C   0  0  0  0  0  0  0  0  0  0  0  0
  187.1860  177.6130  138.9430 O   0  0  0  0  0  0  0  0  0  0  0  0
  189.3240  176.9350  137.3660 C   0  0  0  0  0  0  0  0  0  0  0  0
  190.1090  176.8920  136.2690 N   0  0  0  0  0  0  0  0  0  0  0  0
  189.5810  177.4600  138.6250 C   0  0  0  0  0  3  0  0  0  0  0  0
  188.0290  176.6010  135.6290 C   0  0  0  0  0  0  0  0  0  0  0  0
  187.9980  176.7350  136.9630 C   0  0  0  0  0  0  0  0  0  0  0  0
  189.3150  176.6900  135.2090 N   0  0  0  0  0  0  0  0  0  0  0  0
  183.1970  177.6470  135.5320 C   0  0  0  0  0  2  0  0  0  0  0  0
  182.6030  176.4790  136.3330 C   0  0  2  0  0  3  0  0  0  0  0  0
  183.6290  175.4460  136.8110 C   0  0  0  0  0  2  0  0  0  0  0  0
  185.6420  177.0380  135.5060 C   0  0  0  0  0  0  0  0  0  0  0  0
  184.7210  176.0370  137.7070 C   0  0  0  0  0  2  0  0  0  0  0  0
  185.5720  177.1390  137.0560 C   0  0  1  0  0  3  0  0  0  0  0  0
  189.6300  177.8730  142.7930 C   0  0  0  0  0  2  0  0  0  0  0  0
  186.6030  177.7850  142.3180 C   0  0  0  0  0  2  0  0  0  0  0  0
  188.2500  177.6000  146.3060 C   0  0  0  0  0  0  0  0  0  0  0  0
  189.1200  177.6680  145.2120 C   0  0  0  0  0  3  0  0  0  0  0  0
  188.6280  177.7350  143.9050 C   0  0  0  0  0  0  0  0  0  0  0  0
  188.6150  178.2450  140.8270 C   0  0  1  0  0  3  0  0  0  0  0  0
  186.3630  177.6890  144.7840 C   0  0  0  0  0  3  0  0  0  0  0  0
  187.2270  177.7680  143.6870 C   0  0  0  0  0  0  0  0  0  0  0  0
  186.8670  177.6100  146.0830 C   0  0  0  0  0  3  0  0  0  0  0  0
  187.2820  178.7800  141.3810 C   0  0  0  0  0  2  0  0  0  0  0  0
  189.1750  177.2360  141.6320 O   0  0  0  0  0  0  0  0  0  0  0  0
  188.7720  177.5250  147.6410 N   0  0  0  0  0  0  0  0  0  0  0  0
  188.0190  177.6710  148.6250 O   0  0  0  0  0  0  0  0  0  0  0  0
  190.1110  177.2900  147.8490 O   0  0  0  0  0  0  0  0  0  0  0  0
  181.5320  175.8010  135.5440 C   0  0  0  0  0  0  0  0  0  0  0  0
  181.4260  174.4160  135.5420 O   0  0  0  0  0  1  0  0  0  0  0  0
  180.7210  176.4910  134.8740 O   0  0  0  0  0  0  0  0  0  0  0  0
  1  5  1  0  0  0  0
  2 15  1  0  0  0  0
  2 12  1  0  0  0  0
  3 15  2  0  0  0  0
  3  9  1  0  0  0  0
  5  4  1  0  0  0  0
  6  8  1  0  0  0  0
  7  6  2  0  0  0  0
  8  4  2  0  0  0  0
  9 10  1  0  0  0  0
 10  6  1  0  0  0  0
 10  1  2  0  0  0  0
 11  9  2  0  0  0  0
 11  7  1  0  0  0  0
 12 13  1  0  0  0  0
 13 32  1  6  0  0  0
 13 14  1  0  0  0  0
 14 16  1  0  0  0  0
 15 17  1  0  0  0  0
 17 16  1  1  0  0  0
 17  1  1  0  0  0  0
 18 22  1  0  0  0  0
 19 25  1  0  0  0  0
 20 29  1  0  0  0  0
 21 20  2  0  0  0  0
 22 21  1  0  0  0  0
 23  4  1  6  0  0  0
 23 27  1  0  0  0  0
 23 28  1  0  0  0  0
 24 26  2  0  0  0  0
 25 22  2  0  0  0  0
 25 24  1  0  0  0  0
 26 20  1  0  0  0  0
 27 19  1  0  0  0  0
 28 18  1  0  0  0  0
 29 31  2  0  0  0  0
 29 30  2  0  0  0  0
 33 32  1  0  0  0  0
 34 32  2  0  0  0  0
M  END
>  <MODEL>
8

>  <REMARK>
 VINA RESULT:      -8.4      3.785      6.400
  Name = 
  3 active torsions:
  status: ('A' for Active; 'I' for Inactive)
    1  A    between atoms: C_3  and  C_25
    2  A    between atoms: C_7  and  N_11
    3  A    between atoms: C_8  and  C_18
                            x       y       z     vdW  Elec       q    Type
                         _______ _______ _______ _____ _____    ______ ____

>  <TORSDO>
F 3

$$$$
=
 OpenBabel10272415073D

 34 39  0  0  1  0  0  0  0  0999 V2000
  188.4220  176.1330  137.6100 C   0  0  0  0  0  0  0  0  0  0  0  0
  186.2560  173.4300  135.7130 C   0  0  0  0  0  2  0  0  0  0  0  0
  186.6160  175.8250  135.3780 C   0  0  0  0  0  3  0  0  0  0  0  0
  189.2080  177.7350  139.1520 C   0  0  0  0  0  0  0  0  0  0  0  0
  188.9960  176.4540  138.7760 O   0  0  0  0  0  0  0  0  0  0  0  0
  188.2370  178.4940  137.1080 C   0  0  0  0  0  0  0  0  0  0  0  0
  187.4410  179.2140  136.2900 N   0  0  0  0  0  0  0  0  0  0  0  0
  188.7780  178.8260  138.3420 C   0  0  0  0  0  3  0  0  0  0  0  0
  187.2580  177.0980  135.7300 C   0  0  0  0  0  0  0  0  0  0  0  0
  188.1340  177.1460  136.7440 C   0  0  0  0  0  0  0  0  0  0  0  0
  186.8420  178.3590  135.4500 N   0  0  0  0  0  0  0  0  0  0  0  0
  186.6550  172.2740  136.6330 C   0  0  0  0  0  2  0  0  0  0  0  0
  188.0630  171.7220  136.3600 C   0  0  2  0  0  3  0  0  0  0  0  0
  189.0800  172.7690  135.8950 C   0  0  0  0  0  2  0  0  0  0  0  0
  186.9610  174.7100  136.0660 C   0  0  0  0  0  0  0  0  0  0  0  0
  189.2800  173.9140  136.8900 C   0  0  0  0  0  2  0  0  0  0  0  0
  188.0180  174.7310  137.2060 C   0  0  1  0  0  3  0  0  0  0  0  0
  191.2670  177.1580  142.0120 C   0  0  0  0  0  2  0  0  0  0  0  0
  188.2950  177.7670  142.4520 C   0  0  0  0  0  2  0  0  0  0  0  0
  190.8760  176.7090  145.7490 C   0  0  0  0  0  0  0  0  0  0  0  0
  191.4040  176.7410  144.4530 C   0  0  0  0  0  3  0  0  0  0  0  0
  190.6040  177.0840  143.3590 C   0  0  0  0  0  0  0  0  0  0  0  0
  189.8720  177.9930  140.4650 C   0  0  1  0  0  3  0  0  0  0  0  0
  188.7220  177.3930  144.8650 C   0  0  0  0  0  3  0  0  0  0  0  0
  189.2470  177.4370  143.5690 C   0  0  0  0  0  0  0  0  0  0  0  0
  189.5290  177.0370  145.9470 C   0  0  0  0  0  3  0  0  0  0  0  0
  188.9090  178.7150  141.4260 C   0  0  0  0  0  2  0  0  0  0  0  0
  190.3740  176.7910  140.9980 O   0  0  0  0  0  0  0  0  0  0  0  0
  191.7090  176.3490  146.8600 N   0  0  0  0  0  0  0  0  0  0  0  0
  191.7630  177.0730  147.8740 O   0  0  0  0  0  0  0  0  0  0  0  0
  192.4600  175.1960  146.8180 O   0  0  0  0  0  0  0  0  0  0  0  0
  187.9980  170.6040  135.3740 C   0  0  0  0  0  0  0  0  0  0  0  0
  189.0980  170.2980  134.5800 O   0  0  0  0  0  0  0  0  0  0  0  0
  186.9390  169.9350  135.2580 O   0  0  0  0  0  1  0  0  0  0  0  0
  1  5  1  0  0  0  0
  2 15  1  0  0  0  0
  2 12  1  0  0  0  0
  3  9  1  0  0  0  0
  3 15  2  0  0  0  0
  5  4  1  0  0  0  0
  6  8  1  0  0  0  0
  7  6  2  0  0  0  0
  8  4  2  0  0  0  0
  9 10  1  0  0  0  0
 10  6  1  0  0  0  0
 10  1  2  0  0  0  0
 11  9  2  0  0  0  0
 11  7  1  0  0  0  0
 13 32  1  6  0  0  0
 13 12  1  0  0  0  0
 14 13  1  0  0  0  0
 14 16  1  0  0  0  0
 15 17  1  0  0  0  0
 17 16  1  6  0  0  0
 17  1  1  0  0  0  0
 18 22  1  0  0  0  0
 19 25  1  0  0  0  0
 20 26  1  0  0  0  0
 20 29  1  0  0  0  0
 21 20  2  0  0  0  0
 22 25  2  0  0  0  0
 22 21  1  0  0  0  0
 23  4  1  6  0  0  0
 23 28  1  0  0  0  0
 23 27  1  0  0  0  0
 24 26  2  0  0  0  0
 25 24  1  0  0  0  0
 27 19  1  0  0  0  0
 28 18  1  0  0  0  0
 29 30  2  0  0  0  0
 31 29  2  0  0  0  0
 33 32  2  0  0  0  0
 34 32  1  0  0  0  0
M  END
>  <MODEL>
9

>  <REMARK>
 VINA RESULT:      -8.4      3.391      4.407
  Name = 
  3 active torsions:
  status: ('A' for Active; 'I' for Inactive)
    1  A    between atoms: C_3  and  C_25
    2  A    between atoms: C_7  and  N_11
    3  A    between atoms: C_8  and  C_18
                            x       y       z     vdW  Elec       q    Type
                         _______ _______ _______ _____ _____    ______ ____

>  <TORSDO>
F 3

$$$$
