=
 OpenBabel10272413353D

 32 35  0  0  1  0  0  0  0  0999 V2000
  189.3620  177.7340  137.0440 C   0  0  0  0  0  0  0  0  0  0  0  0
  189.1880  176.9790  142.0640 C   0  0  0  0  0  0  0  0  0  0  0  0
  184.8420  178.7300  143.5840 C   0  0  0  0  0  3  0  0  0  0  0  0
  185.1310  178.2940  144.8780 C   0  0  0  0  0  3  0  0  0  0  0  0
  189.7670  176.9300  139.6940 C   0  0  0  0  0  0  0  0  0  0  0  0
  187.5310  177.8620  140.3670 C   0  0  0  0  0  2  0  0  0  0  0  0
  188.3950  178.0210  138.0140 C   0  0  0  0  0  3  0  0  0  0  0  0
  185.8090  178.6330  142.5810 C   0  0  0  0  0  3  0  0  0  0  0  0
  188.1320  178.0330  141.7740 C   0  0  1  0  0  3  0  0  0  0  0  0
  187.0710  178.0800  142.8530 C   0  0  0  0  0  0  0  0  0  0  0  0
  188.7320  177.1540  144.5440 C   0  0  1  0  0  3  0  0  0  0  0  0
  190.5190  177.0290  137.3950 C   0  0  0  0  0  3  0  0  0  0  0  0
  188.6010  177.6330  139.3420 C   0  0  0  0  0  0  0  0  0  0  0  0
  190.7220  176.6260  138.7190 C   0  0  0  0  0  3  0  0  0  0  0  0
  186.3900  177.7680  145.1720 C   0  0  0  0  0  3  0  0  0  0  0  0
  187.3650  177.6620  144.1720 C   0  0  0  0  0  0  0  0  0  0  0  0
  189.9750  176.5170  141.0900 C   0  0  0  0  0  3  0  0  0  0  0  0
  189.4140  176.5460  143.4060 N   0  0  0  0  0  2  0  0  0  0  0  0
  189.1370  178.1360  135.6290 C   0  0  0  0  0  2  0  0  0  0  0  0
  189.1170  176.9570  134.7800 N   0  0  0  0  0  2  0  0  0  0  0  0
  187.8910  176.3200  135.0040 N   0  0  0  0  0  2  0  0  0  0  0  0
  188.1730  174.9030  135.1310 C   0  0  0  0  0  2  0  0  0  0  0  0
  188.0550  174.5240  136.4670 O   0  0  0  0  0  1  0  0  0  0  0  0
  189.6060  178.2240  145.2040 C   0  0  0  0  0  2  0  0  0  0  0  0
  190.1090  177.8250  146.5930 C   0  0  1  0  0  3  0  0  0  0  0  0
  189.3100  176.6540  147.1700 C   0  0  0  0  0  2  0  0  0  0  0  0
  188.3050  177.0760  148.2010 C   0  0  0  0  0  3  0  0  0  0  0  0
  188.2100  178.3460  148.5870 C   0  0  0  0  0  2  0  0  0  0  0  0
  191.4950  177.5100  146.5520 O   0  0  0  0  0  0  0  0  0  0  0  0
  191.9970  175.5420  145.4430 O   0  0  0  0  0  0  0  0  0  0  0  0
  192.4300  175.5550  147.7800 C   0  0  0  0  0  1  0  0  0  0  0  0
  191.9610  176.1930  146.5220 C   0  0  0  0  0  0  0  0  0  0  0  0
  1 12  2  0  0  0  0
  1  7  1  0  0  0  0
  2 18  1  0  0  0  0
  3  4  1  0  0  0  0
  4 15  2  0  0  0  0
  5 17  1  0  0  0  0
  7 13  2  0  0  0  0
  8 10  1  0  0  0  0
  8  3  2  0  0  0  0
  9  6  1  6  0  0  0
  9  2  1  0  0  0  0
  9 10  1  0  0  0  0
 10 16  2  0  0  0  0
 11 24  1  6  0  0  0
 12 14  1  0  0  0  0
 13  5  1  0  0  0  0
 13  6  1  0  0  0  0
 14  5  2  0  0  0  0
 16 11  1  0  0  0  0
 16 15  1  0  0  0  0
 17  2  2  0  0  0  0
 18 11  1  0  0  0  0
 19  1  1  0  0  0  0
 20 21  1  0  0  0  0
 20 19  1  0  0  0  0
 21 22  1  0  0  0  0
 22 23  1  0  0  0  0
 25 24  1  6  0  0  0
 25 26  1  0  0  0  0
 26 27  1  0  0  0  0
 27 28  2  0  0  0  0
 29 25  1  0  0  0  0
 30 32  2  0  0  0  0
 32 29  1  0  0  0  0
 32 31  1  0  0  0  0
M  END
>  <MODEL>
1

>  <REMARK>
 VINA RESULT:      -7.8      0.000      0.000
  Name = 
  10 active torsions:
  status: ('A' for Active; 'I' for Inactive)
    1  A    between atoms: N_1  and  N_10
    2  A    between atoms: N_1  and  C_17
    3  A    between atoms: C_2  and  C_24
    4  A    between atoms: C_6  and  C_7
    5  A    between atoms: C_7  and  C_32
    6  A    between atoms: N_10  and  C_24
    7  A    between atoms: C_16  and  C_27
    8  A    between atoms: O_22  and  C_30
    9  A    between atoms: O_22  and  C_32
   10  A    between atoms: C_27  and  C_32
                            x       y       z     vdW  Elec       q    Type
                         _______ _______ _______ _____ _____    ______ ____

>  <TORSDO>
F 10

$$$$
=
 OpenBabel10272413353D

 32 35  0  0  1  0  0  0  0  0999 V2000
  190.3530  176.5680  137.0850 C   0  0  0  0  0  0  0  0  0  0  0  0
  188.7940  177.9050  141.7310 C   0  0  0  0  0  0  0  0  0  0  0  0
  191.9950  175.9100  144.8990 C   0  0  0  0  0  3  0  0  0  0  0  0
  191.3200  176.5280  145.9530 C   0  0  0  0  0  3  0  0  0  0  0  0
  189.1300  177.7260  139.3210 C   0  0  0  0  0  0  0  0  0  0  0  0
  190.8120  176.6560  140.8520 C   0  0  0  0  0  2  0  0  0  0  0  0
  190.8500  176.3030  138.3660 C   0  0  0  0  0  3  0  0  0  0  0  0
  191.4830  175.9850  143.6020 C   0  0  0  0  0  3  0  0  0  0  0  0
  189.7230  176.7200  141.9380 C   0  0  1  0  0  3  0  0  0  0  0  0
  190.3010  176.6950  143.3370 C   0  0  0  0  0  0  0  0  0  0  0  0
  188.2870  177.9860  144.2050 C   0  0  1  0  0  3  0  0  0  0  0  0
  189.2600  177.4280  136.9210 C   0  0  0  0  0  3  0  0  0  0  0  0
  190.2320  176.8680  139.4850 C   0  0  0  0  0  0  0  0  0  0  0  0
  188.6480  178.0070  138.0380 C   0  0  0  0  0  3  0  0  0  0  0  0
  190.1280  177.2130  145.7120 C   0  0  0  0  0  3  0  0  0  0  0  0
  189.6090  177.2970  144.4140 C   0  0  0  0  0  0  0  0  0  0  0  0
  188.4890  178.3250  140.5000 C   0  0  0  0  0  3  0  0  0  0  0  0
  188.1590  178.5190  142.8530 N   0  0  0  0  0  2  0  0  0  0  0  0
  191.0190  175.9770  135.8930 C   0  0  0  0  0  2  0  0  0  0  0  0
  192.1730  175.1990  136.3090 N   0  0  0  0  0  2  0  0  0  0  0  0
  193.1570  175.3840  135.3300 N   0  0  0  0  0  2  0  0  0  0  0  0
  194.1390  176.2920  135.8920 C   0  0  0  0  0  2  0  0  0  0  0  0
  194.3060  176.0150  137.2470 O   0  0  0  0  0  1  0  0  0  0  0  0
  187.0910  177.1000  144.5650 C   0  0  0  0  0  2  0  0  0  0  0  0
  186.0100  177.8350  145.3630 C   0  0  1  0  0  3  0  0  0  0  0  0
  186.6120  178.6700  146.4960 C   0  0  0  0  0  2  0  0  0  0  0  0
  187.0760  177.8410  147.6570 C   0  0  0  0  0  3  0  0  0  0  0  0
  188.0380  178.2740  148.4680 C   0  0  0  0  0  2  0  0  0  0  0  0
  185.2240  178.6520  144.5040 O   0  0  0  0  0  0  0  0  0  0  0  0
  183.4380  179.0770  145.9120 O   0  0  0  0  0  0  0  0  0  0  0  0
  182.9250  178.9530  143.5960 C   0  0  0  0  0  1  0  0  0  0  0  0
  183.8690  178.8970  144.7420 C   0  0  0  0  0  0  0  0  0  0  0  0
  1  7  1  0  0  0  0
  2  9  1  0  0  0  0
  2 18  1  0  0  0  0
  3  4  1  0  0  0  0
  5 13  1  0  0  0  0
  5 17  1  0  0  0  0
  7 13  2  0  0  0  0
  8  3  2  0  0  0  0
  9  6  1  6  0  0  0
  9 10  1  0  0  0  0
 10  8  1  0  0  0  0
 10 16  2  0  0  0  0
 11 16  1  0  0  0  0
 11 24  1  6  0  0  0
 12  1  2  0  0  0  0
 12 14  1  0  0  0  0
 13  6  1  0  0  0  0
 14  5  2  0  0  0  0
 15  4  2  0  0  0  0
 16 15  1  0  0  0  0
 17  2  2  0  0  0  0
 18 11  1  0  0  0  0
 19 20  1  0  0  0  0
 19  1  1  0  0  0  0
 21 22  1  0  0  0  0
 21 20  1  0  0  0  0
 22 23  1  0  0  0  0
 25 24  1  6  0  0  0
 25 26  1  0  0  0  0
 26 27  1  0  0  0  0
 27 28  2  0  0  0  0
 29 32  1  0  0  0  0
 29 25  1  0  0  0  0
 31 32  1  0  0  0  0
 32 30  2  0  0  0  0
M  END
>  <MODEL>
2

>  <REMARK>
 VINA RESULT:      -7.8      2.780      4.775
  Name = 
  10 active torsions:
  status: ('A' for Active; 'I' for Inactive)
    1  A    between atoms: N_1  and  N_10
    2  A    between atoms: N_1  and  C_17
    3  A    between atoms: C_2  and  C_24
    4  A    between atoms: C_6  and  C_7
    5  A    between atoms: C_7  and  C_32
    6  A    between atoms: N_10  and  C_24
    7  A    between atoms: C_16  and  C_27
    8  A    between atoms: O_22  and  C_30
    9  A    between atoms: O_22  and  C_32
   10  A    between atoms: C_27  and  C_32
                            x       y       z     vdW  Elec       q    Type
                         _______ _______ _______ _____ _____    ______ ____

>  <TORSDO>
F 10

$$$$
=
 OpenBabel10272413353D

 32 35  0  0  1  0  0  0  0  0999 V2000
  190.4520  176.7680  139.3550 C   0  0  0  0  0  0  0  0  0  0  0  0
  186.4730  178.7840  141.7860 C   0  0  0  0  0  0  0  0  0  0  0  0
  187.0230  177.6360  146.5440 C   0  0  0  0  0  3  0  0  0  0  0  0
  185.8790  178.3760  146.8440 C   0  0  0  0  0  3  0  0  0  0  0  0
  188.1840  178.2070  140.1450 C   0  0  0  0  0  0  0  0  0  0  0  0
  188.5520  177.5580  142.5460 C   0  0  0  0  0  2  0  0  0  0  0  0
  190.0640  176.7740  140.6990 C   0  0  0  0  0  3  0  0  0  0  0  0
  187.4000  177.4390  145.2140 C   0  0  0  0  0  3  0  0  0  0  0  0
  187.0330  177.7300  142.7260 C   0  0  1  0  0  3  0  0  0  0  0  0
  186.6500  177.9980  144.1660 C   0  0  0  0  0  0  0  0  0  0  0  0
  184.5830  179.2630  143.3930 C   0  0  1  0  0  3  0  0  0  0  0  0
  189.7190  177.4980  138.4110 C   0  0  0  0  0  3  0  0  0  0  0  0
  188.9230  177.4790  141.0940 C   0  0  0  0  0  0  0  0  0  0  0  0
  188.5850  178.2170  138.8050 C   0  0  0  0  0  3  0  0  0  0  0  0
  185.1060  178.9140  145.8130 C   0  0  0  0  0  3  0  0  0  0  0  0
  185.4780  178.7260  144.4770 C   0  0  0  0  0  0  0  0  0  0  0  0
  186.9900  178.9540  140.5660 C   0  0  0  0  0  3  0  0  0  0  0  0
  185.3190  179.5370  142.1630 N   0  0  0  0  0  2  0  0  0  0  0  0
  191.6720  176.0280  138.9370 C   0  0  0  0  0  2  0  0  0  0  0  0
  192.1030  176.4880  137.6270 N   0  0  0  0  0  2  0  0  0  0  0  0
  193.4780  176.7330  137.7190 N   0  0  0  0  0  2  0  0  0  0  0  0
  194.1250  175.4420  137.8600 C   0  0  0  0  0  2  0  0  0  0  0  0
  195.1930  175.3590  136.9700 O   0  0  0  0  0  1  0  0  0  0  0  0
  183.3710  178.3660  143.1230 C   0  0  0  0  0  2  0  0  0  0  0  0
  182.6670  178.6780  141.8000 C   0  0  1  0  0  3  0  0  0  0  0  0
  183.1590  177.7710  140.6690 C   0  0  0  0  0  2  0  0  0  0  0  0
  183.4560  178.5170  139.4010 C   0  0  0  0  0  3  0  0  0  0  0  0
  183.8400  177.8740  138.3010 C   0  0  0  0  0  2  0  0  0  0  0  0
  181.2560  178.5730  141.9460 O   0  0  0  0  0  0  0  0  0  0  0  0
  180.3880  180.4670  142.9520 O   0  0  0  0  0  0  0  0  0  0  0  0
  180.0150  178.4200  144.0990 C   0  0  0  0  0  1  0  0  0  0  0  0
  180.5630  179.2190  142.9720 C   0  0  0  0  0  0  0  0  0  0  0  0
  1  7  1  0  0  0  0
  2 18  1  0  0  0  0
  2  9  1  0  0  0  0
  3  4  1  0  0  0  0
  5 17  1  0  0  0  0
  5 13  1  0  0  0  0
  7 13  2  0  0  0  0
  8  3  2  0  0  0  0
  9  6  1  1  0  0  0
  9 10  1  0  0  0  0
 10 16  2  0  0  0  0
 10  8  1  0  0  0  0
 11 24  1  6  0  0  0
 11 16  1  0  0  0  0
 12 14  1  0  0  0  0
 12  1  2  0  0  0  0
 13  6  1  0  0  0  0
 14  5  2  0  0  0  0
 15  4  2  0  0  0  0
 16 15  1  0  0  0  0
 17  2  2  0  0  0  0
 18 11  1  0  0  0  0
 19  1  1  0  0  0  0
 20 21  1  0  0  0  0
 20 19  1  0  0  0  0
 21 22  1  0  0  0  0
 23 22  1  0  0  0  0
 25 26  1  6  0  0  0
 25 29  1  0  0  0  0
 25 24  1  0  0  0  0
 27 26  1  0  0  0  0
 28 27  2  0  0  0  0
 29 32  1  0  0  0  0
 30 32  2  0  0  0  0
 32 31  1  0  0  0  0
M  END
>  <MODEL>
3

>  <REMARK>
 VINA RESULT:      -7.7      3.890      6.578
  Name = 
  10 active torsions:
  status: ('A' for Active; 'I' for Inactive)
    1  A    between atoms: N_1  and  N_10
    2  A    between atoms: N_1  and  C_17
    3  A    between atoms: C_2  and  C_24
    4  A    between atoms: C_6  and  C_7
    5  A    between atoms: C_7  and  C_32
    6  A    between atoms: N_10  and  C_24
    7  A    between atoms: C_16  and  C_27
    8  A    between atoms: O_22  and  C_30
    9  A    between atoms: O_22  and  C_32
   10  A    between atoms: C_27  and  C_32
                            x       y       z     vdW  Elec       q    Type
                         _______ _______ _______ _____ _____    ______ ____

>  <TORSDO>
F 10

$$$$
=
 OpenBabel10272413353D

 32 35  0  0  1  0  0  0  0  0999 V2000
  187.5470  177.7080  145.2910 C   0  0  0  0  0  0  0  0  0  0  0  0
  190.3230  177.2820  141.0590 C   0  0  0  0  0  0  0  0  0  0  0  0
  187.3130  178.3440  137.3080 C   0  0  0  0  0  3  0  0  0  0  0  0
  188.3850  178.2070  136.4240 C   0  0  0  0  0  3  0  0  0  0  0  0
  189.5710  177.4780  143.3720 C   0  0  0  0  0  0  0  0  0  0  0  0
  187.9510  178.0250  141.5290 C   0  0  0  0  0  2  0  0  0  0  0  0
  187.2450  177.8830  143.9360 C   0  0  0  0  0  3  0  0  0  0  0  0
  187.4780  178.0340  138.6590 C   0  0  0  0  0  3  0  0  0  0  0  0
  188.8750  177.2130  140.6040 C   0  0  1  0  0  3  0  0  0  0  0  0
  188.7220  177.6030  139.1490 C   0  0  0  0  0  0  0  0  0  0  0  0
  191.1220  176.8910  138.6930 C   0  0  1  0  0  3  0  0  0  0  0  0
  188.8630  177.4390  145.6870 C   0  0  0  0  0  3  0  0  0  0  0  0
  188.2510  177.7540  142.9740 C   0  0  0  0  0  0  0  0  0  0  0  0
  189.8750  177.3240  144.7280 C   0  0  0  0  0  3  0  0  0  0  0  0
  189.6190  177.7520  136.8890 C   0  0  0  0  0  3  0  0  0  0  0  0
  189.7960  177.4430  138.2430 C   0  0  0  0  0  0  0  0  0  0  0  0
  190.6280  177.3510  142.3570 C   0  0  0  0  0  3  0  0  0  0  0  0
  191.3780  177.1710  140.1020 N   0  0  0  0  0  2  0  0  0  0  0  0
  186.4780  177.8570  146.3150 C   0  0  0  0  0  2  0  0  0  0  0  0
  185.7320  179.0800  146.0730 N   0  0  0  0  0  2  0  0  0  0  0  0
  184.3810  178.7740  146.2790 N   0  0  0  0  0  2  0  0  0  0  0  0
  183.7240  178.8940  144.9920 C   0  0  0  0  0  2  0  0  0  0  0  0
  184.3950  179.8350  144.2140 O   0  0  0  0  0  1  0  0  0  0  0  0
  191.2780  175.3980  138.3900 C   0  0  0  0  0  2  0  0  0  0  0  0
  192.1430  175.1160  137.1590 C   0  0  1  0  0  3  0  0  0  0  0  0
  191.3080  174.5960  135.9860 C   0  0  0  0  0  2  0  0  0  0  0  0
  189.9880  174.0240  136.4100 C   0  0  0  0  0  3  0  0  0  0  0  0
  188.8810  174.2580  135.7080 C   0  0  0  0  0  2  0  0  0  0  0  0
  192.8670  176.2800  136.7780 O   0  0  0  0  0  0  0  0  0  0  0  0
  195.1380  175.8450  136.7160 O   0  0  0  0  0  0  0  0  0  0  0  0
  194.1650  176.5700  134.6730 C   0  0  0  0  0  1  0  0  0  0  0  0
  194.0940  176.2120  136.1130 C   0  0  0  0  0  0  0  0  0  0  0  0
  1 12  1  0  0  0  0
  1 19  1  0  0  0  0
  2 17  2  0  0  0  0
  3  8  1  0  0  0  0
  4 15  1  0  0  0  0
  4  3  2  0  0  0  0
  5 14  1  0  0  0  0
  6 13  1  0  0  0  0
  7  1  2  0  0  0  0
  8 10  2  0  0  0  0
  9  2  1  0  0  0  0
  9  6  1  1  0  0  0
 10  9  1  0  0  0  0
 11 24  1  1  0  0  0
 11 18  1  0  0  0  0
 13  5  2  0  0  0  0
 13  7  1  0  0  0  0
 14 12  2  0  0  0  0
 15 16  2  0  0  0  0
 16 11  1  0  0  0  0
 16 10  1  0  0  0  0
 17  5  1  0  0  0  0
 18  2  1  0  0  0  0
 20 21  1  0  0  0  0
 20 19  1  0  0  0  0
 22 21  1  0  0  0  0
 23 22  1  0  0  0  0
 25 26  1  6  0  0  0
 25 24  1  0  0  0  0
 26 27  1  0  0  0  0
 28 27  2  0  0  0  0
 29 25  1  0  0  0  0
 31 32  1  0  0  0  0
 32 30  2  0  0  0  0
 32 29  1  0  0  0  0
M  END
>  <MODEL>
4

>  <REMARK>
 VINA RESULT:      -7.6      3.196      8.543
  Name = 
  10 active torsions:
  status: ('A' for Active; 'I' for Inactive)
    1  A    between atoms: N_1  and  N_10
    2  A    between atoms: N_1  and  C_17
    3  A    between atoms: C_2  and  C_24
    4  A    between atoms: C_6  and  C_7
    5  A    between atoms: C_7  and  C_32
    6  A    between atoms: N_10  and  C_24
    7  A    between atoms: C_16  and  C_27
    8  A    between atoms: O_22  and  C_30
    9  A    between atoms: O_22  and  C_32
   10  A    between atoms: C_27  and  C_32
                            x       y       z     vdW  Elec       q    Type
                         _______ _______ _______ _____ _____    ______ ____

>  <TORSDO>
F 10

$$$$
=
 OpenBabel10272413353D

 32 35  0  0  1  0  0  0  0  0999 V2000
  191.5510  175.9420  136.6730 C   0  0  0  0  0  0  0  0  0  0  0  0
  188.9870  177.9540  140.5690 C   0  0  0  0  0  0  0  0  0  0  0  0
  191.5060  176.7920  144.6390 C   0  0  0  0  0  3  0  0  0  0  0  0
  190.5990  177.5330  145.3990 C   0  0  0  0  0  3  0  0  0  0  0  0
  189.8370  177.3800  138.3550 C   0  0  0  0  0  0  0  0  0  0  0  0
  191.1900  176.7250  140.3700 C   0  0  0  0  0  2  0  0  0  0  0  0
  191.7710  175.9440  138.0550 C   0  0  0  0  0  3  0  0  0  0  0  0
  191.2810  176.5990  143.2750 C   0  0  0  0  0  3  0  0  0  0  0  0
  189.8920  176.8970  141.1800 C   0  0  1  0  0  3  0  0  0  0  0  0
  190.1580  177.1610  142.6470 C   0  0  0  0  0  0  0  0  0  0  0  0
  187.9600  178.4310  142.8290 C   0  0  1  0  0  3  0  0  0  0  0  0
  190.4870  176.6760  136.1320 C   0  0  0  0  0  3  0  0  0  0  0  0
  190.9080  176.6490  138.8990 C   0  0  0  0  0  0  0  0  0  0  0  0
  189.6310  177.3940  136.9720 C   0  0  0  0  0  3  0  0  0  0  0  0
  189.4620  178.0740  144.7960 C   0  0  0  0  0  3  0  0  0  0  0  0
  189.2310  177.8900  143.4280 C   0  0  0  0  0  0  0  0  0  0  0  0
  188.9370  178.1270  139.2460 C   0  0  0  0  0  3  0  0  0  0  0  0
  188.1050  178.7070  141.4030 N   0  0  0  0  0  2  0  0  0  0  0  0
  192.4760  175.2020  135.7740 C   0  0  0  0  0  2  0  0  0  0  0  0
  193.8500  175.5750  136.0660 N   0  0  0  0  0  2  0  0  0  0  0  0
  194.3220  176.2760  134.9490 N   0  0  0  0  0  2  0  0  0  0  0  0
  195.6220  176.8100  135.3110 C   0  0  0  0  0  2  0  0  0  0  0  0
  195.5300  178.1920  135.4610 O   0  0  0  0  0  1  0  0  0  0  0  0
  186.7470  177.5350  143.0970 C   0  0  0  0  0  2  0  0  0  0  0  0
  185.4550  178.3200  143.3370 C   0  0  1  0  0  3  0  0  0  0  0  0
  185.4340  178.9670  144.7240 C   0  0  0  0  0  2  0  0  0  0  0  0
  184.1230  178.7990  145.4340 C   0  0  0  0  0  3  0  0  0  0  0  0
  182.9700  178.8970  144.7780 C   0  0  0  0  0  2  0  0  0  0  0  0
  185.2710  179.3020  142.3250 O   0  0  0  0  0  0  0  0  0  0  0  0
  185.0160  179.5400  140.0380 O   0  0  0  0  0  0  0  0  0  0  0  0
  183.4740  178.0830  141.1070 C   0  0  0  0  0  1  0  0  0  0  0  0
  184.6270  179.0190  141.1180 C   0  0  0  0  0  0  0  0  0  0  0  0
  1  7  1  0  0  0  0
  2  9  1  0  0  0  0
  2 18  1  0  0  0  0
  3  4  1  0  0  0  0
  5 13  1  0  0  0  0
  5 17  1  0  0  0  0
  7 13  2  0  0  0  0
  8  3  2  0  0  0  0
  9  6  1  6  0  0  0
  9 10  1  0  0  0  0
 10  8  1  0  0  0  0
 10 16  2  0  0  0  0
 11 24  1  6  0  0  0
 11 16  1  0  0  0  0
 12  1  2  0  0  0  0
 12 14  1  0  0  0  0
 13  6  1  0  0  0  0
 14  5  2  0  0  0  0
 15  4  2  0  0  0  0
 16 15  1  0  0  0  0
 17  2  2  0  0  0  0
 18 11  1  0  0  0  0
 19 20  1  0  0  0  0
 19  1  1  0  0  0  0
 21 22  1  0  0  0  0
 21 20  1  0  0  0  0
 22 23  1  0  0  0  0
 25 24  1  6  0  0  0
 25 26  1  0  0  0  0
 26 27  1  0  0  0  0
 28 27  2  0  0  0  0
 29 25  1  0  0  0  0
 30 32  2  0  0  0  0
 31 32  1  0  0  0  0
 32 29  1  0  0  0  0
M  END
>  <MODEL>
5

>  <REMARK>
 VINA RESULT:      -7.6      3.228      5.471
  Name = 
  10 active torsions:
  status: ('A' for Active; 'I' for Inactive)
    1  A    between atoms: N_1  and  N_10
    2  A    between atoms: N_1  and  C_17
    3  A    between atoms: C_2  and  C_24
    4  A    between atoms: C_6  and  C_7
    5  A    between atoms: C_7  and  C_32
    6  A    between atoms: N_10  and  C_24
    7  A    between atoms: C_16  and  C_27
    8  A    between atoms: O_22  and  C_30
    9  A    between atoms: O_22  and  C_32
   10  A    between atoms: C_27  and  C_32
                            x       y       z     vdW  Elec       q    Type
                         _______ _______ _______ _____ _____    ______ ____

>  <TORSDO>
F 10

$$$$
=
 OpenBabel10272413353D

 32 35  0  0  1  0  0  0  0  0999 V2000
  188.9000  177.4630  145.5940 C   0  0  0  0  0  0  0  0  0  0  0  0
  185.5590  178.3440  141.8700 C   0  0  0  0  0  0  0  0  0  0  0  0
  181.2130  179.1160  144.0550 C   0  0  0  0  0  3  0  0  0  0  0  0
  180.6450  179.3780  142.8070 C   0  0  0  0  0  3  0  0  0  0  0  0
  187.5900  178.0210  143.1850 C   0  0  0  0  0  0  0  0  0  0  0  0
  185.4180  178.3890  144.3960 C   0  0  0  0  0  2  0  0  0  0  0  0
  187.5280  177.7420  145.5950 C   0  0  0  0  0  3  0  0  0  0  0  0
  182.5340  178.6740  144.1420 C   0  0  0  0  0  3  0  0  0  0  0  0
  184.7260  177.9730  143.0860 C   0  0  1  0  0  3  0  0  0  0  0  0
  183.3130  178.5090  142.9850 C   0  0  0  0  0  0  0  0  0  0  0  0
  183.4780  178.4990  140.4460 C   0  0  1  0  0  3  0  0  0  0  0  0
  189.6180  177.4850  144.3930 C   0  0  0  0  0  3  0  0  0  0  0  0
  186.8680  178.0060  144.3910 C   0  0  0  0  0  0  0  0  0  0  0  0
  188.9640  177.7630  143.1880 C   0  0  0  0  0  3  0  0  0  0  0  0
  181.3960  179.1910  141.6450 C   0  0  0  0  0  3  0  0  0  0  0  0
  182.7230  178.7530  141.7230 C   0  0  0  0  0  0  0  0  0  0  0  0
  186.8930  178.3080  141.9220 C   0  0  0  0  0  3  0  0  0  0  0  0
  184.9190  178.6380  140.6280 N   0  0  0  0  0  2  0  0  0  0  0  0
  189.6040  177.1940  146.8770 C   0  0  0  0  0  2  0  0  0  0  0  0
  191.0070  176.9200  146.6200 N   0  0  0  0  0  2  0  0  0  0  0  0
  191.6410  176.8630  147.8670 N   0  0  0  0  0  2  0  0  0  0  0  0
  192.5260  175.7130  147.8330 C   0  0  0  0  0  2  0  0  0  0  0  0
  192.4600  175.1130  146.5780 O   0  0  0  0  0  1  0  0  0  0  0  0
  183.1290  177.1510  139.8070 C   0  0  0  0  0  2  0  0  0  0  0  0
  182.8810  177.2400  138.2990 C   0  0  1  0  0  3  0  0  0  0  0  0
  181.5480  177.9230  137.9840 C   0  0  0  0  0  2  0  0  0  0  0  0
  181.7110  179.2950  137.4000 C   0  0  0  0  0  3  0  0  0  0  0  0
  181.3040  180.3750  138.0620 C   0  0  0  0  0  2  0  0  0  0  0  0
  183.9530  177.9170  137.6550 O   0  0  0  0  0  0  0  0  0  0  0  0
  185.1030  176.0250  136.9830 O   0  0  0  0  0  0  0  0  0  0  0  0
  186.3830  178.0220  137.1230 C   0  0  0  0  0  1  0  0  0  0  0  0
  185.1160  177.2570  137.2500 C   0  0  0  0  0  0  0  0  0  0  0  0
  1  7  1  0  0  0  0
  1 19  1  0  0  0  0
  2 17  2  0  0  0  0
  2  9  1  0  0  0  0
  3  8  1  0  0  0  0
  4  3  2  0  0  0  0
  5 14  2  0  0  0  0
  5 13  1  0  0  0  0
  9  6  1  1  0  0  0
 10  9  1  0  0  0  0
 10  8  2  0  0  0  0
 11 24  1  1  0  0  0
 11 18  1  0  0  0  0
 11 16  1  0  0  0  0
 12  1  2  0  0  0  0
 13  6  1  0  0  0  0
 13  7  2  0  0  0  0
 14 12  1  0  0  0  0
 15 16  2  0  0  0  0
 15  4  1  0  0  0  0
 16 10  1  0  0  0  0
 17  5  1  0  0  0  0
 18  2  1  0  0  0  0
 20 19  1  0  0  0  0
 20 21  1  0  0  0  0
 22 21  1  0  0  0  0
 23 22  1  0  0  0  0
 25 26  1  1  0  0  0
 25 24  1  0  0  0  0
 27 26  1  0  0  0  0
 27 28  2  0  0  0  0
 29 25  1  0  0  0  0
 30 32  2  0  0  0  0
 31 32  1  0  0  0  0
 32 29  1  0  0  0  0
M  END
>  <MODEL>
6

>  <REMARK>
 VINA RESULT:      -7.5      3.467      8.832
  Name = 
  10 active torsions:
  status: ('A' for Active; 'I' for Inactive)
    1  A    between atoms: N_1  and  N_10
    2  A    between atoms: N_1  and  C_17
    3  A    between atoms: C_2  and  C_24
    4  A    between atoms: C_6  and  C_7
    5  A    between atoms: C_7  and  C_32
    6  A    between atoms: N_10  and  C_24
    7  A    between atoms: C_16  and  C_27
    8  A    between atoms: O_22  and  C_30
    9  A    between atoms: O_22  and  C_32
   10  A    between atoms: C_27  and  C_32
                            x       y       z     vdW  Elec       q    Type
                         _______ _______ _______ _____ _____    ______ ____

>  <TORSDO>
F 10

$$$$
=
 OpenBabel10272413353D

 32 35  0  0  1  0  0  0  0  0999 V2000
  182.0460  179.3990  142.4600 C   0  0  0  0  0  0  0  0  0  0  0  0
  186.5450  177.4510  143.7880 C   0  0  0  0  0  0  0  0  0  0  0  0
  187.1000  178.3800  148.5930 C   0  0  0  0  0  3  0  0  0  0  0  0
  188.3050  177.6750  148.5790 C   0  0  0  0  0  3  0  0  0  0  0  0
  184.4790  178.0240  142.6240 C   0  0  0  0  0  0  0  0  0  0  0  0
  184.6680  178.5580  145.0740 C   0  0  0  0  0  2  0  0  0  0  0  0
  182.7410  179.3540  143.6740 C   0  0  0  0  0  3  0  0  0  0  0  0
  186.4140  178.6150  147.4000 C   0  0  0  0  0  3  0  0  0  0  0  0
  186.1910  178.4420  144.8840 C   0  0  1  0  0  3  0  0  0  0  0  0
  186.9120  178.1310  146.1790 C   0  0  0  0  0  0  0  0  0  0  0  0
  188.7760  176.9840  144.8810 C   0  0  1  0  0  3  0  0  0  0  0  0
  182.5570  178.7390  141.3360 C   0  0  0  0  0  3  0  0  0  0  0  0
  183.9630  178.6810  143.7550 C   0  0  0  0  0  0  0  0  0  0  0  0
  183.7730  178.0520  141.4170 C   0  0  0  0  0  3  0  0  0  0  0  0
  188.8280  177.2120  147.3700 C   0  0  0  0  0  3  0  0  0  0  0  0
  188.1460  177.4390  146.1700 C   0  0  0  0  0  0  0  0  0  0  0  0
  185.7600  177.3100  142.7170 C   0  0  0  0  0  3  0  0  0  0  0  0
  187.7780  176.7320  143.8460 N   0  0  0  0  0  2  0  0  0  0  0  0
  180.7390  180.1050  142.3770 C   0  0  0  0  0  2  0  0  0  0  0  0
  180.1120  179.8310  141.0950 N   0  0  0  0  0  2  0  0  0  0  0  0
  179.9860  181.0620  140.4390 N   0  0  0  0  0  2  0  0  0  0  0  0
  180.5160  180.8770  139.1010 C   0  0  0  0  0  2  0  0  0  0  0  0
  181.0170  182.0890  138.6290 O   0  0  0  0  0  1  0  0  0  0  0  0
  189.8610  177.9410  144.3790 C   0  0  0  0  0  2  0  0  0  0  0  0
  191.0400  177.2260  143.7130 C   0  0  1  0  0  3  0  0  0  0  0  0
  191.6510  176.1650  144.6310 C   0  0  0  0  0  2  0  0  0  0  0  0
  191.8060  176.6300  146.0490 C   0  0  0  0  0  3  0  0  0  0  0  0
  192.2090  175.7960  147.0040 C   0  0  0  0  0  2  0  0  0  0  0  0
  190.6390  176.6460  142.4770 O   0  0  0  0  0  0  0  0  0  0  0  0
  191.8870  177.8270  140.9280 O   0  0  0  0  0  0  0  0  0  0  0  0
  189.6260  177.4050  140.3330 C   0  0  0  0  0  1  0  0  0  0  0  0
  190.7850  177.3120  141.2580 C   0  0  0  0  0  0  0  0  0  0  0  0
  1  7  1  0  0  0  0
  2 18  1  0  0  0  0
  2  9  1  0  0  0  0
  4  3  1  0  0  0  0
  5 17  1  0  0  0  0
  5 13  1  0  0  0  0
  7 13  2  0  0  0  0
  8  3  2  0  0  0  0
  9  6  1  1  0  0  0
  9 10  1  0  0  0  0
 10  8  1  0  0  0  0
 11 24  1  6  0  0  0
 11 16  1  0  0  0  0
 12 14  1  0  0  0  0
 12  1  2  0  0  0  0
 13  6  1  0  0  0  0
 14  5  2  0  0  0  0
 15  4  2  0  0  0  0
 16 10  2  0  0  0  0
 16 15  1  0  0  0  0
 17  2  2  0  0  0  0
 18 11  1  0  0  0  0
 19  1  1  0  0  0  0
 20 19  1  0  0  0  0
 21 20  1  0  0  0  0
 22 21  1  0  0  0  0
 23 22  1  0  0  0  0
 25 24  1  1  0  0  0
 25 26  1  0  0  0  0
 26 27  1  0  0  0  0
 27 28  2  0  0  0  0
 29 25  1  0  0  0  0
 30 32  2  0  0  0  0
 31 32  1  0  0  0  0
 32 29  1  0  0  0  0
M  END
>  <MODEL>
7

>  <REMARK>
 VINA RESULT:      -7.5      3.925      6.483
  Name = 
  10 active torsions:
  status: ('A' for Active; 'I' for Inactive)
    1  A    between atoms: N_1  and  N_10
    2  A    between atoms: N_1  and  C_17
    3  A    between atoms: C_2  and  C_24
    4  A    between atoms: C_6  and  C_7
    5  A    between atoms: C_7  and  C_32
    6  A    between atoms: N_10  and  C_24
    7  A    between atoms: C_16  and  C_27
    8  A    between atoms: O_22  and  C_30
    9  A    between atoms: O_22  and  C_32
   10  A    between atoms: C_27  and  C_32
                            x       y       z     vdW  Elec       q    Type
                         _______ _______ _______ _____ _____    ______ ____

>  <TORSDO>
F 10

$$$$
=
 OpenBabel10272413353D

 32 35  0  0  1  0  0  0  0  0999 V2000
  188.9530  177.4310  145.9110 C   0  0  0  0  0  0  0  0  0  0  0  0
  191.0630  177.2850  141.2930 C   0  0  0  0  0  0  0  0  0  0  0  0
  187.4760  178.3560  138.0910 C   0  0  0  0  0  3  0  0  0  0  0  0
  188.4040  178.2990  137.0490 C   0  0  0  0  0  3  0  0  0  0  0  0
  190.6670  177.3610  143.6990 C   0  0  0  0  0  0  0  0  0  0  0  0
  188.7640  177.9060  142.1490 C   0  0  0  0  0  2  0  0  0  0  0  0
  188.4410  177.6440  144.6260 C   0  0  0  0  0  3  0  0  0  0  0  0
  187.8580  178.0030  139.3870 C   0  0  0  0  0  3  0  0  0  0  0  0
  189.5660  177.1710  141.0600 C   0  0  1  0  0  3  0  0  0  0  0  0
  189.1770  177.6080  139.6630 C   0  0  0  0  0  0  0  0  0  0  0  0
  191.5040  177.0190  138.8180 C   0  0  1  0  0  3  0  0  0  0  0  0
  190.3230  177.2050  146.0910 C   0  0  0  0  0  3  0  0  0  0  0  0
  189.2920  177.5950  143.5180 C   0  0  0  0  0  0  0  0  0  0  0  0
  191.1800  177.1700  144.9860 C   0  0  0  0  0  3  0  0  0  0  0  0
  189.7120  177.8810  137.3020 C   0  0  0  0  0  3  0  0  0  0  0  0
  190.1050  177.5290  138.5990 C   0  0  0  0  0  0  0  0  0  0  0  0
  191.5590  177.3190  142.5320 C   0  0  0  0  0  3  0  0  0  0  0  0
  191.9620  177.2570  140.1840 N   0  0  0  0  0  2  0  0  0  0  0  0
  188.0490  177.4950  147.0910 C   0  0  0  0  0  2  0  0  0  0  0  0
  187.2160  178.6820  147.0080 N   0  0  0  0  0  2  0  0  0  0  0  0
  185.8870  178.2420  147.0030 N   0  0  0  0  0  2  0  0  0  0  0  0
  185.2700  178.7880  145.8090 C   0  0  0  0  0  2  0  0  0  0  0  0
  183.8850  178.7970  145.9650 O   0  0  0  0  0  1  0  0  0  0  0  0
  191.6680  175.5470  138.4300 C   0  0  0  0  0  2  0  0  0  0  0  0
  192.8600  175.2930  137.5040 C   0  0  1  0  0  3  0  0  0  0  0  0
  192.8110  176.1820  136.2600 C   0  0  0  0  0  2  0  0  0  0  0  0
  192.1350  175.5270  135.0920 C   0  0  0  0  0  3  0  0  0  0  0  0
  191.0160  176.0300  134.5760 C   0  0  0  0  0  2  0  0  0  0  0  0
  194.0850  175.4800  138.2030 O   0  0  0  0  0  0  0  0  0  0  0  0
  196.2550  175.0430  137.5290 O   0  0  0  0  0  0  0  0  0  0  0  0
  195.0710  173.2090  138.4690 C   0  0  0  0  0  1  0  0  0  0  0  0
  195.1780  174.6260  138.0350 C   0  0  0  0  0  0  0  0  0  0  0  0
  1 12  1  0  0  0  0
  1 19  1  0  0  0  0
  2 17  2  0  0  0  0
  3  8  1  0  0  0  0
  4 15  1  0  0  0  0
  4  3  2  0  0  0  0
  5 14  1  0  0  0  0
  6 13  1  0  0  0  0
  7  1  2  0  0  0  0
  8 10  2  0  0  0  0
  9  2  1  0  0  0  0
  9  6  1  1  0  0  0
 10  9  1  0  0  0  0
 11 24  1  1  0  0  0
 11 18  1  0  0  0  0
 13  5  2  0  0  0  0
 13  7  1  0  0  0  0
 14 12  2  0  0  0  0
 15 16  2  0  0  0  0
 16 11  1  0  0  0  0
 16 10  1  0  0  0  0
 17  5  1  0  0  0  0
 18  2  1  0  0  0  0
 20 19  1  0  0  0  0
 21 20  1  0  0  0  0
 22 23  1  0  0  0  0
 22 21  1  0  0  0  0
 25 26  1  6  0  0  0
 25 29  1  0  0  0  0
 25 24  1  0  0  0  0
 27 26  1  0  0  0  0
 28 27  2  0  0  0  0
 30 32  2  0  0  0  0
 32 29  1  0  0  0  0
 32 31  1  0  0  0  0
M  END
>  <MODEL>
8

>  <REMARK>
 VINA RESULT:      -7.4      3.337      8.538
  Name = 
  10 active torsions:
  status: ('A' for Active; 'I' for Inactive)
    1  A    between atoms: N_1  and  N_10
    2  A    between atoms: N_1  and  C_17
    3  A    between atoms: C_2  and  C_24
    4  A    between atoms: C_6  and  C_7
    5  A    between atoms: C_7  and  C_32
    6  A    between atoms: N_10  and  C_24
    7  A    between atoms: C_16  and  C_27
    8  A    between atoms: O_22  and  C_30
    9  A    between atoms: O_22  and  C_32
   10  A    between atoms: C_27  and  C_32
                            x       y       z     vdW  Elec       q    Type
                         _______ _______ _______ _____ _____    ______ ____

>  <TORSDO>
F 10

$$$$
=
 OpenBabel10272413353D

 32 35  0  0  1  0  0  0  0  0999 V2000
  190.7390  176.9850  144.2460 C   0  0  0  0  0  0  0  0  0  0  0  0
  186.5770  178.4130  141.7080 C   0  0  0  0  0  0  0  0  0  0  0  0
  182.9740  178.7880  145.0440 C   0  0  0  0  0  3  0  0  0  0  0  0
  182.1100  179.2400  144.0450 C   0  0  0  0  0  3  0  0  0  0  0  0
  188.8680  177.9050  142.3790 C   0  0  0  0  0  0  0  0  0  0  0  0
  187.0980  178.0560  144.1580 C   0  0  0  0  0  2  0  0  0  0  0  0
  189.4250  177.2470  144.6480 C   0  0  0  0  0  3  0  0  0  0  0  0
  184.2580  178.3510  144.7140 C   0  0  0  0  0  3  0  0  0  0  0  0
  186.0770  177.8470  143.0260 C   0  0  1  0  0  3  0  0  0  0  0  0
  184.7040  178.3780  143.3820 C   0  0  0  0  0  0  0  0  0  0  0  0
  184.2040  178.7720  140.9180 C   0  0  1  0  0  3  0  0  0  0  0  0
  191.1220  177.2040  142.9170 C   0  0  0  0  0  3  0  0  0  0  0  0
  188.4840  177.6920  143.7150 C   0  0  0  0  0  0  0  0  0  0  0  0
  190.1870  177.6630  141.9830 C   0  0  0  0  0  3  0  0  0  0  0  0
  182.5280  179.2460  142.7130 C   0  0  0  0  0  3  0  0  0  0  0  0
  183.8150  178.8140  142.3720 C   0  0  0  0  0  0  0  0  0  0  0  0
  187.8770  178.3820  141.4030 C   0  0  0  0  0  3  0  0  0  0  0  0
  185.6470  178.8940  140.7370 N   0  0  0  0  0  2  0  0  0  0  0  0
  191.7430  176.5230  145.2420 C   0  0  0  0  0  2  0  0  0  0  0  0
  191.6060  177.2880  146.4700 N   0  0  0  0  0  2  0  0  0  0  0  0
  191.2150  176.3840  147.4650 N   0  0  0  0  0  2  0  0  0  0  0  0
  192.3590  175.5310  147.7280 C   0  0  0  0  0  2  0  0  0  0  0  0
  193.2110  176.1630  148.6310 O   0  0  0  0  0  1  0  0  0  0  0  0
  183.6580  177.5390  140.1920 C   0  0  0  0  0  2  0  0  0  0  0  0
  183.0900  177.8540  138.8060 C   0  0  1  0  0  3  0  0  0  0  0  0
  181.8780  178.7850  138.8880 C   0  0  0  0  0  2  0  0  0  0  0  0
  182.1720  180.1790  138.4160 C   0  0  0  0  0  3  0  0  0  0  0  0
  181.4550  181.2140  138.8460 C   0  0  0  0  0  2  0  0  0  0  0  0
  184.0940  178.4140  137.9680 O   0  0  0  0  0  0  0  0  0  0  0  0
  184.6970  176.7660  136.4600 O   0  0  0  0  0  0  0  0  0  0  0  0
  186.4860  177.8140  137.6200 C   0  0  0  0  0  1  0  0  0  0  0  0
  185.0440  177.6270  137.3130 C   0  0  0  0  0  0  0  0  0  0  0  0
  1  7  1  0  0  0  0
  1 19  1  0  0  0  0
  2  9  1  0  0  0  0
  4  3  2  0  0  0  0
  5 13  1  0  0  0  0
  8  3  1  0  0  0  0
  9 10  1  0  0  0  0
  9  6  1  1  0  0  0
 10  8  2  0  0  0  0
 11 24  1  1  0  0  0
 11 16  1  0  0  0  0
 12  1  2  0  0  0  0
 13  6  1  0  0  0  0
 13  7  2  0  0  0  0
 14  5  2  0  0  0  0
 14 12  1  0  0  0  0
 15  4  1  0  0  0  0
 16 15  2  0  0  0  0
 16 10  1  0  0  0  0
 17  2  2  0  0  0  0
 17  5  1  0  0  0  0
 18 11  1  0  0  0  0
 18  2  1  0  0  0  0
 19 20  1  0  0  0  0
 20 21  1  0  0  0  0
 21 22  1  0  0  0  0
 22 23  1  0  0  0  0
 25 26  1  1  0  0  0
 25 24  1  0  0  0  0
 27 28  2  0  0  0  0
 27 26  1  0  0  0  0
 29 25  1  0  0  0  0
 30 32  2  0  0  0  0
 32 31  1  0  0  0  0
 32 29  1  0  0  0  0
M  END
>  <MODEL>
9

>  <REMARK>
 VINA RESULT:      -7.4      3.141      8.367
  Name = 
  10 active torsions:
  status: ('A' for Active; 'I' for Inactive)
    1  A    between atoms: N_1  and  N_10
    2  A    between atoms: N_1  and  C_17
    3  A    between atoms: C_2  and  C_24
    4  A    between atoms: C_6  and  C_7
    5  A    between atoms: C_7  and  C_32
    6  A    between atoms: N_10  and  C_24
    7  A    between atoms: C_16  and  C_27
    8  A    between atoms: O_22  and  C_30
    9  A    between atoms: O_22  and  C_32
   10  A    between atoms: C_27  and  C_32
                            x       y       z     vdW  Elec       q    Type
                         _______ _______ _______ _____ _____    ______ ____

>  <TORSDO>
F 10

$$$$
