=
 OpenBabel10272413233D

 32 39  0  0  1  0  0  0  0  0999 V2000
  187.5690  179.1630  136.5960 O   0  0  0  0  0  0  0  0  0  0  0  0
  190.7270  176.4270  138.4400 C   0  0  0  0  0  2  0  0  0  0  0  0
  188.4610  177.3800  143.0700 C   0  0  1  0  0  3  0  0  0  0  0  0
  191.9820  176.3340  146.3820 C   0  0  0  0  0  3  0  0  0  0  0  0
  191.1650  176.5850  147.4090 C   0  0  0  0  0  3  0  0  0  0  0  0
  186.3150  178.0380  144.2320 C   0  0  0  0  0  0  0  0  0  0  0  0
  185.3020  178.3750  143.3110 C   0  0  0  0  0  0  0  0  0  0  0  0
  189.0060  177.5240  140.6230 C   0  0  1  0  0  3  0  0  0  0  0  0
  190.8240  176.9830  142.2380 C   0  0  0  0  0  2  0  0  0  0  0  0
  189.7310  178.5260  137.3630 C   0  0  1  0  0  3  0  0  0  0  0  0
  184.8210  178.4730  146.1010 C   0  0  0  0  0  0  0  0  0  0  0  0
  191.2760  176.7680  139.8220 C   0  0  0  0  0  2  0  0  0  0  0  0
  191.5320  176.4720  144.9870 C   0  0  0  0  0  3  0  0  0  0  0  0
  189.8360  176.9900  143.3240 N   0  0  0  0  0  0  0  0  0  0  0  0
  190.2840  176.8540  144.6920 C   0  0  0  0  0  0  0  0  0  0  0  0
  188.0930  177.5190  145.4430 C   0  0  0  0  0  0  0  0  0  0  0  0
  187.6460  177.7680  136.4870 C   0  0  0  0  0  2  0  0  0  0  0  0
  183.8000  178.7880  145.1970 C   0  0  0  0  0  3  0  0  0  0  0  0
  189.0800  177.3260  136.7050 C   0  0  2  0  0  3  0  0  0  0  0  0
  188.6070  179.5390  137.4620 C   0  0  0  0  0  2  0  0  0  0  0  0
  190.2040  176.6040  140.9010 C   0  0  2  0  0  3  0  0  0  0  0  0
  184.0420  178.7430  143.8120 C   0  0  0  0  0  3  0  0  0  0  0  0
  188.3970  177.2450  139.2500 C   0  0  0  0  0  2  0  0  0  0  0  0
  189.4850  177.2600  138.1690 C   0  0  1  0  0  0  0  0  0  0  0  0
  189.7350  177.0220  147.2310 C   0  0  0  0  0  3  0  0  0  0  0  0
  189.3290  177.1450  145.7840 C   0  0  0  0  0  0  0  0  0  0  0  0
  187.1290  177.7990  146.2950 O   0  0  0  0  0  0  0  0  0  0  0  0
  187.9280  177.2990  141.6720 C   0  0  0  0  0  2  0  0  0  0  0  0
  185.5000  178.3810  141.9390 O   0  0  0  0  0  1  0  0  0  0  0  0
  184.5950  178.5250  147.4700 O   0  0  0  0  0  1  0  0  0  0  0  0
  187.6550  177.6430  144.1260 C   0  0  0  0  0  0  0  0  0  0  0  0
  186.0660  178.1080  145.5930 C   0  0  0  0  0  0  0  0  0  0  0  0
  1 20  1  0  0  0  0
  2 12  1  0  0  0  0
  3 28  1  1  0  0  0
  3 14  1  0  0  0  0
  3 31  1  0  0  0  0
  4  5  1  0  0  0  0
  6 32  1  0  0  0  0
  7 22  1  0  0  0  0
  7  6  2  0  0  0  0
  8 23  1  6  0  0  0
  8 21  1  0  0  0  0
  8 28  1  0  0  0  0
  9 14  1  0  0  0  0
 10 20  1  1  0  0  0
 10 24  1  0  0  0  0
 11 30  1  0  0  0  0
 13  4  2  0  0  0  0
 14 15  1  0  0  0  0
 15 13  1  0  0  0  0
 15 26  2  0  0  0  0
 16 26  1  0  0  0  0
 16 27  1  0  0  0  0
 17  1  1  0  0  0  0
 18 11  1  0  0  0  0
 19 17  1  1  0  0  0
 19 10  1  0  0  0  0
 19 24  1  0  0  0  0
 21 12  1  6  0  0  0
 21  9  1  0  0  0  0
 22 18  2  0  0  0  0
 24  2  1  1  0  0  0
 24 23  1  0  0  0  0
 25  5  2  0  0  0  0
 26 25  1  0  0  0  0
 29  7  1  0  0  0  0
 31  6  1  0  0  0  0
 31 16  2  0  0  0  0
 32 11  2  0  0  0  0
 32 27  1  0  0  0  0
M  END
>  <MODEL>
1

>  <REMARK>
 VINA RESULT:     -12.7      0.000      0.000
  Name = 
  0 active torsions:
  status: ('A' for Active; 'I' for Inactive)
                            x       y       z     vdW  Elec       q    Type
                         _______ _______ _______ _____ _____    ______ ____

>  <TORSDO>
F 0

$$$$
=
 OpenBabel10272413233D

 32 39  0  0  1  0  0  0  0  0999 V2000
  181.2100  178.0340  138.7960 O   0  0  0  0  0  0  0  0  0  0  0  0
  181.5170  179.3990  143.1440 C   0  0  0  0  0  2  0  0  0  0  0  0
  186.6040  178.1570  142.8920 C   0  0  1  0  0  3  0  0  0  0  0  0
  187.9350  177.5340  147.6140 C   0  0  0  0  0  3  0  0  0  0  0  0
  189.2080  177.3050  147.2810 C   0  0  0  0  0  3  0  0  0  0  0  0
  188.5950  177.8680  141.3620 C   0  0  0  0  0  0  0  0  0  0  0  0
  188.2380  178.0060  140.0050 C   0  0  0  0  0  0  0  0  0  0  0  0
  184.1830  178.3760  142.2620 C   0  0  1  0  0  3  0  0  0  0  0  0
  184.7870  178.0750  144.6600 C   0  0  0  0  0  2  0  0  0  0  0  0
  180.9110  177.9050  141.1550 C   0  0  1  0  0  3  0  0  0  0  0  0
  190.9160  177.4730  140.7560 C   0  0  0  0  0  0  0  0  0  0  0  0
  182.4580  178.6510  144.0820 C   0  0  0  0  0  2  0  0  0  0  0  0
  186.9080  177.8080  146.5960 C   0  0  0  0  0  3  0  0  0  0  0  0
  186.2070  178.1080  144.2880 N   0  0  0  0  0  0  0  0  0  0  0  0
  187.2100  177.8380  145.2930 C   0  0  0  0  0  0  0  0  0  0  0  0
  188.8600  177.6390  143.5480 C   0  0  0  0  0  0  0  0  0  0  0  0
  181.1600  179.3510  139.2740 C   0  0  0  0  0  2  0  0  0  0  0  0
  190.5790  177.6300  139.4070 C   0  0  0  0  0  3  0  0  0  0  0  0
  180.7070  179.3430  140.7210 C   0  0  2  0  0  3  0  0  0  0  0  0
  181.4650  177.2280  139.9160 C   0  0  0  0  0  2  0  0  0  0  0  0
  183.9210  178.8690  143.6930 C   0  0  2  0  0  3  0  0  0  0  0  0
  189.2470  177.8910  139.0350 C   0  0  0  0  0  3  0  0  0  0  0  0
  183.2750  179.0810  141.2560 C   0  0  0  0  0  2  0  0  0  0  0  0
  181.8110  178.9990  141.7070 C   0  0  1  0  0  0  0  0  0  0  0  0
  189.6950  177.3080  145.8560 C   0  0  0  0  0  3  0  0  0  0  0  0
  188.6030  177.5940  144.8580 C   0  0  0  0  0  0  0  0  0  0  0  0
  190.0450  177.4570  143.0060 O   0  0  0  0  0  0  0  0  0  0  0  0
  185.6260  178.6600  141.8750 C   0  0  0  0  0  2  0  0  0  0  0  0
  186.9350  178.2280  139.5860 O   0  0  0  0  0  1  0  0  0  0  0  0
  192.2260  177.2040  141.1320 O   0  0  0  0  0  1  0  0  0  0  0  0
  187.8960  177.9070  142.5770 C   0  0  0  0  0  0  0  0  0  0  0  0
  189.9070  177.5900  141.7090 C   0  0  0  0  0  0  0  0  0  0  0  0
  1 17  1  0  0  0  0
  1 20  1  0  0  0  0
  2 12  1  0  0  0  0
  3 28  1  1  0  0  0
  3 14  1  0  0  0  0
  5  4  1  0  0  0  0
  6 32  1  0  0  0  0
  6 31  1  0  0  0  0
  7  6  2  0  0  0  0
  8 23  1  6  0  0  0
  8 21  1  0  0  0  0
 10 20  1  6  0  0  0
 10 24  1  0  0  0  0
 11 30  1  0  0  0  0
 11 32  2  0  0  0  0
 13  4  2  0  0  0  0
 14  9  1  0  0  0  0
 14 15  1  0  0  0  0
 15 13  1  0  0  0  0
 16 26  1  0  0  0  0
 18 11  1  0  0  0  0
 19 17  1  6  0  0  0
 19 10  1  0  0  0  0
 19 24  1  0  0  0  0
 21 12  1  1  0  0  0
 21  9  1  0  0  0  0
 22 18  2  0  0  0  0
 22  7  1  0  0  0  0
 24 23  1  6  0  0  0
 24  2  1  0  0  0  0
 25  5  2  0  0  0  0
 26 15  2  0  0  0  0
 26 25  1  0  0  0  0
 27 16  1  0  0  0  0
 28  8  1  0  0  0  0
 29  7  1  0  0  0  0
 31  3  1  0  0  0  0
 31 16  2  0  0  0  0
 32 27  1  0  0  0  0
M  END
>  <MODEL>
2

>  <REMARK>
 VINA RESULT:     -12.2      2.850      6.314
  Name = 
  0 active torsions:
  status: ('A' for Active; 'I' for Inactive)
                            x       y       z     vdW  Elec       q    Type
                         _______ _______ _______ _____ _____    ______ ____

>  <TORSDO>
F 0

$$$$
=
 OpenBabel10272413233D

 32 39  0  0  1  0  0  0  0  0999 V2000
  192.2130  175.1560  137.8560 O   0  0  0  0  0  0  0  0  0  0  0  0
  188.7310  178.0850  137.4580 C   0  0  0  0  0  2  0  0  0  0  0  0
  188.2290  177.7770  142.6660 C   0  0  1  0  0  3  0  0  0  0  0  0
  183.5770  179.2220  143.5230 C   0  0  0  0  0  3  0  0  0  0  0  0
  183.7310  179.1180  144.8460 C   0  0  0  0  0  3  0  0  0  0  0  0
  189.4250  177.2980  144.8400 C   0  0  0  0  0  0  0  0  0  0  0  0
  190.7450  176.8500  144.6250 C   0  0  0  0  0  0  0  0  0  0  0  0
  189.0120  177.3040  140.3280 C   0  0  1  0  0  3  0  0  0  0  0  0
  186.6600  178.0380  140.6910 C   0  0  0  0  0  2  0  0  0  0  0  0
  190.0080  175.8710  137.3100 C   0  0  1  0  0  3  0  0  0  0  0  0
  189.7140  177.1290  147.2490 C   0  0  0  0  0  0  0  0  0  0  0  0
  187.5300  177.9260  138.3840 C   0  0  0  0  0  2  0  0  0  0  0  0
  184.6710  178.9040  142.5910 C   0  0  0  0  0  3  0  0  0  0  0  0
  186.9450  178.1850  142.1230 N   0  0  0  0  0  0  0  0  0  0  0  0
  185.8660  178.4970  143.0330 C   0  0  0  0  0  0  0  0  0  0  0  0
  187.3130  177.9580  144.8840 C   0  0  0  0  0  0  0  0  0  0  0  0
  192.2890  176.5250  137.5580 C   0  0  0  0  0  2  0  0  0  0  0  0
  191.0340  176.7050  147.0500 C   0  0  0  0  0  3  0  0  0  0  0  0
  190.9770  176.9790  136.9480 C   0  0  2  0  0  3  0  0  0  0  0  0
  190.8570  174.8900  138.0960 C   0  0  0  0  0  2  0  0  0  0  0  0
  187.9010  178.2410  139.8340 C   0  0  2  0  0  3  0  0  0  0  0  0
  191.5420  176.5630  145.7450 C   0  0  0  0  0  3  0  0  0  0  0  0
  190.2560  177.4030  139.4480 C   0  0  0  0  0  2  0  0  0  0  0  0
  189.8820  177.2350  137.9700 C   0  0  1  0  0  0  0  0  0  0  0  0
  185.0200  178.6740  145.4880 C   0  0  0  0  0  3  0  0  0  0  0  0
  186.1030  178.3620  144.4880 C   0  0  0  0  0  0  0  0  0  0  0  0
  187.6820  177.8020  146.1380 O   0  0  0  0  0  0  0  0  0  0  0  0
  189.4080  177.6760  141.7490 C   0  0  0  0  0  2  0  0  0  0  0  0
  191.2810  176.6600  143.3610 O   0  0  0  0  0  1  0  0  0  0  0  0
  189.2000  177.2610  148.5330 O   0  0  0  0  0  1  0  0  0  0  0  0
  188.3580  177.6630  144.0090 C   0  0  0  0  0  0  0  0  0  0  0  0
  188.9330  177.4120  146.1300 C   0  0  0  0  0  0  0  0  0  0  0  0
  1 20  1  0  0  0  0
  2 12  1  0  0  0  0
  3 28  1  1  0  0  0
  3 31  1  0  0  0  0
  4  5  1  0  0  0  0
  5 25  2  0  0  0  0
  6 32  1  0  0  0  0
  7  6  2  0  0  0  0
  7 22  1  0  0  0  0
  8 23  1  6  0  0  0
  8 28  1  0  0  0  0
  9 14  1  0  0  0  0
 10 24  1  0  0  0  0
 10 20  1  1  0  0  0
 11 30  1  0  0  0  0
 13 15  1  0  0  0  0
 13  4  2  0  0  0  0
 14  3  1  0  0  0  0
 14 15  1  0  0  0  0
 15 26  2  0  0  0  0
 16 27  1  0  0  0  0
 17  1  1  0  0  0  0
 18 11  1  0  0  0  0
 19 10  1  0  0  0  0
 19 17  1  1  0  0  0
 19 24  1  0  0  0  0
 21 12  1  6  0  0  0
 21  8  1  0  0  0  0
 21  9  1  0  0  0  0
 22 18  2  0  0  0  0
 24  2  1  6  0  0  0
 24 23  1  0  0  0  0
 26 16  1  0  0  0  0
 26 25  1  0  0  0  0
 29  7  1  0  0  0  0
 31  6  1  0  0  0  0
 31 16  2  0  0  0  0
 32 27  1  0  0  0  0
 32 11  2  0  0  0  0
M  END
>  <MODEL>
3

>  <REMARK>
 VINA RESULT:     -12.0      1.905      4.758
  Name = 
  0 active torsions:
  status: ('A' for Active; 'I' for Inactive)
                            x       y       z     vdW  Elec       q    Type
                         _______ _______ _______ _____ _____    ______ ____

>  <TORSDO>
F 0

$$$$
