=
 OpenBabel10272400563D

 25 28  0  0  1  0  0  0  0  0999 V2000
  187.4120  178.0120  145.9020 C   0  0  0  0  0  0  0  0  0  0  0  0
  188.5200  177.0640  145.5220 C   0  0  1  0  0  3  0  0  0  0  0  0
  188.4920  178.4380  148.1880 C   0  0  0  0  0  2  0  0  0  0  0  0
  186.2470  178.2400  145.3020 C   0  0  0  0  0  0  0  0  0  0  0  0
  190.1880  177.9390  143.7620 C   0  0  1  0  0  3  0  0  0  0  0  0
  189.2200  177.1970  147.8980 N   0  0  0  0  0  2  0  0  0  0  0  0
  185.3670  179.0640  146.2060 C   0  0  1  0  0  3  0  0  0  0  0  0
  184.2200  178.3410  146.5370 O   0  0  0  0  0  1  0  0  0  0  0  0
  190.7610  176.2470  146.2230 N   0  0  0  0  0  0  0  0  0  0  0  0
  191.4540  175.8260  147.4360 C   0  0  0  0  0  1  0  0  0  0  0  0
  188.9020  177.1660  144.0380 C   0  0  0  0  0  2  0  0  0  0  0  0
  187.3650  178.5960  147.2190 C   0  0  0  0  0  0  0  0  0  0  0  0
  186.2220  179.2220  147.4280 C   0  0  0  0  0  3  0  0  0  0  0  0
  191.7750  176.9280  145.4250 C   0  0  0  0  0  2  0  0  0  0  0  0
  191.3770  177.0090  143.9550 C   0  0  0  0  0  2  0  0  0  0  0  0
  189.7070  177.2390  146.5060 C   0  0  1  0  0  3  0  0  0  0  0  0
  185.9810  178.5840  142.8700 C   0  0  0  0  0  2  0  0  0  0  0  0
  184.6020  178.3310  143.4320 C   0  0  0  0  0  2  0  0  0  0  0  0
  185.8010  177.6030  144.0160 C   0  0  0  0  0  3  0  0  0  0  0  0
  190.1790  178.4120  142.4220 O   0  0  0  0  0  0  0  0  0  0  0  0
  190.8570  177.1750  140.4200 N   0  0  0  0  0  0  0  0  0  0  0  0
  190.5350  176.3140  139.2940 C   0  0  0  0  0  1  0  0  0  0  0  0
  192.2330  177.6030  140.5970 C   0  0  0  0  0  1  0  0  0  0  0  0
  188.6500  177.2120  141.1810 O   0  0  0  0  0  0  0  0  0  0  0  0
  189.8430  177.5870  141.3440 C   0  0  0  0  0  0  0  0  0  0  0  0
  1 12  1  0  0  0  0
  2 11  1  6  0  0  0
  2  1  1  0  0  0  0
  2 16  1  0  0  0  0
  4  1  2  0  0  0  0
  4  7  1  0  0  0  0
  5 20  1  6  0  0  0
  5 15  1  0  0  0  0
  5 11  1  0  0  0  0
  6  3  1  0  0  0  0
  7  8  1  1  0  0  0
  7 13  1  0  0  0  0
  9 16  1  0  0  0  0
  9 10  1  0  0  0  0
 12 13  2  0  0  0  0
 12  3  1  0  0  0  0
 14  9  1  0  0  0  0
 15 14  1  0  0  0  0
 16  6  1  1  0  0  0
 17 18  1  0  0  0  0
 17 19  1  0  0  0  0
 18 19  1  0  0  0  0
 19  4  1  0  0  0  0
 21 23  1  0  0  0  0
 21 25  1  0  0  0  0
 22 21  1  0  0  0  0
 24 25  2  0  0  0  0
 25 20  1  0  0  0  0
M  END
>  <MODEL>
1

>  <REMARK>
 VINA RESULT:      -9.0      0.000      0.000
  Name = 
  3 active torsions:
  status: ('A' for Active; 'I' for Inactive)
    1  A    between atoms: C_5  and  C_22
    2  A    between atoms: C_6  and  O_15
    3  A    between atoms: O_15  and  C_25
                            x       y       z     vdW  Elec       q    Type
                         _______ _______ _______ _____ _____    ______ ____

>  <TORSDO>
F 3

$$$$
=
 OpenBabel10272400563D

 25 28  0  0  1  0  0  0  0  0999 V2000
  189.0420  177.5520  144.1030 C   0  0  0  0  0  0  0  0  0  0  0  0
  188.6040  177.1210  142.7270 C   0  0  1  0  0  3  0  0  0  0  0  0
  191.4670  177.7990  143.3070 C   0  0  0  0  0  2  0  0  0  0  0  0
  188.3790  177.5140  145.2550 C   0  0  0  0  0  0  0  0  0  0  0  0
  187.2290  178.8500  141.3970 C   0  0  1  0  0  3  0  0  0  0  0  0
  191.0200  176.9550  142.1920 N   0  0  0  0  0  2  0  0  0  0  0  0
  189.3290  177.7910  146.3920 C   0  0  1  0  0  3  0  0  0  0  0  0
  189.3930  176.6810  147.2360 O   0  0  0  0  0  1  0  0  0  0  0  0
  189.3620  176.9440  140.3660 N   0  0  0  0  0  0  0  0  0  0  0  0
  190.5360  176.5180  139.6110 C   0  0  0  0  0  1  0  0  0  0  0  0
  187.2140  177.6610  142.3530 C   0  0  0  0  0  2  0  0  0  0  0  0
  190.4350  177.7880  144.3880 C   0  0  0  0  0  0  0  0  0  0  0  0
  190.6410  177.9490  145.6820 C   0  0  0  0  0  3  0  0  0  0  0  0
  188.8200  178.0740  139.6170 C   0  0  0  0  0  2  0  0  0  0  0  0
  187.3610  178.3380  139.9700 C   0  0  0  0  0  2  0  0  0  0  0  0
  189.7200  177.4540  141.7020 C   0  0  1  0  0  3  0  0  0  0  0  0
  186.0230  178.2530  145.2840 C   0  0  0  0  0  2  0  0  0  0  0  0
  186.3210  177.6820  146.6500 C   0  0  0  0  0  2  0  0  0  0  0  0
  186.9550  177.0620  145.4170 C   0  0  0  0  0  3  0  0  0  0  0  0
  186.0120  179.5730  141.5220 O   0  0  0  0  0  0  0  0  0  0  0  0
  183.7350  178.7140  141.2410 N   0  0  0  0  0  0  0  0  0  0  0  0
  182.5760  178.4500  140.4060 C   0  0  0  0  0  1  0  0  0  0  0  0
  183.6780  178.3530  142.6470 C   0  0  0  0  0  1  0  0  0  0  0  0
  184.9530  179.6340  139.4730 O   0  0  0  0  0  0  0  0  0  0  0  0
  184.9110  179.3250  140.6960 C   0  0  0  0  0  0  0  0  0  0  0  0
  1 12  1  0  0  0  0
  1  4  2  0  0  0  0
  2 11  1  6  0  0  0
  2  1  1  0  0  0  0
  3 12  1  0  0  0  0
  4 19  1  0  0  0  0
  4  7  1  0  0  0  0
  5 20  1  6  0  0  0
  5 11  1  0  0  0  0
  6  3  1  0  0  0  0
  7  8  1  1  0  0  0
  9 16  1  0  0  0  0
 10  9  1  0  0  0  0
 12 13  2  0  0  0  0
 13  7  1  0  0  0  0
 14 15  1  0  0  0  0
 14  9  1  0  0  0  0
 15  5  1  0  0  0  0
 16  6  1  1  0  0  0
 16  2  1  0  0  0  0
 17 19  1  0  0  0  0
 17 18  1  0  0  0  0
 19 18  1  0  0  0  0
 21 23  1  0  0  0  0
 22 21  1  0  0  0  0
 24 25  2  0  0  0  0
 25 21  1  0  0  0  0
 25 20  1  0  0  0  0
M  END
>  <MODEL>
2

>  <REMARK>
 VINA RESULT:      -8.8      2.619      5.263
  Name = 
  3 active torsions:
  status: ('A' for Active; 'I' for Inactive)
    1  A    between atoms: C_5  and  C_22
    2  A    between atoms: C_6  and  O_15
    3  A    between atoms: O_15  and  C_25
                            x       y       z     vdW  Elec       q    Type
                         _______ _______ _______ _____ _____    ______ ____

>  <TORSDO>
F 3

$$$$
=
 OpenBabel10272400563D

 25 28  0  0  1  0  0  0  0  0999 V2000
  187.4000  177.8660  145.0240 C   0  0  0  0  0  0  0  0  0  0  0  0
  188.1080  177.0380  143.9830 C   0  0  1  0  0  3  0  0  0  0  0  0
  189.4190  177.7060  146.5970 C   0  0  0  0  0  2  0  0  0  0  0  0
  186.1260  178.2410  145.0870 C   0  0  0  0  0  0  0  0  0  0  0  0
  188.9200  178.3160  141.8970 C   0  0  1  0  0  3  0  0  0  0  0  0
  189.7940  176.5730  145.7420 N   0  0  0  0  0  2  0  0  0  0  0  0
  185.8370  178.8180  146.4490 C   0  0  1  0  0  3  0  0  0  0  0  0
  184.8770  178.0400  147.0990 O   0  0  0  0  0  1  0  0  0  0  0  0
  190.3160  176.0630  143.3860 N   0  0  0  0  0  0  0  0  0  0  0  0
  191.4180  175.3500  144.0240 C   0  0  0  0  0  1  0  0  0  0  0  0
  187.8060  177.5050  142.5510 C   0  0  0  0  0  2  0  0  0  0  0  0
  188.0070  178.1040  146.3100 C   0  0  0  0  0  0  0  0  0  0  0  0
  187.1550  178.6630  147.1480 C   0  0  0  0  0  3  0  0  0  0  0  0
  190.9470  176.9180  142.3850 C   0  0  0  0  0  2  0  0  0  0  0  0
  189.9550  177.3630  141.3170 C   0  0  0  0  0  2  0  0  0  0  0  0
  189.6190  176.9580  144.3280 C   0  0  1  0  0  3  0  0  0  0  0  0
  184.8020  179.2020  143.2360 C   0  0  0  0  0  2  0  0  0  0  0  0
  183.8190  178.7460  144.2890 C   0  0  0  0  0  2  0  0  0  0  0  0
  185.0880  177.9470  144.0410 C   0  0  0  0  0  3  0  0  0  0  0  0
  188.3770  179.1080  140.8480 O   0  0  0  0  0  0  0  0  0  0  0  0
  187.8570  178.1930  138.6380 N   0  0  0  0  0  0  0  0  0  0  0  0
  186.9010  177.6600  137.6810 C   0  0  0  0  0  1  0  0  0  0  0  0
  189.2520  178.2930  138.2460 C   0  0  0  0  0  1  0  0  0  0  0  0
  186.2240  178.5140  140.2760 O   0  0  0  0  0  0  0  0  0  0  0  0
  187.4380  178.6030  139.9450 C   0  0  0  0  0  0  0  0  0  0  0  0
  1  4  2  0  0  0  0
  1 12  1  0  0  0  0
  2 11  1  6  0  0  0
  2 16  1  0  0  0  0
  2  1  1  0  0  0  0
  4  7  1  0  0  0  0
  5 20  1  6  0  0  0
  5 11  1  0  0  0  0
  6  3  1  0  0  0  0
  7  8  1  1  0  0  0
  7 13  1  0  0  0  0
  9 10  1  0  0  0  0
  9 16  1  0  0  0  0
 12  3  1  0  0  0  0
 12 13  2  0  0  0  0
 14  9  1  0  0  0  0
 15  5  1  0  0  0  0
 15 14  1  0  0  0  0
 16  6  1  1  0  0  0
 17 19  1  0  0  0  0
 17 18  1  0  0  0  0
 19 18  1  0  0  0  0
 19  4  1  0  0  0  0
 21 25  1  0  0  0  0
 22 21  1  0  0  0  0
 23 21  1  0  0  0  0
 25 24  2  0  0  0  0
 25 20  1  0  0  0  0
M  END
>  <MODEL>
3

>  <REMARK>
 VINA RESULT:      -8.2      1.854      2.388
  Name = 
  3 active torsions:
  status: ('A' for Active; 'I' for Inactive)
    1  A    between atoms: C_5  and  C_22
    2  A    between atoms: C_6  and  O_15
    3  A    between atoms: O_15  and  C_25
                            x       y       z     vdW  Elec       q    Type
                         _______ _______ _______ _____ _____    ______ ____

>  <TORSDO>
F 3

$$$$
=
 OpenBabel10272400563D

 25 28  0  0  1  0  0  0  0  0999 V2000
  185.1670  178.5640  141.9540 C   0  0  0  0  0  0  0  0  0  0  0  0
  186.6200  178.7870  141.6210 C   0  0  1  0  0  3  0  0  0  0  0  0
  184.6070  178.1790  139.4820 C   0  0  0  0  0  2  0  0  0  0  0  0
  184.5150  178.7800  143.0930 C   0  0  0  0  0  0  0  0  0  0  0  0
  188.2290  176.8900  142.2980 C   0  0  1  0  0  3  0  0  0  0  0  0
  185.8920  178.8500  139.2500 N   0  0  0  0  0  2  0  0  0  0  0  0
  183.0310  178.6680  142.8540 C   0  0  1  0  0  3  0  0  0  0  0  0
  182.4150  179.8910  143.1220 O   0  0  0  0  0  1  0  0  0  0  0  0
  188.2870  178.6010  139.7860 N   0  0  0  0  0  0  0  0  0  0  0  0
  188.4010  178.9000  138.3620 C   0  0  0  0  0  1  0  0  0  0  0  0
  187.5660  178.2090  142.6840 C   0  0  0  0  0  2  0  0  0  0  0  0
  184.1970  178.3610  140.9070 C   0  0  0  0  0  0  0  0  0  0  0  0
  182.9650  178.3940  141.3800 C   0  0  0  0  0  3  0  0  0  0  0  0
  189.0570  177.3770  139.9790 C   0  0  0  0  0  2  0  0  0  0  0  0
  189.4500  177.1810  141.4390 C   0  0  0  0  0  2  0  0  0  0  0  0
  186.8980  178.2950  140.1760 C   0  0  1  0  0  3  0  0  0  0  0  0
  185.5920  178.0740  145.2010 C   0  0  0  0  0  2  0  0  0  0  0  0
  184.3370  178.8240  145.5790 C   0  0  0  0  0  2  0  0  0  0  0  0
  185.1450  179.2630  144.3690 C   0  0  0  0  0  3  0  0  0  0  0  0
  188.6390  176.2040  143.4730 O   0  0  0  0  0  0  0  0  0  0  0  0
  190.2730  176.9910  145.1190 N   0  0  0  0  0  0  0  0  0  0  0  0
  191.6350  177.0450  145.6250 C   0  0  0  0  0  1  0  0  0  0  0  0
  189.2330  177.7010  145.8420 C   0  0  0  0  0  1  0  0  0  0  0  0
  190.8680  175.6330  143.3150 O   0  0  0  0  0  0  0  0  0  0  0  0
  189.9580  176.2450  143.9370 C   0  0  0  0  0  0  0  0  0  0  0  0
  1  4  2  0  0  0  0
  2  1  1  0  0  0  0
  2 11  1  1  0  0  0
  3 12  1  0  0  0  0
  4 19  1  0  0  0  0
  5 11  1  0  0  0  0
  5 20  1  1  0  0  0
  6  3  1  0  0  0  0
  7  4  1  0  0  0  0
  7  8  1  6  0  0  0
  9 14  1  0  0  0  0
  9 16  1  0  0  0  0
 10  9  1  0  0  0  0
 12 13  2  0  0  0  0
 12  1  1  0  0  0  0
 13  7  1  0  0  0  0
 14 15  1  0  0  0  0
 15  5  1  0  0  0  0
 16  6  1  6  0  0  0
 16  2  1  0  0  0  0
 17 18  1  0  0  0  0
 19 17  1  0  0  0  0
 19 18  1  0  0  0  0
 20 25  1  0  0  0  0
 21 22  1  0  0  0  0
 21 23  1  0  0  0  0
 24 25  2  0  0  0  0
 25 21  1  0  0  0  0
M  END
>  <MODEL>
4

>  <REMARK>
 VINA RESULT:      -7.8      2.388      5.545
  Name = 
  3 active torsions:
  status: ('A' for Active; 'I' for Inactive)
    1  A    between atoms: C_5  and  C_22
    2  A    between atoms: C_6  and  O_15
    3  A    between atoms: O_15  and  C_25
                            x       y       z     vdW  Elec       q    Type
                         _______ _______ _______ _____ _____    ______ ____

>  <TORSDO>
F 3

$$$$
=
 OpenBabel10272400563D

 25 28  0  0  1  0  0  0  0  0999 V2000
  185.8780  178.3120  144.5610 C   0  0  0  0  0  0  0  0  0  0  0  0
  187.1060  177.4410  144.6240 C   0  0  1  0  0  3  0  0  0  0  0  0
  186.1280  178.9300  147.0370 C   0  0  0  0  0  2  0  0  0  0  0  0
  184.9600  178.4170  143.6040 C   0  0  0  0  0  0  0  0  0  0  0  0
  189.1980  178.3660  143.4350 C   0  0  1  0  0  3  0  0  0  0  0  0
  186.9870  177.7390  147.0830 N   0  0  0  0  0  2  0  0  0  0  0  0
  183.7840  179.2070  144.1180 C   0  0  1  0  0  3  0  0  0  0  0  0
  182.6390  178.4100  144.1140 O   0  0  0  0  0  1  0  0  0  0  0  0
  189.0440  176.8420  146.0610 N   0  0  0  0  0  0  0  0  0  0  0  0
  189.3300  176.5340  147.4590 C   0  0  0  0  0  1  0  0  0  0  0  0
  187.9420  177.5050  143.3370 C   0  0  0  0  0  2  0  0  0  0  0  0
  185.3700  178.9500  145.7500 C   0  0  0  0  0  0  0  0  0  0  0  0
  184.1840  179.4910  145.5360 C   0  0  0  0  0  3  0  0  0  0  0  0
  190.2180  177.5660  145.5850 C   0  0  0  0  0  2  0  0  0  0  0  0
  190.3150  177.5460  144.0630 C   0  0  0  0  0  2  0  0  0  0  0  0
  187.8960  177.7570  145.9210 C   0  0  1  0  0  3  0  0  0  0  0  0
  185.1830  178.6820  141.1590 C   0  0  0  0  0  2  0  0  0  0  0  0
  183.8200  178.0820  141.4130 C   0  0  0  0  0  2  0  0  0  0  0  0
  184.9960  177.6870  142.2910 C   0  0  0  0  0  3  0  0  0  0  0  0
  189.5960  178.7750  142.1330 O   0  0  0  0  0  0  0  0  0  0  0  0
  190.6560  177.3710  140.4290 N   0  0  0  0  0  0  0  0  0  0  0  0
  190.5620  176.4910  139.2770 C   0  0  0  0  0  1  0  0  0  0  0  0
  191.9690  177.6620  140.9780 C   0  0  0  0  0  1  0  0  0  0  0  0
  188.3430  177.6780  140.5380 O   0  0  0  0  0  0  0  0  0  0  0  0
  189.4790  177.9350  141.0220 C   0  0  0  0  0  0  0  0  0  0  0  0
  1  2  1  0  0  0  0
  1 12  1  0  0  0  0
  2 11  1  6  0  0  0
  2 16  1  0  0  0  0
  3  6  1  0  0  0  0
  4  7  1  0  0  0  0
  4  1  2  0  0  0  0
  5 20  1  6  0  0  0
  5 15  1  0  0  0  0
  7  8  1  1  0  0  0
  7 13  1  0  0  0  0
  9 10  1  0  0  0  0
 11  5  1  0  0  0  0
 12  3  1  0  0  0  0
 13 12  2  0  0  0  0
 14  9  1  0  0  0  0
 15 14  1  0  0  0  0
 16  9  1  0  0  0  0
 16  6  1  1  0  0  0
 17 18  1  0  0  0  0
 17 19  1  0  0  0  0
 18 19  1  0  0  0  0
 19  4  1  0  0  0  0
 21 23  1  0  0  0  0
 21 25  1  0  0  0  0
 22 21  1  0  0  0  0
 24 25  2  0  0  0  0
 25 20  1  0  0  0  0
M  END
>  <MODEL>
5

>  <REMARK>
 VINA RESULT:      -7.8      1.312      1.870
  Name = 
  3 active torsions:
  status: ('A' for Active; 'I' for Inactive)
    1  A    between atoms: C_5  and  C_22
    2  A    between atoms: C_6  and  O_15
    3  A    between atoms: O_15  and  C_25
                            x       y       z     vdW  Elec       q    Type
                         _______ _______ _______ _____ _____    ______ ____

>  <TORSDO>
F 3

$$$$
=
 OpenBabel10272400563D

 25 28  0  0  1  0  0  0  0  0999 V2000
  188.0990  177.6340  142.1750 C   0  0  0  0  0  0  0  0  0  0  0  0
  186.9880  178.5580  142.6040 C   0  0  1  0  0  3  0  0  0  0  0  0
  188.1480  176.5380  144.4930 C   0  0  0  0  0  2  0  0  0  0  0  0
  188.8530  177.6640  141.0800 C   0  0  0  0  0  0  0  0  0  0  0  0
  184.6630  178.0480  141.6140 C   0  0  1  0  0  3  0  0  0  0  0  0
  187.4310  177.7510  144.9070 N   0  0  0  0  0  2  0  0  0  0  0  0
  190.0040  176.7030  141.2350 C   0  0  1  0  0  3  0  0  0  0  0  0
  191.2120  177.4020  141.1980 O   0  0  0  0  0  1  0  0  0  0  0  0
  185.3500  178.9830  144.4250 N   0  0  0  0  0  0  0  0  0  0  0  0
  185.3020  179.0160  145.8830 C   0  0  0  0  0  1  0  0  0  0  0  0
  185.9720  178.8200  141.4810 C   0  0  0  0  0  2  0  0  0  0  0  0
  188.7060  176.7300  143.1200 C   0  0  0  0  0  0  0  0  0  0  0  0
  189.7870  176.1630  142.6170 C   0  0  0  0  0  3  0  0  0  0  0  0
  184.0520  178.4580  144.0150 C   0  0  0  0  0  2  0  0  0  0  0  0
  183.7380  178.7980  142.5620 C   0  0  0  0  0  2  0  0  0  0  0  0
  186.3660  178.0380  143.9260 C   0  0  1  0  0  3  0  0  0  0  0  0
  187.8580  178.0380  138.8510 C   0  0  0  0  0  2  0  0  0  0  0  0
  189.3560  178.1340  138.6850 C   0  0  0  0  0  2  0  0  0  0  0  0
  188.7020  178.6490  139.9560 C   0  0  0  0  0  3  0  0  0  0  0  0
  184.0410  177.9460  140.3400 O   0  0  0  0  0  0  0  0  0  0  0  0
  182.2410  179.2640  139.3310 N   0  0  0  0  0  0  0  0  0  0  0  0
  181.7880  180.4290  138.5880 C   0  0  0  0  0  1  0  0  0  0  0  0
  181.2540  178.3000  139.7840 C   0  0  0  0  0  1  0  0  0  0  0  0
  184.4820  179.9130  139.2210 O   0  0  0  0  0  0  0  0  0  0  0  0
  183.6310  179.0720  139.6200 C   0  0  0  0  0  0  0  0  0  0  0  0
  1  2  1  0  0  0  0
  1 12  1  0  0  0  0
  2 11  1  6  0  0  0
  2 16  1  0  0  0  0
  3  6  1  0  0  0  0
  4  7  1  0  0  0  0
  4  1  2  0  0  0  0
  5 20  1  6  0  0  0
  5 15  1  0  0  0  0
  7  8  1  1  0  0  0
  7 13  1  0  0  0  0
  9 10  1  0  0  0  0
 11  5  1  0  0  0  0
 12  3  1  0  0  0  0
 13 12  2  0  0  0  0
 14  9  1  0  0  0  0
 15 14  1  0  0  0  0
 16  9  1  0  0  0  0
 16  6  1  1  0  0  0
 17 19  1  0  0  0  0
 18 17  1  0  0  0  0
 18 19  1  0  0  0  0
 19  4  1  0  0  0  0
 21 25  1  0  0  0  0
 21 23  1  0  0  0  0
 22 21  1  0  0  0  0
 24 25  2  0  0  0  0
 25 20  1  0  0  0  0
M  END
>  <MODEL>
6

>  <REMARK>
 VINA RESULT:      -7.6      3.430      6.543
  Name = 
  3 active torsions:
  status: ('A' for Active; 'I' for Inactive)
    1  A    between atoms: C_5  and  C_22
    2  A    between atoms: C_6  and  O_15
    3  A    between atoms: O_15  and  C_25
                            x       y       z     vdW  Elec       q    Type
                         _______ _______ _______ _____ _____    ______ ____

>  <TORSDO>
F 3

$$$$
=
 OpenBabel10272400563D

 25 28  0  0  1  0  0  0  0  0999 V2000
  187.5150  177.7210  142.2190 C   0  0  0  0  0  0  0  0  0  0  0  0
  186.3250  178.6330  142.3790 C   0  0  1  0  0  3  0  0  0  0  0  0
  187.1110  176.7060  144.5390 C   0  0  0  0  0  2  0  0  0  0  0  0
  188.4740  177.7310  141.2980 C   0  0  0  0  0  0  0  0  0  0  0  0
  184.2570  178.0350  140.9610 C   0  0  1  0  0  3  0  0  0  0  0  0
  186.3060  177.9150  144.7530 N   0  0  0  0  0  2  0  0  0  0  0  0
  189.5860  176.8040  141.7180 C   0  0  1  0  0  3  0  0  0  0  0  0
  190.7640  177.5290  141.9000 O   0  0  0  0  0  1  0  0  0  0  0  0
  184.3450  179.0810  143.8140 N   0  0  0  0  0  0  0  0  0  0  0  0
  184.0030  179.1620  145.2300 C   0  0  0  0  0  1  0  0  0  0  0  0
  185.5530  178.8320  141.0650 C   0  0  0  0  0  2  0  0  0  0  0  0
  187.9320  176.8640  143.3000 C   0  0  0  0  0  0  0  0  0  0  0  0
  189.1010  176.3060  143.0480 C   0  0  0  0  0  3  0  0  0  0  0  0
  183.1660  178.5120  143.1710 C   0  0  0  0  0  2  0  0  0  0  0  0
  183.1470  178.7940  141.6730 C   0  0  0  0  0  2  0  0  0  0  0  0
  185.4570  178.1440  143.5670 C   0  0  1  0  0  3  0  0  0  0  0  0
  187.8670  178.0400  138.9240 C   0  0  0  0  0  2  0  0  0  0  0  0
  189.3750  178.0930  139.0030 C   0  0  0  0  0  2  0  0  0  0  0  0
  188.5380  178.6740  140.1300 C   0  0  0  0  0  3  0  0  0  0  0  0
  183.9080  177.8750  139.5920 O   0  0  0  0  0  0  0  0  0  0  0  0
  183.7560  176.1950  137.8170 N   0  0  0  0  0  0  0  0  0  0  0  0
  183.2000  174.9630  137.2840 C   0  0  0  0  0  1  0  0  0  0  0  0
  184.7400  176.9140  137.0260 C   0  0  0  0  0  1  0  0  0  0  0  0
  182.4970  176.0600  139.7790 O   0  0  0  0  0  0  0  0  0  0  0  0
  183.3530  176.6890  139.1000 C   0  0  0  0  0  0  0  0  0  0  0  0
  1  2  1  0  0  0  0
  1 12  1  0  0  0  0
  2 11  1  6  0  0  0
  2 16  1  0  0  0  0
  3  6  1  0  0  0  0
  4  7  1  0  0  0  0
  4  1  2  0  0  0  0
  5 20  1  6  0  0  0
  5 11  1  0  0  0  0
  5 15  1  0  0  0  0
  7  8  1  1  0  0  0
  7 13  1  0  0  0  0
  9 10  1  0  0  0  0
 12  3  1  0  0  0  0
 13 12  2  0  0  0  0
 14  9  1  0  0  0  0
 15 14  1  0  0  0  0
 16  9  1  0  0  0  0
 16  6  1  1  0  0  0
 17 18  1  0  0  0  0
 17 19  1  0  0  0  0
 18 19  1  0  0  0  0
 19  4  1  0  0  0  0
 21 25  1  0  0  0  0
 22 21  1  0  0  0  0
 23 21  1  0  0  0  0
 25 20  1  0  0  0  0
 25 24  2  0  0  0  0
M  END
>  <MODEL>
7

>  <REMARK>
 VINA RESULT:      -7.2      3.764      6.447
  Name = 
  3 active torsions:
  status: ('A' for Active; 'I' for Inactive)
    1  A    between atoms: C_5  and  C_22
    2  A    between atoms: C_6  and  O_15
    3  A    between atoms: O_15  and  C_25
                            x       y       z     vdW  Elec       q    Type
                         _______ _______ _______ _____ _____    ______ ____

>  <TORSDO>
F 3

$$$$
=
 OpenBabel10272400563D

 25 28  0  0  1  0  0  0  0  0999 V2000
  185.5530  178.3860  140.6240 C   0  0  0  0  0  0  0  0  0  0  0  0
  186.9710  178.8230  140.3600 C   0  0  1  0  0  3  0  0  0  0  0  0
  185.2260  177.7890  138.1520 C   0  0  0  0  0  2  0  0  0  0  0  0
  184.8020  178.5510  141.7080 C   0  0  0  0  0  0  0  0  0  0  0  0
  188.8120  177.2490  141.2430 C   0  0  1  0  0  3  0  0  0  0  0  0
  186.4010  178.6460  137.9530 N   0  0  0  0  0  2  0  0  0  0  0  0
  183.3730  178.1900  141.3920 C   0  0  1  0  0  3  0  0  0  0  0  0
  182.5550  179.3090  141.5500 O   0  0  0  0  0  1  0  0  0  0  0  0
  188.7640  178.8150  138.6380 N   0  0  0  0  0  0  0  0  0  0  0  0
  188.9230  179.0540  137.2070 C   0  0  0  0  0  1  0  0  0  0  0  0
  187.9250  178.4610  141.5090 C   0  0  0  0  0  2  0  0  0  0  0  0
  184.6990  177.9750  139.5380 C   0  0  0  0  0  0  0  0  0  0  0  0
  183.4480  177.8330  139.9370 C   0  0  0  0  0  3  0  0  0  0  0  0
  189.7040  177.7430  138.9490 C   0  0  0  0  0  2  0  0  0  0  0  0
  190.0260  177.6890  140.4380 C   0  0  0  0  0  2  0  0  0  0  0  0
  187.4190  178.3080  138.9660 C   0  0  1  0  0  3  0  0  0  0  0  0
  184.9570  178.2800  144.1580 C   0  0  0  0  0  2  0  0  0  0  0  0
  184.0880  179.4880  143.9040 C   0  0  0  0  0  2  0  0  0  0  0  0
  185.2620  179.1950  142.9860 C   0  0  0  0  0  3  0  0  0  0  0  0
  189.2470  176.7000  142.4800 O   0  0  0  0  0  0  0  0  0  0  0  0
  188.9090  177.5840  144.7380 N   0  0  0  0  0  0  0  0  0  0  0  0
  188.1200  177.6830  145.9540 C   0  0  0  0  0  1  0  0  0  0  0  0
  190.1510  178.3330  144.6510 C   0  0  0  0  0  1  0  0  0  0  0  0
  187.3930  176.1250  143.7250 O   0  0  0  0  0  0  0  0  0  0  0  0
  188.4720  176.7740  143.6410 C   0  0  0  0  0  0  0  0  0  0  0  0
  1  4  2  0  0  0  0
  2  1  1  0  0  0  0
  2 11  1  1  0  0  0
  3 12  1  0  0  0  0
  4 19  1  0  0  0  0
  5 11  1  0  0  0  0
  5 20  1  1  0  0  0
  6  3  1  0  0  0  0
  7  8  1  6  0  0  0
  7  4  1  0  0  0  0
  9 14  1  0  0  0  0
  9 16  1  0  0  0  0
 10  9  1  0  0  0  0
 12 13  2  0  0  0  0
 12  1  1  0  0  0  0
 13  7  1  0  0  0  0
 14 15  1  0  0  0  0
 15  5  1  0  0  0  0
 16  6  1  6  0  0  0
 16  2  1  0  0  0  0
 18 17  1  0  0  0  0
 19 18  1  0  0  0  0
 19 17  1  0  0  0  0
 20 25  1  0  0  0  0
 21 22  1  0  0  0  0
 23 21  1  0  0  0  0
 25 24  2  0  0  0  0
 25 21  1  0  0  0  0
M  END
>  <MODEL>
8

>  <REMARK>
 VINA RESULT:      -7.1      2.819      6.150
  Name = 
  3 active torsions:
  status: ('A' for Active; 'I' for Inactive)
    1  A    between atoms: C_5  and  C_22
    2  A    between atoms: C_6  and  O_15
    3  A    between atoms: O_15  and  C_25
                            x       y       z     vdW  Elec       q    Type
                         _______ _______ _______ _____ _____    ______ ____

>  <TORSDO>
F 3

$$$$
=
 OpenBabel10272400563D

 25 28  0  0  1  0  0  0  0  0999 V2000
  187.2480  177.8980  142.5700 C   0  0  0  0  0  0  0  0  0  0  0  0
  186.1780  177.5600  143.5760 C   0  0  1  0  0  3  0  0  0  0  0  0
  185.6780  179.5390  141.3790 C   0  0  0  0  0  2  0  0  0  0  0  0
  188.4150  177.3030  142.3400 C   0  0  0  0  0  0  0  0  0  0  0  0
  186.5370  178.5010  145.9500 C   0  0  1  0  0  3  0  0  0  0  0  0
  184.6270  178.8070  142.0960 N   0  0  0  0  0  2  0  0  0  0  0  0
  189.0050  177.8290  141.0570 C   0  0  1  0  0  3  0  0  0  0  0  0
  189.1260  176.7920  140.1310 O   0  0  0  0  0  1  0  0  0  0  0  0
  183.9350  178.2500  144.3970 N   0  0  0  0  0  0  0  0  0  0  0  0
  182.6410  178.6600  143.8620 C   0  0  0  0  0  1  0  0  0  0  0  0
  186.7440  177.3350  144.9870 C   0  0  0  0  0  2  0  0  0  0  0  0
  186.9640  178.7830  141.4680 C   0  0  0  0  0  0  0  0  0  0  0  0
  187.9500  178.7880  140.5890 C   0  0  0  0  0  3  0  0  0  0  0  0
  184.1060  179.0320  145.6170 C   0  0  0  0  0  2  0  0  0  0  0  0
  185.1410  178.4090  146.5470 C   0  0  0  0  0  2  0  0  0  0  0  0
  185.0450  178.6170  143.4990 C   0  0  1  0  0  3  0  0  0  0  0  0
  190.2280  176.5620  143.8440 C   0  0  0  0  0  2  0  0  0  0  0  0
  190.3200  175.7170  142.5960 C   0  0  0  0  0  2  0  0  0  0  0  0
  188.9600  176.1420  143.1230 C   0  0  0  0  0  3  0  0  0  0  0  0
  187.4970  178.4280  146.9960 O   0  0  0  0  0  0  0  0  0  0  0  0
  189.3880  176.9300  147.4160 N   0  0  0  0  0  0  0  0  0  0  0  0
  190.7680  176.5380  147.1840 C   0  0  0  0  0  1  0  0  0  0  0  0
  188.5800  176.1320  148.3200 C   0  0  0  0  0  1  0  0  0  0  0  0
  189.5380  178.7640  145.9770 O   0  0  0  0  0  0  0  0  0  0  0  0
  188.8290  178.0750  146.7600 C   0  0  0  0  0  0  0  0  0  0  0  0
  1  2  1  0  0  0  0
  2 11  1  1  0  0  0
  3 12  1  0  0  0  0
  3  6  1  0  0  0  0
  4  1  2  0  0  0  0
  4 19  1  0  0  0  0
  5 15  1  0  0  0  0
  5 20  1  1  0  0  0
  7  8  1  6  0  0  0
  7  4  1  0  0  0  0
  9 14  1  0  0  0  0
 10  9  1  0  0  0  0
 11  5  1  0  0  0  0
 12  1  1  0  0  0  0
 13  7  1  0  0  0  0
 13 12  2  0  0  0  0
 14 15  1  0  0  0  0
 16  6  1  6  0  0  0
 16  2  1  0  0  0  0
 16  9  1  0  0  0  0
 18 19  1  0  0  0  0
 18 17  1  0  0  0  0
 19 17  1  0  0  0  0
 21 23  1  0  0  0  0
 22 21  1  0  0  0  0
 24 25  2  0  0  0  0
 25 20  1  0  0  0  0
 25 21  1  0  0  0  0
M  END
>  <MODEL>
9

>  <REMARK>
 VINA RESULT:      -7.0      2.486      6.355
  Name = 
  3 active torsions:
  status: ('A' for Active; 'I' for Inactive)
    1  A    between atoms: C_5  and  C_22
    2  A    between atoms: C_6  and  O_15
    3  A    between atoms: O_15  and  C_25
                            x       y       z     vdW  Elec       q    Type
                         _______ _______ _______ _____ _____    ______ ____

>  <TORSDO>
F 3

$$$$
