=
 OpenBabel10272413303D

 32 36  0  0  1  0  0  0  0  0999 V2000
  187.0120  178.3290  137.4430 N   0  0  0  0  0  0  0  0  0  0  0  0
  187.4230  177.8090  142.4800 C   0  0  0  0  0  0  0  0  0  0  0  0
  183.1820  179.3390  144.2990 C   0  0  0  0  0  3  0  0  0  0  0  0
  183.6050  178.9770  145.5380 N   0  0  0  0  0  0  0  0  0  0  0  0
  187.8940  177.9510  140.1120 C   0  0  0  0  0  0  0  0  0  0  0  0
  185.7640  178.7310  140.9550 C   0  0  0  0  0  3  0  0  0  0  0  0
  186.2600  178.8000  138.5430 N   0  0  0  0  0  2  0  0  0  0  0  0
  184.0120  179.1570  143.1930 C   0  0  0  0  0  3  0  0  0  0  0  0
  186.1480  178.3900  142.2650 C   0  0  0  0  0  0  0  0  0  0  0  0
  185.2870  178.5980  143.3630 C   0  0  0  0  0  0  0  0  0  0  0  0
  186.9920  177.6800  144.8660 C   0  0  0  0  0  0  0  0  0  0  0  0
  188.4490  178.3900  137.7620 C   0  0  0  0  0  2  0  0  0  0  0  0
  186.6350  178.5010  139.8900 C   0  0  0  0  0  0  0  0  0  0  0  0
  188.7410  177.7680  139.0200 O   0  0  0  0  0  0  0  0  0  0  0  0
  184.8350  178.4370  145.7420 C   0  0  0  0  0  3  0  0  0  0  0  0
  185.7130  178.2360  144.6650 C   0  0  0  0  0  0  0  0  0  0  0  0
  188.2890  177.5930  141.4020 C   0  0  0  0  0  3  0  0  0  0  0  0
  187.8270  177.4600  143.7660 C   0  0  0  0  0  3  0  0  0  0  0  0
  186.6530  176.9350  137.2110 C   0  0  0  0  0  2  0  0  0  0  0  0
  185.1650  176.8240  136.9270 C   0  0  0  0  0  2  0  0  0  0  0  0
  184.7230  175.4610  137.1690 N   0  0  0  0  0  2  0  0  0  0  0  0
  185.5950  173.2400  137.5870 C   0  0  0  0  0  1  0  0  0  0  0  0
  185.8830  174.6050  136.9950 C   0  0  0  0  0  2  0  0  0  0  0  0
  187.4650  177.2890  146.2480 C   0  0  0  0  0  2  0  0  0  0  0  0
  189.8920  176.7310  146.5000 C   0  0  1  0  0  3  0  0  0  0  0  0
  188.8760  178.4080  147.9170 C   0  0  2  0  0  3  0  0  0  0  0  0
  190.3230  178.5060  148.3260 C   0  0  0  0  0  2  0  0  0  0  0  0
  191.1000  176.9460  147.8460 S   0  0  0  0  0  0  0  0  0  0  0  0
  188.1040  177.6730  149.0110 C   0  0  0  0  0  1  0  0  0  0  0  0
  188.8280  177.7410  146.6100 N   0  0  0  0  0  0  0  0  0  0  0  0
  190.6210  176.8890  145.1760 C   0  0  0  0  0  2  0  0  0  0  0  0
  191.0400  178.2080  145.0080 O   0  0  0  0  0  1  0  0  0  0  0  0
  1 12  1  0  0  0  0
  1  7  1  0  0  0  0
  2 18  1  0  0  0  0
  3  4  1  0  0  0  0
  4 15  2  0  0  0  0
  5 17  1  0  0  0  0
  6  9  2  0  0  0  0
  7 13  1  0  0  0  0
  8 10  1  0  0  0  0
  8  3  2  0  0  0  0
  9  2  1  0  0  0  0
  9 10  1  0  0  0  0
 10 16  2  0  0  0  0
 11 24  1  0  0  0  0
 12 14  1  0  0  0  0
 13  5  2  0  0  0  0
 13  6  1  0  0  0  0
 14  5  1  0  0  0  0
 16 11  1  0  0  0  0
 16 15  1  0  0  0  0
 17  2  2  0  0  0  0
 18 11  2  0  0  0  0
 19  1  1  0  0  0  0
 20 21  1  0  0  0  0
 20 19  1  0  0  0  0
 23 21  1  0  0  0  0
 23 22  1  0  0  0  0
 24 30  1  0  0  0  0
 25 31  1  6  0  0  0
 25 30  1  0  0  0  0
 25 28  1  0  0  0  0
 26 27  1  0  0  0  0
 26 29  1  1  0  0  0
 28 27  1  0  0  0  0
 30 26  1  0  0  0  0
 32 31  1  0  0  0  0
M  END
>  <MODEL>
1

>  <REMARK>
 VINA RESULT:      -7.8      0.000      0.000
  Name = 
  7 active torsions:
  status: ('A' for Active; 'I' for Inactive)
    1  A    between atoms: N_1  and  C_10
    2  A    between atoms: N_1  and  C_20
    3  A    between atoms: N_2  and  C_24
    4  A    between atoms: C_6  and  C_7
    5  A    between atoms: C_10  and  C_24
    6  A    between atoms: C_16  and  C_27
    7  A    between atoms: C_27  and  N_32
                            x       y       z     vdW  Elec       q    Type
                         _______ _______ _______ _____ _____    ______ ____

>  <TORSDO>
F 7

$$$$
=
 OpenBabel10272413303D

 32 36  0  0  1  0  0  0  0  0999 V2000
  187.0900  178.3450  137.4140 N   0  0  0  0  0  0  0  0  0  0  0  0
  187.3600  177.8890  142.4660 C   0  0  0  0  0  0  0  0  0  0  0  0
  183.0350  179.3480  144.1400 C   0  0  0  0  0  3  0  0  0  0  0  0
  183.4290  179.0080  145.3950 N   0  0  0  0  0  0  0  0  0  0  0  0
  187.8990  178.0150  140.1120 C   0  0  0  0  0  0  0  0  0  0  0  0
  185.7290  178.7580  140.8830 C   0  0  0  0  0  3  0  0  0  0  0  0
  186.2960  178.8120  138.4850 N   0  0  0  0  0  2  0  0  0  0  0  0
  183.9020  179.1710  143.0620 C   0  0  0  0  0  3  0  0  0  0  0  0
  186.0800  178.4400  142.2070 C   0  0  0  0  0  0  0  0  0  0  0  0
  185.1830  178.6420  143.2760 C   0  0  0  0  0  0  0  0  0  0  0  0
  186.8610  177.7770  144.8390 C   0  0  0  0  0  0  0  0  0  0  0  0
  188.5150  178.4400  137.7740 C   0  0  0  0  0  2  0  0  0  0  0  0
  186.6360  178.5350  139.8470 C   0  0  0  0  0  0  0  0  0  0  0  0
  188.7820  177.8380  139.0470 O   0  0  0  0  0  0  0  0  0  0  0  0
  184.6630  178.4970  145.6420 C   0  0  0  0  0  3  0  0  0  0  0  0
  185.5770  178.3030  144.5950 C   0  0  0  0  0  0  0  0  0  0  0  0
  188.2630  177.6790  141.4170 C   0  0  0  0  0  3  0  0  0  0  0  0
  187.7330  177.5630  143.7680 C   0  0  0  0  0  3  0  0  0  0  0  0
  186.7670  176.9410  137.1870 C   0  0  0  0  0  2  0  0  0  0  0  0
  187.7380  176.3410  136.1860 C   0  0  0  0  0  2  0  0  0  0  0  0
  188.0370  174.9690  136.5570 N   0  0  0  0  0  2  0  0  0  0  0  0
  190.0160  173.6030  136.8540 C   0  0  0  0  0  1  0  0  0  0  0  0
  189.3870  174.9620  137.0910 C   0  0  0  0  0  2  0  0  0  0  0  0
  187.3000  177.4110  146.2390 C   0  0  0  0  0  2  0  0  0  0  0  0
  189.7170  176.7890  146.4310 C   0  0  1  0  0  3  0  0  0  0  0  0
  188.7560  178.4160  147.9410 C   0  0  2  0  0  3  0  0  0  0  0  0
  190.2110  178.4620  148.3340 C   0  0  0  0  0  2  0  0  0  0  0  0
  190.9470  176.9110  147.7690 S   0  0  0  0  0  0  0  0  0  0  0  0
  187.9820  177.6450  149.0090 C   0  0  0  0  0  1  0  0  0  0  0  0
  188.6770  177.8150  146.6040 N   0  0  0  0  0  0  0  0  0  0  0  0
  190.4330  176.9940  145.1070 C   0  0  0  0  0  2  0  0  0  0  0  0
  191.8070  176.8190  145.2670 O   0  0  0  0  0  1  0  0  0  0  0  0
  1 12  1  0  0  0  0
  1  7  1  0  0  0  0
  2 18  1  0  0  0  0
  3  4  1  0  0  0  0
  4 15  2  0  0  0  0
  5 17  1  0  0  0  0
  6  9  2  0  0  0  0
  7 13  1  0  0  0  0
  8 10  1  0  0  0  0
  8  3  2  0  0  0  0
  9  2  1  0  0  0  0
  9 10  1  0  0  0  0
 10 16  2  0  0  0  0
 11 24  1  0  0  0  0
 12 14  1  0  0  0  0
 13  5  2  0  0  0  0
 13  6  1  0  0  0  0
 14  5  1  0  0  0  0
 16 11  1  0  0  0  0
 16 15  1  0  0  0  0
 17  2  2  0  0  0  0
 18 11  2  0  0  0  0
 19  1  1  0  0  0  0
 20 21  1  0  0  0  0
 20 19  1  0  0  0  0
 21 23  1  0  0  0  0
 22 23  1  0  0  0  0
 24 30  1  0  0  0  0
 25 31  1  6  0  0  0
 25 30  1  0  0  0  0
 25 28  1  0  0  0  0
 26 27  1  0  0  0  0
 26 29  1  1  0  0  0
 28 27  1  0  0  0  0
 30 26  1  0  0  0  0
 31 32  1  0  0  0  0
M  END
>  <MODEL>
2

>  <REMARK>
 VINA RESULT:      -7.8      1.210      1.309
  Name = 
  7 active torsions:
  status: ('A' for Active; 'I' for Inactive)
    1  A    between atoms: N_1  and  C_10
    2  A    between atoms: N_1  and  C_20
    3  A    between atoms: N_2  and  C_24
    4  A    between atoms: C_6  and  C_7
    5  A    between atoms: C_10  and  C_24
    6  A    between atoms: C_16  and  C_27
    7  A    between atoms: C_27  and  N_32
                            x       y       z     vdW  Elec       q    Type
                         _______ _______ _______ _____ _____    ______ ____

>  <TORSDO>
F 7

$$$$
=
 OpenBabel10272413303D

 32 36  0  0  1  0  0  0  0  0999 V2000
  191.4040  177.9140  144.4920 N   0  0  0  0  0  0  0  0  0  0  0  0
  189.5210  177.1960  139.8290 C   0  0  0  0  0  0  0  0  0  0  0  0
  193.3470  176.1180  137.0300 C   0  0  0  0  0  3  0  0  0  0  0  0
  192.5010  175.9100  135.9880 N   0  0  0  0  0  0  0  0  0  0  0  0
  189.8000  177.7910  142.1560 C   0  0  0  0  0  0  0  0  0  0  0  0
  191.7450  177.2660  140.8150 C   0  0  0  0  0  3  0  0  0  0  0  0
  191.9800  177.8170  143.2050 N   0  0  0  0  0  2  0  0  0  0  0  0
  192.8470  176.5020  138.2730 C   0  0  0  0  0  3  0  0  0  0  0  0
  190.9240  177.0490  139.6940 C   0  0  0  0  0  0  0  0  0  0  0  0
  191.4650  176.6720  138.4470 C   0  0  0  0  0  0  0  0  0  0  0  0
  189.2100  176.6310  137.4880 C   0  0  0  0  0  0  0  0  0  0  0  0
  190.1480  178.6810  144.4170 C   0  0  0  0  0  2  0  0  0  0  0  0
  191.1770  177.6270  142.0370 C   0  0  0  0  0  0  0  0  0  0  0  0
  189.2810  178.1810  143.3910 O   0  0  0  0  0  0  0  0  0  0  0  0
  191.1580  176.0700  136.1170 C   0  0  0  0  0  3  0  0  0  0  0  0
  190.6010  176.4590  137.3440 C   0  0  0  0  0  0  0  0  0  0  0  0
  188.9660  177.5660  141.0590 C   0  0  0  0  0  3  0  0  0  0  0  0
  188.6850  176.9840  138.7350 C   0  0  0  0  0  3  0  0  0  0  0  0
  191.0920  176.5660  144.9530 C   0  0  0  0  0  2  0  0  0  0  0  0
  191.9220  176.2330  146.1790 C   0  0  0  0  0  2  0  0  0  0  0  0
  191.4050  176.9540  147.3300 N   0  0  0  0  0  2  0  0  0  0  0  0
  189.2380  177.8250  147.9740 C   0  0  0  0  0  1  0  0  0  0  0  0
  189.9940  176.6290  147.4320 C   0  0  0  0  0  2  0  0  0  0  0  0
  188.2710  176.4100  136.3230 C   0  0  0  0  0  2  0  0  0  0  0  0
  186.4700  174.6750  136.2240 C   0  0  1  0  0  3  0  0  0  0  0  0
  185.8940  177.0240  136.3150 C   0  0  2  0  0  3  0  0  0  0  0  0
  184.5350  176.3770  136.4000 C   0  0  0  0  0  2  0  0  0  0  0  0
  184.7170  174.7070  135.7300 S   0  0  0  0  0  0  0  0  0  0  0  0
  186.0820  177.5930  134.9100 C   0  0  0  0  0  1  0  0  0  0  0  0
  186.8920  176.0090  136.6790 N   0  0  0  0  0  0  0  0  0  0  0  0
  186.6290  173.6680  137.3500 C   0  0  0  0  0  2  0  0  0  0  0  0
  185.3820  173.2000  137.7600 O   0  0  0  0  0  1  0  0  0  0  0  0
  1 19  1  0  0  0  0
  2 17  1  0  0  0  0
  3  8  1  0  0  0  0
  4 15  1  0  0  0  0
  4  3  2  0  0  0  0
  5 14  1  0  0  0  0
  6 13  2  0  0  0  0
  7  1  1  0  0  0  0
  8 10  2  0  0  0  0
  9  2  2  0  0  0  0
  9  6  1  0  0  0  0
 10  9  1  0  0  0  0
 11 18  2  0  0  0  0
 12  1  1  0  0  0  0
 13  5  1  0  0  0  0
 13  7  1  0  0  0  0
 14 12  1  0  0  0  0
 15 16  2  0  0  0  0
 16 11  1  0  0  0  0
 16 10  1  0  0  0  0
 17  5  2  0  0  0  0
 18  2  1  0  0  0  0
 19 20  1  0  0  0  0
 20 21  1  0  0  0  0
 21 23  1  0  0  0  0
 23 22  1  0  0  0  0
 24 30  1  0  0  0  0
 24 11  1  0  0  0  0
 25 30  1  0  0  0  0
 25 31  1  1  0  0  0
 26 29  1  6  0  0  0
 26 27  1  0  0  0  0
 26 30  1  0  0  0  0
 28 25  1  0  0  0  0
 28 27  1  0  0  0  0
 31 32  1  0  0  0  0
M  END
>  <MODEL>
3

>  <REMARK>
 VINA RESULT:      -7.5      4.066      9.703
  Name = 
  7 active torsions:
  status: ('A' for Active; 'I' for Inactive)
    1  A    between atoms: N_1  and  C_10
    2  A    between atoms: N_1  and  C_20
    3  A    between atoms: N_2  and  C_24
    4  A    between atoms: C_6  and  C_7
    5  A    between atoms: C_10  and  C_24
    6  A    between atoms: C_16  and  C_27
    7  A    between atoms: C_27  and  N_32
                            x       y       z     vdW  Elec       q    Type
                         _______ _______ _______ _____ _____    ______ ____

>  <TORSDO>
F 7

$$$$
=
 OpenBabel10272413303D

 32 36  0  0  1  0  0  0  0  0999 V2000
  190.2900  176.5380  144.1110 N   0  0  0  0  0  0  0  0  0  0  0  0
  186.4270  178.2490  141.2910 C   0  0  0  0  0  0  0  0  0  0  0  0
  182.7030  178.7890  144.3700 C   0  0  0  0  0  3  0  0  0  0  0  0
  181.9670  179.3130  143.3570 N   0  0  0  0  0  0  0  0  0  0  0  0
  188.5330  177.3150  142.0240 C   0  0  0  0  0  0  0  0  0  0  0  0
  186.7170  177.5560  143.6060 C   0  0  0  0  0  3  0  0  0  0  0  0
  188.8990  176.6660  144.3260 N   0  0  0  0  0  2  0  0  0  0  0  0
  184.0140  178.3720  144.1410 C   0  0  0  0  0  3  0  0  0  0  0  0
  185.8980  178.0940  142.5970 C   0  0  0  0  0  0  0  0  0  0  0  0
  184.5720  178.4950  142.8600 C   0  0  0  0  0  0  0  0  0  0  0  0
  184.3150  179.1640  140.5160 C   0  0  0  0  0  0  0  0  0  0  0  0
  190.5390  176.0890  142.7300 C   0  0  0  0  0  2  0  0  0  0  0  0
  188.0290  177.1800  143.3140 C   0  0  0  0  0  0  0  0  0  0  0  0
  189.8400  176.8970  141.7750 O   0  0  0  0  0  0  0  0  0  0  0  0
  182.4710  179.4440  142.1010 C   0  0  0  0  0  3  0  0  0  0  0  0
  183.7830  179.0360  141.8150 C   0  0  0  0  0  0  0  0  0  0  0  0
  187.7410  177.8590  141.0110 C   0  0  0  0  0  3  0  0  0  0  0  0
  185.6380  178.7810  140.2740 C   0  0  0  0  0  3  0  0  0  0  0  0
  190.9000  177.8510  144.2830 C   0  0  0  0  0  2  0  0  0  0  0  0
  191.6070  177.9220  145.6250 C   0  0  0  0  0  2  0  0  0  0  0  0
  191.9710  176.5840  146.0560 N   0  0  0  0  0  2  0  0  0  0  0  0
  192.7260  175.7880  148.2170 C   0  0  0  0  0  1  0  0  0  0  0  0
  191.6100  176.4800  147.4590 C   0  0  0  0  0  2  0  0  0  0  0  0
  183.4890  179.7360  139.3870 C   0  0  0  0  0  2  0  0  0  0  0  0
  183.0390  178.0660  137.5780 C   0  0  1  0  0  3  0  0  0  0  0  0
  181.2370  179.4190  138.4610 C   0  0  2  0  0  3  0  0  0  0  0  0
  180.4940  178.5020  137.5230 C   0  0  0  0  0  2  0  0  0  0  0  0
  181.7120  177.8720  136.3450 S   0  0  0  0  0  0  0  0  0  0  0  0
  181.3460  180.7990  137.8150 C   0  0  0  0  0  1  0  0  0  0  0  0
  182.5360  178.7990  138.7500 N   0  0  0  0  0  0  0  0  0  0  0  0
  183.5090  176.6830  137.9920 C   0  0  0  0  0  2  0  0  0  0  0  0
  182.8420  176.2690  139.1440 O   0  0  0  0  0  1  0  0  0  0  0  0
  1 19  1  0  0  0  0
  1  7  1  0  0  0  0
  2  9  1  0  0  0  0
  4  3  2  0  0  0  0
  5 13  2  0  0  0  0
  8  3  1  0  0  0  0
  9 10  1  0  0  0  0
  9  6  2  0  0  0  0
 10  8  2  0  0  0  0
 11 16  1  0  0  0  0
 12  1  1  0  0  0  0
 13  6  1  0  0  0  0
 13  7  1  0  0  0  0
 14  5  1  0  0  0  0
 14 12  1  0  0  0  0
 15  4  1  0  0  0  0
 16 15  2  0  0  0  0
 16 10  1  0  0  0  0
 17  2  2  0  0  0  0
 17  5  1  0  0  0  0
 18 11  2  0  0  0  0
 18  2  1  0  0  0  0
 19 20  1  0  0  0  0
 20 21  1  0  0  0  0
 21 23  1  0  0  0  0
 23 22  1  0  0  0  0
 24 11  1  0  0  0  0
 25 31  1  1  0  0  0
 25 30  1  0  0  0  0
 26 29  1  6  0  0  0
 26 30  1  0  0  0  0
 27 26  1  0  0  0  0
 28 27  1  0  0  0  0
 28 25  1  0  0  0  0
 30 24  1  0  0  0  0
 31 32  1  0  0  0  0
M  END
>  <MODEL>
4

>  <REMARK>
 VINA RESULT:      -6.9      3.785      8.249
  Name = 
  7 active torsions:
  status: ('A' for Active; 'I' for Inactive)
    1  A    between atoms: N_1  and  C_10
    2  A    between atoms: N_1  and  C_20
    3  A    between atoms: N_2  and  C_24
    4  A    between atoms: C_6  and  C_7
    5  A    between atoms: C_10  and  C_24
    6  A    between atoms: C_16  and  C_27
    7  A    between atoms: C_27  and  N_32
                            x       y       z     vdW  Elec       q    Type
                         _______ _______ _______ _____ _____    ______ ____

>  <TORSDO>
F 7

$$$$
=
 OpenBabel10272413303D

 32 36  0  0  1  0  0  0  0  0999 V2000
  191.9460  177.4590  144.1310 N   0  0  0  0  0  0  0  0  0  0  0  0
  188.3720  178.0690  140.5730 C   0  0  0  0  0  0  0  0  0  0  0  0
  189.9180  175.5340  136.7230 C   0  0  0  0  0  3  0  0  0  0  0  0
  188.7540  175.8290  136.0870 N   0  0  0  0  0  0  0  0  0  0  0  0
  189.7330  178.2840  142.5600 C   0  0  0  0  0  0  0  0  0  0  0  0
  190.5610  177.0090  140.6770 C   0  0  0  0  0  3  0  0  0  0  0  0
  191.8890  177.2010  142.7430 N   0  0  0  0  0  2  0  0  0  0  0  0
  190.1520  176.0120  138.0120 C   0  0  0  0  0  3  0  0  0  0  0  0
  189.3840  177.2900  139.9590 C   0  0  0  0  0  0  0  0  0  0  0  0
  189.1830  176.7990  138.6520 C   0  0  0  0  0  0  0  0  0  0  0  0
  186.9930  177.8980  138.5820 C   0  0  0  0  0  0  0  0  0  0  0  0
  191.2630  178.7290  144.4280 C   0  0  0  0  0  2  0  0  0  0  0  0
  190.7220  177.5000  141.9730 C   0  0  0  0  0  0  0  0  0  0  0  0
  189.9530  178.7760  143.8460 O   0  0  0  0  0  0  0  0  0  0  0  0
  187.7940  176.5920  136.6730 C   0  0  0  0  0  3  0  0  0  0  0  0
  187.9810  177.1030  137.9660 C   0  0  0  0  0  0  0  0  0  0  0  0
  188.5520  178.5620  141.8710 C   0  0  0  0  0  3  0  0  0  0  0  0
  187.1960  178.3600  139.8860 C   0  0  0  0  0  3  0  0  0  0  0  0
  191.2410  176.3860  144.8220 C   0  0  0  0  0  2  0  0  0  0  0  0
  191.2110  176.6630  146.3150 C   0  0  0  0  0  2  0  0  0  0  0  0
  189.8500  176.5340  146.8070 N   0  0  0  0  0  2  0  0  0  0  0  0
  188.1970  177.6100  148.2150 C   0  0  0  0  0  1  0  0  0  0  0  0
  189.6410  177.6140  147.7550 C   0  0  0  0  0  2  0  0  0  0  0  0
  185.7040  178.2340  137.8670 C   0  0  0  0  0  2  0  0  0  0  0  0
  183.6950  176.8780  137.2450 C   0  0  1  0  0  3  0  0  0  0  0  0
  183.6690  178.2460  139.2400 C   0  0  2  0  0  3  0  0  0  0  0  0
  182.3430  177.5370  139.3450 C   0  0  0  0  0  2  0  0  0  0  0  0
  181.9280  176.9740  137.6780 S   0  0  0  0  0  0  0  0  0  0  0  0
  183.4230  179.6880  138.8010 C   0  0  0  0  0  1  0  0  0  0  0  0
  184.5100  177.4810  138.3110 N   0  0  0  0  0  0  0  0  0  0  0  0
  184.0640  175.4150  137.0730 C   0  0  0  0  0  2  0  0  0  0  0  0
  182.9810  174.6000  137.4030 O   0  0  0  0  0  1  0  0  0  0  0  0
  1 12  1  0  0  0  0
  1 19  1  0  0  0  0
  2 17  1  0  0  0  0
  3  8  1  0  0  0  0
  4 15  1  0  0  0  0
  4  3  2  0  0  0  0
  5 14  1  0  0  0  0
  6 13  2  0  0  0  0
  7  1  1  0  0  0  0
  8 10  2  0  0  0  0
  9  2  2  0  0  0  0
  9  6  1  0  0  0  0
 10  9  1  0  0  0  0
 11 18  2  0  0  0  0
 13  5  1  0  0  0  0
 13  7  1  0  0  0  0
 14 12  1  0  0  0  0
 15 16  2  0  0  0  0
 16 11  1  0  0  0  0
 16 10  1  0  0  0  0
 17  5  2  0  0  0  0
 18  2  1  0  0  0  0
 19 20  1  0  0  0  0
 20 21  1  0  0  0  0
 21 23  1  0  0  0  0
 23 22  1  0  0  0  0
 24 30  1  0  0  0  0
 24 11  1  0  0  0  0
 25 31  1  1  0  0  0
 25 28  1  0  0  0  0
 25 30  1  0  0  0  0
 26 29  1  6  0  0  0
 26 27  1  0  0  0  0
 28 27  1  0  0  0  0
 30 26  1  0  0  0  0
 31 32  1  0  0  0  0
M  END
>  <MODEL>
5

>  <REMARK>
 VINA RESULT:      -6.9      3.675      8.909
  Name = 
  7 active torsions:
  status: ('A' for Active; 'I' for Inactive)
    1  A    between atoms: N_1  and  C_10
    2  A    between atoms: N_1  and  C_20
    3  A    between atoms: N_2  and  C_24
    4  A    between atoms: C_6  and  C_7
    5  A    between atoms: C_10  and  C_24
    6  A    between atoms: C_16  and  C_27
    7  A    between atoms: C_27  and  N_32
                            x       y       z     vdW  Elec       q    Type
                         _______ _______ _______ _____ _____    ______ ____

>  <TORSDO>
F 7

$$$$
=
 OpenBabel10272413303D

 32 36  0  0  1  0  0  0  0  0999 V2000
  188.7860  174.4910  134.4730 N   0  0  0  0  0  0  0  0  0  0  0  0
  189.2940  176.9610  138.8830 C   0  0  0  0  0  0  0  0  0  0  0  0
  184.9390  178.9250  139.7860 C   0  0  0  0  0  3  0  0  0  0  0  0
  185.4080  179.3660  140.9830 N   0  0  0  0  0  0  0  0  0  0  0  0
  189.7260  175.7660  136.8250 C   0  0  0  0  0  0  0  0  0  0  0  0
  187.5370  176.7220  137.2150 C   0  0  0  0  0  3  0  0  0  0  0  0
  188.0020  175.4450  135.1600 N   0  0  0  0  0  2  0  0  0  0  0  0
  185.7730  178.2110  138.9270 C   0  0  0  0  0  3  0  0  0  0  0  0
  187.9660  177.2170  138.4600 C   0  0  0  0  0  0  0  0  0  0  0  0
  187.0990  177.9470  139.3000 C   0  0  0  0  0  0  0  0  0  0  0  0
  188.9000  178.1790  140.9460 C   0  0  0  0  0  0  0  0  0  0  0  0
  190.2130  174.8320  134.6080 C   0  0  0  0  0  2  0  0  0  0  0  0
  188.4170  175.9950  136.4130 C   0  0  0  0  0  0  0  0  0  0  0  0
  190.5770  175.0590  135.9760 O   0  0  0  0  0  0  0  0  0  0  0  0
  186.6880  179.1330  141.3770 C   0  0  0  0  0  3  0  0  0  0  0  0
  187.5700  178.4240  140.5490 C   0  0  0  0  0  0  0  0  0  0  0  0
  190.1670  176.2370  138.0630 C   0  0  0  0  0  3  0  0  0  0  0  0
  189.7430  177.4370  140.1120 C   0  0  0  0  0  3  0  0  0  0  0  0
  188.5640  173.1900  135.0930 C   0  0  0  0  0  2  0  0  0  0  0  0
  187.1130  172.7760  134.9250 C   0  0  0  0  0  2  0  0  0  0  0  0
  186.7160  171.9250  136.0330 N   0  0  0  0  0  2  0  0  0  0  0  0
  185.5140  173.5550  137.3620 C   0  0  0  0  0  1  0  0  0  0  0  0
  186.7840  172.7380  137.2340 C   0  0  0  0  0  2  0  0  0  0  0  0
  189.4230  178.6810  142.2730 C   0  0  0  0  0  2  0  0  0  0  0  0
  188.6450  177.7310  144.4530 C   0  0  1  0  0  3  0  0  0  0  0  0
  190.9700  177.5530  143.8100 C   0  0  2  0  0  3  0  0  0  0  0  0
  190.9490  176.7510  145.0860 C   0  0  0  0  0  2  0  0  0  0  0  0
  189.4880  177.2860  146.0060 S   0  0  0  0  0  0  0  0  0  0  0  0
  191.6250  178.9050  144.0880 C   0  0  0  0  0  1  0  0  0  0  0  0
  189.5870  177.6550  143.3270 N   0  0  0  0  0  0  0  0  0  0  0  0
  187.4990  176.7570  144.2390 C   0  0  0  0  0  2  0  0  0  0  0  0
  187.8670  175.7690  143.3270 O   0  0  0  0  0  1  0  0  0  0  0  0
  1 12  1  0  0  0  0
  1 19  1  0  0  0  0
  1  7  1  0  0  0  0
  2 18  1  0  0  0  0
  3  4  1  0  0  0  0
  4 15  2  0  0  0  0
  5 17  1  0  0  0  0
  6  9  2  0  0  0  0
  7 13  1  0  0  0  0
  8 10  1  0  0  0  0
  8  3  2  0  0  0  0
  9  2  1  0  0  0  0
  9 10  1  0  0  0  0
 10 16  2  0  0  0  0
 11 24  1  0  0  0  0
 12 14  1  0  0  0  0
 13  5  2  0  0  0  0
 13  6  1  0  0  0  0
 14  5  1  0  0  0  0
 16 11  1  0  0  0  0
 16 15  1  0  0  0  0
 17  2  2  0  0  0  0
 18 11  2  0  0  0  0
 20 19  1  0  0  0  0
 20 21  1  0  0  0  0
 21 23  1  0  0  0  0
 23 22  1  0  0  0  0
 24 30  1  0  0  0  0
 25 31  1  6  0  0  0
 25 28  1  0  0  0  0
 26 29  1  1  0  0  0
 26 27  1  0  0  0  0
 27 28  1  0  0  0  0
 30 26  1  0  0  0  0
 30 25  1  0  0  0  0
 32 31  1  0  0  0  0
M  END
>  <MODEL>
6

>  <REMARK>
 VINA RESULT:      -6.9      2.785      4.332
  Name = 
  7 active torsions:
  status: ('A' for Active; 'I' for Inactive)
    1  A    between atoms: N_1  and  C_10
    2  A    between atoms: N_1  and  C_20
    3  A    between atoms: N_2  and  C_24
    4  A    between atoms: C_6  and  C_7
    5  A    between atoms: C_10  and  C_24
    6  A    between atoms: C_16  and  C_27
    7  A    between atoms: C_27  and  N_32
                            x       y       z     vdW  Elec       q    Type
                         _______ _______ _______ _____ _____    ______ ____

>  <TORSDO>
F 7

$$$$
=
 OpenBabel10272413303D

 32 36  0  0  1  0  0  0  0  0999 V2000
  191.0660  176.9670  137.4030 N   0  0  0  0  0  0  0  0  0  0  0  0
  188.7330  177.0230  141.9150 C   0  0  0  0  0  0  0  0  0  0  0  0
  184.4480  179.1860  141.1410 C   0  0  0  0  0  3  0  0  0  0  0  0
  184.1100  178.9360  142.4320 N   0  0  0  0  0  0  0  0  0  0  0  0
  190.3740  176.8280  140.1510 C   0  0  0  0  0  0  0  0  0  0  0  0
  188.2600  177.9170  139.7010 C   0  0  0  0  0  3  0  0  0  0  0  0
  189.9350  177.6420  137.9150 N   0  0  0  0  0  2  0  0  0  0  0  0
  185.6910  178.7880  140.6510 C   0  0  0  0  0  3  0  0  0  0  0  0
  187.8560  177.7000  141.0310 C   0  0  0  0  0  0  0  0  0  0  0  0
  186.5950  178.1270  141.4970 C   0  0  0  0  0  0  0  0  0  0  0  0
  187.1180  177.2290  143.7170 C   0  0  0  0  0  0  0  0  0  0  0  0
  192.1220  176.9200  138.4300 C   0  0  0  0  0  2  0  0  0  0  0  0
  189.5110  177.4720  139.2700 C   0  0  0  0  0  0  0  0  0  0  0  0
  191.6250  176.4280  139.6810 O   0  0  0  0  0  0  0  0  0  0  0  0
  184.9610  178.3020  143.2820 C   0  0  0  0  0  3  0  0  0  0  0  0
  186.2260  177.8840  142.8430 C   0  0  0  0  0  0  0  0  0  0  0  0
  189.9870  176.5900  141.4700 C   0  0  0  0  0  3  0  0  0  0  0  0
  188.3570  176.7930  143.2360 C   0  0  0  0  0  3  0  0  0  0  0  0
  190.6740  175.5990  137.0860 C   0  0  0  0  0  2  0  0  0  0  0  0
  191.8000  174.8950  136.3500 C   0  0  0  0  0  2  0  0  0  0  0  0
  192.1720  173.6880  137.0690 N   0  0  0  0  0  2  0  0  0  0  0  0
  194.1440  173.3710  135.6970 C   0  0  0  0  0  1  0  0  0  0  0  0
  193.6230  173.6430  137.0940 C   0  0  0  0  0  2  0  0  0  0  0  0
  186.7440  176.9630  145.1570 C   0  0  0  0  0  2  0  0  0  0  0  0
  188.1240  177.0980  147.2410 C   0  0  1  0  0  3  0  0  0  0  0  0
  186.5440  178.8520  146.7120 C   0  0  2  0  0  3  0  0  0  0  0  0
  187.2130  179.4110  147.9410 C   0  0  0  0  0  2  0  0  0  0  0  0
  187.9490  178.0070  148.8100 S   0  0  0  0  0  0  0  0  0  0  0  0
  185.1550  178.3450  147.0950 C   0  0  0  0  0  1  0  0  0  0  0  0
  187.4220  177.8110  146.1630 N   0  0  0  0  0  0  0  0  0  0  0  0
  189.6040  176.9910  146.9150 C   0  0  0  0  0  2  0  0  0  0  0  0
  189.9910  178.0320  146.0730 O   0  0  0  0  0  1  0  0  0  0  0  0
  1  7  1  0  0  0  0
  1 12  1  0  0  0  0
  2 18  1  0  0  0  0
  3  4  1  0  0  0  0
  4 15  2  0  0  0  0
  5 17  1  0  0  0  0
  6  9  2  0  0  0  0
  7 13  1  0  0  0  0
  8  3  2  0  0  0  0
  8 10  1  0  0  0  0
  9 10  1  0  0  0  0
  9  2  1  0  0  0  0
 10 16  2  0  0  0  0
 11 24  1  0  0  0  0
 12 14  1  0  0  0  0
 13  6  1  0  0  0  0
 13  5  2  0  0  0  0
 14  5  1  0  0  0  0
 16 15  1  0  0  0  0
 16 11  1  0  0  0  0
 17  2  2  0  0  0  0
 18 11  2  0  0  0  0
 19  1  1  0  0  0  0
 20 21  1  0  0  0  0
 20 19  1  0  0  0  0
 21 23  1  0  0  0  0
 22 23  1  0  0  0  0
 24 30  1  0  0  0  0
 25 31  1  6  0  0  0
 25 28  1  0  0  0  0
 26 29  1  1  0  0  0
 26 27  1  0  0  0  0
 27 28  1  0  0  0  0
 30 26  1  0  0  0  0
 30 25  1  0  0  0  0
 32 31  1  0  0  0  0
M  END
>  <MODEL>
7

>  <REMARK>
 VINA RESULT:      -6.7      3.120      3.811
  Name = 
  7 active torsions:
  status: ('A' for Active; 'I' for Inactive)
    1  A    between atoms: N_1  and  C_10
    2  A    between atoms: N_1  and  C_20
    3  A    between atoms: N_2  and  C_24
    4  A    between atoms: C_6  and  C_7
    5  A    between atoms: C_10  and  C_24
    6  A    between atoms: C_16  and  C_27
    7  A    between atoms: C_27  and  N_32
                            x       y       z     vdW  Elec       q    Type
                         _______ _______ _______ _____ _____    ______ ____

>  <TORSDO>
F 7

$$$$
=
 OpenBabel10272413303D

 32 36  0  0  1  0  0  0  0  0999 V2000
  190.4000  176.8390  136.9170 N   0  0  0  0  0  0  0  0  0  0  0  0
  189.1890  177.0450  141.8460 C   0  0  0  0  0  0  0  0  0  0  0  0
  184.8780  179.2840  142.0380 C   0  0  0  0  0  3  0  0  0  0  0  0
  184.8480  179.0700  143.3790 N   0  0  0  0  0  0  0  0  0  0  0  0
  190.3680  176.7750  139.7520 C   0  0  0  0  0  0  0  0  0  0  0  0
  188.2260  177.9000  139.7810 C   0  0  0  0  0  3  0  0  0  0  0  0
  189.4310  177.5500  137.6610 N   0  0  0  0  0  2  0  0  0  0  0  0
  185.9650  178.8480  141.2820 C   0  0  0  0  0  3  0  0  0  0  0  0
  188.1410  177.7220  141.1740 C   0  0  0  0  0  0  0  0  0  0  0  0
  187.0310  178.1860  141.9100 C   0  0  0  0  0  0  0  0  0  0  0  0
  188.0450  177.3260  143.9690 C   0  0  0  0  0  0  0  0  0  0  0  0
  191.6660  176.7910  137.6680 C   0  0  0  0  0  2  0  0  0  0  0  0
  189.3330  177.4190  139.0810 C   0  0  0  0  0  0  0  0  0  0  0  0
  191.4680  176.3380  139.0140 O   0  0  0  0  0  0  0  0  0  0  0  0
  185.8640  178.4360  144.0220 C   0  0  0  0  0  3  0  0  0  0  0  0
  186.9840  177.9810  143.3110 C   0  0  0  0  0  0  0  0  0  0  0  0
  190.2970  176.5750  141.1320 C   0  0  0  0  0  3  0  0  0  0  0  0
  189.1290  176.8530  143.2240 C   0  0  0  0  0  3  0  0  0  0  0  0
  189.9210  175.4730  136.7360 C   0  0  0  0  0  2  0  0  0  0  0  0
  188.6390  175.4770  135.9230 C   0  0  0  0  0  2  0  0  0  0  0  0
  187.6580  174.6120  136.5550 N   0  0  0  0  0  2  0  0  0  0  0  0
  185.2580  174.9450  136.5550 C   0  0  0  0  0  1  0  0  0  0  0  0
  186.5930  175.4700  137.0430 C   0  0  0  0  0  2  0  0  0  0  0  0
  188.0150  177.0990  145.4640 C   0  0  0  0  0  2  0  0  0  0  0  0
  190.3490  176.7710  146.3040 C   0  0  1  0  0  3  0  0  0  0  0  0
  188.7910  178.1450  147.5450 C   0  0  2  0  0  3  0  0  0  0  0  0
  190.0610  178.3420  148.3330 C   0  0  0  0  0  2  0  0  0  0  0  0
  191.1350  176.9430  147.9380 S   0  0  0  0  0  0  0  0  0  0  0  0
  187.8720  177.2030  148.3200 C   0  0  0  0  0  1  0  0  0  0  0  0
  189.1670  177.6430  146.2170 N   0  0  0  0  0  0  0  0  0  0  0  0
  191.3640  177.1660  145.2440 C   0  0  0  0  0  2  0  0  0  0  0  0
  192.0260  176.0380  144.7630 O   0  0  0  0  0  1  0  0  0  0  0  0
  1  7  1  0  0  0  0
  1 12  1  0  0  0  0
  2 18  1  0  0  0  0
  3  4  1  0  0  0  0
  4 15  2  0  0  0  0
  5 17  1  0  0  0  0
  6  9  2  0  0  0  0
  7 13  1  0  0  0  0
  8 10  1  0  0  0  0
  8  3  2  0  0  0  0
  9  2  1  0  0  0  0
  9 10  1  0  0  0  0
 10 16  2  0  0  0  0
 11 24  1  0  0  0  0
 12 14  1  0  0  0  0
 13  5  2  0  0  0  0
 13  6  1  0  0  0  0
 14  5  1  0  0  0  0
 16 11  1  0  0  0  0
 16 15  1  0  0  0  0
 17  2  2  0  0  0  0
 18 11  2  0  0  0  0
 19  1  1  0  0  0  0
 20 21  1  0  0  0  0
 20 19  1  0  0  0  0
 21 23  1  0  0  0  0
 22 23  1  0  0  0  0
 24 30  1  0  0  0  0
 25 31  1  6  0  0  0
 25 28  1  0  0  0  0
 26 29  1  1  0  0  0
 26 27  1  0  0  0  0
 28 27  1  0  0  0  0
 30 25  1  0  0  0  0
 30 26  1  0  0  0  0
 32 31  1  0  0  0  0
M  END
>  <MODEL>
8

>  <REMARK>
 VINA RESULT:      -6.7      1.885      2.368
  Name = 
  7 active torsions:
  status: ('A' for Active; 'I' for Inactive)
    1  A    between atoms: N_1  and  C_10
    2  A    between atoms: N_1  and  C_20
    3  A    between atoms: N_2  and  C_24
    4  A    between atoms: C_6  and  C_7
    5  A    between atoms: C_10  and  C_24
    6  A    between atoms: C_16  and  C_27
    7  A    between atoms: C_27  and  N_32
                            x       y       z     vdW  Elec       q    Type
                         _______ _______ _______ _____ _____    ______ ____

>  <TORSDO>
F 7

$$$$
=
 OpenBabel10272413303D

 32 36  0  0  1  0  0  0  0  0999 V2000
  191.3930  178.0000  144.5200 N   0  0  0  0  0  0  0  0  0  0  0  0
  189.6230  176.9370  139.8790 C   0  0  0  0  0  0  0  0  0  0  0  0
  193.5560  176.1630  137.1280 C   0  0  0  0  0  3  0  0  0  0  0  0
  192.7430  175.8350  136.0920 N   0  0  0  0  0  0  0  0  0  0  0  0
  189.8250  177.6350  142.1850 C   0  0  0  0  0  0  0  0  0  0  0  0
  191.8220  177.2680  140.8680 C   0  0  0  0  0  3  0  0  0  0  0  0
  191.9840  177.9190  143.2390 N   0  0  0  0  0  2  0  0  0  0  0  0
  193.0120  176.5350  138.3570 C   0  0  0  0  0  3  0  0  0  0  0  0
  191.0350  176.9300  139.7530 C   0  0  0  0  0  0  0  0  0  0  0  0
  191.6190  176.5690  138.5210 C   0  0  0  0  0  0  0  0  0  0  0  0
  189.3860  176.2650  137.5580 C   0  0  0  0  0  0  0  0  0  0  0  0
  190.0660  178.6310  144.4160 C   0  0  0  0  0  2  0  0  0  0  0  0
  191.2120  177.6080  142.0760 C   0  0  0  0  0  0  0  0  0  0  0  0
  189.2620  178.0110  143.4040 O   0  0  0  0  0  0  0  0  0  0  0  0
  191.3890  175.8600  136.2110 C   0  0  0  0  0  3  0  0  0  0  0  0
  190.7880  176.2320  137.4230 C   0  0  0  0  0  0  0  0  0  0  0  0
  189.0260  177.2900  141.0940 C   0  0  0  0  0  3  0  0  0  0  0  0
  188.8200  176.6050  138.7910 C   0  0  0  0  0  3  0  0  0  0  0  0
  191.2180  176.6430  145.0250 C   0  0  0  0  0  2  0  0  0  0  0  0
  191.9630  176.4790  146.3380 C   0  0  0  0  0  2  0  0  0  0  0  0
  191.2400  177.1580  147.3990 N   0  0  0  0  0  2  0  0  0  0  0  0
  188.9080  177.5800  147.9050 C   0  0  0  0  0  1  0  0  0  0  0  0
  189.9270  176.5440  147.4740 C   0  0  0  0  0  2  0  0  0  0  0  0
  188.4820  175.9110  136.3980 C   0  0  0  0  0  2  0  0  0  0  0  0
  187.1140  177.8350  137.2290 C   0  0  1  0  0  3  0  0  0  0  0  0
  186.0330  175.9220  136.2160 C   0  0  2  0  0  3  0  0  0  0  0  0
  184.8640  176.8490  136.4310 C   0  0  0  0  0  2  0  0  0  0  0  0
  185.3670  178.0240  137.7100 S   0  0  0  0  0  0  0  0  0  0  0  0
  185.9850  174.8160  137.2690 C   0  0  0  0  0  1  0  0  0  0  0  0
  187.2570  176.7320  136.2660 N   0  0  0  0  0  0  0  0  0  0  0  0
  187.5770  179.1370  136.5980 C   0  0  0  0  0  2  0  0  0  0  0  0
  188.6240  179.6870  137.3370 O   0  0  0  0  0  1  0  0  0  0  0  0
  1 19  1  0  0  0  0
  2 17  1  0  0  0  0
  3  8  1  0  0  0  0
  4 15  1  0  0  0  0
  4  3  2  0  0  0  0
  5 14  1  0  0  0  0
  6 13  2  0  0  0  0
  7  1  1  0  0  0  0
  8 10  2  0  0  0  0
  9  2  2  0  0  0  0
  9  6  1  0  0  0  0
 10  9  1  0  0  0  0
 11 18  2  0  0  0  0
 12  1  1  0  0  0  0
 13  5  1  0  0  0  0
 13  7  1  0  0  0  0
 14 12  1  0  0  0  0
 15 16  2  0  0  0  0
 16 11  1  0  0  0  0
 16 10  1  0  0  0  0
 17  5  2  0  0  0  0
 18  2  1  0  0  0  0
 19 20  1  0  0  0  0
 20 21  1  0  0  0  0
 21 23  1  0  0  0  0
 23 22  1  0  0  0  0
 24 11  1  0  0  0  0
 25 31  1  6  0  0  0
 25 28  1  0  0  0  0
 26 30  1  0  0  0  0
 26 27  1  0  0  0  0
 26 29  1  1  0  0  0
 27 28  1  0  0  0  0
 30 24  1  0  0  0  0
 30 25  1  0  0  0  0
 31 32  1  0  0  0  0
M  END
>  <MODEL>
9

>  <REMARK>
 VINA RESULT:      -6.6      3.791      9.449
  Name = 
  7 active torsions:
  status: ('A' for Active; 'I' for Inactive)
    1  A    between atoms: N_1  and  C_10
    2  A    between atoms: N_1  and  C_20
    3  A    between atoms: N_2  and  C_24
    4  A    between atoms: C_6  and  C_7
    5  A    between atoms: C_10  and  C_24
    6  A    between atoms: C_16  and  C_27
    7  A    between atoms: C_27  and  N_32
                            x       y       z     vdW  Elec       q    Type
                         _______ _______ _______ _____ _____    ______ ____

>  <TORSDO>
F 7

$$$$
