=
 OpenBabel10272415033D

 37 41  0  0  1  0  0  0  0  0999 V2000
  190.2530  175.4180  142.7790 C   0  0  0  0  0  1  0  0  0  0  0  0
  187.3800  178.9520  140.9710 C   0  0  2  0  0  3  0  0  0  0  0  0
  183.6900  178.1340  139.2620 C   0  0  1  0  0  0  0  0  0  0  0  0
  184.9570  177.7940  137.9570 S   0  0  0  0  0  0  0  0  0  0  0  0
  188.6650  177.3320  142.3580 C   0  0  2  0  0  3  0  0  0  0  0  0
  187.0070  178.0010  139.9220 N   0  0  1  0  0  0  0  0  0  0  0  0
  188.7640  178.5570  141.4090 C   0  0  1  0  0  3  0  0  0  0  0  0
  185.8530  178.6280  139.3110 C   0  0  2  0  0  3  0  0  0  0  0  0
  187.7380  177.6070  143.4610 N   0  0  0  0  0  2  0  0  0  0  0  0
  189.3950  178.2270  140.0420 C   0  0  1  0  0  3  0  0  0  0  0  0
  191.6560  177.5710  141.0680 C   0  0  0  0  0  2  0  0  0  0  0  0
  185.4890  177.8680  144.0110 O   0  0  0  0  0  1  0  0  0  0  0  0
  186.3810  177.7750  142.9420 C   0  0  1  0  0  3  0  0  0  0  0  0
  190.5510  177.1970  140.0690 C   0  0  2  0  0  3  0  0  0  0  0  0
  186.3090  179.0470  142.0960 C   0  0  2  0  0  3  0  0  0  0  0  0
  188.1950  177.9560  139.0840 C   0  0  1  0  0  3  0  0  0  0  0  0
  190.0130  176.9060  142.9580 C   0  0  2  0  0  3  0  0  0  0  0  0
  184.7590  178.3600  140.2950 C   0  0  1  0  0  3  0  0  0  0  0  0
  191.2160  177.7530  142.5260 C   0  0  0  0  0  2  0  0  0  0  0  0
  184.8890  179.2890  141.4900 C   0  0  0  0  0  2  0  0  0  0  0  0
  182.8800  179.4060  139.0010 C   0  0  0  0  0  2  0  0  0  0  0  0
  181.7270  179.4350  139.7880 O   0  0  0  0  0  1  0  0  0  0  0  0
  182.8500  176.9100  139.6340 C   0  0  0  0  0  2  0  0  0  0  0  0
  181.4580  176.5540  137.7270 O   0  0  0  0  0  0  0  0  0  0  0  0
  183.0150  174.8820  138.1390 N   0  0  0  0  0  1  0  0  0  0  0  0
  182.3940  176.1230  138.4490 C   0  0  0  0  0  0  0  0  0  0  0  0
  191.1920  177.0780  138.6840 C   0  0  0  0  0  2  0  0  0  0  0  0
  192.0260  175.8070  138.4850 C   0  0  1  0  0  3  0  0  0  0  0  0
  191.3420  174.7850  137.5920 C   0  0  0  0  0  1  0  0  0  0  0  0
  193.4270  176.0840  138.0380 C   0  0  0  0  0  0  0  0  0  0  0  0
  193.6530  176.9440  137.1420 O   0  0  0  0  0  0  0  0  0  0  0  0
  194.4790  175.3870  138.6370 O   0  0  0  0  0  0  0  0  0  0  0  0
  195.3370  174.5220  137.9010 C   0  0  0  0  0  2  0  0  0  0  0  0
  195.2270  173.1040  138.4260 C   0  0  0  0  0  1  0  0  0  0  0  0
  188.2400  176.6100  138.3710 C   0  0  0  0  0  2  0  0  0  0  0  0
  188.3010  176.8370  136.8750 C   0  0  0  0  0  2  0  0  0  0  0  0
  188.2930  178.2060  136.6110 O   0  0  0  0  0  1  0  0  0  0  0  0
  1 17  1  0  0  0  0
  2  7  1  0  0  0  0
  2 15  1  0  0  0  0
  3 23  1  0  0  0  0
  3 18  1  0  0  0  0
  4  3  1  0  0  0  0
  4  8  1  0  0  0  0
  5 17  1  0  0  0  0
  5  9  1  0  0  0  0
  6  2  1  0  0  0  0
  7  5  1  0  0  0  0
  8  6  1  0  0  0  0
  8 18  1  0  0  0  0
 10 14  1  0  0  0  0
 10  7  1  0  0  0  0
 11 19  1  0  0  0  0
 13  9  1  0  0  0  0
 13 12  1  0  0  0  0
 14 11  1  0  0  0  0
 15 13  1  0  0  0  0
 16  6  1  0  0  0  0
 16 10  1  0  0  0  0
 18 20  1  0  0  0  0
 19 17  1  0  0  0  0
 20 15  1  0  0  0  0
 21  3  1  0  0  0  0
 21 22  1  0  0  0  0
 24 26  2  0  0  0  0
 25 26  1  0  0  0  0
 26 23  1  0  0  0  0
 27 14  1  0  0  0  0
 28 27  1  0  0  0  0
 29 28  1  0  0  0  0
 30 28  1  0  0  0  0
 30 32  1  0  0  0  0
 31 30  2  0  0  0  0
 33 34  1  0  0  0  0
 33 32  1  0  0  0  0
 35 16  1  0  0  0  0
 36 35  1  0  0  0  0
 37 36  1  0  0  0  0
M  END
>  <MODEL>
1

>  <REMARK>
 VINA RESULT:      -6.1      0.000      0.000
  Name = 
  10 active torsions:
  status: ('A' for Active; 'I' for Inactive)
    1  A    between atoms: C_1  and  C_5
    2  A    between atoms: C_1  and  C_23
    3  A    between atoms: C_2  and  C_6
    4  A    between atoms: C_5  and  O_26
    5  A    between atoms: C_6  and  C_8
    6  A    between atoms: C_8  and  C_19
    7  A    between atoms: C_11  and  O_26
    8  A    between atoms: C_23  and  C_25
    9  A    between atoms: C_27  and  C_33
   10  A    between atoms: C_29  and  C_33
                            x       y       z     vdW  Elec       q    Type
                         _______ _______ _______ _____ _____    ______ ____

>  <TORSDO>
F 10

$$$$
=
 OpenBabel10272415033D

 37 41  0  0  1  0  0  0  0  0999 V2000
  185.7690  175.1330  137.2580 C   0  0  0  0  0  1  0  0  0  0  0  0
  188.9580  178.1990  139.3670 C   0  0  2  0  0  3  0  0  0  0  0  0
  190.6800  177.3950  143.0540 C   0  0  1  0  0  0  0  0  0  0  0  0
  189.0010  178.0910  143.4020 S   0  0  0  0  0  0  0  0  0  0  0  0
  187.7520  176.5090  137.9920 C   0  0  2  0  0  3  0  0  0  0  0  0
  188.3430  177.8310  140.6440 N   0  0  1  0  0  0  0  0  0  0  0  0
  187.8840  178.0190  138.3290 C   0  0  1  0  0  3  0  0  0  0  0  0
  189.2830  178.3490  141.6170 C   0  0  2  0  0  3  0  0  0  0  0  0
  189.0540  175.9480  137.6170 N   0  0  0  0  0  2  0  0  0  0  0  0
  186.6720  178.5870  139.0930 C   0  0  1  0  0  3  0  0  0  0  0  0
  185.0410  178.1310  137.1630 C   0  0  0  0  0  2  0  0  0  0  0  0
  191.1340  175.3000  138.4430 O   0  0  0  0  0  1  0  0  0  0  0  0
  189.9630  175.9870  138.7630 C   0  0  1  0  0  3  0  0  0  0  0  0
  185.2920  178.0250  138.6740 C   0  0  2  0  0  3  0  0  0  0  0  0
  190.2920  177.4400  139.1090 C   0  0  2  0  0  3  0  0  0  0  0  0
  187.0630  178.5210  140.6010 C   0  0  1  0  0  3  0  0  0  0  0  0
  186.7580  176.2150  136.8600 C   0  0  2  0  0  3  0  0  0  0  0  0
  190.3980  177.3530  141.5780 C   0  0  1  0  0  3  0  0  0  0  0  0
  186.0710  177.4470  136.2560 C   0  0  0  0  0  2  0  0  0  0  0  0
  191.2490  177.5660  140.3380 C   0  0  0  0  0  2  0  0  0  0  0  0
  191.8170  178.3650  143.3840 C   0  0  0  0  0  2  0  0  0  0  0  0
  191.3250  179.5270  143.9810 O   0  0  0  0  0  1  0  0  0  0  0  0
  190.8770  175.9760  143.5920 C   0  0  0  0  0  2  0  0  0  0  0  0
  192.3500  175.1580  145.2850 O   0  0  0  0  0  0  0  0  0  0  0  0
  190.8550  176.7920  145.9820 N   0  0  0  0  0  1  0  0  0  0  0  0
  191.4110  175.9410  144.9870 C   0  0  0  0  0  0  0  0  0  0  0  0
  184.1690  178.7800  139.3900 C   0  0  0  0  0  2  0  0  0  0  0  0
  182.8040  178.0840  139.3260 C   0  0  1  0  0  3  0  0  0  0  0  0
  182.8620  176.6270  139.7560 C   0  0  0  0  0  1  0  0  0  0  0  0
  181.7260  178.8320  140.0460 C   0  0  0  0  0  0  0  0  0  0  0  0
  181.1800  179.8360  139.5110 O   0  0  0  0  0  0  0  0  0  0  0  0
  181.3270  178.3940  141.3110 O   0  0  0  0  0  0  0  0  0  0  0  0
  181.0140  179.2960  142.3670 C   0  0  0  0  0  2  0  0  0  0  0  0
  181.8930  179.0170  143.5710 C   0  0  0  0  0  1  0  0  0  0  0  0
  186.0740  177.7700  141.4840 C   0  0  0  0  0  2  0  0  0  0  0  0
  185.5030  178.7190  142.5170 C   0  0  0  0  0  2  0  0  0  0  0  0
  185.3780  178.0580  143.7370 O   0  0  0  0  0  1  0  0  0  0  0  0
  2  6  1  0  0  0  0
  3 21  1  0  0  0  0
  3  4  1  0  0  0  0
  3 23  1  0  0  0  0
  5  7  1  0  0  0  0
  6  8  1  0  0  0  0
  7 10  1  0  0  0  0
  7  2  1  0  0  0  0
  8  4  1  0  0  0  0
  9  5  1  0  0  0  0
  9 13  1  0  0  0  0
 10 16  1  0  0  0  0
 11 14  1  0  0  0  0
 12 13  1  0  0  0  0
 13 15  1  0  0  0  0
 14 10  1  0  0  0  0
 14 27  1  0  0  0  0
 15  2  1  0  0  0  0
 15 20  1  0  0  0  0
 16  6  1  0  0  0  0
 16 35  1  0  0  0  0
 17  1  1  0  0  0  0
 17  5  1  0  0  0  0
 18  8  1  0  0  0  0
 18  3  1  0  0  0  0
 19 17  1  0  0  0  0
 19 11  1  0  0  0  0
 20 18  1  0  0  0  0
 21 22  1  0  0  0  0
 23 26  1  0  0  0  0
 26 24  2  0  0  0  0
 26 25  1  0  0  0  0
 28 27  1  0  0  0  0
 28 29  1  0  0  0  0
 28 30  1  0  0  0  0
 30 32  1  0  0  0  0
 31 30  2  0  0  0  0
 32 33  1  0  0  0  0
 33 34  1  0  0  0  0
 35 36  1  0  0  0  0
 36 37  1  0  0  0  0
M  END
>  <MODEL>
2

>  <REMARK>
 VINA RESULT:      -5.4      2.667      8.600
  Name = 
  10 active torsions:
  status: ('A' for Active; 'I' for Inactive)
    1  A    between atoms: C_1  and  C_5
    2  A    between atoms: C_1  and  C_23
    3  A    between atoms: C_2  and  C_6
    4  A    between atoms: C_5  and  O_26
    5  A    between atoms: C_6  and  C_8
    6  A    between atoms: C_8  and  C_19
    7  A    between atoms: C_11  and  O_26
    8  A    between atoms: C_23  and  C_25
    9  A    between atoms: C_27  and  C_33
   10  A    between atoms: C_29  and  C_33
                            x       y       z     vdW  Elec       q    Type
                         _______ _______ _______ _____ _____    ______ ____

>  <TORSDO>
F 10

$$$$
=
 OpenBabel10272415033D

 37 41  0  0  1  0  0  0  0  0999 V2000
  183.6450  176.2260  138.8960 C   0  0  0  0  0  1  0  0  0  0  0  0
  187.9070  178.0470  137.3060 C   0  0  2  0  0  3  0  0  0  0  0  0
  191.4290  175.8620  137.4510 C   0  0  1  0  0  0  0  0  0  0  0  0
  191.1790  176.5620  139.1460 S   0  0  0  0  0  0  0  0  0  0  0  0
  185.6390  177.0610  137.5970 C   0  0  2  0  0  3  0  0  0  0  0  0
  188.5360  177.3290  138.4160 N   0  0  1  0  0  0  0  0  0  0  0  0
  186.5010  178.3430  137.7530 C   0  0  1  0  0  3  0  0  0  0  0  0
  189.9440  177.3850  138.0830 C   0  0  2  0  0  3  0  0  0  0  0  0
  185.7410  176.5340  136.2320 N   0  0  0  0  0  2  0  0  0  0  0  0
  186.7620  178.7340  139.2210 C   0  0  1  0  0  3  0  0  0  0  0  0
  184.2750  179.1330  139.7210 C   0  0  0  0  0  2  0  0  0  0  0  0
  187.1510  175.4370  134.7360 O   0  0  0  0  0  1  0  0  0  0  0  0
  187.1090  176.0860  135.9700 C   0  0  1  0  0  3  0  0  0  0  0  0
  185.5860  178.4910  140.1980 C   0  0  2  0  0  3  0  0  0  0  0  0
  188.0490  177.2930  135.9530 C   0  0  2  0  0  3  0  0  0  0  0  0
  188.1490  178.1170  139.5760 C   0  0  1  0  0  3  0  0  0  0  0  0
  184.1540  177.2730  137.9210 C   0  0  2  0  0  3  0  0  0  0  0  0
  190.0810  176.3560  137.0070 C   0  0  1  0  0  3  0  0  0  0  0  0
  183.7740  178.7000  138.3380 C   0  0  0  0  0  2  0  0  0  0  0  0
  189.5380  176.8940  135.6940 C   0  0  0  0  0  2  0  0  0  0  0  0
  192.5620  176.5400  136.6780 C   0  0  0  0  0  2  0  0  0  0  0  0
  193.7640  176.4670  137.3850 O   0  0  0  0  0  1  0  0  0  0  0  0
  191.4650  174.3320  137.4210 C   0  0  0  0  0  2  0  0  0  0  0  0
  189.2640  173.4060  137.3740 O   0  0  0  0  0  0  0  0  0  0  0  0
  190.3370  173.5060  135.3180 N   0  0  0  0  0  1  0  0  0  0  0  0
  190.2920  173.7260  136.7220 C   0  0  0  0  0  0  0  0  0  0  0  0
  185.9120  179.0650  141.5790 C   0  0  0  0  0  2  0  0  0  0  0  0
  185.2790  178.2960  142.7450 C   0  0  1  0  0  3  0  0  0  0  0  0
  186.2930  177.8650  143.7910 C   0  0  0  0  0  1  0  0  0  0  0  0
  184.1160  179.0110  143.3600 C   0  0  0  0  0  0  0  0  0  0  0  0
  184.2860  180.1100  143.9550 O   0  0  0  0  0  0  0  0  0  0  0  0
  182.8420  178.4470  143.2550 O   0  0  0  0  0  0  0  0  0  0  0  0
  181.7160  179.1880  142.7990 C   0  0  0  0  0  2  0  0  0  0  0  0
  181.1440  178.5540  141.5460 C   0  0  0  0  0  1  0  0  0  0  0  0
  188.1490  177.2130  140.8030 C   0  0  0  0  0  2  0  0  0  0  0  0
  189.2010  177.6950  141.7810 C   0  0  0  0  0  2  0  0  0  0  0  0
  189.6810  176.6140  142.5170 O   0  0  0  0  0  1  0  0  0  0  0  0
  2  7  1  0  0  0  0
  2  6  1  0  0  0  0
  3  4  1  0  0  0  0
  5  7  1  0  0  0  0
  5 17  1  0  0  0  0
  6 16  1  0  0  0  0
  7 10  1  0  0  0  0
  8  6  1  0  0  0  0
  8  4  1  0  0  0  0
  9  5  1  0  0  0  0
 10 16  1  0  0  0  0
 10 14  1  0  0  0  0
 11 14  1  0  0  0  0
 12 13  1  0  0  0  0
 13  9  1  0  0  0  0
 14 27  1  0  0  0  0
 15 13  1  0  0  0  0
 15  2  1  0  0  0  0
 16 35  1  0  0  0  0
 17 19  1  0  0  0  0
 17  1  1  0  0  0  0
 18  3  1  0  0  0  0
 18  8  1  0  0  0  0
 19 11  1  0  0  0  0
 20 15  1  0  0  0  0
 20 18  1  0  0  0  0
 21 22  1  0  0  0  0
 21  3  1  0  0  0  0
 23  3  1  0  0  0  0
 25 26  1  0  0  0  0
 26 24  2  0  0  0  0
 26 23  1  0  0  0  0
 27 28  1  0  0  0  0
 28 30  1  0  0  0  0
 28 29  1  0  0  0  0
 30 31  2  0  0  0  0
 32 30  1  0  0  0  0
 33 32  1  0  0  0  0
 34 33  1  0  0  0  0
 35 36  1  0  0  0  0
 36 37  1  0  0  0  0
M  END
>  <MODEL>
3

>  <REMARK>
 VINA RESULT:      -5.3      2.628      8.308
  Name = 
  10 active torsions:
  status: ('A' for Active; 'I' for Inactive)
    1  A    between atoms: C_1  and  C_5
    2  A    between atoms: C_1  and  C_23
    3  A    between atoms: C_2  and  C_6
    4  A    between atoms: C_5  and  O_26
    5  A    between atoms: C_6  and  C_8
    6  A    between atoms: C_8  and  C_19
    7  A    between atoms: C_11  and  O_26
    8  A    between atoms: C_23  and  C_25
    9  A    between atoms: C_27  and  C_33
   10  A    between atoms: C_29  and  C_33
                            x       y       z     vdW  Elec       q    Type
                         _______ _______ _______ _____ _____    ______ ____

>  <TORSDO>
F 10

$$$$
=
 OpenBabel10272415033D

 37 41  0  0  1  0  0  0  0  0999 V2000
  191.2010  179.6560  144.4740 C   0  0  0  0  0  1  0  0  0  0  0  0
  190.0610  176.2500  141.1400 C   0  0  2  0  0  3  0  0  0  0  0  0
  188.6560  177.2430  137.3660 C   0  0  1  0  0  0  0  0  0  0  0  0
  187.2030  177.3420  138.5070 S   0  0  0  0  0  0  0  0  0  0  0  0
  191.1390  177.8660  142.6980 C   0  0  2  0  0  3  0  0  0  0  0  0
  188.9630  177.1300  140.7350 N   0  0  1  0  0  0  0  0  0  0  0  0
  190.3150  176.5550  142.5910 C   0  0  1  0  0  3  0  0  0  0  0  0
  188.5380  176.5590  139.4730 C   0  0  2  0  0  3  0  0  0  0  0  0
  192.3510  177.7810  141.8770 N   0  0  0  0  0  2  0  0  0  0  0  0
  188.8650  176.6970  143.0950 C   0  0  1  0  0  3  0  0  0  0  0  0
  189.5860  177.2330  145.5000 C   0  0  0  0  0  2  0  0  0  0  0  0
  193.1480  177.7820  139.6870 O   0  0  0  0  0  1  0  0  0  0  0  0
  191.9910  177.6920  140.4620 C   0  0  1  0  0  3  0  0  0  0  0  0
  188.6710  177.6130  144.3280 C   0  0  2  0  0  3  0  0  0  0  0  0
  191.2910  176.3590  140.1940 C   0  0  2  0  0  3  0  0  0  0  0  0
  188.0100  176.9870  141.8240 C   0  0  1  0  0  3  0  0  0  0  0  0
  191.5540  178.2190  144.1330 C   0  0  2  0  0  3  0  0  0  0  0  0
  189.5940  177.0170  138.5190 C   0  0  1  0  0  3  0  0  0  0  0  0
  191.0920  177.2280  145.2090 C   0  0  0  0  0  2  0  0  0  0  0  0
  190.8580  176.1950  138.7010 C   0  0  0  0  0  2  0  0  0  0  0  0
  188.6090  176.0330  136.4300 C   0  0  0  0  0  2  0  0  0  0  0  0
  187.3180  175.5050  136.3620 O   0  0  0  0  0  1  0  0  0  0  0  0
  188.9840  178.5690  136.6750 C   0  0  0  0  0  2  0  0  0  0  0  0
  187.3660  180.3230  136.5840 O   0  0  0  0  0  0  0  0  0  0  0  0
  187.1140  178.6630  134.9800 N   0  0  0  0  0  1  0  0  0  0  0  0
  187.7860  179.2440  136.0910 C   0  0  0  0  0  0  0  0  0  0  0  0
  187.2240  177.5430  144.8220 C   0  0  0  0  0  2  0  0  0  0  0  0
  186.7320  178.8220  145.5100 C   0  0  1  0  0  3  0  0  0  0  0  0
  185.4870  179.4030  144.8600 C   0  0  0  0  0  1  0  0  0  0  0  0
  186.5650  178.6690  146.9900 C   0  0  0  0  0  0  0  0  0  0  0  0
  185.8920  179.5100  147.6460 O   0  0  0  0  0  0  0  0  0  0  0  0
  187.1550  177.5750  147.6280 O   0  0  0  0  0  0  0  0  0  0  0  0
  187.9030  177.7070  148.8320 C   0  0  0  0  0  2  0  0  0  0  0  0
  189.2000  178.4450  148.5650 C   0  0  0  0  0  1  0  0  0  0  0  0
  187.1620  178.2510  141.9020 C   0  0  0  0  0  2  0  0  0  0  0  0
  185.7040  177.8890  141.7130 C   0  0  0  0  0  2  0  0  0  0  0  0
  185.0110  178.9920  141.2160 O   0  0  0  0  0  1  0  0  0  0  0  0
  2  7  1  0  0  0  0
  3  4  1  0  0  0  0
  3 18  1  0  0  0  0
  4  8  1  0  0  0  0
  5 17  1  0  0  0  0
  6  2  1  0  0  0  0
  6 16  1  0  0  0  0
  7  5  1  0  0  0  0
  7 10  1  0  0  0  0
  8  6  1  0  0  0  0
  9  5  1  0  0  0  0
 10 14  1  0  0  0  0
 12 13  1  0  0  0  0
 13  9  1  0  0  0  0
 14 27  1  0  0  0  0
 14 11  1  0  0  0  0
 15 13  1  0  0  0  0
 15  2  1  0  0  0  0
 16 35  1  0  0  0  0
 16 10  1  0  0  0  0
 17  1  1  0  0  0  0
 17 19  1  0  0  0  0
 18 20  1  0  0  0  0
 18  8  1  0  0  0  0
 19 11  1  0  0  0  0
 20 15  1  0  0  0  0
 21  3  1  0  0  0  0
 22 21  1  0  0  0  0
 23  3  1  0  0  0  0
 25 26  1  0  0  0  0
 26 24  2  0  0  0  0
 26 23  1  0  0  0  0
 27 28  1  0  0  0  0
 28 30  1  0  0  0  0
 29 28  1  0  0  0  0
 30 32  1  0  0  0  0
 30 31  2  0  0  0  0
 32 33  1  0  0  0  0
 34 33  1  0  0  0  0
 36 35  1  0  0  0  0
 37 36  1  0  0  0  0
M  END
>  <MODEL>
4

>  <REMARK>
 VINA RESULT:      -5.3      2.840      7.096
  Name = 
  10 active torsions:
  status: ('A' for Active; 'I' for Inactive)
    1  A    between atoms: C_1  and  C_5
    2  A    between atoms: C_1  and  C_23
    3  A    between atoms: C_2  and  C_6
    4  A    between atoms: C_5  and  O_26
    5  A    between atoms: C_6  and  C_8
    6  A    between atoms: C_8  and  C_19
    7  A    between atoms: C_11  and  O_26
    8  A    between atoms: C_23  and  C_25
    9  A    between atoms: C_27  and  C_33
   10  A    between atoms: C_29  and  C_33
                            x       y       z     vdW  Elec       q    Type
                         _______ _______ _______ _____ _____    ______ ____

>  <TORSDO>
F 10

$$$$
=
 OpenBabel10272415033D

 37 41  0  0  1  0  0  0  0  0999 V2000
  186.3220  174.7840  136.9450 C   0  0  0  0  0  1  0  0  0  0  0  0
  189.2980  178.0480  139.0680 C   0  0  2  0  0  3  0  0  0  0  0  0
  190.5960  177.6250  142.9850 C   0  0  1  0  0  0  0  0  0  0  0  0
  188.8980  178.3550  143.0740 S   0  0  0  0  0  0  0  0  0  0  0  0
  188.2290  176.2270  137.7480 C   0  0  2  0  0  3  0  0  0  0  0  0
  188.5430  177.8140  140.3010 N   0  0  1  0  0  0  0  0  0  0  0  0
  188.3410  177.7630  137.9420 C   0  0  1  0  0  3  0  0  0  0  0  0
  189.3770  178.4280  141.3140 C   0  0  2  0  0  3  0  0  0  0  0  0
  189.5570  175.6300  137.5780 N   0  0  0  0  0  2  0  0  0  0  0  0
  187.0600  178.4080  138.5070 C   0  0  1  0  0  3  0  0  0  0  0  0
  185.6450  177.7580  136.4660 C   0  0  0  0  0  2  0  0  0  0  0  0
  191.5270  175.0680  138.6890 O   0  0  0  0  0  1  0  0  0  0  0  0
  190.3360  175.7850  138.8070 C   0  0  1  0  0  3  0  0  0  0  0  0
  185.7280  177.8070  137.9980 C   0  0  2  0  0  3  0  0  0  0  0  0
  190.6420  177.2660  139.0370 C   0  0  2  0  0  3  0  0  0  0  0  0
  187.2830  178.4960  140.0480 C   0  0  1  0  0  3  0  0  0  0  0  0
  187.3610  175.8190  136.5500 C   0  0  2  0  0  3  0  0  0  0  0  0
  190.4770  177.4320  141.4990 C   0  0  1  0  0  3  0  0  0  0  0  0
  186.7600  176.9830  135.7520 C   0  0  0  0  0  2  0  0  0  0  0  0
  191.4610  177.5160  140.3450 C   0  0  0  0  0  2  0  0  0  0  0  0
  191.7020  178.6230  143.3380 C   0  0  0  0  0  2  0  0  0  0  0  0
  191.1970  179.6810  144.0960 O   0  0  0  0  0  1  0  0  0  0  0  0
  190.7170  176.2680  143.6830 C   0  0  0  0  0  2  0  0  0  0  0  0
  189.8980  176.9060  145.8340 O   0  0  0  0  0  0  0  0  0  0  0  0
  191.9820  175.8810  145.8350 N   0  0  0  0  0  1  0  0  0  0  0  0
  190.8250  176.3750  145.1690 C   0  0  0  0  0  0  0  0  0  0  0  0
  184.5420  178.6310  138.5050 C   0  0  0  0  0  2  0  0  0  0  0  0
  183.2350  177.8400  138.6340 C   0  0  1  0  0  3  0  0  0  0  0  0
  182.5730  178.0080  139.9920 C   0  0  0  0  0  1  0  0  0  0  0  0
  182.2760  178.0970  137.5140 C   0  0  0  0  0  0  0  0  0  0  0  0
  181.8090  179.2540  137.3270 O   0  0  0  0  0  0  0  0  0  0  0  0
  181.9180  177.0400  136.6730 O   0  0  0  0  0  0  0  0  0  0  0  0
  182.5360  175.7610  136.7520 C   0  0  0  0  0  2  0  0  0  0  0  0
  182.9310  175.2840  135.3670 C   0  0  0  0  0  1  0  0  0  0  0  0
  186.1940  177.8410  140.8880 C   0  0  0  0  0  2  0  0  0  0  0  0
  185.6090  178.8640  141.8380 C   0  0  0  0  0  2  0  0  0  0  0  0
  184.9540  178.2110  142.8800 O   0  0  0  0  0  1  0  0  0  0  0  0
  2  6  1  0  0  0  0
  3  4  1  0  0  0  0
  3 21  1  0  0  0  0
  3 23  1  0  0  0  0
  5  7  1  0  0  0  0
  6  8  1  0  0  0  0
  7 10  1  0  0  0  0
  7  2  1  0  0  0  0
  8 18  1  0  0  0  0
  8  4  1  0  0  0  0
  9  5  1  0  0  0  0
  9 13  1  0  0  0  0
 10 16  1  0  0  0  0
 11 14  1  0  0  0  0
 12 13  1  0  0  0  0
 13 15  1  0  0  0  0
 14 27  1  0  0  0  0
 14 10  1  0  0  0  0
 15  2  1  0  0  0  0
 15 20  1  0  0  0  0
 16  6  1  0  0  0  0
 16 35  1  0  0  0  0
 17  1  1  0  0  0  0
 17  5  1  0  0  0  0
 18  3  1  0  0  0  0
 19 11  1  0  0  0  0
 19 17  1  0  0  0  0
 20 18  1  0  0  0  0
 21 22  1  0  0  0  0
 23 26  1  0  0  0  0
 26 24  2  0  0  0  0
 26 25  1  0  0  0  0
 27 28  1  0  0  0  0
 28 29  1  0  0  0  0
 30 28  1  0  0  0  0
 31 30  2  0  0  0  0
 32 33  1  0  0  0  0
 32 30  1  0  0  0  0
 34 33  1  0  0  0  0
 35 36  1  0  0  0  0
 36 37  1  0  0  0  0
M  END
>  <MODEL>
5

>  <REMARK>
 VINA RESULT:      -5.0      2.640      8.155
  Name = 
  10 active torsions:
  status: ('A' for Active; 'I' for Inactive)
    1  A    between atoms: C_1  and  C_5
    2  A    between atoms: C_1  and  C_23
    3  A    between atoms: C_2  and  C_6
    4  A    between atoms: C_5  and  O_26
    5  A    between atoms: C_6  and  C_8
    6  A    between atoms: C_8  and  C_19
    7  A    between atoms: C_11  and  O_26
    8  A    between atoms: C_23  and  C_25
    9  A    between atoms: C_27  and  C_33
   10  A    between atoms: C_29  and  C_33
                            x       y       z     vdW  Elec       q    Type
                         _______ _______ _______ _____ _____    ______ ____

>  <TORSDO>
F 10

$$$$
=
 OpenBabel10272415033D

 37 41  0  0  1  0  0  0  0  0999 V2000
  183.3570  176.3850  139.1690 C   0  0  0  0  0  1  0  0  0  0  0  0
  187.5840  177.9440  137.2410 C   0  0  2  0  0  3  0  0  0  0  0  0
  191.0070  175.6010  137.2500 C   0  0  1  0  0  0  0  0  0  0  0  0
  190.8990  176.3740  138.9270 S   0  0  0  0  0  0  0  0  0  0  0  0
  185.2990  177.0770  137.7150 C   0  0  2  0  0  3  0  0  0  0  0  0
  188.2510  177.2370  138.3370 N   0  0  1  0  0  0  0  0  0  0  0  0
  186.2250  178.3210  137.7650 C   0  0  1  0  0  3  0  0  0  0  0  0
  189.6360  177.2150  137.9130 C   0  0  2  0  0  3  0  0  0  0  0  0
  185.2870  176.4960  136.3680 N   0  0  0  0  0  2  0  0  0  0  0  0
  186.5980  178.7530  139.1970 C   0  0  1  0  0  3  0  0  0  0  0  0
  184.1700  179.2870  139.8370 C   0  0  0  0  0  2  0  0  0  0  0  0
  186.5460  175.2790  134.8310 O   0  0  0  0  0  1  0  0  0  0  0  0
  186.6140  175.9750  136.0380 C   0  0  1  0  0  3  0  0  0  0  0  0
  185.4790  178.6020  140.2550 C   0  0  2  0  0  3  0  0  0  0  0  0
  187.6040  177.1340  135.9130 C   0  0  2  0  0  3  0  0  0  0  0  0
  187.9760  178.0850  139.4870 C   0  0  1  0  0  3  0  0  0  0  0  0
  183.8480  177.3700  138.1240 C   0  0  2  0  0  3  0  0  0  0  0  0
  189.6560  176.1410  136.8720 C   0  0  1  0  0  3  0  0  0  0  0  0
  183.5600  178.8280  138.5070 C   0  0  0  0  0  2  0  0  0  0  0  0
  189.0530  176.6560  135.5760 C   0  0  0  0  0  2  0  0  0  0  0  0
  192.1170  176.1960  136.3800 C   0  0  0  0  0  2  0  0  0  0  0  0
  193.2390  176.5110  137.1480 O   0  0  0  0  0  1  0  0  0  0  0  0
  190.9720  174.0710  137.2770 C   0  0  0  0  0  2  0  0  0  0  0  0
  191.0910  173.2350  135.0430 O   0  0  0  0  0  0  0  0  0  0  0  0
  193.0580  173.0710  136.2650 N   0  0  0  0  0  1  0  0  0  0  0  0
  191.6920  173.4420  136.1290 C   0  0  0  0  0  0  0  0  0  0  0  0
  185.9200  179.2100  141.5890 C   0  0  0  0  0  2  0  0  0  0  0  0
  184.9140  179.0190  142.7300 C   0  0  1  0  0  3  0  0  0  0  0  0
  183.7500  178.1190  142.3490 C   0  0  0  0  0  1  0  0  0  0  0  0
  185.5520  178.5880  144.0140 C   0  0  0  0  0  0  0  0  0  0  0  0
  185.0140  178.8710  145.1190 O   0  0  0  0  0  0  0  0  0  0  0  0
  186.7420  177.8580  143.9670 O   0  0  0  0  0  0  0  0  0  0  0  0
  187.2690  177.1850  145.1040 C   0  0  0  0  0  2  0  0  0  0  0  0
  188.5000  177.9070  145.6170 C   0  0  0  0  0  1  0  0  0  0  0  0
  188.0160  177.2280  140.7470 C   0  0  0  0  0  2  0  0  0  0  0  0
  189.1340  177.7110  141.6470 C   0  0  0  0  0  2  0  0  0  0  0  0
  189.6590  176.6320  142.3560 O   0  0  0  0  0  1  0  0  0  0  0  0
  2  7  1  0  0  0  0
  2  6  1  0  0  0  0
  3 23  1  0  0  0  0
  3  4  1  0  0  0  0
  5  7  1  0  0  0  0
  5 17  1  0  0  0  0
  6 16  1  0  0  0  0
  7 10  1  0  0  0  0
  8  6  1  0  0  0  0
  8  4  1  0  0  0  0
  9  5  1  0  0  0  0
 10 16  1  0  0  0  0
 10 14  1  0  0  0  0
 11 14  1  0  0  0  0
 12 13  1  0  0  0  0
 13  9  1  0  0  0  0
 14 27  1  0  0  0  0
 15 13  1  0  0  0  0
 15  2  1  0  0  0  0
 16 35  1  0  0  0  0
 17 19  1  0  0  0  0
 17  1  1  0  0  0  0
 18  3  1  0  0  0  0
 18  8  1  0  0  0  0
 19 11  1  0  0  0  0
 20 15  1  0  0  0  0
 20 18  1  0  0  0  0
 21 22  1  0  0  0  0
 21  3  1  0  0  0  0
 24 26  2  0  0  0  0
 26 25  1  0  0  0  0
 26 23  1  0  0  0  0
 27 28  1  0  0  0  0
 28 30  1  0  0  0  0
 29 28  1  0  0  0  0
 30 31  2  0  0  0  0
 32 30  1  0  0  0  0
 32 33  1  0  0  0  0
 33 34  1  0  0  0  0
 35 36  1  0  0  0  0
 36 37  1  0  0  0  0
M  END
>  <MODEL>
6

>  <REMARK>
 VINA RESULT:      -5.0      2.701      7.960
  Name = 
  10 active torsions:
  status: ('A' for Active; 'I' for Inactive)
    1  A    between atoms: C_1  and  C_5
    2  A    between atoms: C_1  and  C_23
    3  A    between atoms: C_2  and  C_6
    4  A    between atoms: C_5  and  O_26
    5  A    between atoms: C_6  and  C_8
    6  A    between atoms: C_8  and  C_19
    7  A    between atoms: C_11  and  O_26
    8  A    between atoms: C_23  and  C_25
    9  A    between atoms: C_27  and  C_33
   10  A    between atoms: C_29  and  C_33
                            x       y       z     vdW  Elec       q    Type
                         _______ _______ _______ _____ _____    ______ ____

>  <TORSDO>
F 10

$$$$
=
 OpenBabel10272415033D

 37 41  0  0  1  0  0  0  0  0999 V2000
  190.8460  176.1560  141.6020 C   0  0  0  0  0  1  0  0  0  0  0  0
  188.7630  177.5820  137.4010 C   0  0  2  0  0  3  0  0  0  0  0  0
  185.2970  175.8250  135.9520 C   0  0  1  0  0  0  0  0  0  0  0  0
  186.6890  174.7050  135.4730 S   0  0  0  0  0  0  0  0  0  0  0  0
  189.6030  177.3000  139.7280 C   0  0  2  0  0  3  0  0  0  0  0  0
  188.4310  176.1730  137.1810 N   0  0  1  0  0  0  0  0  0  0  0  0
  190.0030  177.5820  138.2550 C   0  0  1  0  0  3  0  0  0  0  0  0
  187.4740  176.2310  136.0960 C   0  0  2  0  0  3  0  0  0  0  0  0
  188.5660  178.2370  140.1700 N   0  0  0  0  0  2  0  0  0  0  0  0
  190.7830  176.4270  137.5970 C   0  0  1  0  0  3  0  0  0  0  0  0
  192.7590  176.6260  139.2250 C   0  0  0  0  0  2  0  0  0  0  0  0
  186.3130  178.7930  139.9550 O   0  0  0  0  0  1  0  0  0  0  0  0
  187.3350  178.0140  139.4110 C   0  0  1  0  0  3  0  0  0  0  0  0
  191.7770  175.6800  138.5190 C   0  0  2  0  0  3  0  0  0  0  0  0
  187.5580  178.3990  137.9480 C   0  0  2  0  0  3  0  0  0  0  0  0
  189.7150  175.5840  136.8350 C   0  0  1  0  0  3  0  0  0  0  0  0
  190.7780  177.3850  140.7130 C   0  0  2  0  0  3  0  0  0  0  0  0
  186.2190  176.6830  136.7720 C   0  0  1  0  0  3  0  0  0  0  0  0
  192.1340  177.7320  140.0830 C   0  0  0  0  0  2  0  0  0  0  0  0
  186.2880  178.1720  137.0640 C   0  0  0  0  0  2  0  0  0  0  0  0
  184.7080  176.5980  134.7700 C   0  0  0  0  0  2  0  0  0  0  0  0
  183.3190  176.4700  134.7310 O   0  0  0  0  0  1  0  0  0  0  0  0
  184.2570  175.1570  136.8560 C   0  0  0  0  0  2  0  0  0  0  0  0
  183.6460  173.1310  135.7510 O   0  0  0  0  0  0  0  0  0  0  0  0
  184.8590  172.8590  137.7120 N   0  0  0  0  0  1  0  0  0  0  0  0
  184.2290  173.6700  136.7270 C   0  0  0  0  0  0  0  0  0  0  0  0
  192.5980  174.6700  137.7120 C   0  0  0  0  0  2  0  0  0  0  0  0
  194.0970  174.9840  137.6520 C   0  0  1  0  0  3  0  0  0  0  0  0
  194.9630  173.8370  138.1470 C   0  0  0  0  0  1  0  0  0  0  0  0
  194.5430  175.4760  136.3100 C   0  0  0  0  0  0  0  0  0  0  0  0
  193.8380  175.2630  135.2860 O   0  0  0  0  0  0  0  0  0  0  0  0
  195.7440  176.1830  136.2130 O   0  0  0  0  0  0  0  0  0  0  0  0
  196.1890  176.7660  134.9940 C   0  0  0  0  0  2  0  0  0  0  0  0
  196.1240  178.2790  135.0830 C   0  0  0  0  0  1  0  0  0  0  0  0
  189.6900  174.1050  137.2010 C   0  0  0  0  0  2  0  0  0  0  0  0
  189.8240  173.2740  135.9430 C   0  0  0  0  0  2  0  0  0  0  0  0
  190.4560  174.0260  134.9540 O   0  0  0  0  0  1  0  0  0  0  0  0
  2 15  1  0  0  0  0
  2  7  1  0  0  0  0
  3 18  1  0  0  0  0
  3 23  1  0  0  0  0
  4  3  1  0  0  0  0
  4  8  1  0  0  0  0
  5  9  1  0  0  0  0
  5 17  1  0  0  0  0
  6  2  1  0  0  0  0
  7  5  1  0  0  0  0
  8 18  1  0  0  0  0
  8  6  1  0  0  0  0
 10  7  1  0  0  0  0
 10 14  1  0  0  0  0
 11 19  1  0  0  0  0
 13 12  1  0  0  0  0
 13  9  1  0  0  0  0
 14 11  1  0  0  0  0
 15 13  1  0  0  0  0
 16  6  1  0  0  0  0
 16 35  1  0  0  0  0
 16 10  1  0  0  0  0
 17  1  1  0  0  0  0
 18 20  1  0  0  0  0
 19 17  1  0  0  0  0
 20 15  1  0  0  0  0
 21  3  1  0  0  0  0
 22 21  1  0  0  0  0
 24 26  2  0  0  0  0
 26 23  1  0  0  0  0
 26 25  1  0  0  0  0
 27 14  1  0  0  0  0
 28 27  1  0  0  0  0
 28 29  1  0  0  0  0
 30 28  1  0  0  0  0
 31 30  2  0  0  0  0
 32 30  1  0  0  0  0
 33 34  1  0  0  0  0
 33 32  1  0  0  0  0
 36 35  1  0  0  0  0
 37 36  1  0  0  0  0
M  END
>  <MODEL>
7

>  <REMARK>
 VINA RESULT:      -4.9      2.633      3.784
  Name = 
  10 active torsions:
  status: ('A' for Active; 'I' for Inactive)
    1  A    between atoms: C_1  and  C_5
    2  A    between atoms: C_1  and  C_23
    3  A    between atoms: C_2  and  C_6
    4  A    between atoms: C_5  and  O_26
    5  A    between atoms: C_6  and  C_8
    6  A    between atoms: C_8  and  C_19
    7  A    between atoms: C_11  and  O_26
    8  A    between atoms: C_23  and  C_25
    9  A    between atoms: C_27  and  C_33
   10  A    between atoms: C_29  and  C_33
                            x       y       z     vdW  Elec       q    Type
                         _______ _______ _______ _____ _____    ______ ____

>  <TORSDO>
F 10

$$$$
=
 OpenBabel10272415033D

 37 41  0  0  1  0  0  0  0  0999 V2000
  184.4350  177.6140  141.9840 C   0  0  0  0  0  1  0  0  0  0  0  0
  188.7120  178.6940  139.8490 C   0  0  2  0  0  3  0  0  0  0  0  0
  190.8740  175.8820  137.7000 C   0  0  1  0  0  0  0  0  0  0  0  0
  191.2600  175.5840  139.4850 S   0  0  0  0  0  0  0  0  0  0  0  0
  186.3320  178.4070  140.5220 C   0  0  2  0  0  3  0  0  0  0  0  0
  189.1430  177.3430  140.2150 N   0  0  1  0  0  0  0  0  0  0  0  0
  187.6830  179.0860  140.8750 C   0  0  1  0  0  3  0  0  0  0  0  0
  190.3490  177.1650  139.4330 C   0  0  2  0  0  3  0  0  0  0  0  0
  185.9500  178.7050  139.1390 N   0  0  0  0  0  2  0  0  0  0  0  0
  188.3420  178.5210  142.1480 C   0  0  1  0  0  3  0  0  0  0  0  0
  186.4160  179.2760  143.6690 C   0  0  0  0  0  2  0  0  0  0  0  0
  186.4450  178.2500  136.9080 O   0  0  0  0  0  1  0  0  0  0  0  0
  186.9110  178.1030  138.2140 C   0  0  1  0  0  3  0  0  0  0  0  0
  187.3710  178.1350  143.2900 C   0  0  2  0  0  3  0  0  0  0  0  0
  188.2670  178.7950  138.3620 C   0  0  2  0  0  3  0  0  0  0  0  0
  189.3530  177.4440  141.6510 C   0  0  1  0  0  3  0  0  0  0  0  0
  185.1740  178.8240  141.4410 C   0  0  2  0  0  3  0  0  0  0  0  0
  189.8270  176.9000  138.0570 C   0  0  1  0  0  3  0  0  0  0  0  0
  185.5410  179.8310  142.5380 C   0  0  0  0  0  2  0  0  0  0  0  0
  189.3560  178.1940  137.4160 C   0  0  0  0  0  2  0  0  0  0  0  0
  192.0360  176.5140  136.9280 C   0  0  0  0  0  2  0  0  0  0  0  0
  193.1680  176.6320  137.7370 O   0  0  0  0  0  1  0  0  0  0  0  0
  190.2260  174.6820  137.0050 C   0  0  0  0  0  2  0  0  0  0  0  0
  189.4100  175.5590  134.9390 O   0  0  0  0  0  0  0  0  0  0  0  0
  187.7730  174.8740  136.4370 N   0  0  0  0  0  1  0  0  0  0  0  0
  189.1320  175.0640  136.0630 C   0  0  0  0  0  0  0  0  0  0  0  0
  188.1530  177.7420  144.5460 C   0  0  0  0  0  2  0  0  0  0  0  0
  187.4230  178.0420  145.8610 C   0  0  1  0  0  3  0  0  0  0  0  0
  186.0640  177.3680  145.9500 C   0  0  0  0  0  1  0  0  0  0  0  0
  188.2580  177.7710  147.0740 C   0  0  0  0  0  0  0  0  0  0  0  0
  187.7110  177.5940  148.1970 O   0  0  0  0  0  0  0  0  0  0  0  0
  189.6470  177.7070  146.9390 O   0  0  0  0  0  0  0  0  0  0  0  0
  190.3800  176.5100  147.1680 C   0  0  0  0  0  2  0  0  0  0  0  0
  191.6950  176.5480  146.4140 C   0  0  0  0  0  1  0  0  0  0  0  0
  189.1700  176.0640  142.2700 C   0  0  0  0  0  2  0  0  0  0  0  0
  190.4380  175.6670  142.9960 C   0  0  0  0  0  2  0  0  0  0  0  0
  191.3500  176.7210  142.9500 O   0  0  0  0  0  1  0  0  0  0  0  0
  2  6  1  0  0  0  0
  2  7  1  0  0  0  0
  3 18  1  0  0  0  0
  3  4  1  0  0  0  0
  5  7  1  0  0  0  0
  5 17  1  0  0  0  0
  6 16  1  0  0  0  0
  7 10  1  0  0  0  0
  8  4  1  0  0  0  0
  8  6  1  0  0  0  0
  9  5  1  0  0  0  0
 10 14  1  0  0  0  0
 12 13  1  0  0  0  0
 13 15  1  0  0  0  0
 13  9  1  0  0  0  0
 14 11  1  0  0  0  0
 14 27  1  0  0  0  0
 15  2  1  0  0  0  0
 16 10  1  0  0  0  0
 16 35  1  0  0  0  0
 17  1  1  0  0  0  0
 17 19  1  0  0  0  0
 18  8  1  0  0  0  0
 19 11  1  0  0  0  0
 20 18  1  0  0  0  0
 20 15  1  0  0  0  0
 21  3  1  0  0  0  0
 21 22  1  0  0  0  0
 23  3  1  0  0  0  0
 24 26  2  0  0  0  0
 26 25  1  0  0  0  0
 26 23  1  0  0  0  0
 27 28  1  0  0  0  0
 28 29  1  0  0  0  0
 28 30  1  0  0  0  0
 30 31  2  0  0  0  0
 32 30  1  0  0  0  0
 32 33  1  0  0  0  0
 34 33  1  0  0  0  0
 35 36  1  0  0  0  0
 37 36  1  0  0  0  0
M  END
>  <MODEL>
8

>  <REMARK>
 VINA RESULT:      -4.5      2.841      7.123
  Name = 
  10 active torsions:
  status: ('A' for Active; 'I' for Inactive)
    1  A    between atoms: C_1  and  C_5
    2  A    between atoms: C_1  and  C_23
    3  A    between atoms: C_2  and  C_6
    4  A    between atoms: C_5  and  O_26
    5  A    between atoms: C_6  and  C_8
    6  A    between atoms: C_8  and  C_19
    7  A    between atoms: C_11  and  O_26
    8  A    between atoms: C_23  and  C_25
    9  A    between atoms: C_27  and  C_33
   10  A    between atoms: C_29  and  C_33
                            x       y       z     vdW  Elec       q    Type
                         _______ _______ _______ _____ _____    ______ ____

>  <TORSDO>
F 10

$$$$
=
 OpenBabel10272415033D

 37 41  0  0  1  0  0  0  0  0999 V2000
  188.7080  177.3200  139.2900 C   0  0  0  0  0  1  0  0  0  0  0  0
  185.2620  177.1820  135.8080 C   0  0  2  0  0  3  0  0  0  0  0  0
  182.4000  174.1840  135.6580 C   0  0  1  0  0  0  0  0  0  0  0  0
  183.9300  173.4850  134.8850 S   0  0  0  0  0  0  0  0  0  0  0  0
  186.7080  177.6330  137.7840 C   0  0  2  0  0  3  0  0  0  0  0  0
  185.4080  175.7250  135.8350 N   0  0  1  0  0  0  0  0  0  0  0  0
  186.5940  177.7350  136.2400 C   0  0  1  0  0  3  0  0  0  0  0  0
  184.2510  175.2700  135.0920 C   0  0  2  0  0  3  0  0  0  0  0  0
  185.5540  178.2660  138.4310 N   0  0  0  0  0  2  0  0  0  0  0  0
  187.5400  176.7780  135.4880 C   0  0  1  0  0  3  0  0  0  0  0  0
  189.6590  177.8960  136.4100 C   0  0  0  0  0  2  0  0  0  0  0  0
  183.2750  178.0360  138.8600 O   0  0  0  0  0  1  0  0  0  0  0  0
  184.3340  177.5260  138.1070 C   0  0  1  0  0  3  0  0  0  0  0  0
  188.9330  176.5720  136.1300 C   0  0  2  0  0  3  0  0  0  0  0  0
  184.0260  177.6710  136.6160 C   0  0  2  0  0  3  0  0  0  0  0  0
  186.6850  175.5130  135.1710 C   0  0  1  0  0  3  0  0  0  0  0  0
  187.9850  178.2700  138.3510 C   0  0  2  0  0  3  0  0  0  0  0  0
  183.1330  175.4290  136.0720 C   0  0  1  0  0  3  0  0  0  0  0  0
  188.9210  178.8950  137.3090 C   0  0  0  0  0  2  0  0  0  0  0  0
  182.7400  176.8920  136.1870 C   0  0  0  0  0  2  0  0  0  0  0  0
  181.2960  174.4900  134.6430 C   0  0  0  0  0  2  0  0  0  0  0  0
  180.0700  174.6840  135.2820 O   0  0  0  0  0  1  0  0  0  0  0  0
  181.9320  173.4130  136.8940 C   0  0  0  0  0  2  0  0  0  0  0  0
  182.9930  171.3150  137.3140 O   0  0  0  0  0  0  0  0  0  0  0  0
  181.1060  171.2150  135.9650 N   0  0  0  0  0  1  0  0  0  0  0  0
  182.0530  171.9310  136.7490 C   0  0  0  0  0  0  0  0  0  0  0  0
  189.8250  175.7340  135.2110 C   0  0  0  0  0  2  0  0  0  0  0  0
  190.9890  175.0380  135.9270 C   0  0  1  0  0  3  0  0  0  0  0  0
  190.9960  173.5320  135.7210 C   0  0  0  0  0  1  0  0  0  0  0  0
  192.3210  175.6470  135.6180 C   0  0  0  0  0  0  0  0  0  0  0  0
  192.6570  175.8720  134.4240 O   0  0  0  0  0  0  0  0  0  0  0  0
  193.1780  175.9720  136.6730 O   0  0  0  0  0  0  0  0  0  0  0  0
  194.4390  175.3380  136.8530 C   0  0  0  0  0  2  0  0  0  0  0  0
  194.2800  174.0810  137.6860 C   0  0  0  0  0  1  0  0  0  0  0  0
  187.2810  174.2000  135.6660 C   0  0  0  0  0  2  0  0  0  0  0  0
  186.9360  174.0130  137.1280 C   0  0  0  0  0  2  0  0  0  0  0  0
  186.4760  172.7130  137.3350 O   0  0  0  0  0  1  0  0  0  0  0  0
  2  6  1  0  0  0  0
  2  7  1  0  0  0  0
  2 15  1  0  0  0  0
  3 18  1  0  0  0  0
  3 23  1  0  0  0  0
  4  8  1  0  0  0  0
  4  3  1  0  0  0  0
  5 17  1  0  0  0  0
  5  9  1  0  0  0  0
  7  5  1  0  0  0  0
  8  6  1  0  0  0  0
  8 18  1  0  0  0  0
 10 14  1  0  0  0  0
 10  7  1  0  0  0  0
 11 19  1  0  0  0  0
 13  9  1  0  0  0  0
 13 12  1  0  0  0  0
 14 11  1  0  0  0  0
 15 13  1  0  0  0  0
 16 10  1  0  0  0  0
 16 35  1  0  0  0  0
 16  6  1  0  0  0  0
 17  1  1  0  0  0  0
 18 20  1  0  0  0  0
 19 17  1  0  0  0  0
 20 15  1  0  0  0  0
 21 22  1  0  0  0  0
 21  3  1  0  0  0  0
 25 26  1  0  0  0  0
 26 23  1  0  0  0  0
 26 24  2  0  0  0  0
 27 28  1  0  0  0  0
 27 14  1  0  0  0  0
 29 28  1  0  0  0  0
 30 28  1  0  0  0  0
 30 32  1  0  0  0  0
 31 30  2  0  0  0  0
 32 33  1  0  0  0  0
 33 34  1  0  0  0  0
 35 36  1  0  0  0  0
 36 37  1  0  0  0  0
M  END
>  <MODEL>
9

>  <REMARK>
 VINA RESULT:      -4.3      3.091      4.858
  Name = 
  10 active torsions:
  status: ('A' for Active; 'I' for Inactive)
    1  A    between atoms: C_1  and  C_5
    2  A    between atoms: C_1  and  C_23
    3  A    between atoms: C_2  and  C_6
    4  A    between atoms: C_5  and  O_26
    5  A    between atoms: C_6  and  C_8
    6  A    between atoms: C_8  and  C_19
    7  A    between atoms: C_11  and  O_26
    8  A    between atoms: C_23  and  C_25
    9  A    between atoms: C_27  and  C_33
   10  A    between atoms: C_29  and  C_33
                            x       y       z     vdW  Elec       q    Type
                         _______ _______ _______ _____ _____    ______ ____

>  <TORSDO>
F 10

$$$$
