=
 OpenBabel10272415213D

 34 38  0  0  1  0  0  0  0  0999 V2000
  185.9060  177.9200  143.3110 C   0  0  0  0  0  0  0  0  0  0  0  0
  188.6060  178.1360  145.8530 C   0  0  0  0  0  2  0  0  0  0  0  0
  186.3260  178.4450  146.0670 C   0  0  0  0  0  3  0  0  0  0  0  0
  183.6030  178.6180  143.8350 N   0  0  0  0  0  0  0  0  0  0  0  0
  183.0660  178.9900  145.0290 C   0  0  0  0  0  3  0  0  0  0  0  0
  185.0850  178.5920  145.4680 C   0  0  0  0  0  0  0  0  0  0  0  0
  184.8870  178.3750  144.1480 C   0  0  0  0  0  0  0  0  0  0  0  0
  183.9580  178.9730  146.0060 O   0  0  0  0  0  0  0  0  0  0  0  0
  189.9250  178.0760  145.1590 C   0  0  0  0  0  2  0  0  0  0  0  0
  190.1640  176.7750  144.4810 C   0  0  0  0  0  0  0  0  0  0  0  0
  189.3470  176.3500  143.5190 C   0  0  0  0  0  3  0  0  0  0  0  0
  187.4090  178.0310  145.2700 C   0  0  0  0  0  0  0  0  0  0  0  0
  188.0500  176.9430  143.1470 C   0  0  0  0  0  2  0  0  0  0  0  0
  187.1870  177.6670  143.8900 C   0  0  0  0  0  0  0  0  0  0  0  0
  191.4120  176.0450  144.7590 C   0  0  0  0  0  0  0  0  0  0  0  0
  191.9830  176.0990  146.0240 O   0  0  0  0  0  1  0  0  0  0  0  0
  191.9760  175.3680  143.8560 O   0  0  0  0  0  0  0  0  0  0  0  0
  185.6080  177.6780  141.8570 C   0  0  0  0  0  2  0  0  0  0  0  0
  185.9720  178.8800  141.0550 C   0  0  0  0  0  0  0  0  0  0  0  0
  186.0130  180.0070  141.6160 O   0  0  0  0  0  0  0  0  0  0  0  0
  186.2790  178.7240  139.6970 O   0  0  0  0  0  0  0  0  0  0  0  0
  188.7260  177.3960  137.2680 C   0  0  0  0  0  3  0  0  0  0  0  0
  188.6310  178.0670  139.9770 C   0  0  0  0  0  3  0  0  0  0  0  0
  192.1190  176.1790  138.4410 C   0  0  2  0  0  3  0  0  0  0  0  0
  191.1270  176.7260  137.4180 C   0  0  0  0  0  2  0  0  0  0  0  0
  189.8580  177.2110  138.0640 C   0  0  0  0  0  0  0  0  0  0  0  0
  190.9860  177.3270  140.3430 C   0  0  0  0  0  2  0  0  0  0  0  0
  189.8180  177.5720  139.4290 C   0  0  0  0  0  0  0  0  0  0  0  0
  192.2980  177.1800  139.5760 C   0  0  0  0  0  2  0  0  0  0  0  0
  187.4910  178.2440  139.1790 C   0  0  0  0  0  0  0  0  0  0  0  0
  187.5480  177.9020  137.8240 C   0  0  0  0  0  3  0  0  0  0  0  0
  193.4280  175.8930  137.7870 C   0  0  0  0  0  0  0  0  0  0  0  0
  193.9080  176.7200  136.9660 O   0  0  0  0  0  0  0  0  0  0  0  0
  194.1200  174.7220  138.0730 O   0  0  0  0  0  1  0  0  0  0  0  0
  1 14  2  0  0  0  0
  1  7  1  0  0  0  0
  4  7  1  0  0  0  0
  4  5  2  0  0  0  0
  5  8  1  0  0  0  0
  6  8  1  0  0  0  0
  6  3  1  0  0  0  0
  7  6  2  0  0  0  0
  9  2  1  0  0  0  0
 10 15  1  0  0  0  0
 10  9  1  0  0  0  0
 11 10  2  0  0  0  0
 12  2  1  0  0  0  0
 12  3  2  0  0  0  0
 13 11  1  0  0  0  0
 13 14  1  0  0  0  0
 14 12  1  0  0  0  0
 15 16  1  0  0  0  0
 17 15  2  0  0  0  0
 18  1  1  0  0  0  0
 19 20  2  0  0  0  0
 19 18  1  0  0  0  0
 21 19  1  0  0  0  0
 22 31  2  0  0  0  0
 22 26  1  0  0  0  0
 24 32  1  6  0  0  0
 24 29  1  0  0  0  0
 25 26  1  0  0  0  0
 25 24  1  0  0  0  0
 26 28  2  0  0  0  0
 28 23  1  0  0  0  0
 28 27  1  0  0  0  0
 29 27  1  0  0  0  0
 30 21  1  0  0  0  0
 30 23  2  0  0  0  0
 31 30  1  0  0  0  0
 32 34  1  0  0  0  0
 33 32  2  0  0  0  0
M  END
>  <MODEL>
1

>  <REMARK>
 VINA RESULT:     -10.0      0.000      0.000
  Name = 
  6 active torsions:
  status: ('A' for Active; 'I' for Inactive)
    1  A    between atoms: C_1  and  C_9
    2  A    between atoms: C_3  and  C_25
    3  A    between atoms: C_7  and  C_11
    4  A    between atoms: C_8  and  C_9
    5  A    between atoms: C_8  and  O_18
    6  A    between atoms: O_18  and  C_30
                            x       y       z     vdW  Elec       q    Type
                         _______ _______ _______ _____ _____    ______ ____

>  <TORSDO>
F 6

$$$$
=
 OpenBabel10272415213D

 34 38  0  0  1  0  0  0  0  0999 V2000
  190.1720  177.6870  145.3310 C   0  0  0  0  0  0  0  0  0  0  0  0
  191.1690  176.5570  141.9360 C   0  0  0  0  0  2  0  0  0  0  0  0
  191.7460  175.7280  144.0150 C   0  0  0  0  0  3  0  0  0  0  0  0
  191.2320  176.7520  147.3480 N   0  0  0  0  0  0  0  0  0  0  0  0
  192.1100  175.7190  147.4600 C   0  0  0  0  0  3  0  0  0  0  0  0
  191.7460  175.8710  145.3930 C   0  0  0  0  0  0  0  0  0  0  0  0
  191.0220  176.8250  146.0230 C   0  0  0  0  0  0  0  0  0  0  0  0
  192.4160  175.1930  146.2850 O   0  0  0  0  0  0  0  0  0  0  0  0
  190.7080  177.5660  140.9390 C   0  0  0  0  0  2  0  0  0  0  0  0
  189.2270  177.6750  140.8680 C   0  0  0  0  0  0  0  0  0  0  0  0
  188.5200  178.0290  141.9400 C   0  0  0  0  0  3  0  0  0  0  0  0
  190.9430  176.5970  143.2520 C   0  0  0  0  0  0  0  0  0  0  0  0
  189.0230  178.1490  143.3200 C   0  0  0  0  0  2  0  0  0  0  0  0
  190.0640  177.5300  143.9160 C   0  0  0  0  0  0  0  0  0  0  0  0
  188.5660  177.5620  139.5580 C   0  0  0  0  0  0  0  0  0  0  0  0
  187.4570  178.3470  139.2690 O   0  0  0  0  0  1  0  0  0  0  0  0
  188.9950  176.7560  138.6880 O   0  0  0  0  0  0  0  0  0  0  0  0
  189.3800  178.7100  146.1000 C   0  0  0  0  0  2  0  0  0  0  0  0
  188.4030  178.0300  146.9960 C   0  0  0  0  0  0  0  0  0  0  0  0
  188.5030  178.1780  148.2430 O   0  0  0  0  0  0  0  0  0  0  0  0
  187.3840  177.2560  146.4270 O   0  0  0  0  0  0  0  0  0  0  0  0
  184.0500  178.7820  145.9730 C   0  0  0  0  0  3  0  0  0  0  0  0
  186.0710  177.6790  144.3920 C   0  0  0  0  0  3  0  0  0  0  0  0
  182.3880  178.7710  142.5660 C   0  0  2  0  0  3  0  0  0  0  0  0
  182.6350  179.2910  143.9800 C   0  0  0  0  0  2  0  0  0  0  0  0
  183.8780  178.7040  144.5890 C   0  0  0  0  0  0  0  0  0  0  0  0
  184.7450  177.9980  142.3030 C   0  0  0  0  0  2  0  0  0  0  0  0
  184.9090  178.1680  143.7870 C   0  0  0  0  0  0  0  0  0  0  0  0
  183.6580  178.9080  141.7350 C   0  0  0  0  0  2  0  0  0  0  0  0
  186.2390  177.7490  145.7840 C   0  0  0  0  0  0  0  0  0  0  0  0
  185.2200  178.3010  146.5660 C   0  0  0  0  0  3  0  0  0  0  0  0
  181.2660  179.5200  141.9300 C   0  0  0  0  0  0  0  0  0  0  0  0
  181.1050  179.4600  140.6830 O   0  0  0  0  0  0  0  0  0  0  0  0
  180.4010  180.2870  142.7020 O   0  0  0  0  0  1  0  0  0  0  0  0
  1  7  1  0  0  0  0
  1 18  1  0  0  0  0
  2 12  1  0  0  0  0
  3  6  1  0  0  0  0
  4  5  2  0  0  0  0
  6  7  2  0  0  0  0
  6  8  1  0  0  0  0
  7  4  1  0  0  0  0
  8  5  1  0  0  0  0
  9  2  1  0  0  0  0
 10  9  1  0  0  0  0
 10 11  2  0  0  0  0
 11 13  1  0  0  0  0
 12 14  1  0  0  0  0
 12  3  2  0  0  0  0
 13 14  1  0  0  0  0
 14  1  2  0  0  0  0
 15 10  1  0  0  0  0
 16 15  1  0  0  0  0
 17 15  2  0  0  0  0
 18 19  1  0  0  0  0
 19 20  2  0  0  0  0
 21 19  1  0  0  0  0
 22 31  1  0  0  0  0
 23 30  1  0  0  0  0
 24 32  1  6  0  0  0
 24 25  1  0  0  0  0
 25 26  1  0  0  0  0
 26 22  2  0  0  0  0
 27 28  1  0  0  0  0
 28 23  2  0  0  0  0
 28 26  1  0  0  0  0
 29 27  1  0  0  0  0
 29 24  1  0  0  0  0
 30 21  1  0  0  0  0
 30 31  2  0  0  0  0
 32 34  1  0  0  0  0
 33 32  2  0  0  0  0
M  END
>  <MODEL>
2

>  <REMARK>
 VINA RESULT:      -9.9      2.711      8.009
  Name = 
  6 active torsions:
  status: ('A' for Active; 'I' for Inactive)
    1  A    between atoms: C_1  and  C_9
    2  A    between atoms: C_3  and  C_25
    3  A    between atoms: C_7  and  C_11
    4  A    between atoms: C_8  and  C_9
    5  A    between atoms: C_8  and  O_18
    6  A    between atoms: O_18  and  C_30
                            x       y       z     vdW  Elec       q    Type
                         _______ _______ _______ _____ _____    ______ ____

>  <TORSDO>
F 6

$$$$
=
 OpenBabel10272415213D

 34 38  0  0  1  0  0  0  0  0999 V2000
  190.1260  176.6690  144.4380 C   0  0  0  0  0  0  0  0  0  0  0  0
  186.7510  177.7100  145.5900 C   0  0  0  0  0  2  0  0  0  0  0  0
  188.7290  177.4960  146.7650 C   0  0  0  0  0  3  0  0  0  0  0  0
  191.9490  176.2560  146.0420 N   0  0  0  0  0  0  0  0  0  0  0  0
  191.9800  176.4750  147.3840 C   0  0  0  0  0  3  0  0  0  0  0  0
  190.0450  177.0660  146.8080 C   0  0  0  0  0  0  0  0  0  0  0  0
  190.7050  176.6400  145.7060 C   0  0  0  0  0  0  0  0  0  0  0  0
  190.8370  176.9600  147.8410 O   0  0  0  0  0  0  0  0  0  0  0  0
  185.7710  177.4620  144.4920 C   0  0  0  0  0  2  0  0  0  0  0  0
  186.0230  178.3000  143.2910 C   0  0  0  0  0  0  0  0  0  0  0  0
  187.1760  178.2140  142.6320 C   0  0  0  0  0  3  0  0  0  0  0  0
  188.0700  177.5090  145.5220 C   0  0  0  0  0  0  0  0  0  0  0  0
  188.3840  177.4940  143.0710 C   0  0  0  0  0  2  0  0  0  0  0  0
  188.7990  177.1850  144.3180 C   0  0  0  0  0  0  0  0  0  0  0  0
  184.9170  179.0970  142.7330 C   0  0  0  0  0  0  0  0  0  0  0  0
  184.9730  179.5380  141.4180 O   0  0  0  0  0  0  0  0  0  0  0  0
  183.9130  179.3880  143.4400 O   0  0  0  0  0  1  0  0  0  0  0  0
  190.9270  176.2000  143.2550 C   0  0  0  0  0  2  0  0  0  0  0  0
  191.6060  177.3580  142.6080 C   0  0  0  0  0  0  0  0  0  0  0  0
  191.7670  178.4230  143.2610 O   0  0  0  0  0  0  0  0  0  0  0  0
  192.0680  177.2260  141.2920 O   0  0  0  0  0  0  0  0  0  0  0  0
  191.0650  176.5830  137.7940 C   0  0  0  0  0  3  0  0  0  0  0  0
  189.9490  177.6520  140.1200 C   0  0  0  0  0  3  0  0  0  0  0  0
  187.7440  177.8640  136.4890 C   0  0  2  0  0  3  0  0  0  0  0  0
  188.9570  176.9370  136.5040 C   0  0  0  0  0  2  0  0  0  0  0  0
  189.7570  177.0720  137.7700 C   0  0  0  0  0  0  0  0  0  0  0  0
  187.8070  178.1930  138.9610 C   0  0  0  0  0  2  0  0  0  0  0  0
  189.1840  177.5910  138.9520 C   0  0  0  0  0  0  0  0  0  0  0  0
  186.9590  177.7120  137.7860 C   0  0  0  0  0  2  0  0  0  0  0  0
  191.2660  177.1690  140.1420 C   0  0  0  0  0  0  0  0  0  0  0  0
  191.8160  176.6380  138.9710 C   0  0  0  0  0  3  0  0  0  0  0  0
  186.8770  177.5600  135.3160 C   0  0  0  0  0  0  0  0  0  0  0  0
  186.7310  178.4210  134.4080 O   0  0  0  0  0  0  0  0  0  0  0  0
  186.2250  176.3360  135.2170 O   0  0  0  0  0  1  0  0  0  0  0  0
  1  7  1  0  0  0  0
  3  6  1  0  0  0  0
  4  5  2  0  0  0  0
  5  8  1  0  0  0  0
  6  8  1  0  0  0  0
  7  4  1  0  0  0  0
  7  6  2  0  0  0  0
  9  2  1  0  0  0  0
 10  9  1  0  0  0  0
 11 13  1  0  0  0  0
 11 10  2  0  0  0  0
 12  2  1  0  0  0  0
 12  3  2  0  0  0  0
 13 14  1  0  0  0  0
 14  1  2  0  0  0  0
 14 12  1  0  0  0  0
 15 10  1  0  0  0  0
 15 17  1  0  0  0  0
 16 15  2  0  0  0  0
 18  1  1  0  0  0  0
 19 18  1  0  0  0  0
 19 20  2  0  0  0  0
 21 19  1  0  0  0  0
 22 31  1  0  0  0  0
 23 30  1  0  0  0  0
 24 32  1  6  0  0  0
 24 25  1  0  0  0  0
 24 29  1  0  0  0  0
 25 26  1  0  0  0  0
 26 22  2  0  0  0  0
 26 28  1  0  0  0  0
 28 27  1  0  0  0  0
 28 23  2  0  0  0  0
 29 27  1  0  0  0  0
 30 21  1  0  0  0  0
 31 30  2  0  0  0  0
 33 32  2  0  0  0  0
 34 32  1  0  0  0  0
M  END
>  <MODEL>
3

>  <REMARK>
 VINA RESULT:      -9.5      2.493      5.560
  Name = 
  6 active torsions:
  status: ('A' for Active; 'I' for Inactive)
    1  A    between atoms: C_1  and  C_9
    2  A    between atoms: C_3  and  C_25
    3  A    between atoms: C_7  and  C_11
    4  A    between atoms: C_8  and  C_9
    5  A    between atoms: C_8  and  O_18
    6  A    between atoms: O_18  and  C_30
                            x       y       z     vdW  Elec       q    Type
                         _______ _______ _______ _____ _____    ______ ____

>  <TORSDO>
F 6

$$$$
=
 OpenBabel10272415213D

 34 38  0  0  1  0  0  0  0  0999 V2000
  184.1480  178.2480  142.4820 C   0  0  0  0  0  0  0  0  0  0  0  0
  184.8900  179.0660  146.0290 C   0  0  0  0  0  2  0  0  0  0  0  0
  182.8810  179.0560  144.8870 C   0  0  0  0  0  3  0  0  0  0  0  0
  181.9150  178.6440  141.5220 N   0  0  0  0  0  0  0  0  0  0  0  0
  180.7680  179.0310  142.1430 C   0  0  0  0  0  3  0  0  0  0  0  0
  182.1970  178.9700  143.6850 C   0  0  0  0  0  0  0  0  0  0  0  0
  182.8050  178.6170  142.5290 C   0  0  0  0  0  0  0  0  0  0  0  0
  180.9410  179.2260  143.4400 O   0  0  0  0  0  0  0  0  0  0  0  0
  186.3700  179.1410  146.2050 C   0  0  0  0  0  2  0  0  0  0  0  0
  187.0470  177.8380  145.9810 C   0  0  0  0  0  0  0  0  0  0  0  0
  186.9580  177.2190  144.8050 C   0  0  0  0  0  3  0  0  0  0  0  0
  184.2520  178.7400  144.9010 C   0  0  0  0  0  0  0  0  0  0  0  0
  186.0680  177.5840  143.6890 C   0  0  0  0  0  2  0  0  0  0  0  0
  184.8840  178.2330  143.7060 C   0  0  0  0  0  0  0  0  0  0  0  0
  187.9630  177.3230  147.0130 C   0  0  0  0  0  0  0  0  0  0  0  0
  189.1680  176.7390  146.6440 O   0  0  0  0  0  0  0  0  0  0  0  0
  187.6650  177.4050  148.2360 O   0  0  0  0  0  1  0  0  0  0  0  0
  184.7520  177.8450  141.1640 C   0  0  0  0  0  2  0  0  0  0  0  0
  185.4730  179.0000  140.5590 C   0  0  0  0  0  0  0  0  0  0  0  0
  184.8710  179.7410  139.7370 O   0  0  0  0  0  0  0  0  0  0  0  0
  186.8000  179.2450  140.9350 O   0  0  0  0  0  0  0  0  0  0  0  0
  189.9690  177.3480  141.0380 C   0  0  0  0  0  3  0  0  0  0  0  0
  188.1960  178.3430  139.1240 C   0  0  0  0  0  3  0  0  0  0  0  0
  191.8530  176.5940  137.8360 C   0  0  2  0  0  3  0  0  0  0  0  0
  191.4530  176.3600  139.2900 C   0  0  0  0  0  2  0  0  0  0  0  0
  190.2430  177.1630  139.6810 C   0  0  0  0  0  0  0  0  0  0  0  0
  189.6200  177.5320  137.2420 C   0  0  0  0  0  2  0  0  0  0  0  0
  189.3350  177.6460  138.7130 C   0  0  0  0  0  0  0  0  0  0  0  0
  190.6360  176.4360  136.9320 C   0  0  0  0  0  2  0  0  0  0  0  0
  187.9250  178.5380  140.4870 C   0  0  0  0  0  0  0  0  0  0  0  0
  188.8210  178.0380  141.4370 C   0  0  0  0  0  3  0  0  0  0  0  0
  192.9260  175.6400  137.4360 C   0  0  0  0  0  0  0  0  0  0  0  0
  192.7010  174.4010  137.4640 O   0  0  0  0  0  1  0  0  0  0  0  0
  194.1730  176.1060  137.0370 O   0  0  0  0  0  0  0  0  0  0  0  0
  1  7  2  0  0  0  0
  1 14  1  0  0  0  0
  2  9  1  0  0  0  0
  3 12  1  0  0  0  0
  4  5  2  0  0  0  0
  4  7  1  0  0  0  0
  5  8  1  0  0  0  0
  6  3  2  0  0  0  0
  7  6  1  0  0  0  0
  8  6  1  0  0  0  0
 10  9  1  0  0  0  0
 10 15  1  0  0  0  0
 11 10  2  0  0  0  0
 12  2  1  0  0  0  0
 13 14  1  0  0  0  0
 13 11  1  0  0  0  0
 14 12  2  0  0  0  0
 15 17  1  0  0  0  0
 16 15  2  0  0  0  0
 18  1  1  0  0  0  0
 19 21  1  0  0  0  0
 19 18  1  0  0  0  0
 20 19  2  0  0  0  0
 22 31  1  0  0  0  0
 23 30  1  0  0  0  0
 24 32  1  6  0  0  0
 24 25  1  0  0  0  0
 25 26  1  0  0  0  0
 26 22  2  0  0  0  0
 27 28  1  0  0  0  0
 28 23  2  0  0  0  0
 28 26  1  0  0  0  0
 29 27  1  0  0  0  0
 29 24  1  0  0  0  0
 30 21  1  0  0  0  0
 30 31  2  0  0  0  0
 32 33  1  0  0  0  0
 34 32  2  0  0  0  0
M  END
>  <MODEL>
4

>  <REMARK>
 VINA RESULT:      -9.4      1.894      2.956
  Name = 
  6 active torsions:
  status: ('A' for Active; 'I' for Inactive)
    1  A    between atoms: C_1  and  C_9
    2  A    between atoms: C_3  and  C_25
    3  A    between atoms: C_7  and  C_11
    4  A    between atoms: C_8  and  C_9
    5  A    between atoms: C_8  and  O_18
    6  A    between atoms: O_18  and  C_30
                            x       y       z     vdW  Elec       q    Type
                         _______ _______ _______ _____ _____    ______ ____

>  <TORSDO>
F 6

$$$$
=
 OpenBabel10272415213D

 34 38  0  0  1  0  0  0  0  0999 V2000
  187.7910  177.3480  145.1650 C   0  0  0  0  0  0  0  0  0  0  0  0
  184.4120  178.7020  144.4260 C   0  0  0  0  0  2  0  0  0  0  0  0
  185.6920  178.8470  146.3450 C   0  0  0  0  0  3  0  0  0  0  0  0
  188.7290  177.4330  147.4410 N   0  0  0  0  0  0  0  0  0  0  0  0
  188.2400  178.0490  148.5510 C   0  0  0  0  0  3  0  0  0  0  0  0
  186.8060  178.4450  147.0640 C   0  0  0  0  0  0  0  0  0  0  0  0
  187.7940  177.7020  146.5140 C   0  0  0  0  0  0  0  0  0  0  0  0
  187.0860  178.6540  148.3210 O   0  0  0  0  0  0  0  0  0  0  0  0
  183.9410  178.1370  143.1280 C   0  0  0  0  0  2  0  0  0  0  0  0
  184.7700  178.5710  141.9740 C   0  0  0  0  0  0  0  0  0  0  0  0
  186.0690  178.2840  141.9240 C   0  0  0  0  0  3  0  0  0  0  0  0
  185.6050  178.4850  144.9880 C   0  0  0  0  0  0  0  0  0  0  0  0
  186.8850  177.7260  143.0170 C   0  0  0  0  0  2  0  0  0  0  0  0
  186.7110  177.8090  144.3530 C   0  0  0  0  0  0  0  0  0  0  0  0
  184.1050  179.1650  140.8020 C   0  0  0  0  0  0  0  0  0  0  0  0
  184.8520  179.8430  139.8470 O   0  0  0  0  0  0  0  0  0  0  0  0
  182.8560  179.0690  140.6540 O   0  0  0  0  0  1  0  0  0  0  0  0
  188.9350  176.5380  144.6170 C   0  0  0  0  0  2  0  0  0  0  0  0
  190.1230  177.4120  144.4080 C   0  0  0  0  0  0  0  0  0  0  0  0
  191.0630  177.3870  145.2460 O   0  0  0  0  0  0  0  0  0  0  0  0
  190.1740  178.2290  143.2710 O   0  0  0  0  0  0  0  0  0  0  0  0
  192.1740  177.2680  140.3160 C   0  0  0  0  0  3  0  0  0  0  0  0
  189.4850  177.5550  141.0100 C   0  0  0  0  0  3  0  0  0  0  0  0
  190.4940  176.7270  136.9620 C   0  0  2  0  0  3  0  0  0  0  0  0
  191.6000  176.5420  137.9980 C   0  0  0  0  0  2  0  0  0  0  0  0
  191.1860  177.0270  139.3600 C   0  0  0  0  0  0  0  0  0  0  0  0
  188.7270  176.9690  138.7050 C   0  0  0  0  0  2  0  0  0  0  0  0
  189.8250  177.1500  139.7160 C   0  0  0  0  0  0  0  0  0  0  0  0
  189.1840  176.1590  137.4950 C   0  0  0  0  0  2  0  0  0  0  0  0
  190.4780  177.8060  141.9680 C   0  0  0  0  0  0  0  0  0  0  0  0
  191.8220  177.6620  141.6100 C   0  0  0  0  0  3  0  0  0  0  0  0
  190.8690  176.0590  135.6830 C   0  0  0  0  0  0  0  0  0  0  0  0
  190.2590  176.3570  134.6220 O   0  0  0  0  0  0  0  0  0  0  0  0
  191.8820  175.1070  135.6530 O   0  0  0  0  0  1  0  0  0  0  0  0
  1  7  1  0  0  0  0
  2 12  1  0  0  0  0
  3  6  1  0  0  0  0
  4  5  2  0  0  0  0
  6  8  1  0  0  0  0
  7  6  2  0  0  0  0
  7  4  1  0  0  0  0
  8  5  1  0  0  0  0
  9  2  1  0  0  0  0
 10  9  1  0  0  0  0
 11 10  2  0  0  0  0
 11 13  1  0  0  0  0
 12  3  2  0  0  0  0
 13 14  1  0  0  0  0
 14 12  1  0  0  0  0
 14  1  2  0  0  0  0
 15 10  1  0  0  0  0
 16 15  2  0  0  0  0
 17 15  1  0  0  0  0
 18  1  1  0  0  0  0
 19 18  1  0  0  0  0
 19 20  2  0  0  0  0
 21 19  1  0  0  0  0
 22 31  1  0  0  0  0
 23 30  1  0  0  0  0
 24 32  1  6  0  0  0
 24 29  1  0  0  0  0
 24 25  1  0  0  0  0
 25 26  1  0  0  0  0
 26 28  1  0  0  0  0
 26 22  2  0  0  0  0
 27 28  1  0  0  0  0
 28 23  2  0  0  0  0
 29 27  1  0  0  0  0
 30 21  1  0  0  0  0
 31 30  2  0  0  0  0
 33 32  2  0  0  0  0
 34 32  1  0  0  0  0
M  END
>  <MODEL>
5

>  <REMARK>
 VINA RESULT:      -9.4      2.129      4.866
  Name = 
  6 active torsions:
  status: ('A' for Active; 'I' for Inactive)
    1  A    between atoms: C_1  and  C_9
    2  A    between atoms: C_3  and  C_25
    3  A    between atoms: C_7  and  C_11
    4  A    between atoms: C_8  and  C_9
    5  A    between atoms: C_8  and  O_18
    6  A    between atoms: O_18  and  C_30
                            x       y       z     vdW  Elec       q    Type
                         _______ _______ _______ _____ _____    ______ ____

>  <TORSDO>
F 6

$$$$
=
 OpenBabel10272415213D

 34 38  0  0  1  0  0  0  0  0999 V2000
  186.4270  177.8910  143.9170 C   0  0  0  0  0  0  0  0  0  0  0  0
  188.4690  178.2850  146.9950 C   0  0  0  0  0  2  0  0  0  0  0  0
  186.1880  178.4840  146.6810 C   0  0  0  0  0  3  0  0  0  0  0  0
  184.0370  178.4820  143.8880 N   0  0  0  0  0  0  0  0  0  0  0  0
  183.2280  178.8470  144.9190 C   0  0  0  0  0  3  0  0  0  0  0  0
  185.1100  178.5580  145.8140 C   0  0  0  0  0  0  0  0  0  0  0  0
  185.2260  178.3080  144.4890 C   0  0  0  0  0  0  0  0  0  0  0  0
  183.8750  178.8920  146.0730 O   0  0  0  0  0  0  0  0  0  0  0  0
  189.9130  178.2790  146.6190 C   0  0  0  0  0  2  0  0  0  0  0  0
  190.3560  176.9800  146.0490 C   0  0  0  0  0  0  0  0  0  0  0  0
  189.7990  176.4990  144.9400 C   0  0  0  0  0  3  0  0  0  0  0  0
  187.4410  178.1110  146.1600 C   0  0  0  0  0  0  0  0  0  0  0  0
  188.5950  177.0200  144.2680 C   0  0  0  0  0  2  0  0  0  0  0  0
  187.5540  177.7120  144.7770 C   0  0  0  0  0  0  0  0  0  0  0  0
  191.5410  176.3190  146.6210 C   0  0  0  0  0  0  0  0  0  0  0  0
  192.1640  175.2880  145.9290 O   0  0  0  0  0  0  0  0  0  0  0  0
  192.0000  176.6760  147.7400 O   0  0  0  0  0  1  0  0  0  0  0  0
  186.4780  177.6100  142.4400 C   0  0  0  0  0  2  0  0  0  0  0  0
  186.8500  178.8470  141.6980 C   0  0  0  0  0  0  0  0  0  0  0  0
  185.9590  179.6940  141.4220 O   0  0  0  0  0  0  0  0  0  0  0  0
  188.1900  179.0470  141.3400 O   0  0  0  0  0  0  0  0  0  0  0  0
  190.6820  176.6020  140.1290 C   0  0  0  0  0  3  0  0  0  0  0  0
  188.7520  178.3140  139.0620 C   0  0  0  0  0  3  0  0  0  0  0  0
  191.3440  176.2220  136.4160 C   0  0  2  0  0  3  0  0  0  0  0  0
  191.3220  175.7550  137.8700 C   0  0  0  0  0  2  0  0  0  0  0  0
  190.5100  176.6690  138.7450 C   0  0  0  0  0  0  0  0  0  0  0  0
  189.3420  177.6790  136.7220 C   0  0  0  0  0  2  0  0  0  0  0  0
  189.5180  177.5180  138.2060 C   0  0  0  0  0  0  0  0  0  0  0  0
  189.9230  176.5030  135.9410 C   0  0  0  0  0  2  0  0  0  0  0  0
  188.9310  178.2530  140.4520 C   0  0  0  0  0  0  0  0  0  0  0  0
  189.9010  177.3940  140.9760 C   0  0  0  0  0  3  0  0  0  0  0  0
  191.9880  175.1920  135.5530 C   0  0  0  0  0  0  0  0  0  0  0  0
  191.7000  173.9760  135.7130 O   0  0  0  0  0  1  0  0  0  0  0  0
  192.9070  175.5610  134.5780 O   0  0  0  0  0  0  0  0  0  0  0  0
  1  7  2  0  0  0  0
  1 14  1  0  0  0  0
  4  7  1  0  0  0  0
  4  5  2  0  0  0  0
  5  8  1  0  0  0  0
  6  8  1  0  0  0  0
  6  3  2  0  0  0  0
  7  6  1  0  0  0  0
  9  2  1  0  0  0  0
 10  9  1  0  0  0  0
 10 15  1  0  0  0  0
 11 10  2  0  0  0  0
 12  3  1  0  0  0  0
 12  2  1  0  0  0  0
 13 14  1  0  0  0  0
 13 11  1  0  0  0  0
 14 12  2  0  0  0  0
 15 17  1  0  0  0  0
 16 15  2  0  0  0  0
 18  1  1  0  0  0  0
 19 18  1  0  0  0  0
 20 19  2  0  0  0  0
 21 19  1  0  0  0  0
 22 31  1  0  0  0  0
 23 30  1  0  0  0  0
 24 32  1  6  0  0  0
 24 25  1  0  0  0  0
 25 26  1  0  0  0  0
 26 22  2  0  0  0  0
 27 28  1  0  0  0  0
 28 26  1  0  0  0  0
 28 23  2  0  0  0  0
 29 24  1  0  0  0  0
 29 27  1  0  0  0  0
 30 31  2  0  0  0  0
 30 21  1  0  0  0  0
 32 33  1  0  0  0  0
 34 32  2  0  0  0  0
M  END
>  <MODEL>
6

>  <REMARK>
 VINA RESULT:      -9.4      1.379      2.142
  Name = 
  6 active torsions:
  status: ('A' for Active; 'I' for Inactive)
    1  A    between atoms: C_1  and  C_9
    2  A    between atoms: C_3  and  C_25
    3  A    between atoms: C_7  and  C_11
    4  A    between atoms: C_8  and  C_9
    5  A    between atoms: C_8  and  O_18
    6  A    between atoms: O_18  and  C_30
                            x       y       z     vdW  Elec       q    Type
                         _______ _______ _______ _____ _____    ______ ____

>  <TORSDO>
F 6

$$$$
=
 OpenBabel10272415213D

 34 38  0  0  1  0  0  0  0  0999 V2000
  187.4650  177.5320  145.7150 C   0  0  0  0  0  0  0  0  0  0  0  0
  190.4160  178.3250  143.6020 C   0  0  0  0  0  2  0  0  0  0  0  0
  190.2550  178.0150  145.8870 C   0  0  0  0  0  3  0  0  0  0  0  0
  187.6080  177.5760  148.1730 N   0  0  0  0  0  0  0  0  0  0  0  0
  188.7000  177.7360  148.9690 C   0  0  0  0  0  3  0  0  0  0  0  0
  189.4620  177.8600  147.0120 C   0  0  0  0  0  0  0  0  0  0  0  0
  188.1250  177.6620  146.9360 C   0  0  0  0  0  0  0  0  0  0  0  0
  189.8100  177.9070  148.2700 O   0  0  0  0  0  0  0  0  0  0  0  0
  189.9470  178.6460  142.2230 C   0  0  0  0  0  2  0  0  0  0  0  0
  189.3110  177.4870  141.5440 C   0  0  0  0  0  0  0  0  0  0  0  0
  188.2260  176.9090  142.0570 C   0  0  0  0  0  3  0  0  0  0  0  0
  189.6430  177.9390  144.6220 C   0  0  0  0  0  0  0  0  0  0  0  0
  187.6490  177.1600  143.3890 C   0  0  0  0  0  2  0  0  0  0  0  0
  188.2440  177.5950  144.5200 C   0  0  0  0  0  0  0  0  0  0  0  0
  189.7850  177.0970  140.2050 C   0  0  0  0  0  0  0  0  0  0  0  0
  189.3040  177.7530  139.0790 O   0  0  0  0  0  0  0  0  0  0  0  0
  190.6270  176.1680  140.0660 O   0  0  0  0  0  1  0  0  0  0  0  0
  185.9800  177.2900  145.7070 C   0  0  0  0  0  2  0  0  0  0  0  0
  185.2550  178.5640  145.9720 C   0  0  0  0  0  0  0  0  0  0  0  0
  184.8040  178.7880  147.1270 O   0  0  0  0  0  0  0  0  0  0  0  0
  185.1080  179.4920  144.9330 O   0  0  0  0  0  0  0  0  0  0  0  0
  182.4310  178.7850  142.4870 C   0  0  0  0  0  3  0  0  0  0  0  0
  185.1940  179.1840  142.4960 C   0  0  0  0  0  3  0  0  0  0  0  0
  183.2920  178.0060  138.8790 C   0  0  2  0  0  3  0  0  0  0  0  0
  182.3840  178.4830  140.0100 C   0  0  0  0  0  2  0  0  0  0  0  0
  183.1430  178.7060  141.2890 C   0  0  0  0  0  0  0  0  0  0  0  0
  185.3580  178.7880  140.0380 C   0  0  0  0  0  2  0  0  0  0  0  0
  184.5370  178.9300  141.2890 C   0  0  0  0  0  0  0  0  0  0  0  0
  184.5110  178.9150  138.7740 C   0  0  0  0  0  2  0  0  0  0  0  0
  184.4800  179.2540  143.7020 C   0  0  0  0  0  0  0  0  0  0  0  0
  183.0970  179.0500  143.6870 C   0  0  0  0  0  3  0  0  0  0  0  0
  182.5440  177.9870  137.5900 C   0  0  0  0  0  0  0  0  0  0  0  0
  181.7170  178.9020  137.3360 O   0  0  0  0  0  1  0  0  0  0  0  0
  182.7490  176.9650  136.6690 O   0  0  0  0  0  0  0  0  0  0  0  0
  1  7  1  0  0  0  0
  2 12  1  0  0  0  0
  3  6  1  0  0  0  0
  4  5  2  0  0  0  0
  6  8  1  0  0  0  0
  7  6  2  0  0  0  0
  7  4  1  0  0  0  0
  8  5  1  0  0  0  0
  9  2  1  0  0  0  0
 10 11  2  0  0  0  0
 10  9  1  0  0  0  0
 11 13  1  0  0  0  0
 12  3  2  0  0  0  0
 13 14  1  0  0  0  0
 14 12  1  0  0  0  0
 14  1  2  0  0  0  0
 15 10  1  0  0  0  0
 16 15  2  0  0  0  0
 17 15  1  0  0  0  0
 18  1  1  0  0  0  0
 18 19  1  0  0  0  0
 19 20  2  0  0  0  0
 21 19  1  0  0  0  0
 22 31  1  0  0  0  0
 23 30  1  0  0  0  0
 24 32  1  6  0  0  0
 24 25  1  0  0  0  0
 25 26  1  0  0  0  0
 26 22  2  0  0  0  0
 27 28  1  0  0  0  0
 28 26  1  0  0  0  0
 28 23  2  0  0  0  0
 29 24  1  0  0  0  0
 29 27  1  0  0  0  0
 30 21  1  0  0  0  0
 31 30  2  0  0  0  0
 33 32  1  0  0  0  0
 34 32  2  0  0  0  0
M  END
>  <MODEL>
7

>  <REMARK>
 VINA RESULT:      -9.3      2.698      6.357
  Name = 
  6 active torsions:
  status: ('A' for Active; 'I' for Inactive)
    1  A    between atoms: C_1  and  C_9
    2  A    between atoms: C_3  and  C_25
    3  A    between atoms: C_7  and  C_11
    4  A    between atoms: C_8  and  C_9
    5  A    between atoms: C_8  and  O_18
    6  A    between atoms: O_18  and  C_30
                            x       y       z     vdW  Elec       q    Type
                         _______ _______ _______ _____ _____    ______ ____

>  <TORSDO>
F 6

$$$$
=
 OpenBabel10272415213D

 34 38  0  0  1  0  0  0  0  0999 V2000
  183.7700  178.5230  142.0010 C   0  0  0  0  0  0  0  0  0  0  0  0
  185.3190  178.4990  138.6240 C   0  0  0  0  0  2  0  0  0  0  0  0
  183.2270  179.2090  139.3020 C   0  0  0  0  0  3  0  0  0  0  0  0
  181.3890  179.0710  142.3070 N   0  0  0  0  0  0  0  0  0  0  0  0
  180.4850  179.5230  141.3960 C   0  0  0  0  0  3  0  0  0  0  0  0
  182.2600  179.2840  140.2920 C   0  0  0  0  0  0  0  0  0  0  0  0
  182.5060  178.9270  141.5740 C   0  0  0  0  0  0  0  0  0  0  0  0
  181.0110  179.6490  140.1880 O   0  0  0  0  0  0  0  0  0  0  0  0
  186.5970  177.7310  138.6870 C   0  0  0  0  0  2  0  0  0  0  0  0
  187.6170  178.3750  139.5530 C   0  0  0  0  0  0  0  0  0  0  0  0
  187.3780  178.5830  140.8470 C   0  0  0  0  0  3  0  0  0  0  0  0
  184.5150  178.7660  139.6570 C   0  0  0  0  0  0  0  0  0  0  0  0
  186.0840  178.4240  141.5340 C   0  0  0  0  0  2  0  0  0  0  0  0
  184.8300  178.5100  141.0430 C   0  0  0  0  0  0  0  0  0  0  0  0
  188.9630  178.6180  139.0080 C   0  0  0  0  0  0  0  0  0  0  0  0
  189.1370  179.5050  137.9530 O   0  0  0  0  0  0  0  0  0  0  0  0
  189.9690  178.0270  139.4890 O   0  0  0  0  0  1  0  0  0  0  0  0
  183.9760  178.1620  143.4470 C   0  0  0  0  0  2  0  0  0  0  0  0
  184.2440  179.3900  144.2460 C   0  0  0  0  0  0  0  0  0  0  0  0
  184.0610  180.5210  143.7200 O   0  0  0  0  0  0  0  0  0  0  0  0
  184.6760  179.2570  145.5720 O   0  0  0  0  0  0  0  0  0  0  0  0
  187.3380  178.0310  147.8210 C   0  0  0  0  0  3  0  0  0  0  0  0
  186.8880  178.3060  145.0790 C   0  0  0  0  0  3  0  0  0  0  0  0
  190.7230  177.0530  146.4230 C   0  0  2  0  0  3  0  0  0  0  0  0
  189.5920  177.0250  147.4480 C   0  0  0  0  0  2  0  0  0  0  0  0
  188.3320  177.6490  146.9170 C   0  0  0  0  0  0  0  0  0  0  0  0
  189.1580  177.4340  144.5200 C   0  0  0  0  0  2  0  0  0  0  0  0
  188.0950  177.7660  145.5300 C   0  0  0  0  0  0  0  0  0  0  0  0
  190.2270  176.5060  145.0900 C   0  0  0  0  0  2  0  0  0  0  0  0
  185.8930  178.6990  145.9880 C   0  0  0  0  0  0  0  0  0  0  0  0
  186.1300  178.5590  147.3590 C   0  0  0  0  0  3  0  0  0  0  0  0
  191.8840  176.2550  146.9140 C   0  0  0  0  0  0  0  0  0  0  0  0
  192.3210  175.2990  146.2200 O   0  0  0  0  0  0  0  0  0  0  0  0
  192.4830  176.5560  148.1320 O   0  0  0  0  0  1  0  0  0  0  0  0
  1 18  1  0  0  0  0
  2  9  1  0  0  0  0
  2 12  1  0  0  0  0
  3 12  2  0  0  0  0
  3  6  1  0  0  0  0
  5  4  2  0  0  0  0
  6  7  2  0  0  0  0
  7  1  1  0  0  0  0
  7  4  1  0  0  0  0
  8  6  1  0  0  0  0
  8  5  1  0  0  0  0
  9 10  1  0  0  0  0
 10 11  2  0  0  0  0
 11 13  1  0  0  0  0
 12 14  1  0  0  0  0
 14 13  1  0  0  0  0
 14  1  2  0  0  0  0
 15 17  1  0  0  0  0
 15 10  1  0  0  0  0
 16 15  2  0  0  0  0
 18 19  1  0  0  0  0
 19 21  1  0  0  0  0
 20 19  2  0  0  0  0
 21 30  1  0  0  0  0
 23 28  2  0  0  0  0
 23 30  1  0  0  0  0
 24 32  1  1  0  0  0
 24 25  1  0  0  0  0
 26 25  1  0  0  0  0
 26 22  2  0  0  0  0
 27 29  1  0  0  0  0
 27 28  1  0  0  0  0
 28 26  1  0  0  0  0
 29 24  1  0  0  0  0
 30 31  2  0  0  0  0
 31 22  1  0  0  0  0
 32 34  1  0  0  0  0
 33 32  2  0  0  0  0
M  END
>  <MODEL>
8

>  <REMARK>
 VINA RESULT:      -9.3      2.429      6.753
  Name = 
  6 active torsions:
  status: ('A' for Active; 'I' for Inactive)
    1  A    between atoms: C_1  and  C_9
    2  A    between atoms: C_3  and  C_25
    3  A    between atoms: C_7  and  C_11
    4  A    between atoms: C_8  and  C_9
    5  A    between atoms: C_8  and  O_18
    6  A    between atoms: O_18  and  C_30
                            x       y       z     vdW  Elec       q    Type
                         _______ _______ _______ _____ _____    ______ ____

>  <TORSDO>
F 6

$$$$
=
 OpenBabel10272415213D

 34 38  0  0  1  0  0  0  0  0999 V2000
  188.5280  178.0240  138.5760 C   0  0  0  0  0  0  0  0  0  0  0  0
  184.8310  178.3710  138.6530 C   0  0  0  0  0  2  0  0  0  0  0  0
  186.2040  177.3640  137.0900 C   0  0  0  0  0  3  0  0  0  0  0  0
  189.6860  177.1500  136.5860 N   0  0  0  0  0  0  0  0  0  0  0  0
  189.1610  176.6120  135.4520 C   0  0  0  0  0  3  0  0  0  0  0  0
  187.4800  177.1260  136.6080 C   0  0  0  0  0  0  0  0  0  0  0  0
  188.5920  177.4690  137.2990 C   0  0  0  0  0  0  0  0  0  0  0  0
  187.8380  176.5990  135.4680 O   0  0  0  0  0  0  0  0  0  0  0  0
  184.4580  179.3020  139.7580 C   0  0  0  0  0  2  0  0  0  0  0  0
  184.8040  178.7720  141.1020 C   0  0  0  0  0  0  0  0  0  0  0  0
  186.0670  178.4890  141.4180 C   0  0  0  0  0  3  0  0  0  0  0  0
  186.0680  177.9630  138.3560 C   0  0  0  0  0  0  0  0  0  0  0  0
  187.2120  178.4490  140.4910 C   0  0  0  0  0  2  0  0  0  0  0  0
  187.2400  178.2120  139.1630 C   0  0  0  0  0  0  0  0  0  0  0  0
  183.7620  178.7300  142.1420 C   0  0  0  0  0  0  0  0  0  0  0  0
  184.1190  178.6670  143.4820 O   0  0  0  0  0  1  0  0  0  0  0  0
  182.5400  178.7490  141.8290 O   0  0  0  0  0  0  0  0  0  0  0  0
  189.8070  178.3600  139.2950 C   0  0  0  0  0  2  0  0  0  0  0  0
  190.5710  177.1140  139.5840 C   0  0  0  0  0  0  0  0  0  0  0  0
  191.6100  176.8590  138.9180 O   0  0  0  0  0  0  0  0  0  0  0  0
  190.1260  176.2640  140.6050 O   0  0  0  0  0  0  0  0  0  0  0  0
  191.1930  177.0910  144.0440 C   0  0  0  0  0  3  0  0  0  0  0  0
  188.8130  176.6890  142.6390 C   0  0  0  0  0  3  0  0  0  0  0  0
  188.6540  177.2230  146.8560 C   0  0  2  0  0  3  0  0  0  0  0  0
  189.9720  177.5710  146.1680 C   0  0  0  0  0  2  0  0  0  0  0  0
  189.9720  177.1820  144.7160 C   0  0  0  0  0  0  0  0  0  0  0  0
  187.4320  177.0190  144.6910 C   0  0  0  0  0  2  0  0  0  0  0  0
  188.7670  177.0010  144.0010 C   0  0  0  0  0  0  0  0  0  0  0  0
  187.4850  177.7480  146.0310 C   0  0  0  0  0  2  0  0  0  0  0  0
  190.0410  176.5900  141.9660 C   0  0  0  0  0  0  0  0  0  0  0  0
  191.2260  176.7900  142.6800 C   0  0  0  0  0  3  0  0  0  0  0  0
  188.6220  177.7990  148.2300 C   0  0  0  0  0  0  0  0  0  0  0  0
  187.5400  177.8140  148.8750 O   0  0  0  0  0  1  0  0  0  0  0  0
  189.7750  178.3220  148.8040 O   0  0  0  0  0  0  0  0  0  0  0  0
  1 14  1  0  0  0  0
  1 18  1  0  0  0  0
  2  9  1  0  0  0  0
  3 12  1  0  0  0  0
  4  7  1  0  0  0  0
  5  8  1  0  0  0  0
  5  4  2  0  0  0  0
  6  3  2  0  0  0  0
  6  7  1  0  0  0  0
  7  1  2  0  0  0  0
  8  6  1  0  0  0  0
  9 10  1  0  0  0  0
 10 11  2  0  0  0  0
 10 15  1  0  0  0  0
 12  2  1  0  0  0  0
 12 14  2  0  0  0  0
 13 11  1  0  0  0  0
 14 13  1  0  0  0  0
 15 16  1  0  0  0  0
 17 15  2  0  0  0  0
 18 19  1  0  0  0  0
 19 21  1  0  0  0  0
 20 19  2  0  0  0  0
 21 30  1  0  0  0  0
 22 26  1  0  0  0  0
 23 28  1  0  0  0  0
 24 32  1  1  0  0  0
 25 24  1  0  0  0  0
 26 25  1  0  0  0  0
 27 29  1  0  0  0  0
 28 27  1  0  0  0  0
 28 26  2  0  0  0  0
 29 24  1  0  0  0  0
 30 23  2  0  0  0  0
 30 31  1  0  0  0  0
 31 22  2  0  0  0  0
 32 34  2  0  0  0  0
 32 33  1  0  0  0  0
M  END
>  <MODEL>
9

>  <REMARK>
 VINA RESULT:      -9.0      2.744      7.992
  Name = 
  6 active torsions:
  status: ('A' for Active; 'I' for Inactive)
    1  A    between atoms: C_1  and  C_9
    2  A    between atoms: C_3  and  C_25
    3  A    between atoms: C_7  and  C_11
    4  A    between atoms: C_8  and  C_9
    5  A    between atoms: C_8  and  O_18
    6  A    between atoms: O_18  and  C_30
                            x       y       z     vdW  Elec       q    Type
                         _______ _______ _______ _____ _____    ______ ____

>  <TORSDO>
F 6

$$$$
