=
 OpenBabel10272414413D

 43 47  0  0  1  0  0  0  0  0999 V2000
  189.6540  177.3610  138.4810 N   0  0  0  0  0  0  0  0  0  0  0  0
  188.9150  177.6060  139.6890 C   0  0  0  0  0  0  0  0  0  0  0  0
  187.9280  178.3910  139.6780 O   0  0  0  0  0  0  0  0  0  0  0  0
  194.1230  175.6860  136.1850 C   0  0  0  0  0  0  0  0  0  0  0  0
  191.5910  175.6760  136.3350 C   0  0  1  0  0  3  0  0  0  0  0  0
  194.2290  176.2530  137.3470 N   0  0  0  0  0  0  0  0  0  0  0  0
  195.3250  175.5430  135.3210 C   0  0  0  0  0  1  0  0  0  0  0  0
  191.7890  176.6230  137.5090 C   0  0  2  0  0  3  0  0  0  0  0  0
  192.8440  175.2600  135.7010 N   0  0  0  0  0  2  0  0  0  0  0  0
  193.0940  176.3340  138.2580 C   0  0  0  0  0  2  0  0  0  0  0  0
  190.6390  176.2790  138.4380 C   0  0  2  0  0  3  0  0  0  0  0  0
  190.0190  175.0270  137.9990 N   0  0  0  0  0  2  0  0  0  0  0  0
  190.8560  174.5020  136.9250 C   0  0  0  0  0  2  0  0  0  0  0  0
  189.2700  176.9040  140.9620 C   0  0  0  0  0  2  0  0  0  0  0  0
  190.5110  178.3170  143.8070 C   0  0  1  0  0  3  0  0  0  0  0  0
  189.6750  177.8690  145.0150 C   0  0  2  0  0  3  0  0  0  0  0  0
  190.6070  176.6930  145.9770 Cl  0  0  0  0  0  0  0  0  0  0  0  0
  188.3740  176.5980  143.2590 C   0  0  0  0  0  2  0  0  0  0  0  0
  189.6280  178.7530  142.6380 C   0  0  0  0  0  2  0  0  0  0  0  0
  188.6880  177.6270  142.1680 C   0  0  1  0  0  3  0  0  0  0  0  0
  191.4240  179.4550  144.2150 C   0  0  0  0  0  1  0  0  0  0  0  0
  188.3180  177.2610  144.6320 C   0  0  0  0  0  2  0  0  0  0  0  0
  189.3460  178.1330  137.2770 C   0  0  0  0  0  2  0  0  0  0  0  0
  188.3470  177.4060  136.3760 C   0  0  0  0  0  2  0  0  0  0  0  0
  187.0280  177.7900  136.6510 O   0  0  0  0  0  0  0  0  0  0  0  0
  186.3610  176.6210  137.0350 C   0  0  0  0  0  2  0  0  0  0  0  0
  184.9000  176.6700  136.6080 C   0  0  0  0  0  2  0  0  0  0  0  0
  183.2160  176.6360  138.5200 N   0  0  0  0  0  2  0  0  0  0  0  0
  184.0150  175.9310  137.5630 C   0  0  0  0  0  0  0  0  0  0  0  0
  184.0200  174.6740  137.5690 O   0  0  0  0  0  0  0  0  0  0  0  0
  182.7370  177.9790  138.3610 C   0  0  0  0  0  0  0  0  0  0  0  0
  182.8550  180.3400  138.9280 C   0  0  0  0  0  3  0  0  0  0  0  0
  181.6140  178.2450  137.5610 C   0  0  0  0  0  3  0  0  0  0  0  0
  181.1200  179.5450  137.4420 C   0  0  0  0  0  3  0  0  0  0  0  0
  183.3530  179.0370  139.0540 C   0  0  0  0  0  0  0  0  0  0  0  0
  181.7390  180.5920  138.1260 C   0  0  0  0  0  3  0  0  0  0  0  0
  184.6000  178.8120  139.8500 C   0  0  0  0  0  2  0  0  0  0  0  0
  184.2940  178.8430  141.3120 C   0  0  0  0  0  0  0  0  0  0  0  0
  183.7330  178.8430  144.0560 C   0  0  0  0  0  3  0  0  0  0  0  0
  182.6940  178.7030  143.1300 C   0  0  0  0  0  3  0  0  0  0  0  0
  185.0530  178.9850  143.6120 C   0  0  0  0  0  3  0  0  0  0  0  0
  182.9740  178.7060  141.7600 C   0  0  0  0  0  3  0  0  0  0  0  0
  185.3330  178.9830  142.2410 C   0  0  0  0  0  3  0  0  0  0  0  0
  1  2  1  0  0  0  0
  2 14  1  0  0  0  0
  3  2  2  0  0  0  0
  4  6  2  0  0  0  0
  5 13  1  1  0  0  0
  5  8  1  0  0  0  0
  6 10  1  0  0  0  0
  7  4  1  0  0  0  0
  8 10  1  1  0  0  0
  8 11  1  0  0  0  0
  9  4  1  0  0  0  0
  9  5  1  0  0  0  0
 11  1  1  6  0  0  0
 12 11  1  0  0  0  0
 13 12  1  0  0  0  0
 15 21  1  1  0  0  0
 15 16  1  0  0  0  0
 16 17  1  6  0  0  0
 18 22  1  0  0  0  0
 19 15  1  0  0  0  0
 20 14  1  6  0  0  0
 20 19  1  0  0  0  0
 20 18  1  0  0  0  0
 22 16  1  0  0  0  0
 23  1  1  0  0  0  0
 24 25  1  0  0  0  0
 24 23  1  0  0  0  0
 25 26  1  0  0  0  0
 27 26  1  0  0  0  0
 27 29  1  0  0  0  0
 29 30  2  0  0  0  0
 29 28  1  0  0  0  0
 31 28  1  0  0  0  0
 31 35  1  0  0  0  0
 32 35  2  0  0  0  0
 33 31  2  0  0  0  0
 34 33  1  0  0  0  0
 34 36  2  0  0  0  0
 35 37  1  0  0  0  0
 36 32  1  0  0  0  0
 37 38  1  0  0  0  0
 38 42  2  0  0  0  0
 38 43  1  0  0  0  0
 40 39  2  0  0  0  0
 41 39  1  0  0  0  0
 42 40  1  0  0  0  0
 43 41  2  0  0  0  0
M  END
>  <MODEL>
1

>  <REMARK>
 VINA RESULT:      -8.2      0.000      0.000
  Name = 
  12 active torsions:
  status: ('A' for Active; 'I' for Inactive)
    1  A    between atoms: C_1  and  C_34
    2  A    between atoms: C_1  and  C_35
    3  A    between atoms: O_2  and  C_7
    4  A    between atoms: O_2  and  C_13
    5  A    between atoms: N_3  and  C_4
    6  A    between atoms: C_6  and  C_7
    7  A    between atoms: C_6  and  C_12
    8  A    between atoms: N_8  and  C_27
    9  A    between atoms: N_8  and  C_30
   10  A    between atoms: C_11  and  C_14
   11  A    between atoms: C_13  and  C_27
   12  A    between atoms: C_14  and  C_41
                            x       y       z     vdW  Elec       q    Type
                         _______ _______ _______ _____ _____    ______ ____

>  <TORSDO>
F 12

$$$$
=
 OpenBabel10272414413D

 43 47  0  0  1  0  0  0  0  0999 V2000
  188.1240  177.8510  138.8270 N   0  0  0  0  0  0  0  0  0  0  0  0
  186.8490  178.3580  139.2530 C   0  0  0  0  0  0  0  0  0  0  0  0
  186.7530  178.9930  140.3380 O   0  0  0  0  0  0  0  0  0  0  0  0
  188.3410  173.4420  135.9000 C   0  0  0  0  0  0  0  0  0  0  0  0
  189.5150  175.3100  137.1510 C   0  0  1  0  0  3  0  0  0  0  0  0
  187.2090  174.0750  135.9370 N   0  0  0  0  0  0  0  0  0  0  0  0
  188.3820  172.0290  135.4350 C   0  0  0  0  0  1  0  0  0  0  0  0
  188.1110  175.8200  137.4390 C   0  0  2  0  0  3  0  0  0  0  0  0
  189.5380  174.0710  136.3700 N   0  0  0  0  0  2  0  0  0  0  0  0
  187.1400  175.4840  136.3030 C   0  0  0  0  0  2  0  0  0  0  0  0
  188.2820  177.3270  137.4680 C   0  0  2  0  0  3  0  0  0  0  0  0
  189.5960  177.6770  136.9250 N   0  0  0  0  0  2  0  0  0  0  0  0
  190.1750  176.4410  136.4090 C   0  0  0  0  0  2  0  0  0  0  0  0
  185.6300  178.1850  138.4020 C   0  0  0  0  0  2  0  0  0  0  0  0
  182.3000  177.6430  137.9070 C   0  0  1  0  0  3  0  0  0  0  0  0
  181.5000  178.8660  138.3800 C   0  0  2  0  0  3  0  0  0  0  0  0
  180.8950  179.7630  136.9640 Cl  0  0  0  0  0  0  0  0  0  0  0  0
  183.7930  179.7610  138.9610 C   0  0  0  0  0  2  0  0  0  0  0  0
  183.3580  177.2280  138.9280 C   0  0  0  0  0  2  0  0  0  0  0  0
  184.3600  178.3610  139.2200 C   0  0  1  0  0  3  0  0  0  0  0  0
  181.3550  176.4880  137.6460 C   0  0  0  0  0  1  0  0  0  0  0  0
  182.3020  179.8130  139.2850 C   0  0  0  0  0  2  0  0  0  0  0  0
  189.2770  177.9500  139.7230 C   0  0  0  0  0  2  0  0  0  0  0  0
  189.1550  176.9970  140.9120 C   0  0  0  0  0  2  0  0  0  0  0  0
  190.4040  176.7150  141.4800 O   0  0  0  0  0  0  0  0  0  0  0  0
  190.1480  175.8790  142.5720 C   0  0  0  0  0  2  0  0  0  0  0  0
  190.8990  176.3610  143.8070 C   0  0  0  0  0  2  0  0  0  0  0  0
  189.9510  178.6090  144.5420 N   0  0  0  0  0  2  0  0  0  0  0  0
  190.9670  177.8560  143.8700 C   0  0  0  0  0  0  0  0  0  0  0  0
  191.8910  178.4620  143.2710 O   0  0  0  0  0  0  0  0  0  0  0  0
  189.1410  178.1170  145.6200 C   0  0  0  0  0  0  0  0  0  0  0  0
  187.0010  177.3230  146.4550 C   0  0  0  0  0  3  0  0  0  0  0  0
  189.6570  178.0430  146.9230 C   0  0  0  0  0  3  0  0  0  0  0  0
  188.8560  177.6070  147.9810 C   0  0  0  0  0  3  0  0  0  0  0  0
  187.7990  177.7610  145.3910 C   0  0  0  0  0  0  0  0  0  0  0  0
  187.5270  177.2490  147.7470 C   0  0  0  0  0  3  0  0  0  0  0  0
  187.2330  177.7480  144.0070 C   0  0  0  0  0  2  0  0  0  0  0  0
  185.8040  178.1830  144.0260 C   0  0  0  0  0  0  0  0  0  0  0  0
  183.1420  179.0510  144.0410 C   0  0  0  0  0  3  0  0  0  0  0  0
  183.9070  179.1220  145.2100 C   0  0  0  0  0  3  0  0  0  0  0  0
  183.7050  178.5440  142.8650 C   0  0  0  0  0  3  0  0  0  0  0  0
  185.2350  178.6870  145.2030 C   0  0  0  0  0  3  0  0  0  0  0  0
  185.0360  178.1120  142.8570 C   0  0  0  0  0  3  0  0  0  0  0  0
  1  2  1  0  0  0  0
  1 23  1  0  0  0  0
  2  3  2  0  0  0  0
  4  6  2  0  0  0  0
  4  9  1  0  0  0  0
  5 13  1  6  0  0  0
  5  8  1  0  0  0  0
  6 10  1  0  0  0  0
  7  4  1  0  0  0  0
  8 10  1  6  0  0  0
  8 11  1  0  0  0  0
  9  5  1  0  0  0  0
 11  1  1  1  0  0  0
 12 11  1  0  0  0  0
 13 12  1  0  0  0  0
 14  2  1  0  0  0  0
 15 21  1  1  0  0  0
 15 16  1  0  0  0  0
 15 19  1  0  0  0  0
 16 17  1  6  0  0  0
 16 22  1  0  0  0  0
 18 20  1  0  0  0  0
 18 22  1  0  0  0  0
 19 20  1  0  0  0  0
 20 14  1  6  0  0  0
 23 24  1  0  0  0  0
 24 25  1  0  0  0  0
 25 26  1  0  0  0  0
 26 27  1  0  0  0  0
 27 29  1  0  0  0  0
 28 31  1  0  0  0  0
 29 28  1  0  0  0  0
 30 29  2  0  0  0  0
 31 33  1  0  0  0  0
 32 36  2  0  0  0  0
 33 34  2  0  0  0  0
 35 31  2  0  0  0  0
 35 32  1  0  0  0  0
 36 34  1  0  0  0  0
 37 38  1  0  0  0  0
 37 35  1  0  0  0  0
 38 42  1  0  0  0  0
 39 40  1  0  0  0  0
 41 39  2  0  0  0  0
 42 40  2  0  0  0  0
 43 41  1  0  0  0  0
 43 38  2  0  0  0  0
M  END
>  <MODEL>
2

>  <REMARK>
 VINA RESULT:      -8.0      3.127      7.288
  Name = 
  12 active torsions:
  status: ('A' for Active; 'I' for Inactive)
    1  A    between atoms: C_1  and  C_34
    2  A    between atoms: C_1  and  C_35
    3  A    between atoms: O_2  and  C_7
    4  A    between atoms: O_2  and  C_13
    5  A    between atoms: N_3  and  C_4
    6  A    between atoms: C_6  and  C_7
    7  A    between atoms: C_6  and  C_12
    8  A    between atoms: N_8  and  C_27
    9  A    between atoms: N_8  and  C_30
   10  A    between atoms: C_11  and  C_14
   11  A    between atoms: C_13  and  C_27
   12  A    between atoms: C_14  and  C_41
                            x       y       z     vdW  Elec       q    Type
                         _______ _______ _______ _____ _____    ______ ____

>  <TORSDO>
F 12

$$$$
=
 OpenBabel10272414413D

 43 47  0  0  1  0  0  0  0  0999 V2000
  186.4740  175.5400  136.5520 N   0  0  0  0  0  0  0  0  0  0  0  0
  185.7250  176.7560  136.7050 C   0  0  0  0  0  0  0  0  0  0  0  0
  186.1210  177.6460  137.5060 O   0  0  0  0  0  0  0  0  0  0  0  0
  184.5070  170.7660  135.3710 C   0  0  0  0  0  0  0  0  0  0  0  0
  186.4980  172.2820  135.7880 C   0  0  1  0  0  3  0  0  0  0  0  0
  183.7060  171.7820  135.2640 N   0  0  0  0  0  0  0  0  0  0  0  0
  183.9490  169.3890  135.4350 C   0  0  0  0  0  1  0  0  0  0  0  0
  185.4560  173.3750  135.9790 C   0  0  2  0  0  3  0  0  0  0  0  0
  185.9190  170.9680  135.4980 N   0  0  0  0  0  2  0  0  0  0  0  0
  184.2170  173.1380  135.1110 C   0  0  0  0  0  2  0  0  0  0  0  0
  186.1520  174.6190  135.4590 C   0  0  2  0  0  3  0  0  0  0  0  0
  187.3620  174.2310  134.7330 N   0  0  0  0  0  2  0  0  0  0  0  0
  187.3470  172.7740  134.6470 C   0  0  0  0  0  2  0  0  0  0  0  0
  184.4960  177.0090  135.8890 C   0  0  0  0  0  2  0  0  0  0  0  0
  182.8350  178.5660  138.4280 C   0  0  1  0  0  3  0  0  0  0  0  0
  182.4600  177.5410  139.5090 C   0  0  2  0  0  3  0  0  0  0  0  0
  183.5080  177.7700  140.9320 Cl  0  0  0  0  0  0  0  0  0  0  0  0
  183.6050  175.9220  137.9380 C   0  0  0  0  0  2  0  0  0  0  0  0
  182.5050  178.0580  137.0260 C   0  0  0  0  0  2  0  0  0  0  0  0
  183.2350  176.7420  136.6980 C   0  0  1  0  0  3  0  0  0  0  0  0
  182.1050  179.8680  138.6890 C   0  0  0  0  0  1  0  0  0  0  0  0
  182.5520  176.0840  139.0310 C   0  0  0  0  0  2  0  0  0  0  0  0
  187.6140  175.2790  137.4310 C   0  0  0  0  0  2  0  0  0  0  0  0
  188.8060  176.1770  137.0970 C   0  0  0  0  0  2  0  0  0  0  0  0
  189.9140  175.8860  137.9030 O   0  0  0  0  0  0  0  0  0  0  0  0
  190.2980  177.1020  138.4800 C   0  0  0  0  0  2  0  0  0  0  0  0
  190.0240  177.0970  139.9790 C   0  0  0  0  0  2  0  0  0  0  0  0
  188.6710  178.3470  141.7390 N   0  0  0  0  0  2  0  0  0  0  0  0
  189.0250  178.1430  140.3660 C   0  0  0  0  0  0  0  0  0  0  0  0
  188.4420  178.8070  139.4720 O   0  0  0  0  0  0  0  0  0  0  0  0
  189.5170  178.0500  142.8590 C   0  0  0  0  0  0  0  0  0  0  0  0
  189.8580  176.9930  145.0210 C   0  0  0  0  0  3  0  0  0  0  0  0
  190.8030  178.6070  142.9480 C   0  0  0  0  0  3  0  0  0  0  0  0
  191.6100  178.3550  144.0590 C   0  0  0  0  0  3  0  0  0  0  0  0
  189.0430  177.2440  143.9100 C   0  0  0  0  0  0  0  0  0  0  0  0
  191.1370  177.5500  145.0970 C   0  0  0  0  0  3  0  0  0  0  0  0
  187.7130  176.5650  143.8190 C   0  0  0  0  0  2  0  0  0  0  0  0
  186.6600  177.3960  144.4760 C   0  0  0  0  0  0  0  0  0  0  0  0
  184.6540  178.9050  145.7170 C   0  0  0  0  0  3  0  0  0  0  0  0
  184.6850  178.7960  144.3230 C   0  0  0  0  0  3  0  0  0  0  0  0
  185.6260  178.2620  146.4920 C   0  0  0  0  0  3  0  0  0  0  0  0
  185.6890  178.0450  143.7030 C   0  0  0  0  0  3  0  0  0  0  0  0
  186.6270  177.5070  145.8720 C   0  0  0  0  0  3  0  0  0  0  0  0
  1  2  1  0  0  0  0
  1 23  1  0  0  0  0
  2  3  2  0  0  0  0
  4  7  1  0  0  0  0
  4  9  1  0  0  0  0
  5 13  1  6  0  0  0
  5  8  1  0  0  0  0
  6  4  2  0  0  0  0
  8 10  1  6  0  0  0
  9  5  1  0  0  0  0
 10  6  1  0  0  0  0
 11  8  1  0  0  0  0
 11  1  1  1  0  0  0
 12 11  1  0  0  0  0
 13 12  1  0  0  0  0
 14  2  1  0  0  0  0
 15 21  1  1  0  0  0
 15 16  1  0  0  0  0
 16 17  1  1  0  0  0
 18 22  1  0  0  0  0
 19 15  1  0  0  0  0
 20 14  1  1  0  0  0
 20 19  1  0  0  0  0
 20 18  1  0  0  0  0
 22 16  1  0  0  0  0
 24 23  1  0  0  0  0
 24 25  1  0  0  0  0
 25 26  1  0  0  0  0
 26 27  1  0  0  0  0
 27 29  1  0  0  0  0
 28 31  1  0  0  0  0
 29 28  1  0  0  0  0
 30 29  2  0  0  0  0
 31 33  2  0  0  0  0
 31 35  1  0  0  0  0
 32 36  1  0  0  0  0
 33 34  1  0  0  0  0
 34 36  2  0  0  0  0
 35 32  2  0  0  0  0
 37 35  1  0  0  0  0
 37 38  1  0  0  0  0
 38 43  1  0  0  0  0
 39 41  1  0  0  0  0
 40 39  2  0  0  0  0
 42 40  1  0  0  0  0
 42 38  2  0  0  0  0
 43 41  2  0  0  0  0
M  END
>  <MODEL>
3

>  <REMARK>
 VINA RESULT:      -7.8      3.102      7.475
  Name = 
  12 active torsions:
  status: ('A' for Active; 'I' for Inactive)
    1  A    between atoms: C_1  and  C_34
    2  A    between atoms: C_1  and  C_35
    3  A    between atoms: O_2  and  C_7
    4  A    between atoms: O_2  and  C_13
    5  A    between atoms: N_3  and  C_4
    6  A    between atoms: C_6  and  C_7
    7  A    between atoms: C_6  and  C_12
    8  A    between atoms: N_8  and  C_27
    9  A    between atoms: N_8  and  C_30
   10  A    between atoms: C_11  and  C_14
   11  A    between atoms: C_13  and  C_27
   12  A    between atoms: C_14  and  C_41
                            x       y       z     vdW  Elec       q    Type
                         _______ _______ _______ _____ _____    ______ ____

>  <TORSDO>
F 12

$$$$
=
 OpenBabel10272414413D

 43 47  0  0  1  0  0  0  0  0999 V2000
  191.2690  176.8450  138.4270 N   0  0  0  0  0  0  0  0  0  0  0  0
  192.6920  176.7020  138.5640 C   0  0  0  0  0  0  0  0  0  0  0  0
  193.2620  177.0500  139.6330 O   0  0  0  0  0  0  0  0  0  0  0  0
  186.9450  177.0430  135.3760 C   0  0  0  0  0  0  0  0  0  0  0  0
  188.2020  176.0560  137.3450 C   0  0  1  0  0  3  0  0  0  0  0  0
  188.0230  177.5960  134.9140 N   0  0  0  0  0  0  0  0  0  0  0  0
  185.6260  177.3820  134.7770 C   0  0  0  0  0  1  0  0  0  0  0  0
  189.3240  176.9960  136.9290 C   0  0  2  0  0  3  0  0  0  0  0  0
  187.0090  176.1620  136.5020 N   0  0  0  0  0  2  0  0  0  0  0  0
  189.3410  177.2250  135.4140 C   0  0  0  0  0  2  0  0  0  0  0  0
  190.5810  176.2270  137.2920 C   0  0  2  0  0  3  0  0  0  0  0  0
  190.2300  174.8370  137.5900 N   0  0  0  0  0  2  0  0  0  0  0  0
  188.8170  174.6850  137.2620 C   0  0  0  0  0  2  0  0  0  0  0  0
  193.5120  176.0980  137.4670 C   0  0  0  0  0  2  0  0  0  0  0  0
  196.3260  174.1770  137.3090 C   0  0  1  0  0  3  0  0  0  0  0  0
  195.9980  172.8320  136.6440 C   0  0  2  0  0  3  0  0  0  0  0  0
  196.6780  172.8030  134.9970 Cl  0  0  0  0  0  0  0  0  0  0  0  0
  193.6680  173.8070  136.5190 C   0  0  0  0  0  2  0  0  0  0  0  0
  195.2900  174.5540  138.3670 C   0  0  0  0  0  2  0  0  0  0  0  0
  193.8690  174.6530  137.7800 C   0  0  1  0  0  3  0  0  0  0  0  0
  197.7030  174.1120  137.9360 C   0  0  0  0  0  1  0  0  0  0  0  0
  194.4940  172.5260  136.5850 C   0  0  0  0  0  2  0  0  0  0  0  0
  190.5080  177.5270  139.4750 C   0  0  0  0  0  2  0  0  0  0  0  0
  190.0330  176.5540  140.5550 C   0  0  0  0  0  2  0  0  0  0  0  0
  190.2350  177.0720  141.8410 O   0  0  0  0  0  0  0  0  0  0  0  0
  190.4330  175.9630  142.6730 C   0  0  0  0  0  2  0  0  0  0  0  0
  191.0020  176.3940  144.0180 C   0  0  0  0  0  2  0  0  0  0  0  0
  190.0510  178.6250  144.8020 N   0  0  0  0  0  2  0  0  0  0  0  0
  191.0820  177.8840  144.1390 C   0  0  0  0  0  0  0  0  0  0  0  0
  192.0330  178.5010  143.5950 O   0  0  0  0  0  0  0  0  0  0  0  0
  189.1980  178.1030  145.8320 C   0  0  0  0  0  0  0  0  0  0  0  0
  187.0550  177.1990  146.5370 C   0  0  0  0  0  3  0  0  0  0  0  0
  189.6290  178.0780  147.1680 C   0  0  0  0  0  3  0  0  0  0  0  0
  188.7830  177.6130  148.1780 C   0  0  0  0  0  3  0  0  0  0  0  0
  187.8980  177.6660  145.5210 C   0  0  0  0  0  0  0  0  0  0  0  0
  187.4960  177.1750  147.8620 C   0  0  0  0  0  3  0  0  0  0  0  0
  187.4290  177.6000  144.1020 C   0  0  0  0  0  2  0  0  0  0  0  0
  186.0270  178.1050  143.9940 C   0  0  0  0  0  0  0  0  0  0  0  0
  183.4210  179.1050  143.7750 C   0  0  0  0  0  3  0  0  0  0  0  0
  184.0630  179.0930  145.0180 C   0  0  0  0  0  3  0  0  0  0  0  0
  184.0790  178.6160  142.6420 C   0  0  0  0  0  3  0  0  0  0  0  0
  185.3630  178.5910  145.1270 C   0  0  0  0  0  3  0  0  0  0  0  0
  185.3820  178.1180  142.7500 C   0  0  0  0  0  3  0  0  0  0  0  0
  1  2  1  0  0  0  0
  1 23  1  0  0  0  0
  2  3  2  0  0  0  0
  4  9  1  0  0  0  0
  5 13  1  6  0  0  0
  6  4  2  0  0  0  0
  6 10  1  0  0  0  0
  7  4  1  0  0  0  0
  8 10  1  6  0  0  0
  8 11  1  0  0  0  0
  8  5  1  0  0  0  0
  9  5  1  0  0  0  0
 11 12  1  0  0  0  0
 11  1  1  1  0  0  0
 13 12  1  0  0  0  0
 14  2  1  0  0  0  0
 15 21  1  1  0  0  0
 15 19  1  0  0  0  0
 16 17  1  6  0  0  0
 16 15  1  0  0  0  0
 18 22  1  0  0  0  0
 18 20  1  0  0  0  0
 20 14  1  6  0  0  0
 20 19  1  0  0  0  0
 22 16  1  0  0  0  0
 23 24  1  0  0  0  0
 24 25  1  0  0  0  0
 25 26  1  0  0  0  0
 26 27  1  0  0  0  0
 27 29  1  0  0  0  0
 28 31  1  0  0  0  0
 29 28  1  0  0  0  0
 30 29  2  0  0  0  0
 31 33  1  0  0  0  0
 32 36  2  0  0  0  0
 33 34  2  0  0  0  0
 35 31  2  0  0  0  0
 35 32  1  0  0  0  0
 36 34  1  0  0  0  0
 37 35  1  0  0  0  0
 38 37  1  0  0  0  0
 38 42  1  0  0  0  0
 39 40  1  0  0  0  0
 40 42  2  0  0  0  0
 41 43  1  0  0  0  0
 41 39  2  0  0  0  0
 43 38  2  0  0  0  0
M  END
>  <MODEL>
4

>  <REMARK>
 VINA RESULT:      -7.7      3.559      7.616
  Name = 
  12 active torsions:
  status: ('A' for Active; 'I' for Inactive)
    1  A    between atoms: C_1  and  C_34
    2  A    between atoms: C_1  and  C_35
    3  A    between atoms: O_2  and  C_7
    4  A    between atoms: O_2  and  C_13
    5  A    between atoms: N_3  and  C_4
    6  A    between atoms: C_6  and  C_7
    7  A    between atoms: C_6  and  C_12
    8  A    between atoms: N_8  and  C_27
    9  A    between atoms: N_8  and  C_30
   10  A    between atoms: C_11  and  C_14
   11  A    between atoms: C_13  and  C_27
   12  A    between atoms: C_14  and  C_41
                            x       y       z     vdW  Elec       q    Type
                         _______ _______ _______ _____ _____    ______ ____

>  <TORSDO>
F 12

$$$$
=
 OpenBabel10272414413D

 43 47  0  0  1  0  0  0  0  0999 V2000
  188.1410  177.7320  137.0320 N   0  0  0  0  0  0  0  0  0  0  0  0
  186.7270  177.9800  136.9730 C   0  0  0  0  0  0  0  0  0  0  0  0
  186.2530  179.0520  137.4370 O   0  0  0  0  0  0  0  0  0  0  0  0
  192.1990  174.3360  136.7980 C   0  0  0  0  0  0  0  0  0  0  0  0
  191.0850  176.4870  136.0430 C   0  0  1  0  0  3  0  0  0  0  0  0
  191.1000  173.9120  137.3420 N   0  0  0  0  0  0  0  0  0  0  0  0
  193.4710  173.6030  137.0350 C   0  0  0  0  0  1  0  0  0  0  0  0
  189.9570  176.0740  136.9770 C   0  0  2  0  0  3  0  0  0  0  0  0
  192.2060  175.5440  136.0290 N   0  0  0  0  0  2  0  0  0  0  0  0
  189.8200  174.5510  137.0640 C   0  0  0  0  0  2  0  0  0  0  0  0
  188.7150  176.6090  136.2880 C   0  0  2  0  0  3  0  0  0  0  0  0
  189.0540  177.0100  134.9210 N   0  0  0  0  0  2  0  0  0  0  0  0
  190.4310  176.5850  134.6910 C   0  0  0  0  0  2  0  0  0  0  0  0
  185.8030  176.9990  136.3220 C   0  0  0  0  0  2  0  0  0  0  0  0
  184.5440  173.8290  136.3050 C   0  0  1  0  0  3  0  0  0  0  0  0
  183.1990  173.8020  137.0460 C   0  0  2  0  0  3  0  0  0  0  0  0
  181.8750  173.6290  135.8650 Cl  0  0  0  0  0  0  0  0  0  0  0  0
  183.6650  176.2680  137.3560 C   0  0  0  0  0  2  0  0  0  0  0  0
  185.6050  174.6050  137.0850 C   0  0  0  0  0  2  0  0  0  0  0  0
  185.1830  176.0630  137.3480 C   0  0  1  0  0  3  0  0  0  0  0  0
  185.0190  172.4110  136.0610 C   0  0  0  0  0  1  0  0  0  0  0  0
  182.9530  175.0410  137.9190 C   0  0  0  0  0  2  0  0  0  0  0  0
  189.0070  178.6610  137.7600 C   0  0  0  0  0  2  0  0  0  0  0  0
  189.1290  178.2840  139.2370 C   0  0  0  0  0  2  0  0  0  0  0  0
  188.3830  179.1430  140.0530 O   0  0  0  0  0  0  0  0  0  0  0  0
  187.3300  178.3720  140.5590 C   0  0  0  0  0  2  0  0  0  0  0  0
  186.5250  179.1640  141.5820 C   0  0  0  0  0  2  0  0  0  0  0  0
  184.9410  177.8230  143.0610 N   0  0  0  0  0  2  0  0  0  0  0  0
  185.1900  178.5390  141.8460 C   0  0  0  0  0  0  0  0  0  0  0  0
  184.2960  178.5880  140.9630 O   0  0  0  0  0  0  0  0  0  0  0  0
  185.6180  178.0550  144.3050 C   0  0  0  0  0  0  0  0  0  0  0  0
  187.4520  177.5750  145.8270 C   0  0  0  0  0  3  0  0  0  0  0  0
  185.0640  178.9110  145.2690 C   0  0  0  0  0  3  0  0  0  0  0  0
  185.7000  179.1010  146.4980 C   0  0  0  0  0  3  0  0  0  0  0  0
  186.8180  177.3780  144.5940 C   0  0  0  0  0  0  0  0  0  0  0  0
  186.8920  178.4320  146.7770 C   0  0  0  0  0  3  0  0  0  0  0  0
  187.4840  176.5220  143.5640 C   0  0  0  0  0  2  0  0  0  0  0  0
  188.9460  176.8250  143.5040 C   0  0  0  0  0  0  0  0  0  0  0  0
  191.6800  177.4040  143.3310 C   0  0  0  0  0  3  0  0  0  0  0  0
  191.2440  176.0750  143.3090 C   0  0  0  0  0  3  0  0  0  0  0  0
  190.7510  178.4440  143.4420 C   0  0  0  0  0  3  0  0  0  0  0  0
  189.8790  175.7870  143.3980 C   0  0  0  0  0  3  0  0  0  0  0  0
  189.3840  178.1560  143.5260 C   0  0  0  0  0  3  0  0  0  0  0  0
  1 23  1  0  0  0  0
  2  1  1  0  0  0  0
  2  3  2  0  0  0  0
  4  7  1  0  0  0  0
  4  6  2  0  0  0  0
  5 13  1  6  0  0  0
  5  8  1  0  0  0  0
  8 10  1  6  0  0  0
  9  5  1  0  0  0  0
  9  4  1  0  0  0  0
 10  6  1  0  0  0  0
 11  8  1  0  0  0  0
 11  1  1  1  0  0  0
 12 11  1  0  0  0  0
 13 12  1  0  0  0  0
 14  2  1  0  0  0  0
 15 21  1  1  0  0  0
 15 16  1  0  0  0  0
 15 19  1  0  0  0  0
 16 17  1  6  0  0  0
 16 22  1  0  0  0  0
 18 22  1  0  0  0  0
 19 20  1  0  0  0  0
 20 14  1  6  0  0  0
 20 18  1  0  0  0  0
 23 24  1  0  0  0  0
 24 25  1  0  0  0  0
 25 26  1  0  0  0  0
 26 27  1  0  0  0  0
 27 29  1  0  0  0  0
 28 31  1  0  0  0  0
 29 28  1  0  0  0  0
 30 29  2  0  0  0  0
 31 35  2  0  0  0  0
 31 33  1  0  0  0  0
 32 36  2  0  0  0  0
 33 34  2  0  0  0  0
 34 36  1  0  0  0  0
 35 32  1  0  0  0  0
 37 35  1  0  0  0  0
 38 43  1  0  0  0  0
 38 37  1  0  0  0  0
 39 41  1  0  0  0  0
 40 39  2  0  0  0  0
 40 42  1  0  0  0  0
 41 43  2  0  0  0  0
 42 38  2  0  0  0  0
M  END
>  <MODEL>
5

>  <REMARK>
 VINA RESULT:      -7.6      3.087      6.603
  Name = 
  12 active torsions:
  status: ('A' for Active; 'I' for Inactive)
    1  A    between atoms: C_1  and  C_34
    2  A    between atoms: C_1  and  C_35
    3  A    between atoms: O_2  and  C_7
    4  A    between atoms: O_2  and  C_13
    5  A    between atoms: N_3  and  C_4
    6  A    between atoms: C_6  and  C_7
    7  A    between atoms: C_6  and  C_12
    8  A    between atoms: N_8  and  C_27
    9  A    between atoms: N_8  and  C_30
   10  A    between atoms: C_11  and  C_14
   11  A    between atoms: C_13  and  C_27
   12  A    between atoms: C_14  and  C_41
                            x       y       z     vdW  Elec       q    Type
                         _______ _______ _______ _____ _____    ______ ____

>  <TORSDO>
F 12

$$$$
=
 OpenBabel10272414413D

 43 47  0  0  1  0  0  0  0  0999 V2000
  189.3830  177.3550  142.2010 N   0  0  0  0  0  0  0  0  0  0  0  0
  188.0590  177.8030  141.8690 C   0  0  0  0  0  0  0  0  0  0  0  0
  187.8510  178.4120  140.7850 O   0  0  0  0  0  0  0  0  0  0  0  0
  191.1200  177.0010  147.1920 C   0  0  0  0  0  0  0  0  0  0  0  0
  191.5170  176.7270  144.7010 C   0  0  1  0  0  3  0  0  0  0  0  0
  189.8400  177.1160  147.0150 N   0  0  0  0  0  0  0  0  0  0  0  0
  191.7090  177.2800  148.5290 C   0  0  0  0  0  1  0  0  0  0  0  0
  190.0770  177.1980  144.5550 C   0  0  2  0  0  3  0  0  0  0  0  0
  191.9760  176.6740  146.0920 N   0  0  0  0  0  2  0  0  0  0  0  0
  189.2140  176.7680  145.7450 C   0  0  0  0  0  2  0  0  0  0  0  0
  189.5830  176.4470  143.3330 C   0  0  2  0  0  3  0  0  0  0  0  0
  190.5390  175.3920  142.9920 N   0  0  0  0  0  2  0  0  0  0  0  0
  191.5260  175.3630  144.0660 C   0  0  0  0  0  2  0  0  0  0  0  0
  186.9030  177.5160  142.7740 C   0  0  0  0  0  2  0  0  0  0  0  0
  184.8440  178.3760  145.3540 C   0  0  1  0  0  3  0  0  0  0  0  0
  183.7320  179.3050  144.8420 C   0  0  2  0  0  3  0  0  0  0  0  0
  182.1930  178.4080  144.7780 Cl  0  0  0  0  0  0  0  0  0  0  0  0
  184.9160  179.0010  142.6280 C   0  0  0  0  0  2  0  0  0  0  0  0
  186.2180  178.7980  144.8340 C   0  0  0  0  0  2  0  0  0  0  0  0
  186.2810  178.8040  143.2950 C   0  0  1  0  0  3  0  0  0  0  0  0
  184.8450  178.3710  146.8690 C   0  0  0  0  0  1  0  0  0  0  0  0
  184.0290  179.9180  143.4660 C   0  0  0  0  0  2  0  0  0  0  0  0
  190.5090  177.7330  141.3460 C   0  0  0  0  0  2  0  0  0  0  0  0
  190.6740  176.7740  140.1670 C   0  0  0  0  0  2  0  0  0  0  0  0
  190.5130  177.4300  138.9400 O   0  0  0  0  0  0  0  0  0  0  0  0
  189.8960  176.5060  138.0890 C   0  0  0  0  0  2  0  0  0  0  0  0
  188.4160  176.8270  137.9260 C   0  0  0  0  0  2  0  0  0  0  0  0
  187.3280  175.9540  135.7940 N   0  0  0  0  0  2  0  0  0  0  0  0
  188.0360  176.9880  136.4860 C   0  0  0  0  0  0  0  0  0  0  0  0
  188.3990  178.0150  135.8590 O   0  0  0  0  0  0  0  0  0  0  0  0
  186.4640  174.9910  136.4160 C   0  0  0  0  0  0  0  0  0  0  0  0
  184.2760  174.3620  137.2670 C   0  0  0  0  0  3  0  0  0  0  0  0
  186.9770  173.7690  136.8800 C   0  0  0  0  0  3  0  0  0  0  0  0
  186.1460  172.8510  137.5260 C   0  0  0  0  0  3  0  0  0  0  0  0
  185.1040  175.2880  136.6200 C   0  0  0  0  0  0  0  0  0  0  0  0
  184.7960  173.1480  137.7210 C   0  0  0  0  0  3  0  0  0  0  0  0
  184.5000  176.5410  136.0700 C   0  0  0  0  0  2  0  0  0  0  0  0
  184.1090  177.4600  137.1810 C   0  0  0  0  0  0  0  0  0  0  0  0
  183.3820  179.2300  139.2260 C   0  0  0  0  0  3  0  0  0  0  0  0
  184.7110  178.8080  139.1050 C   0  0  0  0  0  3  0  0  0  0  0  0
  182.4160  178.7650  138.3260 C   0  0  0  0  0  3  0  0  0  0  0  0
  185.0730  177.9230  138.0860 C   0  0  0  0  0  3  0  0  0  0  0  0
  182.7790  177.8830  137.3030 C   0  0  0  0  0  3  0  0  0  0  0  0
  2  1  1  0  0  0  0
  2 14  1  0  0  0  0
  3  2  2  0  0  0  0
  4  7  1  0  0  0  0
  5 13  1  1  0  0  0
  5  9  1  0  0  0  0
  6  4  2  0  0  0  0
  8  5  1  0  0  0  0
  8 10  1  1  0  0  0
  9  4  1  0  0  0  0
 10  6  1  0  0  0  0
 11  1  1  6  0  0  0
 11  8  1  0  0  0  0
 12 11  1  0  0  0  0
 12 13  1  0  0  0  0
 15 21  1  1  0  0  0
 16 17  1  6  0  0  0
 16 15  1  0  0  0  0
 18 20  1  0  0  0  0
 18 22  1  0  0  0  0
 19 15  1  0  0  0  0
 20 14  1  6  0  0  0
 20 19  1  0  0  0  0
 22 16  1  0  0  0  0
 23  1  1  0  0  0  0
 24 23  1  0  0  0  0
 25 24  1  0  0  0  0
 26 25  1  0  0  0  0
 27 26  1  0  0  0  0
 28 31  1  0  0  0  0
 28 29  1  0  0  0  0
 29 27  1  0  0  0  0
 30 29  2  0  0  0  0
 31 35  2  0  0  0  0
 31 33  1  0  0  0  0
 32 36  2  0  0  0  0
 33 34  2  0  0  0  0
 34 36  1  0  0  0  0
 35 32  1  0  0  0  0
 37 35  1  0  0  0  0
 37 38  1  0  0  0  0
 38 43  2  0  0  0  0
 38 42  1  0  0  0  0
 40 39  1  0  0  0  0
 41 39  2  0  0  0  0
 42 40  2  0  0  0  0
 43 41  1  0  0  0  0
M  END
>  <MODEL>
6

>  <REMARK>
 VINA RESULT:      -7.6      3.041      6.371
  Name = 
  12 active torsions:
  status: ('A' for Active; 'I' for Inactive)
    1  A    between atoms: C_1  and  C_34
    2  A    between atoms: C_1  and  C_35
    3  A    between atoms: O_2  and  C_7
    4  A    between atoms: O_2  and  C_13
    5  A    between atoms: N_3  and  C_4
    6  A    between atoms: C_6  and  C_7
    7  A    between atoms: C_6  and  C_12
    8  A    between atoms: N_8  and  C_27
    9  A    between atoms: N_8  and  C_30
   10  A    between atoms: C_11  and  C_14
   11  A    between atoms: C_13  and  C_27
   12  A    between atoms: C_14  and  C_41
                            x       y       z     vdW  Elec       q    Type
                         _______ _______ _______ _____ _____    ______ ____

>  <TORSDO>
F 12

$$$$
=
 OpenBabel10272414413D

 43 47  0  0  1  0  0  0  0  0999 V2000
  189.6640  176.4740  138.1050 N   0  0  0  0  0  0  0  0  0  0  0  0
  191.0910  176.3500  138.2130 C   0  0  0  0  0  0  0  0  0  0  0  0
  191.6600  176.5410  139.3220 O   0  0  0  0  0  0  0  0  0  0  0  0
  185.2530  176.9280  135.2090 C   0  0  0  0  0  0  0  0  0  0  0  0
  186.6220  175.6910  136.9500 C   0  0  1  0  0  3  0  0  0  0  0  0
  186.2820  177.6240  134.8360 N   0  0  0  0  0  0  0  0  0  0  0  0
  183.9000  177.2810  134.7020 C   0  0  0  0  0  1  0  0  0  0  0  0
  187.6730  176.7610  136.6900 C   0  0  2  0  0  3  0  0  0  0  0  0
  185.4020  175.8670  136.1580 N   0  0  0  0  0  2  0  0  0  0  0  0
  187.6340  177.2570  135.2410 C   0  0  0  0  0  2  0  0  0  0  0  0
  188.9840  176.0230  136.8890 C   0  0  2  0  0  3  0  0  0  0  0  0
  188.7270  174.5830  136.9390 N   0  0  0  0  0  2  0  0  0  0  0  0
  187.3170  174.4000  136.6120 C   0  0  0  0  0  2  0  0  0  0  0  0
  191.9180  175.9490  137.0320 C   0  0  0  0  0  2  0  0  0  0  0  0
  194.8580  175.5840  135.3420 C   0  0  1  0  0  3  0  0  0  0  0  0
  195.7020  174.4830  136.0010 C   0  0  2  0  0  3  0  0  0  0  0  0
  195.6880  173.0290  134.9710 Cl  0  0  0  0  0  0  0  0  0  0  0  0
  193.7350  174.3470  137.5850 C   0  0  0  0  0  2  0  0  0  0  0  0
  194.2780  176.5480  136.3760 C   0  0  0  0  0  2  0  0  0  0  0  0
  193.3880  175.8290  137.4070 C   0  0  1  0  0  3  0  0  0  0  0  0
  195.7080  176.3470  134.3460 C   0  0  0  0  0  1  0  0  0  0  0  0
  195.2340  174.1150  137.4170 C   0  0  0  0  0  2  0  0  0  0  0  0
  188.8930  176.9610  139.2490 C   0  0  0  0  0  2  0  0  0  0  0  0
  189.1170  178.4540  139.4910 C   0  0  0  0  0  2  0  0  0  0  0  0
  188.5880  178.8640  140.7210 O   0  0  0  0  0  0  0  0  0  0  0  0
  187.2390  178.4920  140.7010 C   0  0  0  0  0  2  0  0  0  0  0  0
  186.4680  179.1980  141.8100 C   0  0  0  0  0  2  0  0  0  0  0  0
  184.8900  177.8170  143.2580 N   0  0  0  0  0  2  0  0  0  0  0  0
  185.1370  178.5590  142.0570 C   0  0  0  0  0  0  0  0  0  0  0  0
  184.2450  178.6180  141.1740 O   0  0  0  0  0  0  0  0  0  0  0  0
  185.5630  178.0290  144.5070 C   0  0  0  0  0  0  0  0  0  0  0  0
  187.3800  177.5110  146.0370 C   0  0  0  0  0  3  0  0  0  0  0  0
  185.0150  178.8840  145.4760 C   0  0  0  0  0  3  0  0  0  0  0  0
  185.6460  179.0560  146.7100 C   0  0  0  0  0  3  0  0  0  0  0  0
  186.7510  177.3330  144.7980 C   0  0  0  0  0  0  0  0  0  0  0  0
  186.8270  178.3680  146.9910 C   0  0  0  0  0  3  0  0  0  0  0  0
  187.4120  176.4760  143.7650 C   0  0  0  0  0  2  0  0  0  0  0  0
  188.8440  176.8700  143.6030 C   0  0  0  0  0  0  0  0  0  0  0  0
  191.5410  177.5780  143.3470 C   0  0  0  0  0  3  0  0  0  0  0  0
  190.6420  178.4580  143.9580 C   0  0  0  0  0  3  0  0  0  0  0  0
  191.0930  176.3450  142.8610 C   0  0  0  0  0  3  0  0  0  0  0  0
  189.2950  178.1050  144.0840 C   0  0  0  0  0  3  0  0  0  0  0  0
  189.7460  175.9900  142.9900 C   0  0  0  0  0  3  0  0  0  0  0  0
  1  2  1  0  0  0  0
  1 23  1  0  0  0  0
  2  3  2  0  0  0  0
  4  9  1  0  0  0  0
  5 13  1  6  0  0  0
  6  4  2  0  0  0  0
  6 10  1  0  0  0  0
  7  4  1  0  0  0  0
  8 10  1  6  0  0  0
  8 11  1  0  0  0  0
  8  5  1  0  0  0  0
  9  5  1  0  0  0  0
 11 12  1  0  0  0  0
 11  1  1  1  0  0  0
 13 12  1  0  0  0  0
 14  2  1  0  0  0  0
 15 21  1  6  0  0  0
 15 16  1  0  0  0  0
 15 19  1  0  0  0  0
 16 17  1  6  0  0  0
 16 22  1  0  0  0  0
 19 20  1  0  0  0  0
 20 14  1  6  0  0  0
 20 18  1  0  0  0  0
 22 18  1  0  0  0  0
 23 24  1  0  0  0  0
 24 25  1  0  0  0  0
 26 25  1  0  0  0  0
 26 27  1  0  0  0  0
 27 29  1  0  0  0  0
 28 31  1  0  0  0  0
 29 28  1  0  0  0  0
 30 29  2  0  0  0  0
 31 35  2  0  0  0  0
 31 33  1  0  0  0  0
 32 36  2  0  0  0  0
 33 34  2  0  0  0  0
 34 36  1  0  0  0  0
 35 32  1  0  0  0  0
 37 35  1  0  0  0  0
 38 37  1  0  0  0  0
 38 42  1  0  0  0  0
 39 40  1  0  0  0  0
 40 42  2  0  0  0  0
 41 43  1  0  0  0  0
 41 39  2  0  0  0  0
 43 38  2  0  0  0  0
M  END
>  <MODEL>
7

>  <REMARK>
 VINA RESULT:      -7.5      3.172      7.217
  Name = 
  12 active torsions:
  status: ('A' for Active; 'I' for Inactive)
    1  A    between atoms: C_1  and  C_34
    2  A    between atoms: C_1  and  C_35
    3  A    between atoms: O_2  and  C_7
    4  A    between atoms: O_2  and  C_13
    5  A    between atoms: N_3  and  C_4
    6  A    between atoms: C_6  and  C_7
    7  A    between atoms: C_6  and  C_12
    8  A    between atoms: N_8  and  C_27
    9  A    between atoms: N_8  and  C_30
   10  A    between atoms: C_11  and  C_14
   11  A    between atoms: C_13  and  C_27
   12  A    between atoms: C_14  and  C_41
                            x       y       z     vdW  Elec       q    Type
                         _______ _______ _______ _____ _____    ______ ____

>  <TORSDO>
F 12

$$$$
=
 OpenBabel10272414413D

 43 47  0  0  1  0  0  0  0  0999 V2000
  185.7950  178.5220  144.7820 N   0  0  0  0  0  0  0  0  0  0  0  0
  186.4290  178.1920  146.0280 C   0  0  0  0  0  0  0  0  0  0  0  0
  186.0810  178.7760  147.0890 O   0  0  0  0  0  0  0  0  0  0  0  0
  189.0120  177.6660  140.6630 C   0  0  0  0  0  0  0  0  0  0  0  0
  186.9070  178.6980  141.6300 C   0  0  1  0  0  3  0  0  0  0  0  0
  189.1680  176.9100  141.7050 N   0  0  0  0  0  0  0  0  0  0  0  0
  190.0940  177.7530  139.6450 C   0  0  0  0  0  1  0  0  0  0  0  0
  187.3410  178.0370  142.9310 C   0  0  2  0  0  3  0  0  0  0  0  0
  187.8370  178.4710  140.5210 N   0  0  0  0  0  2  0  0  0  0  0  0
  188.0990  176.7300  142.6790 C   0  0  0  0  0  2  0  0  0  0  0  0
  186.0260  177.6850  143.6020 C   0  0  2  0  0  3  0  0  0  0  0  0
  184.9340  177.8320  142.6380 N   0  0  0  0  0  2  0  0  0  0  0  0
  185.5540  178.1040  141.3460 C   0  0  0  0  0  2  0  0  0  0  0  0
  187.4750  177.1230  146.0970 C   0  0  0  0  0  2  0  0  0  0  0  0
  190.7340  177.2420  145.1000 C   0  0  1  0  0  3  0  0  0  0  0  0
  191.6460  176.8110  146.2580 C   0  0  2  0  0  3  0  0  0  0  0  0
  192.2900  175.1810  145.9300 Cl  0  0  0  0  0  0  0  0  0  0  0  0
  189.4520  176.5590  147.4910 C   0  0  0  0  0  2  0  0  0  0  0  0
  189.6700  178.2390  145.5590 C   0  0  0  0  0  2  0  0  0  0  0  0
  188.7760  177.6630  146.6720 C   0  0  1  0  0  3  0  0  0  0  0  0
  191.5710  177.8540  143.9950 C   0  0  0  0  0  1  0  0  0  0  0  0
  190.9490  176.8230  147.6270 C   0  0  0  0  0  2  0  0  0  0  0  0
  184.8480  179.6360  144.7270 C   0  0  0  0  0  2  0  0  0  0  0  0
  183.3990  179.1550  144.8150 C   0  0  0  0  0  2  0  0  0  0  0  0
  182.7120  179.3620  143.6120 O   0  0  0  0  0  0  0  0  0  0  0  0
  181.4840  178.7070  143.7550 C   0  0  0  0  0  2  0  0  0  0  0  0
  180.4960  179.1750  142.6940 C   0  0  0  0  0  2  0  0  0  0  0  0
  180.0740  178.4040  140.3020 N   0  0  0  0  0  2  0  0  0  0  0  0
  180.1980  178.1000  141.6960 C   0  0  0  0  0  0  0  0  0  0  0  0
  179.9880  176.9250  142.0930 O   0  0  0  0  0  0  0  0  0  0  0  0
  180.7090  179.5100  139.6430 C   0  0  0  0  0  0  0  0  0  0  0  0
  182.7040  180.5520  138.7240 C   0  0  0  0  0  3  0  0  0  0  0  0
  179.9880  180.6810  139.3610 C   0  0  0  0  0  3  0  0  0  0  0  0
  180.6170  181.7740  138.7610 C   0  0  0  0  0  3  0  0  0  0  0  0
  182.0790  179.4530  139.3270 C   0  0  0  0  0  0  0  0  0  0  0  0
  181.9750  181.7100  138.4440 C   0  0  0  0  0  3  0  0  0  0  0  0
  182.8650  178.1970  139.5360 C   0  0  0  0  0  2  0  0  0  0  0  0
  183.2450  177.5980  138.2220 C   0  0  0  0  0  0  0  0  0  0  0  0
  183.9610  176.4220  135.7840 C   0  0  0  0  0  3  0  0  0  0  0  0
  184.9370  177.0310  136.5790 C   0  0  0  0  0  3  0  0  0  0  0  0
  182.6270  176.4020  136.2040 C   0  0  0  0  0  3  0  0  0  0  0  0
  184.5790  177.6210  137.7950 C   0  0  0  0  0  3  0  0  0  0  0  0
  182.2690  176.9880  137.4230 C   0  0  0  0  0  3  0  0  0  0  0  0
  1  2  1  0  0  0  0
  2 14  1  0  0  0  0
  2  3  2  0  0  0  0
  4  6  2  0  0  0  0
  5 13  1  6  0  0  0
  5  8  1  0  0  0  0
  6 10  1  0  0  0  0
  7  4  1  0  0  0  0
  8 10  1  6  0  0  0
  8 11  1  0  0  0  0
  9  4  1  0  0  0  0
  9  5  1  0  0  0  0
 11  1  1  1  0  0  0
 12 11  1  0  0  0  0
 13 12  1  0  0  0  0
 15 21  1  6  0  0  0
 15 19  1  0  0  0  0
 15 16  1  0  0  0  0
 16 17  1  6  0  0  0
 16 22  1  0  0  0  0
 18 22  1  0  0  0  0
 19 20  1  0  0  0  0
 20 14  1  6  0  0  0
 20 18  1  0  0  0  0
 23  1  1  0  0  0  0
 23 24  1  0  0  0  0
 25 26  1  0  0  0  0
 25 24  1  0  0  0  0
 27 26  1  0  0  0  0
 28 29  1  0  0  0  0
 29 30  2  0  0  0  0
 29 27  1  0  0  0  0
 31 28  1  0  0  0  0
 32 35  1  0  0  0  0
 33 31  1  0  0  0  0
 34 33  2  0  0  0  0
 35 37  1  0  0  0  0
 35 31  2  0  0  0  0
 36 32  2  0  0  0  0
 36 34  1  0  0  0  0
 38 37  1  0  0  0  0
 39 41  2  0  0  0  0
 39 40  1  0  0  0  0
 40 42  2  0  0  0  0
 41 43  1  0  0  0  0
 42 38  1  0  0  0  0
 43 38  2  0  0  0  0
M  END
>  <MODEL>
8

>  <REMARK>
 VINA RESULT:      -7.4      3.449      6.040
  Name = 
  12 active torsions:
  status: ('A' for Active; 'I' for Inactive)
    1  A    between atoms: C_1  and  C_34
    2  A    between atoms: C_1  and  C_35
    3  A    between atoms: O_2  and  C_7
    4  A    between atoms: O_2  and  C_13
    5  A    between atoms: N_3  and  C_4
    6  A    between atoms: C_6  and  C_7
    7  A    between atoms: C_6  and  C_12
    8  A    between atoms: N_8  and  C_27
    9  A    between atoms: N_8  and  C_30
   10  A    between atoms: C_11  and  C_14
   11  A    between atoms: C_13  and  C_27
   12  A    between atoms: C_14  and  C_41
                            x       y       z     vdW  Elec       q    Type
                         _______ _______ _______ _____ _____    ______ ____

>  <TORSDO>
F 12

$$$$
=
 OpenBabel10272414413D

 43 47  0  0  1  0  0  0  0  0999 V2000
  189.2040  177.0710  138.1580 N   0  0  0  0  0  0  0  0  0  0  0  0
  188.9740  177.9450  139.2740 C   0  0  0  0  0  0  0  0  0  0  0  0
  187.9230  178.6390  139.3290 O   0  0  0  0  0  0  0  0  0  0  0  0
  194.0030  175.8670  136.2670 C   0  0  0  0  0  0  0  0  0  0  0  0
  191.4820  175.5960  136.1990 C   0  0  1  0  0  3  0  0  0  0  0  0
  193.9490  176.4420  137.4290 N   0  0  0  0  0  0  0  0  0  0  0  0
  195.2830  175.8500  135.5100 C   0  0  0  0  0  1  0  0  0  0  0  0
  191.4800  176.5580  137.3790 C   0  0  2  0  0  3  0  0  0  0  0  0
  192.8210  175.3120  135.6790 N   0  0  0  0  0  2  0  0  0  0  0  0
  192.7380  176.4050  138.2390 C   0  0  0  0  0  2  0  0  0  0  0  0
  190.2960  176.0960  138.2080 C   0  0  2  0  0  3  0  0  0  0  0  0
  189.8480  174.7870  137.7290 N   0  0  0  0  0  2  0  0  0  0  0  0
  190.8240  174.3520  136.7350 C   0  0  0  0  0  2  0  0  0  0  0  0
  189.9480  178.0130  140.4090 C   0  0  0  0  0  2  0  0  0  0  0  0
  189.0270  177.4990  143.6520 C   0  0  1  0  0  3  0  0  0  0  0  0
  190.0290  176.5540  144.3320 C   0  0  2  0  0  3  0  0  0  0  0  0
  191.0510  177.4850  145.4580 Cl  0  0  0  0  0  0  0  0  0  0  0  0
  191.1340  176.5820  142.0570 C   0  0  0  0  0  2  0  0  0  0  0  0
  188.6050  176.9830  142.2770 C   0  0  0  0  0  2  0  0  0  0  0  0
  189.8060  176.8090  141.3280 C   0  0  1  0  0  3  0  0  0  0  0  0
  187.8080  177.6670  144.5350 C   0  0  0  0  0  1  0  0  0  0  0  0
  190.9200  175.7880  143.3430 C   0  0  0  0  0  2  0  0  0  0  0  0
  188.2850  177.0970  137.0200 C   0  0  0  0  0  2  0  0  0  0  0  0
  186.8320  176.9120  137.4590 C   0  0  0  0  0  2  0  0  0  0  0  0
  185.9420  177.5490  136.5840 O   0  0  0  0  0  0  0  0  0  0  0  0
  184.6770  177.4270  137.1690 C   0  0  0  0  0  2  0  0  0  0  0  0
  184.6970  177.9300  138.6070 C   0  0  0  0  0  2  0  0  0  0  0  0
  182.4500  179.1180  138.7800 N   0  0  0  0  0  2  0  0  0  0  0  0
  183.8810  179.1740  138.7750 C   0  0  0  0  0  0  0  0  0  0  0  0
  184.4560  180.2890  138.8470 O   0  0  0  0  0  0  0  0  0  0  0  0
  181.6730  177.9760  139.1710 C   0  0  0  0  0  0  0  0  0  0  0  0
  180.3920  176.7720  140.8500 C   0  0  0  0  0  3  0  0  0  0  0  0
  181.5160  176.8890  138.2970 C   0  0  0  0  0  3  0  0  0  0  0  0
  180.7990  175.7580  138.6920 C   0  0  0  0  0  3  0  0  0  0  0  0
  181.1120  177.9080  140.4590 C   0  0  0  0  0  0  0  0  0  0  0  0
  180.2390  175.6990  139.9690 C   0  0  0  0  0  3  0  0  0  0  0  0
  181.1860  179.0760  141.3920 C   0  0  0  0  0  2  0  0  0  0  0  0
  182.2670  178.8660  142.4010 C   0  0  0  0  0  0  0  0  0  0  0  0
  184.2820  178.4130  144.2920 C   0  0  0  0  0  3  0  0  0  0  0  0
  183.0140  178.8320  144.7080 C   0  0  0  0  0  3  0  0  0  0  0  0
  184.5450  178.2230  142.9310 C   0  0  0  0  0  3  0  0  0  0  0  0
  182.0090  179.0600  143.7630 C   0  0  0  0  0  3  0  0  0  0  0  0
  183.5380  178.4470  141.9860 C   0  0  0  0  0  3  0  0  0  0  0  0
  1  2  1  0  0  0  0
  2  3  2  0  0  0  0
  2 14  1  0  0  0  0
  4  6  2  0  0  0  0
  5 13  1  1  0  0  0
  5  8  1  0  0  0  0
  6 10  1  0  0  0  0
  7  4  1  0  0  0  0
  8 11  1  0  0  0  0
  8 10  1  1  0  0  0
  9  5  1  0  0  0  0
  9  4  1  0  0  0  0
 11  1  1  6  0  0  0
 12 11  1  0  0  0  0
 13 12  1  0  0  0  0
 15 16  1  0  0  0  0
 15 21  1  1  0  0  0
 16 17  1  1  0  0  0
 18 22  1  0  0  0  0
 19 15  1  0  0  0  0
 20 14  1  1  0  0  0
 20 18  1  0  0  0  0
 20 19  1  0  0  0  0
 22 16  1  0  0  0  0
 23 24  1  0  0  0  0
 23  1  1  0  0  0  0
 25 26  1  0  0  0  0
 25 24  1  0  0  0  0
 26 27  1  0  0  0  0
 27 29  1  0  0  0  0
 28 31  1  0  0  0  0
 29 28  1  0  0  0  0
 29 30  2  0  0  0  0
 31 35  1  0  0  0  0
 33 34  1  0  0  0  0
 33 31  2  0  0  0  0
 34 36  2  0  0  0  0
 35 32  2  0  0  0  0
 35 37  1  0  0  0  0
 36 32  1  0  0  0  0
 37 38  1  0  0  0  0
 38 42  1  0  0  0  0
 39 40  1  0  0  0  0
 41 39  2  0  0  0  0
 42 40  2  0  0  0  0
 43 38  2  0  0  0  0
 43 41  1  0  0  0  0
M  END
>  <MODEL>
9

>  <REMARK>
 VINA RESULT:      -7.3      1.541      2.336
  Name = 
  12 active torsions:
  status: ('A' for Active; 'I' for Inactive)
    1  A    between atoms: C_1  and  C_34
    2  A    between atoms: C_1  and  C_35
    3  A    between atoms: O_2  and  C_7
    4  A    between atoms: O_2  and  C_13
    5  A    between atoms: N_3  and  C_4
    6  A    between atoms: C_6  and  C_7
    7  A    between atoms: C_6  and  C_12
    8  A    between atoms: N_8  and  C_27
    9  A    between atoms: N_8  and  C_30
   10  A    between atoms: C_11  and  C_14
   11  A    between atoms: C_13  and  C_27
   12  A    between atoms: C_14  and  C_41
                            x       y       z     vdW  Elec       q    Type
                         _______ _______ _______ _____ _____    ______ ____

>  <TORSDO>
F 12

$$$$
