=
 OpenBabel10272413263D

 32 36  0  0  1  0  0  0  0  0999 V2000
  188.6210  177.8570  143.5270 C   0  0  1  0  0  3  0  0  0  0  0  0
  189.5070  176.6070  138.8260 C   0  0  0  0  0  2  0  0  0  0  0  0
  190.9880  176.9670  138.9940 C   0  0  0  0  0  2  0  0  0  0  0  0
  190.2030  176.7770  145.1570 C   0  0  0  0  0  0  0  0  0  0  0  0
  189.2310  176.9660  146.1620 C   0  0  0  0  0  0  0  0  0  0  0  0
  191.8290  176.2200  146.8810 C   0  0  0  0  0  0  0  0  0  0  0  0
  188.6770  177.4000  139.7290 N   0  0  0  0  0  2  0  0  0  0  0  0
  188.1410  177.8920  142.0670 C   0  0  0  0  0  2  0  0  0  0  0  0
  188.9080  176.9650  141.1100 C   0  0  2  0  0  3  0  0  0  0  0  0
  190.8160  177.2030  142.7920 N   0  0  0  0  0  2  0  0  0  0  0  0
  190.8640  176.4350  147.8660 C   0  0  0  0  0  3  0  0  0  0  0  0
  189.5660  176.8010  147.5080 C   0  0  0  0  0  3  0  0  0  0  0  0
  191.3160  177.4610  140.4060 C   0  0  0  0  0  2  0  0  0  0  0  0
  190.4290  176.7800  141.4430 C   0  0  2  0  0  3  0  0  0  0  0  0
  192.4440  176.0920  144.5910 F   0  0  0  0  0  0  0  0  0  0  0  0
  187.5160  177.6960  144.5550 C   0  0  0  0  0  0  0  0  0  0  0  0
  187.8490  177.3310  145.8020 C   0  0  0  0  0  3  0  0  0  0  0  0
  193.0800  175.8440  147.2420 F   0  0  0  0  0  0  0  0  0  0  0  0
  189.7500  176.8410  143.7150 C   0  0  2  0  0  3  0  0  0  0  0  0
  191.5020  176.3690  145.5280 C   0  0  0  0  0  0  0  0  0  0  0  0
  184.5870  180.2280  143.2930 C   0  0  0  0  0  2  0  0  0  0  0  0
  186.1640  178.1140  144.2850 N   0  0  0  0  0  0  0  0  0  0  0  0
  185.0030  178.0900  146.4420 C   0  0  0  0  0  1  0  0  0  0  0  0
  184.2090  179.5990  144.6330 C   0  0  0  0  0  2  0  0  0  0  0  0
  185.4360  178.9380  145.2610 C   0  0  2  0  0  3  0  0  0  0  0  0
  185.5800  177.8860  142.9630 C   0  0  0  0  0  2  0  0  0  0  0  0
  185.2040  179.2180  142.3080 C   0  0  1  0  0  3  0  0  0  0  0  0
  184.4820  179.5110  140.0190 N   0  0  0  0  0  0  0  0  0  0  0  0
  184.2740  178.9630  141.1730 C   0  0  0  0  0  3  0  0  0  0  0  0
  183.6130  179.2920  138.9050 C   0  0  0  0  0  0  0  0  0  0  0  0
  182.4530  180.1950  138.6930 C   0  0  0  0  0  1  0  0  0  0  0  0
  183.8170  178.3430  138.0990 O   0  0  0  0  0  0  0  0  0  0  0  0
  1  8  1  6  0  0  0
  1 19  1  0  0  0  0
  1 16  1  0  0  0  0
  2  3  1  0  0  0  0
  2  7  1  0  0  0  0
  3 13  1  0  0  0  0
  4 20  2  0  0  0  0
  4  5  1  0  0  0  0
  5 12  2  0  0  0  0
  6 18  1  0  0  0  0
  6 11  2  0  0  0  0
  7  9  1  0  0  0  0
  9 14  1  0  0  0  0
  9  8  1  1  0  0  0
 12 11  1  0  0  0  0
 14 13  1  6  0  0  0
 14 10  1  0  0  0  0
 15 20  1  0  0  0  0
 16 17  2  0  0  0  0
 17  5  1  0  0  0  0
 19 10  1  6  0  0  0
 19  4  1  0  0  0  0
 20  6  1  0  0  0  0
 21 24  1  0  0  0  0
 22 16  1  0  0  0  0
 22 25  1  0  0  0  0
 24 25  1  0  0  0  0
 25 23  1  1  0  0  0
 26 22  1  0  0  0  0
 27 29  1  6  0  0  0
 27 26  1  0  0  0  0
 27 21  1  0  0  0  0
 28 29  2  0  0  0  0
 30 28  1  0  0  0  0
 31 30  1  0  0  0  0
 32 30  2  0  0  0  0
M  END
>  <MODEL>
1

>  <REMARK>
 VINA RESULT:     -10.0      0.000      0.000
  Name = 
  3 active torsions:
  status: ('A' for Active; 'I' for Inactive)
    1  A    between atoms: C_1  and  N_10
    2  A    between atoms: N_8  and  C_28
    3  A    between atoms: C_19  and  C_24
                            x       y       z     vdW  Elec       q    Type
                         _______ _______ _______ _____ _____    ______ ____

>  <TORSDO>
F 3

$$$$
=
 OpenBabel10272413263D

 32 36  0  0  1  0  0  0  0  0999 V2000
  184.9950  179.0040  140.5070 C   0  0  1  0  0  3  0  0  0  0  0  0
  188.7140  177.2070  137.7910 C   0  0  0  0  0  2  0  0  0  0  0  0
  189.7350  177.8590  138.7310 C   0  0  0  0  0  2  0  0  0  0  0  0
  185.2310  178.5140  142.9640 C   0  0  0  0  0  0  0  0  0  0  0  0
  183.8350  178.6760  143.0880 C   0  0  0  0  0  0  0  0  0  0  0  0
  185.4180  178.5530  145.3900 C   0  0  0  0  0  0  0  0  0  0  0  0
  187.4660  177.9650  137.7790 N   0  0  0  0  0  2  0  0  0  0  0  0
  185.5470  178.7150  139.1040 C   0  0  0  0  0  2  0  0  0  0  0  0
  186.7880  177.8070  139.0700 C   0  0  2  0  0  3  0  0  0  0  0  0
  187.1840  178.6630  141.4430 N   0  0  0  0  0  2  0  0  0  0  0  0
  184.0390  178.7390  145.4980 C   0  0  0  0  0  3  0  0  0  0  0  0
  183.2470  178.7940  144.3500 C   0  0  0  0  0  3  0  0  0  0  0  0
  189.0720  178.6250  139.8790 C   0  0  0  0  0  2  0  0  0  0  0  0
  187.7600  177.9650  140.2900 C   0  0  2  0  0  3  0  0  0  0  0  0
  187.3510  178.1790  144.0620 F   0  0  0  0  0  0  0  0  0  0  0  0
  183.4970  178.8060  140.6530 C   0  0  0  0  0  0  0  0  0  0  0  0
  182.9790  178.7140  141.8880 C   0  0  0  0  0  3  0  0  0  0  0  0
  186.1720  178.4810  146.5150 F   0  0  0  0  0  0  0  0  0  0  0  0
  185.7920  178.2610  141.5820 C   0  0  2  0  0  3  0  0  0  0  0  0
  186.0170  178.4200  144.1320 C   0  0  0  0  0  0  0  0  0  0  0  0
  179.9820  179.5900  138.7530 C   0  0  0  0  0  2  0  0  0  0  0  0
  182.6060  178.9150  139.5270 N   0  0  0  0  0  0  0  0  0  0  0  0
  182.4470  176.6660  138.5670 C   0  0  0  0  0  1  0  0  0  0  0  0
  180.5750  178.2730  138.2580 C   0  0  0  0  0  2  0  0  0  0  0  0
  181.6860  177.8150  139.2030 C   0  0  2  0  0  3  0  0  0  0  0  0
  182.4750  180.1900  138.8210 C   0  0  0  0  0  2  0  0  0  0  0  0
  181.0360  180.7030  138.9070 C   0  0  1  0  0  3  0  0  0  0  0  0
  181.5320  182.8490  137.9080 N   0  0  0  0  0  0  0  0  0  0  0  0
  180.8290  181.7620  137.8810 C   0  0  0  0  0  3  0  0  0  0  0  0
  181.3630  183.8880  136.9420 C   0  0  0  0  0  0  0  0  0  0  0  0
  180.6760  183.5910  135.6590 C   0  0  0  0  0  1  0  0  0  0  0  0
  181.7910  185.0550  137.1620 O   0  0  0  0  0  0  0  0  0  0  0  0
  1  8  1  6  0  0  0
  1 16  1  0  0  0  0
  1 19  1  0  0  0  0
  2  3  1  0  0  0  0
  3 13  1  0  0  0  0
  4  5  2  0  0  0  0
  4 20  1  0  0  0  0
  5 12  1  0  0  0  0
  6 11  1  0  0  0  0
  6 18  1  0  0  0  0
  7  2  1  0  0  0  0
  7  9  1  0  0  0  0
  9  8  1  1  0  0  0
  9 14  1  0  0  0  0
 12 11  2  0  0  0  0
 14 13  1  6  0  0  0
 14 10  1  0  0  0  0
 15 20  1  0  0  0  0
 16 17  2  0  0  0  0
 17  5  1  0  0  0  0
 19 10  1  1  0  0  0
 19  4  1  0  0  0  0
 20  6  2  0  0  0  0
 21 27  1  0  0  0  0
 22 16  1  0  0  0  0
 24 21  1  0  0  0  0
 24 25  1  0  0  0  0
 25 23  1  6  0  0  0
 25 22  1  0  0  0  0
 26 27  1  0  0  0  0
 26 22  1  0  0  0  0
 27 29  1  6  0  0  0
 29 28  2  0  0  0  0
 30 32  2  0  0  0  0
 30 28  1  0  0  0  0
 31 30  1  0  0  0  0
M  END
>  <MODEL>
2

>  <REMARK>
 VINA RESULT:      -9.8      3.619      5.655
  Name = 
  3 active torsions:
  status: ('A' for Active; 'I' for Inactive)
    1  A    between atoms: C_1  and  N_10
    2  A    between atoms: N_8  and  C_28
    3  A    between atoms: C_19  and  C_24
                            x       y       z     vdW  Elec       q    Type
                         _______ _______ _______ _____ _____    ______ ____

>  <TORSDO>
F 3

$$$$
=
 OpenBabel10272413263D

 32 36  0  0  1  0  0  0  0  0999 V2000
  187.7740  178.1770  141.7650 C   0  0  1  0  0  3  0  0  0  0  0  0
  191.6310  175.8100  143.7550 C   0  0  0  0  0  2  0  0  0  0  0  0
  191.5150  176.6590  145.0270 C   0  0  0  0  0  2  0  0  0  0  0  0
  185.7670  178.2580  143.2800 C   0  0  0  0  0  0  0  0  0  0  0  0
  184.9620  178.4440  142.1360 C   0  0  0  0  0  0  0  0  0  0  0  0
  183.8620  178.8470  144.6760 C   0  0  0  0  0  0  0  0  0  0  0  0
  191.1320  176.5460  142.5960 N   0  0  0  0  0  2  0  0  0  0  0  0
  189.1720  177.5770  141.5520 C   0  0  0  0  0  2  0  0  0  0  0  0
  189.6760  176.6850  142.6980 C   0  0  2  0  0  3  0  0  0  0  0  0
  188.0820  178.0580  144.1470 N   0  0  0  0  0  2  0  0  0  0  0  0
  183.0840  179.0530  143.5350 C   0  0  0  0  0  3  0  0  0  0  0  0
  183.6310  178.8450  142.2680 C   0  0  0  0  0  3  0  0  0  0  0  0
  190.3620  177.6660  144.9580 C   0  0  0  0  0  2  0  0  0  0  0  0
  189.2060  177.1160  144.1300 C   0  0  2  0  0  3  0  0  0  0  0  0
  185.9050  178.1810  145.6860 F   0  0  0  0  0  0  0  0  0  0  0  0
  186.8280  178.0170  140.5880 C   0  0  0  0  0  0  0  0  0  0  0  0
  185.5150  178.2080  140.7900 C   0  0  0  0  0  3  0  0  0  0  0  0
  183.3120  179.0320  145.9020 F   0  0  0  0  0  0  0  0  0  0  0  0
  187.1580  177.6970  143.0810 C   0  0  2  0  0  3  0  0  0  0  0  0
  185.1940  178.4320  144.5570 C   0  0  0  0  0  0  0  0  0  0  0  0
  189.0180  178.9870  137.2950 C   0  0  0  0  0  2  0  0  0  0  0  0
  187.3140  177.8680  139.2410 N   0  0  0  0  0  0  0  0  0  0  0  0
  185.3470  178.0180  137.7890 C   0  0  0  0  0  1  0  0  0  0  0  0
  187.5840  178.6410  136.9010 C   0  0  0  0  0  2  0  0  0  0  0  0
  186.6930  178.6220  138.1430 C   0  0  2  0  0  3  0  0  0  0  0  0
  188.5450  177.1180  138.9890 C   0  0  0  0  0  2  0  0  0  0  0  0
  189.6000  178.0240  138.3480 C   0  0  1  0  0  3  0  0  0  0  0  0
  191.6500  176.7480  138.4750 N   0  0  0  0  0  0  0  0  0  0  0  0
  190.6720  177.1820  137.7470 C   0  0  0  0  0  3  0  0  0  0  0  0
  192.6980  175.9380  137.9370 C   0  0  0  0  0  0  0  0  0  0  0  0
  192.4240  174.5180  137.5970 C   0  0  0  0  0  1  0  0  0  0  0  0
  193.8520  176.4110  137.7480 O   0  0  0  0  0  0  0  0  0  0  0  0
  1  8  1  6  0  0  0
  1 19  1  0  0  0  0
  2  3  1  0  0  0  0
  4 20  1  0  0  0  0
  5 12  1  0  0  0  0
  5  4  2  0  0  0  0
  6 18  1  0  0  0  0
  7  9  1  0  0  0  0
  7  2  1  0  0  0  0
  9  8  1  6  0  0  0
  9 14  1  0  0  0  0
 11  6  1  0  0  0  0
 12 11  2  0  0  0  0
 13  3  1  0  0  0  0
 14 10  1  0  0  0  0
 14 13  1  6  0  0  0
 16 17  2  0  0  0  0
 16  1  1  0  0  0  0
 17  5  1  0  0  0  0
 19  4  1  1  0  0  0
 19 10  1  0  0  0  0
 20  6  2  0  0  0  0
 20 15  1  0  0  0  0
 21 27  1  0  0  0  0
 22 16  1  0  0  0  0
 24 21  1  0  0  0  0
 24 25  1  0  0  0  0
 25 23  1  6  0  0  0
 25 22  1  0  0  0  0
 26 22  1  0  0  0  0
 27 29  1  6  0  0  0
 27 26  1  0  0  0  0
 29 28  2  0  0  0  0
 30 28  1  0  0  0  0
 31 30  1  0  0  0  0
 32 30  2  0  0  0  0
M  END
>  <MODEL>
3

>  <REMARK>
 VINA RESULT:      -9.5      3.273      6.780
  Name = 
  3 active torsions:
  status: ('A' for Active; 'I' for Inactive)
    1  A    between atoms: C_1  and  N_10
    2  A    between atoms: N_8  and  C_28
    3  A    between atoms: C_19  and  C_24
                            x       y       z     vdW  Elec       q    Type
                         _______ _______ _______ _____ _____    ______ ____

>  <TORSDO>
F 3

$$$$
=
 OpenBabel10272413263D

 32 36  0  0  1  0  0  0  0  0999 V2000
  186.3500  178.6130  141.5610 C   0  0  1  0  0  3  0  0  0  0  0  0
  187.4500  177.9370  136.7880 C   0  0  0  0  0  2  0  0  0  0  0  0
  188.7750  178.6850  136.9720 C   0  0  0  0  0  2  0  0  0  0  0  0
  188.2050  177.9240  143.1160 C   0  0  0  0  0  0  0  0  0  0  0  0
  187.2390  177.7750  144.1340 C   0  0  0  0  0  0  0  0  0  0  0  0
  189.9570  177.7430  144.7950 C   0  0  0  0  0  0  0  0  0  0  0  0
  186.4520  178.4130  137.7420 N   0  0  0  0  0  2  0  0  0  0  0  0
  185.8490  178.5980  140.1090 C   0  0  0  0  0  2  0  0  0  0  0  0
  186.8230  177.9800  139.0930 C   0  0  2  0  0  3  0  0  0  0  0  0
  188.6240  178.6420  140.7790 N   0  0  0  0  0  2  0  0  0  0  0  0
  188.9910  177.6230  145.7960 C   0  0  0  0  0  3  0  0  0  0  0  0
  187.6350  177.6320  145.4660 C   0  0  0  0  0  3  0  0  0  0  0  0
  188.9830  179.1680  138.4110 C   0  0  0  0  0  2  0  0  0  0  0  0
  188.3420  178.2070  139.4070 C   0  0  2  0  0  3  0  0  0  0  0  0
  190.5350  177.9260  142.4990 F   0  0  0  0  0  0  0  0  0  0  0  0
  185.3560  178.0900  142.5820 C   0  0  0  0  0  0  0  0  0  0  0  0
  185.8030  177.7600  143.8030 C   0  0  0  0  0  3  0  0  0  0  0  0
  191.2710  177.7110  145.1270 F   0  0  0  0  0  0  0  0  0  0  0  0
  187.7210  177.9430  141.6820 C   0  0  2  0  0  3  0  0  0  0  0  0
  189.5730  177.8740  143.4550 C   0  0  0  0  0  0  0  0  0  0  0  0
  181.9130  179.3610  140.8160 C   0  0  0  0  0  2  0  0  0  0  0  0
  183.9360  178.1290  142.3430 N   0  0  0  0  0  0  0  0  0  0  0  0
  182.9100  178.7880  144.4680 C   0  0  0  0  0  1  0  0  0  0  0  0
  181.7380  179.2770  142.3310 C   0  0  0  0  0  2  0  0  0  0  0  0
  183.1030  179.1430  143.0060 C   0  0  2  0  0  3  0  0  0  0  0  0
  183.3470  177.2900  141.2990 C   0  0  0  0  0  2  0  0  0  0  0  0
  182.6760  178.1570  140.2320 C   0  0  1  0  0  3  0  0  0  0  0  0
  181.7210  176.0300  139.5910 N   0  0  0  0  0  0  0  0  0  0  0  0
  181.7640  177.3110  139.4120 C   0  0  0  0  0  3  0  0  0  0  0  0
  180.8610  175.1830  138.8250 C   0  0  0  0  0  0  0  0  0  0  0  0
  180.8780  175.2710  137.3420 C   0  0  0  0  0  1  0  0  0  0  0  0
  180.0860  174.3630  139.3900 O   0  0  0  0  0  0  0  0  0  0  0  0
  1  8  1  6  0  0  0
  1 19  1  0  0  0  0
  1 16  1  0  0  0  0
  2  3  1  0  0  0  0
  2  7  1  0  0  0  0
  3 13  1  0  0  0  0
  4 20  2  0  0  0  0
  4  5  1  0  0  0  0
  5 12  2  0  0  0  0
  6 18  1  0  0  0  0
  6 11  2  0  0  0  0
  7  9  1  0  0  0  0
  9 14  1  0  0  0  0
  9  8  1  1  0  0  0
 12 11  1  0  0  0  0
 14 13  1  6  0  0  0
 14 10  1  0  0  0  0
 15 20  1  0  0  0  0
 16 17  2  0  0  0  0
 17  5  1  0  0  0  0
 19 10  1  6  0  0  0
 19  4  1  0  0  0  0
 20  6  1  0  0  0  0
 21 24  1  0  0  0  0
 22 16  1  0  0  0  0
 22 25  1  0  0  0  0
 24 25  1  0  0  0  0
 25 23  1  1  0  0  0
 26 22  1  0  0  0  0
 27 29  1  1  0  0  0
 27 21  1  0  0  0  0
 27 26  1  0  0  0  0
 29 28  2  0  0  0  0
 30 32  2  0  0  0  0
 30 28  1  0  0  0  0
 31 30  1  0  0  0  0
M  END
>  <MODEL>
4

>  <REMARK>
 VINA RESULT:      -8.9      2.633      3.491
  Name = 
  3 active torsions:
  status: ('A' for Active; 'I' for Inactive)
    1  A    between atoms: C_1  and  N_10
    2  A    between atoms: N_8  and  C_28
    3  A    between atoms: C_19  and  C_24
                            x       y       z     vdW  Elec       q    Type
                         _______ _______ _______ _____ _____    ______ ____

>  <TORSDO>
F 3

$$$$
=
 OpenBabel10272413263D

 32 36  0  0  1  0  0  0  0  0999 V2000
  184.8960  178.0370  140.8230 C   0  0  1  0  0  3  0  0  0  0  0  0
  184.1280  179.3140  145.5380 C   0  0  0  0  0  2  0  0  0  0  0  0
  185.2900  178.4190  145.9850 C   0  0  0  0  0  2  0  0  0  0  0  0
  187.2920  178.2980  140.1010 C   0  0  0  0  0  0  0  0  0  0  0  0
  186.8370  178.3860  138.7680 C   0  0  0  0  0  0  0  0  0  0  0  0
  189.5680  178.0500  139.2730 C   0  0  0  0  0  0  0  0  0  0  0  0
  183.5240  178.8000  144.3110 N   0  0  0  0  0  2  0  0  0  0  0  0
  183.8750  178.3200  141.9350 C   0  0  0  0  0  2  0  0  0  0  0  0
  184.4550  178.9860  143.1940 C   0  0  2  0  0  3  0  0  0  0  0  0
  186.6500  177.9030  142.4640 N   0  0  0  0  0  2  0  0  0  0  0  0
  189.1010  178.1130  137.9590 C   0  0  0  0  0  3  0  0  0  0  0  0
  187.7400  178.2870  137.7060 C   0  0  0  0  0  3  0  0  0  0  0  0
  185.9690  177.7070  144.8110 C   0  0  0  0  0  2  0  0  0  0  0  0
  185.9230  178.5650  143.5510 C   0  0  2  0  0  3  0  0  0  0  0  0
  189.1660  178.1600  141.6120 F   0  0  0  0  0  0  0  0  0  0  0  0
  184.4720  178.4950  139.4400 C   0  0  0  0  0  0  0  0  0  0  0  0
  185.4060  178.5910  138.4810 C   0  0  0  0  0  3  0  0  0  0  0  0
  190.8960  177.9020  139.5050 F   0  0  0  0  0  0  0  0  0  0  0  0
  186.2890  178.5430  141.2070 C   0  0  2  0  0  3  0  0  0  0  0  0
  188.6750  178.1620  140.3460 C   0  0  0  0  0  0  0  0  0  0  0  0
  180.5450  179.3870  140.0410 C   0  0  0  0  0  2  0  0  0  0  0  0
  183.0840  178.6320  139.0810 N   0  0  0  0  0  0  0  0  0  0  0  0
  182.3220  176.3900  138.4530 C   0  0  0  0  0  1  0  0  0  0  0  0
  180.6840  178.0530  139.3110 C   0  0  0  0  0  2  0  0  0  0  0  0
  182.1290  177.5610  139.3990 C   0  0  2  0  0  3  0  0  0  0  0  0
  182.5840  179.9110  138.5750 C   0  0  0  0  0  2  0  0  0  0  0  0
  181.5030  180.4670  139.5050 C   0  0  1  0  0  3  0  0  0  0  0  0
  181.3520  182.3560  138.0030 N   0  0  0  0  0  0  0  0  0  0  0  0
  180.7430  181.5330  138.7950 C   0  0  0  0  0  3  0  0  0  0  0  0
  180.6590  183.3920  137.3030 C   0  0  0  0  0  0  0  0  0  0  0  0
  180.7380  183.4530  135.8210 C   0  0  0  0  0  1  0  0  0  0  0  0
  179.9820  184.2560  137.9250 O   0  0  0  0  0  0  0  0  0  0  0  0
  1 19  1  0  0  0  0
  1  8  1  1  0  0  0
  2  3  1  0  0  0  0
  4 20  1  0  0  0  0
  5  4  2  0  0  0  0
  6 18  1  0  0  0  0
  6 20  2  0  0  0  0
  7  2  1  0  0  0  0
  9  8  1  6  0  0  0
  9 14  1  0  0  0  0
  9  7  1  0  0  0  0
 10 14  1  0  0  0  0
 11  6  1  0  0  0  0
 12 11  2  0  0  0  0
 12  5  1  0  0  0  0
 13  3  1  0  0  0  0
 14 13  1  1  0  0  0
 16  1  1  0  0  0  0
 17  5  1  0  0  0  0
 17 16  2  0  0  0  0
 19  4  1  6  0  0  0
 19 10  1  0  0  0  0
 20 15  1  0  0  0  0
 22 25  1  0  0  0  0
 22 16  1  0  0  0  0
 24 25  1  0  0  0  0
 24 21  1  0  0  0  0
 25 23  1  6  0  0  0
 26 22  1  0  0  0  0
 26 27  1  0  0  0  0
 27 29  1  6  0  0  0
 27 21  1  0  0  0  0
 28 29  2  0  0  0  0
 30 32  2  0  0  0  0
 30 28  1  0  0  0  0
 31 30  1  0  0  0  0
M  END
>  <MODEL>
5

>  <REMARK>
 VINA RESULT:      -8.9      3.466      6.677
  Name = 
  3 active torsions:
  status: ('A' for Active; 'I' for Inactive)
    1  A    between atoms: C_1  and  N_10
    2  A    between atoms: N_8  and  C_28
    3  A    between atoms: C_19  and  C_24
                            x       y       z     vdW  Elec       q    Type
                         _______ _______ _______ _____ _____    ______ ____

>  <TORSDO>
F 3

$$$$
=
 OpenBabel10272413263D

 32 36  0  0  1  0  0  0  0  0999 V2000
  188.7910  177.2410  141.8050 C   0  0  1  0  0  3  0  0  0  0  0  0
  184.6110  179.5380  140.5020 C   0  0  0  0  0  2  0  0  0  0  0  0
  183.8590  178.8510  141.6480 C   0  0  0  0  0  2  0  0  0  0  0  0
  189.3360  177.4790  144.2500 C   0  0  0  0  0  0  0  0  0  0  0  0
  190.6860  177.2210  143.9310 C   0  0  0  0  0  0  0  0  0  0  0  0
  189.8700  177.1910  146.6070 C   0  0  0  0  0  0  0  0  0  0  0  0
  185.7280  178.7130  140.0490 N   0  0  0  0  0  2  0  0  0  0  0  0
  187.8770  177.7110  140.6630 C   0  0  0  0  0  2  0  0  0  0  0  0
  186.7680  178.6900  141.0830 C   0  0  2  0  0  3  0  0  0  0  0  0
  187.0150  177.6100  143.3840 N   0  0  0  0  0  2  0  0  0  0  0  0
  191.1970  176.9120  146.2760 C   0  0  0  0  0  3  0  0  0  0  0  0
  191.6060  176.9340  144.9420 C   0  0  0  0  0  3  0  0  0  0  0  0
  184.7610  177.9280  142.4730 C   0  0  0  0  0  2  0  0  0  0  0  0
  186.1890  178.4610  142.5220 C   0  0  2  0  0  3  0  0  0  0  0  0
  187.6730  177.8210  145.9620 F   0  0  0  0  0  0  0  0  0  0  0  0
  190.2770  177.3330  141.5070 C   0  0  0  0  0  0  0  0  0  0  0  0
  191.1420  177.2610  142.5300 C   0  0  0  0  0  3  0  0  0  0  0  0
  189.4910  177.1880  147.9080 F   0  0  0  0  0  0  0  0  0  0  0  0
  188.4160  177.9120  143.1280 C   0  0  2  0  0  3  0  0  0  0  0  0
  188.9410  177.4940  145.6040 C   0  0  0  0  0  0  0  0  0  0  0  0
  191.0450  175.6680  137.8710 C   0  0  0  0  0  2  0  0  0  0  0  0
  190.7820  177.2920  140.1590 N   0  0  0  0  0  0  0  0  0  0  0  0
  193.1980  177.6640  140.3290 C   0  0  0  0  0  1  0  0  0  0  0  0
  192.2800  176.3970  138.3970 C   0  0  0  0  0  2  0  0  0  0  0  0
  192.1050  176.7120  139.8830 C   0  0  2  0  0  3  0  0  0  0  0  0
  189.9080  177.6480  139.0410 C   0  0  0  0  0  2  0  0  0  0  0  0
  189.7410  176.4570  138.0930 C   0  0  1  0  0  3  0  0  0  0  0  0
  187.9260  176.8620  136.5480 N   0  0  0  0  0  0  0  0  0  0  0  0
  189.1940  176.9360  136.7930 C   0  0  0  0  0  3  0  0  0  0  0  0
  187.3620  177.3100  135.3130 C   0  0  0  0  0  0  0  0  0  0  0  0
  185.8870  177.2890  135.1320 C   0  0  0  0  0  1  0  0  0  0  0  0
  188.0970  177.7210  134.3750 O   0  0  0  0  0  0  0  0  0  0  0  0
  1  8  1  6  0  0  0
  1 19  1  0  0  0  0
  2  3  1  0  0  0  0
  3 13  1  0  0  0  0
  4 20  1  0  0  0  0
  5  4  2  0  0  0  0
  5 12  1  0  0  0  0
  6 18  1  0  0  0  0
  7  2  1  0  0  0  0
  7  9  1  0  0  0  0
  9  8  1  6  0  0  0
  9 14  1  0  0  0  0
 11  6  1  0  0  0  0
 12 11  2  0  0  0  0
 14 13  1  6  0  0  0
 14 10  1  0  0  0  0
 16  1  1  0  0  0  0
 16 17  2  0  0  0  0
 17  5  1  0  0  0  0
 19 10  1  1  0  0  0
 19  4  1  0  0  0  0
 20 15  1  0  0  0  0
 20  6  2  0  0  0  0
 21 27  1  0  0  0  0
 21 24  1  0  0  0  0
 22 16  1  0  0  0  0
 24 25  1  0  0  0  0
 25 22  1  0  0  0  0
 25 23  1  6  0  0  0
 26 22  1  0  0  0  0
 27 29  1  6  0  0  0
 27 26  1  0  0  0  0
 28 29  2  0  0  0  0
 30 28  1  0  0  0  0
 31 30  1  0  0  0  0
 32 30  2  0  0  0  0
M  END
>  <MODEL>
6

>  <REMARK>
 VINA RESULT:      -8.8      2.296      5.613
  Name = 
  3 active torsions:
  status: ('A' for Active; 'I' for Inactive)
    1  A    between atoms: C_1  and  N_10
    2  A    between atoms: N_8  and  C_28
    3  A    between atoms: C_19  and  C_24
                            x       y       z     vdW  Elec       q    Type
                         _______ _______ _______ _____ _____    ______ ____

>  <TORSDO>
F 3

$$$$
=
 OpenBabel10272413263D

 32 36  0  0  1  0  0  0  0  0999 V2000
  188.6150  176.9600  143.6870 C   0  0  1  0  0  3  0  0  0  0  0  0
  191.1970  177.0300  147.9030 C   0  0  0  0  0  2  0  0  0  0  0  0
  192.2240  176.0600  147.3070 C   0  0  0  0  0  2  0  0  0  0  0  0
  190.0250  177.4060  141.6510 C   0  0  0  0  0  0  0  0  0  0  0  0
  188.8530  177.8170  140.9810 C   0  0  0  0  0  0  0  0  0  0  0  0
  191.1980  177.3840  139.5180 C   0  0  0  0  0  0  0  0  0  0  0  0
  189.8850  176.8300  147.2930 N   0  0  0  0  0  2  0  0  0  0  0  0
  188.5820  176.9540  145.2230 C   0  0  0  0  0  2  0  0  0  0  0  0
  189.9200  177.2920  145.9010 C   0  0  2  0  0  3  0  0  0  0  0  0
  190.9620  176.4360  143.7320 N   0  0  0  0  0  2  0  0  0  0  0  0
  190.0240  177.7660  138.8650 C   0  0  0  0  0  3  0  0  0  0  0  0
  188.8560  177.9890  139.5950 C   0  0  0  0  0  3  0  0  0  0  0  0
  191.8910  175.6640  145.8660 C   0  0  0  0  0  2  0  0  0  0  0  0
  191.1960  176.8060  145.1320 C   0  0  2  0  0  3  0  0  0  0  0  0
  192.3810  176.9110  141.5220 F   0  0  0  0  0  0  0  0  0  0  0  0
  187.4920  177.7430  143.0310 C   0  0  0  0  0  0  0  0  0  0  0  0
  187.6150  178.0780  141.7370 C   0  0  0  0  0  3  0  0  0  0  0  0
  192.3310  177.1920  138.8000 F   0  0  0  0  0  0  0  0  0  0  0  0
  189.9950  177.3640  143.1630 C   0  0  2  0  0  3  0  0  0  0  0  0
  191.2100  177.2220  140.9090 C   0  0  0  0  0  0  0  0  0  0  0  0
  184.2190  179.8600  144.2080 C   0  0  0  0  0  2  0  0  0  0  0  0
  186.2310  177.9560  143.6930 N   0  0  0  0  0  0  0  0  0  0  0  0
  186.6390  177.5530  146.0750 C   0  0  0  0  0  1  0  0  0  0  0  0
  184.7900  179.0630  145.3790 C   0  0  0  0  0  2  0  0  0  0  0  0
  186.1920  178.5600  145.0320 C   0  0  2  0  0  3  0  0  0  0  0  0
  184.9800  177.7510  142.9620 C   0  0  0  0  0  2  0  0  0  0  0  0
  184.1810  179.0550  142.8960 C   0  0  1  0  0  3  0  0  0  0  0  0
  182.4230  178.7280  141.2670 N   0  0  0  0  0  0  0  0  0  0  0  0
  182.7740  178.7510  142.5130 C   0  0  0  0  0  3  0  0  0  0  0  0
  181.0840  178.4410  140.8580 C   0  0  0  0  0  0  0  0  0  0  0  0
  180.8470  177.4720  139.7570 C   0  0  0  0  0  1  0  0  0  0  0  0
  180.1010  178.9990  141.4170 O   0  0  0  0  0  0  0  0  0  0  0  0
  1  8  1  1  0  0  0
  3  2  1  0  0  0  0
  5  4  1  0  0  0  0
  5 17  1  0  0  0  0
  6 20  1  0  0  0  0
  7  2  1  0  0  0  0
  9  8  1  6  0  0  0
  9  7  1  0  0  0  0
 10 14  1  0  0  0  0
 11  6  2  0  0  0  0
 11 12  1  0  0  0  0
 12  5  2  0  0  0  0
 13  3  1  0  0  0  0
 14 13  1  1  0  0  0
 14  9  1  0  0  0  0
 16  1  1  0  0  0  0
 16 22  1  0  0  0  0
 17 16  2  0  0  0  0
 18  6  1  0  0  0  0
 19  4  1  6  0  0  0
 19  1  1  0  0  0  0
 19 10  1  0  0  0  0
 20 15  1  0  0  0  0
 20  4  2  0  0  0  0
 21 24  1  0  0  0  0
 22 25  1  0  0  0  0
 25 24  1  0  0  0  0
 25 23  1  1  0  0  0
 26 22  1  0  0  0  0
 27 29  1  1  0  0  0
 27 26  1  0  0  0  0
 27 21  1  0  0  0  0
 28 29  2  0  0  0  0
 30 28  1  0  0  0  0
 30 32  2  0  0  0  0
 31 30  1  0  0  0  0
M  END
>  <MODEL>
7

>  <REMARK>
 VINA RESULT:      -8.7      2.119      4.801
  Name = 
  3 active torsions:
  status: ('A' for Active; 'I' for Inactive)
    1  A    between atoms: C_1  and  N_10
    2  A    between atoms: N_8  and  C_28
    3  A    between atoms: C_19  and  C_24
                            x       y       z     vdW  Elec       q    Type
                         _______ _______ _______ _____ _____    ______ ____

>  <TORSDO>
F 3

$$$$
=
 OpenBabel10272413263D

 32 36  0  0  1  0  0  0  0  0999 V2000
  186.8090  177.8180  141.8540 C   0  0  1  0  0  3  0  0  0  0  0  0
  183.4650  179.9200  138.8800 C   0  0  0  0  0  2  0  0  0  0  0  0
  182.3270  179.2610  139.6690 C   0  0  0  0  0  2  0  0  0  0  0  0
  186.3340  178.1820  144.2980 C   0  0  0  0  0  0  0  0  0  0  0  0
  187.7020  177.9540  144.5550 C   0  0  0  0  0  0  0  0  0  0  0  0
  185.8910  178.0180  146.6860 C   0  0  0  0  0  0  0  0  0  0  0  0
  184.6790  179.1100  138.9520 N   0  0  0  0  0  2  0  0  0  0  0  0
  186.4180  178.2070  140.4200 C   0  0  0  0  0  2  0  0  0  0  0  0
  185.2230  179.1680  140.3130 C   0  0  2  0  0  3  0  0  0  0  0  0
  184.5470  178.2010  142.5780 N   0  0  0  0  0  2  0  0  0  0  0  0
  187.2440  177.7670  146.9230 C   0  0  0  0  0  3  0  0  0  0  0  0
  188.1490  177.7410  145.8620 C   0  0  0  0  0  3  0  0  0  0  0  0
  182.8380  178.4060  140.8330 C   0  0  0  0  0  2  0  0  0  0  0  0
  184.1230  178.9850  141.4140 C   0  0  2  0  0  3  0  0  0  0  0  0
  184.1240  178.5480  145.1900 F   0  0  0  0  0  0  0  0  0  0  0  0
  188.2890  177.9430  142.1650 C   0  0  0  0  0  0  0  0  0  0  0  0
  188.6770  177.9450  143.4500 C   0  0  0  0  0  3  0  0  0  0  0  0
  185.0260  178.0610  147.7290 F   0  0  0  0  0  0  0  0  0  0  0  0
  185.9310  178.5350  142.8830 C   0  0  2  0  0  3  0  0  0  0  0  0
  185.4340  178.2460  145.3820 C   0  0  0  0  0  0  0  0  0  0  0  0
  190.3370  176.2040  139.1050 C   0  0  0  0  0  2  0  0  0  0  0  0
  189.2890  177.8570  141.1320 N   0  0  0  0  0  0  0  0  0  0  0  0
  191.4530  178.0570  142.2640 C   0  0  0  0  0  1  0  0  0  0  0  0
  191.3030  176.8460  140.0980 C   0  0  0  0  0  2  0  0  0  0  0  0
  190.5680  177.1820  141.3960 C   0  0  2  0  0  3  0  0  0  0  0  0
  188.9640  178.2680  139.7660 C   0  0  0  0  0  2  0  0  0  0  0  0
  189.1110  177.0860  138.8040 C   0  0  1  0  0  3  0  0  0  0  0  0
  188.3340  177.1570  136.5150 N   0  0  0  0  0  0  0  0  0  0  0  0
  189.1660  177.5940  137.4050 C   0  0  0  0  0  3  0  0  0  0  0  0
  188.3540  177.6180  135.1620 C   0  0  0  0  0  0  0  0  0  0  0  0
  187.0770  177.9800  134.4940 C   0  0  0  0  0  1  0  0  0  0  0  0
  189.4390  177.7220  134.5280 O   0  0  0  0  0  0  0  0  0  0  0  0
  1  8  1  6  0  0  0
  1 16  1  0  0  0  0
  1 19  1  0  0  0  0
  2  7  1  0  0  0  0
  2  3  1  0  0  0  0
  3 13  1  0  0  0  0
  4  5  2  0  0  0  0
  4 20  1  0  0  0  0
  5 12  1  0  0  0  0
  6 11  1  0  0  0  0
  6 18  1  0  0  0  0
  7  9  1  0  0  0  0
  9  8  1  6  0  0  0
  9 14  1  0  0  0  0
 12 11  2  0  0  0  0
 14 13  1  6  0  0  0
 14 10  1  0  0  0  0
 15 20  1  0  0  0  0
 16 17  2  0  0  0  0
 17  5  1  0  0  0  0
 19 10  1  6  0  0  0
 19  4  1  0  0  0  0
 20  6  2  0  0  0  0
 21 24  1  0  0  0  0
 22 25  1  0  0  0  0
 22 16  1  0  0  0  0
 24 25  1  0  0  0  0
 25 23  1  1  0  0  0
 26 22  1  0  0  0  0
 27 29  1  6  0  0  0
 27 21  1  0  0  0  0
 27 26  1  0  0  0  0
 28 29  2  0  0  0  0
 30 28  1  0  0  0  0
 31 30  1  0  0  0  0
 32 30  2  0  0  0  0
M  END
>  <MODEL>
8

>  <REMARK>
 VINA RESULT:      -8.7      2.975      6.021
  Name = 
  3 active torsions:
  status: ('A' for Active; 'I' for Inactive)
    1  A    between atoms: C_1  and  N_10
    2  A    between atoms: N_8  and  C_28
    3  A    between atoms: C_19  and  C_24
                            x       y       z     vdW  Elec       q    Type
                         _______ _______ _______ _____ _____    ______ ____

>  <TORSDO>
F 3

$$$$
=
 OpenBabel10272413263D

 32 36  0  0  1  0  0  0  0  0999 V2000
  187.5770  177.5810  143.3980 C   0  0  1  0  0  3  0  0  0  0  0  0
  191.7890  177.7970  140.8180 C   0  0  0  0  0  2  0  0  0  0  0  0
  191.1290  177.0550  139.6500 C   0  0  0  0  0  2  0  0  0  0  0  0
  185.5770  178.3910  142.1050 C   0  0  0  0  0  0  0  0  0  0  0  0
  184.9360  178.6450  143.3360 C   0  0  0  0  0  0  0  0  0  0  0  0
  183.4480  178.7100  140.9680 C   0  0  0  0  0  0  0  0  0  0  0  0
  191.1660  177.4230  142.0850 N   0  0  0  0  0  2  0  0  0  0  0  0
  189.1090  177.4660  143.4130 C   0  0  0  0  0  2  0  0  0  0  0  0
  189.8090  177.9760  142.1430 C   0  0  2  0  0  3  0  0  0  0  0  0
  187.5880  177.4550  140.9960 N   0  0  0  0  0  2  0  0  0  0  0  0
  182.8210  178.9330  142.1950 C   0  0  0  0  0  3  0  0  0  0  0  0
  183.5640  178.9080  143.3760 C   0  0  0  0  0  3  0  0  0  0  0  0
  189.6640  176.7060  139.9280 C   0  0  0  0  0  2  0  0  0  0  0  0
  189.0090  177.7630  140.8120 C   0  0  2  0  0  3  0  0  0  0  0  0
  185.4160  178.3070  139.7010 F   0  0  0  0  0  0  0  0  0  0  0  0
  186.9750  178.2070  144.6430 C   0  0  0  0  0  0  0  0  0  0  0  0
  185.7070  178.6450  144.5920 C   0  0  0  0  0  3  0  0  0  0  0  0
  182.7190  178.7580  139.8260 F   0  0  0  0  0  0  0  0  0  0  0  0
  187.0830  178.2440  142.1100 C   0  0  2  0  0  3  0  0  0  0  0  0
  184.8240  178.4590  140.9130 C   0  0  0  0  0  0  0  0  0  0  0  0
  188.6340  176.4340  147.9110 C   0  0  0  0  0  2  0  0  0  0  0  0
  187.6490  178.1610  145.9150 N   0  0  0  0  0  0  0  0  0  0  0  0
  186.2100  179.3680  147.4880 C   0  0  0  0  0  1  0  0  0  0  0  0
  187.7550  177.6110  148.3300 C   0  0  0  0  0  2  0  0  0  0  0  0
  186.8740  178.0440  147.1580 C   0  0  2  0  0  3  0  0  0  0  0  0
  189.1060  178.0370  145.9640 C   0  0  0  0  0  2  0  0  0  0  0  0
  189.5070  176.7450  146.6810 C   0  0  1  0  0  3  0  0  0  0  0  0
  191.4490  175.9620  147.8910 N   0  0  0  0  0  0  0  0  0  0  0  0
  190.9430  176.8230  147.0670 C   0  0  0  0  0  3  0  0  0  0  0  0
  192.8220  176.0020  148.2870 C   0  0  0  0  0  0  0  0  0  0  0  0
  193.1990  176.6930  149.5480 C   0  0  0  0  0  1  0  0  0  0  0  0
  193.7170  175.4620  147.5830 O   0  0  0  0  0  0  0  0  0  0  0  0
  1  8  1  1  0  0  0
  1 16  1  0  0  0  0
  2  7  1  0  0  0  0
  3 13  1  0  0  0  0
  3  2  1  0  0  0  0
  4 19  1  0  0  0  0
  4  5  1  0  0  0  0
  5 12  2  0  0  0  0
  5 17  1  0  0  0  0
  6 11  2  0  0  0  0
  7  9  1  0  0  0  0
  9  8  1  1  0  0  0
 11 12  1  0  0  0  0
 14 13  1  1  0  0  0
 14 10  1  0  0  0  0
 14  9  1  0  0  0  0
 15 20  1  0  0  0  0
 16 22  1  0  0  0  0
 17 16  2  0  0  0  0
 18  6  1  0  0  0  0
 19 10  1  6  0  0  0
 19  1  1  0  0  0  0
 20  6  1  0  0  0  0
 20  4  2  0  0  0  0
 21 24  1  0  0  0  0
 22 26  1  0  0  0  0
 22 25  1  0  0  0  0
 25 23  1  1  0  0  0
 25 24  1  0  0  0  0
 26 27  1  0  0  0  0
 27 29  1  1  0  0  0
 27 21  1  0  0  0  0
 28 30  1  0  0  0  0
 29 28  2  0  0  0  0
 30 31  1  0  0  0  0
 32 30  2  0  0  0  0
M  END
>  <MODEL>
9

>  <REMARK>
 VINA RESULT:      -8.5      3.875      7.331
  Name = 
  3 active torsions:
  status: ('A' for Active; 'I' for Inactive)
    1  A    between atoms: C_1  and  N_10
    2  A    between atoms: N_8  and  C_28
    3  A    between atoms: C_19  and  C_24
                            x       y       z     vdW  Elec       q    Type
                         _______ _______ _______ _____ _____    ______ ____

>  <TORSDO>
F 3

$$$$
