=
 OpenBabel10272401553D

 28 32  0  0  1  0  0  0  0  0999 V2000
  188.1370  178.0940  140.4920 N   0  0  0  0  0  0  0  0  0  0  0  0
  188.0460  177.2190  145.5850 C   0  0  0  0  0  3  0  0  0  0  0  0
  183.9470  177.5470  141.9370 O   0  0  0  0  0  1  0  0  0  0  0  0
  186.0970  178.5410  146.1880 C   0  0  0  0  0  0  0  0  0  0  0  0
  186.3790  177.7740  143.7830 C   0  0  2  0  0  3  0  0  0  0  0  0
  187.7200  177.9160  147.8790 C   0  0  0  0  0  0  0  0  0  0  0  0
  186.8750  177.8880  145.2030 C   0  0  0  0  0  0  0  0  0  0  0  0
  184.2310  178.8640  144.5130 C   0  0  0  0  0  2  0  0  0  0  0  0
  186.5380  178.5650  147.5150 C   0  0  0  0  0  3  0  0  0  0  0  0
  185.9310  178.5120  141.0980 C   0  0  0  0  0  0  0  0  0  0  0  0
  187.4810  177.7880  142.8070 N   0  0  0  0  0  2  0  0  0  0  0  0
  184.8440  179.3030  145.8400 C   0  0  0  0  0  2  0  0  0  0  0  0
  186.0600  178.7330  139.7930 C   0  0  0  0  0  0  0  0  0  0  0  0
  184.7590  178.6810  142.0150 C   0  0  2  0  0  3  0  0  0  0  0  0
  184.9770  179.2090  138.8900 C   0  0  0  0  0  1  0  0  0  0  0  0
  188.1470  177.9410  149.1990 O   0  0  0  0  0  1  0  0  0  0  0  0
  188.4710  177.2390  146.9150 C   0  0  0  0  0  3  0  0  0  0  0  0
  185.3150  178.8500  143.4460 C   0  0  2  0  0  3  0  0  0  0  0  0
  187.4020  178.4680  139.3570 N   0  0  0  0  0  0  0  0  0  0  0  0
  187.2190  178.0720  141.5690 C   0  0  0  0  0  0  0  0  0  0  0  0
  189.4280  177.4260  140.4430 C   0  0  0  0  0  2  0  0  0  0  0  0
  190.0560  177.4160  141.7950 C   0  0  0  0  0  0  0  0  0  0  0  0
  191.2920  177.3960  144.3040 C   0  0  0  0  0  0  0  0  0  0  0  0
  190.3900  178.6230  142.4210 C   0  0  0  0  0  3  0  0  0  0  0  0
  190.3510  176.2000  142.4210 C   0  0  0  0  0  3  0  0  0  0  0  0
  190.9670  176.1900  143.6750 C   0  0  0  0  0  3  0  0  0  0  0  0
  191.8890  177.3860  145.5200 F   0  0  0  0  0  0  0  0  0  0  0  0
  191.0050  178.6120  143.6770 C   0  0  0  0  0  3  0  0  0  0  0  0
  1 20  1  0  0  0  0
  2 17  1  0  0  0  0
  4  9  2  0  0  0  0
  5 11  1  6  0  0  0
  5  7  1  0  0  0  0
  6 16  1  0  0  0  0
  7  2  2  0  0  0  0
  7  4  1  0  0  0  0
  8 12  1  0  0  0  0
  9  6  1  0  0  0  0
 10 20  2  0  0  0  0
 10 14  1  0  0  0  0
 12  4  1  0  0  0  0
 13 10  1  0  0  0  0
 14  3  1  1  0  0  0
 14 18  1  0  0  0  0
 15 13  1  0  0  0  0
 17  6  2  0  0  0  0
 18  5  1  0  0  0  0
 18  8  1  1  0  0  0
 19 13  2  0  0  0  0
 19  1  1  0  0  0  0
 20 11  1  0  0  0  0
 21  1  1  0  0  0  0
 21 22  1  0  0  0  0
 22 25  2  0  0  0  0
 22 24  1  0  0  0  0
 23 27  1  0  0  0  0
 24 28  2  0  0  0  0
 25 26  1  0  0  0  0
 26 23  2  0  0  0  0
 28 23  1  0  0  0  0
M  END
>  <MODEL>
1

>  <REMARK>
 VINA RESULT:     -10.2      0.000      0.000
  Name = 
  2 active torsions:
  status: ('A' for Active; 'I' for Inactive)
    1  A    between atoms: N_1  and  C_2
    2  A    between atoms: C_2  and  C_3
                            x       y       z     vdW  Elec       q    Type
                         _______ _______ _______ _____ _____    ______ ____

>  <TORSDO>
F 2

$$$$
=
 OpenBabel10272401553D

 28 32  0  0  1  0  0  0  0  0999 V2000
  187.3200  178.4010  140.1000 N   0  0  0  0  0  0  0  0  0  0  0  0
  188.0680  177.2350  145.0790 C   0  0  0  0  0  3  0  0  0  0  0  0
  183.4290  177.6570  142.1620 O   0  0  0  0  0  1  0  0  0  0  0  0
  186.2190  178.4670  146.0660 C   0  0  0  0  0  0  0  0  0  0  0  0
  186.1230  177.8450  143.6040 C   0  0  2  0  0  3  0  0  0  0  0  0
  188.1050  177.7910  147.4340 C   0  0  0  0  0  0  0  0  0  0  0  0
  186.8400  177.8920  144.9310 C   0  0  0  0  0  0  0  0  0  0  0  0
  184.1010  178.8320  144.7330 C   0  0  0  0  0  2  0  0  0  0  0  0
  186.8680  178.4270  147.3040 C   0  0  0  0  0  3  0  0  0  0  0  0
  185.2340  178.7220  141.0760 C   0  0  0  0  0  0  0  0  0  0  0  0
  187.0520  177.9450  142.4670 N   0  0  0  0  0  2  0  0  0  0  0  0
  184.9130  179.2120  145.9700 C   0  0  0  0  0  2  0  0  0  0  0  0
  185.1460  179.0210  139.7820 C   0  0  0  0  0  0  0  0  0  0  0  0
  184.2220  178.8070  142.1770 C   0  0  2  0  0  3  0  0  0  0  0  0
  183.9230  179.5180  139.0960 C   0  0  0  0  0  1  0  0  0  0  0  0
  188.7390  177.7530  148.6680 O   0  0  0  0  0  1  0  0  0  0  0  0
  188.7030  177.1910  146.3230 C   0  0  0  0  0  3  0  0  0  0  0  0
  184.9990  178.9090  143.5080 C   0  0  2  0  0  3  0  0  0  0  0  0
  186.4040  178.8180  139.1220 N   0  0  0  0  0  0  0  0  0  0  0  0
  186.5890  178.2920  141.3070 C   0  0  0  0  0  0  0  0  0  0  0  0
  188.5980  177.7720  139.8050 C   0  0  0  0  0  2  0  0  0  0  0  0
  188.6770  177.4180  138.3590 C   0  0  0  0  0  0  0  0  0  0  0  0
  188.8840  176.7300  135.6560 C   0  0  0  0  0  0  0  0  0  0  0  0
  188.2400  176.1620  137.9200 C   0  0  0  0  0  3  0  0  0  0  0  0
  189.2260  178.3240  137.4460 C   0  0  0  0  0  3  0  0  0  0  0  0
  189.3280  177.9810  136.0950 C   0  0  0  0  0  3  0  0  0  0  0  0
  188.9820  176.3970  134.3460 F   0  0  0  0  0  0  0  0  0  0  0  0
  188.3410  175.8200  136.5690 C   0  0  0  0  0  3  0  0  0  0  0  0
  1 20  1  0  0  0  0
  2 17  1  0  0  0  0
  4  9  2  0  0  0  0
  5 11  1  6  0  0  0
  5  7  1  0  0  0  0
  6 16  1  0  0  0  0
  7  2  2  0  0  0  0
  7  4  1  0  0  0  0
  8 12  1  0  0  0  0
  9  6  1  0  0  0  0
 10 20  2  0  0  0  0
 10 14  1  0  0  0  0
 12  4  1  0  0  0  0
 13 10  1  0  0  0  0
 14  3  1  1  0  0  0
 14 18  1  0  0  0  0
 15 13  1  0  0  0  0
 17  6  2  0  0  0  0
 18  5  1  0  0  0  0
 18  8  1  1  0  0  0
 19 13  2  0  0  0  0
 19  1  1  0  0  0  0
 20 11  1  0  0  0  0
 21  1  1  0  0  0  0
 22 21  1  0  0  0  0
 23 26  2  0  0  0  0
 23 28  1  0  0  0  0
 24 22  1  0  0  0  0
 25 22  2  0  0  0  0
 26 25  1  0  0  0  0
 27 23  1  0  0  0  0
 28 24  2  0  0  0  0
M  END
>  <MODEL>
2

>  <REMARK>
 VINA RESULT:      -9.7      2.863      3.914
  Name = 
  2 active torsions:
  status: ('A' for Active; 'I' for Inactive)
    1  A    between atoms: N_1  and  C_2
    2  A    between atoms: C_2  and  C_3
                            x       y       z     vdW  Elec       q    Type
                         _______ _______ _______ _____ _____    ______ ____

>  <TORSDO>
F 2

$$$$
=
 OpenBabel10272401553D

 28 32  0  0  1  0  0  0  0  0999 V2000
  188.0360  177.6020  138.1400 N   0  0  0  0  0  0  0  0  0  0  0  0
  185.7570  179.1760  142.5040 C   0  0  0  0  0  3  0  0  0  0  0  0
  190.9950  177.8660  141.4740 O   0  0  0  0  0  1  0  0  0  0  0  0
  186.8980  177.7380  144.0980 C   0  0  0  0  0  0  0  0  0  0  0  0
  187.9730  178.1840  141.8390 C   0  0  2  0  0  3  0  0  0  0  0  0
  184.7880  178.7790  144.6850 C   0  0  0  0  0  0  0  0  0  0  0  0
  186.8300  178.3290  142.8140 C   0  0  0  0  0  0  0  0  0  0  0  0
  189.2610  176.9690  143.6270 C   0  0  0  0  0  2  0  0  0  0  0  0
  185.8650  177.9530  145.0150 C   0  0  0  0  0  3  0  0  0  0  0  0
  189.5500  177.0250  139.8080 C   0  0  0  0  0  0  0  0  0  0  0  0
  187.5100  178.1570  140.4420 N   0  0  0  0  0  2  0  0  0  0  0  0
  188.0100  176.7960  144.4840 C   0  0  0  0  0  2  0  0  0  0  0  0
  190.0440  176.6380  138.6360 C   0  0  0  0  0  0  0  0  0  0  0  0
  190.0710  176.8550  141.2020 C   0  0  2  0  0  3  0  0  0  0  0  0
  191.3320  175.9170  138.4420 C   0  0  0  0  0  1  0  0  0  0  0  0
  183.7690  178.9900  145.6030 O   0  0  0  0  0  1  0  0  0  0  0  0
  184.7360  179.3930  143.4320 C   0  0  0  0  0  3  0  0  0  0  0  0
  188.8630  176.9560  142.1600 C   0  0  2  0  0  3  0  0  0  0  0  0
  189.1590  176.9900  137.5620 N   0  0  0  0  0  0  0  0  0  0  0  0
  188.2930  177.6720  139.5290 C   0  0  0  0  0  0  0  0  0  0  0  0
  187.0720  178.4010  137.3990 C   0  0  0  0  0  2  0  0  0  0  0  0
  185.6890  177.9070  137.6530 C   0  0  0  0  0  0  0  0  0  0  0  0
  183.1150  176.9480  138.1820 C   0  0  0  0  0  0  0  0  0  0  0  0
  184.8110  178.6560  138.4450 C   0  0  0  0  0  3  0  0  0  0  0  0
  185.2810  176.6730  137.1360 C   0  0  0  0  0  3  0  0  0  0  0  0
  183.9940  176.1940  137.3990 C   0  0  0  0  0  3  0  0  0  0  0  0
  181.8680  176.4840  138.4370 F   0  0  0  0  0  0  0  0  0  0  0  0
  183.5240  178.1780  138.7060 C   0  0  0  0  0  3  0  0  0  0  0  0
  1 20  1  0  0  0  0
  2  7  2  0  0  0  0
  2 17  1  0  0  0  0
  4 12  1  0  0  0  0
  4  9  2  0  0  0  0
  5 11  1  6  0  0  0
  5 18  1  0  0  0  0
  5  7  1  0  0  0  0
  6  9  1  0  0  0  0
  6 16  1  0  0  0  0
  7  4  1  0  0  0  0
  8 12  1  0  0  0  0
 10 14  1  0  0  0  0
 13 10  1  0  0  0  0
 14  3  1  1  0  0  0
 14 18  1  0  0  0  0
 15 13  1  0  0  0  0
 17  6  2  0  0  0  0
 18  8  1  1  0  0  0
 19  1  1  0  0  0  0
 19 13  2  0  0  0  0
 20 10  2  0  0  0  0
 20 11  1  0  0  0  0
 21 22  1  0  0  0  0
 21  1  1  0  0  0  0
 22 24  1  0  0  0  0
 23 27  1  0  0  0  0
 23 28  1  0  0  0  0
 24 28  2  0  0  0  0
 25 26  1  0  0  0  0
 25 22  2  0  0  0  0
 26 23  2  0  0  0  0
M  END
>  <MODEL>
3

>  <REMARK>
 VINA RESULT:      -9.3      3.292      5.881
  Name = 
  2 active torsions:
  status: ('A' for Active; 'I' for Inactive)
    1  A    between atoms: N_1  and  C_2
    2  A    between atoms: C_2  and  C_3
                            x       y       z     vdW  Elec       q    Type
                         _______ _______ _______ _____ _____    ______ ____

>  <TORSDO>
F 2

$$$$
=
 OpenBabel10272401553D

 28 32  0  0  1  0  0  0  0  0999 V2000
  188.5950  178.1720  140.8230 N   0  0  0  0  0  0  0  0  0  0  0  0
  190.9690  176.3160  145.0220 C   0  0  0  0  0  3  0  0  0  0  0  0
  185.6200  176.9110  143.9050 O   0  0  0  0  0  1  0  0  0  0  0  0
  189.5530  177.2810  146.7470 C   0  0  0  0  0  0  0  0  0  0  0  0
  188.6400  177.0310  144.3890 C   0  0  2  0  0  3  0  0  0  0  0  0
  191.7890  176.5150  147.2900 C   0  0  0  0  0  0  0  0  0  0  0  0
  189.7600  176.9190  145.3940 C   0  0  0  0  0  0  0  0  0  0  0  0
  187.1100  177.7230  146.2640 C   0  0  0  0  0  2  0  0  0  0  0  0
  190.5790  177.0930  147.6780 C   0  0  0  0  0  3  0  0  0  0  0  0
  186.9550  178.2260  142.4690 C   0  0  0  0  0  0  0  0  0  0  0  0
  189.1350  177.3520  143.0410 N   0  0  0  0  0  2  0  0  0  0  0  0
  188.2880  177.9590  147.2070 C   0  0  0  0  0  2  0  0  0  0  0  0
  186.4390  178.7100  141.3430 C   0  0  0  0  0  0  0  0  0  0  0  0
  186.3690  178.0880  143.8410 C   0  0  2  0  0  3  0  0  0  0  0  0
  185.0550  179.2350  141.1860 C   0  0  0  0  0  1  0  0  0  0  0  0
  192.8000  176.3280  148.2220 O   0  0  0  0  0  1  0  0  0  0  0  0
  191.9830  176.1230  145.9630 C   0  0  0  0  0  3  0  0  0  0  0  0
  187.5460  178.0330  144.8400 C   0  0  2  0  0  3  0  0  0  0  0  0
  187.4040  178.6790  140.2810 N   0  0  0  0  0  0  0  0  0  0  0  0
  188.3100  177.8430  142.1680 C   0  0  0  0  0  0  0  0  0  0  0  0
  189.7030  177.6670  140.0250 C   0  0  0  0  0  2  0  0  0  0  0  0
  189.2820  177.4980  138.6060 C   0  0  0  0  0  0  0  0  0  0  0  0
  188.5520  177.1660  135.9260 C   0  0  0  0  0  0  0  0  0  0  0  0
  188.8510  176.2480  138.1470 C   0  0  0  0  0  3  0  0  0  0  0  0
  189.3570  178.5780  137.7200 C   0  0  0  0  0  3  0  0  0  0  0  0
  188.9910  178.4130  136.3820 C   0  0  0  0  0  3  0  0  0  0  0  0
  188.1970  177.0060  134.6280 F   0  0  0  0  0  0  0  0  0  0  0  0
  188.4840  176.0830  136.8080 C   0  0  0  0  0  3  0  0  0  0  0  0
  1 20  1  0  0  0  0
  2  7  2  0  0  0  0
  2 17  1  0  0  0  0
  4 12  1  0  0  0  0
  4  9  2  0  0  0  0
  5 11  1  6  0  0  0
  5 18  1  0  0  0  0
  5  7  1  0  0  0  0
  6  9  1  0  0  0  0
  6 16  1  0  0  0  0
  7  4  1  0  0  0  0
  8 12  1  0  0  0  0
 10 14  1  0  0  0  0
 13 10  1  0  0  0  0
 14  3  1  6  0  0  0
 14 18  1  0  0  0  0
 15 13  1  0  0  0  0
 17  6  2  0  0  0  0
 18  8  1  1  0  0  0
 19  1  1  0  0  0  0
 19 13  2  0  0  0  0
 20 10  2  0  0  0  0
 20 11  1  0  0  0  0
 21  1  1  0  0  0  0
 22 21  1  0  0  0  0
 23 26  2  0  0  0  0
 23 28  1  0  0  0  0
 24 22  1  0  0  0  0
 25 22  2  0  0  0  0
 26 25  1  0  0  0  0
 27 23  1  0  0  0  0
 28 24  2  0  0  0  0
M  END
>  <MODEL>
4

>  <REMARK>
 VINA RESULT:      -9.2      3.147      4.551
  Name = 
  2 active torsions:
  status: ('A' for Active; 'I' for Inactive)
    1  A    between atoms: N_1  and  C_2
    2  A    between atoms: C_2  and  C_3
                            x       y       z     vdW  Elec       q    Type
                         _______ _______ _______ _____ _____    ______ ____

>  <TORSDO>
F 2

$$$$
=
 OpenBabel10272401553D

 28 32  0  0  1  0  0  0  0  0999 V2000
  188.9280  177.9110  137.7450 N   0  0  0  0  0  0  0  0  0  0  0  0
  186.1610  179.1390  141.9340 C   0  0  0  0  0  3  0  0  0  0  0  0
  191.4790  177.8520  141.4100 O   0  0  0  0  0  1  0  0  0  0  0  0
  187.1040  177.5560  143.5210 C   0  0  0  0  0  0  0  0  0  0  0  0
  188.4350  178.1770  141.4480 C   0  0  2  0  0  3  0  0  0  0  0  0
  184.9430  178.5720  143.9460 C   0  0  0  0  0  0  0  0  0  0  0  0
  187.1880  178.2550  142.2930 C   0  0  0  0  0  0  0  0  0  0  0  0
  189.5030  176.7990  143.2630 C   0  0  0  0  0  2  0  0  0  0  0  0
  185.9710  177.7070  144.3270 C   0  0  0  0  0  3  0  0  0  0  0  0
  190.2350  177.1750  139.5220 C   0  0  0  0  0  0  0  0  0  0  0  0
  188.1380  178.2760  140.0100 N   0  0  0  0  0  2  0  0  0  0  0  0
  188.1590  176.5700  143.9510 C   0  0  0  0  0  2  0  0  0  0  0  0
  190.8610  176.8810  138.3860 C   0  0  0  0  0  0  0  0  0  0  0  0
  190.5890  176.8800  140.9470 C   0  0  2  0  0  3  0  0  0  0  0  0
  192.1600  176.1620  138.2810 C   0  0  0  0  0  1  0  0  0  0  0  0
  183.8250  178.7180  144.7560 O   0  0  0  0  0  1  0  0  0  0  0  0
  185.0390  179.2910  142.7530 C   0  0  0  0  0  3  0  0  0  0  0  0
  189.2780  176.9150  141.7630 C   0  0  2  0  0  3  0  0  0  0  0  0
  190.1080  177.3350  137.2510 N   0  0  0  0  0  0  0  0  0  0  0  0
  189.0210  177.8590  139.1560 C   0  0  0  0  0  0  0  0  0  0  0  0
  188.0590  178.7820  136.9680 C   0  0  0  0  0  2  0  0  0  0  0  0
  186.8250  178.0510  136.5620 C   0  0  0  0  0  0  0  0  0  0  0  0
  184.4840  176.7360  135.7810 C   0  0  0  0  0  0  0  0  0  0  0  0
  186.7050  177.5480  135.2610 C   0  0  0  0  0  3  0  0  0  0  0  0
  185.7690  177.9050  137.4670 C   0  0  0  0  0  3  0  0  0  0  0  0
  184.5990  177.2460  137.0780 C   0  0  0  0  0  3  0  0  0  0  0  0
  183.3500  176.0960  135.4030 F   0  0  0  0  0  0  0  0  0  0  0  0
  185.5350  176.8880  134.8730 C   0  0  0  0  0  3  0  0  0  0  0  0
  1 20  1  0  0  0  0
  2  7  2  0  0  0  0
  2 17  1  0  0  0  0
  4 12  1  0  0  0  0
  4  9  2  0  0  0  0
  5 11  1  6  0  0  0
  5 18  1  0  0  0  0
  5  7  1  0  0  0  0
  6  9  1  0  0  0  0
  6 16  1  0  0  0  0
  7  4  1  0  0  0  0
  8 12  1  0  0  0  0
 10 14  1  0  0  0  0
 13 10  1  0  0  0  0
 14  3  1  1  0  0  0
 14 18  1  0  0  0  0
 15 13  1  0  0  0  0
 17  6  2  0  0  0  0
 18  8  1  1  0  0  0
 19  1  1  0  0  0  0
 19 13  2  0  0  0  0
 20 10  2  0  0  0  0
 20 11  1  0  0  0  0
 21  1  1  0  0  0  0
 22 21  1  0  0  0  0
 22 25  1  0  0  0  0
 23 26  1  0  0  0  0
 24 22  2  0  0  0  0
 26 25  2  0  0  0  0
 27 23  1  0  0  0  0
 28 24  1  0  0  0  0
 28 23  2  0  0  0  0
M  END
>  <MODEL>
5

>  <REMARK>
 VINA RESULT:      -9.2      3.727      6.382
  Name = 
  2 active torsions:
  status: ('A' for Active; 'I' for Inactive)
    1  A    between atoms: N_1  and  C_2
    2  A    between atoms: C_2  and  C_3
                            x       y       z     vdW  Elec       q    Type
                         _______ _______ _______ _____ _____    ______ ____

>  <TORSDO>
F 2

$$$$
=
 OpenBabel10272401553D

 28 32  0  0  1  0  0  0  0  0999 V2000
  189.4460  176.6000  141.6320 N   0  0  0  0  0  0  0  0  0  0  0  0
  184.9830  179.0170  142.6050 C   0  0  0  0  0  3  0  0  0  0  0  0
  189.5160  178.5050  145.6710 O   0  0  0  0  0  1  0  0  0  0  0  0
  184.7040  178.4260  144.9470 C   0  0  0  0  0  0  0  0  0  0  0  0
  187.0210  178.3210  143.9070 C   0  0  2  0  0  3  0  0  0  0  0  0
  182.8000  179.1630  143.6380 C   0  0  0  0  0  0  0  0  0  0  0  0
  185.5320  178.5450  143.8040 C   0  0  0  0  0  0  0  0  0  0  0  0
  186.7410  178.0290  146.3920 C   0  0  0  0  0  2  0  0  0  0  0  0
  183.3410  178.7180  144.8460 C   0  0  0  0  0  3  0  0  0  0  0  0
  189.4590  176.9040  143.9370 C   0  0  0  0  0  0  0  0  0  0  0  0
  187.5830  177.7540  142.6710 N   0  0  0  0  0  2  0  0  0  0  0  0
  185.2260  177.8980  146.2580 C   0  0  0  0  0  2  0  0  0  0  0  0
  190.5710  176.2640  143.5890 C   0  0  0  0  0  0  0  0  0  0  0  0
  188.9280  177.2990  145.2810 C   0  0  2  0  0  3  0  0  0  0  0  0
  191.6200  175.7880  144.5310 C   0  0  0  0  0  1  0  0  0  0  0  0
  181.4460  179.4550  143.5500 O   0  0  0  0  0  1  0  0  0  0  0  0
  183.6210  179.3170  142.5190 C   0  0  0  0  0  3  0  0  0  0  0  0
  187.3990  177.4640  145.1420 C   0  0  2  0  0  3  0  0  0  0  0  0
  190.6290  176.0680  142.1680 N   0  0  0  0  0  0  0  0  0  0  0  0
  188.7370  177.1650  142.7180 C   0  0  0  0  0  0  0  0  0  0  0  0
  189.2580  176.9100  140.2220 C   0  0  0  0  0  2  0  0  0  0  0  0
  190.5130  176.6450  139.4640 C   0  0  0  0  0  0  0  0  0  0  0  0
  192.8540  176.1980  138.0010 C   0  0  0  0  0  0  0  0  0  0  0  0
  191.7020  177.2880  139.8300 C   0  0  0  0  0  3  0  0  0  0  0  0
  190.4950  175.7880  138.3590 C   0  0  0  0  0  3  0  0  0  0  0  0
  191.6660  175.5630  137.6280 C   0  0  0  0  0  3  0  0  0  0  0  0
  193.9890  175.9800  137.2930 F   0  0  0  0  0  0  0  0  0  0  0  0
  192.8720  177.0610  139.1000 C   0  0  0  0  0  3  0  0  0  0  0  0
  1 19  1  0  0  0  0
  1 20  1  0  0  0  0
  2  7  1  0  0  0  0
  4 12  1  0  0  0  0
  5 11  1  6  0  0  0
  5 18  1  0  0  0  0
  6  9  2  0  0  0  0
  7  5  1  0  0  0  0
  7  4  2  0  0  0  0
  9  4  1  0  0  0  0
 10 14  1  0  0  0  0
 11 20  1  0  0  0  0
 12  8  1  0  0  0  0
 13 10  1  0  0  0  0
 13 15  1  0  0  0  0
 14  3  1  6  0  0  0
 16  6  1  0  0  0  0
 17  2  2  0  0  0  0
 17  6  1  0  0  0  0
 18 14  1  0  0  0  0
 18  8  1  1  0  0  0
 19 13  2  0  0  0  0
 20 10  2  0  0  0  0
 21  1  1  0  0  0  0
 22 24  1  0  0  0  0
 22 21  1  0  0  0  0
 23 28  1  0  0  0  0
 25 22  2  0  0  0  0
 26 23  2  0  0  0  0
 26 25  1  0  0  0  0
 27 23  1  0  0  0  0
 28 24  2  0  0  0  0
M  END
>  <MODEL>
6

>  <REMARK>
 VINA RESULT:      -9.2      2.699      5.057
  Name = 
  2 active torsions:
  status: ('A' for Active; 'I' for Inactive)
    1  A    between atoms: N_1  and  C_2
    2  A    between atoms: C_2  and  C_3
                            x       y       z     vdW  Elec       q    Type
                         _______ _______ _______ _____ _____    ______ ____

>  <TORSDO>
F 2

$$$$
=
 OpenBabel10272401553D

 28 32  0  0  1  0  0  0  0  0999 V2000
  190.3340  177.6310  140.4320 N   0  0  0  0  0  0  0  0  0  0  0  0
  187.2110  177.3100  144.5380 C   0  0  0  0  0  3  0  0  0  0  0  0
  186.0600  177.3750  139.1630 O   0  0  0  0  0  1  0  0  0  0  0  0
  185.4030  178.7510  143.7850 C   0  0  0  0  0  0  0  0  0  0  0  0
  186.9660  177.7210  142.0670 C   0  0  2  0  0  3  0  0  0  0  0  0
  185.6710  178.2600  146.1450 C   0  0  0  0  0  0  0  0  0  0  0  0
  186.5490  177.9720  143.4950 C   0  0  0  0  0  0  0  0  0  0  0  0
  184.9030  178.9510  141.3140 C   0  0  0  0  0  2  0  0  0  0  0  0
  184.9880  178.9030  145.1110 C   0  0  0  0  0  3  0  0  0  0  0  0
  188.2370  178.1810  139.5920 C   0  0  0  0  0  0  0  0  0  0  0  0
  188.4260  177.5960  141.9300 N   0  0  0  0  0  2  0  0  0  0  0  0
  184.6630  179.5110  142.7140 C   0  0  0  0  0  2  0  0  0  0  0  0
  189.1220  178.2560  138.6020 C   0  0  0  0  0  0  0  0  0  0  0  0
  186.7700  178.4850  139.6270 C   0  0  2  0  0  3  0  0  0  0  0  0
  188.8170  178.6670  137.2040 C   0  0  0  0  0  1  0  0  0  0  0  0
  185.2480  178.4130  147.4580 O   0  0  0  0  0  1  0  0  0  0  0  0
  186.7800  177.4600  145.8580 C   0  0  0  0  0  3  0  0  0  0  0  0
  186.3990  178.7880  141.0950 C   0  0  2  0  0  3  0  0  0  0  0  0
  190.4360  177.9040  139.0590 N   0  0  0  0  0  0  0  0  0  0  0  0
  188.9630  177.7540  140.7600 C   0  0  0  0  0  0  0  0  0  0  0  0
  191.3460  176.9210  141.1990 C   0  0  0  0  0  2  0  0  0  0  0  0
  191.1220  177.1220  142.6590 C   0  0  0  0  0  0  0  0  0  0  0  0
  190.7650  177.4890  145.4090 C   0  0  0  0  0  0  0  0  0  0  0  0
  191.2190  178.4040  143.2130 C   0  0  0  0  0  3  0  0  0  0  0  0
  190.8570  176.0240  143.4840 C   0  0  0  0  0  3  0  0  0  0  0  0
  190.6770  176.2070  144.8580 C   0  0  0  0  0  3  0  0  0  0  0  0
  190.5900  177.6680  146.7410 F   0  0  0  0  0  0  0  0  0  0  0  0
  191.0370  178.5870  144.5870 C   0  0  0  0  0  3  0  0  0  0  0  0
  1 20  1  0  0  0  0
  1 21  1  0  0  0  0
  2 17  1  0  0  0  0
  4  9  2  0  0  0  0
  5 11  1  1  0  0  0
  5  7  1  0  0  0  0
  6 16  1  0  0  0  0
  7  4  1  0  0  0  0
  7  2  2  0  0  0  0
  8 12  1  0  0  0  0
  9  6  1  0  0  0  0
 10 14  1  0  0  0  0
 10 20  2  0  0  0  0
 12  4  1  0  0  0  0
 13 19  2  0  0  0  0
 13 10  1  0  0  0  0
 14  3  1  1  0  0  0
 14 18  1  0  0  0  0
 15 13  1  0  0  0  0
 17  6  2  0  0  0  0
 18  8  1  6  0  0  0
 18  5  1  0  0  0  0
 19  1  1  0  0  0  0
 20 11  1  0  0  0  0
 21 22  1  0  0  0  0
 22 24  2  0  0  0  0
 22 25  1  0  0  0  0
 23 27  1  0  0  0  0
 24 28  1  0  0  0  0
 25 26  2  0  0  0  0
 26 23  1  0  0  0  0
 28 23  2  0  0  0  0
M  END
>  <MODEL>
7

>  <REMARK>
 VINA RESULT:      -8.9      1.634      2.450
  Name = 
  2 active torsions:
  status: ('A' for Active; 'I' for Inactive)
    1  A    between atoms: N_1  and  C_2
    2  A    between atoms: C_2  and  C_3
                            x       y       z     vdW  Elec       q    Type
                         _______ _______ _______ _____ _____    ______ ____

>  <TORSDO>
F 2

$$$$
=
 OpenBabel10272401553D

 28 32  0  0  1  0  0  0  0  0999 V2000
  187.8620  177.8920  144.3560 N   0  0  0  0  0  0  0  0  0  0  0  0
  186.8360  178.4130  139.3170 C   0  0  0  0  0  3  0  0  0  0  0  0
  184.0440  180.1240  143.7330 O   0  0  0  0  0  1  0  0  0  0  0  0
  184.4340  178.0390  139.3530 C   0  0  0  0  0  0  0  0  0  0  0  0
  185.6100  178.7500  141.4900 C   0  0  2  0  0  3  0  0  0  0  0  0
  185.6780  177.7920  137.2850 C   0  0  0  0  0  0  0  0  0  0  0  0
  185.6350  178.3450  140.0360 C   0  0  0  0  0  0  0  0  0  0  0  0
  183.0960  178.6630  141.4060 C   0  0  0  0  0  2  0  0  0  0  0  0
  184.4710  177.7460  137.9860 C   0  0  0  0  0  3  0  0  0  0  0  0
  185.6040  178.4430  144.2930 C   0  0  0  0  0  0  0  0  0  0  0  0
  186.8190  178.3150  142.2070 N   0  0  0  0  0  2  0  0  0  0  0  0
  183.1140  177.9210  140.0710 C   0  0  0  0  0  2  0  0  0  0  0  0
  185.9610  178.2660  145.5620 C   0  0  0  0  0  0  0  0  0  0  0  0
  184.2730  178.7470  143.6770 C   0  0  2  0  0  3  0  0  0  0  0  0
  185.0490  178.3650  146.7340 C   0  0  0  0  0  1  0  0  0  0  0  0
  185.7040  177.5040  135.9280 O   0  0  0  0  0  1  0  0  0  0  0  0
  186.8590  178.1300  137.9500 C   0  0  0  0  0  3  0  0  0  0  0  0
  184.3250  178.2670  142.2100 C   0  0  2  0  0  3  0  0  0  0  0  0
  187.3560  177.9460  145.6640 N   0  0  0  0  0  0  0  0  0  0  0  0
  186.7920  178.2480  143.5020 C   0  0  0  0  0  0  0  0  0  0  0  0
  189.2790  177.9330  144.0280 C   0  0  0  0  0  2  0  0  0  0  0  0
  190.0780  177.2970  145.1130 C   0  0  0  0  0  0  0  0  0  0  0  0
  191.6150  176.1560  147.1530 C   0  0  0  0  0  0  0  0  0  0  0  0
  189.7170  177.4870  146.4530 C   0  0  0  0  0  3  0  0  0  0  0  0
  191.2150  176.5450  144.7970 C   0  0  0  0  0  3  0  0  0  0  0  0
  191.9820  175.9730  145.8160 C   0  0  0  0  0  3  0  0  0  0  0  0
  192.3580  175.6020  148.1410 F   0  0  0  0  0  0  0  0  0  0  0  0
  190.4840  176.9140  147.4710 C   0  0  0  0  0  3  0  0  0  0  0  0
  1 19  1  0  0  0  0
  2  7  1  0  0  0  0
  4  7  2  0  0  0  0
  4 12  1  0  0  0  0
  5  7  1  6  0  0  0
  5 11  1  0  0  0  0
  5 18  1  0  0  0  0
  6 17  1  0  0  0  0
  6  9  2  0  0  0  0
  9  4  1  0  0  0  0
 10 13  1  0  0  0  0
 11 20  1  0  0  0  0
 12  8  1  0  0  0  0
 13 19  2  0  0  0  0
 13 15  1  0  0  0  0
 14  3  1  6  0  0  0
 14 10  1  0  0  0  0
 16  6  1  0  0  0  0
 17  2  2  0  0  0  0
 18  8  1  6  0  0  0
 18 14  1  0  0  0  0
 20 10  2  0  0  0  0
 20  1  1  0  0  0  0
 21  1  1  0  0  0  0
 21 22  1  0  0  0  0
 22 24  1  0  0  0  0
 23 28  1  0  0  0  0
 23 27  1  0  0  0  0
 24 28  2  0  0  0  0
 25 22  2  0  0  0  0
 25 26  1  0  0  0  0
 26 23  2  0  0  0  0
M  END
>  <MODEL>
8

>  <REMARK>
 VINA RESULT:      -8.9      2.264      5.758
  Name = 
  2 active torsions:
  status: ('A' for Active; 'I' for Inactive)
    1  A    between atoms: N_1  and  C_2
    2  A    between atoms: C_2  and  C_3
                            x       y       z     vdW  Elec       q    Type
                         _______ _______ _______ _____ _____    ______ ____

>  <TORSDO>
F 2

$$$$
=
 OpenBabel10272401553D

 28 32  0  0  1  0  0  0  0  0999 V2000
  187.4550  177.8900  143.9180 N   0  0  0  0  0  0  0  0  0  0  0  0
  185.3990  178.4220  139.2060 C   0  0  0  0  0  3  0  0  0  0  0  0
  183.6550  180.2300  144.0950 O   0  0  0  0  0  1  0  0  0  0  0  0
  183.0490  178.1180  139.7530 C   0  0  0  0  0  0  0  0  0  0  0  0
  184.6710  178.8020  141.5850 C   0  0  2  0  0  3  0  0  0  0  0  0
  183.8200  177.8270  137.4710 C   0  0  0  0  0  0  0  0  0  0  0  0
  184.3760  178.3920  140.1640 C   0  0  0  0  0  0  0  0  0  0  0  0
  182.1950  178.7890  142.0370 C   0  0  0  0  0  2  0  0  0  0  0  0
  182.7880  177.8190  138.4120 C   0  0  0  0  0  3  0  0  0  0  0  0
  185.2510  178.5060  144.3290 C   0  0  0  0  0  0  0  0  0  0  0  0
  185.9930  178.3350  142.0340 N   0  0  0  0  0  2  0  0  0  0  0  0
  181.9090  178.0420  140.7360 C   0  0  0  0  0  2  0  0  0  0  0  0
  185.8640  178.3240  145.4960 C   0  0  0  0  0  0  0  0  0  0  0  0
  183.8280  178.8470  144.0060 C   0  0  2  0  0  3  0  0  0  0  0  0
  185.2230  178.4530  146.8330 C   0  0  0  0  0  1  0  0  0  0  0  0
  183.5500  177.5330  136.1420 O   0  0  0  0  0  1  0  0  0  0  0  0
  185.1240  178.1320  137.8670 C   0  0  0  0  0  3  0  0  0  0  0  0
  183.5550  178.3600  142.5660 C   0  0  2  0  0  3  0  0  0  0  0  0
  187.2400  177.9620  145.3020 N   0  0  0  0  0  0  0  0  0  0  0  0
  186.2380  178.2730  143.3060 C   0  0  0  0  0  0  0  0  0  0  0  0
  188.7710  177.8870  143.2970 C   0  0  0  0  0  2  0  0  0  0  0  0
  189.7720  177.2720  144.2130 C   0  0  0  0  0  0  0  0  0  0  0  0
  191.6950  176.1630  145.9150 C   0  0  0  0  0  0  0  0  0  0  0  0
  189.8590  177.6970  145.5440 C   0  0  0  0  0  3  0  0  0  0  0  0
  190.6560  176.3000  143.7330 C   0  0  0  0  0  3  0  0  0  0  0  0
  191.6150  175.7440  144.5840 C   0  0  0  0  0  3  0  0  0  0  0  0
  192.6250  175.6240  146.7410 F   0  0  0  0  0  0  0  0  0  0  0  0
  190.8180  177.1400  146.3950 C   0  0  0  0  0  3  0  0  0  0  0  0
  1 19  1  0  0  0  0
  2  7  1  0  0  0  0
  4  7  2  0  0  0  0
  4 12  1  0  0  0  0
  5  7  1  6  0  0  0
  5 11  1  0  0  0  0
  5 18  1  0  0  0  0
  6 17  1  0  0  0  0
  6  9  2  0  0  0  0
  9  4  1  0  0  0  0
 10 13  1  0  0  0  0
 11 20  1  0  0  0  0
 12  8  1  0  0  0  0
 13 15  1  0  0  0  0
 14  3  1  6  0  0  0
 14 10  1  0  0  0  0
 16  6  1  0  0  0  0
 17  2  2  0  0  0  0
 18  8  1  6  0  0  0
 18 14  1  0  0  0  0
 19 13  2  0  0  0  0
 20  1  1  0  0  0  0
 20 10  2  0  0  0  0
 21  1  1  0  0  0  0
 21 22  1  0  0  0  0
 22 24  1  0  0  0  0
 23 28  1  0  0  0  0
 23 27  1  0  0  0  0
 24 28  2  0  0  0  0
 25 22  2  0  0  0  0
 25 26  1  0  0  0  0
 26 23  2  0  0  0  0
M  END
>  <MODEL>
9

>  <REMARK>
 VINA RESULT:      -8.7      2.245      5.748
  Name = 
  2 active torsions:
  status: ('A' for Active; 'I' for Inactive)
    1  A    between atoms: N_1  and  C_2
    2  A    between atoms: C_2  and  C_3
                            x       y       z     vdW  Elec       q    Type
                         _______ _______ _______ _____ _____    ______ ____

>  <TORSDO>
F 2

$$$$
