=
 OpenBabel10272401533D

 28 30  0  0  1  0  0  0  0  0999 V2000
  187.3310  177.5230  143.4980 C   0  0  0  0  0  0  0  0  0  0  0  0
  183.2330  179.2020  145.3880 O   0  0  0  0  0  0  0  0  0  0  0  0
  183.9350  178.1010  141.9650 C   0  0  1  0  0  3  0  0  0  0  0  0
  181.8890  178.6920  143.0700 O   0  0  0  0  0  1  0  0  0  0  0  0
  185.2590  178.3290  144.5020 C   0  0  0  0  0  0  0  0  0  0  0  0
  185.4540  178.2740  141.9850 C   0  0  0  0  0  2  0  0  0  0  0  0
  187.1070  177.6390  145.9130 C   0  0  0  0  0  3  0  0  0  0  0  0
  183.8770  178.8440  144.3650 C   0  0  0  0  0  0  0  0  0  0  0  0
  185.8120  178.1380  145.7740 C   0  0  0  0  0  3  0  0  0  0  0  0
  183.2510  179.0010  143.0040 C   0  0  1  0  0  3  0  0  0  0  0  0
  187.8630  177.3320  144.7820 C   0  0  0  0  0  3  0  0  0  0  0  0
  186.0170  178.0070  143.3550 C   0  0  0  0  0  0  0  0  0  0  0  0
  183.7050  179.5040  139.9300 C   0  0  0  0  0  3  0  0  0  0  0  0
  182.5750  177.3560  139.9200 C   0  0  0  0  0  0  0  0  0  0  0  0
  182.4180  178.8270  137.9970 C   0  0  0  0  0  0  0  0  0  0  0  0
  183.3900  178.3030  140.5790 C   0  0  0  0  0  0  0  0  0  0  0  0
  182.0950  177.6260  138.6340 C   0  0  0  0  0  3  0  0  0  0  0  0
  182.1920  176.0590  140.5550 C   0  0  0  0  0  1  0  0  0  0  0  0
  181.9370  179.0870  136.7210 O   0  0  0  0  0  1  0  0  0  0  0  0
  183.2230  179.7650  138.6460 C   0  0  0  0  0  3  0  0  0  0  0  0
  188.1620  177.1970  142.2880 C   0  0  1  0  0  3  0  0  0  0  0  0
  188.5260  178.2760  140.2450 C   0  0  0  0  0  1  0  0  0  0  0  0
  188.7020  178.4040  141.6820 N   0  0  0  0  0  2  0  0  0  0  0  0
  189.2690  176.1950  142.6030 C   0  0  0  0  0  2  0  0  0  0  0  0
  190.5260  176.8020  142.5260 O   0  0  0  0  0  0  0  0  0  0  0  0
  191.2340  176.2860  143.6120 C   0  0  0  0  0  2  0  0  0  0  0  0
  191.4770  177.3810  144.6350 C   0  0  0  0  0  2  0  0  0  0  0  0
  191.4800  178.7410  143.9610 C   0  0  0  0  0  1  0  0  0  0  0  0
  1 11  1  0  0  0  0
  3 16  1  6  0  0  0
  3  6  1  0  0  0  0
  3 10  1  0  0  0  0
  5  9  2  0  0  0  0
  6 12  1  0  0  0  0
  8  5  1  0  0  0  0
  8  2  2  0  0  0  0
  9  7  1  0  0  0  0
 10  4  1  1  0  0  0
 10  8  1  0  0  0  0
 11  7  2  0  0  0  0
 12  1  2  0  0  0  0
 12  5  1  0  0  0  0
 13 16  1  0  0  0  0
 14 18  1  0  0  0  0
 14 16  2  0  0  0  0
 15 17  2  0  0  0  0
 15 20  1  0  0  0  0
 17 14  1  0  0  0  0
 19 15  1  0  0  0  0
 20 13  2  0  0  0  0
 21 24  1  1  0  0  0
 21  1  1  0  0  0  0
 22 23  1  0  0  0  0
 23 21  1  0  0  0  0
 25 24  1  0  0  0  0
 25 26  1  0  0  0  0
 26 27  1  0  0  0  0
 28 27  1  0  0  0  0
M  END
>  <MODEL>
1

>  <REMARK>
 VINA RESULT:      -7.5      0.000      0.000
  Name = 
  7 active torsions:
  status: ('A' for Active; 'I' for Inactive)
    1  A    between atoms: C_1  and  C_2
    2  A    between atoms: C_2  and  C_3
    3  A    between atoms: C_2  and  N_11
    4  A    between atoms: C_3  and  O_7
    5  A    between atoms: C_6  and  C_22
    6  A    between atoms: O_7  and  C_22
    7  A    between atoms: C_10  and  C_13
                            x       y       z     vdW  Elec       q    Type
                         _______ _______ _______ _____ _____    ______ ____

>  <TORSDO>
F 7

$$$$
=
 OpenBabel10272401533D

 28 30  0  0  1  0  0  0  0  0999 V2000
  190.3450  177.1800  144.9790 C   0  0  0  0  0  0  0  0  0  0  0  0
  187.8730  177.7740  149.0680 O   0  0  0  0  0  0  0  0  0  0  0  0
  186.6690  177.7290  145.6080 C   0  0  1  0  0  3  0  0  0  0  0  0
  185.5080  177.7460  147.7090 O   0  0  0  0  0  1  0  0  0  0  0  0
  189.1180  177.4270  147.0730 C   0  0  0  0  0  0  0  0  0  0  0  0
  187.9850  178.0750  144.9120 C   0  0  0  0  0  2  0  0  0  0  0  0
  191.4040  176.6140  147.0890 C   0  0  0  0  0  3  0  0  0  0  0  0
  187.8840  177.7850  147.8070 C   0  0  0  0  0  0  0  0  0  0  0  0
  190.2420  176.9690  147.7730 C   0  0  0  0  0  3  0  0  0  0  0  0
  186.6510  178.2260  147.0620 C   0  0  1  0  0  3  0  0  0  0  0  0
  191.4560  176.7180  145.7000 C   0  0  0  0  0  3  0  0  0  0  0  0
  189.1640  177.5210  145.6650 C   0  0  0  0  0  0  0  0  0  0  0  0
  184.3780  178.6810  145.5280 C   0  0  0  0  0  3  0  0  0  0  0  0
  185.4640  178.2480  143.4020 C   0  0  0  0  0  0  0  0  0  0  0  0
  183.2190  179.1660  143.4610 C   0  0  0  0  0  0  0  0  0  0  0  0
  185.4940  178.2290  144.8150 C   0  0  0  0  0  0  0  0  0  0  0  0
  184.3250  178.7170  142.7370 C   0  0  0  0  0  3  0  0  0  0  0  0
  186.6150  177.7720  142.5770 C   0  0  0  0  0  1  0  0  0  0  0  0
  182.0940  179.6300  142.7930 O   0  0  0  0  0  1  0  0  0  0  0  0
  183.2460  179.1490  144.8570 C   0  0  0  0  0  3  0  0  0  0  0  0
  190.4200  177.2970  143.4820 C   0  0  1  0  0  3  0  0  0  0  0  0
  191.4900  179.3660  143.6930 C   0  0  0  0  0  1  0  0  0  0  0  0
  191.5920  178.0560  143.0730 N   0  0  0  0  0  2  0  0  0  0  0  0
  190.3780  175.9340  142.7960 C   0  0  0  0  0  2  0  0  0  0  0  0
  190.5570  176.0660  141.4160 O   0  0  0  0  0  0  0  0  0  0  0  0
  189.5950  176.9980  141.0240 C   0  0  0  0  0  2  0  0  0  0  0  0
  189.9660  177.5840  139.6730 C   0  0  0  0  0  2  0  0  0  0  0  0
  188.7800  178.3180  139.0740 C   0  0  0  0  0  1  0  0  0  0  0  0
  1 12  2  0  0  0  0
  1 11  1  0  0  0  0
  3 16  1  6  0  0  0
  3 10  1  0  0  0  0
  5  9  2  0  0  0  0
  5  8  1  0  0  0  0
  6  3  1  0  0  0  0
  6 12  1  0  0  0  0
  7  9  1  0  0  0  0
  8  2  2  0  0  0  0
 10  4  1  1  0  0  0
 10  8  1  0  0  0  0
 11  7  2  0  0  0  0
 12  5  1  0  0  0  0
 14 16  1  0  0  0  0
 15 20  2  0  0  0  0
 16 13  2  0  0  0  0
 17 14  2  0  0  0  0
 17 15  1  0  0  0  0
 18 14  1  0  0  0  0
 19 15  1  0  0  0  0
 20 13  1  0  0  0  0
 21 24  1  6  0  0  0
 21  1  1  0  0  0  0
 23 21  1  0  0  0  0
 23 22  1  0  0  0  0
 25 24  1  0  0  0  0
 26 25  1  0  0  0  0
 27 26  1  0  0  0  0
 28 27  1  0  0  0  0
M  END
>  <MODEL>
2

>  <REMARK>
 VINA RESULT:      -7.5      2.587      4.698
  Name = 
  7 active torsions:
  status: ('A' for Active; 'I' for Inactive)
    1  A    between atoms: C_1  and  C_2
    2  A    between atoms: C_2  and  C_3
    3  A    between atoms: C_2  and  N_11
    4  A    between atoms: C_3  and  O_7
    5  A    between atoms: C_6  and  C_22
    6  A    between atoms: O_7  and  C_22
    7  A    between atoms: C_10  and  C_13
                            x       y       z     vdW  Elec       q    Type
                         _______ _______ _______ _____ _____    ______ ____

>  <TORSDO>
F 7

$$$$
=
 OpenBabel10272401533D

 28 30  0  0  1  0  0  0  0  0999 V2000
  188.9940  177.4360  145.1810 C   0  0  0  0  0  0  0  0  0  0  0  0
  184.8680  178.7300  147.2980 O   0  0  0  0  0  0  0  0  0  0  0  0
  185.5590  178.0700  143.7620 C   0  0  1  0  0  3  0  0  0  0  0  0
  183.5090  178.4510  144.9500 O   0  0  0  0  0  1  0  0  0  0  0  0
  186.9100  178.0420  146.2940 C   0  0  0  0  0  0  0  0  0  0  0  0
  187.0710  178.2940  143.7860 C   0  0  0  0  0  2  0  0  0  0  0  0
  188.8010  177.2560  147.5940 C   0  0  0  0  0  3  0  0  0  0  0  0
  185.5100  178.5190  146.2330 C   0  0  0  0  0  0  0  0  0  0  0  0
  187.4880  177.7210  147.5290 C   0  0  0  0  0  3  0  0  0  0  0  0
  184.8590  178.8150  144.9080 C   0  0  1  0  0  3  0  0  0  0  0  0
  189.5510  177.1130  146.4270 C   0  0  0  0  0  3  0  0  0  0  0  0
  187.6620  177.8860  145.1090 C   0  0  0  0  0  0  0  0  0  0  0  0
  183.5940  178.4160  142.2860 C   0  0  0  0  0  3  0  0  0  0  0  0
  185.7850  178.7230  141.2890 C   0  0  0  0  0  0  0  0  0  0  0  0
  183.7830  179.0200  139.9510 C   0  0  0  0  0  0  0  0  0  0  0  0
  184.9870  178.4160  142.4150 C   0  0  0  0  0  0  0  0  0  0  0  0
  185.1750  179.0220  140.0660 C   0  0  0  0  0  3  0  0  0  0  0  0
  187.2780  178.7330  141.3530 C   0  0  0  0  0  1  0  0  0  0  0  0
  183.1870  179.3170  138.7330 O   0  0  0  0  0  1  0  0  0  0  0  0
  182.9930  178.7170  141.0610 C   0  0  0  0  0  3  0  0  0  0  0  0
  189.8180  177.2860  143.9320 C   0  0  1  0  0  3  0  0  0  0  0  0
  191.5900  178.8110  143.8680 C   0  0  0  0  0  1  0  0  0  0  0  0
  191.2360  177.4460  144.2170 N   0  0  0  0  0  2  0  0  0  0  0  0
  189.5450  175.9660  143.2160 C   0  0  0  0  0  2  0  0  0  0  0  0
  190.4420  175.7780  142.1610 O   0  0  0  0  0  0  0  0  0  0  0  0
  189.9810  176.6230  141.1510 C   0  0  0  0  0  2  0  0  0  0  0  0
  191.1590  177.2600  140.4360 C   0  0  0  0  0  2  0  0  0  0  0  0
  191.2800  176.7090  139.0260 C   0  0  0  0  0  1  0  0  0  0  0  0
  1 11  1  0  0  0  0
  3 16  1  6  0  0  0
  3  6  1  0  0  0  0
  3 10  1  0  0  0  0
  5  9  2  0  0  0  0
  6 12  1  0  0  0  0
  8  5  1  0  0  0  0
  8  2  2  0  0  0  0
  9  7  1  0  0  0  0
 10  4  1  1  0  0  0
 10  8  1  0  0  0  0
 11  7  2  0  0  0  0
 12  1  2  0  0  0  0
 12  5  1  0  0  0  0
 13 16  1  0  0  0  0
 14 18  1  0  0  0  0
 14 16  2  0  0  0  0
 15 17  2  0  0  0  0
 15 20  1  0  0  0  0
 17 14  1  0  0  0  0
 19 15  1  0  0  0  0
 20 13  2  0  0  0  0
 21 24  1  1  0  0  0
 21 23  1  0  0  0  0
 21  1  1  0  0  0  0
 22 23  1  0  0  0  0
 25 24  1  0  0  0  0
 26 25  1  0  0  0  0
 27 26  1  0  0  0  0
 28 27  1  0  0  0  0
M  END
>  <MODEL>
3

>  <REMARK>
 VINA RESULT:      -7.4      1.694      3.058
  Name = 
  7 active torsions:
  status: ('A' for Active; 'I' for Inactive)
    1  A    between atoms: C_1  and  C_2
    2  A    between atoms: C_2  and  C_3
    3  A    between atoms: C_2  and  N_11
    4  A    between atoms: C_3  and  O_7
    5  A    between atoms: C_6  and  C_22
    6  A    between atoms: O_7  and  C_22
    7  A    between atoms: C_10  and  C_13
                            x       y       z     vdW  Elec       q    Type
                         _______ _______ _______ _____ _____    ______ ____

>  <TORSDO>
F 7

$$$$
=
 OpenBabel10272401533D

 28 30  0  0  1  0  0  0  0  0999 V2000
  186.3010  178.4100  139.3820 C   0  0  0  0  0  0  0  0  0  0  0  0
  190.6280  176.3060  139.5530 O   0  0  0  0  0  0  0  0  0  0  0  0
  188.3360  177.1340  142.2870 C   0  0  1  0  0  3  0  0  0  0  0  0
  190.3680  175.8590  142.2300 O   0  0  0  0  0  1  0  0  0  0  0  0
  188.4730  177.3010  139.4250 C   0  0  0  0  0  0  0  0  0  0  0  0
  187.5310  178.2230  141.5790 C   0  0  0  0  0  2  0  0  0  0  0  0
  187.2720  177.5450  137.3320 C   0  0  0  0  0  3  0  0  0  0  0  0
  189.6540  176.8120  140.1730 C   0  0  0  0  0  0  0  0  0  0  0  0
  188.3880  177.1030  138.0420 C   0  0  0  0  0  3  0  0  0  0  0  0
  189.7320  176.9700  141.6680 C   0  0  1  0  0  3  0  0  0  0  0  0
  186.2330  178.1950  137.9970 C   0  0  0  0  0  3  0  0  0  0  0  0
  187.4170  177.9470  140.1040 C   0  0  0  0  0  0  0  0  0  0  0  0
  187.3400  176.8770  144.5470 C   0  0  0  0  0  3  0  0  0  0  0  0
  189.4270  178.1080  144.3970 C   0  0  0  0  0  0  0  0  0  0  0  0
  188.3440  177.7970  146.5460 C   0  0  0  0  0  0  0  0  0  0  0  0
  188.3880  177.3830  143.7690 C   0  0  0  0  0  0  0  0  0  0  0  0
  189.3950  178.3080  145.7820 C   0  0  0  0  0  3  0  0  0  0  0  0
  190.5710  178.6840  143.6290 C   0  0  0  0  0  1  0  0  0  0  0  0
  188.3210  178.0010  147.9190 O   0  0  0  0  0  1  0  0  0  0  0  0
  187.3170  177.0810  145.9280 C   0  0  0  0  0  3  0  0  0  0  0  0
  185.1780  179.1210  140.0840 C   0  0  1  0  0  3  0  0  0  0  0  0
  183.1710  179.7710  139.0710 C   0  0  0  0  0  1  0  0  0  0  0  0
  184.5730  180.1260  139.2220 N   0  0  0  0  0  2  0  0  0  0  0  0
  184.1280  178.1510  140.6200 C   0  0  0  0  0  2  0  0  0  0  0  0
  184.3680  177.8530  141.9640 O   0  0  0  0  0  0  0  0  0  0  0  0
  183.7410  178.8800  142.6710 C   0  0  0  0  0  2  0  0  0  0  0  0
  184.6420  179.3530  143.7980 C   0  0  0  0  0  2  0  0  0  0  0  0
  184.0790  178.9190  145.1390 C   0  0  0  0  0  1  0  0  0  0  0  0
  1 21  1  0  0  0  0
  1 12  1  0  0  0  0
  2  8  2  0  0  0  0
  3 16  1  1  0  0  0
  5 12  2  0  0  0  0
  5  8  1  0  0  0  0
  6  3  1  0  0  0  0
  7 11  1  0  0  0  0
  7  9  2  0  0  0  0
  8 10  1  0  0  0  0
  9  5  1  0  0  0  0
 10  4  1  1  0  0  0
 10  3  1  0  0  0  0
 11  1  2  0  0  0  0
 12  6  1  0  0  0  0
 13 20  1  0  0  0  0
 14 17  2  0  0  0  0
 15 19  1  0  0  0  0
 16 14  1  0  0  0  0
 16 13  2  0  0  0  0
 17 15  1  0  0  0  0
 18 14  1  0  0  0  0
 20 15  2  0  0  0  0
 21 24  1  6  0  0  0
 22 23  1  0  0  0  0
 23 21  1  0  0  0  0
 24 25  1  0  0  0  0
 25 26  1  0  0  0  0
 26 27  1  0  0  0  0
 27 28  1  0  0  0  0
M  END
>  <MODEL>
4

>  <REMARK>
 VINA RESULT:      -7.3      2.225      7.501
  Name = 
  7 active torsions:
  status: ('A' for Active; 'I' for Inactive)
    1  A    between atoms: C_1  and  C_2
    2  A    between atoms: C_2  and  C_3
    3  A    between atoms: C_2  and  N_11
    4  A    between atoms: C_3  and  O_7
    5  A    between atoms: C_6  and  C_22
    6  A    between atoms: O_7  and  C_22
    7  A    between atoms: C_10  and  C_13
                            x       y       z     vdW  Elec       q    Type
                         _______ _______ _______ _____ _____    ______ ____

>  <TORSDO>
F 7

$$$$
=
 OpenBabel10272401533D

 28 30  0  0  1  0  0  0  0  0999 V2000
  187.0230  178.3580  141.2550 C   0  0  0  0  0  0  0  0  0  0  0  0
  184.4720  178.2830  145.3380 O   0  0  0  0  0  0  0  0  0  0  0  0
  188.0980  178.0670  144.8570 C   0  0  1  0  0  3  0  0  0  0  0  0
  186.7550  178.3090  146.8310 O   0  0  0  0  0  1  0  0  0  0  0  0
  185.7020  178.3750  143.3060 C   0  0  0  0  0  0  0  0  0  0  0  0
  188.1000  177.5870  143.4050 C   0  0  0  0  0  2  0  0  0  0  0  0
  184.7010  179.0620  141.2060 C   0  0  0  0  0  3  0  0  0  0  0  0
  185.5880  178.1530  144.7650 C   0  0  0  0  0  0  0  0  0  0  0  0
  184.5980  178.8350  142.5780 C   0  0  0  0  0  3  0  0  0  0  0  0
  186.7830  177.7110  145.5680 C   0  0  1  0  0  3  0  0  0  0  0  0
  185.9070  178.8260  140.5470 C   0  0  0  0  0  3  0  0  0  0  0  0
  186.9290  178.1470  142.6430 C   0  0  0  0  0  0  0  0  0  0  0  0
  189.0920  176.8900  146.8030 C   0  0  0  0  0  3  0  0  0  0  0  0
  190.6290  177.7350  145.1260 C   0  0  0  0  0  0  0  0  0  0  0  0
  191.4740  176.5770  147.0840 C   0  0  0  0  0  0  0  0  0  0  0  0
  189.3060  177.5580  145.5920 C   0  0  0  0  0  0  0  0  0  0  0  0
  191.7020  177.2430  145.8770 C   0  0  0  0  0  3  0  0  0  0  0  0
  190.9320  178.4460  143.8470 C   0  0  0  0  0  1  0  0  0  0  0  0
  192.5450  176.0920  147.8220 O   0  0  0  0  0  1  0  0  0  0  0  0
  190.1680  176.4010  147.5460 C   0  0  0  0  0  3  0  0  0  0  0  0
  188.3140  178.0980  140.5290 C   0  0  1  0  0  3  0  0  0  0  0  0
  190.2830  176.8350  140.5470 C   0  0  0  0  0  1  0  0  0  0  0  0
  188.8730  176.8060  140.8980 N   0  0  0  0  0  2  0  0  0  0  0  0
  188.1580  178.2180  139.0150 C   0  0  0  0  0  2  0  0  0  0  0  0
  188.9660  179.2400  138.5110 O   0  0  0  0  0  0  0  0  0  0  0  0
  189.0200  179.0030  137.1370 C   0  0  0  0  0  2  0  0  0  0  0  0
  189.3670  177.5480  136.8790 C   0  0  0  0  0  2  0  0  0  0  0  0
  189.4270  177.2770  135.3870 C   0  0  0  0  0  1  0  0  0  0  0  0
  1 12  1  0  0  0  0
  3 10  1  0  0  0  0
  3 16  1  1  0  0  0
  5  8  1  0  0  0  0
  6  3  1  0  0  0  0
  7  9  2  0  0  0  0
  8  2  2  0  0  0  0
  8 10  1  0  0  0  0
  9  5  1  0  0  0  0
 10  4  1  1  0  0  0
 11  7  1  0  0  0  0
 11  1  2  0  0  0  0
 12  5  2  0  0  0  0
 12  6  1  0  0  0  0
 13 20  1  0  0  0  0
 14 16  1  0  0  0  0
 14 17  2  0  0  0  0
 15 20  2  0  0  0  0
 15 19  1  0  0  0  0
 16 13  2  0  0  0  0
 17 15  1  0  0  0  0
 18 14  1  0  0  0  0
 21 24  1  6  0  0  0
 21 23  1  0  0  0  0
 21  1  1  0  0  0  0
 22 23  1  0  0  0  0
 25 24  1  0  0  0  0
 26 25  1  0  0  0  0
 27 26  1  0  0  0  0
 28 27  1  0  0  0  0
M  END
>  <MODEL>
5

>  <REMARK>
 VINA RESULT:      -7.2      2.593      7.210
  Name = 
  7 active torsions:
  status: ('A' for Active; 'I' for Inactive)
    1  A    between atoms: C_1  and  C_2
    2  A    between atoms: C_2  and  C_3
    3  A    between atoms: C_2  and  N_11
    4  A    between atoms: C_3  and  O_7
    5  A    between atoms: C_6  and  C_22
    6  A    between atoms: O_7  and  C_22
    7  A    between atoms: C_10  and  C_13
                            x       y       z     vdW  Elec       q    Type
                         _______ _______ _______ _____ _____    ______ ____

>  <TORSDO>
F 7

$$$$
=
 OpenBabel10272401533D

 28 30  0  0  1  0  0  0  0  0999 V2000
  185.8720  178.4030  142.2870 C   0  0  0  0  0  0  0  0  0  0  0  0
  184.4840  178.4460  146.8970 O   0  0  0  0  0  0  0  0  0  0  0  0
  187.8430  178.0720  145.4830 C   0  0  1  0  0  3  0  0  0  0  0  0
  187.0780  178.3760  147.7380 O   0  0  0  0  0  1  0  0  0  0  0  0
  185.1390  178.4810  144.6120 C   0  0  0  0  0  0  0  0  0  0  0  0
  187.4440  177.5900  144.0890 C   0  0  0  0  0  2  0  0  0  0  0  0
  183.6500  179.2080  142.8400 C   0  0  0  0  0  3  0  0  0  0  0  0
  185.4040  178.2660  146.0530 C   0  0  0  0  0  0  0  0  0  0  0  0
  183.9020  178.9880  144.1950 C   0  0  0  0  0  3  0  0  0  0  0  0
  186.7490  177.7740  146.5190 C   0  0  1  0  0  3  0  0  0  0  0  0
  184.6290  178.9180  141.8910 C   0  0  0  0  0  3  0  0  0  0  0  0
  186.1380  178.1990  143.6540 C   0  0  0  0  0  0  0  0  0  0  0  0
  189.2100  176.6080  146.9500 C   0  0  0  0  0  3  0  0  0  0  0  0
  190.3910  177.8660  145.2430 C   0  0  0  0  0  0  0  0  0  0  0  0
  191.6120  176.4070  146.7490 C   0  0  0  0  0  0  0  0  0  0  0  0
  189.1800  177.5120  145.8820 C   0  0  0  0  0  0  0  0  0  0  0  0
  191.5970  177.3100  145.6830 C   0  0  0  0  0  3  0  0  0  0  0  0
  190.4350  178.8310  144.1040 C   0  0  0  0  0  1  0  0  0  0  0  0
  192.8130  175.8610  147.1790 O   0  0  0  0  0  1  0  0  0  0  0  0
  190.4180  176.0560  147.3820 C   0  0  0  0  0  3  0  0  0  0  0  0
  186.9140  178.0860  141.2500 C   0  0  1  0  0  3  0  0  0  0  0  0
  186.4780  177.7500  138.9770 C   0  0  0  0  0  1  0  0  0  0  0  0
  186.6350  178.7720  139.9980 N   0  0  0  0  0  2  0  0  0  0  0  0
  188.3270  178.3900  141.7420 C   0  0  0  0  0  2  0  0  0  0  0  0
  189.2520  178.2780  140.7000 O   0  0  0  0  0  0  0  0  0  0  0  0
  189.8720  177.0460  140.9100 C   0  0  0  0  0  2  0  0  0  0  0  0
  190.5260  176.5730  139.6240 C   0  0  0  0  0  2  0  0  0  0  0  0
  190.0870  177.4420  138.4590 C   0  0  0  0  0  1  0  0  0  0  0  0
  1 12  1  0  0  0  0
  3 16  1  1  0  0  0
  3 10  1  0  0  0  0
  5  8  1  0  0  0  0
  6  3  1  0  0  0  0
  7  9  2  0  0  0  0
  8 10  1  0  0  0  0
  8  2  2  0  0  0  0
  9  5  1  0  0  0  0
 10  4  1  1  0  0  0
 11  1  2  0  0  0  0
 11  7  1  0  0  0  0
 12  6  1  0  0  0  0
 12  5  2  0  0  0  0
 13 20  1  0  0  0  0
 14 17  2  0  0  0  0
 14 16  1  0  0  0  0
 15 19  1  0  0  0  0
 15 20  2  0  0  0  0
 16 13  2  0  0  0  0
 17 15  1  0  0  0  0
 18 14  1  0  0  0  0
 21 24  1  1  0  0  0
 21  1  1  0  0  0  0
 22 23  1  0  0  0  0
 23 21  1  0  0  0  0
 25 26  1  0  0  0  0
 25 24  1  0  0  0  0
 27 26  1  0  0  0  0
 28 27  1  0  0  0  0
M  END
>  <MODEL>
6

>  <REMARK>
 VINA RESULT:      -7.1      2.773      6.797
  Name = 
  7 active torsions:
  status: ('A' for Active; 'I' for Inactive)
    1  A    between atoms: C_1  and  C_2
    2  A    between atoms: C_2  and  C_3
    3  A    between atoms: C_2  and  N_11
    4  A    between atoms: C_3  and  O_7
    5  A    between atoms: C_6  and  C_22
    6  A    between atoms: O_7  and  C_22
    7  A    between atoms: C_10  and  C_13
                            x       y       z     vdW  Elec       q    Type
                         _______ _______ _______ _____ _____    ______ ____

>  <TORSDO>
F 7

$$$$
=
 OpenBabel10272401533D

 28 30  0  0  1  0  0  0  0  0999 V2000
  185.8970  178.0420  143.6650 C   0  0  0  0  0  0  0  0  0  0  0  0
  181.3320  179.5510  143.3970 O   0  0  0  0  0  0  0  0  0  0  0  0
  183.3060  177.6690  140.9510 C   0  0  1  0  0  3  0  0  0  0  0  0
  180.9750  178.2320  141.0370 O   0  0  0  0  0  1  0  0  0  0  0  0
  183.5720  178.7770  143.5850 C   0  0  0  0  0  0  0  0  0  0  0  0
  184.6990  178.0630  141.4410 C   0  0  0  0  0  2  0  0  0  0  0  0
  184.7800  178.7810  145.6890 C   0  0  0  0  0  3  0  0  0  0  0  0
  182.3260  179.0240  142.8260 C   0  0  0  0  0  0  0  0  0  0  0  0
  183.6150  179.0260  144.9630 C   0  0  0  0  0  3  0  0  0  0  0  0
  182.2500  178.7090  141.3550 C   0  0  1  0  0  3  0  0  0  0  0  0
  185.9150  178.2910  145.0450 C   0  0  0  0  0  3  0  0  0  0  0  0
  184.7160  178.2690  142.9320 C   0  0  0  0  0  0  0  0  0  0  0  0
  184.0870  178.2470  138.6660 C   0  0  0  0  0  3  0  0  0  0  0  0
  182.5740  176.3590  138.8690 C   0  0  0  0  0  0  0  0  0  0  0  0
  183.4010  177.0340  136.6890 C   0  0  0  0  0  0  0  0  0  0  0  0
  183.3140  177.4020  139.4720 C   0  0  0  0  0  0  0  0  0  0  0  0
  182.6240  176.1850  137.4810 C   0  0  0  0  0  3  0  0  0  0  0  0
  181.7220  175.4260  139.6650 C   0  0  0  0  0  1  0  0  0  0  0  0
  183.4440  176.8530  135.3140 O   0  0  0  0  0  1  0  0  0  0  0  0
  184.1320  178.0640  137.2830 C   0  0  0  0  0  3  0  0  0  0  0  0
  187.1320  177.5230  142.9820 C   0  0  1  0  0  3  0  0  0  0  0  0
  188.2220  177.9790  140.9630 C   0  0  0  0  0  1  0  0  0  0  0  0
  187.7890  178.5720  142.2170 N   0  0  0  0  0  2  0  0  0  0  0  0
  188.1000  176.8670  143.9630 C   0  0  0  0  0  2  0  0  0  0  0  0
  189.3470  177.4980  143.9290 O   0  0  0  0  0  0  0  0  0  0  0  0
  189.4900  178.0640  145.1970 C   0  0  0  0  0  2  0  0  0  0  0  0
  189.1600  177.0330  146.2610 C   0  0  0  0  0  2  0  0  0  0  0  0
  188.9720  177.7070  147.6070 C   0  0  0  0  0  1  0  0  0  0  0  0
  1 11  1  0  0  0  0
  3 16  1  6  0  0  0
  3 10  1  0  0  0  0
  3  6  1  0  0  0  0
  5  9  2  0  0  0  0
  6 12  1  0  0  0  0
  8  2  2  0  0  0  0
  8  5  1  0  0  0  0
  9  7  1  0  0  0  0
 10  4  1  1  0  0  0
 10  8  1  0  0  0  0
 11  7  2  0  0  0  0
 12  5  1  0  0  0  0
 12  1  2  0  0  0  0
 13 16  1  0  0  0  0
 14 16  2  0  0  0  0
 14 18  1  0  0  0  0
 15 20  1  0  0  0  0
 15 17  2  0  0  0  0
 17 14  1  0  0  0  0
 19 15  1  0  0  0  0
 20 13  2  0  0  0  0
 21  1  1  0  0  0  0
 21 24  1  1  0  0  0
 22 23  1  0  0  0  0
 23 21  1  0  0  0  0
 25 24  1  0  0  0  0
 25 26  1  0  0  0  0
 26 27  1  0  0  0  0
 27 28  1  0  0  0  0
M  END
>  <MODEL>
7

>  <REMARK>
 VINA RESULT:      -7.0      1.592      2.170
  Name = 
  7 active torsions:
  status: ('A' for Active; 'I' for Inactive)
    1  A    between atoms: C_1  and  C_2
    2  A    between atoms: C_2  and  C_3
    3  A    between atoms: C_2  and  N_11
    4  A    between atoms: C_3  and  O_7
    5  A    between atoms: C_6  and  C_22
    6  A    between atoms: O_7  and  C_22
    7  A    between atoms: C_10  and  C_13
                            x       y       z     vdW  Elec       q    Type
                         _______ _______ _______ _____ _____    ______ ____

>  <TORSDO>
F 7

$$$$
=
 OpenBabel10272401533D

 28 30  0  0  1  0  0  0  0  0999 V2000
  184.8740  178.3990  143.9280 C   0  0  0  0  0  0  0  0  0  0  0  0
  187.5370  177.5520  147.8490 O   0  0  0  0  0  0  0  0  0  0  0  0
  188.5980  178.0240  144.3740 C   0  0  1  0  0  3  0  0  0  0  0  0
  189.8400  177.8680  146.4220 O   0  0  0  0  0  1  0  0  0  0  0  0
  186.1950  178.0200  145.9430 C   0  0  0  0  0  0  0  0  0  0  0  0
  187.2790  177.6680  143.6900 C   0  0  0  0  0  2  0  0  0  0  0  0
  183.8670  178.6800  146.1190 C   0  0  0  0  0  3  0  0  0  0  0  0
  187.4770  177.6680  146.5940 C   0  0  0  0  0  0  0  0  0  0  0  0
  185.0750  178.3310  146.7240 C   0  0  0  0  0  3  0  0  0  0  0  0
  188.7030  177.3850  145.7670 C   0  0  1  0  0  3  0  0  0  0  0  0
  183.7660  178.7150  144.7290 C   0  0  0  0  0  3  0  0  0  0  0  0
  186.1000  178.0670  144.5350 C   0  0  0  0  0  0  0  0  0  0  0  0
  189.6830  176.5120  142.7310 C   0  0  0  0  0  3  0  0  0  0  0  0
  190.9380  178.4730  143.4180 C   0  0  0  0  0  0  0  0  0  0  0  0
  191.8910  176.9090  141.8260 C   0  0  0  0  0  0  0  0  0  0  0  0
  189.7690  177.6830  143.4940 C   0  0  0  0  0  0  0  0  0  0  0  0
  191.9900  178.0790  142.5840 C   0  0  0  0  0  3  0  0  0  0  0  0
  191.1010  179.7290  144.2100 C   0  0  0  0  0  1  0  0  0  0  0  0
  192.9400  176.5260  141.0020 O   0  0  0  0  0  1  0  0  0  0  0  0
  190.7370  176.1270  141.9000 C   0  0  0  0  0  3  0  0  0  0  0  0
  184.7470  178.4310  142.4310 C   0  0  1  0  0  3  0  0  0  0  0  0
  182.8230  177.9940  141.1730 C   0  0  0  0  0  1  0  0  0  0  0  0
  183.4630  178.9830  142.0250 N   0  0  0  0  0  2  0  0  0  0  0  0
  185.9020  179.1790  141.7700 C   0  0  0  0  0  2  0  0  0  0  0  0
  185.6720  179.3410  140.4010 O   0  0  0  0  0  0  0  0  0  0  0  0
  186.4770  178.3780  139.7910 C   0  0  0  0  0  2  0  0  0  0  0  0
  187.8690  178.4150  140.3930 C   0  0  0  0  0  2  0  0  0  0  0  0
  188.9190  178.3450  139.2990 C   0  0  0  0  0  1  0  0  0  0  0  0
  1 12  2  0  0  0  0
  1 11  1  0  0  0  0
  3 16  1  6  0  0  0
  3 10  1  0  0  0  0
  5  8  1  0  0  0  0
  5  9  2  0  0  0  0
  6  3  1  0  0  0  0
  6 12  1  0  0  0  0
  7  9  1  0  0  0  0
  8  2  2  0  0  0  0
 10  4  1  1  0  0  0
 10  8  1  0  0  0  0
 11  7  2  0  0  0  0
 12  5  1  0  0  0  0
 13 16  1  0  0  0  0
 14 16  2  0  0  0  0
 14 18  1  0  0  0  0
 15 20  1  0  0  0  0
 15 17  2  0  0  0  0
 17 14  1  0  0  0  0
 19 15  1  0  0  0  0
 20 13  2  0  0  0  0
 21 24  1  6  0  0  0
 21  1  1  0  0  0  0
 22 23  1  0  0  0  0
 23 21  1  0  0  0  0
 25 24  1  0  0  0  0
 26 27  1  0  0  0  0
 26 25  1  0  0  0  0
 28 27  1  0  0  0  0
M  END
>  <MODEL>
8

>  <REMARK>
 VINA RESULT:      -6.9      2.477      6.577
  Name = 
  7 active torsions:
  status: ('A' for Active; 'I' for Inactive)
    1  A    between atoms: C_1  and  C_2
    2  A    between atoms: C_2  and  C_3
    3  A    between atoms: C_2  and  N_11
    4  A    between atoms: C_3  and  O_7
    5  A    between atoms: C_6  and  C_22
    6  A    between atoms: O_7  and  C_22
    7  A    between atoms: C_10  and  C_13
                            x       y       z     vdW  Elec       q    Type
                         _______ _______ _______ _____ _____    ______ ____

>  <TORSDO>
F 7

$$$$
=
 OpenBabel10272401533D

 28 30  0  0  1  0  0  0  0  0999 V2000
  183.0780  178.2720  141.2740 C   0  0  0  0  0  0  0  0  0  0  0  0
  183.6450  179.1630  145.9710 O   0  0  0  0  0  0  0  0  0  0  0  0
  186.1660  178.3710  143.4340 C   0  0  1  0  0  3  0  0  0  0  0  0
  186.3590  179.0900  145.7160 O   0  0  0  0  0  1  0  0  0  0  0  0
  183.3330  178.7790  143.6460 C   0  0  0  0  0  0  0  0  0  0  0  0
  185.2510  177.6860  142.4190 C   0  0  0  0  0  2  0  0  0  0  0  0
  181.2490  179.2810  142.5100 C   0  0  0  0  0  3  0  0  0  0  0  0
  184.1540  178.7940  144.8780 C   0  0  0  0  0  0  0  0  0  0  0  0
  182.0240  179.2760  143.6700 C   0  0  0  0  0  3  0  0  0  0  0  0
  185.5800  178.3130  144.8530 C   0  0  1  0  0  3  0  0  0  0  0  0
  181.7720  178.7820  141.3180 C   0  0  0  0  0  3  0  0  0  0  0  0
  183.8700  178.2850  142.4370 C   0  0  0  0  0  0  0  0  0  0  0  0
  188.0180  177.0760  144.4620 C   0  0  0  0  0  3  0  0  0  0  0  0
  188.4180  178.0080  142.2570 C   0  0  0  0  0  0  0  0  0  0  0  0
  190.1520  176.7320  143.3760 C   0  0  0  0  0  0  0  0  0  0  0  0
  187.5600  177.8120  143.3630 C   0  0  0  0  0  0  0  0  0  0  0  0
  189.7080  177.4660  142.2740 C   0  0  0  0  0  3  0  0  0  0  0  0
  187.9990  178.7900  141.0550 C   0  0  0  0  0  1  0  0  0  0  0  0
  191.4330  176.1980  143.3840 O   0  0  0  0  0  1  0  0  0  0  0  0
  189.3060  176.5370  144.4700 C   0  0  0  0  0  3  0  0  0  0  0  0
  183.6250  177.7290  139.9830 C   0  0  1  0  0  3  0  0  0  0  0  0
  182.2540  177.0930  138.1970 C   0  0  0  0  0  1  0  0  0  0  0  0
  182.7920  176.6500  139.4730 N   0  0  0  0  0  2  0  0  0  0  0  0
  183.8170  178.8210  138.9330 C   0  0  0  0  0  2  0  0  0  0  0  0
  185.1640  179.1770  138.8260 O   0  0  0  0  0  0  0  0  0  0  0  0
  185.7940  178.0310  138.3380 C   0  0  0  0  0  2  0  0  0  0  0  0
  186.8450  178.4180  137.3140 C   0  0  0  0  0  2  0  0  0  0  0  0
  188.1010  177.5880  137.5080 C   0  0  0  0  0  1  0  0  0  0  0  0
  1 11  2  0  0  0  0
  1 12  1  0  0  0  0
  3 16  1  1  0  0  0
  3 10  1  0  0  0  0
  5  9  1  0  0  0  0
  5  8  1  0  0  0  0
  6 12  1  0  0  0  0
  6  3  1  0  0  0  0
  7  9  2  0  0  0  0
  8  2  2  0  0  0  0
 10  8  1  0  0  0  0
 10  4  1  1  0  0  0
 11  7  1  0  0  0  0
 12  5  2  0  0  0  0
 13 20  1  0  0  0  0
 14 17  2  0  0  0  0
 14 16  1  0  0  0  0
 15 19  1  0  0  0  0
 15 20  2  0  0  0  0
 16 13  2  0  0  0  0
 17 15  1  0  0  0  0
 18 14  1  0  0  0  0
 21 24  1  6  0  0  0
 21  1  1  0  0  0  0
 22 23  1  0  0  0  0
 23 21  1  0  0  0  0
 25 24  1  0  0  0  0
 26 25  1  0  0  0  0
 27 28  1  0  0  0  0
 27 26  1  0  0  0  0
M  END
>  <MODEL>
9

>  <REMARK>
 VINA RESULT:      -6.7      2.088      6.387
  Name = 
  7 active torsions:
  status: ('A' for Active; 'I' for Inactive)
    1  A    between atoms: C_1  and  C_2
    2  A    between atoms: C_2  and  C_3
    3  A    between atoms: C_2  and  N_11
    4  A    between atoms: C_3  and  O_7
    5  A    between atoms: C_6  and  C_22
    6  A    between atoms: O_7  and  C_22
    7  A    between atoms: C_10  and  C_13
                            x       y       z     vdW  Elec       q    Type
                         _______ _______ _______ _____ _____    ______ ____

>  <TORSDO>
F 7

$$$$
