=
 OpenBabel10272415273D

 34 39  0  0  1  0  0  0  0  0999 V2000
  184.0550  178.8440  141.1990 N   0  0  0  0  0  0  0  0  0  0  0  0
  183.9810  179.2800  145.0510 C   0  0  0  0  0  2  0  0  0  0  0  0
  182.1150  178.9270  143.4160 C   0  0  0  0  0  2  0  0  0  0  0  0
  184.4980  178.1070  138.8680 C   0  0  1  0  0  3  0  0  0  0  0  0
  184.8590  179.0960  139.9970 C   0  0  0  0  0  2  0  0  0  0  0  0
  182.1970  178.0490  139.7990 C   0  0  0  0  0  0  0  0  0  0  0  0
  180.5620  177.7290  139.9920 S   0  0  0  0  0  0  0  0  0  0  0  0
  182.9950  178.0870  138.5380 C   0  0  0  0  0  2  0  0  0  0  0  0
  181.7540  178.4460  142.0480 C   0  0  0  0  0  0  0  0  0  0  0  0
  182.6900  178.4530  141.0160 C   0  0  0  0  0  0  0  0  0  0  0  0
  180.4710  178.0720  141.6510 C   0  0  0  0  0  3  0  0  0  0  0  0
  185.4400  179.0420  145.4570 C   0  0  0  0  0  2  0  0  0  0  0  0
  186.0390  177.7690  144.8440 C   0  0  1  0  0  3  0  0  0  0  0  0
  186.3890  177.8910  143.3480 C   0  0  0  0  0  2  0  0  0  0  0  0
  183.6190  178.7620  143.6560 C   0  0  1  0  0  3  0  0  0  0  0  0
  185.9830  179.2270  142.7150 C   0  0  0  0  0  2  0  0  0  0  0  0
  184.4660  179.3820  142.5070 C   0  0  1  0  0  3  0  0  0  0  0  0
  187.2380  177.3320  145.6170 C   0  0  0  0  0  0  0  0  0  0  0  0
  188.3630  176.8820  144.9410 O   0  0  0  0  0  0  0  0  0  0  0  0
  187.2390  177.3700  146.8760 O   0  0  0  0  0  1  0  0  0  0  0  0
  185.2860  178.3410  137.6980 O   0  0  0  0  0  0  0  0  0  0  0  0
  188.3160  177.0490  136.0140 C   0  0  0  0  0  3  0  0  0  0  0  0
  187.5280  177.8610  138.5770 C   0  0  0  0  0  3  0  0  0  0  0  0
  191.4550  176.5170  137.9090 C   0  0  0  0  0  0  0  0  0  0  0  0
  190.5370  176.5600  136.8500 C   0  0  0  0  0  3  0  0  0  0  0  0
  189.2310  177.0070  137.0680 C   0  0  0  0  0  0  0  0  0  0  0  0
  189.7470  177.3720  139.4150 C   0  0  0  0  0  3  0  0  0  0  0  0
  188.8330  177.4170  138.3590 C   0  0  0  0  0  0  0  0  0  0  0  0
  191.0520  176.9240  139.1890 C   0  0  0  0  0  3  0  0  0  0  0  0
  186.6060  177.9030  137.5170 C   0  0  0  0  0  0  0  0  0  0  0  0
  187.0090  177.4960  136.2400 C   0  0  0  0  0  3  0  0  0  0  0  0
  192.8320  176.0460  137.6780 C   0  0  0  0  0  0  0  0  0  0  0  0
  193.7570  176.8710  137.4510 O   0  0  0  0  0  0  0  0  0  0  0  0
  193.1340  174.6530  137.7070 N   0  0  0  0  0  1  0  0  0  0  0  0
  1 17  1  0  0  0  0
  2 12  1  0  0  0  0
  4 21  1  6  0  0  0
  4  5  1  0  0  0  0
  5  1  1  0  0  0  0
  6  7  1  0  0  0  0
  6 10  2  0  0  0  0
  7 11  1  0  0  0  0
  8  4  1  0  0  0  0
  8  6  1  0  0  0  0
  9  3  1  0  0  0  0
 10  1  1  0  0  0  0
 10  9  1  0  0  0  0
 11  9  2  0  0  0  0
 13 12  1  0  0  0  0
 13 18  1  1  0  0  0
 14 13  1  0  0  0  0
 15  3  1  6  0  0  0
 15  2  1  0  0  0  0
 16 14  1  0  0  0  0
 17 16  1  1  0  0  0
 17 15  1  0  0  0  0
 18 20  1  0  0  0  0
 19 18  2  0  0  0  0
 22 31  2  0  0  0  0
 22 26  1  0  0  0  0
 24 29  1  0  0  0  0
 25 26  1  0  0  0  0
 25 24  2  0  0  0  0
 26 28  2  0  0  0  0
 28 23  1  0  0  0  0
 28 27  1  0  0  0  0
 29 27  2  0  0  0  0
 30 21  1  0  0  0  0
 30 23  2  0  0  0  0
 31 30  1  0  0  0  0
 32 34  1  0  0  0  0
 32 24  1  0  0  0  0
 33 32  2  0  0  0  0
M  END
>  <MODEL>
1

>  <REMARK>
 VINA RESULT:      -9.1      0.000      0.000
  Name = 
  4 active torsions:
  status: ('A' for Active; 'I' for Inactive)
    1  A    between atoms: C_3  and  C_25
    2  A    between atoms: C_7  and  C_11
    3  A    between atoms: C_8  and  O_18
    4  A    between atoms: O_18  and  C_30
                            x       y       z     vdW  Elec       q    Type
                         _______ _______ _______ _____ _____    ______ ____

>  <TORSDO>
F 4

$$$$
=
 OpenBabel10272415273D

 34 39  0  0  1  0  0  0  0  0999 V2000
  186.3470  177.4820  137.9050 N   0  0  0  0  0  0  0  0  0  0  0  0
  182.5620  178.1420  137.3910 C   0  0  0  0  0  2  0  0  0  0  0  0
  184.1480  176.6840  136.1120 C   0  0  0  0  0  2  0  0  0  0  0  0
  188.5900  176.9060  138.8060 C   0  0  1  0  0  3  0  0  0  0  0  0
  187.5700  178.0260  138.5070 C   0  0  0  0  0  2  0  0  0  0  0  0
  187.6540  175.6800  136.8590 C   0  0  0  0  0  0  0  0  0  0  0  0
  187.4270  174.5370  135.6540 S   0  0  0  0  0  0  0  0  0  0  0  0
  188.9140  176.0380  137.5760 C   0  0  0  0  0  2  0  0  0  0  0  0
  185.4580  175.9660  136.1470 C   0  0  0  0  0  0  0  0  0  0  0  0
  186.4870  176.3930  136.9840 C   0  0  0  0  0  0  0  0  0  0  0  0
  185.8120  174.9180  135.2980 C   0  0  0  0  0  3  0  0  0  0  0  0
  182.1360  178.7780  138.7200 C   0  0  0  0  0  2  0  0  0  0  0  0
  182.6140  177.9910  139.9480 C   0  0  1  0  0  3  0  0  0  0  0  0
  184.1150  178.1530  140.2570 C   0  0  0  0  0  2  0  0  0  0  0  0
  183.8950  177.3910  137.4480 C   0  0  1  0  0  3  0  0  0  0  0  0
  184.8830  178.9880  139.2260 C   0  0  0  0  0  2  0  0  0  0  0  0
  185.1030  178.2690  137.8840 C   0  0  1  0  0  3  0  0  0  0  0  0
  181.8010  178.3510  141.1460 C   0  0  0  0  0  0  0  0  0  0  0  0
  182.4370  178.8000  142.2960 O   0  0  0  0  0  1  0  0  0  0  0  0
  180.5450  178.2550  141.1230 O   0  0  0  0  0  0  0  0  0  0  0  0
  189.7790  177.4280  139.4020 O   0  0  0  0  0  0  0  0  0  0  0  0
  191.7560  177.3150  142.5270 C   0  0  0  0  0  3  0  0  0  0  0  0
  189.0650  177.3830  141.7520 C   0  0  0  0  0  3  0  0  0  0  0  0
  190.0770  177.2560  145.8310 C   0  0  0  0  0  0  0  0  0  0  0  0
  191.0850  177.2640  144.8550 C   0  0  0  0  0  3  0  0  0  0  0  0
  190.7530  177.3070  143.4980 C   0  0  0  0  0  0  0  0  0  0  0  0
  188.3920  177.3330  144.0780 C   0  0  0  0  0  3  0  0  0  0  0  0
  189.3960  177.3430  143.1070 C   0  0  0  0  0  0  0  0  0  0  0  0
  188.7320  177.2890  145.4330 C   0  0  0  0  0  3  0  0  0  0  0  0
  190.0740  177.3900  140.7730 C   0  0  0  0  0  0  0  0  0  0  0  0
  191.4150  177.3560  141.1710 C   0  0  0  0  0  3  0  0  0  0  0  0
  190.4290  177.2110  147.2610 C   0  0  0  0  0  0  0  0  0  0  0  0
  189.5920  177.5630  148.1340 O   0  0  0  0  0  0  0  0  0  0  0  0
  191.7200  176.7680  147.6740 N   0  0  0  0  0  1  0  0  0  0  0  0
  1  5  1  0  0  0  0
  2 15  1  0  0  0  0
  2 12  1  0  0  0  0
  3  9  1  0  0  0  0
  4 21  1  6  0  0  0
  5  4  1  0  0  0  0
  6 10  2  0  0  0  0
  6  8  1  0  0  0  0
  7  6  1  0  0  0  0
  8  4  1  0  0  0  0
  9 10  1  0  0  0  0
 10  1  1  0  0  0  0
 11  7  1  0  0  0  0
 11  9  2  0  0  0  0
 12 13  1  0  0  0  0
 13 14  1  0  0  0  0
 13 18  1  1  0  0  0
 15  3  1  6  0  0  0
 15 17  1  0  0  0  0
 16 14  1  0  0  0  0
 17  1  1  0  0  0  0
 17 16  1  1  0  0  0
 18 19  1  0  0  0  0
 20 18  2  0  0  0  0
 21 30  1  0  0  0  0
 22 26  1  0  0  0  0
 23 28  1  0  0  0  0
 24 32  1  0  0  0  0
 25 24  2  0  0  0  0
 26 25  1  0  0  0  0
 27 29  2  0  0  0  0
 28 26  2  0  0  0  0
 28 27  1  0  0  0  0
 29 24  1  0  0  0  0
 30 31  1  0  0  0  0
 30 23  2  0  0  0  0
 31 22  2  0  0  0  0
 32 34  1  0  0  0  0
 32 33  2  0  0  0  0
M  END
>  <MODEL>
2

>  <REMARK>
 VINA RESULT:      -9.1      3.521      6.899
  Name = 
  4 active torsions:
  status: ('A' for Active; 'I' for Inactive)
    1  A    between atoms: C_3  and  C_25
    2  A    between atoms: C_7  and  C_11
    3  A    between atoms: C_8  and  O_18
    4  A    between atoms: O_18  and  C_30
                            x       y       z     vdW  Elec       q    Type
                         _______ _______ _______ _____ _____    ______ ____

>  <TORSDO>
F 4

$$$$
=
 OpenBabel10272415273D

 34 39  0  0  1  0  0  0  0  0999 V2000
  189.1150  177.9850  144.0890 N   0  0  0  0  0  0  0  0  0  0  0  0
  191.9890  177.6560  141.5090 C   0  0  0  0  0  2  0  0  0  0  0  0
  191.9820  177.3080  143.9900 C   0  0  0  0  0  2  0  0  0  0  0  0
  186.9900  177.7960  145.3630 C   0  0  1  0  0  3  0  0  0  0  0  0
  187.8010  178.5970  144.3220 C   0  0  0  0  0  2  0  0  0  0  0  0
  189.1540  177.1670  146.4070 C   0  0  0  0  0  0  0  0  0  0  0  0
  190.2890  176.5410  147.4710 S   0  0  0  0  0  0  0  0  0  0  0  0
  187.7470  177.5820  146.6870 C   0  0  0  0  0  2  0  0  0  0  0  0
  191.1330  177.0440  145.1920 C   0  0  0  0  0  0  0  0  0  0  0  0
  189.7890  177.4090  145.2130 C   0  0  0  0  0  0  0  0  0  0  0  0
  191.6070  176.5380  146.4020 C   0  0  0  0  0  3  0  0  0  0  0  0
  191.2490  177.5980  140.1670 C   0  0  0  0  0  2  0  0  0  0  0  0
  190.0940  176.5870  140.1570 C   0  0  1  0  0  3  0  0  0  0  0  0
  188.8400  177.0520  140.9230 C   0  0  0  0  0  2  0  0  0  0  0  0
  191.1130  177.3610  142.7290 C   0  0  1  0  0  3  0  0  0  0  0  0
  189.0050  178.3950  141.6430 C   0  0  0  0  0  2  0  0  0  0  0  0
  189.9030  178.3240  142.8920 C   0  0  1  0  0  3  0  0  0  0  0  0
  189.7330  176.2230  138.7560 C   0  0  0  0  0  0  0  0  0  0  0  0
  190.4160  175.1970  138.1160 O   0  0  0  0  0  0  0  0  0  0  0  0
  188.8140  176.8350  138.1490 O   0  0  0  0  0  1  0  0  0  0  0  0
  185.7060  178.3810  145.5860 O   0  0  0  0  0  0  0  0  0  0  0  0
  182.3630  178.9260  144.0960 C   0  0  0  0  0  3  0  0  0  0  0  0
  184.9740  178.3760  143.2420 C   0  0  0  0  0  3  0  0  0  0  0  0
  181.8790  178.7830  140.4250 C   0  0  0  0  0  0  0  0  0  0  0  0
  181.6080  178.9220  141.7940 C   0  0  0  0  0  3  0  0  0  0  0  0
  182.6340  178.7880  142.7330 C   0  0  0  0  0  0  0  0  0  0  0  0
  184.2210  178.3720  140.9400 C   0  0  0  0  0  3  0  0  0  0  0  0
  183.9500  178.5120  142.3030 C   0  0  0  0  0  0  0  0  0  0  0  0
  183.1890  178.5070  140.0060 C   0  0  0  0  0  3  0  0  0  0  0  0
  184.7030  178.5130  144.6140 C   0  0  0  0  0  0  0  0  0  0  0  0
  183.3960  178.7880  145.0310 C   0  0  0  0  0  3  0  0  0  0  0  0
  180.7970  178.9250  139.4360 C   0  0  0  0  0  0  0  0  0  0  0  0
  180.4030  177.9270  138.7760 O   0  0  0  0  0  0  0  0  0  0  0  0
  180.1820  180.1920  139.2140 N   0  0  0  0  0  1  0  0  0  0  0  0
  1  5  1  0  0  0  0
  1 10  1  0  0  0  0
  3  9  1  0  0  0  0
  4 21  1  1  0  0  0
  4  8  1  0  0  0  0
  5  4  1  0  0  0  0
  6  8  1  0  0  0  0
  6  7  1  0  0  0  0
  9 10  1  0  0  0  0
  9 11  2  0  0  0  0
 10  6  2  0  0  0  0
 11  7  1  0  0  0  0
 12  2  1  0  0  0  0
 13 18  1  6  0  0  0
 13 12  1  0  0  0  0
 13 14  1  0  0  0  0
 14 16  1  0  0  0  0
 15  2  1  6  0  0  0
 15 17  1  0  0  0  0
 15  3  1  0  0  0  0
 17 16  1  6  0  0  0
 17  1  1  0  0  0  0
 19 18  2  0  0  0  0
 20 18  1  0  0  0  0
 22 31  1  0  0  0  0
 23 30  1  0  0  0  0
 24 25  2  0  0  0  0
 25 26  1  0  0  0  0
 26 22  2  0  0  0  0
 27 28  1  0  0  0  0
 28 26  1  0  0  0  0
 28 23  2  0  0  0  0
 29 24  1  0  0  0  0
 29 27  2  0  0  0  0
 30 31  2  0  0  0  0
 30 21  1  0  0  0  0
 32 24  1  0  0  0  0
 33 32  2  0  0  0  0
 34 32  1  0  0  0  0
M  END
>  <MODEL>
3

>  <REMARK>
 VINA RESULT:      -9.0      3.442      8.841
  Name = 
  4 active torsions:
  status: ('A' for Active; 'I' for Inactive)
    1  A    between atoms: C_3  and  C_25
    2  A    between atoms: C_7  and  C_11
    3  A    between atoms: C_8  and  O_18
    4  A    between atoms: O_18  and  C_30
                            x       y       z     vdW  Elec       q    Type
                         _______ _______ _______ _____ _____    ______ ____

>  <TORSDO>
F 4

$$$$
=
 OpenBabel10272415273D

 34 39  0  0  1  0  0  0  0  0999 V2000
  189.2350  176.6970  137.0350 N   0  0  0  0  0  0  0  0  0  0  0  0
  186.4420  176.6730  134.3460 C   0  0  0  0  0  2  0  0  0  0  0  0
  188.5520  175.3310  134.5140 C   0  0  0  0  0  2  0  0  0  0  0  0
  190.5490  176.6090  139.1420 C   0  0  1  0  0  3  0  0  0  0  0  0
  189.8400  177.5030  138.1020 C   0  0  0  0  0  2  0  0  0  0  0  0
  191.0000  175.0060  137.3000 C   0  0  0  0  0  0  0  0  0  0  0  0
  191.5840  173.6920  136.4350 S   0  0  0  0  0  0  0  0  0  0  0  0
  191.5780  175.6500  138.5160 C   0  0  0  0  0  2  0  0  0  0  0  0
  189.6280  174.8420  135.4280 C   0  0  0  0  0  0  0  0  0  0  0  0
  189.9450  175.5340  136.5950 C   0  0  0  0  0  0  0  0  0  0  0  0
  190.4670  173.7620  135.1590 C   0  0  0  0  0  3  0  0  0  0  0  0
  185.2850  177.4020  135.0390 C   0  0  0  0  0  2  0  0  0  0  0  0
  184.9920  176.8690  136.4480 C   0  0  1  0  0  3  0  0  0  0  0  0
  186.0150  177.3060  137.5150 C   0  0  0  0  0  2  0  0  0  0  0  0
  187.5260  176.1580  135.2970 C   0  0  1  0  0  3  0  0  0  0  0  0
  187.1960  178.1110  136.9600 C   0  0  0  0  0  2  0  0  0  0  0  0
  188.2000  177.2660  136.1550 C   0  0  1  0  0  3  0  0  0  0  0  0
  183.6130  177.2490  136.8730 C   0  0  0  0  0  0  0  0  0  0  0  0
  183.2570  177.1500  138.2110 O   0  0  0  0  0  1  0  0  0  0  0  0
  182.7720  177.6600  136.0300 O   0  0  0  0  0  0  0  0  0  0  0  0
  191.1320  177.3880  140.1890 O   0  0  0  0  0  0  0  0  0  0  0  0
  191.0400  177.8890  143.8530 C   0  0  0  0  0  3  0  0  0  0  0  0
  189.2540  177.3260  141.7700 C   0  0  0  0  0  3  0  0  0  0  0  0
  187.8460  177.6600  145.7180 C   0  0  0  0  0  0  0  0  0  0  0  0
  189.2110  177.8300  145.4400 C   0  0  0  0  0  3  0  0  0  0  0  0
  189.6820  177.7210  144.1290 C   0  0  0  0  0  0  0  0  0  0  0  0
  187.4230  177.2660  143.3550 C   0  0  0  0  0  3  0  0  0  0  0  0
  188.7820  177.4380  143.0790 C   0  0  0  0  0  0  0  0  0  0  0  0
  186.9590  177.3770  144.6690 C   0  0  0  0  0  3  0  0  0  0  0  0
  190.6210  177.4940  141.4910 C   0  0  0  0  0  0  0  0  0  0  0  0
  191.5050  177.7760  142.5380 C   0  0  0  0  0  3  0  0  0  0  0  0
  187.3500  177.7760  147.1000 C   0  0  0  0  0  0  0  0  0  0  0  0
  186.2320  178.3070  147.3330 O   0  0  0  0  0  0  0  0  0  0  0  0
  188.1300  177.2890  148.1910 N   0  0  0  0  0  1  0  0  0  0  0  0
  1  5  1  0  0  0  0
  2 12  1  0  0  0  0
  3 15  1  0  0  0  0
  3  9  1  0  0  0  0
  4 21  1  1  0  0  0
  5  4  1  0  0  0  0
  6  8  1  0  0  0  0
  7  6  1  0  0  0  0
  8  4  1  0  0  0  0
  9 10  1  0  0  0  0
 10  1  1  0  0  0  0
 10  6  2  0  0  0  0
 11  9  2  0  0  0  0
 11  7  1  0  0  0  0
 12 13  1  0  0  0  0
 13 18  1  1  0  0  0
 13 14  1  0  0  0  0
 15  2  1  6  0  0  0
 15 17  1  0  0  0  0
 16 14  1  0  0  0  0
 17 16  1  1  0  0  0
 17  1  1  0  0  0  0
 18 19  1  0  0  0  0
 20 18  2  0  0  0  0
 21 30  1  0  0  0  0
 22 26  1  0  0  0  0
 23 28  1  0  0  0  0
 24 32  1  0  0  0  0
 25 24  1  0  0  0  0
 26 25  2  0  0  0  0
 27 29  1  0  0  0  0
 28 27  2  0  0  0  0
 28 26  1  0  0  0  0
 29 24  2  0  0  0  0
 30 23  2  0  0  0  0
 30 31  1  0  0  0  0
 31 22  2  0  0  0  0
 32 33  2  0  0  0  0
 32 34  1  0  0  0  0
M  END
>  <MODEL>
4

>  <REMARK>
 VINA RESULT:      -8.9      3.702      8.905
  Name = 
  4 active torsions:
  status: ('A' for Active; 'I' for Inactive)
    1  A    between atoms: C_3  and  C_25
    2  A    between atoms: C_7  and  C_11
    3  A    between atoms: C_8  and  O_18
    4  A    between atoms: O_18  and  C_30
                            x       y       z     vdW  Elec       q    Type
                         _______ _______ _______ _____ _____    ______ ____

>  <TORSDO>
F 4

$$$$
=
 OpenBabel10272415273D

 34 39  0  0  1  0  0  0  0  0999 V2000
  189.1460  176.0280  137.7760 N   0  0  0  0  0  0  0  0  0  0  0  0
  191.6870  173.6060  136.1320 C   0  0  0  0  0  2  0  0  0  0  0  0
  189.2530  173.9740  135.6650 C   0  0  0  0  0  2  0  0  0  0  0  0
  187.9400  178.0060  138.6740 C   0  0  1  0  0  3  0  0  0  0  0  0
  188.8800  176.8210  138.9820 C   0  0  0  0  0  2  0  0  0  0  0  0
  186.9190  176.5980  136.9010 C   0  0  0  0  0  0  0  0  0  0  0  0
  185.9000  176.0550  135.6860 S   0  0  0  0  0  0  0  0  0  0  0  0
  186.6290  177.5780  137.9900 C   0  0  0  0  0  2  0  0  0  0  0  0
  188.1010  174.9140  135.8160 C   0  0  0  0  0  0  0  0  0  0  0  0
  188.0700  175.8500  136.8470 C   0  0  0  0  0  0  0  0  0  0  0  0
  186.9380  174.8730  135.0480 C   0  0  0  0  0  3  0  0  0  0  0  0
  193.0420  174.1650  136.5820 C   0  0  0  0  0  2  0  0  0  0  0  0
  193.1760  175.6780  136.3600 C   0  0  1  0  0  3  0  0  0  0  0  0
  192.3930  176.5370  137.3720 C   0  0  0  0  0  2  0  0  0  0  0  0
  190.5200  174.5870  136.2710 C   0  0  1  0  0  3  0  0  0  0  0  0
  191.5400  175.7280  138.3560 C   0  0  0  0  0  2  0  0  0  0  0  0
  190.2870  175.0990  137.7210 C   0  0  1  0  0  3  0  0  0  0  0  0
  194.6130  176.0780  136.3510 C   0  0  0  0  0  0  0  0  0  0  0  0
  194.9810  177.3010  135.8080 O   0  0  0  0  0  0  0  0  0  0  0  0
  195.4950  175.3180  136.8330 O   0  0  0  0  0  1  0  0  0  0  0  0
  187.6860  178.7880  139.8430 O   0  0  0  0  0  0  0  0  0  0  0  0
  187.3260  177.6630  143.3490 C   0  0  0  0  0  3  0  0  0  0  0  0
  189.3720  178.4140  141.5890 C   0  0  0  0  0  3  0  0  0  0  0  0
  190.2960  177.2890  145.5340 C   0  0  0  0  0  0  0  0  0  0  0  0
  188.9640  177.2890  145.0950 C   0  0  0  0  0  3  0  0  0  0  0  0
  188.6520  177.6610  143.7850 C   0  0  0  0  0  0  0  0  0  0  0  0
  191.0100  178.0410  143.3330 C   0  0  0  0  0  3  0  0  0  0  0  0
  189.6840  178.0390  142.8970 C   0  0  0  0  0  0  0  0  0  0  0  0
  191.3140  177.6670  144.6460 C   0  0  0  0  0  3  0  0  0  0  0  0
  188.0370  178.4170  141.1500 C   0  0  0  0  0  0  0  0  0  0  0  0
  187.0220  178.0390  142.0360 C   0  0  0  0  0  3  0  0  0  0  0  0
  190.6230  176.8950  146.9160 C   0  0  0  0  0  0  0  0  0  0  0  0
  189.7410  176.9380  147.8140 O   0  0  0  0  0  0  0  0  0  0  0  0
  191.9390  176.4620  147.2520 N   0  0  0  0  0  1  0  0  0  0  0  0
  1  5  1  0  0  0  0
  2 15  1  0  0  0  0
  2 12  1  0  0  0  0
  3  9  1  0  0  0  0
  4  5  1  0  0  0  0
  4 21  1  1  0  0  0
  6  8  1  0  0  0  0
  7  6  1  0  0  0  0
  8  4  1  0  0  0  0
  9 10  1  0  0  0  0
 10  6  2  0  0  0  0
 10  1  1  0  0  0  0
 11  7  1  0  0  0  0
 11  9  2  0  0  0  0
 13 18  1  1  0  0  0
 13 12  1  0  0  0  0
 13 14  1  0  0  0  0
 14 16  1  0  0  0  0
 15  3  1  1  0  0  0
 15 17  1  0  0  0  0
 17  1  1  0  0  0  0
 17 16  1  6  0  0  0
 18 20  1  0  0  0  0
 19 18  2  0  0  0  0
 21 30  1  0  0  0  0
 22 26  1  0  0  0  0
 23 28  1  0  0  0  0
 24 32  1  0  0  0  0
 25 24  1  0  0  0  0
 26 25  2  0  0  0  0
 27 29  1  0  0  0  0
 28 27  2  0  0  0  0
 28 26  1  0  0  0  0
 29 24  2  0  0  0  0
 30 23  2  0  0  0  0
 30 31  1  0  0  0  0
 31 22  2  0  0  0  0
 32 34  1  0  0  0  0
 32 33  2  0  0  0  0
M  END
>  <MODEL>
5

>  <REMARK>
 VINA RESULT:      -8.8      3.394      8.521
  Name = 
  4 active torsions:
  status: ('A' for Active; 'I' for Inactive)
    1  A    between atoms: C_3  and  C_25
    2  A    between atoms: C_7  and  C_11
    3  A    between atoms: C_8  and  O_18
    4  A    between atoms: O_18  and  C_30
                            x       y       z     vdW  Elec       q    Type
                         _______ _______ _______ _____ _____    ______ ____

>  <TORSDO>
F 4

$$$$
=
 OpenBabel10272415273D

 34 39  0  0  1  0  0  0  0  0999 V2000
  184.1080  178.5590  140.5190 N   0  0  0  0  0  0  0  0  0  0  0  0
  183.6350  179.3550  144.2830 C   0  0  0  0  0  2  0  0  0  0  0  0
  181.9520  178.7870  142.5160 C   0  0  0  0  0  2  0  0  0  0  0  0
  184.8010  177.6190  138.3250 C   0  0  1  0  0  3  0  0  0  0  0  0
  185.0230  178.7220  139.3830 C   0  0  0  0  0  2  0  0  0  0  0  0
  182.4190  177.5740  139.0270 C   0  0  0  0  0  0  0  0  0  0  0  0
  180.7810  177.2200  139.0890 S   0  0  0  0  0  0  0  0  0  0  0  0
  183.3390  177.5190  137.8530 C   0  0  0  0  0  2  0  0  0  0  0  0
  181.7420  178.1680  141.1720 C   0  0  0  0  0  0  0  0  0  0  0  0
  182.7770  178.1080  140.2420 C   0  0  0  0  0  0  0  0  0  0  0  0
  180.5150  177.7150  140.6900 C   0  0  0  0  0  3  0  0  0  0  0  0
  185.0510  179.2060  144.8520 C   0  0  0  0  0  2  0  0  0  0  0  0
  185.7380  177.9000  144.4280 C   0  0  1  0  0  3  0  0  0  0  0  0
  186.2340  177.8910  142.9690 C   0  0  0  0  0  2  0  0  0  0  0  0
  183.4280  178.6960  142.9170 C   0  0  1  0  0  3  0  0  0  0  0  0
  185.8640  179.1470  142.1720 C   0  0  0  0  0  2  0  0  0  0  0  0
  184.3720  179.2310  141.8020 C   0  0  1  0  0  3  0  0  0  0  0  0
  186.8630  177.5790  145.3540 C   0  0  0  0  0  0  0  0  0  0  0  0
  188.0670  177.1200  144.8370 O   0  0  0  0  0  0  0  0  0  0  0  0
  186.7310  177.7210  146.5990 O   0  0  0  0  0  1  0  0  0  0  0  0
  185.6960  177.7680  137.2210 O   0  0  0  0  0  0  0  0  0  0  0  0
  189.3500  178.3410  137.3290 C   0  0  0  0  0  3  0  0  0  0  0  0
  187.5690  176.1790  137.2690 C   0  0  0  0  0  3  0  0  0  0  0  0
  191.7150  175.4880  137.3780 C   0  0  0  0  0  0  0  0  0  0  0  0
  191.2200  176.8010  137.3720 C   0  0  0  0  0  3  0  0  0  0  0  0
  189.8430  177.0340  137.3360 C   0  0  0  0  0  0  0  0  0  0  0  0
  189.4370  174.6380  137.3120 C   0  0  0  0  0  3  0  0  0  0  0  0
  188.9440  175.9450  137.3070 C   0  0  0  0  0  0  0  0  0  0  0  0
  190.8160  174.4120  137.3470 C   0  0  0  0  0  3  0  0  0  0  0  0
  187.0720  177.4940  137.2600 C   0  0  0  0  0  0  0  0  0  0  0  0
  187.9690  178.5670  137.2920 C   0  0  0  0  0  3  0  0  0  0  0  0
  193.1670  175.2430  137.4150 C   0  0  0  0  0  0  0  0  0  0  0  0
  193.6130  174.1050  137.7210 O   0  0  0  0  0  0  0  0  0  0  0  0
  194.0850  176.2900  137.1070 N   0  0  0  0  0  1  0  0  0  0  0  0
  1 17  1  0  0  0  0
  2 12  1  0  0  0  0
  4 21  1  6  0  0  0
  4  5  1  0  0  0  0
  5  1  1  0  0  0  0
  6  7  1  0  0  0  0
  6 10  2  0  0  0  0
  7 11  1  0  0  0  0
  8  4  1  0  0  0  0
  8  6  1  0  0  0  0
  9  3  1  0  0  0  0
 10  1  1  0  0  0  0
 10  9  1  0  0  0  0
 11  9  2  0  0  0  0
 13 12  1  0  0  0  0
 13 18  1  1  0  0  0
 14 13  1  0  0  0  0
 15  3  1  6  0  0  0
 15  2  1  0  0  0  0
 16 14  1  0  0  0  0
 17 16  1  1  0  0  0
 17 15  1  0  0  0  0
 18 20  1  0  0  0  0
 19 18  2  0  0  0  0
 21 30  1  0  0  0  0
 22 26  1  0  0  0  0
 23 28  1  0  0  0  0
 24 32  1  0  0  0  0
 25 24  1  0  0  0  0
 26 25  2  0  0  0  0
 27 29  1  0  0  0  0
 28 27  2  0  0  0  0
 28 26  1  0  0  0  0
 29 24  2  0  0  0  0
 30 23  2  0  0  0  0
 30 31  1  0  0  0  0
 31 22  2  0  0  0  0
 32 33  2  0  0  0  0
 34 32  1  0  0  0  0
M  END
>  <MODEL>
6

>  <REMARK>
 VINA RESULT:      -8.7      1.161      1.390
  Name = 
  4 active torsions:
  status: ('A' for Active; 'I' for Inactive)
    1  A    between atoms: C_3  and  C_25
    2  A    between atoms: C_7  and  C_11
    3  A    between atoms: C_8  and  O_18
    4  A    between atoms: O_18  and  C_30
                            x       y       z     vdW  Elec       q    Type
                         _______ _______ _______ _____ _____    ______ ____

>  <TORSDO>
F 4

$$$$
=
 OpenBabel10272415273D

 34 39  0  0  1  0  0  0  0  0999 V2000
  182.1550  178.1170  138.2150 N   0  0  0  0  0  0  0  0  0  0  0  0
  183.1180  176.6330  134.7660 C   0  0  0  0  0  2  0  0  0  0  0  0
  181.4890  178.4410  135.3620 C   0  0  0  0  0  2  0  0  0  0  0  0
  182.1490  179.1630  140.4690 C   0  0  1  0  0  3  0  0  0  0  0  0
  182.1550  177.8490  139.6580 C   0  0  0  0  0  2  0  0  0  0  0  0
  180.8890  180.1910  138.5930 C   0  0  0  0  0  0  0  0  0  0  0  0
  180.0130  181.2830  137.6680 S   0  0  0  0  0  0  0  0  0  0  0  0
  181.0000  180.1100  140.0790 C   0  0  0  0  0  2  0  0  0  0  0  0
  181.0820  179.4350  136.4020 C   0  0  0  0  0  0  0  0  0  0  0  0
  181.3860  179.2310  137.7450 C   0  0  0  0  0  0  0  0  0  0  0  0
  180.2890  180.5560  136.1600 C   0  0  0  0  0  3  0  0  0  0  0  0
  184.4230  175.8850  135.0600 C   0  0  0  0  0  2  0  0  0  0  0  0
  185.4410  176.7300  135.8380 C   0  0  1  0  0  3  0  0  0  0  0  0
  185.1080  176.9040  137.3330 C   0  0  0  0  0  2  0  0  0  0  0  0
  182.7250  177.6630  135.8270 C   0  0  1  0  0  3  0  0  0  0  0  0
  183.7680  176.2880  137.7540 C   0  0  0  0  0  2  0  0  0  0  0  0
  182.5410  177.0700  137.2540 C   0  0  1  0  0  3  0  0  0  0  0  0
  186.8140  176.1670  135.6820 C   0  0  0  0  0  0  0  0  0  0  0  0
  187.3680  175.4150  136.7090 O   0  0  0  0  0  1  0  0  0  0  0  0
  187.4730  176.3660  134.6270 O   0  0  0  0  0  0  0  0  0  0  0  0
  182.1590  178.9070  141.8750 O   0  0  0  0  0  0  0  0  0  0  0  0
  185.6590  178.0380  142.7030 C   0  0  0  0  0  3  0  0  0  0  0  0
  183.3150  178.7930  144.0400 C   0  0  0  0  0  3  0  0  0  0  0  0
  186.8300  178.0350  146.2190 C   0  0  0  0  0  0  0  0  0  0  0  0
  186.8270  177.9110  144.8220 C   0  0  0  0  0  3  0  0  0  0  0  0
  185.6620  178.1630  144.0940 C   0  0  0  0  0  0  0  0  0  0  0  0
  184.4810  178.6660  146.1580 C   0  0  0  0  0  3  0  0  0  0  0  0
  184.4800  178.5440  144.7670 C   0  0  0  0  0  0  0  0  0  0  0  0
  185.6510  178.4120  146.8800 C   0  0  0  0  0  3  0  0  0  0  0  0
  183.3110  178.6670  142.6400 C   0  0  0  0  0  0  0  0  0  0  0  0
  184.4870  178.2900  141.9810 C   0  0  0  0  0  3  0  0  0  0  0  0
  188.0600  177.7690  146.9850 C   0  0  0  0  0  0  0  0  0  0  0  0
  189.0620  177.2550  146.4210 O   0  0  0  0  0  0  0  0  0  0  0  0
  188.1310  178.0920  148.3720 N   0  0  0  0  0  1  0  0  0  0  0  0
  1  5  1  0  0  0  0
  2 12  1  0  0  0  0
  3 15  1  0  0  0  0
  3  9  1  0  0  0  0
  4 21  1  1  0  0  0
  5  4  1  0  0  0  0
  6  8  1  0  0  0  0
  7  6  1  0  0  0  0
  8  4  1  0  0  0  0
  9 10  1  0  0  0  0
 10  1  1  0  0  0  0
 10  6  2  0  0  0  0
 11  9  2  0  0  0  0
 11  7  1  0  0  0  0
 12 13  1  0  0  0  0
 13 18  1  1  0  0  0
 13 14  1  0  0  0  0
 14 16  1  0  0  0  0
 15  2  1  6  0  0  0
 15 17  1  0  0  0  0
 17 16  1  1  0  0  0
 17  1  1  0  0  0  0
 18 19  1  0  0  0  0
 20 18  2  0  0  0  0
 21 30  1  0  0  0  0
 22 26  1  0  0  0  0
 23 28  1  0  0  0  0
 24 29  1  0  0  0  0
 24 32  1  0  0  0  0
 25 24  2  0  0  0  0
 26 28  2  0  0  0  0
 26 25  1  0  0  0  0
 27 29  2  0  0  0  0
 28 27  1  0  0  0  0
 30 23  2  0  0  0  0
 31 30  1  0  0  0  0
 31 22  2  0  0  0  0
 32 34  1  0  0  0  0
 33 32  2  0  0  0  0
M  END
>  <MODEL>
7

>  <REMARK>
 VINA RESULT:      -8.6      3.571      7.792
  Name = 
  4 active torsions:
  status: ('A' for Active; 'I' for Inactive)
    1  A    between atoms: C_3  and  C_25
    2  A    between atoms: C_7  and  C_11
    3  A    between atoms: C_8  and  O_18
    4  A    between atoms: O_18  and  C_30
                            x       y       z     vdW  Elec       q    Type
                         _______ _______ _______ _____ _____    ______ ____

>  <TORSDO>
F 4

$$$$
=
 OpenBabel10272415273D

 34 39  0  0  1  0  0  0  0  0999 V2000
  181.9520  178.1650  138.4360 N   0  0  0  0  0  0  0  0  0  0  0  0
  182.9840  176.6210  135.0340 C   0  0  0  0  0  2  0  0  0  0  0  0
  181.4190  178.5070  135.5580 C   0  0  0  0  0  2  0  0  0  0  0  0
  181.9030  179.2200  140.6860 C   0  0  1  0  0  3  0  0  0  0  0  0
  181.8800  177.9040  139.8790 C   0  0  0  0  0  2  0  0  0  0  0  0
  180.7700  180.2980  138.7560 C   0  0  0  0  0  0  0  0  0  0  0  0
  179.9850  181.4250  137.7940 S   0  0  0  0  0  0  0  0  0  0  0  0
  180.8160  180.2190  140.2460 C   0  0  0  0  0  2  0  0  0  0  0  0
  181.0160  179.5230  136.5770 C   0  0  0  0  0  0  0  0  0  0  0  0
  181.2550  179.3110  137.9330 C   0  0  0  0  0  0  0  0  0  0  0  0
  180.2870  180.6790  136.3000 C   0  0  0  0  0  3  0  0  0  0  0  0
  184.2400  175.8150  135.3840 C   0  0  0  0  0  2  0  0  0  0  0  0
  185.2640  176.6150  136.2010 C   0  0  1  0  0  3  0  0  0  0  0  0
  184.8780  176.8120  137.6800 C   0  0  0  0  0  2  0  0  0  0  0  0
  182.5970  177.6740  136.0750 C   0  0  1  0  0  3  0  0  0  0  0  0
  183.4950  176.2610  138.0470 C   0  0  0  0  0  2  0  0  0  0  0  0
  182.3270  177.0970  137.4950 C   0  0  1  0  0  3  0  0  0  0  0  0
  186.6140  175.9880  136.1020 C   0  0  0  0  0  0  0  0  0  0  0  0
  187.1160  175.2690  137.1780 O   0  0  0  0  0  1  0  0  0  0  0  0
  187.3010  176.1040  135.0520 O   0  0  0  0  0  0  0  0  0  0  0  0
  181.8430  178.9710  142.0920 O   0  0  0  0  0  0  0  0  0  0  0  0
  183.9010  178.7720  145.1600 C   0  0  0  0  0  3  0  0  0  0  0  0
  184.2050  178.3730  142.4040 C   0  0  0  0  0  3  0  0  0  0  0  0
  187.4730  177.8000  144.9860 C   0  0  0  0  0  0  0  0  0  0  0  0
  186.2280  178.1910  145.5020 C   0  0  0  0  0  3  0  0  0  0  0  0
  185.1390  178.3820  144.6470 C   0  0  0  0  0  0  0  0  0  0  0  0
  186.5310  177.7920  142.7430 C   0  0  0  0  0  3  0  0  0  0  0  0
  185.2920  178.1800  143.2580 C   0  0  0  0  0  0  0  0  0  0  0  0
  187.6160  177.6040  143.6050 C   0  0  0  0  0  3  0  0  0  0  0  0
  182.9580  178.7670  142.9190 C   0  0  0  0  0  0  0  0  0  0  0  0
  182.8160  178.9630  144.2970 C   0  0  0  0  0  3  0  0  0  0  0  0
  188.6200  177.6000  145.8890 C   0  0  0  0  0  0  0  0  0  0  0  0
  188.4900  177.7730  147.1300 O   0  0  0  0  0  0  0  0  0  0  0  0
  189.8880  177.2070  145.3700 N   0  0  0  0  0  1  0  0  0  0  0  0
  1  5  1  0  0  0  0
  2 12  1  0  0  0  0
  3 15  1  0  0  0  0
  3  9  1  0  0  0  0
  4 21  1  1  0  0  0
  5  4  1  0  0  0  0
  6  8  1  0  0  0  0
  7  6  1  0  0  0  0
  8  4  1  0  0  0  0
  9 10  1  0  0  0  0
 10  1  1  0  0  0  0
 10  6  2  0  0  0  0
 11  9  2  0  0  0  0
 11  7  1  0  0  0  0
 12 13  1  0  0  0  0
 13 18  1  1  0  0  0
 13 14  1  0  0  0  0
 14 16  1  0  0  0  0
 15  2  1  6  0  0  0
 15 17  1  0  0  0  0
 17 16  1  1  0  0  0
 17  1  1  0  0  0  0
 18 19  1  0  0  0  0
 20 18  2  0  0  0  0
 21 30  1  0  0  0  0
 23 30  2  0  0  0  0
 23 28  1  0  0  0  0
 24 25  1  0  0  0  0
 24 32  1  0  0  0  0
 26 22  1  0  0  0  0
 26 25  2  0  0  0  0
 27 28  2  0  0  0  0
 27 29  1  0  0  0  0
 28 26  1  0  0  0  0
 29 24  2  0  0  0  0
 30 31  1  0  0  0  0
 31 22  2  0  0  0  0
 32 33  2  0  0  0  0
 34 32  1  0  0  0  0
M  END
>  <MODEL>
8

>  <REMARK>
 VINA RESULT:      -8.5      3.341      7.449
  Name = 
  4 active torsions:
  status: ('A' for Active; 'I' for Inactive)
    1  A    between atoms: C_3  and  C_25
    2  A    between atoms: C_7  and  C_11
    3  A    between atoms: C_8  and  O_18
    4  A    between atoms: O_18  and  C_30
                            x       y       z     vdW  Elec       q    Type
                         _______ _______ _______ _____ _____    ______ ____

>  <TORSDO>
F 4

$$$$
=
 OpenBabel10272415273D

 34 39  0  0  1  0  0  0  0  0999 V2000
  181.4860  177.5840  138.5210 N   0  0  0  0  0  0  0  0  0  0  0  0
  181.8130  175.2230  135.4640 C   0  0  0  0  0  2  0  0  0  0  0  0
  181.0140  177.5940  135.6120 C   0  0  0  0  0  2  0  0  0  0  0  0
  181.8760  178.9560  140.5560 C   0  0  1  0  0  3  0  0  0  0  0  0
  181.3740  177.6130  139.9850 C   0  0  0  0  0  2  0  0  0  0  0  0
  181.1270  180.0150  138.4380 C   0  0  0  0  0  0  0  0  0  0  0  0
  180.7500  181.1630  137.2740 S   0  0  0  0  0  0  0  0  0  0  0  0
  181.1890  180.1790  139.9200 C   0  0  0  0  0  2  0  0  0  0  0  0
  181.0210  178.8440  136.4310 C   0  0  0  0  0  0  0  0  0  0  0  0
  181.2140  178.7960  137.8090 C   0  0  0  0  0  0  0  0  0  0  0  0
  180.7280  180.1150  135.9390 C   0  0  0  0  0  3  0  0  0  0  0  0
  182.7230  174.1040  135.9830 C   0  0  0  0  0  2  0  0  0  0  0  0
  183.9850  174.6270  136.6820 C   0  0  1  0  0  3  0  0  0  0  0  0
  183.7380  175.1930  138.0940 C   0  0  0  0  0  2  0  0  0  0  0  0
  181.8470  176.5060  136.2990 C   0  0  1  0  0  3  0  0  0  0  0  0
  182.2620  175.2260  138.5080 C   0  0  0  0  0  2  0  0  0  0  0  0
  181.4390  176.3080  137.7870 C   0  0  1  0  0  3  0  0  0  0  0  0
  185.0310  173.5640  136.7320 C   0  0  0  0  0  0  0  0  0  0  0  0
  185.1680  172.7890  137.8760 O   0  0  0  0  0  1  0  0  0  0  0  0
  185.7890  173.3620  135.7460 O   0  0  0  0  0  0  0  0  0  0  0  0
  181.7790  178.9860  141.9810 O   0  0  0  0  0  0  0  0  0  0  0  0
  183.6760  178.7890  145.1510 C   0  0  0  0  0  3  0  0  0  0  0  0
  184.1260  178.4080  142.4120 C   0  0  0  0  0  3  0  0  0  0  0  0
  187.2610  177.8510  145.1580 C   0  0  0  0  0  0  0  0  0  0  0  0
  185.9880  178.2270  145.6100 C   0  0  0  0  0  3  0  0  0  0  0  0
  184.9430  178.4130  144.7010 C   0  0  0  0  0  0  0  0  0  0  0  0
  186.4370  177.8470  142.8690 C   0  0  0  0  0  3  0  0  0  0  0  0
  185.1700  178.2200  143.3200 C   0  0  0  0  0  0  0  0  0  0  0  0
  187.4780  177.6630  143.7850 C   0  0  0  0  0  3  0  0  0  0  0  0
  182.8510  178.7870  142.8640 C   0  0  0  0  0  0  0  0  0  0  0  0
  182.6360  178.9740  144.2340 C   0  0  0  0  0  3  0  0  0  0  0  0
  188.3620  177.6550  146.1180 C   0  0  0  0  0  0  0  0  0  0  0  0
  188.1640  177.8110  147.3520 O   0  0  0  0  0  0  0  0  0  0  0  0
  189.6620  177.2880  145.6620 N   0  0  0  0  0  1  0  0  0  0  0  0
  1  5  1  0  0  0  0
  2 12  1  0  0  0  0
  3 15  1  0  0  0  0
  3  9  1  0  0  0  0
  4 21  1  1  0  0  0
  5  4  1  0  0  0  0
  6  8  1  0  0  0  0
  7  6  1  0  0  0  0
  8  4  1  0  0  0  0
  9 10  1  0  0  0  0
 10  6  2  0  0  0  0
 10  1  1  0  0  0  0
 11  9  2  0  0  0  0
 11  7  1  0  0  0  0
 12 13  1  0  0  0  0
 13 18  1  1  0  0  0
 13 14  1  0  0  0  0
 14 16  1  0  0  0  0
 15  2  1  6  0  0  0
 15 17  1  0  0  0  0
 17 16  1  1  0  0  0
 17  1  1  0  0  0  0
 18 19  1  0  0  0  0
 20 18  2  0  0  0  0
 21 30  1  0  0  0  0
 23 30  2  0  0  0  0
 23 28  1  0  0  0  0
 24 25  1  0  0  0  0
 24 32  1  0  0  0  0
 26 22  1  0  0  0  0
 26 25  2  0  0  0  0
 27 28  2  0  0  0  0
 27 29  1  0  0  0  0
 28 26  1  0  0  0  0
 29 24  2  0  0  0  0
 30 31  1  0  0  0  0
 31 22  2  0  0  0  0
 32 33  2  0  0  0  0
 34 32  1  0  0  0  0
M  END
>  <MODEL>
9

>  <REMARK>
 VINA RESULT:      -8.5      4.262      7.658
  Name = 
  4 active torsions:
  status: ('A' for Active; 'I' for Inactive)
    1  A    between atoms: C_3  and  C_25
    2  A    between atoms: C_7  and  C_11
    3  A    between atoms: C_8  and  O_18
    4  A    between atoms: O_18  and  C_30
                            x       y       z     vdW  Elec       q    Type
                         _______ _______ _______ _____ _____    ______ ____

>  <TORSDO>
F 4

$$$$
