=
 OpenBabel10272413113D

 32 36  0  0  0  0  0  0  0  0999 V2000
  188.0980  177.7630  141.1640 C   0  0  0  0  0  0  0  0  0  0  0  0
  189.3040  177.2370  143.6290 C   0  0  0  0  0  0  0  0  0  0  0  0
  187.5410  178.0650  139.9140 C   0  0  0  0  0  3  0  0  0  0  0  0
  187.3500  178.0040  142.3550 C   0  0  0  0  0  0  0  0  0  0  0  0
  187.3200  177.9320  144.8370 C   0  0  0  0  0  3  0  0  0  0  0  0
  191.8810  176.2190  146.1200 C   0  0  0  0  0  3  0  0  0  0  0  0
  187.9720  177.7280  143.6080 C   0  0  0  0  0  0  0  0  0  0  0  0
  189.8800  176.9200  147.2910 C   0  0  0  0  0  3  0  0  0  0  0  0
  189.2540  177.1850  146.0700 C   0  0  0  0  0  0  0  0  0  0  0  0
  186.0220  178.5210  142.2290 C   0  0  0  0  0  0  0  0  0  0  0  0
  187.9480  177.6640  146.0520 C   0  0  0  0  0  3  0  0  0  0  0  0
  185.5040  178.7960  140.9520 C   0  0  0  0  0  3  0  0  0  0  0  0
  189.9640  177.0220  142.4630 N   0  0  0  0  0  0  0  0  0  0  0  0
  189.4090  177.2500  141.2480 C   0  0  0  0  0  0  0  0  0  0  0  0
  189.9440  176.9670  144.8550 C   0  0  0  0  0  0  0  0  0  0  0  0
  186.2550  178.5750  139.8060 C   0  0  0  0  0  3  0  0  0  0  0  0
  191.1910  176.4370  147.3160 C   0  0  0  0  0  3  0  0  0  0  0  0
  191.2610  176.4820  144.8960 C   0  0  0  0  0  3  0  0  0  0  0  0
  192.3650  176.9260  138.8840 C   0  0  0  0  0  0  0  0  0  0  0  0
  193.7380  177.1300  138.8720 O   0  0  0  0  0  1  0  0  0  0  0  0
  190.2320  176.9680  140.0510 C   0  0  0  0  0  0  0  0  0  0  0  0
  191.7240  176.4650  137.7320 C   0  0  0  0  0  3  0  0  0  0  0  0
  189.5990  176.5240  138.8840 C   0  0  0  0  0  3  0  0  0  0  0  0
  191.6240  177.1850  140.0440 C   0  0  0  0  0  0  0  0  0  0  0  0
  192.2520  177.6790  141.1410 F   0  0  0  0  0  0  0  0  0  0  0  0
  190.3350  176.2650  137.7250 C   0  0  0  0  0  0  0  0  0  0  0  0
  188.2510  175.8630  136.4540 C   0  0  0  0  0  1  0  0  0  0  0  0
  189.6660  175.8130  136.5840 O   0  0  0  0  0  0  0  0  0  0  0  0
  183.9080  178.7050  143.3770 C   0  0  0  0  0  3  0  0  0  0  0  0
  185.2020  178.7700  143.3830 N   0  0  0  0  0  0  0  0  0  0  0  0
  183.1450  178.9790  144.6210 C   0  0  0  0  0  2  0  0  0  0  0  0
  184.0660  178.8500  145.8150 C   0  0  0  0  0  1  0  0  0  0  0  0
  1 14  2  0  0  0  0
  1  4  1  0  0  0  0
  2 15  1  0  0  0  0
  3  1  1  0  0  0  0
  4  7  2  0  0  0  0
  5 11  2  0  0  0  0
  6 17  1  0  0  0  0
  7  2  1  0  0  0  0
  7  5  1  0  0  0  0
  8 17  2  0  0  0  0
  9  8  1  0  0  0  0
 10  4  1  0  0  0  0
 10 30  1  0  0  0  0
 11  9  1  0  0  0  0
 12 10  2  0  0  0  0
 13  2  2  0  0  0  0
 14 13  1  0  0  0  0
 15 18  1  0  0  0  0
 15  9  2  0  0  0  0
 16  3  2  0  0  0  0
 16 12  1  0  0  0  0
 18  6  2  0  0  0  0
 19 24  1  0  0  0  0
 20 19  1  0  0  0  0
 21 14  1  0  0  0  0
 22 19  2  0  0  0  0
 23 21  1  0  0  0  0
 24 21  2  0  0  0  0
 24 25  1  0  0  0  0
 26 22  1  0  0  0  0
 26 23  2  0  0  0  0
 27 28  1  0  0  0  0
 28 26  1  0  0  0  0
 29 30  2  0  0  0  0
 29 31  1  0  0  0  0
 31 32  1  0  0  0  0
M  END
>  <MODEL>
1

>  <REMARK>
 VINA RESULT:     -10.8      0.000      0.000
  Name = 
  4 active torsions:
  status: ('A' for Active; 'I' for Inactive)
    1  A    between atoms: C_13  and  C_18
    2  A    between atoms: C_14  and  N_29
    3  A    between atoms: O_15  and  C_26
    4  A    between atoms: C_16  and  C_27
                            x       y       z     vdW  Elec       q    Type
                         _______ _______ _______ _____ _____    ______ ____

>  <TORSDO>
F 4

$$$$
=
 OpenBabel10272413113D

 32 36  0  0  0  0  0  0  0  0999 V2000
  189.3810  177.2870  142.8400 C   0  0  0  0  0  0  0  0  0  0  0  0
  186.6840  177.9560  143.1320 C   0  0  0  0  0  0  0  0  0  0  0  0
  190.7160  176.9030  142.6580 C   0  0  0  0  0  3  0  0  0  0  0  0
  188.8470  177.4100  144.1570 C   0  0  0  0  0  0  0  0  0  0  0  0
  186.8510  177.9020  145.5490 C   0  0  0  0  0  3  0  0  0  0  0  0
  183.1720  178.8170  142.2310 C   0  0  0  0  0  3  0  0  0  0  0  0
  187.4710  177.7570  144.2960 C   0  0  0  0  0  0  0  0  0  0  0  0
  183.3790  178.7550  144.6430 C   0  0  0  0  0  3  0  0  0  0  0  0
  184.7320  178.4250  144.5230 C   0  0  0  0  0  0  0  0  0  0  0  0
  189.7170  177.1670  145.2670 C   0  0  0  0  0  0  0  0  0  0  0  0
  185.5020  178.2320  145.6650 C   0  0  0  0  0  3  0  0  0  0  0  0
  191.0520  176.7960  145.0330 C   0  0  0  0  0  3  0  0  0  0  0  0
  187.2490  177.8300  141.9040 N   0  0  0  0  0  0  0  0  0  0  0  0
  188.5550  177.5230  141.7200 C   0  0  0  0  0  0  0  0  0  0  0  0
  185.3190  178.2880  143.2430 C   0  0  0  0  0  0  0  0  0  0  0  0
  191.5470  176.6610  143.7430 C   0  0  0  0  0  3  0  0  0  0  0  0
  182.6010  178.9510  143.4990 C   0  0  0  0  0  3  0  0  0  0  0  0
  184.5250  178.4870  142.1030 C   0  0  0  0  0  3  0  0  0  0  0  0
  188.7980  177.7820  137.9390 C   0  0  0  0  0  0  0  0  0  0  0  0
  188.0710  178.2730  136.8620 O   0  0  0  0  0  1  0  0  0  0  0  0
  189.0510  177.4220  140.3300 C   0  0  0  0  0  0  0  0  0  0  0  0
  190.0240  177.1500  137.7150 C   0  0  0  0  0  3  0  0  0  0  0  0
  190.2690  176.7740  140.0910 C   0  0  0  0  0  3  0  0  0  0  0  0
  188.3040  177.9150  139.2420 C   0  0  0  0  0  0  0  0  0  0  0  0
  187.0890  178.4870  139.4410 F   0  0  0  0  0  0  0  0  0  0  0  0
  190.7650  176.6400  138.7920 C   0  0  0  0  0  0  0  0  0  0  0  0
  192.9300  176.4120  137.6160 C   0  0  0  0  0  1  0  0  0  0  0  0
  191.9900  175.9950  138.5980 O   0  0  0  0  0  0  0  0  0  0  0  0
  189.7870  178.0860  147.4960 C   0  0  0  0  0  3  0  0  0  0  0  0
  189.2550  177.2910  146.6220 N   0  0  0  0  0  0  0  0  0  0  0  0
  189.2390  178.1460  148.8750 C   0  0  0  0  0  2  0  0  0  0  0  0
  187.7800  177.7430  148.8560 C   0  0  0  0  0  1  0  0  0  0  0  0
  1  4  1  0  0  0  0
  2 15  2  0  0  0  0
  2  7  1  0  0  0  0
  3  1  2  0  0  0  0
  3 16  1  0  0  0  0
  4  7  1  0  0  0  0
  4 10  2  0  0  0  0
  5 11  1  0  0  0  0
  6 17  1  0  0  0  0
  7  5  2  0  0  0  0
  9  8  1  0  0  0  0
  9 11  2  0  0  0  0
 10 30  1  0  0  0  0
 12 10  1  0  0  0  0
 13  2  1  0  0  0  0
 14 13  2  0  0  0  0
 14  1  1  0  0  0  0
 15  9  1  0  0  0  0
 16 12  2  0  0  0  0
 17  8  2  0  0  0  0
 18  6  2  0  0  0  0
 18 15  1  0  0  0  0
 19 24  1  0  0  0  0
 20 19  1  0  0  0  0
 21 14  1  0  0  0  0
 22 19  2  0  0  0  0
 22 26  1  0  0  0  0
 23 21  1  0  0  0  0
 24 25  1  0  0  0  0
 24 21  2  0  0  0  0
 26 23  2  0  0  0  0
 27 28  1  0  0  0  0
 28 26  1  0  0  0  0
 29 31  1  0  0  0  0
 30 29  2  0  0  0  0
 32 31  1  0  0  0  0
M  END
>  <MODEL>
2

>  <REMARK>
 VINA RESULT:     -10.6      1.864      5.084
  Name = 
  4 active torsions:
  status: ('A' for Active; 'I' for Inactive)
    1  A    between atoms: C_13  and  C_18
    2  A    between atoms: C_14  and  N_29
    3  A    between atoms: O_15  and  C_26
    4  A    between atoms: C_16  and  C_27
                            x       y       z     vdW  Elec       q    Type
                         _______ _______ _______ _____ _____    ______ ____

>  <TORSDO>
F 4

$$$$
=
 OpenBabel10272413113D

 32 36  0  0  0  0  0  0  0  0999 V2000
  188.7750  177.7430  142.8540 C   0  0  0  0  0  0  0  0  0  0  0  0
  186.0300  178.2510  142.9350 C   0  0  0  0  0  0  0  0  0  0  0  0
  190.1620  177.5370  142.8520 C   0  0  0  0  0  3  0  0  0  0  0  0
  188.0840  177.9510  141.6230 C   0  0  0  0  0  0  0  0  0  0  0  0
  185.9110  178.4230  140.5190 C   0  0  0  0  0  3  0  0  0  0  0  0
  182.6130  178.8210  144.3070 C   0  0  0  0  0  3  0  0  0  0  0  0
  186.6820  178.2040  141.6750 C   0  0  0  0  0  0  0  0  0  0  0  0
  182.5340  178.9840  141.8920 C   0  0  0  0  0  3  0  0  0  0  0  0
  183.9060  178.7250  141.8260 C   0  0  0  0  0  0  0  0  0  0  0  0
  188.8360  177.9060  140.4070 C   0  0  0  0  0  0  0  0  0  0  0  0
  184.5430  178.6780  140.5900 C   0  0  0  0  0  3  0  0  0  0  0  0
  190.2220  177.6840  140.4570 C   0  0  0  0  0  3  0  0  0  0  0  0
  186.7400  178.0400  144.0720 N   0  0  0  0  0  0  0  0  0  0  0  0
  188.0680  177.7750  144.0740 C   0  0  0  0  0  0  0  0  0  0  0  0
  184.6470  178.5110  143.0110 C   0  0  0  0  0  0  0  0  0  0  0  0
  190.8810  177.5040  141.6650 C   0  0  0  0  0  3  0  0  0  0  0  0
  181.8880  179.0310  143.1300 C   0  0  0  0  0  3  0  0  0  0  0  0
  183.9850  178.5630  144.2480 C   0  0  0  0  0  3  0  0  0  0  0  0
  188.7320  177.6400  147.8120 C   0  0  0  0  0  0  0  0  0  0  0  0
  188.0880  177.9110  149.0120 O   0  0  0  0  0  1  0  0  0  0  0  0
  188.7250  177.5570  145.3820 C   0  0  0  0  0  0  0  0  0  0  0  0
  190.0470  177.1700  147.8230 C   0  0  0  0  0  3  0  0  0  0  0  0
  190.0500  177.1040  145.4060 C   0  0  0  0  0  3  0  0  0  0  0  0
  188.0690  177.8420  146.5950 C   0  0  0  0  0  0  0  0  0  0  0  0
  186.8080  178.3450  146.5970 F   0  0  0  0  0  0  0  0  0  0  0  0
  190.7150  176.9020  146.6180 C   0  0  0  0  0  0  0  0  0  0  0  0
  192.5960  175.6770  147.6580 C   0  0  0  0  0  1  0  0  0  0  0  0
  192.0330  176.4400  146.5990 O   0  0  0  0  0  0  0  0  0  0  0  0
  188.8120  178.5470  138.0820 C   0  0  0  0  0  3  0  0  0  0  0  0
  188.2040  178.0870  139.1290 N   0  0  0  0  0  0  0  0  0  0  0  0
  188.0740  178.6990  136.8020 C   0  0  0  0  0  2  0  0  0  0  0  0
  186.7090  178.0580  136.9280 C   0  0  0  0  0  1  0  0  0  0  0  0
  1 14  1  0  0  0  0
  2 15  1  0  0  0  0
  2 13  1  0  0  0  0
  3  1  1  0  0  0  0
  4  7  1  0  0  0  0
  4  1  2  0  0  0  0
  5 11  2  0  0  0  0
  5  7  1  0  0  0  0
  7  2  2  0  0  0  0
  8 17  1  0  0  0  0
  9  8  2  0  0  0  0
  9 15  1  0  0  0  0
 10 12  2  0  0  0  0
 10  4  1  0  0  0  0
 11  9  1  0  0  0  0
 12 16  1  0  0  0  0
 13 14  2  0  0  0  0
 14 21  1  0  0  0  0
 15 18  2  0  0  0  0
 16  3  2  0  0  0  0
 17  6  2  0  0  0  0
 18  6  1  0  0  0  0
 19 22  1  0  0  0  0
 19 20  1  0  0  0  0
 21 23  2  0  0  0  0
 21 24  1  0  0  0  0
 23 26  1  0  0  0  0
 24 25  1  0  0  0  0
 24 19  2  0  0  0  0
 26 22  2  0  0  0  0
 28 26  1  0  0  0  0
 28 27  1  0  0  0  0
 29 30  2  0  0  0  0
 30 10  1  0  0  0  0
 31 32  1  0  0  0  0
 31 29  1  0  0  0  0
M  END
>  <MODEL>
3

>  <REMARK>
 VINA RESULT:     -10.6      3.202      7.347
  Name = 
  4 active torsions:
  status: ('A' for Active; 'I' for Inactive)
    1  A    between atoms: C_13  and  C_18
    2  A    between atoms: C_14  and  N_29
    3  A    between atoms: O_15  and  C_26
    4  A    between atoms: C_16  and  C_27
                            x       y       z     vdW  Elec       q    Type
                         _______ _______ _______ _____ _____    ______ ____

>  <TORSDO>
F 4

$$$$
=
 OpenBabel10272413113D

 32 36  0  0  0  0  0  0  0  0999 V2000
  186.4210  178.0960  144.3200 C   0  0  0  0  0  0  0  0  0  0  0  0
  188.2410  177.7600  142.2280 C   0  0  0  0  0  0  0  0  0  0  0  0
  185.4920  178.3200  145.3460 C   0  0  0  0  0  3  0  0  0  0  0  0
  187.7910  177.8550  144.6390 C   0  0  0  0  0  0  0  0  0  0  0  0
  190.0800  177.4380  143.7730 C   0  0  0  0  0  3  0  0  0  0  0  0
  189.5850  177.5190  138.7600 C   0  0  0  0  0  3  0  0  0  0  0  0
  188.7110  177.6800  143.5640 C   0  0  0  0  0  0  0  0  0  0  0  0
  191.3960  177.2010  140.3360 C   0  0  0  0  0  3  0  0  0  0  0  0
  190.5040  177.3600  141.4000 C   0  0  0  0  0  0  0  0  0  0  0  0
  188.1690  177.8140  146.0190 C   0  0  0  0  0  0  0  0  0  0  0  0
  190.9660  177.2790  142.7090 C   0  0  0  0  0  3  0  0  0  0  0  0
  187.1990  178.0330  147.0100 C   0  0  0  0  0  3  0  0  0  0  0  0
  186.9250  177.9870  141.9850 N   0  0  0  0  0  0  0  0  0  0  0  0
  186.0090  178.1390  142.9720 C   0  0  0  0  0  0  0  0  0  0  0  0
  189.1330  177.6010  141.1480 C   0  0  0  0  0  0  0  0  0  0  0  0
  185.8750  178.2870  146.6800 C   0  0  0  0  0  3  0  0  0  0  0  0
  190.9370  177.2790  139.0190 C   0  0  0  0  0  3  0  0  0  0  0  0
  188.6870  177.6790  139.8200 C   0  0  0  0  0  3  0  0  0  0  0  0
  182.8950  178.7910  140.8970 C   0  0  0  0  0  0  0  0  0  0  0  0
  182.5240  178.9590  139.5690 O   0  0  0  0  0  1  0  0  0  0  0  0
  184.6030  178.3740  142.5760 C   0  0  0  0  0  0  0  0  0  0  0  0
  181.9280  178.8690  141.9010 C   0  0  0  0  0  3  0  0  0  0  0  0
  183.6260  178.4720  143.5750 C   0  0  0  0  0  3  0  0  0  0  0  0
  184.2340  178.5510  141.2290 C   0  0  0  0  0  0  0  0  0  0  0  0
  185.1720  178.5260  140.2470 F   0  0  0  0  0  0  0  0  0  0  0  0
  182.2890  178.7130  143.2480 C   0  0  0  0  0  0  0  0  0  0  0  0
  179.9830  178.4250  144.0960 C   0  0  0  0  0  1  0  0  0  0  0  0
  181.3450  178.7940  144.2740 O   0  0  0  0  0  0  0  0  0  0  0  0
  189.8580  176.7440  147.3680 C   0  0  0  0  0  3  0  0  0  0  0  0
  189.5270  177.5570  146.4160 N   0  0  0  0  0  0  0  0  0  0  0  0
  191.2900  176.5430  147.7070 C   0  0  0  0  0  2  0  0  0  0  0  0
  191.9820  175.8260  146.5670 C   0  0  0  0  0  1  0  0  0  0  0  0
  1  4  1  0  0  0  0
  1  3  2  0  0  0  0
  2  7  1  0  0  0  0
  3 16  1  0  0  0  0
  4 10  2  0  0  0  0
  6 17  1  0  0  0  0
  6 18  2  0  0  0  0
  7  5  2  0  0  0  0
  7  4  1  0  0  0  0
  8  9  1  0  0  0  0
  9 11  2  0  0  0  0
 10 30  1  0  0  0  0
 10 12  1  0  0  0  0
 11  5  1  0  0  0  0
 13  2  1  0  0  0  0
 13 14  2  0  0  0  0
 14  1  1  0  0  0  0
 15  9  1  0  0  0  0
 15  2  2  0  0  0  0
 16 12  2  0  0  0  0
 17  8  2  0  0  0  0
 18 15  1  0  0  0  0
 19 24  2  0  0  0  0
 19 22  1  0  0  0  0
 20 19  1  0  0  0  0
 21 14  1  0  0  0  0
 21 23  2  0  0  0  0
 22 26  2  0  0  0  0
 24 21  1  0  0  0  0
 25 24  1  0  0  0  0
 26 23  1  0  0  0  0
 26 28  1  0  0  0  0
 27 28  1  0  0  0  0
 29 31  1  0  0  0  0
 30 29  2  0  0  0  0
 32 31  1  0  0  0  0
M  END
>  <MODEL>
4

>  <REMARK>
 VINA RESULT:     -10.4      3.222      7.157
  Name = 
  4 active torsions:
  status: ('A' for Active; 'I' for Inactive)
    1  A    between atoms: C_13  and  C_18
    2  A    between atoms: C_14  and  N_29
    3  A    between atoms: O_15  and  C_26
    4  A    between atoms: C_16  and  C_27
                            x       y       z     vdW  Elec       q    Type
                         _______ _______ _______ _____ _____    ______ ____

>  <TORSDO>
F 4

$$$$
=
 OpenBabel10272413113D

 32 36  0  0  0  0  0  0  0  0999 V2000
  184.5760  178.5400  142.6200 C   0  0  0  0  0  0  0  0  0  0  0  0
  187.1000  178.0640  141.5220 C   0  0  0  0  0  0  0  0  0  0  0  0
  183.3070  178.8320  143.1380 C   0  0  0  0  0  3  0  0  0  0  0  0
  185.6760  178.3290  143.5040 C   0  0  0  0  0  0  0  0  0  0  0  0
  188.1050  177.8630  143.7190 C   0  0  0  0  0  3  0  0  0  0  0  0
  189.7770  177.5820  138.9750 C   0  0  0  0  0  3  0  0  0  0  0  0
  186.9590  178.0820  142.9340 C   0  0  0  0  0  0  0  0  0  0  0  0
  190.7430  177.3870  141.1860 C   0  0  0  0  0  3  0  0  0  0  0  0
  189.4890  177.6170  141.7590 C   0  0  0  0  0  0  0  0  0  0  0  0
  185.4350  178.3890  144.9130 C   0  0  0  0  0  0  0  0  0  0  0  0
  189.3530  177.6320  143.1440 C   0  0  0  0  0  3  0  0  0  0  0  0
  184.1420  178.6730  145.3840 C   0  0  0  0  0  3  0  0  0  0  0  0
  186.0160  178.2660  140.7310 N   0  0  0  0  0  0  0  0  0  0  0  0
  184.7730  178.4840  141.2240 C   0  0  0  0  0  0  0  0  0  0  0  0
  188.3600  177.8330  140.9350 C   0  0  0  0  0  0  0  0  0  0  0  0
  183.0890  178.8960  144.5070 C   0  0  0  0  0  3  0  0  0  0  0  0
  190.8870  177.3690  139.7970 C   0  0  0  0  0  3  0  0  0  0  0  0
  188.5200  177.8130  139.5410 C   0  0  0  0  0  3  0  0  0  0  0  0
  181.8560  177.8360  138.8800 C   0  0  0  0  0  0  0  0  0  0  0  0
  181.0620  176.7830  138.4440 O   0  0  0  0  0  1  0  0  0  0  0  0
  183.6730  178.6830  140.2560 C   0  0  0  0  0  0  0  0  0  0  0  0
  181.6380  179.1210  138.3780 C   0  0  0  0  0  3  0  0  0  0  0  0
  183.4560  179.9640  139.7310 C   0  0  0  0  0  3  0  0  0  0  0  0
  182.8760  177.6100  139.8130 C   0  0  0  0  0  0  0  0  0  0  0  0
  183.1080  176.3480  140.2550 F   0  0  0  0  0  0  0  0  0  0  0  0
  182.4400  180.1920  138.7990 C   0  0  0  0  0  0  0  0  0  0  0  0
  180.9690  182.0010  137.9740 C   0  0  0  0  0  1  0  0  0  0  0  0
  182.2510  181.4870  138.3080 O   0  0  0  0  0  0  0  0  0  0  0  0
  186.4000  178.4610  147.1230 C   0  0  0  0  0  3  0  0  0  0  0  0
  186.4900  178.1680  145.8640 N   0  0  0  0  0  0  0  0  0  0  0  0
  187.5460  178.1950  148.0300 C   0  0  0  0  0  2  0  0  0  0  0  0
  188.5020  177.2290  147.3640 C   0  0  0  0  0  1  0  0  0  0  0  0
  1  3  2  0  0  0  0
  1  4  1  0  0  0  0
  2  7  1  0  0  0  0
  3 16  1  0  0  0  0
  4 10  2  0  0  0  0
  6 18  2  0  0  0  0
  6 17  1  0  0  0  0
  7  4  1  0  0  0  0
  7  5  2  0  0  0  0
  8  9  1  0  0  0  0
  9 11  2  0  0  0  0
 10 12  1  0  0  0  0
 10 30  1  0  0  0  0
 11  5  1  0  0  0  0
 13 14  2  0  0  0  0
 13  2  1  0  0  0  0
 14  1  1  0  0  0  0
 15  2  2  0  0  0  0
 15  9  1  0  0  0  0
 16 12  2  0  0  0  0
 17  8  2  0  0  0  0
 18 15  1  0  0  0  0
 19 24  1  0  0  0  0
 20 19  1  0  0  0  0
 21 14  1  0  0  0  0
 22 26  1  0  0  0  0
 22 19  2  0  0  0  0
 23 21  1  0  0  0  0
 24 25  1  0  0  0  0
 24 21  2  0  0  0  0
 26 23  2  0  0  0  0
 27 28  1  0  0  0  0
 28 26  1  0  0  0  0
 29 31  1  0  0  0  0
 30 29  2  0  0  0  0
 32 31  1  0  0  0  0
M  END
>  <MODEL>
5

>  <REMARK>
 VINA RESULT:     -10.1      3.632      6.597
  Name = 
  4 active torsions:
  status: ('A' for Active; 'I' for Inactive)
    1  A    between atoms: C_13  and  C_18
    2  A    between atoms: C_14  and  N_29
    3  A    between atoms: O_15  and  C_26
    4  A    between atoms: C_16  and  C_27
                            x       y       z     vdW  Elec       q    Type
                         _______ _______ _______ _____ _____    ______ ____

>  <TORSDO>
F 4

$$$$
=
 OpenBabel10272413113D

 32 36  0  0  0  0  0  0  0  0999 V2000
  189.3070  177.6300  142.9640 C   0  0  0  0  0  0  0  0  0  0  0  0
  186.5650  178.1300  143.1520 C   0  0  0  0  0  0  0  0  0  0  0  0
  190.6690  177.3260  142.8370 C   0  0  0  0  0  3  0  0  0  0  0  0
  188.7290  177.7870  144.2600 C   0  0  0  0  0  0  0  0  0  0  0  0
  186.6660  178.2170  145.5720 C   0  0  0  0  0  3  0  0  0  0  0  0
  183.0310  178.7050  142.1180 C   0  0  0  0  0  3  0  0  0  0  0  0
  187.3300  178.0470  144.3440 C   0  0  0  0  0  0  0  0  0  0  0  0
  183.1730  178.7850  144.5340 C   0  0  0  0  0  3  0  0  0  0  0  0
  184.5470  178.5410  144.4660 C   0  0  0  0  0  0  0  0  0  0  0  0
  189.5810  177.6620  145.4020 C   0  0  0  0  0  0  0  0  0  0  0  0
  185.2950  178.4610  145.6360 C   0  0  0  0  0  3  0  0  0  0  0  0
  190.9430  177.3700  145.2220 C   0  0  0  0  0  3  0  0  0  0  0  0
  187.1710  177.9770  141.9470 N   0  0  0  0  0  0  0  0  0  0  0  0
  188.5000  177.7490  141.8130 C   0  0  0  0  0  0  0  0  0  0  0  0
  185.1780  178.3760  143.2100 C   0  0  0  0  0  0  0  0  0  0  0  0
  191.4830  177.2000  143.9550 C   0  0  0  0  0  3  0  0  0  0  0  0
  182.4160  178.8670  143.3620 C   0  0  0  0  0  3  0  0  0  0  0  0
  184.4050  178.4600  142.0420 C   0  0  0  0  0  3  0  0  0  0  0  0
  190.4860  176.5250  138.8160 C   0  0  0  0  0  0  0  0  0  0  0  0
  191.4090  175.5410  138.4880 O   0  0  0  0  0  1  0  0  0  0  0  0
  189.0400  177.6080  140.4440 C   0  0  0  0  0  0  0  0  0  0  0  0
  190.0640  177.4310  137.8400 C   0  0  0  0  0  3  0  0  0  0  0  0
  188.6390  178.5220  139.4610 C   0  0  0  0  0  3  0  0  0  0  0  0
  189.9830  176.6130  140.1200 C   0  0  0  0  0  0  0  0  0  0  0  0
  190.4380  175.7570  141.0700 F   0  0  0  0  0  0  0  0  0  0  0  0
  189.1400  178.4370  138.1590 C   0  0  0  0  0  0  0  0  0  0  0  0
  187.5720  179.1390  136.3780 C   0  0  0  0  0  1  0  0  0  0  0  0
  188.7060  179.3630  137.2060 O   0  0  0  0  0  0  0  0  0  0  0  0
  189.8200  178.0560  147.7700 C   0  0  0  0  0  3  0  0  0  0  0  0
  189.0730  177.8270  146.7370 N   0  0  0  0  0  0  0  0  0  0  0  0
  189.2030  178.2130  149.1120 C   0  0  0  0  0  2  0  0  0  0  0  0
  187.7080  178.0020  149.0070 C   0  0  0  0  0  1  0  0  0  0  0  0
  1  4  1  0  0  0  0
  2 15  2  0  0  0  0
  2  7  1  0  0  0  0
  3  1  2  0  0  0  0
  3 16  1  0  0  0  0
  4  7  1  0  0  0  0
  4 10  2  0  0  0  0
  5 11  1  0  0  0  0
  6 17  1  0  0  0  0
  7  5  2  0  0  0  0
  9  8  1  0  0  0  0
  9 11  2  0  0  0  0
 10 30  1  0  0  0  0
 12 10  1  0  0  0  0
 13  2  1  0  0  0  0
 14 13  2  0  0  0  0
 14  1  1  0  0  0  0
 15  9  1  0  0  0  0
 16 12  2  0  0  0  0
 17  8  2  0  0  0  0
 18  6  2  0  0  0  0
 18 15  1  0  0  0  0
 19 24  1  0  0  0  0
 20 19  1  0  0  0  0
 21 14  1  0  0  0  0
 22 26  1  0  0  0  0
 22 19  2  0  0  0  0
 23 21  1  0  0  0  0
 24 21  2  0  0  0  0
 24 25  1  0  0  0  0
 26 23  2  0  0  0  0
 27 28  1  0  0  0  0
 28 26  1  0  0  0  0
 29 31  1  0  0  0  0
 30 29  2  0  0  0  0
 32 31  1  0  0  0  0
M  END
>  <MODEL>
6

>  <REMARK>
 VINA RESULT:     -10.1      1.874      4.917
  Name = 
  4 active torsions:
  status: ('A' for Active; 'I' for Inactive)
    1  A    between atoms: C_13  and  C_18
    2  A    between atoms: C_14  and  N_29
    3  A    between atoms: O_15  and  C_26
    4  A    between atoms: C_16  and  C_27
                            x       y       z     vdW  Elec       q    Type
                         _______ _______ _______ _____ _____    ______ ____

>  <TORSDO>
F 4

$$$$
=
 OpenBabel10272413113D

 32 36  0  0  0  0  0  0  0  0999 V2000
  187.4610  178.0780  141.4570 C   0  0  0  0  0  0  0  0  0  0  0  0
  188.8970  177.4680  143.7740 C   0  0  0  0  0  0  0  0  0  0  0  0
  186.7000  178.3380  140.3090 C   0  0  0  0  0  3  0  0  0  0  0  0
  188.8500  177.7710  141.3380 C   0  0  0  0  0  0  0  0  0  0  0  0
  190.9450  177.1510  142.5160 C   0  0  0  0  0  3  0  0  0  0  0  0
  189.6390  176.8450  147.3720 C   0  0  0  0  0  3  0  0  0  0  0  0
  189.5750  177.4660  142.5270 C   0  0  0  0  0  0  0  0  0  0  0  0
  191.6650  176.5380  146.0810 C   0  0  0  0  0  3  0  0  0  0  0  0
  190.9690  176.8460  144.9080 C   0  0  0  0  0  0  0  0  0  0  0  0
  189.4350  177.7740  140.0330 C   0  0  0  0  0  0  0  0  0  0  0  0
  191.6350  176.8460  143.6870 C   0  0  0  0  0  3  0  0  0  0  0  0
  188.6330  178.0530  138.9130 C   0  0  0  0  0  3  0  0  0  0  0  0
  187.5760  177.7720  143.8250 N   0  0  0  0  0  0  0  0  0  0  0  0
  186.8480  178.0890  142.7270 C   0  0  0  0  0  0  0  0  0  0  0  0
  189.5900  177.1580  144.9610 C   0  0  0  0  0  0  0  0  0  0  0  0
  187.2800  178.3290  139.0470 C   0  0  0  0  0  3  0  0  0  0  0  0
  191.0010  176.5380  147.3110 C   0  0  0  0  0  3  0  0  0  0  0  0
  188.9370  177.1530  146.2030 C   0  0  0  0  0  3  0  0  0  0  0  0
  183.5110  178.9240  144.3380 C   0  0  0  0  0  0  0  0  0  0  0  0
  182.9740  179.1630  145.5960 O   0  0  0  0  0  1  0  0  0  0  0  0
  185.4170  178.4090  142.9180 C   0  0  0  0  0  0  0  0  0  0  0  0
  182.6840  178.9580  143.2140 C   0  0  0  0  0  3  0  0  0  0  0  0
  184.5720  178.4280  141.8010 C   0  0  0  0  0  3  0  0  0  0  0  0
  184.8760  178.6430  144.1970 C   0  0  0  0  0  0  0  0  0  0  0  0
  185.6600  178.5650  145.3030 F   0  0  0  0  0  0  0  0  0  0  0  0
  183.2100  178.7060  141.9380 C   0  0  0  0  0  0  0  0  0  0  0  0
  181.0400  179.1210  140.8260 C   0  0  0  0  0  1  0  0  0  0  0  0
  182.4050  178.7250  140.7960 O   0  0  0  0  0  0  0  0  0  0  0  0
  191.2980  176.8010  138.8470 C   0  0  0  0  0  3  0  0  0  0  0  0
  190.8320  177.4940  139.8380 N   0  0  0  0  0  0  0  0  0  0  0  0
  192.7590  176.5640  138.7300 C   0  0  0  0  0  2  0  0  0  0  0  0
  193.4780  177.2880  139.8470 C   0  0  0  0  0  1  0  0  0  0  0  0
  1 14  1  0  0  0  0
  2 13  1  0  0  0  0
  2 15  1  0  0  0  0
  3  1  1  0  0  0  0
  4  1  2  0  0  0  0
  4  7  1  0  0  0  0
  5  7  1  0  0  0  0
  5 11  2  0  0  0  0
  7  2  2  0  0  0  0
  8 17  2  0  0  0  0
  9 15  2  0  0  0  0
  9  8  1  0  0  0  0
 10  4  1  0  0  0  0
 11  9  1  0  0  0  0
 12 16  1  0  0  0  0
 12 10  2  0  0  0  0
 14 21  1  0  0  0  0
 14 13  2  0  0  0  0
 15 18  1  0  0  0  0
 16  3  2  0  0  0  0
 17  6  1  0  0  0  0
 18  6  2  0  0  0  0
 19 20  1  0  0  0  0
 21 24  2  0  0  0  0
 22 19  2  0  0  0  0
 23 26  2  0  0  0  0
 23 21  1  0  0  0  0
 24 19  1  0  0  0  0
 24 25  1  0  0  0  0
 26 22  1  0  0  0  0
 28 27  1  0  0  0  0
 28 26  1  0  0  0  0
 29 30  2  0  0  0  0
 30 10  1  0  0  0  0
 31 29  1  0  0  0  0
 31 32  1  0  0  0  0
M  END
>  <MODEL>
7

>  <REMARK>
 VINA RESULT:     -10.1      3.231      6.458
  Name = 
  4 active torsions:
  status: ('A' for Active; 'I' for Inactive)
    1  A    between atoms: C_13  and  C_18
    2  A    between atoms: C_14  and  N_29
    3  A    between atoms: O_15  and  C_26
    4  A    between atoms: C_16  and  C_27
                            x       y       z     vdW  Elec       q    Type
                         _______ _______ _______ _____ _____    ______ ____

>  <TORSDO>
F 4

$$$$
=
 OpenBabel10272413113D

 32 36  0  0  0  0  0  0  0  0999 V2000
  186.2690  178.1810  144.2340 C   0  0  0  0  0  0  0  0  0  0  0  0
  186.8480  178.1550  141.5020 C   0  0  0  0  0  0  0  0  0  0  0  0
  185.9990  178.1340  145.6090 C   0  0  0  0  0  3  0  0  0  0  0  0
  185.2280  178.5010  143.3130 C   0  0  0  0  0  0  0  0  0  0  0  0
  184.5790  178.7910  140.9340 C   0  0  0  0  0  3  0  0  0  0  0  0
  188.7710  177.7740  138.3320 C   0  0  0  0  0  3  0  0  0  0  0  0
  185.5350  178.4900  141.9210 C   0  0  0  0  0  0  0  0  0  0  0  0
  186.4950  178.4110  137.8060 C   0  0  0  0  0  3  0  0  0  0  0  0
  186.1830  178.4360  139.1680 C   0  0  0  0  0  0  0  0  0  0  0  0
  183.9300  178.8030  143.8350 C   0  0  0  0  0  0  0  0  0  0  0  0
  184.8950  178.7670  139.5770 C   0  0  0  0  0  3  0  0  0  0  0  0
  183.7120  178.7550  145.2220 C   0  0  0  0  0  3  0  0  0  0  0  0
  187.8000  177.8640  142.4240 N   0  0  0  0  0  0  0  0  0  0  0  0
  187.5630  177.8800  143.7580 C   0  0  0  0  0  0  0  0  0  0  0  0
  187.1730  178.1270  140.1300 C   0  0  0  0  0  0  0  0  0  0  0  0
  184.7330  178.4200  146.1010 C   0  0  0  0  0  3  0  0  0  0  0  0
  187.7870  178.0820  137.3890 C   0  0  0  0  0  3  0  0  0  0  0  0
  188.4660  177.7970  139.6960 C   0  0  0  0  0  3  0  0  0  0  0  0
  190.8570  176.5440  145.0950 C   0  0  0  0  0  0  0  0  0  0  0  0
  191.9830  175.8630  144.6500 O   0  0  0  0  0  1  0  0  0  0  0  0
  188.6870  177.5510  144.6610 C   0  0  0  0  0  0  0  0  0  0  0  0
  190.7580  176.9120  146.4390 C   0  0  0  0  0  3  0  0  0  0  0  0
  188.5920  177.8990  146.0150 C   0  0  0  0  0  3  0  0  0  0  0  0
  189.8220  176.8540  144.2040 C   0  0  0  0  0  0  0  0  0  0  0  0
  189.9100  176.4480  142.9120 F   0  0  0  0  0  0  0  0  0  0  0  0
  189.6220  177.5890  146.9070 C   0  0  0  0  0  0  0  0  0  0  0  0
  188.2330  178.0380  148.9050 C   0  0  0  0  0  1  0  0  0  0  0  0
  189.4920  177.9630  148.2470 O   0  0  0  0  0  0  0  0  0  0  0  0
  181.5970  179.1620  143.3400 C   0  0  0  0  0  3  0  0  0  0  0  0
  182.8380  179.1540  142.9690 N   0  0  0  0  0  0  0  0  0  0  0  0
  180.5350  179.5390  142.3720 C   0  0  0  0  0  2  0  0  0  0  0  0
  180.9610  179.1390  140.9760 C   0  0  0  0  0  1  0  0  0  0  0  0
  1  3  2  0  0  0  0
  2  7  1  0  0  0  0
  2 13  1  0  0  0  0
  3 16  1  0  0  0  0
  4 10  2  0  0  0  0
  4  1  1  0  0  0  0
  5  7  2  0  0  0  0
  6 18  2  0  0  0  0
  7  4  1  0  0  0  0
  8  9  1  0  0  0  0
  9 11  2  0  0  0  0
  9 15  1  0  0  0  0
 10 12  1  0  0  0  0
 11  5  1  0  0  0  0
 12 16  2  0  0  0  0
 13 14  2  0  0  0  0
 14  1  1  0  0  0  0
 14 21  1  0  0  0  0
 15  2  2  0  0  0  0
 17  8  2  0  0  0  0
 17  6  1  0  0  0  0
 18 15  1  0  0  0  0
 19 22  1  0  0  0  0
 20 19  1  0  0  0  0
 21 23  2  0  0  0  0
 22 26  2  0  0  0  0
 23 26  1  0  0  0  0
 24 21  1  0  0  0  0
 24 19  2  0  0  0  0
 25 24  1  0  0  0  0
 26 28  1  0  0  0  0
 28 27  1  0  0  0  0
 30 29  2  0  0  0  0
 30 10  1  0  0  0  0
 31 29  1  0  0  0  0
 32 31  1  0  0  0  0
M  END
>  <MODEL>
8

>  <REMARK>
 VINA RESULT:     -10.0      2.703      6.520
  Name = 
  4 active torsions:
  status: ('A' for Active; 'I' for Inactive)
    1  A    between atoms: C_13  and  C_18
    2  A    between atoms: C_14  and  N_29
    3  A    between atoms: O_15  and  C_26
    4  A    between atoms: C_16  and  C_27
                            x       y       z     vdW  Elec       q    Type
                         _______ _______ _______ _____ _____    ______ ____

>  <TORSDO>
F 4

$$$$
=
 OpenBabel10272413113D

 32 36  0  0  0  0  0  0  0  0999 V2000
  190.0020  176.9660  143.1880 C   0  0  0  0  0  0  0  0  0  0  0  0
  187.4000  177.8190  142.6340 C   0  0  0  0  0  0  0  0  0  0  0  0
  191.2970  176.4880  143.4290 C   0  0  0  0  0  3  0  0  0  0  0  0
  189.1180  177.2130  144.2800 C   0  0  0  0  0  0  0  0  0  0  0  0
  186.8470  177.9210  144.9930 C   0  0  0  0  0  3  0  0  0  0  0  0
  184.3850  178.8320  140.6930 C   0  0  0  0  0  3  0  0  0  0  0  0
  187.7940  177.6520  143.9880 C   0  0  0  0  0  0  0  0  0  0  0  0
  183.8720  178.9230  143.0580 C   0  0  0  0  0  3  0  0  0  0  0  0
  185.1700  178.5030  143.3600 C   0  0  0  0  0  0  0  0  0  0  0  0
  189.6030  176.9930  145.6080 C   0  0  0  0  0  0  0  0  0  0  0  0
  185.5540  178.3420  144.6870 C   0  0  0  0  0  3  0  0  0  0  0  0
  190.9140  176.5250  145.7990 C   0  0  0  0  0  3  0  0  0  0  0  0
  188.2870  177.5740  141.6370 N   0  0  0  0  0  0  0  0  0  0  0  0
  189.5610  177.1750  141.8640 C   0  0  0  0  0  0  0  0  0  0  0  0
  186.0930  178.2430  142.3200 C   0  0  0  0  0  0  0  0  0  0  0  0
  191.7520  176.2710  144.7220 C   0  0  0  0  0  3  0  0  0  0  0  0
  183.4800  179.0890  141.7270 C   0  0  0  0  0  3  0  0  0  0  0  0
  185.6850  178.4120  140.9880 C   0  0  0  0  0  3  0  0  0  0  0  0
  192.5430  177.2040  139.5120 C   0  0  0  0  0  0  0  0  0  0  0  0
  193.8540  177.6610  139.4700 O   0  0  0  0  0  1  0  0  0  0  0  0
  190.4320  176.9480  140.6900 C   0  0  0  0  0  0  0  0  0  0  0  0
  192.0090  176.5310  138.4100 C   0  0  0  0  0  3  0  0  0  0  0  0
  189.9020  176.2910  139.5720 C   0  0  0  0  0  3  0  0  0  0  0  0
  191.7570  177.4220  140.6510 C   0  0  0  0  0  0  0  0  0  0  0  0
  192.2730  178.1190  141.6950 F   0  0  0  0  0  0  0  0  0  0  0  0
  190.6830  176.0740  138.4340 C   0  0  0  0  0  0  0  0  0  0  0  0
  190.4830  174.0790  136.9840 C   0  0  0  0  0  1  0  0  0  0  0  0
  190.1200  175.4050  137.3430 O   0  0  0  0  0  0  0  0  0  0  0  0
  189.1920  177.8320  147.8320 C   0  0  0  0  0  3  0  0  0  0  0  0
  188.7760  177.2390  146.7580 N   0  0  0  0  0  0  0  0  0  0  0  0
  188.2620  178.0410  148.9710 C   0  0  0  0  0  2  0  0  0  0  0  0
  186.9010  178.4410  148.4440 C   0  0  0  0  0  1  0  0  0  0  0  0
  1  3  2  0  0  0  0
  1  4  1  0  0  0  0
  2  7  1  0  0  0  0
  3 16  1  0  0  0  0
  4 10  2  0  0  0  0
  6 18  2  0  0  0  0
  6 17  1  0  0  0  0
  7  4  1  0  0  0  0
  7  5  2  0  0  0  0
  8  9  1  0  0  0  0
  9 11  2  0  0  0  0
 10 12  1  0  0  0  0
 10 30  1  0  0  0  0
 11  5  1  0  0  0  0
 13 14  2  0  0  0  0
 13  2  1  0  0  0  0
 14  1  1  0  0  0  0
 15  2  2  0  0  0  0
 15  9  1  0  0  0  0
 16 12  2  0  0  0  0
 17  8  2  0  0  0  0
 18 15  1  0  0  0  0
 19 24  1  0  0  0  0
 20 19  1  0  0  0  0
 21 14  1  0  0  0  0
 22 26  1  0  0  0  0
 22 19  2  0  0  0  0
 23 21  1  0  0  0  0
 24 21  2  0  0  0  0
 24 25  1  0  0  0  0
 26 23  2  0  0  0  0
 27 28  1  0  0  0  0
 28 26  1  0  0  0  0
 29 31  1  0  0  0  0
 30 29  2  0  0  0  0
 32 31  1  0  0  0  0
M  END
>  <MODEL>
9

>  <REMARK>
 VINA RESULT:      -9.6      1.433      4.689
  Name = 
  4 active torsions:
  status: ('A' for Active; 'I' for Inactive)
    1  A    between atoms: C_13  and  C_18
    2  A    between atoms: C_14  and  N_29
    3  A    between atoms: O_15  and  C_26
    4  A    between atoms: C_16  and  C_27
                            x       y       z     vdW  Elec       q    Type
                         _______ _______ _______ _____ _____    ______ ____

>  <TORSDO>
F 4

$$$$
