=
 OpenBabel10272400273D

 31 35  0  0  1  0  0  0  0  0999 V2000
  181.5540  178.7880  143.4590 C   0  0  0  0  0  0  0  0  0  0  0  0
  183.7970  178.7690  140.6420 N   0  0  0  0  0  0  0  0  0  0  0  0
  183.3330  178.4170  141.9680 C   0  0  2  0  0  3  0  0  0  0  0  0
  182.5750  178.9070  144.6110 C   0  0  0  0  0  2  0  0  0  0  0  0
  186.0500  178.2740  141.4890 C   0  0  1  0  0  3  0  0  0  0  0  0
  180.1080  178.9750  143.7570 C   0  0  0  0  0  1  0  0  0  0  0  0
  185.4900  179.4900  142.2210 C   0  0  1  0  0  3  0  0  0  0  0  0
  185.1810  179.2710  140.7320 C   0  0  2  0  0  3  0  0  0  0  0  0
  181.9370  178.6460  142.2270 N   0  0  0  0  0  0  0  0  0  0  0  0
  184.1110  179.3240  142.8480 C   0  0  2  0  0  3  0  0  0  0  0  0
  184.0030  178.8180  144.2060 N   0  0  0  0  0  2  0  0  0  0  0  0
  183.2890  178.1460  139.4470 C   0  0  0  0  0  0  0  0  0  0  0  0
  183.3240  176.1770  137.9720 N   0  0  0  0  0  2  0  0  0  0  0  0
  183.3100  176.6360  139.3580 C   0  0  0  0  0  2  0  0  0  0  0  0
  182.1220  176.6930  137.3340 C   0  0  0  0  0  2  0  0  0  0  0  0
  182.2400  178.2050  137.1920 C   0  0  0  0  0  2  0  0  0  0  0  0
  182.6850  178.8730  138.4760 C   0  0  0  0  0  0  0  0  0  0  0  0
  180.0700  180.4300  139.1710 C   0  0  0  0  0  1  0  0  0  0  0  0
  181.4180  181.0250  138.9410 C   0  0  0  0  0  3  0  0  0  0  0  0
  182.5280  180.3390  138.6470 C   0  0  0  0  0  3  0  0  0  0  0  0
  187.5080  178.5200  141.1550 C   0  0  0  0  0  2  0  0  0  0  0  0
  188.9840  176.6710  141.2360 O   0  0  0  0  0  0  0  0  0  0  0  0
  188.3710  177.5510  141.8960 C   0  0  0  0  0  0  0  0  0  0  0  0
  188.6260  177.6750  146.1830 C   0  0  0  0  0  0  0  0  0  0  0  0
  187.3870  177.2050  144.1620 C   0  0  0  0  0  3  0  0  0  0  0  0
  190.7450  178.4330  143.3100 F   0  0  0  0  0  0  0  0  0  0  0  0
  188.7030  177.7160  147.6660 C   0  0  0  0  0  1  0  0  0  0  0  0
  187.4590  177.2400  145.5550 C   0  0  0  0  0  3  0  0  0  0  0  0
  189.6570  178.0410  144.0180 C   0  0  0  0  0  0  0  0  0  0  0  0
  188.4810  177.6020  143.3740 C   0  0  0  0  0  0  0  0  0  0  0  0
  189.7220  178.0740  145.4160 C   0  0  0  0  0  3  0  0  0  0  0  0
  1  6  1  0  0  0  0
  1  4  1  0  0  0  0
  2  8  1  0  0  0  0
  2  3  1  0  0  0  0
  3  9  1  6  0  0  0
  3 10  1  0  0  0  0
  5 21  1  6  0  0  0
  5  7  1  0  0  0  0
  7 10  1  0  0  0  0
  8  5  1  0  0  0  0
  8  7  1  0  0  0  0
  9  1  2  0  0  0  0
 10 11  1  0  0  0  0
 11  4  1  0  0  0  0
 12  2  1  0  0  0  0
 13 14  1  0  0  0  0
 14 12  1  0  0  0  0
 15 13  1  0  0  0  0
 16 15  1  0  0  0  0
 16 17  1  0  0  0  0
 17 20  1  0  0  0  0
 17 12  2  0  0  0  0
 19 18  1  0  0  0  0
 20 19  2  0  0  0  0
 21 23  1  0  0  0  0
 22 23  2  0  0  0  0
 23 30  1  0  0  0  0
 24 27  1  0  0  0  0
 25 28  2  0  0  0  0
 26 29  1  0  0  0  0
 28 24  1  0  0  0  0
 29 31  1  0  0  0  0
 30 29  2  0  0  0  0
 30 25  1  0  0  0  0
 31 24  2  0  0  0  0
M  END
>  <MODEL>
1

>  <REMARK>
 VINA RESULT:      -7.9      0.000      0.000
  Name = 
  5 active torsions:
  status: ('A' for Active; 'I' for Inactive)
    1  A    between atoms: N_4  and  C_5
    2  A    between atoms: C_9  and  C_22
    3  A    between atoms: C_9  and  C_23
    4  A    between atoms: C_15  and  C_23
    5  A    between atoms: C_30  and  C_31
                            x       y       z     vdW  Elec       q    Type
                         _______ _______ _______ _____ _____    ______ ____

>  <TORSDO>
F 5

$$$$
=
 OpenBabel10272400273D

 31 35  0  0  1  0  0  0  0  0999 V2000
  190.1550  177.3690  146.6290 C   0  0  0  0  0  0  0  0  0  0  0  0
  187.4760  177.4210  144.2230 N   0  0  0  0  0  0  0  0  0  0  0  0
  188.2470  177.8860  145.3580 C   0  0  2  0  0  3  0  0  0  0  0  0
  189.3680  177.7210  147.9100 C   0  0  0  0  0  2  0  0  0  0  0  0
  185.5810  178.6060  145.2460 C   0  0  1  0  0  3  0  0  0  0  0  0
  191.5580  176.8880  146.7550 C   0  0  0  0  0  1  0  0  0  0  0  0
  185.9990  177.4460  146.1440 C   0  0  1  0  0  3  0  0  0  0  0  0
  186.0600  177.3020  144.6170 C   0  0  2  0  0  3  0  0  0  0  0  0
  189.5860  177.3700  145.4630 N   0  0  0  0  0  0  0  0  0  0  0  0
  187.4750  177.3780  146.5190 C   0  0  2  0  0  3  0  0  0  0  0  0
  187.9420  178.0840  147.7000 N   0  0  0  0  0  2  0  0  0  0  0  0
  187.8710  177.6670  142.8600 C   0  0  0  0  0  0  0  0  0  0  0  0
  187.3290  178.7540  140.7200 N   0  0  0  0  0  2  0  0  0  0  0  0
  187.3460  178.9080  142.1720 C   0  0  0  0  0  2  0  0  0  0  0  0
  188.6980  178.4950  140.2970 C   0  0  0  0  0  2  0  0  0  0  0  0
  189.1170  177.1120  140.7800 C   0  0  0  0  0  2  0  0  0  0  0  0
  188.7890  176.8860  142.2400 C   0  0  0  0  0  0  0  0  0  0  0  0
  191.8050  176.5460  142.9670 C   0  0  0  0  0  1  0  0  0  0  0  0
  190.7040  175.5960  143.2990 C   0  0  0  0  0  3  0  0  0  0  0  0
  189.4160  175.7620  142.9800 C   0  0  0  0  0  3  0  0  0  0  0  0
  184.0690  178.6700  145.1830 C   0  0  0  0  0  2  0  0  0  0  0  0
  183.8050  180.7670  144.1160 O   0  0  0  0  0  0  0  0  0  0  0  0
  183.6430  179.5210  144.0310 C   0  0  0  0  0  0  0  0  0  0  0  0
  181.8910  177.7590  140.5250 C   0  0  0  0  0  0  0  0  0  0  0  0
  183.8320  178.3250  141.8500 C   0  0  0  0  0  3  0  0  0  0  0  0
  180.7830  179.4820  143.5460 F   0  0  0  0  0  0  0  0  0  0  0  0
  181.2960  177.1490  139.3080 C   0  0  0  0  0  1  0  0  0  0  0  0
  183.2740  177.7480  140.7080 C   0  0  0  0  0  3  0  0  0  0  0  0
  181.6190  178.9250  142.6350 C   0  0  0  0  0  0  0  0  0  0  0  0
  183.0170  178.9190  142.8280 C   0  0  0  0  0  0  0  0  0  0  0  0
  181.0660  178.3460  141.4870 C   0  0  0  0  0  3  0  0  0  0  0  0
  1  6  1  0  0  0  0
  1  4  1  0  0  0  0
  2  8  1  0  0  0  0
  2  3  1  0  0  0  0
  3  9  1  6  0  0  0
  3 10  1  0  0  0  0
  5 21  1  6  0  0  0
  5  7  1  0  0  0  0
  7 10  1  0  0  0  0
  8  5  1  0  0  0  0
  8  7  1  0  0  0  0
  9  1  2  0  0  0  0
 10 11  1  0  0  0  0
 11  4  1  0  0  0  0
 12  2  1  0  0  0  0
 13 14  1  0  0  0  0
 14 12  1  0  0  0  0
 15 13  1  0  0  0  0
 15 16  1  0  0  0  0
 16 17  1  0  0  0  0
 17 12  2  0  0  0  0
 17 20  1  0  0  0  0
 18 19  1  0  0  0  0
 20 19  2  0  0  0  0
 23 22  2  0  0  0  0
 23 21  1  0  0  0  0
 24 28  2  0  0  0  0
 24 31  1  0  0  0  0
 25 30  2  0  0  0  0
 27 24  1  0  0  0  0
 28 25  1  0  0  0  0
 29 30  1  0  0  0  0
 29 26  1  0  0  0  0
 30 23  1  0  0  0  0
 31 29  2  0  0  0  0
M  END
>  <MODEL>
2

>  <REMARK>
 VINA RESULT:      -7.9      3.251      7.729
  Name = 
  5 active torsions:
  status: ('A' for Active; 'I' for Inactive)
    1  A    between atoms: N_4  and  C_5
    2  A    between atoms: C_9  and  C_22
    3  A    between atoms: C_9  and  C_23
    4  A    between atoms: C_15  and  C_23
    5  A    between atoms: C_30  and  C_31
                            x       y       z     vdW  Elec       q    Type
                         _______ _______ _______ _____ _____    ______ ____

>  <TORSDO>
F 5

$$$$
=
 OpenBabel10272400273D

 31 35  0  0  1  0  0  0  0  0999 V2000
  180.9290  179.2730  136.8170 C   0  0  0  0  0  0  0  0  0  0  0  0
  183.9510  177.7680  138.0690 N   0  0  0  0  0  0  0  0  0  0  0  0
  182.6010  178.2880  138.1420 C   0  0  2  0  0  3  0  0  0  0  0  0
  180.6170  180.2460  137.9740 C   0  0  0  0  0  2  0  0  0  0  0  0
  184.0850  178.2570  140.4730 C   0  0  1  0  0  3  0  0  0  0  0  0
  180.1670  179.4000  135.5450 C   0  0  0  0  0  1  0  0  0  0  0  0
  183.9510  179.5630  139.6970 C   0  0  1  0  0  3  0  0  0  0  0  0
  184.7700  178.4000  139.1190 C   0  0  2  0  0  3  0  0  0  0  0  0
  181.9120  178.4290  136.8870 N   0  0  0  0  0  0  0  0  0  0  0  0
  182.7950  179.6470  138.7070 C   0  0  2  0  0  3  0  0  0  0  0  0
  181.5000  180.1210  139.1640 N   0  0  0  0  0  2  0  0  0  0  0  0
  184.2550  176.4600  137.5490 C   0  0  0  0  0  0  0  0  0  0  0  0
  184.1710  174.0270  137.9070 N   0  0  0  0  0  2  0  0  0  0  0  0
  183.4400  175.2830  138.0380 C   0  0  0  0  0  2  0  0  0  0  0  0
  184.4860  173.8560  136.4960 C   0  0  0  0  0  2  0  0  0  0  0  0
  185.5210  174.8960  136.0860 C   0  0  0  0  0  2  0  0  0  0  0  0
  185.1560  176.2890  136.5510 C   0  0  0  0  0  0  0  0  0  0  0  0
  187.9680  177.4180  137.2990 C   0  0  0  0  0  1  0  0  0  0  0  0
  187.0380  177.9740  136.2750 C   0  0  0  0  0  3  0  0  0  0  0  0
  185.8370  177.4730  135.9670 C   0  0  0  0  0  3  0  0  0  0  0  0
  185.1070  178.4350  141.5770 C   0  0  0  0  0  2  0  0  0  0  0  0
  183.1730  178.6050  142.9320 O   0  0  0  0  0  0  0  0  0  0  0  0
  184.4230  178.4550  142.9060 C   0  0  0  0  0  0  0  0  0  0  0  0
  186.7190  178.0720  146.5170 C   0  0  0  0  0  0  0  0  0  0  0  0
  186.5050  177.8170  144.1240 C   0  0  0  0  0  3  0  0  0  0  0  0
  183.4040  179.2200  145.5120 F   0  0  0  0  0  0  0  0  0  0  0  0
  187.5210  177.9330  147.7600 C   0  0  0  0  0  1  0  0  0  0  0  0
  187.2610  177.6890  145.2900 C   0  0  0  0  0  3  0  0  0  0  0  0
  184.6590  178.7150  145.4120 C   0  0  0  0  0  0  0  0  0  0  0  0
  185.1980  178.3310  144.1650 C   0  0  0  0  0  0  0  0  0  0  0  0
  185.4220  178.5840  146.5770 C   0  0  0  0  0  3  0  0  0  0  0  0
  1  9  2  0  0  0  0
  1  4  1  0  0  0  0
  2  3  1  0  0  0  0
  2  8  1  0  0  0  0
  3  9  1  6  0  0  0
  3 10  1  0  0  0  0
  4 11  1  0  0  0  0
  5 21  1  1  0  0  0
  6  1  1  0  0  0  0
  7  5  1  0  0  0  0
  8  7  1  0  0  0  0
  8  5  1  0  0  0  0
 10 11  1  0  0  0  0
 10  7  1  0  0  0  0
 12 14  1  0  0  0  0
 12  2  1  0  0  0  0
 13 14  1  0  0  0  0
 15 13  1  0  0  0  0
 16 15  1  0  0  0  0
 16 17  1  0  0  0  0
 17 12  2  0  0  0  0
 19 18  1  0  0  0  0
 20 19  2  0  0  0  0
 20 17  1  0  0  0  0
 21 23  1  0  0  0  0
 23 22  2  0  0  0  0
 23 30  1  0  0  0  0
 24 31  1  0  0  0  0
 24 27  1  0  0  0  0
 25 30  2  0  0  0  0
 25 28  1  0  0  0  0
 28 24  2  0  0  0  0
 29 26  1  0  0  0  0
 29 31  2  0  0  0  0
 30 29  1  0  0  0  0
M  END
>  <MODEL>
3

>  <REMARK>
 VINA RESULT:      -7.6      2.966      4.724
  Name = 
  5 active torsions:
  status: ('A' for Active; 'I' for Inactive)
    1  A    between atoms: N_4  and  C_5
    2  A    between atoms: C_9  and  C_22
    3  A    between atoms: C_9  and  C_23
    4  A    between atoms: C_15  and  C_23
    5  A    between atoms: C_30  and  C_31
                            x       y       z     vdW  Elec       q    Type
                         _______ _______ _______ _____ _____    ______ ____

>  <TORSDO>
F 5

$$$$
=
 OpenBabel10272400273D

 31 35  0  0  1  0  0  0  0  0999 V2000
  186.5420  177.6380  136.6810 C   0  0  0  0  0  0  0  0  0  0  0  0
  189.6800  176.5970  138.1080 N   0  0  0  0  0  0  0  0  0  0  0  0
  188.2580  176.8670  138.0910 C   0  0  2  0  0  3  0  0  0  0  0  0
  185.9720  178.4550  137.8610 C   0  0  0  0  0  2  0  0  0  0  0  0
  189.5370  176.9260  140.5390 C   0  0  1  0  0  3  0  0  0  0  0  0
  185.8710  177.7230  135.3560 C   0  0  0  0  0  1  0  0  0  0  0  0
  189.2310  178.2420  139.8310 C   0  0  1  0  0  3  0  0  0  0  0  0
  190.2890  177.2850  139.2620 C   0  0  2  0  0  3  0  0  0  0  0  0
  187.6540  176.9760  136.7900 N   0  0  0  0  0  0  0  0  0  0  0  0
  188.1590  178.1940  138.7490 C   0  0  2  0  0  3  0  0  0  0  0  0
  186.7680  178.4000  139.1150 N   0  0  0  0  0  2  0  0  0  0  0  0
  190.2540  175.4040  137.5430 C   0  0  0  0  0  0  0  0  0  0  0  0
  189.8840  173.0840  136.8090 N   0  0  0  0  0  2  0  0  0  0  0  0
  189.3410  174.4390  136.8180 C   0  0  0  0  0  2  0  0  0  0  0  0
  191.1750  173.1410  136.1380 C   0  0  0  0  0  2  0  0  0  0  0  0
  192.1630  173.8970  137.0180 C   0  0  0  0  0  2  0  0  0  0  0  0
  191.5940  175.1990  137.5380 C   0  0  0  0  0  0  0  0  0  0  0  0
  194.0630  176.5320  136.1700 C   0  0  0  0  0  1  0  0  0  0  0  0
  193.5580  176.8110  137.5460 C   0  0  0  0  0  3  0  0  0  0  0  0
  192.4950  176.2300  138.1120 C   0  0  0  0  0  3  0  0  0  0  0  0
  190.4230  177.1990  141.7390 C   0  0  0  0  0  2  0  0  0  0  0  0
  190.4760  175.1780  142.9720 O   0  0  0  0  0  0  0  0  0  0  0  0
  190.0010  176.3410  142.8880 C   0  0  0  0  0  0  0  0  0  0  0  0
  187.1220  177.7610  145.7430 C   0  0  0  0  0  0  0  0  0  0  0  0
  187.6680  176.9440  143.5360 C   0  0  0  0  0  3  0  0  0  0  0  0
  190.7100  177.1110  145.5930 F   0  0  0  0  0  0  0  0  0  0  0  0
  186.1180  178.2530  146.7230 C   0  0  0  0  0  1  0  0  0  0  0  0
  186.7240  177.4030  144.4550 C   0  0  0  0  0  3  0  0  0  0  0  0
  189.4160  177.1990  145.1950 C   0  0  0  0  0  0  0  0  0  0  0  0
  189.0240  176.8340  143.8890 C   0  0  0  0  0  0  0  0  0  0  0  0
  188.4640  177.6590  146.1120 C   0  0  0  0  0  3  0  0  0  0  0  0
  1  9  2  0  0  0  0
  1  4  1  0  0  0  0
  2  8  1  0  0  0  0
  3  9  1  6  0  0  0
  3  2  1  0  0  0  0
  3 10  1  0  0  0  0
  4 11  1  0  0  0  0
  5 21  1  1  0  0  0
  6  1  1  0  0  0  0
  7  5  1  0  0  0  0
  8  7  1  0  0  0  0
  8  5  1  0  0  0  0
 10 11  1  0  0  0  0
 10  7  1  0  0  0  0
 12  2  1  0  0  0  0
 13 14  1  0  0  0  0
 14 12  1  0  0  0  0
 15 13  1  0  0  0  0
 15 16  1  0  0  0  0
 16 17  1  0  0  0  0
 17 12  2  0  0  0  0
 17 20  1  0  0  0  0
 18 19  1  0  0  0  0
 19 20  2  0  0  0  0
 21 23  1  0  0  0  0
 23 22  2  0  0  0  0
 23 30  1  0  0  0  0
 24 31  1  0  0  0  0
 24 27  1  0  0  0  0
 25 30  2  0  0  0  0
 25 28  1  0  0  0  0
 28 24  2  0  0  0  0
 29 26  1  0  0  0  0
 29 31  2  0  0  0  0
 30 29  1  0  0  0  0
M  END
>  <MODEL>
4

>  <REMARK>
 VINA RESULT:      -7.6      4.386      7.057
  Name = 
  5 active torsions:
  status: ('A' for Active; 'I' for Inactive)
    1  A    between atoms: N_4  and  C_5
    2  A    between atoms: C_9  and  C_22
    3  A    between atoms: C_9  and  C_23
    4  A    between atoms: C_15  and  C_23
    5  A    between atoms: C_30  and  C_31
                            x       y       z     vdW  Elec       q    Type
                         _______ _______ _______ _____ _____    ______ ____

>  <TORSDO>
F 5

$$$$
=
 OpenBabel10272400273D

 31 35  0  0  1  0  0  0  0  0999 V2000
  185.7190  178.4660  139.5960 C   0  0  0  0  0  0  0  0  0  0  0  0
  189.2630  177.8360  139.5140 N   0  0  0  0  0  0  0  0  0  0  0  0
  187.9130  177.7420  140.0280 C   0  0  2  0  0  3  0  0  0  0  0  0
  185.5280  178.7160  141.1080 C   0  0  0  0  0  2  0  0  0  0  0  0
  189.9870  177.3570  141.8130 C   0  0  1  0  0  3  0  0  0  0  0  0
  184.6020  178.7880  138.6670 C   0  0  0  0  0  1  0  0  0  0  0  0
  189.2840  178.7100  141.7750 C   0  0  1  0  0  3  0  0  0  0  0  0
  190.1660  178.2630  140.6000 C   0  0  2  0  0  3  0  0  0  0  0  0
  186.8640  178.0960  139.1100 N   0  0  0  0  0  0  0  0  0  0  0  0
  187.9030  178.7360  141.1300 C   0  0  2  0  0  3  0  0  0  0  0  0
  186.7310  178.4740  141.9480 N   0  0  0  0  0  2  0  0  0  0  0  0
  189.7290  177.0530  138.3990 C   0  0  0  0  0  0  0  0  0  0  0  0
  191.1590  175.2030  137.6330 N   0  0  0  0  0  2  0  0  0  0  0  0
  190.2290  175.6490  138.6650 C   0  0  0  0  0  2  0  0  0  0  0  0
  190.4480  175.2420  136.3630 C   0  0  0  0  0  2  0  0  0  0  0  0
  190.1880  176.6940  135.9810 C   0  0  0  0  0  2  0  0  0  0  0  0
  189.6090  177.4980  137.1250 C   0  0  0  0  0  0  0  0  0  0  0  0
  186.9410  178.0410  135.5980 C   0  0  0  0  0  1  0  0  0  0  0  0
  187.8330  179.0680  136.2110 C   0  0  0  0  0  3  0  0  0  0  0  0
  188.9720  178.8130  136.8640 C   0  0  0  0  0  3  0  0  0  0  0  0
  191.2120  177.4550  142.7000 C   0  0  0  0  0  2  0  0  0  0  0  0
  191.5800  175.3500  143.7210 O   0  0  0  0  0  0  0  0  0  0  0  0
  191.0880  176.5030  143.8460 C   0  0  0  0  0  0  0  0  0  0  0  0
  188.9710  177.6400  147.4070 C   0  0  0  0  0  0  0  0  0  0  0  0
  189.0290  177.2870  145.0170 C   0  0  0  0  0  3  0  0  0  0  0  0
  192.3120  176.5030  146.4760 F   0  0  0  0  0  0  0  0  0  0  0  0
  188.2300  178.0370  148.6330 C   0  0  0  0  0  1  0  0  0  0  0  0
  188.3320  177.6570  146.1680 C   0  0  0  0  0  3  0  0  0  0  0  0
  191.0150  176.8780  146.3470 C   0  0  0  0  0  0  0  0  0  0  0  0
  190.3760  176.8920  145.0880 C   0  0  0  0  0  0  0  0  0  0  0  0
  190.3090  177.2510  147.4960 C   0  0  0  0  0  3  0  0  0  0  0  0
  1  4  1  0  0  0  0
  2  3  1  0  0  0  0
  2  8  1  0  0  0  0
  3  9  1  6  0  0  0
  3 10  1  0  0  0  0
  4 11  1  0  0  0  0
  5 21  1  1  0  0  0
  6  1  1  0  0  0  0
  7  5  1  0  0  0  0
  8  7  1  0  0  0  0
  8  5  1  0  0  0  0
  9  1  2  0  0  0  0
 10  7  1  0  0  0  0
 10 11  1  0  0  0  0
 12 14  1  0  0  0  0
 12  2  1  0  0  0  0
 13 14  1  0  0  0  0
 15 13  1  0  0  0  0
 16 15  1  0  0  0  0
 16 17  1  0  0  0  0
 17 12  2  0  0  0  0
 18 19  1  0  0  0  0
 19 20  2  0  0  0  0
 20 17  1  0  0  0  0
 21 23  1  0  0  0  0
 22 23  2  0  0  0  0
 23 30  1  0  0  0  0
 24 31  1  0  0  0  0
 24 27  1  0  0  0  0
 25 30  2  0  0  0  0
 25 28  1  0  0  0  0
 28 24  2  0  0  0  0
 29 26  1  0  0  0  0
 29 31  2  0  0  0  0
 30 29  1  0  0  0  0
M  END
>  <MODEL>
5

>  <REMARK>
 VINA RESULT:      -7.6      3.536      5.327
  Name = 
  5 active torsions:
  status: ('A' for Active; 'I' for Inactive)
    1  A    between atoms: N_4  and  C_5
    2  A    between atoms: C_9  and  C_22
    3  A    between atoms: C_9  and  C_23
    4  A    between atoms: C_15  and  C_23
    5  A    between atoms: C_30  and  C_31
                            x       y       z     vdW  Elec       q    Type
                         _______ _______ _______ _____ _____    ______ ____

>  <TORSDO>
F 5

$$$$
=
 OpenBabel10272400273D

 31 35  0  0  1  0  0  0  0  0999 V2000
  192.6350  175.7870  135.7740 C   0  0  0  0  0  0  0  0  0  0  0  0
  189.4690  176.2390  137.4290 N   0  0  0  0  0  0  0  0  0  0  0  0
  190.8270  176.5740  137.0520 C   0  0  2  0  0  3  0  0  0  0  0  0
  193.5920  176.2070  136.9100 C   0  0  0  0  0  2  0  0  0  0  0  0
  189.8610  177.6330  139.4150 C   0  0  1  0  0  3  0  0  0  0  0  0
  193.1990  175.1270  134.5650 C   0  0  0  0  0  1  0  0  0  0  0  0
  190.7690  176.4080  139.4680 C   0  0  1  0  0  3  0  0  0  0  0  0
  189.3470  176.2930  138.8970 C   0  0  2  0  0  3  0  0  0  0  0  0
  191.3470  175.8890  135.8990 N   0  0  0  0  0  0  0  0  0  0  0  0
  191.6190  176.1430  138.2310 C   0  0  2  0  0  3  0  0  0  0  0  0
  192.9320  176.7550  138.1250 N   0  0  0  0  0  2  0  0  0  0  0  0
  188.3410  176.4650  136.5620 C   0  0  0  0  0  0  0  0  0  0  0  0
  186.6080  178.0350  135.7980 N   0  0  0  0  0  2  0  0  0  0  0  0
  188.0140  177.8870  136.1620 C   0  0  0  0  0  2  0  0  0  0  0  0
  186.3530  177.1370  134.6810 C   0  0  0  0  0  2  0  0  0  0  0  0
  186.4270  175.6960  135.1720 C   0  0  0  0  0  2  0  0  0  0  0  0
  187.6610  175.4320  136.0060 C   0  0  0  0  0  0  0  0  0  0  0  0
  185.9930  173.1650  137.3560 C   0  0  0  0  0  1  0  0  0  0  0  0
  187.3950  173.0540  136.8600 C   0  0  0  0  0  3  0  0  0  0  0  0
  188.0920  174.0380  136.2810 C   0  0  0  0  0  3  0  0  0  0  0  0
  189.2910  177.8920  140.7950 C   0  0  0  0  0  2  0  0  0  0  0  0
  187.4810  178.7880  139.5590 O   0  0  0  0  0  0  0  0  0  0  0  0
  187.8830  178.3800  140.6800 C   0  0  0  0  0  0  0  0  0  0  0  0
  185.3390  178.4440  144.1420 C   0  0  0  0  0  0  0  0  0  0  0  0
  187.4280  177.8590  143.0770 C   0  0  0  0  0  3  0  0  0  0  0  0
  185.2230  179.5370  140.6620 F   0  0  0  0  0  0  0  0  0  0  0  0
  184.4660  178.4590  145.3450 C   0  0  0  0  0  1  0  0  0  0  0  0
  186.6110  177.8750  144.2080 C   0  0  0  0  0  3  0  0  0  0  0  0
  185.6990  178.9860  141.8060 C   0  0  0  0  0  0  0  0  0  0  0  0
  186.9880  178.4120  141.8630 C   0  0  0  0  0  0  0  0  0  0  0  0
  184.8850  178.9980  142.9430 C   0  0  0  0  0  3  0  0  0  0  0  0
  1  9  2  0  0  0  0
  1  4  1  0  0  0  0
  2  8  1  0  0  0  0
  3  9  1  6  0  0  0
  3  2  1  0  0  0  0
  3 10  1  0  0  0  0
  4 11  1  0  0  0  0
  5  7  1  0  0  0  0
  5 21  1  1  0  0  0
  6  1  1  0  0  0  0
  8  5  1  0  0  0  0
  8  7  1  0  0  0  0
 10  7  1  0  0  0  0
 11 10  1  0  0  0  0
 12  2  1  0  0  0  0
 13 14  1  0  0  0  0
 14 12  1  0  0  0  0
 15 16  1  0  0  0  0
 15 13  1  0  0  0  0
 16 17  1  0  0  0  0
 17 20  1  0  0  0  0
 17 12  2  0  0  0  0
 19 18  1  0  0  0  0
 20 19  2  0  0  0  0
 22 23  2  0  0  0  0
 23 21  1  0  0  0  0
 23 30  1  0  0  0  0
 24 28  1  0  0  0  0
 24 27  1  0  0  0  0
 25 28  2  0  0  0  0
 26 29  1  0  0  0  0
 29 30  2  0  0  0  0
 29 31  1  0  0  0  0
 30 25  1  0  0  0  0
 31 24  2  0  0  0  0
M  END
>  <MODEL>
6

>  <REMARK>
 VINA RESULT:      -7.1      5.069      7.689
  Name = 
  5 active torsions:
  status: ('A' for Active; 'I' for Inactive)
    1  A    between atoms: N_4  and  C_5
    2  A    between atoms: C_9  and  C_22
    3  A    between atoms: C_9  and  C_23
    4  A    between atoms: C_15  and  C_23
    5  A    between atoms: C_30  and  C_31
                            x       y       z     vdW  Elec       q    Type
                         _______ _______ _______ _____ _____    ______ ____

>  <TORSDO>
F 5

$$$$
=
 OpenBabel10272400273D

 31 35  0  0  1  0  0  0  0  0999 V2000
  183.8460  175.8720  136.7730 C   0  0  0  0  0  0  0  0  0  0  0  0
  185.9980  178.1220  138.5820 N   0  0  0  0  0  0  0  0  0  0  0  0
  185.0490  177.0410  138.4200 C   0  0  2  0  0  3  0  0  0  0  0  0
  182.6120  175.8810  137.7000 C   0  0  0  0  0  2  0  0  0  0  0  0
  185.1070  178.3310  140.8620 C   0  0  1  0  0  3  0  0  0  0  0  0
  183.7290  175.2510  135.4250 C   0  0  0  0  0  1  0  0  0  0  0  0
  184.0190  178.6960  139.8570 C   0  0  1  0  0  3  0  0  0  0  0  0
  185.4820  179.0730  139.5830 C   0  0  2  0  0  3  0  0  0  0  0  0
  184.9400  176.4920  137.0940 N   0  0  0  0  0  0  0  0  0  0  0  0
  183.7510  177.6800  138.7520 C   0  0  2  0  0  3  0  0  0  0  0  0
  182.7850  176.6190  138.9790 N   0  0  0  0  0  2  0  0  0  0  0  0
  187.4090  177.9640  138.3360 C   0  0  0  0  0  0  0  0  0  0  0  0
  189.6560  177.7130  139.3070 N   0  0  0  0  0  2  0  0  0  0  0  0
  188.2570  177.3100  139.4060 C   0  0  0  0  0  2  0  0  0  0  0  0
  190.1290  177.3140  137.9900 C   0  0  0  0  0  2  0  0  0  0  0  0
  189.4510  178.1780  136.9330 C   0  0  0  0  0  2  0  0  0  0  0  0
  187.9540  178.2690  137.1330 C   0  0  0  0  0  0  0  0  0  0  0  0
  187.3830  176.8800  134.3970 C   0  0  0  0  0  1  0  0  0  0  0  0
  186.8270  178.1850  134.8580 C   0  0  0  0  0  3  0  0  0  0  0  0
  187.0830  178.7620  136.0370 C   0  0  0  0  0  3  0  0  0  0  0  0
  185.0660  179.3100  142.0190 C   0  0  0  0  0  2  0  0  0  0  0  0
  183.3090  178.2890  143.2340 O   0  0  0  0  0  0  0  0  0  0  0  0
  184.5200  178.6370  143.2360 C   0  0  0  0  0  0  0  0  0  0  0  0
  186.9420  178.0120  146.7280 C   0  0  0  0  0  0  0  0  0  0  0  0
  185.0030  178.9790  145.6590 C   0  0  0  0  0  3  0  0  0  0  0  0
  186.9510  177.0540  143.2070 F   0  0  0  0  0  0  0  0  0  0  0  0
  187.7740  177.8040  147.9420 C   0  0  0  0  0  1  0  0  0  0  0  0
  185.7810  178.7820  146.8000 C   0  0  0  0  0  3  0  0  0  0  0  0
  186.5480  177.6310  144.3660 C   0  0  0  0  0  0  0  0  0  0  0  0
  185.3710  178.4090  144.4290 C   0  0  0  0  0  0  0  0  0  0  0  0
  187.3240  177.4380  145.5140 C   0  0  0  0  0  3  0  0  0  0  0  0
  1  9  2  0  0  0  0
  1  4  1  0  0  0  0
  2  8  1  0  0  0  0
  3  9  1  6  0  0  0
  3  2  1  0  0  0  0
  3 10  1  0  0  0  0
  4 11  1  0  0  0  0
  5 21  1  1  0  0  0
  6  1  1  0  0  0  0
  7  5  1  0  0  0  0
  8  7  1  0  0  0  0
  8  5  1  0  0  0  0
 10 11  1  0  0  0  0
 10  7  1  0  0  0  0
 12  2  1  0  0  0  0
 12 14  1  0  0  0  0
 13 14  1  0  0  0  0
 15 13  1  0  0  0  0
 16 17  1  0  0  0  0
 16 15  1  0  0  0  0
 17 12  2  0  0  0  0
 18 19  1  0  0  0  0
 19 20  2  0  0  0  0
 20 17  1  0  0  0  0
 21 23  1  0  0  0  0
 22 23  2  0  0  0  0
 23 30  1  0  0  0  0
 24 28  1  0  0  0  0
 24 27  1  0  0  0  0
 25 28  2  0  0  0  0
 26 29  1  0  0  0  0
 29 30  2  0  0  0  0
 29 31  1  0  0  0  0
 30 25  1  0  0  0  0
 31 24  2  0  0  0  0
M  END
>  <MODEL>
7

>  <REMARK>
 VINA RESULT:      -7.1      3.161      5.328
  Name = 
  5 active torsions:
  status: ('A' for Active; 'I' for Inactive)
    1  A    between atoms: N_4  and  C_5
    2  A    between atoms: C_9  and  C_22
    3  A    between atoms: C_9  and  C_23
    4  A    between atoms: C_15  and  C_23
    5  A    between atoms: C_30  and  C_31
                            x       y       z     vdW  Elec       q    Type
                         _______ _______ _______ _____ _____    ______ ____

>  <TORSDO>
F 5

$$$$
=
 OpenBabel10272400273D

 31 35  0  0  1  0  0  0  0  0999 V2000
  192.7600  176.3160  137.0710 C   0  0  0  0  0  0  0  0  0  0  0  0
  189.4420  176.8560  138.3610 N   0  0  0  0  0  0  0  0  0  0  0  0
  190.8620  177.1000  138.2140 C   0  0  2  0  0  3  0  0  0  0  0  0
  193.5800  176.4760  138.3700 C   0  0  0  0  0  2  0  0  0  0  0  0
  189.6650  177.9150  140.5670 C   0  0  1  0  0  3  0  0  0  0  0  0
  193.4320  175.7760  135.8580 C   0  0  0  0  0  1  0  0  0  0  0  0
  190.4530  176.6080  140.5500 C   0  0  1  0  0  3  0  0  0  0  0  0
  189.1210  176.7190  139.7930 C   0  0  2  0  0  3  0  0  0  0  0  0
  191.4800  176.5300  137.0460 N   0  0  0  0  0  0  0  0  0  0  0  0
  191.4430  176.4310  139.4040 C   0  0  2  0  0  3  0  0  0  0  0  0
  192.8040  176.9150  139.5600 N   0  0  0  0  0  2  0  0  0  0  0  0
  188.4690  177.3120  137.4020 C   0  0  0  0  0  0  0  0  0  0  0  0
  187.0890  179.1820  136.5940 N   0  0  0  0  0  2  0  0  0  0  0  0
  188.4050  178.7910  137.0900 C   0  0  0  0  0  2  0  0  0  0  0  0
  186.8360  178.4120  135.3850 C   0  0  0  0  0  2  0  0  0  0  0  0
  186.6380  176.9470  135.7590 C   0  0  0  0  0  2  0  0  0  0  0  0
  187.7130  176.4380  136.6930 C   0  0  0  0  0  0  0  0  0  0  0  0
  189.4160  174.4850  134.9530 C   0  0  0  0  0  1  0  0  0  0  0  0
  188.6180  174.1250  136.1600 C   0  0  0  0  0  3  0  0  0  0  0  0
  187.8970  174.9790  136.8950 C   0  0  0  0  0  3  0  0  0  0  0  0
  188.9310  178.0380  141.8870 C   0  0  0  0  0  2  0  0  0  0  0  0
  191.1070  178.4190  142.7400 O   0  0  0  0  0  0  0  0  0  0  0  0
  189.9130  178.1200  143.0100 C   0  0  0  0  0  0  0  0  0  0  0  0
  188.6620  177.2890  147.0350 C   0  0  0  0  0  0  0  0  0  0  0  0
  188.1490  177.9380  144.7650 C   0  0  0  0  0  3  0  0  0  0  0  0
  191.7570  177.3180  145.1020 F   0  0  0  0  0  0  0  0  0  0  0  0
  188.2190  177.0060  148.4250 C   0  0  0  0  0  1  0  0  0  0  0  0
  187.7310  177.6700  146.0690 C   0  0  0  0  0  3  0  0  0  0  0  0
  190.4380  177.4430  145.3910 C   0  0  0  0  0  0  0  0  0  0  0  0
  189.5040  177.8290  144.4060 C   0  0  0  0  0  0  0  0  0  0  0  0
  190.0120  177.1760  146.6970 C   0  0  0  0  0  3  0  0  0  0  0  0
  1  4  1  0  0  0  0
  2  8  1  0  0  0  0
  3  9  1  6  0  0  0
  3  2  1  0  0  0  0
  3 10  1  0  0  0  0
  4 11  1  0  0  0  0
  5 21  1  1  0  0  0
  6  1  1  0  0  0  0
  7  5  1  0  0  0  0
  8  7  1  0  0  0  0
  8  5  1  0  0  0  0
  9  1  2  0  0  0  0
 10 11  1  0  0  0  0
 10  7  1  0  0  0  0
 12  2  1  0  0  0  0
 13 14  1  0  0  0  0
 14 12  1  0  0  0  0
 15 16  1  0  0  0  0
 15 13  1  0  0  0  0
 16 17  1  0  0  0  0
 17 20  1  0  0  0  0
 17 12  2  0  0  0  0
 18 19  1  0  0  0  0
 19 20  2  0  0  0  0
 21 23  1  0  0  0  0
 22 23  2  0  0  0  0
 23 30  1  0  0  0  0
 24 27  1  0  0  0  0
 25 28  1  0  0  0  0
 26 29  1  0  0  0  0
 28 24  2  0  0  0  0
 29 31  2  0  0  0  0
 30 25  2  0  0  0  0
 30 29  1  0  0  0  0
 31 24  1  0  0  0  0
M  END
>  <MODEL>
8

>  <REMARK>
 VINA RESULT:      -7.0      4.775      7.172
  Name = 
  5 active torsions:
  status: ('A' for Active; 'I' for Inactive)
    1  A    between atoms: N_4  and  C_5
    2  A    between atoms: C_9  and  C_22
    3  A    between atoms: C_9  and  C_23
    4  A    between atoms: C_15  and  C_23
    5  A    between atoms: C_30  and  C_31
                            x       y       z     vdW  Elec       q    Type
                         _______ _______ _______ _____ _____    ______ ____

>  <TORSDO>
F 5

$$$$
=
 OpenBabel10272400273D

 31 35  0  0  1  0  0  0  0  0999 V2000
  189.6970  177.4200  146.7880 C   0  0  0  0  0  0  0  0  0  0  0  0
  187.8060  177.3330  143.7260 N   0  0  0  0  0  0  0  0  0  0  0  0
  188.2450  177.8710  144.9970 C   0  0  2  0  0  3  0  0  0  0  0  0
  188.5970  177.8850  147.7670 C   0  0  0  0  0  2  0  0  0  0  0  0
  185.7480  178.6270  144.0860 C   0  0  1  0  0  3  0  0  0  0  0  0
  190.9880  176.9250  147.3390 C   0  0  0  0  0  1  0  0  0  0  0  0
  185.8510  177.5330  145.1440 C   0  0  1  0  0  3  0  0  0  0  0  0
  186.3330  177.2700  143.7100 C   0  0  2  0  0  3  0  0  0  0  0  0
  189.4790  177.3410  145.5110 N   0  0  0  0  0  0  0  0  0  0  0  0
  187.1580  177.4690  145.9250 C   0  0  2  0  0  3  0  0  0  0  0  0
  187.3030  178.2560  147.1370 N   0  0  0  0  0  2  0  0  0  0  0  0
  188.5760  177.4650  142.5160 C   0  0  0  0  0  0  0  0  0  0  0  0
  188.7820  178.5300  140.3070 N   0  0  0  0  0  2  0  0  0  0  0  0
  188.4390  178.7390  141.7100 C   0  0  0  0  0  2  0  0  0  0  0  0
  190.1600  178.0650  140.2640 C   0  0  0  0  0  2  0  0  0  0  0  0
  190.2310  176.6570  140.8440 C   0  0  0  0  0  2  0  0  0  0  0  0
  189.5010  176.5390  142.1640 C   0  0  0  0  0  0  0  0  0  0  0  0
  192.0640  175.9180  143.8340 C   0  0  0  0  0  1  0  0  0  0  0  0
  190.8300  175.0830  143.7670 C   0  0  0  0  0  3  0  0  0  0  0  0
  189.7400  175.3690  143.0470 C   0  0  0  0  0  3  0  0  0  0  0  0
  184.3170  178.7140  143.5930 C   0  0  0  0  0  2  0  0  0  0  0  0
  185.2230  179.6740  141.6270 O   0  0  0  0  0  0  0  0  0  0  0  0
  184.3010  178.9730  142.1220 C   0  0  0  0  0  0  0  0  0  0  0  0
  181.0980  177.4560  139.6920 C   0  0  0  0  0  0  0  0  0  0  0  0
  181.8880  178.4610  141.7430 C   0  0  0  0  0  3  0  0  0  0  0  0
  184.7160  177.8790  139.4670 F   0  0  0  0  0  0  0  0  0  0  0  0
  179.9830  176.9320  138.8610 C   0  0  0  0  0  1  0  0  0  0  0  0
  180.8400  177.9720  140.9620 C   0  0  0  0  0  3  0  0  0  0  0  0
  183.4610  177.9190  139.9800 C   0  0  0  0  0  0  0  0  0  0  0  0
  183.2100  178.4430  141.2660 C   0  0  0  0  0  0  0  0  0  0  0  0
  182.4060  177.4300  139.2030 C   0  0  0  0  0  3  0  0  0  0  0  0
  1  6  1  0  0  0  0
  1  4  1  0  0  0  0
  2  3  1  0  0  0  0
  3  9  1  1  0  0  0
  3 10  1  0  0  0  0
  5 21  1  6  0  0  0
  5  7  1  0  0  0  0
  7 10  1  0  0  0  0
  8  2  1  0  0  0  0
  8  5  1  0  0  0  0
  8  7  1  0  0  0  0
  9  1  2  0  0  0  0
 10 11  1  0  0  0  0
 11  4  1  0  0  0  0
 12  2  1  0  0  0  0
 13 14  1  0  0  0  0
 14 12  1  0  0  0  0
 15 13  1  0  0  0  0
 15 16  1  0  0  0  0
 16 17  1  0  0  0  0
 17 12  2  0  0  0  0
 17 20  1  0  0  0  0
 19 18  1  0  0  0  0
 20 19  2  0  0  0  0
 22 23  2  0  0  0  0
 23 21  1  0  0  0  0
 24 28  1  0  0  0  0
 26 29  1  0  0  0  0
 27 24  1  0  0  0  0
 28 25  2  0  0  0  0
 29 30  2  0  0  0  0
 30 25  1  0  0  0  0
 30 23  1  0  0  0  0
 31 24  2  0  0  0  0
 31 29  1  0  0  0  0
M  END
>  <MODEL>
9

>  <REMARK>
 VINA RESULT:      -6.9      2.985      7.784
  Name = 
  5 active torsions:
  status: ('A' for Active; 'I' for Inactive)
    1  A    between atoms: N_4  and  C_5
    2  A    between atoms: C_9  and  C_22
    3  A    between atoms: C_9  and  C_23
    4  A    between atoms: C_15  and  C_23
    5  A    between atoms: C_30  and  C_31
                            x       y       z     vdW  Elec       q    Type
                         _______ _______ _______ _____ _____    ______ ____

>  <TORSDO>
F 5

$$$$
