=
 OpenBabel10272413243D

 32 36  0  0  1  0  0  0  0  0999 V2000
  185.0080  178.4160  141.2560 C   0  0  2  0  0  3  0  0  0  0  0  0
  180.7660  178.8620  143.9250 C   0  0  0  0  0  2  0  0  0  0  0  0
  180.1410  179.6190  142.7580 C   0  0  0  0  0  2  0  0  0  0  0  0
  184.8310  178.5740  138.7650 C   0  0  0  0  0  0  0  0  0  0  0  0
  184.2560  177.3340  138.2500 C   0  0  0  0  0  0  0  0  0  0  0  0
  187.1760  178.1150  142.4350 C   0  0  0  0  0  0  0  0  0  0  0  0
  185.0980  178.0900  143.7250 C   0  0  0  0  0  3  0  0  0  0  0  0
  182.9140  175.6070  138.2340 C   0  0  0  0  0  0  0  0  0  0  0  0
  182.2770  179.0700  143.9270 C   0  0  0  0  0  2  0  0  0  0  0  0
  184.3950  178.8150  142.6050 C   0  0  2  0  0  3  0  0  0  0  0  0
  182.8910  178.5510  142.6240 C   0  0  2  0  0  3  0  0  0  0  0  0
  182.8040  178.8330  140.1430 N   0  0  2  0  0  0  0  0  0  0  0  0
  183.8110  175.4310  137.2810 O   0  0  0  0  0  0  0  0  0  0  0  0
  188.4570  177.8680  142.3580 C   0  0  0  0  0  0  0  0  0  0  0  0
  186.4010  177.8000  143.6640 C   0  0  0  0  0  0  0  0  0  0  0  0
  184.6520  176.4560  137.2570 C   0  0  0  0  0  3  0  0  0  0  0  0
  189.7390  177.6240  142.2810 C   0  0  0  0  0  3  0  0  0  0  0  0
  180.7180  179.1200  141.4380 C   0  0  0  0  0  2  0  0  0  0  0  0
  182.2420  179.2720  141.4270 C   0  0  1  0  0  3  0  0  0  0  0  0
  182.5120  177.4590  139.9300 N   0  0  0  0  0  2  0  0  0  0  0  0
  186.4970  178.7750  141.2700 C   0  0  0  0  0  2  0  0  0  0  0  0
  185.7820  179.1540  138.1790 O   0  0  0  0  0  0  0  0  0  0  0  0
  181.8160  174.6570  138.5560 C   0  0  0  0  0  1  0  0  0  0  0  0
  184.2730  179.0880  140.0800 C   0  0  1  0  0  3  0  0  0  0  0  0
  183.1720  176.8010  138.8510 C   0  0  0  0  0  0  0  0  0  0  0  0
  190.7540  178.2410  143.2000 C   0  0  0  0  0  2  0  0  0  0  0  0
  191.5700  177.2420  143.8800 N   0  0  0  0  0  0  0  0  0  0  0  0
  191.2040  176.0330  143.3930 O   0  0  0  0  0  1  0  0  0  0  0  0
  191.1750  177.2640  145.2760 C   0  0  0  0  0  1  0  0  0  0  0  0
  187.0390  177.1300  144.8370 C   0  0  0  0  0  2  0  0  0  0  0  0
  187.3100  177.7270  146.9430 C   0  0  0  0  0  1  0  0  0  0  0  0
  187.6640  178.0820  145.6410 O   0  0  0  0  0  0  0  0  0  0  0  0
  1 21  1  1  0  0  0
  1 10  1  0  0  0  0
  2  9  1  0  0  0  0
  3  2  1  0  0  0  0
  5  4  1  0  0  0  0
  5 25  1  0  0  0  0
  6 15  1  0  0  0  0
  8 23  1  0  0  0  0
  8 25  2  0  0  0  0
 10 11  1  0  0  0  0
 10  7  1  1  0  0  0
 11  9  1  1  0  0  0
 12 20  1  1  0  0  0
 12 19  1  0  0  0  0
 13  8  1  0  0  0  0
 14  6  2  0  0  0  0
 15  7  2  0  0  0  0
 15 30  1  0  0  0  0
 16 13  1  0  0  0  0
 16  5  2  0  0  0  0
 17 14  2  0  0  0  0
 17 26  1  0  0  0  0
 18  3  1  0  0  0  0
 19 18  1  6  0  0  0
 19 11  1  0  0  0  0
 21  6  1  0  0  0  0
 22  4  2  0  0  0  0
 24  4  1  6  0  0  0
 24 12  1  0  0  0  0
 24  1  1  0  0  0  0
 25 20  1  0  0  0  0
 26 27  1  0  0  0  0
 27 29  1  0  0  0  0
 28 27  1  0  0  0  0
 30 32  1  0  0  0  0
 32 31  1  0  0  0  0
M  END
>  <MODEL>
1

>  <REMARK>
 VINA RESULT:      -8.4      0.000      0.000
  Name = 
  4 active torsions:
  status: ('A' for Active; 'I' for Inactive)
    1  A    between atoms: N_1  and  C_10
    2  A    between atoms: C_10  and  C_23
    3  A    between atoms: C_12  and  C_21
    4  A    between atoms: C_12  and  O_24
                            x       y       z     vdW  Elec       q    Type
                         _______ _______ _______ _____ _____    ______ ____

>  <TORSDO>
F 4

$$$$
=
 OpenBabel10272413243D

 32 36  0  0  1  0  0  0  0  0999 V2000
  186.4010  178.1020  141.0030 C   0  0  2  0  0  3  0  0  0  0  0  0
  184.3960  178.2710  145.6150 C   0  0  0  0  0  2  0  0  0  0  0  0
  183.3970  179.3090  145.1150 C   0  0  0  0  0  2  0  0  0  0  0  0
  184.9580  178.8120  139.0850 C   0  0  0  0  0  0  0  0  0  0  0  0
  183.9820  177.7600  138.8110 C   0  0  0  0  0  0  0  0  0  0  0  0
  188.7660  177.3900  140.7160 C   0  0  0  0  0  0  0  0  0  0  0  0
  187.7300  177.2400  142.9270 C   0  0  0  0  0  3  0  0  0  0  0  0
  182.5490  176.1830  139.3040 C   0  0  0  0  0  0  0  0  0  0  0  0
  185.6840  178.3600  144.8030 C   0  0  0  0  0  2  0  0  0  0  0  0
  186.6850  178.2420  142.5040 C   0  0  2  0  0  3  0  0  0  0  0  0
  185.4030  178.0930  143.3220 C   0  0  2  0  0  3  0  0  0  0  0  0
  184.0630  178.9140  141.3790 N   0  0  2  0  0  0  0  0  0  0  0  0
  182.7510  176.1530  138.0000 O   0  0  0  0  0  0  0  0  0  0  0  0
  189.7390  177.0710  139.9040 C   0  0  0  0  0  0  0  0  0  0  0  0
  188.7220  176.8740  142.1090 C   0  0  0  0  0  0  0  0  0  0  0  0
  183.6210  177.0920  137.6550 C   0  0  0  0  0  3  0  0  0  0  0  0
  190.7130  176.7540  139.0920 C   0  0  0  0  0  3  0  0  0  0  0  0
  183.0800  179.0680  143.6430 C   0  0  0  0  0  2  0  0  0  0  0  0
  184.3620  179.1040  142.8060 C   0  0  1  0  0  3  0  0  0  0  0  0
  183.4570  177.6460  141.1750 N   0  0  0  0  0  2  0  0  0  0  0  0
  187.7050  178.3370  140.2350 C   0  0  0  0  0  2  0  0  0  0  0  0
  185.5390  179.4320  138.1570 O   0  0  0  0  0  0  0  0  0  0  0  0
  181.6390  175.2710  140.0460 C   0  0  0  0  0  1  0  0  0  0  0  0
  185.2900  179.0670  140.5450 C   0  0  1  0  0  3  0  0  0  0  0  0
  183.3080  177.1910  139.8330 C   0  0  0  0  0  0  0  0  0  0  0  0
  192.1540  177.0780  139.3640 C   0  0  0  0  0  2  0  0  0  0  0  0
  193.0680  176.2420  138.5960 N   0  0  0  0  0  0  0  0  0  0  0  0
  193.7160  177.0530  137.7290 O   0  0  0  0  0  1  0  0  0  0  0  0
  192.2450  175.3520  137.7970 C   0  0  0  0  0  1  0  0  0  0  0  0
  189.7510  175.9180  142.6200 C   0  0  0  0  0  2  0  0  0  0  0  0
  191.5180  177.0990  143.2070 C   0  0  0  0  0  1  0  0  0  0  0  0
  190.3920  176.4650  143.7310 O   0  0  0  0  0  0  0  0  0  0  0  0
  1 21  1  6  0  0  0
  1 10  1  0  0  0  0
  3  2  1  0  0  0  0
  5  4  1  0  0  0  0
  5 25  1  0  0  0  0
  6 15  1  0  0  0  0
  8 25  2  0  0  0  0
  8 23  1  0  0  0  0
  9  2  1  0  0  0  0
 10  7  1  1  0  0  0
 10 11  1  0  0  0  0
 11  9  1  1  0  0  0
 12 20  1  1  0  0  0
 12 19  1  0  0  0  0
 13  8  1  0  0  0  0
 14  6  2  0  0  0  0
 15 30  1  0  0  0  0
 15  7  2  0  0  0  0
 16 13  1  0  0  0  0
 16  5  2  0  0  0  0
 17 26  1  0  0  0  0
 17 14  2  0  0  0  0
 18  3  1  0  0  0  0
 19 11  1  0  0  0  0
 19 18  1  1  0  0  0
 21  6  1  0  0  0  0
 22  4  2  0  0  0  0
 24  4  1  6  0  0  0
 24  1  1  0  0  0  0
 24 12  1  0  0  0  0
 25 20  1  0  0  0  0
 27 26  1  0  0  0  0
 28 27  1  0  0  0  0
 29 27  1  0  0  0  0
 30 32  1  0  0  0  0
 31 32  1  0  0  0  0
M  END
>  <MODEL>
2

>  <REMARK>
 VINA RESULT:      -8.0      2.333      3.301
  Name = 
  4 active torsions:
  status: ('A' for Active; 'I' for Inactive)
    1  A    between atoms: N_1  and  C_10
    2  A    between atoms: C_10  and  C_23
    3  A    between atoms: C_12  and  C_21
    4  A    between atoms: C_12  and  O_24
                            x       y       z     vdW  Elec       q    Type
                         _______ _______ _______ _____ _____    ______ ____

>  <TORSDO>
F 4

$$$$
=
 OpenBabel10272413243D

 32 36  0  0  1  0  0  0  0  0999 V2000
  187.1030  178.1640  140.3060 C   0  0  2  0  0  3  0  0  0  0  0  0
  182.1260  178.7720  140.7220 C   0  0  0  0  0  2  0  0  0  0  0  0
  182.1200  179.4560  139.3590 C   0  0  0  0  0  2  0  0  0  0  0  0
  188.0820  178.1680  138.0030 C   0  0  0  0  0  0  0  0  0  0  0  0
  187.7690  176.8990  137.3510 C   0  0  0  0  0  0  0  0  0  0  0  0
  188.4890  177.9350  142.3570 C   0  0  0  0  0  0  0  0  0  0  0  0
  186.0520  177.9900  142.5590 C   0  0  0  0  0  3  0  0  0  0  0  0
  186.5330  175.1750  136.8210 C   0  0  0  0  0  0  0  0  0  0  0  0
  183.4760  178.9790  141.4000 C   0  0  0  0  0  2  0  0  0  0  0  0
  185.9550  178.6440  141.2040 C   0  0  2  0  0  3  0  0  0  0  0  0
  184.6000  178.3820  140.5500 C   0  0  2  0  0  3  0  0  0  0  0  0
  185.6580  178.5110  138.2900 N   0  0  2  0  0  0  0  0  0  0  0  0
  187.7600  174.9400  136.3910 O   0  0  0  0  0  0  0  0  0  0  0  0
  189.6580  177.6840  142.8850 C   0  0  0  0  0  0  0  0  0  0  0  0
  187.2320  177.6960  143.1140 C   0  0  0  0  0  0  0  0  0  0  0  0
  188.5490  175.9620  136.6970 C   0  0  0  0  0  3  0  0  0  0  0  0
  190.8280  177.4360  143.4140 C   0  0  0  0  0  3  0  0  0  0  0  0
  183.2200  178.8770  138.4760 C   0  0  0  0  0  2  0  0  0  0  0  0
  184.5860  179.0280  139.1520 C   0  0  1  0  0  3  0  0  0  0  0  0
  185.4570  177.1270  138.0430 N   0  0  0  0  0  2  0  0  0  0  0  0
  188.4320  178.5230  140.9770 C   0  0  0  0  0  2  0  0  0  0  0  0
  189.2110  178.7110  137.8840 O   0  0  0  0  0  0  0  0  0  0  0  0
  185.3830  174.2460  136.6580 C   0  0  0  0  0  1  0  0  0  0  0  0
  187.0020  178.7620  138.8890 C   0  0  1  0  0  3  0  0  0  0  0  0
  186.5160  176.4030  137.4210 C   0  0  0  0  0  0  0  0  0  0  0  0
  191.3310  178.1080  144.6590 C   0  0  0  0  0  2  0  0  0  0  0  0
  191.6870  177.1540  145.7020 N   0  0  0  0  0  0  0  0  0  0  0  0
  191.8750  175.9570  145.0980 O   0  0  0  0  0  1  0  0  0  0  0  0
  190.5190  177.0100  146.5510 C   0  0  0  0  0  1  0  0  0  0  0  0
  187.2480  177.0990  144.4830 C   0  0  0  0  0  2  0  0  0  0  0  0
  186.8430  177.9870  146.4610 C   0  0  0  0  0  1  0  0  0  0  0  0
  186.2280  177.6590  145.2530 O   0  0  0  0  0  0  0  0  0  0  0  0
  1 21  1  1  0  0  0
  1 10  1  0  0  0  0
  2  9  1  0  0  0  0
  3  2  1  0  0  0  0
  5 25  1  0  0  0  0
  5  4  1  0  0  0  0
  6 14  2  0  0  0  0
  6 15  1  0  0  0  0
  7 15  2  0  0  0  0
  8 25  2  0  0  0  0
 10  7  1  1  0  0  0
 11 10  1  0  0  0  0
 11  9  1  1  0  0  0
 12 20  1  1  0  0  0
 12 24  1  0  0  0  0
 12 19  1  0  0  0  0
 13 16  1  0  0  0  0
 13  8  1  0  0  0  0
 14 17  2  0  0  0  0
 15 30  1  0  0  0  0
 16  5  2  0  0  0  0
 17 26  1  0  0  0  0
 18  3  1  0  0  0  0
 19 18  1  6  0  0  0
 19 11  1  0  0  0  0
 21  6  1  0  0  0  0
 22  4  2  0  0  0  0
 23  8  1  0  0  0  0
 24  4  1  6  0  0  0
 24  1  1  0  0  0  0
 25 20  1  0  0  0  0
 26 27  1  0  0  0  0
 27 29  1  0  0  0  0
 28 27  1  0  0  0  0
 30 32  1  0  0  0  0
 32 31  1  0  0  0  0
M  END
>  <MODEL>
3

>  <REMARK>
 VINA RESULT:      -7.6      2.134      2.812
  Name = 
  4 active torsions:
  status: ('A' for Active; 'I' for Inactive)
    1  A    between atoms: N_1  and  C_10
    2  A    between atoms: C_10  and  C_23
    3  A    between atoms: C_12  and  C_21
    4  A    between atoms: C_12  and  O_24
                            x       y       z     vdW  Elec       q    Type
                         _______ _______ _______ _____ _____    ______ ____

>  <TORSDO>
F 4

$$$$
=
 OpenBabel10272413243D

 32 36  0  0  1  0  0  0  0  0999 V2000
  188.8350  175.7510  137.7610 C   0  0  2  0  0  3  0  0  0  0  0  0
  193.5490  174.1560  137.0210 C   0  0  0  0  0  2  0  0  0  0  0  0
  194.0180  175.6070  137.0460 C   0  0  0  0  0  2  0  0  0  0  0  0
  188.5250  177.9950  138.8250 C   0  0  0  0  0  0  0  0  0  0  0  0
  188.8220  177.8900  140.2510 C   0  0  0  0  0  0  0  0  0  0  0  0
  186.9280  174.3400  137.0170 C   0  0  0  0  0  0  0  0  0  0  0  0
  189.2030  173.4530  136.8710 C   0  0  0  0  0  3  0  0  0  0  0  0
  189.9030  177.2010  142.0230 C   0  0  0  0  0  0  0  0  0  0  0  0
  192.1090  174.0850  136.5260 C   0  0  0  0  0  2  0  0  0  0  0  0
  189.7530  174.8560  136.9180 C   0  0  2  0  0  3  0  0  0  0  0  0
  191.1840  174.8810  137.4510 C   0  0  2  0  0  3  0  0  0  0  0  0
  190.8040  177.1670  138.3840 N   0  0  2  0  0  0  0  0  0  0  0  0
  188.8180  177.8330  142.4320 O   0  0  0  0  0  0  0  0  0  0  0  0
  185.6370  174.1390  136.9970 C   0  0  0  0  0  0  0  0  0  0  0  0
  187.8880  173.2140  136.8760 C   0  0  0  0  0  0  0  0  0  0  0  0
  188.1260  178.2650  141.3860 C   0  0  0  0  0  3  0  0  0  0  0  0
  184.3450  173.9380  136.9740 C   0  0  0  0  0  3  0  0  0  0  0  0
  193.1280  176.4310  137.9700 C   0  0  0  0  0  2  0  0  0  0  0  0
  191.6650  176.3420  137.5250 C   0  0  1  0  0  3  0  0  0  0  0  0
  190.8700  176.7040  139.7250 N   0  0  0  0  0  2  0  0  0  0  0  0
  187.4370  175.7470  137.1350 C   0  0  0  0  0  2  0  0  0  0  0  0
  187.5570  178.6780  138.4010 O   0  0  0  0  0  0  0  0  0  0  0  0
  190.9130  176.5780  142.9200 C   0  0  0  0  0  1  0  0  0  0  0  0
  189.3970  177.1810  137.8860 C   0  0  1  0  0  3  0  0  0  0  0  0
  189.9280  177.2310  140.6560 C   0  0  0  0  0  0  0  0  0  0  0  0
  183.6230  173.3360  135.8030 C   0  0  0  0  0  2  0  0  0  0  0  0
  182.5700  172.4160  136.2110 N   0  0  0  0  0  0  0  0  0  0  0  0
  181.8460  173.0400  137.1690 O   0  0  0  0  0  1  0  0  0  0  0  0
  183.2260  171.2920  136.8550 C   0  0  0  0  0  1  0  0  0  0  0  0
  187.4200  171.7980  136.7720 C   0  0  0  0  0  2  0  0  0  0  0  0
  186.4880  171.0640  134.9130 C   0  0  0  0  0  1  0  0  0  0  0  0
  187.7280  171.2930  135.5090 O   0  0  0  0  0  0  0  0  0  0  0  0
  1 21  1  6  0  0  0
  1 24  1  0  0  0  0
  2  3  1  0  0  0  0
  3 18  1  0  0  0  0
  4  5  1  0  0  0  0
  5 25  1  0  0  0  0
  5 16  2  0  0  0  0
  6 21  1  0  0  0  0
  7 15  2  0  0  0  0
  8 13  1  0  0  0  0
  8 23  1  0  0  0  0
  9  2  1  0  0  0  0
 10  7  1  1  0  0  0
 10 11  1  0  0  0  0
 10  1  1  0  0  0  0
 11  9  1  6  0  0  0
 11 19  1  0  0  0  0
 12 20  1  1  0  0  0
 14  6  2  0  0  0  0
 15  6  1  0  0  0  0
 16 13  1  0  0  0  0
 17 14  2  0  0  0  0
 19 18  1  1  0  0  0
 19 12  1  0  0  0  0
 20 25  1  0  0  0  0
 22  4  2  0  0  0  0
 24 12  1  0  0  0  0
 24  4  1  1  0  0  0
 25  8  2  0  0  0  0
 26 27  1  0  0  0  0
 26 17  1  0  0  0  0
 27 29  1  0  0  0  0
 27 28  1  0  0  0  0
 30 15  1  0  0  0  0
 31 32  1  0  0  0  0
 32 30  1  0  0  0  0
M  END
>  <MODEL>
4

>  <REMARK>
 VINA RESULT:      -6.8      4.543      9.780
  Name = 
  4 active torsions:
  status: ('A' for Active; 'I' for Inactive)
    1  A    between atoms: N_1  and  C_10
    2  A    between atoms: C_10  and  C_23
    3  A    between atoms: C_12  and  C_21
    4  A    between atoms: C_12  and  O_24
                            x       y       z     vdW  Elec       q    Type
                         _______ _______ _______ _____ _____    ______ ____

>  <TORSDO>
F 4

$$$$
=
 OpenBabel10272413243D

 32 36  0  0  1  0  0  0  0  0999 V2000
  188.6270  176.1180  137.4090 C   0  0  2  0  0  3  0  0  0  0  0  0
  192.5370  173.0280  136.7130 C   0  0  0  0  0  2  0  0  0  0  0  0
  193.4750  174.2230  136.8520 C   0  0  0  0  0  2  0  0  0  0  0  0
  189.0520  178.2700  138.6130 C   0  0  0  0  0  0  0  0  0  0  0  0
  189.2170  177.9920  140.0380 C   0  0  0  0  0  0  0  0  0  0  0  0
  186.3950  175.4970  136.5090 C   0  0  0  0  0  0  0  0  0  0  0  0
  188.2300  173.8850  136.3750 C   0  0  0  0  0  3  0  0  0  0  0  0
  189.8980  176.8780  141.7930 C   0  0  0  0  0  0  0  0  0  0  0  0
  191.1890  173.4880  136.1680 C   0  0  0  0  0  2  0  0  0  0  0  0
  189.2250  175.0060  136.5360 C   0  0  2  0  0  3  0  0  0  0  0  0
  190.5460  174.5040  137.1150 C   0  0  2  0  0  3  0  0  0  0  0  0
  190.9270  176.7270  138.1910 N   0  0  2  0  0  0  0  0  0  0  0  0
  189.0760  177.8240  142.2080 O   0  0  0  0  0  0  0  0  0  0  0  0
  185.1170  175.7570  136.4330 C   0  0  0  0  0  0  0  0  0  0  0  0
  186.9140  174.1170  136.3220 C   0  0  0  0  0  0  0  0  0  0  0  0
  188.6330  178.5250  141.1720 C   0  0  0  0  0  3  0  0  0  0  0  0
  183.8380  176.0180  136.3550 C   0  0  0  0  0  3  0  0  0  0  0  0
  192.8740  175.2540  137.8010 C   0  0  0  0  0  2  0  0  0  0  0  0
  191.4960  175.7020  137.3050 C   0  0  1  0  0  3  0  0  0  0  0  0
  190.7570  176.1990  139.4980 N   0  0  0  0  0  2  0  0  0  0  0  0
  187.3500  176.6320  136.7390 C   0  0  0  0  0  2  0  0  0  0  0  0
  188.4020  179.2680  138.2060 O   0  0  0  0  0  0  0  0  0  0  0  0
  190.5820  175.8970  142.6760 C   0  0  0  0  0  1  0  0  0  0  0  0
  189.6400  177.2540  137.6500 C   0  0  1  0  0  3  0  0  0  0  0  0
  190.0060  176.9700  140.4320 C   0  0  0  0  0  0  0  0  0  0  0  0
  183.0170  175.7680  135.1230 C   0  0  0  0  0  2  0  0  0  0  0  0
  181.6960  175.2340  135.4320 N   0  0  0  0  0  0  0  0  0  0  0  0
  181.6830  174.9520  136.7560 O   0  0  0  0  0  1  0  0  0  0  0  0
  181.5880  173.9650  134.7360 C   0  0  0  0  0  1  0  0  0  0  0  0
  185.9950  172.9600  136.1050 C   0  0  0  0  0  2  0  0  0  0  0  0
  184.1480  172.2150  137.0530 C   0  0  0  0  0  1  0  0  0  0  0  0
  185.4770  172.5340  137.3280 O   0  0  0  0  0  0  0  0  0  0  0  0
  1 21  1  6  0  0  0
  1 24  1  0  0  0  0
  2  3  1  0  0  0  0
  3 18  1  0  0  0  0
  4  5  1  0  0  0  0
  5 25  1  0  0  0  0
  5 16  2  0  0  0  0
  6 21  1  0  0  0  0
  8 13  1  0  0  0  0
  8 23  1  0  0  0  0
  9  2  1  0  0  0  0
 10  7  1  1  0  0  0
 10 11  1  0  0  0  0
 10  1  1  0  0  0  0
 11  9  1  6  0  0  0
 11 19  1  0  0  0  0
 12 20  1  1  0  0  0
 14  6  2  0  0  0  0
 15  7  2  0  0  0  0
 15  6  1  0  0  0  0
 16 13  1  0  0  0  0
 17 14  2  0  0  0  0
 19 18  1  1  0  0  0
 19 12  1  0  0  0  0
 20 25  1  0  0  0  0
 22  4  2  0  0  0  0
 24 12  1  0  0  0  0
 24  4  1  1  0  0  0
 25  8  2  0  0  0  0
 26 27  1  0  0  0  0
 26 17  1  0  0  0  0
 27 28  1  0  0  0  0
 29 27  1  0  0  0  0
 30 15  1  0  0  0  0
 30 32  1  0  0  0  0
 31 32  1  0  0  0  0
M  END
>  <MODEL>
5

>  <REMARK>
 VINA RESULT:      -6.2      4.418      9.699
  Name = 
  4 active torsions:
  status: ('A' for Active; 'I' for Inactive)
    1  A    between atoms: N_1  and  C_10
    2  A    between atoms: C_10  and  C_23
    3  A    between atoms: C_12  and  C_21
    4  A    between atoms: C_12  and  O_24
                            x       y       z     vdW  Elec       q    Type
                         _______ _______ _______ _____ _____    ______ ____

>  <TORSDO>
F 4

$$$$
=
 OpenBabel10272413243D

 32 36  0  0  1  0  0  0  0  0999 V2000
  188.4240  176.8650  138.4700 C   0  0  2  0  0  3  0  0  0  0  0  0
  192.7120  174.8330  136.7970 C   0  0  0  0  0  2  0  0  0  0  0  0
  193.4730  176.0180  137.3820 C   0  0  0  0  0  2  0  0  0  0  0  0
  188.5720  178.4730  140.3820 C   0  0  0  0  0  0  0  0  0  0  0  0
  188.8190  177.7260  141.6130 C   0  0  0  0  0  0  0  0  0  0  0  0
  186.2770  176.2980  137.3530 C   0  0  0  0  0  0  0  0  0  0  0  0
  188.3180  175.1250  136.6890 C   0  0  0  0  0  3  0  0  0  0  0  0
  189.7030  176.1630  142.8610 C   0  0  0  0  0  0  0  0  0  0  0  0
  191.2970  175.2600  136.4230 C   0  0  0  0  0  2  0  0  0  0  0  0
  189.1480  176.2430  137.2690 C   0  0  2  0  0  3  0  0  0  0  0  0
  190.5440  175.7610  137.6590 C   0  0  2  0  0  3  0  0  0  0  0  0
  190.6350  177.4750  139.4750 N   0  0  2  0  0  0  0  0  0  0  0  0
  188.7670  176.7660  143.5710 O   0  0  0  0  0  0  0  0  0  0  0  0
  184.9730  176.3810  137.3460 C   0  0  0  0  0  0  0  0  0  0  0  0
  186.9820  175.1690  136.6920 C   0  0  0  0  0  0  0  0  0  0  0  0
  188.1980  177.7220  142.8490 C   0  0  0  0  0  3  0  0  0  0  0  0
  183.6680  176.4660  137.3370 C   0  0  0  0  0  3  0  0  0  0  0  0
  192.7600  176.5380  138.6250 C   0  0  0  0  0  2  0  0  0  0  0  0
  191.3180  176.9330  138.2920 C   0  0  1  0  0  3  0  0  0  0  0  0
  190.5820  176.4910  140.4980 N   0  0  0  0  0  2  0  0  0  0  0  0
  187.0670  177.3970  138.0020 C   0  0  0  0  0  2  0  0  0  0  0  0
  187.7750  179.4460  140.3480 O   0  0  0  0  0  0  0  0  0  0  0  0
  190.5470  175.0380  143.3460 C   0  0  0  0  0  1  0  0  0  0  0  0
  189.2700  177.9710  139.1310 C   0  0  1  0  0  3  0  0  0  0  0  0
  189.7560  176.7560  141.6290 C   0  0  0  0  0  0  0  0  0  0  0  0
  182.8540  176.5630  136.0780 C   0  0  0  0  0  2  0  0  0  0  0  0
  181.9510  175.4310  135.9110 N   0  0  0  0  0  0  0  0  0  0  0  0
  181.8360  174.8330  137.1190 O   0  0  0  0  0  1  0  0  0  0  0  0
  182.6270  174.4850  135.0420 C   0  0  0  0  0  1  0  0  0  0  0  0
  186.2310  174.0490  136.0490 C   0  0  0  0  0  2  0  0  0  0  0  0
  185.0710  172.7880  137.4380 C   0  0  0  0  0  1  0  0  0  0  0  0
  186.3250  172.9030  136.8390 O   0  0  0  0  0  0  0  0  0  0  0  0
  1 21  1  6  0  0  0
  1 24  1  0  0  0  0
  2  3  1  0  0  0  0
  3 18  1  0  0  0  0
  4  5  1  0  0  0  0
  5 25  1  0  0  0  0
  5 16  2  0  0  0  0
  6 21  1  0  0  0  0
  7 15  2  0  0  0  0
  8 23  1  0  0  0  0
  8 13  1  0  0  0  0
  9  2  1  0  0  0  0
 10  7  1  1  0  0  0
 10 11  1  0  0  0  0
 10  1  1  0  0  0  0
 11  9  1  6  0  0  0
 11 19  1  0  0  0  0
 12 20  1  1  0  0  0
 14  6  2  0  0  0  0
 15  6  1  0  0  0  0
 16 13  1  0  0  0  0
 17 14  2  0  0  0  0
 19 18  1  1  0  0  0
 19 12  1  0  0  0  0
 20 25  1  0  0  0  0
 22  4  2  0  0  0  0
 24 12  1  0  0  0  0
 24  4  1  1  0  0  0
 25  8  2  0  0  0  0
 26 17  1  0  0  0  0
 27 26  1  0  0  0  0
 27 28  1  0  0  0  0
 29 27  1  0  0  0  0
 30 15  1  0  0  0  0
 30 32  1  0  0  0  0
 32 31  1  0  0  0  0
M  END
>  <MODEL>
6

>  <REMARK>
 VINA RESULT:      -5.8      3.758      9.229
  Name = 
  4 active torsions:
  status: ('A' for Active; 'I' for Inactive)
    1  A    between atoms: N_1  and  C_10
    2  A    between atoms: C_10  and  C_23
    3  A    between atoms: C_12  and  C_21
    4  A    between atoms: C_12  and  O_24
                            x       y       z     vdW  Elec       q    Type
                         _______ _______ _______ _____ _____    ______ ____

>  <TORSDO>
F 4

$$$$
=
 OpenBabel10272413243D

 32 36  0  0  1  0  0  0  0  0999 V2000
  187.8270  176.9790  137.6020 C   0  0  2  0  0  3  0  0  0  0  0  0
  184.6080  179.1510  140.8030 C   0  0  0  0  0  2  0  0  0  0  0  0
  183.7650  179.5970  139.6130 C   0  0  0  0  0  2  0  0  0  0  0  0
  186.9620  176.3450  135.3410 C   0  0  0  0  0  0  0  0  0  0  0  0
  186.1250  175.1540  135.4700 C   0  0  0  0  0  0  0  0  0  0  0  0
  190.1930  176.6340  138.2830 C   0  0  0  0  0  0  0  0  0  0  0  0
  188.5840  177.4690  139.9250 C   0  0  0  0  0  3  0  0  0  0  0  0
  184.6480  173.8390  136.4020 C   0  0  0  0  0  0  0  0  0  0  0  0
  186.0690  179.0270  140.3840 C   0  0  0  0  0  2  0  0  0  0  0  0
  187.6760  177.9170  138.8080 C   0  0  2  0  0  3  0  0  0  0  0  0
  186.2200  177.9940  139.2640 C   0  0  2  0  0  3  0  0  0  0  0  0
  185.4580  177.4590  136.9460 N   0  0  2  0  0  0  0  0  0  0  0  0
  185.2070  173.1770  135.4050 O   0  0  0  0  0  0  0  0  0  0  0  0
  191.3610  176.1150  138.0140 C   0  0  0  0  0  0  0  0  0  0  0  0
  189.7730  176.9090  139.6820 C   0  0  0  0  0  0  0  0  0  0  0  0
  186.1180  173.9380  134.8120 C   0  0  0  0  0  3  0  0  0  0  0  0
  192.5310  175.5960  137.7440 C   0  0  0  0  0  3  0  0  0  0  0  0
  183.8780  178.5840  138.4790 C   0  0  0  0  0  2  0  0  0  0  0  0
  185.3420  178.4020  138.0670 C   0  0  1  0  0  3  0  0  0  0  0  0
  184.9630  176.1850  137.3310 N   0  0  0  0  0  2  0  0  0  0  0  0
  189.2870  177.0030  137.1440 C   0  0  0  0  0  2  0  0  0  0  0  0
  187.7640  176.4890  134.3830 O   0  0  0  0  0  0  0  0  0  0  0  0
  183.5880  173.2980  137.2940 C   0  0  0  0  0  1  0  0  0  0  0  0
  186.8660  177.3670  136.4610 C   0  0  1  0  0  3  0  0  0  0  0  0
  185.2060  175.0860  136.4550 C   0  0  0  0  0  0  0  0  0  0  0  0
  193.8300  176.2540  138.1120 C   0  0  0  0  0  2  0  0  0  0  0  0
  194.9830  175.4140  137.8110 N   0  0  0  0  0  0  0  0  0  0  0  0
  195.4380  175.7870  136.5920 O   0  0  0  0  0  1  0  0  0  0  0  0
  194.4850  174.0580  137.6710 C   0  0  0  0  0  1  0  0  0  0  0  0
  190.6390  176.5430  140.8430 C   0  0  0  0  0  2  0  0  0  0  0  0
  190.6530  176.1690  143.0160 C   0  0  0  0  0  1  0  0  0  0  0  0
  189.8510  176.0480  141.8820 O   0  0  0  0  0  0  0  0  0  0  0  0
  1 21  1  6  0  0  0
  1 10  1  0  0  0  0
  3  2  1  0  0  0  0
  4  5  1  0  0  0  0
  5 25  1  0  0  0  0
  6 15  1  0  0  0  0
  8 25  2  0  0  0  0
  8 23  1  0  0  0  0
  9  2  1  0  0  0  0
 10 11  1  0  0  0  0
 10  7  1  1  0  0  0
 11  9  1  1  0  0  0
 12 20  1  1  0  0  0
 12 19  1  0  0  0  0
 13  8  1  0  0  0  0
 14  6  2  0  0  0  0
 15  7  2  0  0  0  0
 15 30  1  0  0  0  0
 16 13  1  0  0  0  0
 16  5  2  0  0  0  0
 17 14  2  0  0  0  0
 17 26  1  0  0  0  0
 18  3  1  0  0  0  0
 19 18  1  1  0  0  0
 19 11  1  0  0  0  0
 21  6  1  0  0  0  0
 22  4  2  0  0  0  0
 24  4  1  6  0  0  0
 24 12  1  0  0  0  0
 24  1  1  0  0  0  0
 25 20  1  0  0  0  0
 27 26  1  0  0  0  0
 28 27  1  0  0  0  0
 29 27  1  0  0  0  0
 30 32  1  0  0  0  0
 32 31  1  0  0  0  0
M  END
>  <MODEL>
7

>  <REMARK>
 VINA RESULT:      -5.6      3.853      5.155
  Name = 
  4 active torsions:
  status: ('A' for Active; 'I' for Inactive)
    1  A    between atoms: N_1  and  C_10
    2  A    between atoms: C_10  and  C_23
    3  A    between atoms: C_12  and  C_21
    4  A    between atoms: C_12  and  O_24
                            x       y       z     vdW  Elec       q    Type
                         _______ _______ _______ _____ _____    ______ ____

>  <TORSDO>
F 4

$$$$
