=
 OpenBabel10272413113D

 32 36  0  0  1  0  0  0  0  0999 V2000
  182.7590  178.3810  139.9790 C   0  0  2  0  0  3  0  0  0  0  0  0
  184.6950  177.1940  139.1790 O   0  0  0  0  0  0  0  0  0  0  0  0
  181.8730  177.7440  141.0530 C   0  0  0  0  0  2  0  0  0  0  0  0
  183.3260  177.3600  138.9650 C   0  0  1  0  0  3  0  0  0  0  0  0
  184.7830  177.3910  136.0650 C   0  0  0  0  0  2  0  0  0  0  0  0
  189.0050  178.2570  139.1540 C   0  0  0  0  0  3  0  0  0  0  0  0
  185.2450  178.3920  138.7040 C   0  0  1  0  0  3  0  0  0  0  0  0
  188.4970  177.4960  136.9190 C   0  0  0  0  0  3  0  0  0  0  0  0
  187.1280  177.6890  137.1360 C   0  0  0  0  0  0  0  0  0  0  0  0
  184.2090  175.9910  135.9180 C   0  0  2  0  0  3  0  0  0  0  0  0
  182.6100  176.0230  138.8820 C   0  0  0  0  0  0  0  0  0  0  0  0
  186.2400  177.3410  136.0580 N   0  0  0  0  0  2  0  0  0  0  0  0
  183.0990  174.8930  138.0100 C   0  0  0  0  0  2  0  0  0  0  0  0
  181.4700  175.8120  139.5580 C   0  0  0  0  0  3  0  0  0  0  0  0
  185.0020  179.5200  139.6250 N   0  0  0  0  0  2  0  0  0  0  0  0
  182.7830  176.0480  135.3900 C   0  0  0  0  0  1  0  0  0  0  0  0
  183.8860  179.2820  140.5620 C   0  0  2  0  0  3  0  0  0  0  0  0
  186.6960  178.2040  138.3880 C   0  0  0  0  0  0  0  0  0  0  0  0
  184.3780  175.1600  137.2030 C   0  0  0  0  0  2  0  0  0  0  0  0
  180.8170  176.8790  140.3860 C   0  0  0  0  0  2  0  0  0  0  0  0
  189.4310  177.7790  137.9170 C   0  0  0  0  0  3  0  0  0  0  0  0
  187.6450  178.4610  139.3900 C   0  0  0  0  0  3  0  0  0  0  0  0
  184.1910  178.7810  144.3290 C   0  0  0  0  0  0  0  0  0  0  0  0
  183.4900  179.0900  145.4880 O   0  0  0  0  0  1  0  0  0  0  0  0
  184.4130  178.8570  141.9100 C   0  0  0  0  0  0  0  0  0  0  0  0
  185.3960  178.0810  144.4180 C   0  0  0  0  0  3  0  0  0  0  0  0
  185.6210  178.1510  142.0120 C   0  0  0  0  0  3  0  0  0  0  0  0
  183.6960  179.1700  143.0760 C   0  0  0  0  0  0  0  0  0  0  0  0
  182.4950  179.8680  142.9960 O   0  0  0  0  0  1  0  0  0  0  0  0
  186.1110  177.7600  143.2600 C   0  0  0  0  0  0  0  0  0  0  0  0
  188.1080  177.3870  144.6550 C   0  0  0  0  0  1  0  0  0  0  0  0
  187.4050  177.0320  143.3580 C   0  0  0  0  0  2  0  0  0  0  0  0
  1 17  1  0  0  0  0
  1  3  1  1  0  0  0
  4 11  1  1  0  0  0
  4  2  1  0  0  0  0
  4  1  1  0  0  0  0
  6 22  1  0  0  0  0
  7 18  1  1  0  0  0
  7  2  1  0  0  0  0
  7 15  1  0  0  0  0
  8  9  2  0  0  0  0
  8 21  1  0  0  0  0
  9 18  1  0  0  0  0
 10 16  1  1  0  0  0
 10  5  1  0  0  0  0
 10 19  1  0  0  0  0
 11 14  2  0  0  0  0
 12  5  1  0  0  0  0
 12  9  1  0  0  0  0
 13 11  1  0  0  0  0
 14 20  1  0  0  0  0
 15 17  1  0  0  0  0
 17 25  1  1  0  0  0
 18 22  2  0  0  0  0
 19 13  1  0  0  0  0
 20  3  1  0  0  0  0
 21  6  2  0  0  0  0
 23 26  1  0  0  0  0
 23 24  1  0  0  0  0
 25 27  2  0  0  0  0
 25 28  1  0  0  0  0
 27 30  1  0  0  0  0
 28 23  2  0  0  0  0
 29 28  1  0  0  0  0
 30 32  1  0  0  0  0
 30 26  2  0  0  0  0
 32 31  1  0  0  0  0
M  END
>  <MODEL>
1

>  <REMARK>
 VINA RESULT:      -7.8      0.000      0.000
  Name = 
  2 active torsions:
  status: ('A' for Active; 'I' for Inactive)
    1  A    between atoms: C_15  and  C_26
    2  A    between atoms: C_16  and  C_27
                            x       y       z     vdW  Elec       q    Type
                         _______ _______ _______ _____ _____    ______ ____

>  <TORSDO>
F 2

$$$$
=
 OpenBabel10272413113D

 32 36  0  0  1  0  0  0  0  0999 V2000
  187.1200  177.6240  136.3430 C   0  0  2  0  0  3  0  0  0  0  0  0
  188.1510  176.4330  138.1630 O   0  0  0  0  0  0  0  0  0  0  0  0
  186.0630  176.9250  135.4830 C   0  0  0  0  0  2  0  0  0  0  0  0
  188.2640  176.6860  136.7950 C   0  0  1  0  0  3  0  0  0  0  0  0
  191.2290  176.9430  138.0880 C   0  0  0  0  0  2  0  0  0  0  0  0
  188.3310  177.2820  142.5170 C   0  0  0  0  0  3  0  0  0  0  0  0
  188.5370  177.6450  138.7500 C   0  0  1  0  0  3  0  0  0  0  0  0
  190.5960  176.7800  141.8450 C   0  0  0  0  0  3  0  0  0  0  0  0
  190.2780  177.0160  140.5030 C   0  0  0  0  0  0  0  0  0  0  0  0
  191.4790  175.5950  137.4320 C   0  0  2  0  0  3  0  0  0  0  0  0
  188.4350  175.4010  136.0040 C   0  0  0  0  0  0  0  0  0  0  0  0
  191.3290  176.8230  139.5380 N   0  0  0  0  0  2  0  0  0  0  0  0
  189.4430  174.3430  136.3820 C   0  0  0  0  0  2  0  0  0  0  0  0
  187.7150  175.1780  134.8940 C   0  0  0  0  0  3  0  0  0  0  0  0
  187.4950  178.6830  138.6210 N   0  0  0  0  0  2  0  0  0  0  0  0
  191.9110  175.7750  135.9840 C   0  0  0  0  0  1  0  0  0  0  0  0
  186.5200  178.4050  137.5470 C   0  0  2  0  0  3  0  0  0  0  0  0
  188.9570  177.4200  140.1690 C   0  0  0  0  0  0  0  0  0  0  0  0
  190.2960  174.6300  137.6260 C   0  0  0  0  0  2  0  0  0  0  0  0
  186.7470  176.1850  134.3470 C   0  0  0  0  0  2  0  0  0  0  0  0
  189.6330  176.9130  142.8460 C   0  0  0  0  0  3  0  0  0  0  0  0
  187.9940  177.5270  141.1850 C   0  0  0  0  0  3  0  0  0  0  0  0
  183.3330  178.0050  139.5990 C   0  0  0  0  0  0  0  0  0  0  0  0
  182.5840  178.7220  140.5240 O   0  0  0  0  0  1  0  0  0  0  0  0
  185.2560  177.8190  138.1250 C   0  0  0  0  0  0  0  0  0  0  0  0
  182.9130  176.7300  139.2130 C   0  0  0  0  0  3  0  0  0  0  0  0
  184.8230  176.5420  137.7430 C   0  0  0  0  0  3  0  0  0  0  0  0
  184.5040  178.5530  139.0570 C   0  0  0  0  0  0  0  0  0  0  0  0
  184.9160  179.8240  139.4480 O   0  0  0  0  0  1  0  0  0  0  0  0
  183.6540  175.9980  138.2800 C   0  0  0  0  0  0  0  0  0  0  0  0
  184.4240  173.7460  137.6440 C   0  0  0  0  0  1  0  0  0  0  0  0
  183.2170  174.6310  137.8850 C   0  0  0  0  0  2  0  0  0  0  0  0
  1  3  1  1  0  0  0
  1  4  1  0  0  0  0
  1 17  1  0  0  0  0
  4 11  1  6  0  0  0
  4  2  1  0  0  0  0
  5 12  1  0  0  0  0
  6 21  1  0  0  0  0
  7  2  1  1  0  0  0
  7 18  1  0  0  0  0
  8 21  2  0  0  0  0
  9  8  1  0  0  0  0
 10 16  1  6  0  0  0
 10 19  1  0  0  0  0
 10  5  1  0  0  0  0
 11 13  1  0  0  0  0
 12  9  1  0  0  0  0
 13 19  1  0  0  0  0
 14 11  2  0  0  0  0
 15  7  1  0  0  0  0
 17 25  1  1  0  0  0
 17 15  1  0  0  0  0
 18  9  2  0  0  0  0
 18 22  1  0  0  0  0
 20 14  1  0  0  0  0
 20  3  1  0  0  0  0
 22  6  2  0  0  0  0
 23 24  1  0  0  0  0
 25 28  1  0  0  0  0
 26 23  1  0  0  0  0
 27 25  2  0  0  0  0
 27 30  1  0  0  0  0
 28 29  1  0  0  0  0
 28 23  2  0  0  0  0
 30 26  2  0  0  0  0
 31 32  1  0  0  0  0
 32 30  1  0  0  0  0
M  END
>  <MODEL>
2

>  <REMARK>
 VINA RESULT:      -7.5      2.439      5.760
  Name = 
  2 active torsions:
  status: ('A' for Active; 'I' for Inactive)
    1  A    between atoms: C_15  and  C_26
    2  A    between atoms: C_16  and  C_27
                            x       y       z     vdW  Elec       q    Type
                         _______ _______ _______ _____ _____    ______ ____

>  <TORSDO>
F 2

$$$$
=
 OpenBabel10272413113D

 32 36  0  0  1  0  0  0  0  0999 V2000
  186.7790  177.4440  137.6180 C   0  0  2  0  0  3  0  0  0  0  0  0
  188.7630  176.2560  138.2870 O   0  0  0  0  0  0  0  0  0  0  0  0
  185.4070  176.9430  138.0750 C   0  0  0  0  0  2  0  0  0  0  0  0
  187.7760  176.3050  137.3010 C   0  0  1  0  0  3  0  0  0  0  0  0
  190.6360  175.9430  135.8100 C   0  0  0  0  0  2  0  0  0  0  0  0
  192.3470  177.5470  140.5670 C   0  0  0  0  0  3  0  0  0  0  0  0
  189.5430  177.3880  138.0220 C   0  0  1  0  0  3  0  0  0  0  0  0
  193.1820  176.4010  138.6120 C   0  0  0  0  0  3  0  0  0  0  0  0
  191.9490  176.5480  137.9670 C   0  0  0  0  0  0  0  0  0  0  0  0
  190.1850  174.5060  135.5980 C   0  0  2  0  0  3  0  0  0  0  0  0
  187.1750  174.9340  137.0470 C   0  0  0  0  0  0  0  0  0  0  0  0
  191.8270  175.9760  136.6520 N   0  0  0  0  0  2  0  0  0  0  0  0
  188.0220  173.7050  136.8190 C   0  0  0  0  0  2  0  0  0  0  0  0
  185.8450  174.7720  136.9690 C   0  0  0  0  0  3  0  0  0  0  0  0
  188.8690  178.6370  138.4320 N   0  0  0  0  0  2  0  0  0  0  0  0
  189.3280  174.3940  134.3460 C   0  0  0  0  0  1  0  0  0  0  0  0
  187.4070  178.4920  138.5810 C   0  0  2  0  0  3  0  0  0  0  0  0
  190.9000  177.2350  138.6350 C   0  0  0  0  0  0  0  0  0  0  0  0
  189.5430  173.9090  136.8630 C   0  0  0  0  0  2  0  0  0  0  0  0
  184.8870  175.9210  137.0790 C   0  0  0  0  0  2  0  0  0  0  0  0
  193.3830  176.8970  139.9010 C   0  0  0  0  0  3  0  0  0  0  0  0
  191.1110  177.7080  139.9400 C   0  0  0  0  0  3  0  0  0  0  0  0
  185.5050  178.7170  141.8770 C   0  0  0  0  0  0  0  0  0  0  0  0
  184.3210  179.2500  142.3700 O   0  0  0  0  0  1  0  0  0  0  0  0
  187.0420  178.3260  140.0350 C   0  0  0  0  0  0  0  0  0  0  0  0
  186.3640  178.0310  142.7400 C   0  0  0  0  0  3  0  0  0  0  0  0
  187.8940  177.6370  140.9090 C   0  0  0  0  0  3  0  0  0  0  0  0
  185.8400  178.8660  140.5240 C   0  0  0  0  0  0  0  0  0  0  0  0
  184.9800  179.5510  139.6710 O   0  0  0  0  0  1  0  0  0  0  0  0
  187.5560  177.4860  142.2570 C   0  0  0  0  0  0  0  0  0  0  0  0
  188.7220  177.6070  144.4250 C   0  0  0  0  0  1  0  0  0  0  0  0
  188.4810  176.7730  143.1810 C   0  0  0  0  0  2  0  0  0  0  0  0
  1  3  1  1  0  0  0
  1 17  1  0  0  0  0
  4 11  1  1  0  0  0
  4  1  1  0  0  0  0
  4  2  1  0  0  0  0
  5 12  1  0  0  0  0
  7  2  1  1  0  0  0
  7 15  1  0  0  0  0
  7 18  1  0  0  0  0
  8 21  1  0  0  0  0
  9  8  2  0  0  0  0
  9 18  1  0  0  0  0
 10 16  1  6  0  0  0
 10  5  1  0  0  0  0
 10 19  1  0  0  0  0
 12  9  1  0  0  0  0
 13 19  1  0  0  0  0
 13 11  1  0  0  0  0
 14 11  2  0  0  0  0
 14 20  1  0  0  0  0
 15 17  1  0  0  0  0
 17 25  1  1  0  0  0
 18 22  2  0  0  0  0
 20  3  1  0  0  0  0
 21  6  2  0  0  0  0
 22  6  1  0  0  0  0
 23 24  1  0  0  0  0
 23 26  1  0  0  0  0
 25 28  1  0  0  0  0
 25 27  2  0  0  0  0
 27 30  1  0  0  0  0
 28 23  2  0  0  0  0
 29 28  1  0  0  0  0
 30 26  2  0  0  0  0
 30 32  1  0  0  0  0
 32 31  1  0  0  0  0
M  END
>  <MODEL>
3

>  <REMARK>
 VINA RESULT:      -7.4      2.721      4.405
  Name = 
  2 active torsions:
  status: ('A' for Active; 'I' for Inactive)
    1  A    between atoms: C_15  and  C_26
    2  A    between atoms: C_16  and  C_27
                            x       y       z     vdW  Elec       q    Type
                         _______ _______ _______ _____ _____    ______ ____

>  <TORSDO>
F 2

$$$$
=
 OpenBabel10272413113D

 32 36  0  0  1  0  0  0  0  0999 V2000
  187.0050  178.7880  140.9530 C   0  0  2  0  0  3  0  0  0  0  0  0
  185.2510  177.8720  142.3240 O   0  0  0  0  0  0  0  0  0  0  0  0
  187.9580  177.8460  140.2120 C   0  0  0  0  0  2  0  0  0  0  0  0
  186.5890  178.2700  142.3500 C   0  0  1  0  0  3  0  0  0  0  0  0
  185.1690  179.4260  145.0300 C   0  0  0  0  0  2  0  0  0  0  0  0
  180.8390  178.3350  142.1690 C   0  0  0  0  0  3  0  0  0  0  0  0
  184.5530  179.0840  142.2580 C   0  0  1  0  0  3  0  0  0  0  0  0
  181.4650  178.7150  144.4710 C   0  0  0  0  0  3  0  0  0  0  0  0
  182.7940  178.9450  144.0980 C   0  0  0  0  0  0  0  0  0  0  0  0
  185.9250  178.3130  145.7390 C   0  0  2  0  0  3  0  0  0  0  0  0
  187.4760  177.2020  142.9640 C   0  0  0  0  0  0  0  0  0  0  0  0
  183.7310  179.2180  145.1560 N   0  0  0  0  0  2  0  0  0  0  0  0
  187.1500  176.5320  144.2770 C   0  0  0  0  0  2  0  0  0  0  0  0
  188.6270  176.8440  142.3750 C   0  0  0  0  0  3  0  0  0  0  0  0
  184.6350  179.7020  140.9190 N   0  0  0  0  0  2  0  0  0  0  0  0
  187.3350  178.7630  146.0900 C   0  0  0  0  0  1  0  0  0  0  0  0
  185.7640  179.2000  140.1100 C   0  0  2  0  0  3  0  0  0  0  0  0
  183.1430  178.8920  142.7220 C   0  0  0  0  0  0  0  0  0  0  0  0
  185.8550  176.9840  144.9680 C   0  0  0  0  0  2  0  0  0  0  0  0
  189.1250  177.4960  141.1190 C   0  0  0  0  0  2  0  0  0  0  0  0
  180.4930  178.4130  143.5160 C   0  0  0  0  0  3  0  0  0  0  0  0
  182.1580  178.5660  141.7760 C   0  0  0  0  0  3  0  0  0  0  0  0
  185.4600  177.0720  136.9610 C   0  0  0  0  0  0  0  0  0  0  0  0
  186.0720  176.9420  135.7220 O   0  0  0  0  0  1  0  0  0  0  0  0
  185.2840  178.1610  139.1280 C   0  0  0  0  0  0  0  0  0  0  0  0
  184.3870  176.2410  137.2920 C   0  0  0  0  0  3  0  0  0  0  0  0
  184.2100  177.3190  139.4490 C   0  0  0  0  0  3  0  0  0  0  0  0
  185.9120  178.0340  137.8770 C   0  0  0  0  0  0  0  0  0  0  0  0
  186.9800  178.8590  137.5400 O   0  0  0  0  0  1  0  0  0  0  0  0
  183.7630  176.3590  138.5370 C   0  0  0  0  0  0  0  0  0  0  0  0
  181.3380  176.3130  138.9730 C   0  0  0  0  0  1  0  0  0  0  0  0
  182.6070  175.4870  138.8800 C   0  0  0  0  0  2  0  0  0  0  0  0
  1  3  1  6  0  0  0
  1  4  1  0  0  0  0
  3 20  1  0  0  0  0
  4  2  1  6  0  0  0
  4 11  1  0  0  0  0
  5 12  1  0  0  0  0
  5 10  1  0  0  0  0
  6 21  1  0  0  0  0
  7 15  1  6  0  0  0
  7  2  1  0  0  0  0
  7 18  1  0  0  0  0
  9  8  1  0  0  0  0
  9 12  1  0  0  0  0
 10 16  1  6  0  0  0
 11 13  1  0  0  0  0
 13 19  1  0  0  0  0
 14 11  2  0  0  0  0
 17 25  1  1  0  0  0
 17 15  1  0  0  0  0
 17  1  1  0  0  0  0
 18  9  2  0  0  0  0
 19 10  1  0  0  0  0
 20 14  1  0  0  0  0
 21  8  2  0  0  0  0
 22  6  2  0  0  0  0
 22 18  1  0  0  0  0
 23 26  2  0  0  0  0
 23 28  1  0  0  0  0
 24 23  1  0  0  0  0
 25 27  1  0  0  0  0
 26 30  1  0  0  0  0
 28 25  2  0  0  0  0
 29 28  1  0  0  0  0
 30 32  1  0  0  0  0
 30 27  2  0  0  0  0
 32 31  1  0  0  0  0
M  END
>  <MODEL>
4

>  <REMARK>
 VINA RESULT:      -7.0      1.988      7.374
  Name = 
  2 active torsions:
  status: ('A' for Active; 'I' for Inactive)
    1  A    between atoms: C_15  and  C_26
    2  A    between atoms: C_16  and  C_27
                            x       y       z     vdW  Elec       q    Type
                         _______ _______ _______ _____ _____    ______ ____

>  <TORSDO>
F 2

$$$$
=
 OpenBabel10272413113D

 32 36  0  0  1  0  0  0  0  0999 V2000
  183.0490  175.8410  136.0030 C   0  0  2  0  0  3  0  0  0  0  0  0
  185.0000  175.4430  137.3560 O   0  0  0  0  0  0  0  0  0  0  0  0
  181.6600  175.5310  136.5680 C   0  0  0  0  0  2  0  0  0  0  0  0
  184.1330  174.8320  136.4490 C   0  0  1  0  0  3  0  0  0  0  0  0
  187.1630  174.0170  135.6160 C   0  0  0  0  0  2  0  0  0  0  0  0
  188.2220  178.1570  138.7560 C   0  0  0  0  0  3  0  0  0  0  0  0
  185.7460  176.3160  136.5550 C   0  0  1  0  0  3  0  0  0  0  0  0
  189.3380  176.2190  137.8420 C   0  0  0  0  0  3  0  0  0  0  0  0
  188.1820  175.8510  137.1440 C   0  0  0  0  0  0  0  0  0  0  0  0
  186.8130  172.6640  136.2160 C   0  0  2  0  0  3  0  0  0  0  0  0
  183.6370  173.4940  136.9680 C   0  0  0  0  0  0  0  0  0  0  0  0
  188.2440  174.6380  136.3720 N   0  0  0  0  0  2  0  0  0  0  0  0
  184.5670  172.4440  137.5260 C   0  0  0  0  0  2  0  0  0  0  0  0
  182.3360  173.1730  136.9040 C   0  0  0  0  0  3  0  0  0  0  0  0
  184.9660  177.5020  136.1470 N   0  0  0  0  0  2  0  0  0  0  0  0
  186.1150  171.7860  135.1880 C   0  0  0  0  0  1  0  0  0  0  0  0
  183.5050  177.3070  136.2520 C   0  0  2  0  0  3  0  0  0  0  0  0
  187.0290  176.6750  137.2390 C   0  0  0  0  0  0  0  0  0  0  0  0
  186.0600  172.8010  137.5510 C   0  0  0  0  0  2  0  0  0  0  0  0
  181.3140  174.0800  136.2850 C   0  0  0  0  0  2  0  0  0  0  0  0
  189.3610  177.3640  138.6410 C   0  0  0  0  0  3  0  0  0  0  0  0
  187.0610  177.8110  138.0640 C   0  0  0  0  0  3  0  0  0  0  0  0
  181.3700  179.3560  138.6560 C   0  0  0  0  0  0  0  0  0  0  0  0
  180.2550  180.1830  138.6220 O   0  0  0  0  0  1  0  0  0  0  0  0
  182.9820  177.9340  137.5200 C   0  0  0  0  0  0  0  0  0  0  0  0
  182.0130  179.1130  139.8720 C   0  0  0  0  0  3  0  0  0  0  0  0
  183.6170  177.6960  138.7470 C   0  0  0  0  0  3  0  0  0  0  0  0
  181.8510  178.7670  137.4770 C   0  0  0  0  0  0  0  0  0  0  0  0
  181.2060  179.0140  136.2690 O   0  0  0  0  0  1  0  0  0  0  0  0
  183.1340  178.2800  139.9210 C   0  0  0  0  0  0  0  0  0  0  0  0
  185.1270  178.8240  141.2640 C   0  0  0  0  0  1  0  0  0  0  0  0
  183.8300  178.0390  141.2140 C   0  0  0  0  0  2  0  0  0  0  0  0
  1 17  1  0  0  0  0
  1  4  1  0  0  0  0
  1  3  1  1  0  0  0
  4 11  1  1  0  0  0
  4  2  1  0  0  0  0
  5 10  1  0  0  0  0
  5 12  1  0  0  0  0
  7 15  1  1  0  0  0
  7 18  1  0  0  0  0
  7  2  1  0  0  0  0
  8 21  2  0  0  0  0
  9 18  2  0  0  0  0
  9  8  1  0  0  0  0
 10 16  1  6  0  0  0
 10 19  1  0  0  0  0
 11 13  1  0  0  0  0
 12  9  1  0  0  0  0
 13 19  1  0  0  0  0
 14 11  2  0  0  0  0
 15 17  1  0  0  0  0
 17 25  1  1  0  0  0
 18 22  1  0  0  0  0
 20  3  1  0  0  0  0
 20 14  1  0  0  0  0
 21  6  1  0  0  0  0
 22  6  2  0  0  0  0
 23 26  1  0  0  0  0
 24 23  1  0  0  0  0
 25 27  2  0  0  0  0
 26 30  2  0  0  0  0
 27 30  1  0  0  0  0
 28 25  1  0  0  0  0
 28 23  2  0  0  0  0
 29 28  1  0  0  0  0
 30 32  1  0  0  0  0
 32 31  1  0  0  0  0
M  END
>  <MODEL>
5

>  <REMARK>
 VINA RESULT:      -6.8      2.613      4.285
  Name = 
  2 active torsions:
  status: ('A' for Active; 'I' for Inactive)
    1  A    between atoms: C_15  and  C_26
    2  A    between atoms: C_16  and  C_27
                            x       y       z     vdW  Elec       q    Type
                         _______ _______ _______ _____ _____    ______ ____

>  <TORSDO>
F 2

$$$$
=
 OpenBabel10272413113D

 32 36  0  0  1  0  0  0  0  0999 V2000
  190.1250  177.8900  141.1830 C   0  0  2  0  0  3  0  0  0  0  0  0
  187.8170  177.3020  140.8340 O   0  0  0  0  0  0  0  0  0  0  0  0
  191.1280  176.8080  141.5920 C   0  0  0  0  0  2  0  0  0  0  0  0
  188.7260  177.7020  141.8150 C   0  0  1  0  0  3  0  0  0  0  0  0
  186.0110  179.4330  142.2280 C   0  0  0  0  0  2  0  0  0  0  0  0
  185.1760  177.6970  137.2870 C   0  0  0  0  0  3  0  0  0  0  0  0
  187.6260  178.4640  140.0750 C   0  0  1  0  0  3  0  0  0  0  0  0
  183.9260  178.5950  139.1480 C   0  0  0  0  0  3  0  0  0  0  0  0
  185.0980  178.7410  139.8990 C   0  0  0  0  0  0  0  0  0  0  0  0
  185.7760  178.5160  143.4170 C   0  0  2  0  0  3  0  0  0  0  0  0
  188.6530  176.8080  143.0390 C   0  0  0  0  0  0  0  0  0  0  0  0
  184.9570  179.2530  141.2370 N   0  0  0  0  0  2  0  0  0  0  0  0
  187.3480  176.4530  143.7100 C   0  0  0  0  0  2  0  0  0  0  0  0
  189.7710  176.3290  143.6070 C   0  0  0  0  0  3  0  0  0  0  0  0
  188.7840  178.7610  139.2090 N   0  0  0  0  0  2  0  0  0  0  0  0
  186.4980  179.0400  144.6500 C   0  0  0  0  0  1  0  0  0  0  0  0
  190.0270  178.0920  139.6440 C   0  0  2  0  0  3  0  0  0  0  0  0
  186.3400  178.3770  139.3130 C   0  0  0  0  0  0  0  0  0  0  0  0
  186.0780  177.0450  143.0820 C   0  0  0  0  0  2  0  0  0  0  0  0
  191.1410  176.6800  143.1050 C   0  0  0  0  0  2  0  0  0  0  0  0
  183.9620  178.0790  137.8510 C   0  0  0  0  0  3  0  0  0  0  0  0
  186.3570  177.8380  138.0170 C   0  0  0  0  0  3  0  0  0  0  0  0
  191.8150  175.2570  137.8260 C   0  0  0  0  0  0  0  0  0  0  0  0
  193.1100  174.8080  137.6030 O   0  0  0  0  0  1  0  0  0  0  0  0
  190.2740  176.8540  138.8180 C   0  0  0  0  0  0  0  0  0  0  0  0
  190.7380  174.5610  137.2730 C   0  0  0  0  0  3  0  0  0  0  0  0
  189.2010  176.1450  138.2590 C   0  0  0  0  0  3  0  0  0  0  0  0
  191.5870  176.4040  138.6000 C   0  0  0  0  0  0  0  0  0  0  0  0
  192.6650  177.0930  139.1470 O   0  0  0  0  0  1  0  0  0  0  0  0
  189.4300  175.0000  137.4920 C   0  0  0  0  0  0  0  0  0  0  0  0
  187.6540  175.1040  135.7860 C   0  0  0  0  0  1  0  0  0  0  0  0
  188.2840  174.2690  136.8840 C   0  0  0  0  0  2  0  0  0  0  0  0
  1  3  1  6  0  0  0
  1  4  1  0  0  0  0
  3 20  1  0  0  0  0
  4  2  1  6  0  0  0
  4 11  1  0  0  0  0
  5 10  1  0  0  0  0
  6 21  2  0  0  0  0
  6 22  1  0  0  0  0
  7 15  1  6  0  0  0
  7  2  1  0  0  0  0
  8  9  2  0  0  0  0
  9 12  1  0  0  0  0
 10 16  1  1  0  0  0
 11 14  2  0  0  0  0
 11 13  1  0  0  0  0
 12  5  1  0  0  0  0
 15 17  1  0  0  0  0
 17 25  1  6  0  0  0
 17  1  1  0  0  0  0
 18  9  1  0  0  0  0
 18  7  1  0  0  0  0
 19 10  1  0  0  0  0
 19 13  1  0  0  0  0
 20 14  1  0  0  0  0
 21  8  1  0  0  0  0
 22 18  2  0  0  0  0
 23 28  1  0  0  0  0
 24 23  1  0  0  0  0
 26 30  1  0  0  0  0
 26 23  2  0  0  0  0
 27 25  1  0  0  0  0
 28 25  2  0  0  0  0
 28 29  1  0  0  0  0
 30 27  2  0  0  0  0
 31 32  1  0  0  0  0
 32 30  1  0  0  0  0
M  END
>  <MODEL>
6

>  <REMARK>
 VINA RESULT:      -6.4      3.025      7.510
  Name = 
  2 active torsions:
  status: ('A' for Active; 'I' for Inactive)
    1  A    between atoms: C_15  and  C_26
    2  A    between atoms: C_16  and  C_27
                            x       y       z     vdW  Elec       q    Type
                         _______ _______ _______ _____ _____    ______ ____

>  <TORSDO>
F 2

$$$$
=
 OpenBabel10272413113D

 32 36  0  0  1  0  0  0  0  0999 V2000
  186.7120  176.3000  136.8590 C   0  0  2  0  0  3  0  0  0  0  0  0
  188.7010  175.1050  137.4990 O   0  0  0  0  0  0  0  0  0  0  0  0
  185.4400  176.1590  137.7000 C   0  0  0  0  0  2  0  0  0  0  0  0
  187.5270  174.9900  136.7520 C   0  0  1  0  0  3  0  0  0  0  0  0
  189.9540  173.7960  134.9570 C   0  0  0  0  0  2  0  0  0  0  0  0
  192.7840  176.5100  138.5280 C   0  0  0  0  0  3  0  0  0  0  0  0
  189.4850  175.9830  136.7400 C   0  0  1  0  0  3  0  0  0  0  0  0
  193.0810  174.7190  136.9330 C   0  0  0  0  0  3  0  0  0  0  0  0
  191.7500  174.8360  136.5160 C   0  0  0  0  0  0  0  0  0  0  0  0
  189.3610  172.4420  135.3120 C   0  0  2  0  0  3  0  0  0  0  0  0
  186.7850  173.7050  137.0740 C   0  0  0  0  0  0  0  0  0  0  0  0
  191.3000  173.9160  135.5050 N   0  0  0  0  0  2  0  0  0  0  0  0
  187.4680  172.3590  137.1060 C   0  0  0  0  0  2  0  0  0  0  0  0
  185.4630  173.7150  137.3010 C   0  0  0  0  0  3  0  0  0  0  0  0
  189.0120  177.3780  136.8380 N   0  0  0  0  0  2  0  0  0  0  0  0
  188.2440  172.0760  134.3460 C   0  0  0  0  0  1  0  0  0  0  0  0
  187.6120  177.4920  137.2940 C   0  0  2  0  0  3  0  0  0  0  0  0
  190.9280  175.8330  137.1060 C   0  0  0  0  0  0  0  0  0  0  0  0
  188.9720  172.3520  136.7980 C   0  0  0  0  0  2  0  0  0  0  0  0
  184.6400  174.9660  137.2060 C   0  0  0  0  0  2  0  0  0  0  0  0
  193.5970  175.5500  137.9300 C   0  0  0  0  0  3  0  0  0  0  0  0
  191.4560  176.6450  138.1230 C   0  0  0  0  0  3  0  0  0  0  0  0
  186.4280  178.8470  140.6560 C   0  0  0  0  0  0  0  0  0  0  0  0
  185.3490  179.5440  141.1830 O   0  0  0  0  0  1  0  0  0  0  0  0
  187.5650  177.8270  138.7640 C   0  0  0  0  0  0  0  0  0  0  0  0
  187.4780  178.4640  141.4940 C   0  0  0  0  0  3  0  0  0  0  0  0
  188.6110  177.4450  139.6160 C   0  0  0  0  0  3  0  0  0  0  0  0
  186.4670  178.5300  139.2900 C   0  0  0  0  0  0  0  0  0  0  0  0
  185.4180  178.9160  138.4620 O   0  0  0  0  0  1  0  0  0  0  0  0
  188.5680  177.7580  140.9770 C   0  0  0  0  0  0  0  0  0  0  0  0
  189.1660  176.7060  143.1240 C   0  0  0  0  0  1  0  0  0  0  0  0
  189.6960  177.3680  141.8670 C   0  0  0  0  0  2  0  0  0  0  0  0
  1 17  1  0  0  0  0
  1  3  1  1  0  0  0
  4  1  1  0  0  0  0
  4 11  1  1  0  0  0
  4  2  1  0  0  0  0
  5 10  1  0  0  0  0
  5 12  1  0  0  0  0
  7 15  1  1  0  0  0
  7 18  1  0  0  0  0
  7  2  1  0  0  0  0
  8 21  1  0  0  0  0
  9  8  2  0  0  0  0
  9 18  1  0  0  0  0
 10 16  1  6  0  0  0
 10 19  1  0  0  0  0
 11 13  1  0  0  0  0
 11 14  2  0  0  0  0
 12  9  1  0  0  0  0
 15 17  1  0  0  0  0
 17 25  1  1  0  0  0
 18 22  2  0  0  0  0
 19 13  1  0  0  0  0
 20 14  1  0  0  0  0
 20  3  1  0  0  0  0
 21  6  2  0  0  0  0
 22  6  1  0  0  0  0
 23 24  1  0  0  0  0
 23 26  1  0  0  0  0
 25 28  1  0  0  0  0
 25 27  2  0  0  0  0
 27 30  1  0  0  0  0
 28 23  2  0  0  0  0
 29 28  1  0  0  0  0
 30 26  2  0  0  0  0
 30 32  1  0  0  0  0
 32 31  1  0  0  0  0
M  END
>  <MODEL>
7

>  <REMARK>
 VINA RESULT:      -6.3      3.291      4.999
  Name = 
  2 active torsions:
  status: ('A' for Active; 'I' for Inactive)
    1  A    between atoms: C_15  and  C_26
    2  A    between atoms: C_16  and  C_27
                            x       y       z     vdW  Elec       q    Type
                         _______ _______ _______ _____ _____    ______ ____

>  <TORSDO>
F 2

$$$$
=
 OpenBabel10272413113D

 32 36  0  0  1  0  0  0  0  0999 V2000
  183.4120  179.0210  139.9670 C   0  0  2  0  0  3  0  0  0  0  0  0
  183.9440  176.9010  138.9580 O   0  0  0  0  0  0  0  0  0  0  0  0
  183.0440  179.0820  141.4510 C   0  0  0  0  0  2  0  0  0  0  0  0
  182.8810  177.7570  139.2520 C   0  0  1  0  0  3  0  0  0  0  0  0
  182.4730  176.6920  136.2130 C   0  0  0  0  0  2  0  0  0  0  0  0
  187.5890  175.4580  136.8740 C   0  0  0  0  0  3  0  0  0  0  0  0
  184.6070  177.5540  137.9110 C   0  0  1  0  0  3  0  0  0  0  0  0
  185.7310  174.8630  135.4500 C   0  0  0  0  0  3  0  0  0  0  0  0
  184.9040  175.7860  136.0990 C   0  0  0  0  0  0  0  0  0  0  0  0
  181.3860  175.8170  136.8150 C   0  0  2  0  0  3  0  0  0  0  0  0
  181.7470  177.0180  139.9410 C   0  0  0  0  0  0  0  0  0  0  0  0
  183.5360  175.8620  135.6570 N   0  0  0  0  0  2  0  0  0  0  0  0
  181.1870  175.7190  139.4160 C   0  0  0  0  0  2  0  0  0  0  0  0
  181.1610  177.5290  141.0340 C   0  0  0  0  0  3  0  0  0  0  0  0
  185.3750  178.7240  138.3820 N   0  0  0  0  0  2  0  0  0  0  0  0
  180.0720  176.5800  136.9030 C   0  0  0  0  0  1  0  0  0  0  0  0
  184.9300  179.2260  139.6980 C   0  0  2  0  0  3  0  0  0  0  0  0
  185.4460  176.5800  137.1440 C   0  0  0  0  0  0  0  0  0  0  0  0
  181.8320  175.1670  138.1370 C   0  0  0  0  0  2  0  0  0  0  0  0
  181.5490  178.8590  141.6080 C   0  0  0  0  0  2  0  0  0  0  0  0
  187.0640  174.6990  135.8300 C   0  0  0  0  0  3  0  0  0  0  0  0
  186.7820  176.3880  137.5310 C   0  0  0  0  0  3  0  0  0  0  0  0
  188.0560  178.0280  141.5230 C   0  0  0  0  0  0  0  0  0  0  0  0
  189.4000  177.7960  141.2590 O   0  0  0  0  0  1  0  0  0  0  0  0
  185.8470  178.7280  140.7870 C   0  0  0  0  0  0  0  0  0  0  0  0
  187.5530  177.7880  142.8040 C   0  0  0  0  0  3  0  0  0  0  0  0
  185.3550  178.4850  142.0770 C   0  0  0  0  0  3  0  0  0  0  0  0
  187.2060  178.4990  140.5110 C   0  0  0  0  0  0  0  0  0  0  0  0
  187.7140  178.7350  139.2370 O   0  0  0  0  0  1  0  0  0  0  0  0
  186.2040  178.0210  143.0850 C   0  0  0  0  0  0  0  0  0  0  0  0
  184.6480  178.8010  144.8280 C   0  0  0  0  0  1  0  0  0  0  0  0
  185.6650  177.7440  144.4440 C   0  0  0  0  0  2  0  0  0  0  0  0
  1  3  1  1  0  0  0
  3 20  1  0  0  0  0
  4  2  1  1  0  0  0
  4 11  1  0  0  0  0
  4  1  1  0  0  0  0
  5 10  1  0  0  0  0
  6 22  1  0  0  0  0
  7 18  1  1  0  0  0
  7 15  1  0  0  0  0
  7  2  1  0  0  0  0
  8 21  1  0  0  0  0
  8  9  2  0  0  0  0
  9 18  1  0  0  0  0
 10 16  1  1  0  0  0
 10 19  1  0  0  0  0
 11 14  2  0  0  0  0
 12  9  1  0  0  0  0
 12  5  1  0  0  0  0
 13 11  1  0  0  0  0
 14 20  1  0  0  0  0
 15 17  1  0  0  0  0
 17  1  1  0  0  0  0
 17 25  1  1  0  0  0
 18 22  2  0  0  0  0
 19 13  1  0  0  0  0
 21  6  2  0  0  0  0
 23 26  1  0  0  0  0
 24 23  1  0  0  0  0
 25 27  2  0  0  0  0
 26 30  2  0  0  0  0
 27 30  1  0  0  0  0
 28 25  1  0  0  0  0
 28 23  2  0  0  0  0
 29 28  1  0  0  0  0
 30 32  1  0  0  0  0
 32 31  1  0  0  0  0
M  END
>  <MODEL>
8

>  <REMARK>
 VINA RESULT:      -6.3      2.068      3.151
  Name = 
  2 active torsions:
  status: ('A' for Active; 'I' for Inactive)
    1  A    between atoms: C_15  and  C_26
    2  A    between atoms: C_16  and  C_27
                            x       y       z     vdW  Elec       q    Type
                         _______ _______ _______ _____ _____    ______ ____

>  <TORSDO>
F 2

$$$$
=
 OpenBabel10272413113D

 32 36  0  0  1  0  0  0  0  0999 V2000
  185.6970  178.3300  137.8530 C   0  0  2  0  0  3  0  0  0  0  0  0
  185.8590  175.9320  137.7170 O   0  0  0  0  0  0  0  0  0  0  0  0
  185.3410  178.9900  139.1870 C   0  0  0  0  0  2  0  0  0  0  0  0
  184.9580  176.9930  137.6110 C   0  0  1  0  0  3  0  0  0  0  0  0
  184.3800  174.9640  135.1440 C   0  0  0  0  0  2  0  0  0  0  0  0
  189.2060  173.2640  136.5390 C   0  0  0  0  0  3  0  0  0  0  0  0
  186.6260  176.0400  136.5500 C   0  0  1  0  0  3  0  0  0  0  0  0
  187.2770  172.4900  135.3090 C   0  0  0  0  0  3  0  0  0  0  0  0
  186.6190  173.7060  135.5250 C   0  0  0  0  0  0  0  0  0  0  0  0
  183.1570  174.5570  135.9510 C   0  0  2  0  0  3  0  0  0  0  0  0
  183.7120  176.7500  138.4450 C   0  0  0  0  0  0  0  0  0  0  0  0
  185.2860  173.8300  134.9970 N   0  0  0  0  0  2  0  0  0  0  0  0
  182.9390  175.4550  138.3910 C   0  0  0  0  0  2  0  0  0  0  0  0
  183.2200  177.7130  139.2390 C   0  0  0  0  0  3  0  0  0  0  0  0
  187.5830  177.1630  136.6150 N   0  0  0  0  0  2  0  0  0  0  0  0
  181.9940  175.4960  135.6700 C   0  0  0  0  0  1  0  0  0  0  0  0
  187.2280  178.1780  137.6270 C   0  0  2  0  0  3  0  0  0  0  0  0
  187.2880  174.7320  136.2450 C   0  0  0  0  0  0  0  0  0  0  0  0
  183.4830  174.3760  137.4440 C   0  0  0  0  0  2  0  0  0  0  0  0
  183.8300  179.0810  139.3160 C   0  0  0  0  0  2  0  0  0  0  0  0
  188.5610  172.2680  135.8100 C   0  0  0  0  0  3  0  0  0  0  0  0
  188.5700  174.4860  136.7610 C   0  0  0  0  0  3  0  0  0  0  0  0
  190.1800  177.5400  139.9540 C   0  0  0  0  0  0  0  0  0  0  0  0
  191.5460  177.2990  139.8730 O   0  0  0  0  0  1  0  0  0  0  0  0
  188.0430  177.9760  138.8800 C   0  0  0  0  0  0  0  0  0  0  0  0
  189.5610  177.5870  141.2050 C   0  0  0  0  0  3  0  0  0  0  0  0
  187.4340  178.0230  140.1420 C   0  0  0  0  0  3  0  0  0  0  0  0
  189.4250  177.7350  138.7890 C   0  0  0  0  0  0  0  0  0  0  0  0
  190.0490  177.6870  137.5460 O   0  0  0  0  0  1  0  0  0  0  0  0
  188.1890  177.8330  141.3020 C   0  0  0  0  0  0  0  0  0  0  0  0
  187.8520  176.5970  143.4070 C   0  0  0  0  0  1  0  0  0  0  0  0
  187.5270  177.8610  142.6350 C   0  0  0  0  0  2  0  0  0  0  0  0
  1  3  1  1  0  0  0
  3 20  1  0  0  0  0
  4  2  1  1  0  0  0
  4  1  1  0  0  0  0
  4 11  1  0  0  0  0
  5 10  1  0  0  0  0
  6 22  1  0  0  0  0
  7 18  1  1  0  0  0
  7 15  1  0  0  0  0
  7  2  1  0  0  0  0
  8  9  2  0  0  0  0
  8 21  1  0  0  0  0
  9 18  1  0  0  0  0
 10 16  1  1  0  0  0
 10 19  1  0  0  0  0
 11 14  2  0  0  0  0
 12  5  1  0  0  0  0
 12  9  1  0  0  0  0
 13 11  1  0  0  0  0
 14 20  1  0  0  0  0
 15 17  1  0  0  0  0
 17  1  1  0  0  0  0
 17 25  1  1  0  0  0
 18 22  2  0  0  0  0
 19 13  1  0  0  0  0
 21  6  2  0  0  0  0
 23 26  1  0  0  0  0
 24 23  1  0  0  0  0
 25 27  2  0  0  0  0
 26 30  2  0  0  0  0
 27 30  1  0  0  0  0
 28 25  1  0  0  0  0
 28 23  2  0  0  0  0
 29 28  1  0  0  0  0
 30 32  1  0  0  0  0
 32 31  1  0  0  0  0
M  END
>  <MODEL>
9

>  <REMARK>
 VINA RESULT:      -6.0      2.774      4.582
  Name = 
  2 active torsions:
  status: ('A' for Active; 'I' for Inactive)
    1  A    between atoms: C_15  and  C_26
    2  A    between atoms: C_16  and  C_27
                            x       y       z     vdW  Elec       q    Type
                         _______ _______ _______ _____ _____    ______ ____

>  <TORSDO>
F 2

$$$$
