=
 OpenBabel10272401513D

 28 31  0  0  1  0  0  0  0  0999 V2000
  187.5690  177.6210  144.0490 C   0  0  0  0  0  2  0  0  0  0  0  0
  188.3150  178.4990  143.0430 C   0  0  2  0  0  3  0  0  0  0  0  0
  186.2000  178.8520  141.7150 C   0  0  1  0  0  3  0  0  0  0  0  0
  181.9240  178.5670  141.2720 C   0  0  0  0  0  2  0  0  0  0  0  0
  187.6680  178.4320  141.6560 C   0  0  0  0  0  2  0  0  0  0  0  0
  183.6950  178.5100  138.8770 C   0  0  0  0  0  2  0  0  0  0  0  0
  183.9170  178.3380  142.7750 C   0  0  1  0  0  3  0  0  0  0  0  0
  181.5020  179.6750  139.0340 C   0  0  2  0  0  3  0  0  0  0  0  0
  183.4070  178.8700  141.4350 C   0  0  1  0  0  3  0  0  0  0  0  0
  185.6350  178.8150  140.3530 N   0  0  0  0  0  2  0  0  0  0  0  0
  182.9780  179.8410  138.6970 C   0  0  0  0  0  2  0  0  0  0  0  0
  185.5040  178.4270  145.2210 C   0  0  0  0  0  0  0  0  0  0  0  0
  185.4240  177.9900  142.7380 C   0  0  2  0  0  3  0  0  0  0  0  0
  184.2610  178.3050  140.2870 C   0  0  2  0  0  3  0  0  0  0  0  0
  184.0300  178.7310  145.2040 C   0  0  0  0  0  2  0  0  0  0  0  0
  180.7140  180.7870  138.3730 C   0  0  0  0  0  1  0  0  0  0  0  0
  181.2500  179.7190  140.5390 C   0  0  0  0  0  2  0  0  0  0  0  0
  183.6050  179.3350  143.8780 C   0  0  0  0  0  2  0  0  0  0  0  0
  186.1240  178.0210  144.0850 C   0  0  0  0  0  0  0  0  0  0  0  0
  185.8550  179.4440  147.3370 O   0  0  0  0  0  0  0  0  0  0  0  0
  186.1800  178.5220  146.5420 C   0  0  0  0  0  0  0  0  0  0  0  0
  187.3060  177.6220  146.9390 C   0  0  0  0  0  2  0  0  0  0  0  0
  188.0010  178.1740  148.1680 C   0  0  0  0  0  1  0  0  0  0  0  0
  189.8050  178.1580  142.9960 C   0  0  0  0  0  2  0  0  0  0  0  0
  190.5580  178.5420  144.2700 C   0  0  0  0  0  2  0  0  0  0  0  0
  191.4470  177.4100  144.7580 C   0  0  0  0  0  3  0  0  0  0  0  0
  190.9730  176.9170  146.1130 C   0  0  0  0  0  1  0  0  0  0  0  0
  191.3950  176.2680  143.7660 C   0  0  0  0  0  1  0  0  0  0  0  0
  1 19  1  0  0  0  0
  2 24  1  6  0  0  0
  2  1  1  0  0  0  0
  3  5  1  6  0  0  0
  3 13  1  0  0  0  0
  5  2  1  0  0  0  0
  7 18  1  1  0  0  0
  8 16  1  6  0  0  0
  8 17  1  0  0  0  0
  9  4  1  6  0  0  0
  9  7  1  0  0  0  0
 10  3  1  0  0  0  0
 11  6  1  0  0  0  0
 11  8  1  0  0  0  0
 12 21  1  0  0  0  0
 13  7  1  0  0  0  0
 13 19  1  1  0  0  0
 14  6  1  6  0  0  0
 14 10  1  0  0  0  0
 14  9  1  0  0  0  0
 15 12  1  0  0  0  0
 17  4  1  0  0  0  0
 18 15  1  0  0  0  0
 19 12  2  0  0  0  0
 21 22  1  0  0  0  0
 21 20  2  0  0  0  0
 22 23  1  0  0  0  0
 24 25  1  0  0  0  0
 25 26  1  0  0  0  0
 26 27  1  0  0  0  0
 28 26  1  0  0  0  0
M  END
>  <MODEL>
1

>  <REMARK>
 VINA RESULT:      -9.6      0.000      0.000
  Name = 
  5 active torsions:
  status: ('A' for Active; 'I' for Inactive)
    1  A    between atoms: C_2  and  C_8
    2  A    between atoms: C_6  and  C_11
    3  A    between atoms: C_8  and  C_11
    4  A    between atoms: C_16  and  C_21
    5  A    between atoms: C_19  and  C_21
                            x       y       z     vdW  Elec       q    Type
                         _______ _______ _______ _____ _____    ______ ____

>  <TORSDO>
F 5

$$$$
=
 OpenBabel10272401513D

 28 31  0  0  1  0  0  0  0  0999 V2000
  188.0450  178.2490  145.2020 C   0  0  0  0  0  2  0  0  0  0  0  0
  186.8890  177.5610  144.4730 C   0  0  2  0  0  3  0  0  0  0  0  0
  188.2880  177.3160  142.3900 C   0  0  1  0  0  3  0  0  0  0  0  0
  192.0730  177.4800  140.3380 C   0  0  0  0  0  2  0  0  0  0  0  0
  186.9570  177.8030  142.9620 C   0  0  0  0  0  2  0  0  0  0  0  0
  189.5330  177.9630  138.8580 C   0  0  0  0  0  2  0  0  0  0  0  0
  190.8410  177.5710  142.5190 C   0  0  1  0  0  3  0  0  0  0  0  0
  191.4950  176.6940  138.0000 C   0  0  2  0  0  3  0  0  0  0  0  0
  190.7440  177.2200  141.0340 C   0  0  1  0  0  3  0  0  0  0  0  0
  188.2880  177.5280  140.9290 N   0  0  0  0  0  2  0  0  0  0  0  0
  189.9940  176.6430  138.2540 C   0  0  0  0  0  2  0  0  0  0  0  0
  190.3130  177.1930  145.3630 C   0  0  0  0  0  0  0  0  0  0  0  0
  189.4760  177.9850  143.1190 C   0  0  2  0  0  3  0  0  0  0  0  0
  189.5740  177.9830  140.3890 C   0  0  2  0  0  3  0  0  0  0  0  0
  191.6310  176.8320  144.7320 C   0  0  0  0  0  2  0  0  0  0  0  0
  191.8580  175.6590  136.9570 C   0  0  0  0  0  1  0  0  0  0  0  0
  192.3000  176.4200  139.2680 C   0  0  0  0  0  2  0  0  0  0  0  0
  191.4550  176.4110  143.2850 C   0  0  0  0  0  2  0  0  0  0  0  0
  189.3470  177.7870  144.6190 C   0  0  0  0  0  0  0  0  0  0  0  0
  191.2260  176.6820  147.4940 O   0  0  0  0  0  0  0  0  0  0  0  0
  190.1890  176.9350  146.8230 C   0  0  0  0  0  0  0  0  0  0  0  0
  188.8700  176.8670  147.5210 C   0  0  0  0  0  2  0  0  0  0  0  0
  188.7560  177.9980  148.5230 C   0  0  0  0  0  1  0  0  0  0  0  0
  185.5350  177.9690  145.0570 C   0  0  0  0  0  2  0  0  0  0  0  0
  184.7920  179.0010  144.2100 C   0  0  0  0  0  2  0  0  0  0  0  0
  183.5500  178.4060  143.5650 C   0  0  0  0  0  3  0  0  0  0  0  0
  182.3010  179.0160  144.1730 C   0  0  0  0  0  1  0  0  0  0  0  0
  183.5710  178.6930  142.0790 C   0  0  0  0  0  1  0  0  0  0  0  0
  2 24  1  1  0  0  0
  2  1  1  0  0  0  0
  3  5  1  1  0  0  0
  3 13  1  0  0  0  0
  5  2  1  0  0  0  0
  7 13  1  0  0  0  0
  7 18  1  1  0  0  0
  8 16  1  6  0  0  0
  8 11  1  0  0  0  0
  8 17  1  0  0  0  0
  9  4  1  6  0  0  0
  9  7  1  0  0  0  0
 10  3  1  0  0  0  0
 11  6  1  0  0  0  0
 12 21  1  0  0  0  0
 13 19  1  1  0  0  0
 14  6  1  6  0  0  0
 14 10  1  0  0  0  0
 14  9  1  0  0  0  0
 15 12  1  0  0  0  0
 17  4  1  0  0  0  0
 18 15  1  0  0  0  0
 19  1  1  0  0  0  0
 19 12  2  0  0  0  0
 21 20  2  0  0  0  0
 21 22  1  0  0  0  0
 22 23  1  0  0  0  0
 25 24  1  0  0  0  0
 26 27  1  0  0  0  0
 26 25  1  0  0  0  0
 28 26  1  0  0  0  0
M  END
>  <MODEL>
2

>  <REMARK>
 VINA RESULT:      -9.0      2.805      6.742
  Name = 
  5 active torsions:
  status: ('A' for Active; 'I' for Inactive)
    1  A    between atoms: C_2  and  C_8
    2  A    between atoms: C_6  and  C_11
    3  A    between atoms: C_8  and  C_11
    4  A    between atoms: C_16  and  C_21
    5  A    between atoms: C_19  and  C_21
                            x       y       z     vdW  Elec       q    Type
                         _______ _______ _______ _____ _____    ______ ____

>  <TORSDO>
F 5

$$$$
=
 OpenBabel10272401513D

 28 31  0  0  1  0  0  0  0  0999 V2000
  186.3610  178.8350  140.8350 C   0  0  0  0  0  2  0  0  0  0  0  0
  187.2310  177.8190  140.0910 C   0  0  2  0  0  3  0  0  0  0  0  0
  188.6340  177.4450  142.1530 C   0  0  1  0  0  3  0  0  0  0  0  0
  189.3430  177.9110  146.3770 C   0  0  0  0  0  2  0  0  0  0  0  0
  188.6520  177.7780  140.6620 C   0  0  0  0  0  2  0  0  0  0  0  0
  191.6280  177.6260  144.4860 C   0  0  0  0  0  2  0  0  0  0  0  0
  187.7610  178.1860  144.4530 C   0  0  1  0  0  3  0  0  0  0  0  0
  191.4800  176.6020  146.7500 C   0  0  2  0  0  3  0  0  0  0  0  0
  189.0680  177.5470  144.9250 C   0  0  1  0  0  3  0  0  0  0  0  0
  190.0230  177.3710  142.6450 N   0  0  0  0  0  2  0  0  0  0  0  0
  191.7150  176.3240  145.2710 C   0  0  0  0  0  2  0  0  0  0  0  0
  185.2330  178.2650  143.0000 C   0  0  0  0  0  0  0  0  0  0  0  0
  187.7480  178.4480  142.9280 C   0  0  2  0  0  3  0  0  0  0  0  0
  190.2170  177.9450  143.9820 C   0  0  2  0  0  3  0  0  0  0  0  0
  185.3020  178.0400  144.4870 C   0  0  0  0  0  2  0  0  0  0  0  0
  192.0700  175.4720  147.5670 C   0  0  0  0  0  1  0  0  0  0  0  0
  189.9950  176.7270  147.0800 C   0  0  0  0  0  2  0  0  0  0  0  0
  186.5830  177.3270  144.8790 C   0  0  0  0  0  2  0  0  0  0  0  0
  186.3670  178.5190  142.3010 C   0  0  0  0  0  0  0  0  0  0  0  0
  183.6880  177.7090  141.2860 O   0  0  0  0  0  0  0  0  0  0  0  0
  183.8720  178.2710  142.3990 C   0  0  0  0  0  0  0  0  0  0  0  0
  182.7220  179.0010  143.0120 C   0  0  0  0  0  2  0  0  0  0  0  0
  181.4760  178.8030  142.1720 C   0  0  0  0  0  1  0  0  0  0  0  0
  187.2260  178.0740  138.5840 C   0  0  0  0  0  2  0  0  0  0  0  0
  187.9480  176.9920  137.7810 C   0  0  0  0  0  2  0  0  0  0  0  0
  189.0500  177.5790  136.9130 C   0  0  0  0  0  3  0  0  0  0  0  0
  189.1290  179.0810  137.1100 C   0  0  0  0  0  1  0  0  0  0  0  0
  190.3750  176.9560  137.2980 C   0  0  0  0  0  1  0  0  0  0  0  0
  1 19  1  0  0  0  0
  2 24  1  6  0  0  0
  2  5  1  0  0  0  0
  2  1  1  0  0  0  0
  3  5  1  6  0  0  0
  3 10  1  0  0  0  0
  3 13  1  0  0  0  0
  4 17  1  0  0  0  0
  6 11  1  0  0  0  0
  7 18  1  6  0  0  0
  7  9  1  0  0  0  0
  8 17  1  0  0  0  0
  8 16  1  1  0  0  0
  9  4  1  1  0  0  0
 10 14  1  0  0  0  0
 11  8  1  0  0  0  0
 12 15  1  0  0  0  0
 13 19  1  6  0  0  0
 13  7  1  0  0  0  0
 14  6  1  1  0  0  0
 14  9  1  0  0  0  0
 15 18  1  0  0  0  0
 19 12  2  0  0  0  0
 20 21  2  0  0  0  0
 21 12  1  0  0  0  0
 21 22  1  0  0  0  0
 23 22  1  0  0  0  0
 25 24  1  0  0  0  0
 26 27  1  0  0  0  0
 26 28  1  0  0  0  0
 26 25  1  0  0  0  0
M  END
>  <MODEL>
3

>  <REMARK>
 VINA RESULT:      -8.6      2.715      7.350
  Name = 
  5 active torsions:
  status: ('A' for Active; 'I' for Inactive)
    1  A    between atoms: C_2  and  C_8
    2  A    between atoms: C_6  and  C_11
    3  A    between atoms: C_8  and  C_11
    4  A    between atoms: C_16  and  C_21
    5  A    between atoms: C_19  and  C_21
                            x       y       z     vdW  Elec       q    Type
                         _______ _______ _______ _____ _____    ______ ____

>  <TORSDO>
F 5

$$$$
=
 OpenBabel10272401513D

 28 31  0  0  1  0  0  0  0  0999 V2000
  186.4590  178.8720  140.7430 C   0  0  0  0  0  2  0  0  0  0  0  0
  187.3260  177.8420  140.0170 C   0  0  2  0  0  3  0  0  0  0  0  0
  188.6880  177.4520  142.1030 C   0  0  1  0  0  3  0  0  0  0  0  0
  189.3340  177.9180  146.3370 C   0  0  0  0  0  2  0  0  0  0  0  0
  188.7370  177.7810  140.6110 C   0  0  0  0  0  2  0  0  0  0  0  0
  191.6450  177.5950  144.4860 C   0  0  0  0  0  2  0  0  0  0  0  0
  187.7880  178.2120  144.3860 C   0  0  1  0  0  3  0  0  0  0  0  0
  191.4440  176.5790  146.7490 C   0  0  2  0  0  3  0  0  0  0  0  0
  189.0770  177.5550  144.8810 C   0  0  1  0  0  3  0  0  0  0  0  0
  190.0670  177.3590  142.6190 N   0  0  0  0  0  2  0  0  0  0  0  0
  191.7000  176.2930  145.2750 C   0  0  0  0  0  2  0  0  0  0  0  0
  185.2860  178.3250  142.8900 C   0  0  0  0  0  0  0  0  0  0  0  0
  187.8050  178.4700  142.8600 C   0  0  2  0  0  3  0  0  0  0  0  0
  190.2470  177.9330  143.9570 C   0  0  2  0  0  3  0  0  0  0  0  0
  185.3270  178.1030  144.3780 C   0  0  0  0  0  2  0  0  0  0  0  0
  192.0020  175.4420  147.5780 C   0  0  0  0  0  1  0  0  0  0  0  0
  189.9550  176.7270  147.0540 C   0  0  0  0  0  2  0  0  0  0  0  0
  186.5900  177.3710  144.7940 C   0  0  0  0  0  2  0  0  0  0  0  0
  186.4360  178.5600  142.2090 C   0  0  0  0  0  0  0  0  0  0  0  0
  182.9770  178.8740  142.8930 O   0  0  0  0  0  0  0  0  0  0  0  0
  183.9360  178.3500  142.2660 C   0  0  0  0  0  0  0  0  0  0  0  0
  183.6410  177.6920  140.9570 C   0  0  0  0  0  2  0  0  0  0  0  0
  182.7860  178.6050  140.1000 C   0  0  0  0  0  1  0  0  0  0  0  0
  187.3510  178.0930  138.5080 C   0  0  0  0  0  2  0  0  0  0  0  0
  185.9650  178.3150  137.9050 C   0  0  0  0  0  2  0  0  0  0  0  0
  185.7080  177.3810  136.7330 C   0  0  0  0  0  3  0  0  0  0  0  0
  186.6450  176.1890  136.7970 C   0  0  0  0  0  1  0  0  0  0  0  0
  184.2760  176.8920  136.7860 C   0  0  0  0  0  1  0  0  0  0  0  0
  1 19  1  0  0  0  0
  2 24  1  6  0  0  0
  2  5  1  0  0  0  0
  2  1  1  0  0  0  0
  3  5  1  6  0  0  0
  3 10  1  0  0  0  0
  3 13  1  0  0  0  0
  4 17  1  0  0  0  0
  6 11  1  0  0  0  0
  7 18  1  6  0  0  0
  7  9  1  0  0  0  0
  8 17  1  0  0  0  0
  8 16  1  1  0  0  0
  9  4  1  1  0  0  0
 10 14  1  0  0  0  0
 11  8  1  0  0  0  0
 12 15  1  0  0  0  0
 13 19  1  6  0  0  0
 13  7  1  0  0  0  0
 14  6  1  1  0  0  0
 14  9  1  0  0  0  0
 15 18  1  0  0  0  0
 19 12  2  0  0  0  0
 21 12  1  0  0  0  0
 21 20  2  0  0  0  0
 22 21  1  0  0  0  0
 23 22  1  0  0  0  0
 25 24  1  0  0  0  0
 26 28  1  0  0  0  0
 26 27  1  0  0  0  0
 26 25  1  0  0  0  0
M  END
>  <MODEL>
4

>  <REMARK>
 VINA RESULT:      -8.5      2.236      7.642
  Name = 
  5 active torsions:
  status: ('A' for Active; 'I' for Inactive)
    1  A    between atoms: C_2  and  C_8
    2  A    between atoms: C_6  and  C_11
    3  A    between atoms: C_8  and  C_11
    4  A    between atoms: C_16  and  C_21
    5  A    between atoms: C_19  and  C_21
                            x       y       z     vdW  Elec       q    Type
                         _______ _______ _______ _____ _____    ______ ____

>  <TORSDO>
F 5

$$$$
=
 OpenBabel10272401513D

 28 31  0  0  1  0  0  0  0  0999 V2000
  186.1470  178.0780  139.5240 C   0  0  0  0  0  2  0  0  0  0  0  0
  185.2560  179.1720  140.1160 C   0  0  2  0  0  3  0  0  0  0  0  0
  186.1370  178.6980  142.4310 C   0  0  1  0  0  3  0  0  0  0  0  0
  188.9580  176.8150  145.0890 C   0  0  0  0  0  2  0  0  0  0  0  0
  184.8860  178.8640  141.5700 C   0  0  0  0  0  2  0  0  0  0  0  0
  186.1930  177.4290  146.0140 C   0  0  0  0  0  2  0  0  0  0  0  0
  188.3100  177.3590  142.7300 C   0  0  1  0  0  3  0  0  0  0  0  0
  188.2670  177.6790  147.3680 C   0  0  2  0  0  3  0  0  0  0  0  0
  188.0470  177.6570  144.2060 C   0  0  1  0  0  3  0  0  0  0  0  0
  185.7300  178.4480  143.8270 N   0  0  0  0  0  2  0  0  0  0  0  0
  187.0200  178.3900  146.8580 C   0  0  0  0  0  2  0  0  0  0  0  0
  188.6240  178.0450  139.9110 C   0  0  0  0  0  0  0  0  0  0  0  0
  187.0640  177.6070  141.8460 C   0  0  2  0  0  3  0  0  0  0  0  0
  186.5550  177.4560  144.5250 C   0  0  2  0  0  3  0  0  0  0  0  0
  189.7990  177.7690  140.8110 C   0  0  0  0  0  2  0  0  0  0  0  0
  188.7910  178.4090  148.5860 C   0  0  0  0  0  1  0  0  0  0  0  0
  189.3680  177.6260  146.3120 C   0  0  0  0  0  2  0  0  0  0  0  0
  189.5040  178.1650  142.2450 C   0  0  0  0  0  2  0  0  0  0  0  0
  187.3610  177.9020  140.3860 C   0  0  0  0  0  0  0  0  0  0  0  0
  188.9850  179.6020  138.1570 O   0  0  0  0  0  0  0  0  0  0  0  0
  188.9420  178.3900  138.5000 C   0  0  0  0  0  0  0  0  0  0  0  0
  189.1210  177.3550  137.4370 C   0  0  0  0  0  2  0  0  0  0  0  0
  190.5700  176.9110  137.3870 C   0  0  0  0  0  1  0  0  0  0  0  0
  184.0200  179.4200  139.2510 C   0  0  0  0  0  2  0  0  0  0  0  0
  183.6390  178.2250  138.3770 C   0  0  0  0  0  2  0  0  0  0  0  0
  182.3320  177.5950  138.8300 C   0  0  0  0  0  3  0  0  0  0  0  0
  182.6040  176.3080  139.5870 C   0  0  0  0  0  1  0  0  0  0  0  0
  181.5970  178.5600  139.7360 C   0  0  0  0  0  1  0  0  0  0  0  0
  1  2  1  0  0  0  0
  1 19  1  0  0  0  0
  2 24  1  6  0  0  0
  2  5  1  0  0  0  0
  3  5  1  6  0  0  0
  3 10  1  0  0  0  0
  4 17  1  0  0  0  0
  6 11  1  0  0  0  0
  7 18  1  6  0  0  0
  7  9  1  0  0  0  0
  8 16  1  1  0  0  0
  9 14  1  0  0  0  0
  9  4  1  1  0  0  0
 10 14  1  0  0  0  0
 11  8  1  0  0  0  0
 12 19  2  0  0  0  0
 12 15  1  0  0  0  0
 13 19  1  6  0  0  0
 13  3  1  0  0  0  0
 13  7  1  0  0  0  0
 14  6  1  1  0  0  0
 15 18  1  0  0  0  0
 17  8  1  0  0  0  0
 20 21  2  0  0  0  0
 21 12  1  0  0  0  0
 22 21  1  0  0  0  0
 23 22  1  0  0  0  0
 25 26  1  0  0  0  0
 25 24  1  0  0  0  0
 26 27  1  0  0  0  0
 26 28  1  0  0  0  0
M  END
>  <MODEL>
5

>  <REMARK>
 VINA RESULT:      -8.2      2.767      7.927
  Name = 
  5 active torsions:
  status: ('A' for Active; 'I' for Inactive)
    1  A    between atoms: C_2  and  C_8
    2  A    between atoms: C_6  and  C_11
    3  A    between atoms: C_8  and  C_11
    4  A    between atoms: C_16  and  C_21
    5  A    between atoms: C_19  and  C_21
                            x       y       z     vdW  Elec       q    Type
                         _______ _______ _______ _____ _____    ______ ____

>  <TORSDO>
F 5

$$$$
=
 OpenBabel10272401513D

 28 31  0  0  1  0  0  0  0  0999 V2000
  190.0850  177.2520  138.8670 C   0  0  0  0  0  2  0  0  0  0  0  0
  189.2000  178.4610  138.5580 C   0  0  2  0  0  3  0  0  0  0  0  0
  188.2190  178.3920  140.8810 C   0  0  1  0  0  3  0  0  0  0  0  0
  188.2140  176.9470  144.9390 C   0  0  0  0  0  2  0  0  0  0  0  0
  187.9100  178.4350  139.3850 C   0  0  0  0  0  2  0  0  0  0  0  0
  185.6730  177.8000  143.6400 C   0  0  0  0  0  2  0  0  0  0  0  0
  189.4040  177.0690  142.7370 C   0  0  1  0  0  3  0  0  0  0  0  0
  186.3100  178.2330  146.0060 C   0  0  2  0  0  3  0  0  0  0  0  0
  188.2660  177.6390  143.5850 C   0  0  1  0  0  3  0  0  0  0  0  0
  186.9500  178.4140  141.6340 N   0  0  0  0  0  2  0  0  0  0  0  0
  185.8480  178.8750  144.7040 C   0  0  0  0  0  2  0  0  0  0  0  0
  191.6220  177.2180  140.8480 C   0  0  0  0  0  0  0  0  0  0  0  0
  189.1260  177.1860  141.2190 C   0  0  2  0  0  3  0  0  0  0  0  0
  186.9380  177.5430  142.8140 C   0  0  2  0  0  3  0  0  0  0  0  0
  191.8330  177.0770  142.3310 C   0  0  0  0  0  2  0  0  0  0  0  0
  185.9820  179.1580  147.1590 C   0  0  0  0  0  1  0  0  0  0  0  0
  187.8110  177.9550  146.0080 C   0  0  0  0  0  2  0  0  0  0  0  0
  190.7150  177.7380  143.1150 C   0  0  0  0  0  2  0  0  0  0  0  0
  190.3640  177.2010  140.3390 C   0  0  0  0  0  0  0  0  0  0  0  0
  193.5050  178.3650  139.9700 O   0  0  0  0  0  0  0  0  0  0  0  0
  192.8500  177.2890  140.0110 C   0  0  0  0  0  0  0  0  0  0  0  0
  193.2960  176.1640  139.1350 C   0  0  0  0  0  2  0  0  0  0  0  0
  193.1110  176.5380  137.6780 C   0  0  0  0  0  1  0  0  0  0  0  0
  188.9170  178.5820  137.0600 C   0  0  0  0  0  2  0  0  0  0  0  0
  189.2060  177.2990  136.2810 C   0  0  0  0  0  2  0  0  0  0  0  0
  187.9260  176.6410  135.7910 C   0  0  0  0  0  3  0  0  0  0  0  0
  187.4260  175.6400  136.8160 C   0  0  0  0  0  1  0  0  0  0  0  0
  186.8680  177.7010  135.5740 C   0  0  0  0  0  1  0  0  0  0  0  0
  1 19  1  0  0  0  0
  2 24  1  6  0  0  0
  2  1  1  0  0  0  0
  2  5  1  0  0  0  0
  3  5  1  6  0  0  0
  3 13  1  0  0  0  0
  3 10  1  0  0  0  0
  4 17  1  0  0  0  0
  6 11  1  0  0  0  0
  7 18  1  6  0  0  0
  7  9  1  0  0  0  0
  8 17  1  0  0  0  0
  8 16  1  1  0  0  0
  9  4  1  1  0  0  0
 10 14  1  0  0  0  0
 11  8  1  0  0  0  0
 12 15  1  0  0  0  0
 13 19  1  6  0  0  0
 13  7  1  0  0  0  0
 14  9  1  0  0  0  0
 14  6  1  1  0  0  0
 15 18  1  0  0  0  0
 19 12  2  0  0  0  0
 20 21  2  0  0  0  0
 21 12  1  0  0  0  0
 22 21  1  0  0  0  0
 23 22  1  0  0  0  0
 25 24  1  0  0  0  0
 26 25  1  0  0  0  0
 26 27  1  0  0  0  0
 28 26  1  0  0  0  0
M  END
>  <MODEL>
6

>  <REMARK>
 VINA RESULT:      -7.9      3.785      7.534
  Name = 
  5 active torsions:
  status: ('A' for Active; 'I' for Inactive)
    1  A    between atoms: C_2  and  C_8
    2  A    between atoms: C_6  and  C_11
    3  A    between atoms: C_8  and  C_11
    4  A    between atoms: C_16  and  C_21
    5  A    between atoms: C_19  and  C_21
                            x       y       z     vdW  Elec       q    Type
                         _______ _______ _______ _____ _____    ______ ____

>  <TORSDO>
F 5

$$$$
=
 OpenBabel10272401513D

 28 31  0  0  1  0  0  0  0  0999 V2000
  183.1710  178.3060  141.7950 C   0  0  0  0  0  2  0  0  0  0  0  0
  182.6520  179.2690  142.8650 C   0  0  2  0  0  3  0  0  0  0  0  0
  184.6260  178.7550  144.3480 C   0  0  1  0  0  3  0  0  0  0  0  0
  188.5150  177.0190  144.9960 C   0  0  0  0  0  2  0  0  0  0  0  0
  183.1020  178.8430  144.2660 C   0  0  0  0  0  2  0  0  0  0  0  0
  186.5930  177.2970  147.2550 C   0  0  0  0  0  2  0  0  0  0  0  0
  186.7140  177.6280  143.3630 C   0  0  1  0  0  3  0  0  0  0  0  0
  189.0490  177.6770  147.3830 C   0  0  2  0  0  3  0  0  0  0  0  0
  187.2330  177.8130  144.7900 C   0  0  1  0  0  3  0  0  0  0  0  0
  185.0110  178.3860  145.7240 N   0  0  0  0  0  2  0  0  0  0  0  0
  187.6800  178.2870  147.6530 C   0  0  0  0  0  2  0  0  0  0  0  0
  185.4900  178.5010  140.8630 C   0  0  0  0  0  0  0  0  0  0  0  0
  185.1790  177.7980  143.2660 C   0  0  2  0  0  3  0  0  0  0  0  0
  186.1330  177.4440  145.8010 C   0  0  2  0  0  3  0  0  0  0  0  0
  186.9740  178.2940  141.0060 C   0  0  0  0  0  2  0  0  0  0  0  0
  190.0840  178.3860  148.2310 C   0  0  0  0  0  1  0  0  0  0  0  0
  189.4490  177.7950  145.9150 C   0  0  0  0  0  2  0  0  0  0  0  0
  187.4380  178.5760  142.4230 C   0  0  0  0  0  2  0  0  0  0  0  0
  184.6630  178.2040  141.8970 C   0  0  0  0  0  0  0  0  0  0  0  0
  184.5370  180.1160  139.4090 O   0  0  0  0  0  0  0  0  0  0  0  0
  185.0140  178.9560  139.5300 C   0  0  0  0  0  0  0  0  0  0  0  0
  184.9880  178.0610  138.3330 C   0  0  0  0  0  2  0  0  0  0  0  0
  186.2320  178.2790  137.4960 C   0  0  0  0  0  1  0  0  0  0  0  0
  181.1350  179.4400  142.7790 C   0  0  0  0  0  2  0  0  0  0  0  0
  180.5260  178.8460  141.5090 C   0  0  0  0  0  2  0  0  0  0  0  0
  180.8990  179.6550  140.2780 C   0  0  0  0  0  3  0  0  0  0  0  0
  180.7520  178.8070  139.0280 C   0  0  0  0  0  1  0  0  0  0  0  0
  179.9850  180.8580  140.1730 C   0  0  0  0  0  1  0  0  0  0  0  0
  1 19  1  0  0  0  0
  1  2  1  0  0  0  0
  2 24  1  1  0  0  0
  2  5  1  0  0  0  0
  3  5  1  1  0  0  0
  3 10  1  0  0  0  0
  4 17  1  0  0  0  0
  6 11  1  0  0  0  0
  7 18  1  6  0  0  0
  7  9  1  0  0  0  0
  8 11  1  0  0  0  0
  8 16  1  1  0  0  0
  9  4  1  1  0  0  0
  9 14  1  0  0  0  0
 10 14  1  0  0  0  0
 12 15  1  0  0  0  0
 12 19  2  0  0  0  0
 13 19  1  6  0  0  0
 13  7  1  0  0  0  0
 13  3  1  0  0  0  0
 14  6  1  1  0  0  0
 15 18  1  0  0  0  0
 17  8  1  0  0  0  0
 20 21  2  0  0  0  0
 21 12  1  0  0  0  0
 22 21  1  0  0  0  0
 23 22  1  0  0  0  0
 25 24  1  0  0  0  0
 26 25  1  0  0  0  0
 27 26  1  0  0  0  0
 28 26  1  0  0  0  0
M  END
>  <MODEL>
7

>  <REMARK>
 VINA RESULT:      -7.9      2.344      8.209
  Name = 
  5 active torsions:
  status: ('A' for Active; 'I' for Inactive)
    1  A    between atoms: C_2  and  C_8
    2  A    between atoms: C_6  and  C_11
    3  A    between atoms: C_8  and  C_11
    4  A    between atoms: C_16  and  C_21
    5  A    between atoms: C_19  and  C_21
                            x       y       z     vdW  Elec       q    Type
                         _______ _______ _______ _____ _____    ______ ____

>  <TORSDO>
F 5

$$$$
=
 OpenBabel10272401513D

 28 31  0  0  1  0  0  0  0  0999 V2000
  190.9050  177.4520  142.3350 C   0  0  0  0  0  2  0  0  0  0  0  0
  190.3060  176.4610  143.3350 C   0  0  2  0  0  3  0  0  0  0  0  0
  187.9700  177.1980  142.7340 C   0  0  1  0  0  3  0  0  0  0  0  0
  185.2140  179.3280  140.1990 C   0  0  0  0  0  2  0  0  0  0  0  0
  188.9600  176.9560  143.8730 C   0  0  0  0  0  2  0  0  0  0  0  0
  184.5890  178.8980  143.0800 C   0  0  0  0  0  2  0  0  0  0  0  0
  187.5550  178.5120  140.5660 C   0  0  1  0  0  3  0  0  0  0  0  0
  182.9570  178.7700  141.2050 C   0  0  2  0  0  3  0  0  0  0  0  0
  186.1000  178.4050  141.0240 C   0  0  1  0  0  3  0  0  0  0  0  0
  186.6790  177.6280  143.3040 N   0  0  0  0  0  2  0  0  0  0  0  0
  183.5350  178.0300  142.4040 C   0  0  0  0  0  2  0  0  0  0  0  0
  190.2070  177.4750  139.9270 C   0  0  0  0  0  0  0  0  0  0  0  0
  188.5570  178.1860  141.6990 C   0  0  2  0  0  3  0  0  0  0  0  0
  186.0040  178.6790  142.5350 C   0  0  2  0  0  3  0  0  0  0  0  0
  189.2020  177.8330  138.8640 C   0  0  0  0  0  2  0  0  0  0  0  0
  181.6030  178.1840  140.8660 C   0  0  0  0  0  1  0  0  0  0  0  0
  183.8600  178.6660  139.9780 C   0  0  0  0  0  2  0  0  0  0  0  0
  187.7810  177.6240  139.3530 C   0  0  0  0  0  2  0  0  0  0  0  0
  189.9200  177.7050  141.2330 C   0  0  0  0  0  0  0  0  0  0  0  0
  192.5800  177.4270  139.9220 O   0  0  0  0  0  0  0  0  0  0  0  0
  191.5130  176.9510  139.4480 C   0  0  0  0  0  0  0  0  0  0  0  0
  191.6240  175.9420  138.3510 C   0  0  0  0  0  2  0  0  0  0  0  0
  193.0560  175.8660  137.8610 C   0  0  0  0  0  1  0  0  0  0  0  0
  191.2890  176.1370  144.4610 C   0  0  0  0  0  2  0  0  0  0  0  0
  191.5280  177.3060  145.4160 C   0  0  0  0  0  2  0  0  0  0  0  0
  191.4310  176.8710  146.8700 C   0  0  0  0  0  3  0  0  0  0  0  0
  189.9790  176.6690  147.2620 C   0  0  0  0  0  1  0  0  0  0  0  0
  192.1830  175.5700  147.0540 C   0  0  0  0  0  1  0  0  0  0  0  0
  1  2  1  0  0  0  0
  2  5  1  0  0  0  0
  2 24  1  1  0  0  0
  3 10  1  0  0  0  0
  3  5  1  1  0  0  0
  7 18  1  6  0  0  0
  7  9  1  0  0  0  0
  7 13  1  0  0  0  0
  8 16  1  6  0  0  0
  8 11  1  0  0  0  0
  9  4  1  6  0  0  0
  9 14  1  0  0  0  0
 11  6  1  0  0  0  0
 12 19  2  0  0  0  0
 13 19  1  6  0  0  0
 13  3  1  0  0  0  0
 14  6  1  1  0  0  0
 14 10  1  0  0  0  0
 15 18  1  0  0  0  0
 15 12  1  0  0  0  0
 17  4  1  0  0  0  0
 17  8  1  0  0  0  0
 19  1  1  0  0  0  0
 21 20  2  0  0  0  0
 21 12  1  0  0  0  0
 22 21  1  0  0  0  0
 23 22  1  0  0  0  0
 24 25  1  0  0  0  0
 25 26  1  0  0  0  0
 26 28  1  0  0  0  0
 26 27  1  0  0  0  0
M  END
>  <MODEL>
8

>  <REMARK>
 VINA RESULT:      -7.8      3.009      5.358
  Name = 
  5 active torsions:
  status: ('A' for Active; 'I' for Inactive)
    1  A    between atoms: C_2  and  C_8
    2  A    between atoms: C_6  and  C_11
    3  A    between atoms: C_8  and  C_11
    4  A    between atoms: C_16  and  C_21
    5  A    between atoms: C_19  and  C_21
                            x       y       z     vdW  Elec       q    Type
                         _______ _______ _______ _____ _____    ______ ____

>  <TORSDO>
F 5

$$$$
=
 OpenBabel10272401513D

 28 31  0  0  1  0  0  0  0  0999 V2000
  188.3860  177.3160  143.5280 C   0  0  0  0  0  2  0  0  0  0  0  0
  188.7230  178.2210  142.3420 C   0  0  2  0  0  3  0  0  0  0  0  0
  186.2750  178.6370  141.9050 C   0  0  1  0  0  3  0  0  0  0  0  0
  182.1350  178.4040  143.0740 C   0  0  0  0  0  2  0  0  0  0  0  0
  187.6070  178.2070  141.2930 C   0  0  0  0  0  2  0  0  0  0  0  0
  182.8900  178.4130  140.1920 C   0  0  0  0  0  2  0  0  0  0  0  0
  184.5370  178.1070  143.7220 C   0  0  1  0  0  3  0  0  0  0  0  0
  180.9350  179.5910  141.1850 C   0  0  2  0  0  3  0  0  0  0  0  0
  183.5780  178.6880  142.6830 C   0  0  1  0  0  3  0  0  0  0  0  0
  185.2440  178.6520  140.8500 N   0  0  0  0  0  2  0  0  0  0  0  0
  182.1840  179.7560  140.3290 C   0  0  0  0  0  2  0  0  0  0  0  0
  186.9200  178.0980  145.4060 C   0  0  0  0  0  0  0  0  0  0  0  0
  185.9160  177.7470  143.1180 C   0  0  2  0  0  3  0  0  0  0  0  0
  183.9330  178.1560  141.2840 C   0  0  2  0  0  3  0  0  0  0  0  0
  185.5510  178.4150  145.9460 C   0  0  0  0  0  2  0  0  0  0  0  0
  179.9820  180.7310  140.8960 C   0  0  0  0  0  1  0  0  0  0  0  0
  181.2600  179.5860  142.6760 C   0  0  0  0  0  2  0  0  0  0  0  0
  184.6770  179.0680  144.8910 C   0  0  0  0  0  2  0  0  0  0  0  0
  187.0660  177.7260  144.1090 C   0  0  0  0  0  0  0  0  0  0  0  0
  189.2220  178.2480  145.9610 O   0  0  0  0  0  0  0  0  0  0  0  0
  188.0390  178.1420  146.3830 C   0  0  0  0  0  0  0  0  0  0  0  0
  187.8340  177.9700  147.8540 C   0  0  0  0  0  2  0  0  0  0  0  0
  189.1730  177.9470  148.5640 C   0  0  0  0  0  1  0  0  0  0  0  0
  190.0830  177.8690  141.7360 C   0  0  0  0  0  2  0  0  0  0  0  0
  190.0370  176.6640  140.7970 C   0  0  0  0  0  2  0  0  0  0  0  0
  191.0760  176.7750  139.6930 C   0  0  0  0  0  3  0  0  0  0  0  0
  190.5050  177.5330  138.5090 C   0  0  0  0  0  1  0  0  0  0  0  0
  192.2890  177.5130  140.2180 C   0  0  0  0  0  1  0  0  0  0  0  0
  1 19  1  0  0  0  0
  2 24  1  6  0  0  0
  2  1  1  0  0  0  0
  3  5  1  6  0  0  0
  3 13  1  0  0  0  0
  5  2  1  0  0  0  0
  6 11  1  0  0  0  0
  7 18  1  1  0  0  0
  8 16  1  1  0  0  0
  8 17  1  0  0  0  0
  9  4  1  1  0  0  0
  9  7  1  0  0  0  0
 10 14  1  0  0  0  0
 10  3  1  0  0  0  0
 11  8  1  0  0  0  0
 12 15  1  0  0  0  0
 12 21  1  0  0  0  0
 13  7  1  0  0  0  0
 13 19  1  1  0  0  0
 14  6  1  6  0  0  0
 14  9  1  0  0  0  0
 17  4  1  0  0  0  0
 18 15  1  0  0  0  0
 19 12  2  0  0  0  0
 20 21  2  0  0  0  0
 21 22  1  0  0  0  0
 22 23  1  0  0  0  0
 25 24  1  0  0  0  0
 26 28  1  0  0  0  0
 26 25  1  0  0  0  0
 27 26  1  0  0  0  0
M  END
>  <MODEL>
9

>  <REMARK>
 VINA RESULT:      -7.6      1.847      2.529
  Name = 
  5 active torsions:
  status: ('A' for Active; 'I' for Inactive)
    1  A    between atoms: C_2  and  C_8
    2  A    between atoms: C_6  and  C_11
    3  A    between atoms: C_8  and  C_11
    4  A    between atoms: C_16  and  C_21
    5  A    between atoms: C_19  and  C_21
                            x       y       z     vdW  Elec       q    Type
                         _______ _______ _______ _____ _____    ______ ____

>  <TORSDO>
F 5

$$$$
