=
 OpenBabel10272401303D

 55 59  0  0  1  0  0  0  0  0999 V2000
  186.4990  178.8050  141.5520 O   0  0  0  0  0  1  0  0  0  0  0  0
  185.2400  179.2480  141.1420 C   0  0  1  0  0  3  0  0  0  0  0  0
  184.9920  178.7470  139.7520 C   0  0  0  0  0  3  0  0  0  0  0  0
  185.9910  178.3570  138.9600 C   0  0  0  0  0  3  0  0  0  0  0  0
  185.6950  177.8680  137.5850 C   0  0  0  0  0  2  0  0  0  0  0  0
  186.0680  176.5150  137.4720 O   0  0  0  0  0  0  0  0  0  0  0  0
  188.7780  177.9810  135.7050 C   0  0  0  0  0  3  0  0  0  0  0  0
  189.2310  175.5630  135.8290 N   0  0  1  0  0  0  0  0  0  0  0  0
  187.4980  177.7440  136.0160 C   0  0  0  0  0  3  0  0  0  0  0  0
  188.2000  175.5370  136.8650 C   0  0  0  0  0  2  0  0  0  0  0  0
  189.8240  176.9010  135.8310 C   0  0  0  0  0  2  0  0  0  0  0  0
  186.9850  176.3650  136.4010 C   0  0  1  0  0  0  0  0  0  0  0  0
  190.2810  174.6380  136.2320 C   0  0  0  0  0  3  0  0  0  0  0  0
  189.6810  173.4730  137.0060 C   0  0  0  0  0  2  0  0  0  0  0  0
  190.0610  173.2970  135.5460 C   0  0  0  0  0  2  0  0  0  0  0  0
  186.3920  175.6740  135.2940 O   0  0  0  0  0  0  0  0  0  0  0  0
  183.8340  172.8220  137.1370 C   0  0  0  0  0  3  0  0  0  0  0  0
  185.1270  172.4990  136.9650 C   0  0  0  0  0  3  0  0  0  0  0  0
  183.5780  175.8130  135.2400 O   0  0  0  0  0  0  0  0  0  0  0  0
  185.5610  174.5640  135.6210 C   0  0  1  0  0  3  0  0  0  0  0  0
  186.1390  173.5600  136.6340 C   0  0  0  0  0  2  0  0  0  0  0  0
  184.1270  174.9490  135.9090 C   0  0  0  0  0  0  0  0  0  0  0  0
  183.3590  174.2480  137.0040 C   0  0  2  0  0  3  0  0  0  0  0  0
  183.5470  174.9150  138.2290 O   0  0  0  0  0  0  0  0  0  0  0  0
  182.3920  176.8610  138.0830 F   0  0  0  0  0  0  0  0  0  0  0  0
  182.1890  175.6380  139.9550 F   0  0  0  0  0  0  0  0  0  0  0  0
  181.2570  174.9280  138.0130 F   0  0  0  0  0  0  0  0  0  0  0  0
  182.3450  175.5710  138.5760 C   0  0  0  0  0  0  0  0  0  0  0  0
  184.1650  178.7480  142.1120 C   0  0  1  0  0  3  0  0  0  0  0  0
  183.3540  177.8010  141.4870 O   0  0  0  0  0  1  0  0  0  0  0  0
  184.8180  178.1110  143.3270 C   0  0  0  0  0  2  0  0  0  0  0  0
  184.1400  178.5790  144.6040 C   0  0  0  0  0  2  0  0  0  0  0  0
  185.0750  179.4930  145.3760 C   0  0  0  0  0  2  0  0  0  0  0  0
  187.0630  178.3820  146.2830 C   0  0  0  0  0  3  0  0  0  0  0  0
  185.7830  178.7140  146.4300 C   0  0  0  0  0  3  0  0  0  0  0  0
  187.7750  177.6200  147.3540 C   0  0  0  0  0  2  0  0  0  0  0  0
  189.1460  177.1410  146.8750 C   0  0  2  0  0  3  0  0  0  0  0  0
  192.2400  177.4210  148.8490 O   0  0  0  0  0  1  0  0  0  0  0  0
  190.2010  177.6420  147.7490 N   0  0  0  0  0  2  0  0  0  0  0  0
  191.3870  176.9140  148.0750 C   0  0  0  0  0  0  0  0  0  0  0  0
  191.6120  175.6520  147.5400 O   0  0  0  0  0  0  0  0  0  0  0  0
  189.4100  177.5370  145.4240 C   0  0  0  0  0  2  0  0  0  0  0  0
  191.9170  177.7550  143.3620 C   0  0  2  0  0  3  0  0  0  0  0  0
  187.7660  176.1370  143.2640 O   0  0  0  0  0  0  0  0  0  0  0  0
  190.0930  176.4060  144.6710 C   0  0  1  0  0  3  0  0  0  0  0  0
  191.5150  177.4170  139.7330 C   0  0  0  0  0  2  0  0  0  0  0  0
  189.6450  174.6860  142.6310 O   0  0  0  0  0  0  0  0  0  0  0  0
  189.2620  176.0550  143.1190 S   0  0  0  0  0  0  0  0  0  0  0  0
  191.4830  179.1660  143.7420 C   0  0  0  0  0  1  0  0  0  0  0  0
  190.1950  176.6010  139.7850 C   0  0  0  0  0  2  0  0  0  0  0  0
  189.2650  177.1640  140.6910 O   0  0  0  0  0  0  0  0  0  0  0  0
  191.3660  177.3120  142.0060 C   0  0  1  0  0  3  0  0  0  0  0  0
  189.8320  177.2940  141.9870 C   0  0  2  0  0  3  0  0  0  0  0  0
  191.8260  178.0990  140.9390 O   0  0  0  0  0  0  0  0  0  0  0  0
  191.5890  176.7210  144.4580 C   0  0  0  0  0  2  0  0  0  0  0  0
  2  1  1  1  0  0  0
  2 29  1  0  0  0  0
  3  2  1  0  0  0  0
  4  3  2  0  0  0  0
  5  4  1  0  0  0  0
  6  5  1  0  0  0  0
  7 11  1  0  0  0  0
  7  9  2  0  0  0  0
  8 11  1  0  0  0  0
  8 13  1  1  0  0  0
  8 10  1  0  0  0  0
  9 12  1  0  0  0  0
 12 16  1  6  0  0  0
 12 10  1  0  0  0  0
 12  6  1  0  0  0  0
 13 14  1  0  0  0  0
 15 13  1  0  0  0  0
 15 14  1  0  0  0  0
 18 17  2  0  0  0  0
 19 22  2  0  0  0  0
 20 16  1  1  0  0  0
 20 22  1  0  0  0  0
 20 21  1  0  0  0  0
 21 18  1  0  0  0  0
 22 23  1  0  0  0  0
 23 17  1  0  0  0  0
 23 24  1  1  0  0  0
 24 28  1  0  0  0  0
 25 28  1  0  0  0  0
 27 28  1  0  0  0  0
 28 26  1  0  0  0  0
 29 30  1  6  0  0  0
 29 31  1  0  0  0  0
 31 32  1  0  0  0  0
 32 33  1  0  0  0  0
 33 35  1  0  0  0  0
 34 35  2  0  0  0  0
 34 36  1  0  0  0  0
 37 42  1  6  0  0  0
 37 36  1  0  0  0  0
 37 39  1  0  0  0  0
 39 40  1  0  0  0  0
 40 38  1  0  0  0  0
 41 40  2  0  0  0  0
 43 49  1  1  0  0  0
 43 55  1  0  0  0  0
 45 42  1  6  0  0  0
 46 50  1  0  0  0  0
 46 54  1  0  0  0  0
 47 48  2  0  0  0  0
 48 44  2  0  0  0  0
 48 45  1  0  0  0  0
 50 51  1  0  0  0  0
 52 54  1  6  0  0  0
 52 43  1  0  0  0  0
 53 51  1  6  0  0  0
 53 52  1  0  0  0  0
 53 48  1  0  0  0  0
 55 45  1  0  0  0  0
M  END
>  <MODEL>
1

>  <REMARK>
 VINA RESULT:      -7.5      0.000      0.000
  Name = 
  19 active torsions:
  status: ('A' for Active; 'I' for Inactive)
    1  A    between atoms: C_2  and  C_44
    2  A    between atoms: C_6  and  C_46
    3  A    between atoms: N_8  and  C_22
    4  A    between atoms: C_10  and  N_32
    5  A    between atoms: C_17  and  O_36
    6  A    between atoms: O_19  and  C_40
    7  A    between atoms: O_19  and  C_45
    8  A    between atoms: C_22  and  C_35
    9  A    between atoms: C_22  and  C_46
   10  A    between atoms: C_24  and  C_31
   11  A    between atoms: C_24  and  C_44
   12  A    between atoms: C_27  and  C_31
   13  A    between atoms: C_27  and  C_54
   14  A    between atoms: C_28  and  C_49
   15  A    between atoms: O_33  and  C_49
   16  A    between atoms: O_33  and  C_52
   17  A    between atoms: C_35  and  C_43
   18  A    between atoms: O_36  and  C_52
   19  A    between atoms: C_51  and  C_54
                            x       y       z     vdW  Elec       q    Type
                         _______ _______ _______ _____ _____    ______ ____

>  <TORSDO>
F 19

$$$$
=
 OpenBabel10272401303D

 55 59  0  0  1  0  0  0  0  0999 V2000
  187.6930  177.5950  144.7520 O   0  0  0  0  0  1  0  0  0  0  0  0
  188.6170  177.3460  143.7340 C   0  0  1  0  0  3  0  0  0  0  0  0
  188.1800  178.0870  142.5080 C   0  0  0  0  0  3  0  0  0  0  0  0
  188.2430  177.5350  141.2970 C   0  0  0  0  0  3  0  0  0  0  0  0
  187.7980  178.3130  140.1070 C   0  0  0  0  0  2  0  0  0  0  0  0
  186.9630  177.5130  139.3030 O   0  0  0  0  0  0  0  0  0  0  0  0
  189.2130  178.4840  136.7320 C   0  0  0  0  0  3  0  0  0  0  0  0
  187.4950  177.0680  135.6800 N   0  0  1  0  0  0  0  0  0  0  0  0
  188.4110  178.6500  137.7900 C   0  0  0  0  0  3  0  0  0  0  0  0
  187.1540  176.6630  137.0420 C   0  0  0  0  0  2  0  0  0  0  0  0
  188.9070  177.4540  135.6740 C   0  0  0  0  0  2  0  0  0  0  0  0
  187.0910  177.9090  137.9480 C   0  0  1  0  0  0  0  0  0  0  0  0
  187.3770  175.8910  134.8300 C   0  0  0  0  0  3  0  0  0  0  0  0
  186.5970  174.8030  135.5510 C   0  0  0  0  0  2  0  0  0  0  0  0
  185.9110  175.6550  134.4980 C   0  0  0  0  0  2  0  0  0  0  0  0
  185.9700  178.6940  137.5210 O   0  0  0  0  0  0  0  0  0  0  0  0
  182.6950  177.2440  139.8100 C   0  0  0  0  0  3  0  0  0  0  0  0
  183.1350  176.4950  138.7850 C   0  0  0  0  0  3  0  0  0  0  0  0
  184.4680  180.2780  139.3030 O   0  0  0  0  0  0  0  0  0  0  0  0
  184.6990  178.2920  138.0210 C   0  0  1  0  0  3  0  0  0  0  0  0
  184.4700  176.7760  138.1560 C   0  0  0  0  0  2  0  0  0  0  0  0
  184.2540  179.0760  139.2360 C   0  0  0  0  0  0  0  0  0  0  0  0
  183.5190  178.3830  140.3590 C   0  0  2  0  0  3  0  0  0  0  0  0
  184.4380  177.8790  141.2990 O   0  0  0  0  0  0  0  0  0  0  0  0
  184.7740  177.9010  143.5420 F   0  0  0  0  0  0  0  0  0  0  0  0
  183.0690  179.0990  142.7070 F   0  0  0  0  0  0  0  0  0  0  0  0
  185.2110  179.7620  142.3700 F   0  0  0  0  0  0  0  0  0  0  0  0
  184.3680  178.6700  142.4670 C   0  0  0  0  0  0  0  0  0  0  0  0
  190.0170  177.7830  144.1770 C   0  0  1  0  0  3  0  0  0  0  0  0
  189.9900  178.2220  145.5010 O   0  0  0  0  0  1  0  0  0  0  0  0
  190.9840  176.6160  144.0660 C   0  0  0  0  0  2  0  0  0  0  0  0
  191.2180  176.2540  142.6090 C   0  0  0  0  0  2  0  0  0  0  0  0
  191.9700  177.3760  141.9150 C   0  0  0  0  0  2  0  0  0  0  0  0
  192.3090  176.7660  139.5660 C   0  0  0  0  0  3  0  0  0  0  0  0
  191.5930  177.4210  140.4760 C   0  0  0  0  0  3  0  0  0  0  0  0
  191.9120  176.7960  138.1240 C   0  0  0  0  0  2  0  0  0  0  0  0
  192.0340  175.4110  137.4880 C   0  0  2  0  0  3  0  0  0  0  0  0
  189.1140  173.1740  137.3560 O   0  0  0  0  0  1  0  0  0  0  0  0
  190.9070  174.5680  137.8680 N   0  0  0  0  0  2  0  0  0  0  0  0
  190.0740  173.8720  136.9370 C   0  0  0  0  0  0  0  0  0  0  0  0
  190.3180  173.9520  135.5730 O   0  0  0  0  0  0  0  0  0  0  0  0
  193.3580  174.7390  137.8420 C   0  0  0  0  0  2  0  0  0  0  0  0
  194.4240  172.9530  135.3400 C   0  0  2  0  0  3  0  0  0  0  0  0
  196.2160  174.9440  138.9010 O   0  0  0  0  0  0  0  0  0  0  0  0
  194.4370  175.1050  136.8330 C   0  0  1  0  0  3  0  0  0  0  0  0
  197.6720  171.2530  135.3770 C   0  0  0  0  0  2  0  0  0  0  0  0
  197.1180  175.4220  136.6660 O   0  0  0  0  0  0  0  0  0  0  0  0
  196.0710  174.6620  137.4300 S   0  0  0  0  0  0  0  0  0  0  0  0
  193.4530  172.1070  136.1550 C   0  0  0  0  0  1  0  0  0  0  0  0
  198.3330  172.1760  136.4370 C   0  0  0  0  0  2  0  0  0  0  0  0
  197.4820  172.3980  137.5450 O   0  0  0  0  0  0  0  0  0  0  0  0
  195.8880  172.6450  135.6560 C   0  0  1  0  0  3  0  0  0  0  0  0
  196.2290  172.9220  137.1250 C   0  0  2  0  0  3  0  0  0  0  0  0
  196.2550  171.3260  135.3440 O   0  0  0  0  0  0  0  0  0  0  0  0
  194.1370  174.4640  135.4620 C   0  0  0  0  0  2  0  0  0  0  0  0
  2 29  1  0  0  0  0
  2  1  1  1  0  0  0
  3  2  1  0  0  0  0
  4  3  2  0  0  0  0
  5  4  1  0  0  0  0
  6  5  1  0  0  0  0
  7  9  2  0  0  0  0
  8 13  1  6  0  0  0
  8 10  1  0  0  0  0
  9 12  1  0  0  0  0
 10 12  1  0  0  0  0
 11  8  1  0  0  0  0
 11  7  1  0  0  0  0
 12 16  1  6  0  0  0
 12  6  1  0  0  0  0
 13 14  1  0  0  0  0
 15 13  1  0  0  0  0
 15 14  1  0  0  0  0
 17 23  1  0  0  0  0
 18 17  2  0  0  0  0
 20 16  1  1  0  0  0
 20 21  1  0  0  0  0
 20 22  1  0  0  0  0
 21 18  1  0  0  0  0
 22 19  2  0  0  0  0
 22 23  1  0  0  0  0
 23 24  1  1  0  0  0
 24 28  1  0  0  0  0
 27 28  1  0  0  0  0
 28 26  1  0  0  0  0
 28 25  1  0  0  0  0
 29 30  1  1  0  0  0
 31 29  1  0  0  0  0
 32 31  1  0  0  0  0
 33 32  1  0  0  0  0
 34 35  2  0  0  0  0
 35 33  1  0  0  0  0
 36 34  1  0  0  0  0
 37 42  1  1  0  0  0
 37 39  1  0  0  0  0
 37 36  1  0  0  0  0
 40 38  1  0  0  0  0
 40 39  1  0  0  0  0
 41 40  2  0  0  0  0
 43 55  1  0  0  0  0
 43 52  1  0  0  0  0
 43 49  1  1  0  0  0
 45 48  1  0  0  0  0
 45 42  1  1  0  0  0
 46 50  1  0  0  0  0
 47 48  2  0  0  0  0
 48 44  2  0  0  0  0
 50 51  1  0  0  0  0
 52 54  1  1  0  0  0
 52 53  1  0  0  0  0
 53 48  1  0  0  0  0
 53 51  1  6  0  0  0
 54 46  1  0  0  0  0
 55 45  1  0  0  0  0
M  END
>  <MODEL>
2

>  <REMARK>
 VINA RESULT:      -6.9      3.933      7.324
  Name = 
  19 active torsions:
  status: ('A' for Active; 'I' for Inactive)
    1  A    between atoms: C_2  and  C_44
    2  A    between atoms: C_6  and  C_46
    3  A    between atoms: N_8  and  C_22
    4  A    between atoms: C_10  and  N_32
    5  A    between atoms: C_17  and  O_36
    6  A    between atoms: O_19  and  C_40
    7  A    between atoms: O_19  and  C_45
    8  A    between atoms: C_22  and  C_35
    9  A    between atoms: C_22  and  C_46
   10  A    between atoms: C_24  and  C_31
   11  A    between atoms: C_24  and  C_44
   12  A    between atoms: C_27  and  C_31
   13  A    between atoms: C_27  and  C_54
   14  A    between atoms: C_28  and  C_49
   15  A    between atoms: O_33  and  C_49
   16  A    between atoms: O_33  and  C_52
   17  A    between atoms: C_35  and  C_43
   18  A    between atoms: O_36  and  C_52
   19  A    between atoms: C_51  and  C_54
                            x       y       z     vdW  Elec       q    Type
                         _______ _______ _______ _____ _____    ______ ____

>  <TORSDO>
F 19

$$$$
=
 OpenBabel10272401303D

 55 59  0  0  1  0  0  0  0  0999 V2000
  185.6960  179.5740  141.6150 O   0  0  0  0  0  1  0  0  0  0  0  0
  184.3600  179.2840  141.9010 C   0  0  1  0  0  3  0  0  0  0  0  0
  183.7350  178.6870  140.6780 C   0  0  0  0  0  3  0  0  0  0  0  0
  182.9250  177.6310  140.7510 C   0  0  0  0  0  3  0  0  0  0  0  0
  182.3280  177.0710  139.5060 C   0  0  0  0  0  2  0  0  0  0  0  0
  183.1900  176.0980  138.9640 O   0  0  0  0  0  0  0  0  0  0  0  0
  180.9060  174.4840  136.7760 C   0  0  0  0  0  3  0  0  0  0  0  0
  181.4440  176.6640  135.7640 N   0  0  1  0  0  0  0  0  0  0  0  0
  181.9820  174.5970  137.5630 C   0  0  0  0  0  3  0  0  0  0  0  0
  181.9760  177.0160  137.0790 C   0  0  0  0  0  2  0  0  0  0  0  0
  180.4040  175.6530  135.9660 C   0  0  0  0  0  2  0  0  0  0  0  0
  182.8370  175.8540  137.6130 C   0  0  1  0  0  0  0  0  0  0  0  0
  180.7830  177.8460  135.2280 C   0  0  0  0  0  3  0  0  0  0  0  0
  181.3990  179.1030  135.8220 C   0  0  0  0  0  2  0  0  0  0  0  0
  181.7840  178.6600  134.4220 C   0  0  0  0  0  2  0  0  0  0  0  0
  183.9970  175.7590  136.7750 O   0  0  0  0  0  0  0  0  0  0  0  0
  187.2510  178.4930  136.6870 C   0  0  0  0  0  3  0  0  0  0  0  0
  186.5820  178.3380  137.8420 C   0  0  0  0  0  3  0  0  0  0  0  0
  185.1760  176.7310  134.4070 O   0  0  0  0  0  0  0  0  0  0  0  0
  184.8480  176.9010  136.7530 C   0  0  1  0  0  3  0  0  0  0  0  0
  185.6570  177.1700  138.0350 C   0  0  0  0  0  2  0  0  0  0  0  0
  185.6710  177.0150  135.4890 C   0  0  0  0  0  0  0  0  0  0  0  0
  187.0970  177.5080  135.5540 C   0  0  2  0  0  3  0  0  0  0  0  0
  187.9730  176.4260  135.7590 O   0  0  0  0  0  0  0  0  0  0  0  0
  189.1130  177.7880  134.3470 F   0  0  0  0  0  0  0  0  0  0  0  0
  189.8950  175.7120  134.6910 F   0  0  0  0  0  0  0  0  0  0  0  0
  190.0340  177.2750  136.3270 F   0  0  0  0  0  0  0  0  0  0  0  0
  189.2560  176.7880  135.2920 C   0  0  0  0  0  0  0  0  0  0  0  0
  184.2730  178.3270  143.0930 C   0  0  1  0  0  3  0  0  0  0  0  0
  185.2730  177.3580  143.0080 O   0  0  0  0  0  1  0  0  0  0  0  0
  184.4460  179.0970  144.3920 C   0  0  0  0  0  2  0  0  0  0  0  0
  185.3720  178.3490  145.3360 C   0  0  0  0  0  2  0  0  0  0  0  0
  185.5130  179.1200  146.6360 C   0  0  0  0  0  2  0  0  0  0  0  0
  187.7990  178.3950  147.1420 C   0  0  0  0  0  3  0  0  0  0  0  0
  186.5220  178.4570  147.5080 C   0  0  0  0  0  3  0  0  0  0  0  0
  188.8110  177.7470  148.0330 C   0  0  0  0  0  2  0  0  0  0  0  0
  189.8930  177.0380  147.2170 C   0  0  2  0  0  3  0  0  0  0  0  0
  193.2730  176.4370  148.5450 O   0  0  0  0  0  1  0  0  0  0  0  0
  191.2050  177.2270  147.8270 N   0  0  0  0  0  2  0  0  0  0  0  0
  192.1690  176.1850  147.9960 C   0  0  0  0  0  0  0  0  0  0  0  0
  191.9020  174.8960  147.5550 O   0  0  0  0  0  0  0  0  0  0  0  0
  189.9010  177.5000  145.7620 C   0  0  0  0  0  2  0  0  0  0  0  0
  191.9150  177.4390  143.2080 C   0  0  2  0  0  3  0  0  0  0  0  0
  187.6020  176.6090  143.9590 O   0  0  0  0  0  0  0  0  0  0  0  0
  190.1780  176.3330  144.8260 C   0  0  1  0  0  3  0  0  0  0  0  0
  190.7070  177.4910  139.7470 C   0  0  0  0  0  2  0  0  0  0  0  0
  188.9890  174.9030  142.8610 O   0  0  0  0  0  0  0  0  0  0  0  0
  188.9890  176.2710  143.4830 S   0  0  0  0  0  0  0  0  0  0  0  0
  191.8530  178.8670  143.7370 C   0  0  0  0  0  1  0  0  0  0  0  0
  189.2940  176.9250  140.0530 C   0  0  0  0  0  2  0  0  0  0  0  0
  188.7010  177.5670  141.1660 O   0  0  0  0  0  0  0  0  0  0  0  0
  191.0190  177.2200  141.9890 C   0  0  1  0  0  3  0  0  0  0  0  0
  189.5410  177.4810  142.3090 C   0  0  2  0  0  3  0  0  0  0  0  0
  191.3900  178.0010  140.8830 O   0  0  0  0  0  0  0  0  0  0  0  0
  191.6290  176.3900  144.3030 C   0  0  0  0  0  2  0  0  0  0  0  0
  2  1  1  6  0  0  0
  2 29  1  0  0  0  0
  3  4  2  0  0  0  0
  3  2  1  0  0  0  0
  5  4  1  0  0  0  0
  6  5  1  0  0  0  0
  7  9  2  0  0  0  0
  8 13  1  1  0  0  0
  8 11  1  0  0  0  0
  8 10  1  0  0  0  0
  9 12  1  0  0  0  0
 10 12  1  0  0  0  0
 11  7  1  0  0  0  0
 12 16  1  6  0  0  0
 12  6  1  0  0  0  0
 13 14  1  0  0  0  0
 15 13  1  0  0  0  0
 15 14  1  0  0  0  0
 17 18  2  0  0  0  0
 18 21  1  0  0  0  0
 19 22  2  0  0  0  0
 20 16  1  1  0  0  0
 20 21  1  0  0  0  0
 22 23  1  0  0  0  0
 22 20  1  0  0  0  0
 23 24  1  1  0  0  0
 23 17  1  0  0  0  0
 25 28  1  0  0  0  0
 26 28  1  0  0  0  0
 28 24  1  0  0  0  0
 28 27  1  0  0  0  0
 29 30  1  6  0  0  0
 29 31  1  0  0  0  0
 31 32  1  0  0  0  0
 32 33  1  0  0  0  0
 33 35  1  0  0  0  0
 34 35  2  0  0  0  0
 34 36  1  0  0  0  0
 37 42  1  6  0  0  0
 37 39  1  0  0  0  0
 37 36  1  0  0  0  0
 39 40  1  0  0  0  0
 40 38  1  0  0  0  0
 41 40  2  0  0  0  0
 43 49  1  1  0  0  0
 43 55  1  0  0  0  0
 45 42  1  6  0  0  0
 46 50  1  0  0  0  0
 46 54  1  0  0  0  0
 47 48  2  0  0  0  0
 48 44  2  0  0  0  0
 48 45  1  0  0  0  0
 50 51  1  0  0  0  0
 52 54  1  6  0  0  0
 52 53  1  0  0  0  0
 52 43  1  0  0  0  0
 53 51  1  6  0  0  0
 53 48  1  0  0  0  0
 55 45  1  0  0  0  0
M  END
>  <MODEL>
3

>  <REMARK>
 VINA RESULT:      -6.8      2.756      4.623
  Name = 
  19 active torsions:
  status: ('A' for Active; 'I' for Inactive)
    1  A    between atoms: C_2  and  C_44
    2  A    between atoms: C_6  and  C_46
    3  A    between atoms: N_8  and  C_22
    4  A    between atoms: C_10  and  N_32
    5  A    between atoms: C_17  and  O_36
    6  A    between atoms: O_19  and  C_40
    7  A    between atoms: O_19  and  C_45
    8  A    between atoms: C_22  and  C_35
    9  A    between atoms: C_22  and  C_46
   10  A    between atoms: C_24  and  C_31
   11  A    between atoms: C_24  and  C_44
   12  A    between atoms: C_27  and  C_31
   13  A    between atoms: C_27  and  C_54
   14  A    between atoms: C_28  and  C_49
   15  A    between atoms: O_33  and  C_49
   16  A    between atoms: O_33  and  C_52
   17  A    between atoms: C_35  and  C_43
   18  A    between atoms: O_36  and  C_52
   19  A    between atoms: C_51  and  C_54
                            x       y       z     vdW  Elec       q    Type
                         _______ _______ _______ _____ _____    ______ ____

>  <TORSDO>
F 19

$$$$
=
 OpenBabel10272401303D

 55 59  0  0  1  0  0  0  0  0999 V2000
  185.9500  179.6250  141.3320 O   0  0  0  0  0  1  0  0  0  0  0  0
  184.6080  179.2740  141.1730 C   0  0  1  0  0  3  0  0  0  0  0  0
  184.4090  178.7920  139.7690 C   0  0  0  0  0  3  0  0  0  0  0  0
  183.6300  177.7470  139.4920 C   0  0  0  0  0  3  0  0  0  0  0  0
  183.4650  177.3040  138.0790 C   0  0  0  0  0  2  0  0  0  0  0  0
  183.9670  175.9960  137.9300 O   0  0  0  0  0  0  0  0  0  0  0  0
  185.2280  177.7610  135.1180 C   0  0  0  0  0  3  0  0  0  0  0  0
  186.8820  176.0210  135.6700 N   0  0  1  0  0  0  0  0  0  0  0  0
  184.3190  177.1130  135.8560 C   0  0  0  0  0  3  0  0  0  0  0  0
  186.1800  175.9170  136.9480 C   0  0  0  0  0  2  0  0  0  0  0  0
  186.6870  177.3830  135.1690 C   0  0  0  0  0  2  0  0  0  0  0  0
  184.6590  175.8920  136.6980 C   0  0  1  0  0  0  0  0  0  0  0  0
  188.3050  175.8710  135.9380 C   0  0  0  0  0  3  0  0  0  0  0  0
  188.5230  174.8450  137.0410 C   0  0  0  0  0  2  0  0  0  0  0  0
  188.7360  174.4540  135.5890 C   0  0  0  0  0  2  0  0  0  0  0  0
  184.3540  174.6630  136.0250 O   0  0  0  0  0  0  0  0  0  0  0  0
  181.6440  171.5850  137.1440 C   0  0  0  0  0  3  0  0  0  0  0  0
  181.1390  172.7820  136.8010 C   0  0  0  0  0  3  0  0  0  0  0  0
  185.1170  172.2950  137.3480 O   0  0  0  0  0  0  0  0  0  0  0  0
  183.4170  173.8100  136.6760 C   0  0  1  0  0  3  0  0  0  0  0  0
  181.9940  173.7920  136.0880 C   0  0  0  0  0  2  0  0  0  0  0  0
  183.9620  172.4300  136.9700 C   0  0  0  0  0  0  0  0  0  0  0  0
  183.0730  171.2170  136.8280 C   0  0  2  0  0  3  0  0  0  0  0  0
  183.1430  170.7180  135.5140 O   0  0  0  0  0  0  0  0  0  0  0  0
  182.9290  168.5890  134.7620 F   0  0  0  0  0  0  0  0  0  0  0  0
  183.7010  168.9120  136.8450 F   0  0  0  0  0  0  0  0  0  0  0  0
  184.9890  169.4260  135.0520 F   0  0  0  0  0  0  0  0  0  0  0  0
  183.7000  169.4210  135.5530 C   0  0  0  0  0  0  0  0  0  0  0  0
  184.2230  178.1940  142.1900 C   0  0  1  0  0  3  0  0  0  0  0  0
  185.2500  177.2580  142.3120 O   0  0  0  0  0  1  0  0  0  0  0  0
  183.9720  178.8270  143.5490 C   0  0  0  0  0  2  0  0  0  0  0  0
  185.0160  178.3660  144.5530 C   0  0  0  0  0  2  0  0  0  0  0  0
  184.5310  178.6460  145.9640 C   0  0  0  0  0  2  0  0  0  0  0  0
  186.8610  178.2080  146.5870 C   0  0  0  0  0  3  0  0  0  0  0  0
  185.6980  178.7830  146.8790 C   0  0  0  0  0  3  0  0  0  0  0  0
  188.0350  178.3690  147.4990 C   0  0  0  0  0  2  0  0  0  0  0  0
  189.0520  177.2450  147.2960 C   0  0  2  0  0  3  0  0  0  0  0  0
  192.5070  177.0890  148.5550 O   0  0  0  0  0  1  0  0  0  0  0  0
  190.3390  177.6020  147.8820 N   0  0  0  0  0  2  0  0  0  0  0  0
  191.4350  176.6950  148.0260 C   0  0  0  0  0  0  0  0  0  0  0  0
  191.3310  175.3840  147.5820 O   0  0  0  0  0  0  0  0  0  0  0  0
  189.2090  176.8810  145.8220 C   0  0  0  0  0  2  0  0  0  0  0  0
  188.4970  177.3480  142.6820 C   0  0  2  0  0  3  0  0  0  0  0  0
  192.1340  177.5510  145.2490 O   0  0  0  0  0  0  0  0  0  0  0  0
  189.4750  178.1240  144.9850 C   0  0  1  0  0  3  0  0  0  0  0  0
  191.0580  177.3200  140.0580 C   0  0  0  0  0  2  0  0  0  0  0  0
  191.5250  179.4840  143.8600 O   0  0  0  0  0  0  0  0  0  0  0  0
  191.1240  178.0970  144.2760 S   0  0  0  0  0  0  0  0  0  0  0  0
  188.1860  175.8990  143.0350 C   0  0  0  0  0  1  0  0  0  0  0  0
  192.2520  177.6740  140.9840 C   0  0  0  0  0  2  0  0  0  0  0  0
  192.2460  176.9000  142.1690 O   0  0  0  0  0  0  0  0  0  0  0  0
  189.8460  177.5100  141.9800 C   0  0  1  0  0  3  0  0  0  0  0  0
  191.0110  177.0370  142.8580 C   0  0  2  0  0  3  0  0  0  0  0  0
  189.9080  176.8470  140.7440 O   0  0  0  0  0  0  0  0  0  0  0  0
  188.3900  178.2890  143.9000 C   0  0  0  0  0  2  0  0  0  0  0  0
  2  1  1  6  0  0  0
  2 29  1  0  0  0  0
  3  2  1  0  0  0  0
  4  3  2  0  0  0  0
  5  4  1  0  0  0  0
  6  5  1  0  0  0  0
  7 11  1  0  0  0  0
  7  9  2  0  0  0  0
  8 13  1  1  0  0  0
  8 10  1  0  0  0  0
  9 12  1  0  0  0  0
 11  8  1  0  0  0  0
 12 16  1  6  0  0  0
 12 10  1  0  0  0  0
 12  6  1  0  0  0  0
 13 14  1  0  0  0  0
 15 13  1  0  0  0  0
 15 14  1  0  0  0  0
 18 17  2  0  0  0  0
 20 16  1  6  0  0  0
 20 22  1  0  0  0  0
 21 20  1  0  0  0  0
 21 18  1  0  0  0  0
 22 19  2  0  0  0  0
 23 24  1  6  0  0  0
 23 22  1  0  0  0  0
 23 17  1  0  0  0  0
 24 28  1  0  0  0  0
 25 28  1  0  0  0  0
 27 28  1  0  0  0  0
 28 26  1  0  0  0  0
 29 30  1  1  0  0  0
 29 31  1  0  0  0  0
 31 32  1  0  0  0  0
 32 33  1  0  0  0  0
 33 35  1  0  0  0  0
 34 35  2  0  0  0  0
 34 36  1  0  0  0  0
 37 42  1  6  0  0  0
 37 36  1  0  0  0  0
 37 39  1  0  0  0  0
 39 40  1  0  0  0  0
 40 38  1  0  0  0  0
 41 40  2  0  0  0  0
 43 49  1  1  0  0  0
 43 55  1  0  0  0  0
 45 42  1  6  0  0  0
 46 54  1  0  0  0  0
 46 50  1  0  0  0  0
 47 48  2  0  0  0  0
 48 45  1  0  0  0  0
 48 44  2  0  0  0  0
 50 51  1  0  0  0  0
 52 54  1  6  0  0  0
 52 43  1  0  0  0  0
 52 53  1  0  0  0  0
 53 51  1  6  0  0  0
 53 48  1  0  0  0  0
 55 45  1  0  0  0  0
M  END
>  <MODEL>
4

>  <REMARK>
 VINA RESULT:      -6.7      2.397      3.257
  Name = 
  19 active torsions:
  status: ('A' for Active; 'I' for Inactive)
    1  A    between atoms: C_2  and  C_44
    2  A    between atoms: C_6  and  C_46
    3  A    between atoms: N_8  and  C_22
    4  A    between atoms: C_10  and  N_32
    5  A    between atoms: C_17  and  O_36
    6  A    between atoms: O_19  and  C_40
    7  A    between atoms: O_19  and  C_45
    8  A    between atoms: C_22  and  C_35
    9  A    between atoms: C_22  and  C_46
   10  A    between atoms: C_24  and  C_31
   11  A    between atoms: C_24  and  C_44
   12  A    between atoms: C_27  and  C_31
   13  A    between atoms: C_27  and  C_54
   14  A    between atoms: C_28  and  C_49
   15  A    between atoms: O_33  and  C_49
   16  A    between atoms: O_33  and  C_52
   17  A    between atoms: C_35  and  C_43
   18  A    between atoms: O_36  and  C_52
   19  A    between atoms: C_51  and  C_54
                            x       y       z     vdW  Elec       q    Type
                         _______ _______ _______ _____ _____    ______ ____

>  <TORSDO>
F 19

$$$$
=
 OpenBabel10272401303D

 55 59  0  0  1  0  0  0  0  0999 V2000
  187.8360  177.6290  148.4600 O   0  0  0  0  0  1  0  0  0  0  0  0
  187.3220  178.2910  147.3430 C   0  0  1  0  0  3  0  0  0  0  0  0
  187.2850  177.3270  146.1980 C   0  0  0  0  0  3  0  0  0  0  0  0
  187.7430  177.6560  144.9900 C   0  0  0  0  0  3  0  0  0  0  0  0
  187.6830  176.6630  143.8820 C   0  0  0  0  0  2  0  0  0  0  0  0
  188.3240  177.1850  142.7410 O   0  0  0  0  0  0  0  0  0  0  0  0
  191.2140  179.0570  143.6110 C   0  0  0  0  0  3  0  0  0  0  0  0
  191.4820  176.8230  144.6130 N   0  0  1  0  0  0  0  0  0  0  0  0
  190.2620  178.5690  142.8080 C   0  0  0  0  0  3  0  0  0  0  0  0
  190.0530  176.6590  144.3550 C   0  0  0  0  0  2  0  0  0  0  0  0
  191.7400  178.2550  144.7760 C   0  0  0  0  0  2  0  0  0  0  0  0
  189.7280  177.1490  142.9300 C   0  0  1  0  0  0  0  0  0  0  0  0
  191.7710  176.1950  145.8950 C   0  0  0  0  0  3  0  0  0  0  0  0
  191.3630  177.1200  147.0320 C   0  0  0  0  0  2  0  0  0  0  0  0
  190.4680  175.9570  146.6440 C   0  0  0  0  0  2  0  0  0  0  0  0
  190.3600  176.2480  142.0110 O   0  0  0  0  0  0  0  0  0  0  0  0
  192.6070  177.1090  138.5070 C   0  0  0  0  0  3  0  0  0  0  0  0
  193.1700  177.3620  139.7010 C   0  0  0  0  0  3  0  0  0  0  0  0
  189.2520  176.3960  139.4240 O   0  0  0  0  0  0  0  0  0  0  0  0
  191.0440  176.8490  140.9160 C   0  0  1  0  0  3  0  0  0  0  0  0
  192.5810  176.7840  140.9570 C   0  0  0  0  0  2  0  0  0  0  0  0
  190.4640  176.4810  139.5680 C   0  0  0  0  0  0  0  0  0  0  0  0
  191.3770  176.2450  138.3880 C   0  0  2  0  0  3  0  0  0  0  0  0
  191.7630  174.8930  138.3400 O   0  0  0  0  0  0  0  0  0  0  0  0
  192.1430  173.3500  136.7200 F   0  0  0  0  0  0  0  0  0  0  0  0
  191.1350  175.2720  136.1470 F   0  0  0  0  0  0  0  0  0  0  0  0
  190.0320  173.7210  137.3800 F   0  0  0  0  0  0  0  0  0  0  0  0
  191.2580  174.3210  137.1510 C   0  0  0  0  0  0  0  0  0  0  0  0
  185.9250  178.8390  147.6530 C   0  0  1  0  0  3  0  0  0  0  0  0
  185.8900  180.2180  147.4400 O   0  0  0  0  0  1  0  0  0  0  0  0
  184.8960  178.1760  146.7510 C   0  0  0  0  0  2  0  0  0  0  0  0
  184.3730  179.1660  145.7230 C   0  0  0  0  0  2  0  0  0  0  0  0
  183.8970  178.4210  144.4890 C   0  0  0  0  0  2  0  0  0  0  0  0
  184.5300  178.4010  142.1210 C   0  0  0  0  0  3  0  0  0  0  0  0
  184.4440  179.0720  143.2660 C   0  0  0  0  0  3  0  0  0  0  0  0
  185.0590  179.0680  140.8910 C   0  0  0  0  0  2  0  0  0  0  0  0
  184.0800  178.9320  139.7240 C   0  0  2  0  0  3  0  0  0  0  0  0
  180.5360  179.8920  139.9830 O   0  0  0  0  0  1  0  0  0  0  0  0
  182.7040  179.0700  140.1880 N   0  0  0  0  0  2  0  0  0  0  0  0
  181.6960  179.8170  139.5010 C   0  0  0  0  0  0  0  0  0  0  0  0
  181.9830  180.4570  138.3030 O   0  0  0  0  0  0  0  0  0  0  0  0
  184.2690  177.6170  138.9740 C   0  0  0  0  0  2  0  0  0  0  0  0
  184.0320  175.4790  136.5330 C   0  0  2  0  0  3  0  0  0  0  0  0
  187.1380  178.2440  138.1340 O   0  0  0  0  0  0  0  0  0  0  0  0
  184.5090  177.8690  137.4930 C   0  0  1  0  0  3  0  0  0  0  0  0
  186.9740  174.0790  134.8500 C   0  0  0  0  0  2  0  0  0  0  0  0
  186.5250  178.3600  135.7570 O   0  0  0  0  0  0  0  0  0  0  0  0
  186.2420  177.6780  137.0660 S   0  0  0  0  0  0  0  0  0  0  0  0
  183.8550  174.7290  137.8470 C   0  0  0  0  0  1  0  0  0  0  0  0
  187.9430  175.2350  135.2160 C   0  0  0  0  0  2  0  0  0  0  0  0
  187.8410  175.5950  136.5800 O   0  0  0  0  0  0  0  0  0  0  0  0
  185.4460  175.3530  135.9650 C   0  0  1  0  0  3  0  0  0  0  0  0
  186.5010  175.9300  136.9180 C   0  0  2  0  0  3  0  0  0  0  0  0
  185.7970  174.0320  135.6430 O   0  0  0  0  0  0  0  0  0  0  0  0
  183.6060  176.9580  136.6340 C   0  0  0  0  0  2  0  0  0  0  0  0
  2 29  1  0  0  0  0
  2  1  1  1  0  0  0
  3  2  1  0  0  0  0
  4  3  2  0  0  0  0
  5  4  1  0  0  0  0
  6 12  1  0  0  0  0
  6  5  1  0  0  0  0
  7 11  1  0  0  0  0
  8 11  1  0  0  0  0
  8 13  1  1  0  0  0
  9 12  1  0  0  0  0
  9  7  2  0  0  0  0
 10  8  1  0  0  0  0
 12 16  1  6  0  0  0
 12 10  1  0  0  0  0
 13 15  1  0  0  0  0
 13 14  1  0  0  0  0
 15 14  1  0  0  0  0
 17 18  2  0  0  0  0
 18 21  1  0  0  0  0
 19 22  2  0  0  0  0
 20 21  1  0  0  0  0
 20 16  1  1  0  0  0
 22 20  1  0  0  0  0
 23 24  1  1  0  0  0
 23 17  1  0  0  0  0
 23 22  1  0  0  0  0
 25 28  1  0  0  0  0
 26 28  1  0  0  0  0
 28 27  1  0  0  0  0
 28 24  1  0  0  0  0
 29 30  1  6  0  0  0
 31 29  1  0  0  0  0
 32 31  1  0  0  0  0
 33 32  1  0  0  0  0
 34 35  2  0  0  0  0
 35 33  1  0  0  0  0
 36 34  1  0  0  0  0
 37 42  1  1  0  0  0
 37 39  1  0  0  0  0
 37 36  1  0  0  0  0
 40 38  1  0  0  0  0
 40 39  1  0  0  0  0
 41 40  2  0  0  0  0
 43 55  1  0  0  0  0
 43 49  1  1  0  0  0
 45 42  1  1  0  0  0
 46 50  1  0  0  0  0
 46 54  1  0  0  0  0
 47 48  2  0  0  0  0
 48 45  1  0  0  0  0
 48 44  2  0  0  0  0
 50 51  1  0  0  0  0
 52 54  1  1  0  0  0
 52 43  1  0  0  0  0
 52 53  1  0  0  0  0
 53 51  1  6  0  0  0
 53 48  1  0  0  0  0
 55 45  1  0  0  0  0
M  END
>  <MODEL>
5

>  <REMARK>
 VINA RESULT:      -6.4      3.305      8.467
  Name = 
  19 active torsions:
  status: ('A' for Active; 'I' for Inactive)
    1  A    between atoms: C_2  and  C_44
    2  A    between atoms: C_6  and  C_46
    3  A    between atoms: N_8  and  C_22
    4  A    between atoms: C_10  and  N_32
    5  A    between atoms: C_17  and  O_36
    6  A    between atoms: O_19  and  C_40
    7  A    between atoms: O_19  and  C_45
    8  A    between atoms: C_22  and  C_35
    9  A    between atoms: C_22  and  C_46
   10  A    between atoms: C_24  and  C_31
   11  A    between atoms: C_24  and  C_44
   12  A    between atoms: C_27  and  C_31
   13  A    between atoms: C_27  and  C_54
   14  A    between atoms: C_28  and  C_49
   15  A    between atoms: O_33  and  C_49
   16  A    between atoms: O_33  and  C_52
   17  A    between atoms: C_35  and  C_43
   18  A    between atoms: O_36  and  C_52
   19  A    between atoms: C_51  and  C_54
                            x       y       z     vdW  Elec       q    Type
                         _______ _______ _______ _____ _____    ______ ____

>  <TORSDO>
F 19

$$$$
=
 OpenBabel10272401303D

 55 59  0  0  1  0  0  0  0  0999 V2000
  186.1090  179.1800  141.9260 O   0  0  0  0  0  1  0  0  0  0  0  0
  184.8590  179.3480  142.5250 C   0  0  1  0  0  3  0  0  0  0  0  0
  183.8060  179.1890  141.4710 C   0  0  0  0  0  3  0  0  0  0  0  0
  182.7980  178.3290  141.6140 C   0  0  0  0  0  3  0  0  0  0  0  0
  181.7760  178.2040  140.5380 C   0  0  0  0  0  2  0  0  0  0  0  0
  182.2770  177.3960  139.4990 O   0  0  0  0  0  0  0  0  0  0  0  0
  180.2540  177.8140  136.6110 C   0  0  0  0  0  3  0  0  0  0  0  0
  181.1270  180.0400  137.1990 N   0  0  1  0  0  0  0  0  0  0  0  0
  181.1940  177.2550  137.3820 C   0  0  0  0  0  3  0  0  0  0  0  0
  181.4660  179.4430  138.4890 C   0  0  0  0  0  2  0  0  0  0  0  0
  179.9890  179.2980  136.6550 C   0  0  0  0  0  2  0  0  0  0  0  0
  182.1300  178.0710  138.2610 C   0  0  1  0  0  0  0  0  0  0  0  0
  180.6610  181.3970  137.4530 C   0  0  0  0  0  3  0  0  0  0  0  0
  180.6400  181.6700  138.9490 C   0  0  0  0  0  2  0  0  0  0  0  0
  181.7800  182.2000  138.0990 C   0  0  0  0  0  2  0  0  0  0  0  0
  183.3990  178.3060  137.6360 O   0  0  0  0  0  0  0  0  0  0  0  0
  186.4860  175.4910  136.8500 C   0  0  0  0  0  3  0  0  0  0  0  0
  185.2190  175.1420  136.5650 C   0  0  0  0  0  3  0  0  0  0  0  0
  186.0140  178.5060  138.6650 O   0  0  0  0  0  0  0  0  0  0  0  0
  184.3090  177.2110  137.6380 C   0  0  1  0  0  3  0  0  0  0  0  0
  184.1380  176.1840  136.5040 C   0  0  0  0  0  2  0  0  0  0  0  0
  185.7470  177.6240  137.8610 C   0  0  0  0  0  0  0  0  0  0  0  0
  186.8610  176.9280  137.1150 C   0  0  2  0  0  3  0  0  0  0  0  0
  187.1010  177.5780  135.8900 O   0  0  0  0  0  0  0  0  0  0  0  0
  188.7870  178.9990  136.4270 F   0  0  0  0  0  0  0  0  0  0  0  0
  188.8620  177.9560  134.4400 F   0  0  0  0  0  0  0  0  0  0  0  0
  189.2140  176.7980  136.3580 F   0  0  0  0  0  0  0  0  0  0  0  0
  188.4880  177.8190  135.7710 C   0  0  0  0  0  0  0  0  0  0  0  0
  184.6740  178.3290  143.6530 C   0  0  1  0  0  3  0  0  0  0  0  0
  185.5400  177.2500  143.4760 O   0  0  0  0  0  1  0  0  0  0  0  0
  184.9690  178.9800  144.9950 C   0  0  0  0  0  2  0  0  0  0  0  0
  185.6620  177.9970  145.9230 C   0  0  0  0  0  2  0  0  0  0  0  0
  185.9380  178.6600  147.2610 C   0  0  0  0  0  2  0  0  0  0  0  0
  188.3890  178.6570  147.2320 C   0  0  0  0  0  3  0  0  0  0  0  0
  187.2610  178.2150  147.7800 C   0  0  0  0  0  3  0  0  0  0  0  0
  189.7140  178.2230  147.7730 C   0  0  0  0  0  2  0  0  0  0  0  0
  190.3870  177.2110  146.8430 C   0  0  2  0  0  3  0  0  0  0  0  0
  193.4590  175.7140  148.2080 O   0  0  0  0  0  1  0  0  0  0  0  0
  191.7740  176.9920  147.2370 N   0  0  0  0  0  2  0  0  0  0  0  0
  192.2450  175.8120  147.8930 C   0  0  0  0  0  0  0  0  0  0  0  0
  191.3760  174.7680  148.1820 O   0  0  0  0  0  0  0  0  0  0  0  0
  190.3000  177.6400  145.3800 C   0  0  0  0  0  2  0  0  0  0  0  0
  192.0900  177.3160  142.6830 C   0  0  2  0  0  3  0  0  0  0  0  0
  187.7850  176.9700  143.7820 O   0  0  0  0  0  0  0  0  0  0  0  0
  190.3780  176.4330  144.4580 C   0  0  1  0  0  3  0  0  0  0  0  0
  190.6250  177.4340  139.3240 C   0  0  0  0  0  2  0  0  0  0  0  0
  188.8920  175.1050  142.6280 O   0  0  0  0  0  0  0  0  0  0  0  0
  189.0870  176.4760  143.2110 S   0  0  0  0  0  0  0  0  0  0  0  0
  192.2220  178.7510  143.1770 C   0  0  0  0  0  1  0  0  0  0  0  0
  189.1890  177.0300  139.7520 C   0  0  0  0  0  2  0  0  0  0  0  0
  188.7560  177.7520  140.8890 O   0  0  0  0  0  0  0  0  0  0  0  0
  191.0820  177.1720  141.5420 C   0  0  1  0  0  3  0  0  0  0  0  0
  189.6700  177.5960  141.9670 C   0  0  2  0  0  3  0  0  0  0  0  0
  191.4450  177.8870  140.3900 O   0  0  0  0  0  0  0  0  0  0  0  0
  191.7800  176.3240  143.8240 C   0  0  0  0  0  2  0  0  0  0  0  0
  2  1  1  6  0  0  0
  2 29  1  0  0  0  0
  3  4  2  0  0  0  0
  3  2  1  0  0  0  0
  5  4  1  0  0  0  0
  6  5  1  0  0  0  0
  7 11  1  0  0  0  0
  7  9  2  0  0  0  0
  8 13  1  1  0  0  0
  8 10  1  0  0  0  0
  9 12  1  0  0  0  0
 11  8  1  0  0  0  0
 12 16  1  6  0  0  0
 12 10  1  0  0  0  0
 12  6  1  0  0  0  0
 13 15  1  0  0  0  0
 13 14  1  0  0  0  0
 15 14  1  0  0  0  0
 17 23  1  0  0  0  0
 18 17  2  0  0  0  0
 20 16  1  6  0  0  0
 20 22  1  0  0  0  0
 21 18  1  0  0  0  0
 21 20  1  0  0  0  0
 22 19  2  0  0  0  0
 23 24  1  6  0  0  0
 23 22  1  0  0  0  0
 26 28  1  0  0  0  0
 28 24  1  0  0  0  0
 28 27  1  0  0  0  0
 28 25  1  0  0  0  0
 29 30  1  6  0  0  0
 29 31  1  0  0  0  0
 31 32  1  0  0  0  0
 32 33  1  0  0  0  0
 33 35  1  0  0  0  0
 34 36  1  0  0  0  0
 34 35  2  0  0  0  0
 37 42  1  6  0  0  0
 37 39  1  0  0  0  0
 37 36  1  0  0  0  0
 39 40  1  0  0  0  0
 40 41  2  0  0  0  0
 40 38  1  0  0  0  0
 43 49  1  1  0  0  0
 43 55  1  0  0  0  0
 45 42  1  6  0  0  0
 46 50  1  0  0  0  0
 46 54  1  0  0  0  0
 47 48  2  0  0  0  0
 48 44  2  0  0  0  0
 48 45  1  0  0  0  0
 50 51  1  0  0  0  0
 52 54  1  6  0  0  0
 52 53  1  0  0  0  0
 52 43  1  0  0  0  0
 53 51  1  6  0  0  0
 53 48  1  0  0  0  0
 55 45  1  0  0  0  0
M  END
>  <MODEL>
6

>  <REMARK>
 VINA RESULT:      -6.0      2.919      4.990
  Name = 
  19 active torsions:
  status: ('A' for Active; 'I' for Inactive)
    1  A    between atoms: C_2  and  C_44
    2  A    between atoms: C_6  and  C_46
    3  A    between atoms: N_8  and  C_22
    4  A    between atoms: C_10  and  N_32
    5  A    between atoms: C_17  and  O_36
    6  A    between atoms: O_19  and  C_40
    7  A    between atoms: O_19  and  C_45
    8  A    between atoms: C_22  and  C_35
    9  A    between atoms: C_22  and  C_46
   10  A    between atoms: C_24  and  C_31
   11  A    between atoms: C_24  and  C_44
   12  A    between atoms: C_27  and  C_31
   13  A    between atoms: C_27  and  C_54
   14  A    between atoms: C_28  and  C_49
   15  A    between atoms: O_33  and  C_49
   16  A    between atoms: O_33  and  C_52
   17  A    between atoms: C_35  and  C_43
   18  A    between atoms: O_36  and  C_52
   19  A    between atoms: C_51  and  C_54
                            x       y       z     vdW  Elec       q    Type
                         _______ _______ _______ _____ _____    ______ ____

>  <TORSDO>
F 19

$$$$
=
 OpenBabel10272401303D

 55 59  0  0  1  0  0  0  0  0999 V2000
  191.6090  177.3150  140.3680 O   0  0  0  0  0  1  0  0  0  0  0  0
  191.4580  177.2950  138.9800 C   0  0  1  0  0  3  0  0  0  0  0  0
  192.2940  176.1800  138.4310 C   0  0  0  0  0  3  0  0  0  0  0  0
  193.4540  176.4120  137.8170 C   0  0  0  0  0  3  0  0  0  0  0  0
  194.2500  175.2710  137.2850 C   0  0  0  0  0  2  0  0  0  0  0  0
  193.5710  174.0620  137.5360 O   0  0  0  0  0  0  0  0  0  0  0  0
  195.4150  173.1750  134.6340 C   0  0  0  0  0  3  0  0  0  0  0  0
  194.3990  171.1030  135.4950 N   0  0  1  0  0  0  0  0  0  0  0  0
  194.5600  173.8880  135.3760 C   0  0  0  0  0  3  0  0  0  0  0  0
  194.1700  171.8590  136.7250 C   0  0  0  0  0  2  0  0  0  0  0  0
  195.5640  171.6870  134.8290 C   0  0  0  0  0  2  0  0  0  0  0  0
  193.6050  173.2510  136.3740 C   0  0  1  0  0  0  0  0  0  0  0  0
  194.7680  169.7470  135.8770 C   0  0  0  0  0  3  0  0  0  0  0  0
  194.0310  169.3430  137.1450 C   0  0  0  0  0  2  0  0  0  0  0  0
  193.5420  168.8500  135.7950 C   0  0  0  0  0  2  0  0  0  0  0  0
  192.2940  173.0570  135.8280 O   0  0  0  0  0  0  0  0  0  0  0  0
  189.2260  175.9130  135.1190 C   0  0  0  0  0  3  0  0  0  0  0  0
  190.3490  175.9900  134.3840 C   0  0  0  0  0  3  0  0  0  0  0  0
  190.1350  173.5200  137.5790 O   0  0  0  0  0  0  0  0  0  0  0  0
  191.4730  174.2180  135.7460 C   0  0  1  0  0  3  0  0  0  0  0  0
  191.3140  174.8390  134.3460 C   0  0  0  0  0  2  0  0  0  0  0  0
  190.1660  174.0860  136.4960 C   0  0  0  0  0  0  0  0  0  0  0  0
  188.9000  174.6790  135.9240 C   0  0  2  0  0  3  0  0  0  0  0  0
  188.2590  173.7410  135.0940 O   0  0  0  0  0  0  0  0  0  0  0  0
  186.0740  173.9960  134.5400 F   0  0  0  0  0  0  0  0  0  0  0  0
  186.6810  174.3410  136.6740 F   0  0  0  0  0  0  0  0  0  0  0  0
  186.6650  172.2450  135.8100 F   0  0  0  0  0  0  0  0  0  0  0  0
  186.9300  173.5760  135.5420 C   0  0  0  0  0  0  0  0  0  0  0  0
  189.9820  177.1140  138.6140 C   0  0  1  0  0  3  0  0  0  0  0  0
  189.3700  176.2260  139.4990 O   0  0  0  0  0  1  0  0  0  0  0  0
  189.2620  178.4500  138.6830 C   0  0  0  0  0  2  0  0  0  0  0  0
  188.2360  178.4460  139.8050 C   0  0  0  0  0  2  0  0  0  0  0  0
  186.8500  178.2120  139.2330 C   0  0  0  0  0  2  0  0  0  0  0  0
  186.1750  179.0870  141.4210 C   0  0  0  0  0  3  0  0  0  0  0  0
  185.8190  178.6380  140.2200 C   0  0  0  0  0  3  0  0  0  0  0  0
  185.1360  179.5340  142.4000 C   0  0  0  0  0  2  0  0  0  0  0  0
  184.9350  178.4980  143.5060 C   0  0  2  0  0  3  0  0  0  0  0  0
  181.3420  178.9710  144.1470 O   0  0  0  0  0  1  0  0  0  0  0  0
  183.6530  178.6970  144.1720 N   0  0  0  0  0  2  0  0  0  0  0  0
  182.3990  178.7850  143.4900 C   0  0  0  0  0  0  0  0  0  0  0  0
  182.3360  178.6620  142.1090 O   0  0  0  0  0  0  0  0  0  0  0  0
  186.0800  178.5170  144.5160 C   0  0  0  0  0  2  0  0  0  0  0  0
  187.5830  177.1670  147.0670 C   0  0  2  0  0  3  0  0  0  0  0  0
  188.6250  178.1980  142.8580 O   0  0  0  0  0  0  0  0  0  0  0  0
  186.7700  177.1630  144.5760 C   0  0  1  0  0  3  0  0  0  0  0  0
  191.2350  176.9400  147.3040 C   0  0  0  0  0  2  0  0  0  0  0  0
  188.9870  175.9070  143.6670 O   0  0  0  0  0  0  0  0  0  0  0  0
  188.4780  177.2720  144.0350 S   0  0  0  0  0  0  0  0  0  0  0  0
  187.1860  178.5910  147.4410 C   0  0  0  0  0  1  0  0  0  0  0  0
  191.5090  177.0250  145.7780 C   0  0  0  0  0  2  0  0  0  0  0  0
  190.7630  178.0610  145.1680 O   0  0  0  0  0  0  0  0  0  0  0  0
  189.0510  177.0500  146.6560 C   0  0  1  0  0  3  0  0  0  0  0  0
  189.3740  177.9080  145.4270 C   0  0  2  0  0  3  0  0  0  0  0  0
  189.9420  177.3820  147.6900 O   0  0  0  0  0  0  0  0  0  0  0  0
  186.6580  176.5590  145.9920 C   0  0  0  0  0  2  0  0  0  0  0  0
  2  1  1  1  0  0  0
  3  2  1  0  0  0  0
  4  3  2  0  0  0  0
  5  6  1  0  0  0  0
  5  4  1  0  0  0  0
  7 11  1  0  0  0  0
  7  9  2  0  0  0  0
  8 13  1  1  0  0  0
  8 10  1  0  0  0  0
  9 12  1  0  0  0  0
 11  8  1  0  0  0  0
 12 16  1  6  0  0  0
 12 10  1  0  0  0  0
 12  6  1  0  0  0  0
 13 14  1  0  0  0  0
 15 13  1  0  0  0  0
 15 14  1  0  0  0  0
 17 23  1  0  0  0  0
 18 17  2  0  0  0  0
 20 16  1  6  0  0  0
 20 22  1  0  0  0  0
 21 18  1  0  0  0  0
 21 20  1  0  0  0  0
 22 19  2  0  0  0  0
 23 24  1  6  0  0  0
 23 22  1  0  0  0  0
 24 28  1  0  0  0  0
 25 28  1  0  0  0  0
 28 27  1  0  0  0  0
 28 26  1  0  0  0  0
 29 31  1  0  0  0  0
 29  2  1  0  0  0  0
 29 30  1  1  0  0  0
 31 32  1  0  0  0  0
 33 32  1  0  0  0  0
 33 35  1  0  0  0  0
 34 36  1  0  0  0  0
 35 34  2  0  0  0  0
 37 36  1  6  0  0  0
 37 39  1  0  0  0  0
 37 42  1  0  0  0  0
 40 38  1  0  0  0  0
 40 39  1  0  0  0  0
 41 40  2  0  0  0  0
 43 49  1  6  0  0  0
 44 48  2  0  0  0  0
 45 42  1  1  0  0  0
 45 55  1  0  0  0  0
 46 54  1  0  0  0  0
 47 48  2  0  0  0  0
 48 45  1  0  0  0  0
 48 53  1  0  0  0  0
 50 46  1  0  0  0  0
 51 50  1  0  0  0  0
 52 43  1  0  0  0  0
 52 54  1  1  0  0  0
 53 51  1  6  0  0  0
 53 52  1  0  0  0  0
 55 43  1  0  0  0  0
M  END
>  <MODEL>
7

>  <REMARK>
 VINA RESULT:      -6.0      3.451      6.615
  Name = 
  19 active torsions:
  status: ('A' for Active; 'I' for Inactive)
    1  A    between atoms: C_2  and  C_44
    2  A    between atoms: C_6  and  C_46
    3  A    between atoms: N_8  and  C_22
    4  A    between atoms: C_10  and  N_32
    5  A    between atoms: C_17  and  O_36
    6  A    between atoms: O_19  and  C_40
    7  A    between atoms: O_19  and  C_45
    8  A    between atoms: C_22  and  C_35
    9  A    between atoms: C_22  and  C_46
   10  A    between atoms: C_24  and  C_31
   11  A    between atoms: C_24  and  C_44
   12  A    between atoms: C_27  and  C_31
   13  A    between atoms: C_27  and  C_54
   14  A    between atoms: C_28  and  C_49
   15  A    between atoms: O_33  and  C_49
   16  A    between atoms: O_33  and  C_52
   17  A    between atoms: C_35  and  C_43
   18  A    between atoms: O_36  and  C_52
   19  A    between atoms: C_51  and  C_54
                            x       y       z     vdW  Elec       q    Type
                         _______ _______ _______ _____ _____    ______ ____

>  <TORSDO>
F 19

$$$$
=
 OpenBabel10272401303D

 55 59  0  0  1  0  0  0  0  0999 V2000
  187.2010  178.0890  141.9450 O   0  0  0  0  0  1  0  0  0  0  0  0
  186.7950  179.0440  141.0100 C   0  0  1  0  0  3  0  0  0  0  0  0
  187.0270  178.4900  139.6380 C   0  0  0  0  0  3  0  0  0  0  0  0
  188.0250  177.6440  139.3850 C   0  0  0  0  0  3  0  0  0  0  0  0
  188.2170  177.1220  138.0030 C   0  0  0  0  0  2  0  0  0  0  0  0
  186.9720  176.7500  137.4590 O   0  0  0  0  0  0  0  0  0  0  0  0
  188.9960  176.7510  134.5410 C   0  0  0  0  0  3  0  0  0  0  0  0
  188.3290  174.4150  134.9470 N   0  0  1  0  0  0  0  0  0  0  0  0
  188.0180  177.1590  135.3580 C   0  0  0  0  0  3  0  0  0  0  0  0
  187.9520  174.8720  136.2830 C   0  0  0  0  0  2  0  0  0  0  0  0
  189.3920  175.2970  134.4620 C   0  0  0  0  0  2  0  0  0  0  0  0
  187.1670  176.1940  136.1700 C   0  0  1  0  0  0  0  0  0  0  0  0
  188.9160  173.0890  135.0880 C   0  0  0  0  0  3  0  0  0  0  0  0
  188.4530  172.4490  136.3880 C   0  0  0  0  0  2  0  0  0  0  0  0
  187.8090  172.0450  135.0740 C   0  0  0  0  0  2  0  0  0  0  0  0
  185.9180  175.8990  135.5310 O   0  0  0  0  0  0  0  0  0  0  0  0
  181.9690  176.4740  136.9970 C   0  0  0  0  0  3  0  0  0  0  0  0
  182.5420  177.4730  136.3050 C   0  0  0  0  0  3  0  0  0  0  0  0
  184.7090  174.2690  137.4870 O   0  0  0  0  0  0  0  0  0  0  0  0
  184.7450  176.2900  136.2390 C   0  0  1  0  0  3  0  0  0  0  0  0
  183.7780  177.2220  135.4880 C   0  0  0  0  0  2  0  0  0  0  0  0
  184.0510  175.1400  136.9350 C   0  0  0  0  0  0  0  0  0  0  0  0
  182.5430  175.0780  136.9780 C   0  0  2  0  0  3  0  0  0  0  0  0
  182.0550  174.3930  135.8490 O   0  0  0  0  0  0  0  0  0  0  0  0
  181.2470  173.3030  137.6670 F   0  0  0  0  0  0  0  0  0  0  0  0
  181.9090  172.0860  135.9000 F   0  0  0  0  0  0  0  0  0  0  0  0
  180.0160  173.3300  135.7920 F   0  0  0  0  0  0  0  0  0  0  0  0
  181.3080  173.2780  136.2860 C   0  0  0  0  0  0  0  0  0  0  0  0
  185.3190  179.3950  141.2250 C   0  0  1  0  0  3  0  0  0  0  0  0
  184.6890  179.6030  139.9980 O   0  0  0  0  0  1  0  0  0  0  0  0
  184.6160  178.2590  141.9510 C   0  0  0  0  0  2  0  0  0  0  0  0
  183.8600  178.7870  143.1600 C   0  0  0  0  0  2  0  0  0  0  0  0
  184.7680  179.6840  143.9820 C   0  0  0  0  0  2  0  0  0  0  0  0
  186.1920  178.1980  145.3130 C   0  0  0  0  0  3  0  0  0  0  0  0
  185.1330  179.0010  145.2540 C   0  0  0  0  0  3  0  0  0  0  0  0
  186.5660  177.5320  146.5990 C   0  0  0  0  0  2  0  0  0  0  0  0
  187.9620  176.9120  146.5150 C   0  0  2  0  0  3  0  0  0  0  0  0
  189.7140  178.3810  149.3990 O   0  0  0  0  0  1  0  0  0  0  0  0
  188.6750  177.0760  147.7770 N   0  0  0  0  0  2  0  0  0  0  0  0
  189.0920  178.3370  148.3060 C   0  0  0  0  0  0  0  0  0  0  0  0
  188.8130  179.5150  147.6270 O   0  0  0  0  0  0  0  0  0  0  0  0
  188.7710  177.4900  145.3570 C   0  0  0  0  0  2  0  0  0  0  0  0
  191.6480  178.2750  144.0560 C   0  0  2  0  0  3  0  0  0  0  0  0
  188.2330  175.6080  143.0120 O   0  0  0  0  0  0  0  0  0  0  0  0
  189.8990  176.5480  144.9630 C   0  0  1  0  0  3  0  0  0  0  0  0
  192.4390  177.6800  140.5250 C   0  0  0  0  0  2  0  0  0  0  0  0
  190.5070  174.6830  143.1010 O   0  0  0  0  0  0  0  0  0  0  0  0
  189.6780  175.9200  143.2960 S   0  0  0  0  0  0  0  0  0  0  0  0
  190.7940  179.5350  144.1290 C   0  0  0  0  0  1  0  0  0  0  0  0
  191.4010  176.5460  140.3090 C   0  0  0  0  0  2  0  0  0  0  0  0
  190.1360  176.8820  140.8470 O   0  0  0  0  0  0  0  0  0  0  0  0
  191.6500  177.6410  142.6640 C   0  0  1  0  0  3  0  0  0  0  0  0
  190.2440  177.2150  142.2250 C   0  0  2  0  0  3  0  0  0  0  0  0
  192.2030  178.4740  141.6790 O   0  0  0  0  0  0  0  0  0  0  0  0
  191.2680  177.2400  145.1350 C   0  0  0  0  0  2  0  0  0  0  0  0
  2 29  1  0  0  0  0
  2  1  1  1  0  0  0
  3  2  1  0  0  0  0
  4  3  2  0  0  0  0
  5  4  1  0  0  0  0
  6  5  1  0  0  0  0
  7  9  2  0  0  0  0
  8 13  1  1  0  0  0
  8 10  1  0  0  0  0
  9 12  1  0  0  0  0
 11  7  1  0  0  0  0
 11  8  1  0  0  0  0
 12 16  1  6  0  0  0
 12 10  1  0  0  0  0
 12  6  1  0  0  0  0
 13 14  1  0  0  0  0
 15 13  1  0  0  0  0
 15 14  1  0  0  0  0
 18 17  2  0  0  0  0
 20 16  1  6  0  0  0
 20 22  1  0  0  0  0
 21 20  1  0  0  0  0
 21 18  1  0  0  0  0
 22 23  1  0  0  0  0
 22 19  2  0  0  0  0
 23 24  1  6  0  0  0
 23 17  1  0  0  0  0
 24 28  1  0  0  0  0
 26 28  1  0  0  0  0
 27 28  1  0  0  0  0
 28 25  1  0  0  0  0
 29 30  1  6  0  0  0
 29 31  1  0  0  0  0
 31 32  1  0  0  0  0
 32 33  1  0  0  0  0
 33 35  1  0  0  0  0
 34 36  1  0  0  0  0
 35 34  2  0  0  0  0
 37 42  1  6  0  0  0
 37 36  1  0  0  0  0
 37 39  1  0  0  0  0
 39 40  1  0  0  0  0
 40 38  1  0  0  0  0
 41 40  2  0  0  0  0
 43 49  1  6  0  0  0
 43 55  1  0  0  0  0
 44 48  2  0  0  0  0
 45 55  1  0  0  0  0
 45 42  1  6  0  0  0
 46 54  1  0  0  0  0
 47 48  2  0  0  0  0
 48 45  1  0  0  0  0
 50 46  1  0  0  0  0
 50 51  1  0  0  0  0
 52 54  1  6  0  0  0
 52 43  1  0  0  0  0
 53 51  1  6  0  0  0
 53 52  1  0  0  0  0
 53 48  1  0  0  0  0
M  END
>  <MODEL>
8

>  <REMARK>
 VINA RESULT:      -5.7      1.669      2.253
  Name = 
  19 active torsions:
  status: ('A' for Active; 'I' for Inactive)
    1  A    between atoms: C_2  and  C_44
    2  A    between atoms: C_6  and  C_46
    3  A    between atoms: N_8  and  C_22
    4  A    between atoms: C_10  and  N_32
    5  A    between atoms: C_17  and  O_36
    6  A    between atoms: O_19  and  C_40
    7  A    between atoms: O_19  and  C_45
    8  A    between atoms: C_22  and  C_35
    9  A    between atoms: C_22  and  C_46
   10  A    between atoms: C_24  and  C_31
   11  A    between atoms: C_24  and  C_44
   12  A    between atoms: C_27  and  C_31
   13  A    between atoms: C_27  and  C_54
   14  A    between atoms: C_28  and  C_49
   15  A    between atoms: O_33  and  C_49
   16  A    between atoms: O_33  and  C_52
   17  A    between atoms: C_35  and  C_43
   18  A    between atoms: O_36  and  C_52
   19  A    between atoms: C_51  and  C_54
                            x       y       z     vdW  Elec       q    Type
                         _______ _______ _______ _____ _____    ______ ____

>  <TORSDO>
F 19

$$$$
=
 OpenBabel10272401303D

 55 59  0  0  1  0  0  0  0  0999 V2000
  186.8490  177.6860  141.7410 O   0  0  0  0  0  1  0  0  0  0  0  0
  186.5260  178.9180  141.1690 C   0  0  1  0  0  3  0  0  0  0  0  0
  186.6060  178.7840  139.6800 C   0  0  0  0  0  3  0  0  0  0  0  0
  187.0560  177.6710  139.1010 C   0  0  0  0  0  3  0  0  0  0  0  0
  187.1190  177.5850  137.6150 C   0  0  0  0  0  2  0  0  0  0  0  0
  185.8160  177.4960  137.0900 O   0  0  0  0  0  0  0  0  0  0  0  0
  187.6390  175.6920  134.6330 C   0  0  0  0  0  3  0  0  0  0  0  0
  186.1730  174.0710  135.7680 N   0  0  1  0  0  0  0  0  0  0  0  0
  186.8950  176.6900  135.1250 C   0  0  0  0  0  3  0  0  0  0  0  0
  186.0160  175.0990  136.7940 C   0  0  0  0  0  2  0  0  0  0  0  0
  187.4740  174.2780  135.1300 C   0  0  0  0  0  2  0  0  0  0  0  0
  185.7660  176.4630  136.1200 C   0  0  1  0  0  0  0  0  0  0  0  0
  186.2370  172.7820  136.4450 C   0  0  0  0  0  3  0  0  0  0  0  0
  185.4120  172.8230  137.7220 C   0  0  0  0  0  2  0  0  0  0  0  0
  184.8480  172.1620  136.4770 C   0  0  0  0  0  2  0  0  0  0  0  0
  184.4830  176.3990  135.4840 O   0  0  0  0  0  0  0  0  0  0  0  0
  181.5160  177.0640  138.4550 C   0  0  0  0  0  3  0  0  0  0  0  0
  182.3930  176.0640  138.6450 C   0  0  0  0  0  3  0  0  0  0  0  0
  182.1850  177.9830  135.0910 O   0  0  0  0  0  0  0  0  0  0  0  0
  183.3560  176.3470  136.3540 C   0  0  1  0  0  3  0  0  0  0  0  0
  183.6470  175.9850  137.8210 C   0  0  0  0  0  2  0  0  0  0  0  0
  182.4230  177.5280  136.2010 C   0  0  0  0  0  0  0  0  0  0  0  0
  181.7570  178.1310  137.4160 C   0  0  2  0  0  3  0  0  0  0  0  0
  182.5750  179.1360  137.9650 O   0  0  0  0  0  0  0  0  0  0  0  0
  181.1780  180.5960  136.9350 F   0  0  0  0  0  0  0  0  0  0  0  0
  182.5970  181.3890  138.4830 F   0  0  0  0  0  0  0  0  0  0  0  0
  180.8260  180.1120  139.0960 F   0  0  0  0  0  0  0  0  0  0  0  0
  181.8010  180.3050  138.1340 C   0  0  0  0  0  0  0  0  0  0  0  0
  185.1260  179.3530  141.6130 C   0  0  1  0  0  3  0  0  0  0  0  0
  184.4170  179.8740  140.5310 O   0  0  0  0  0  1  0  0  0  0  0  0
  184.3650  178.1620  142.1720 C   0  0  0  0  0  2  0  0  0  0  0  0
  183.8530  178.4660  143.5710 C   0  0  0  0  0  2  0  0  0  0  0  0
  184.7110  179.5420  144.2100 C   0  0  0  0  0  2  0  0  0  0  0  0
  186.3040  178.1850  145.4850 C   0  0  0  0  0  3  0  0  0  0  0  0
  185.2830  179.0370  145.4890 C   0  0  0  0  0  3  0  0  0  0  0  0
  186.8880  177.6980  146.7730 C   0  0  0  0  0  2  0  0  0  0  0  0
  188.2500  177.0380  146.5490 C   0  0  2  0  0  3  0  0  0  0  0  0
  189.7440  178.3990  149.6250 O   0  0  0  0  0  1  0  0  0  0  0  0
  189.1200  177.2490  147.7000 N   0  0  0  0  0  2  0  0  0  0  0  0
  188.9350  178.2850  148.6680 C   0  0  0  0  0  0  0  0  0  0  0  0
  187.8670  179.1650  148.5660 O   0  0  0  0  0  0  0  0  0  0  0  0
  188.9170  177.5340  145.2680 C   0  0  0  0  0  2  0  0  0  0  0  0
  191.7060  178.2660  143.7610 C   0  0  2  0  0  3  0  0  0  0  0  0
  188.2120  175.6030  143.0080 O   0  0  0  0  0  0  0  0  0  0  0  0
  190.0100  176.5750  144.8220 C   0  0  1  0  0  3  0  0  0  0  0  0
  192.2560  177.5850  140.2000 C   0  0  0  0  0  2  0  0  0  0  0  0
  190.4810  174.6620  142.9680 O   0  0  0  0  0  0  0  0  0  0  0  0
  189.6740  175.9100  143.1880 S   0  0  0  0  0  0  0  0  0  0  0  0
  190.8660  179.5340  143.8610 C   0  0  0  0  0  1  0  0  0  0  0  0
  191.1980  176.4540  140.0800 C   0  0  0  0  0  2  0  0  0  0  0  0
  189.9750  176.8120  140.6930 O   0  0  0  0  0  0  0  0  0  0  0  0
  191.6110  177.6000  142.3880 C   0  0  1  0  0  3  0  0  0  0  0  0
  190.1760  177.1760  142.0520 C   0  0  2  0  0  3  0  0  0  0  0  0
  192.1020  178.4060  141.3480 O   0  0  0  0  0  0  0  0  0  0  0  0
  191.3920  177.2590  144.8870 C   0  0  0  0  0  2  0  0  0  0  0  0
  2 29  1  0  0  0  0
  2  1  1  1  0  0  0
  3  2  1  0  0  0  0
  4  3  2  0  0  0  0
  5  4  1  0  0  0  0
  6  5  1  0  0  0  0
  7  9  2  0  0  0  0
  7 11  1  0  0  0  0
  8 13  1  1  0  0  0
  8 10  1  0  0  0  0
  9 12  1  0  0  0  0
 11  8  1  0  0  0  0
 12 16  1  6  0  0  0
 12 10  1  0  0  0  0
 12  6  1  0  0  0  0
 13 15  1  0  0  0  0
 13 14  1  0  0  0  0
 15 14  1  0  0  0  0
 17 18  2  0  0  0  0
 19 22  2  0  0  0  0
 20 16  1  6  0  0  0
 20 21  1  0  0  0  0
 21 18  1  0  0  0  0
 22 20  1  0  0  0  0
 22 23  1  0  0  0  0
 23 24  1  1  0  0  0
 23 17  1  0  0  0  0
 24 28  1  0  0  0  0
 25 28  1  0  0  0  0
 28 26  1  0  0  0  0
 28 27  1  0  0  0  0
 29 30  1  6  0  0  0
 29 31  1  0  0  0  0
 31 32  1  0  0  0  0
 32 33  1  0  0  0  0
 33 35  1  0  0  0  0
 34 35  2  0  0  0  0
 34 36  1  0  0  0  0
 37 42  1  6  0  0  0
 37 36  1  0  0  0  0
 37 39  1  0  0  0  0
 39 40  1  0  0  0  0
 40 38  1  0  0  0  0
 41 40  2  0  0  0  0
 43 49  1  6  0  0  0
 43 55  1  0  0  0  0
 44 48  2  0  0  0  0
 45 55  1  0  0  0  0
 45 42  1  6  0  0  0
 46 54  1  0  0  0  0
 47 48  2  0  0  0  0
 48 45  1  0  0  0  0
 50 46  1  0  0  0  0
 50 51  1  0  0  0  0
 52 54  1  6  0  0  0
 52 43  1  0  0  0  0
 53 51  1  6  0  0  0
 53 52  1  0  0  0  0
 53 48  1  0  0  0  0
M  END
>  <MODEL>
9

>  <REMARK>
 VINA RESULT:      -5.6      1.971      2.759
  Name = 
  19 active torsions:
  status: ('A' for Active; 'I' for Inactive)
    1  A    between atoms: C_2  and  C_44
    2  A    between atoms: C_6  and  C_46
    3  A    between atoms: N_8  and  C_22
    4  A    between atoms: C_10  and  N_32
    5  A    between atoms: C_17  and  O_36
    6  A    between atoms: O_19  and  C_40
    7  A    between atoms: O_19  and  C_45
    8  A    between atoms: C_22  and  C_35
    9  A    between atoms: C_22  and  C_46
   10  A    between atoms: C_24  and  C_31
   11  A    between atoms: C_24  and  C_44
   12  A    between atoms: C_27  and  C_31
   13  A    between atoms: C_27  and  C_54
   14  A    between atoms: C_28  and  C_49
   15  A    between atoms: O_33  and  C_49
   16  A    between atoms: O_33  and  C_52
   17  A    between atoms: C_35  and  C_43
   18  A    between atoms: O_36  and  C_52
   19  A    between atoms: C_51  and  C_54
                            x       y       z     vdW  Elec       q    Type
                         _______ _______ _______ _____ _____    ______ ____

>  <TORSDO>
F 19

$$$$
