=
 OpenBabel10272401133D

 27 30  0  0  1  0  0  0  0  0999 V2000
  187.4120  177.3620  142.5390 C   0  0  2  0  0  3  0  0  0  0  0  0
  187.1850  177.0150  143.8860 O   0  0  0  0  0  0  0  0  0  0  0  0
  189.4900  176.9270  143.4180 N   0  0  2  0  0  0  0  0  0  0  0  0
  191.0080  177.4190  141.1850 C   0  0  0  0  0  0  0  0  0  0  0  0
  190.7690  178.9610  144.1590 C   0  0  0  0  0  1  0  0  0  0  0  0
  191.6800  177.3960  140.1660 O   0  0  0  0  0  0  0  0  0  0  0  0
  188.8570  177.7380  142.4180 C   0  0  1  0  0  3  0  0  0  0  0  0
  188.4570  176.7450  144.4520 C   0  0  1  0  0  3  0  0  0  0  0  0
  191.7290  177.3380  142.5240 C   0  0  0  0  0  2  0  0  0  0  0  0
  189.1160  178.4590  140.1650 O   0  0  0  0  0  1  0  0  0  0  0  0
  189.4940  177.4600  141.0640 C   0  0  1  0  0  3  0  0  0  0  0  0
  190.8110  177.4880  143.7470 C   0  0  2  0  0  3  0  0  0  0  0  0
  187.7510  179.0440  147.5620 C   0  0  0  0  0  2  0  0  0  0  0  0
  188.7560  178.2510  148.4090 C   0  0  0  0  0  2  0  0  0  0  0  0
  188.6450  176.8780  148.1320 O   0  0  0  0  0  0  0  0  0  0  0  0
  188.6760  177.5430  145.7540 C   0  0  2  0  0  3  0  0  0  0  0  0
  189.2540  176.6520  146.8770 C   0  0  0  0  0  2  0  0  0  0  0  0
  187.4430  178.3380  146.2340 C   0  0  1  0  0  3  0  0  0  0  0  0
  185.0700  178.2250  147.0060 C   0  0  0  0  0  1  0  0  0  0  0  0
  186.2140  177.4450  146.3870 C   0  0  0  0  0  2  0  0  0  0  0  0
  186.5180  178.4350  142.0680 N   0  0  0  0  0  2  0  0  0  0  0  0
  182.4850  178.6850  143.4680 C   0  0  0  0  0  2  0  0  0  0  0  0
  185.1560  178.4260  142.6270 C   0  0  0  0  0  3  0  0  0  0  0  0
  184.8760  179.6400  143.5160 C   0  0  0  0  0  2  0  0  0  0  0  0
  183.5210  179.5260  144.2270 C   0  0  0  0  0  2  0  0  0  0  0  0
  182.7060  178.7540  141.9610 C   0  0  0  0  0  2  0  0  0  0  0  0
  184.0620  178.1500  141.5810 C   0  0  0  0  0  2  0  0  0  0  0  0
  1 21  1  1  0  0  0
  1  2  1  0  0  0  0
  2  8  1  0  0  0  0
  3 12  1  0  0  0  0
  3  8  1  0  0  0  0
  4  9  1  0  0  0  0
  6  4  2  0  0  0  0
  7  1  1  0  0  0  0
  7  3  1  0  0  0  0
  8 16  1  0  0  0  0
  9 12  1  0  0  0  0
 10 11  1  0  0  0  0
 11  4  1  0  0  0  0
 11  7  1  0  0  0  0
 12  5  1  0  0  0  0
 13 14  1  0  0  0  0
 15 14  1  0  0  0  0
 16 18  1  0  0  0  0
 16 17  1  0  0  0  0
 17 15  1  0  0  0  0
 18 20  1  0  0  0  0
 18 13  1  0  0  0  0
 20 19  1  0  0  0  0
 21 23  1  0  0  0  0
 22 25  1  0  0  0  0
 23 24  1  0  0  0  0
 24 25  1  0  0  0  0
 26 22  1  0  0  0  0
 27 26  1  0  0  0  0
 27 23  1  0  0  0  0
M  END
>  <MODEL>
1

>  <REMARK>
 VINA RESULT:      -8.8      0.000      0.000
  Name = 
  4 active torsions:
  status: ('A' for Active; 'I' for Inactive)
    1  A    between atoms: C_1  and  N_15
    2  A    between atoms: C_9  and  N_15
    3  A    between atoms: C_14  and  C_19
    4  A    between atoms: C_17  and  C_21
                            x       y       z     vdW  Elec       q    Type
                         _______ _______ _______ _____ _____    ______ ____

>  <TORSDO>
F 4

$$$$
=
 OpenBabel10272401133D

 27 30  0  0  1  0  0  0  0  0999 V2000
  188.0640  178.1490  143.2230 C   0  0  2  0  0  3  0  0  0  0  0  0
  188.6040  178.3750  141.9410 O   0  0  0  0  0  0  0  0  0  0  0  0
  190.3250  177.7980  143.4410 N   0  0  2  0  0  0  0  0  0  0  0  0
  190.3990  177.1430  146.1050 C   0  0  0  0  0  0  0  0  0  0  0  0
  191.0350  175.3890  143.3130 C   0  0  0  0  0  1  0  0  0  0  0  0
  190.4990  177.0840  147.3200 O   0  0  0  0  0  0  0  0  0  0  0  0
  189.0760  177.3580  143.9950 C   0  0  1  0  0  3  0  0  0  0  0  0
  190.0020  178.1600  142.0500 C   0  0  1  0  0  3  0  0  0  0  0  0
  191.6290  176.8250  145.2670 C   0  0  0  0  0  2  0  0  0  0  0  0
  188.0260  176.8850  146.0770 O   0  0  0  0  0  1  0  0  0  0  0  0
  189.0810  177.5930  145.4990 C   0  0  1  0  0  3  0  0  0  0  0  0
  191.3770  176.8150  143.7510 C   0  0  2  0  0  3  0  0  0  0  0  0
  190.2280  176.1150  138.7000 C   0  0  0  0  0  2  0  0  0  0  0  0
  191.7620  176.1300  138.7640 C   0  0  0  0  0  2  0  0  0  0  0  0
  192.2160  177.3840  139.2050 O   0  0  0  0  0  0  0  0  0  0  0  0
  190.5060  177.1750  140.9750 C   0  0  2  0  0  3  0  0  0  0  0  0
  191.9800  177.4510  140.5970 C   0  0  0  0  0  2  0  0  0  0  0  0
  189.6060  177.0730  139.7250 C   0  0  1  0  0  3  0  0  0  0  0  0
  189.0240  178.2790  137.6170 C   0  0  0  0  0  1  0  0  0  0  0  0
  189.3610  178.4380  139.0880 C   0  0  0  0  0  2  0  0  0  0  0  0
  186.7530  177.4780  143.1780 N   0  0  0  0  0  2  0  0  0  0  0  0
  183.2000  179.6840  144.0680 C   0  0  0  0  0  2  0  0  0  0  0  0
  185.5840  178.3370  143.4310 C   0  0  0  0  0  3  0  0  0  0  0  0
  184.3840  177.9710  142.5540 C   0  0  0  0  0  2  0  0  0  0  0  0
  183.2390  178.9820  142.7040 C   0  0  0  0  0  2  0  0  0  0  0  0
  183.7630  178.7940  145.1710 C   0  0  0  0  0  2  0  0  0  0  0  0
  185.2440  178.4920  144.9230 C   0  0  0  0  0  2  0  0  0  0  0  0
  1 21  1  6  0  0  0
  1  7  1  0  0  0  0
  2  8  1  0  0  0  0
  2  1  1  0  0  0  0
  3 12  1  0  0  0  0
  3  7  1  0  0  0  0
  4  6  2  0  0  0  0
  5 12  1  0  0  0  0
  7 11  1  0  0  0  0
  8  3  1  0  0  0  0
  9  4  1  0  0  0  0
 11 10  1  0  0  0  0
 11  4  1  0  0  0  0
 12  9  1  0  0  0  0
 13 14  1  0  0  0  0
 13 18  1  0  0  0  0
 14 15  1  0  0  0  0
 15 17  1  0  0  0  0
 16  8  1  0  0  0  0
 17 16  1  0  0  0  0
 18 16  1  0  0  0  0
 19 20  1  0  0  0  0
 20 18  1  0  0  0  0
 21 23  1  0  0  0  0
 22 26  1  0  0  0  0
 23 27  1  0  0  0  0
 24 25  1  0  0  0  0
 24 23  1  0  0  0  0
 25 22  1  0  0  0  0
 27 26  1  0  0  0  0
M  END
>  <MODEL>
2

>  <REMARK>
 VINA RESULT:      -7.6      1.691      5.443
  Name = 
  4 active torsions:
  status: ('A' for Active; 'I' for Inactive)
    1  A    between atoms: C_1  and  N_15
    2  A    between atoms: C_9  and  N_15
    3  A    between atoms: C_14  and  C_19
    4  A    between atoms: C_17  and  C_21
                            x       y       z     vdW  Elec       q    Type
                         _______ _______ _______ _____ _____    ______ ____

>  <TORSDO>
F 4

$$$$
=
 OpenBabel10272401133D

 27 30  0  0  1  0  0  0  0  0999 V2000
  188.2980  177.7430  141.7040 C   0  0  2  0  0  3  0  0  0  0  0  0
  187.0640  178.4110  141.8350 O   0  0  0  0  0  0  0  0  0  0  0  0
  187.7710  178.4730  139.5900 N   0  0  2  0  0  0  0  0  0  0  0  0
  189.9530  177.4910  138.2440 C   0  0  0  0  0  0  0  0  0  0  0  0
  186.6790  176.7490  138.1200 C   0  0  0  0  0  1  0  0  0  0  0  0
  191.0070  177.2820  137.6670 O   0  0  0  0  0  0  0  0  0  0  0  0
  188.4670  177.4080  140.2540 C   0  0  1  0  0  3  0  0  0  0  0  0
  186.7150  178.8690  140.5380 C   0  0  1  0  0  3  0  0  0  0  0  0
  188.7570  177.9400  137.4160 C   0  0  0  0  0  2  0  0  0  0  0  0
  190.4830  176.1490  140.1460 O   0  0  0  0  0  1  0  0  0  0  0  0
  189.9050  177.3590  139.7570 C   0  0  1  0  0  3  0  0  0  0  0  0
  187.4480  178.0690  138.2110 C   0  0  2  0  0  3  0  0  0  0  0  0
  182.9790  177.6910  140.8620 C   0  0  0  0  0  2  0  0  0  0  0  0
  182.5900  178.4950  139.6130 C   0  0  0  0  0  2  0  0  0  0  0  0
  183.2540  179.7330  139.6070 O   0  0  0  0  0  0  0  0  0  0  0  0
  185.2850  178.4390  140.1540 C   0  0  2  0  0  3  0  0  0  0  0  0
  184.5980  179.4880  139.2490 C   0  0  0  0  0  2  0  0  0  0  0  0
  184.3910  178.0440  141.3490 C   0  0  1  0  0  3  0  0  0  0  0  0
  183.4190  178.7340  143.5440 C   0  0  0  0  0  1  0  0  0  0  0  0
  184.3230  179.1500  142.3990 C   0  0  0  0  0  2  0  0  0  0  0  0
  188.3930  176.5490  142.5640 N   0  0  0  0  0  2  0  0  0  0  0  0
  187.9530  177.5880  146.6880 C   0  0  0  0  0  2  0  0  0  0  0  0
  188.2820  176.7920  144.0110 C   0  0  0  0  0  3  0  0  0  0  0  0
  189.3470  177.7610  144.5300 C   0  0  0  0  0  2  0  0  0  0  0  0
  189.3250  177.8650  146.0610 C   0  0  0  0  0  2  0  0  0  0  0  0
  186.8190  177.9780  145.7450 C   0  0  0  0  0  2  0  0  0  0  0  0
  186.8520  177.1270  144.4730 C   0  0  0  0  0  2  0  0  0  0  0  0
  1  2  1  0  0  0  0
  1 21  1  1  0  0  0
  3  7  1  0  0  0  0
  3  8  1  0  0  0  0
  4 11  1  0  0  0  0
  5 12  1  0  0  0  0
  6  4  2  0  0  0  0
  7  1  1  0  0  0  0
  8  2  1  0  0  0  0
  9 12  1  0  0  0  0
  9  4  1  0  0  0  0
 11 10  1  0  0  0  0
 11  7  1  0  0  0  0
 12  3  1  0  0  0  0
 13 18  1  0  0  0  0
 14 13  1  0  0  0  0
 15 14  1  0  0  0  0
 16  8  1  0  0  0  0
 16 18  1  0  0  0  0
 17 15  1  0  0  0  0
 17 16  1  0  0  0  0
 18 20  1  0  0  0  0
 20 19  1  0  0  0  0
 21 23  1  0  0  0  0
 23 27  1  0  0  0  0
 23 24  1  0  0  0  0
 24 25  1  0  0  0  0
 25 22  1  0  0  0  0
 26 22  1  0  0  0  0
 27 26  1  0  0  0  0
M  END
>  <MODEL>
3

>  <REMARK>
 VINA RESULT:      -7.3      2.383      5.743
  Name = 
  4 active torsions:
  status: ('A' for Active; 'I' for Inactive)
    1  A    between atoms: C_1  and  N_15
    2  A    between atoms: C_9  and  N_15
    3  A    between atoms: C_14  and  C_19
    4  A    between atoms: C_17  and  C_21
                            x       y       z     vdW  Elec       q    Type
                         _______ _______ _______ _____ _____    ______ ____

>  <TORSDO>
F 4

$$$$
=
 OpenBabel10272401133D

 27 30  0  0  1  0  0  0  0  0999 V2000
  186.6530  178.3620  142.4600 C   0  0  2  0  0  3  0  0  0  0  0  0
  187.3180  178.5290  141.2290 O   0  0  0  0  0  0  0  0  0  0  0  0
  188.8890  178.1350  142.9380 N   0  0  2  0  0  0  0  0  0  0  0  0
  188.7010  177.6610  145.6350 C   0  0  0  0  0  0  0  0  0  0  0  0
  189.7070  175.7600  143.0550 C   0  0  0  0  0  1  0  0  0  0  0  0
  188.6720  177.6870  146.8550 O   0  0  0  0  0  0  0  0  0  0  0  0
  187.6070  177.6740  143.3870 C   0  0  1  0  0  3  0  0  0  0  0  0
  188.7050  178.3890  141.4990 C   0  0  1  0  0  3  0  0  0  0  0  0
  190.0270  177.3480  144.9550 C   0  0  0  0  0  2  0  0  0  0  0  0
  186.3580  177.2880  145.3750 O   0  0  0  0  0  1  0  0  0  0  0  0
  187.4390  178.0070  144.8630 C   0  0  1  0  0  3  0  0  0  0  0  0
  189.9410  177.2270  143.4250 C   0  0  2  0  0  3  0  0  0  0  0  0
  189.5970  176.3790  138.2400 C   0  0  0  0  0  2  0  0  0  0  0  0
  191.0420  176.1910  138.7220 C   0  0  0  0  0  2  0  0  0  0  0  0
  191.5070  177.3680  139.3310 O   0  0  0  0  0  0  0  0  0  0  0  0
  189.3620  177.3620  140.5550 C   0  0  2  0  0  3  0  0  0  0  0  0
  190.9050  177.4470  140.6070 C   0  0  0  0  0  2  0  0  0  0  0  0
  188.8370  177.3960  139.1040 C   0  0  1  0  0  3  0  0  0  0  0  0
  188.9790  178.7000  136.9770 C   0  0  0  0  0  1  0  0  0  0  0  0
  188.9480  178.7900  138.4920 C   0  0  0  0  0  2  0  0  0  0  0  0
  185.3820  177.6270  142.3240 N   0  0  0  0  0  2  0  0  0  0  0  0
  181.6710  179.6530  142.9560 C   0  0  0  0  0  2  0  0  0  0  0  0
  184.1580  178.4260  142.4920 C   0  0  0  0  0  3  0  0  0  0  0  0
  183.0440  178.0050  141.5310 C   0  0  0  0  0  2  0  0  0  0  0  0
  181.8420  178.9590  141.5990 C   0  0  0  0  0  2  0  0  0  0  0  0
  182.1960  178.7880  144.0970 C   0  0  0  0  0  2  0  0  0  0  0  0
  183.7040  178.5600  143.9560 C   0  0  0  0  0  2  0  0  0  0  0  0
  1 21  1  6  0  0  0
  1  7  1  0  0  0  0
  2  8  1  0  0  0  0
  2  1  1  0  0  0  0
  3  7  1  0  0  0  0
  3 12  1  0  0  0  0
  4  6  2  0  0  0  0
  5 12  1  0  0  0  0
  7 11  1  0  0  0  0
  8  3  1  0  0  0  0
  9  4  1  0  0  0  0
 11 10  1  0  0  0  0
 11  4  1  0  0  0  0
 12  9  1  0  0  0  0
 13 14  1  0  0  0  0
 13 18  1  0  0  0  0
 14 15  1  0  0  0  0
 15 17  1  0  0  0  0
 16 17  1  0  0  0  0
 16  8  1  0  0  0  0
 18 16  1  0  0  0  0
 19 20  1  0  0  0  0
 20 18  1  0  0  0  0
 21 23  1  0  0  0  0
 22 26  1  0  0  0  0
 23 27  1  0  0  0  0
 24 25  1  0  0  0  0
 24 23  1  0  0  0  0
 25 22  1  0  0  0  0
 27 26  1  0  0  0  0
M  END
>  <MODEL>
4

>  <REMARK>
 VINA RESULT:      -6.9      1.749      5.502
  Name = 
  4 active torsions:
  status: ('A' for Active; 'I' for Inactive)
    1  A    between atoms: C_1  and  N_15
    2  A    between atoms: C_9  and  N_15
    3  A    between atoms: C_14  and  C_19
    4  A    between atoms: C_17  and  C_21
                            x       y       z     vdW  Elec       q    Type
                         _______ _______ _______ _____ _____    ______ ____

>  <TORSDO>
F 4

$$$$
=
 OpenBabel10272401133D

 27 30  0  0  1  0  0  0  0  0999 V2000
  187.2310  177.8220  141.7600 C   0  0  2  0  0  3  0  0  0  0  0  0
  187.5860  177.3130  143.0250 O   0  0  0  0  0  0  0  0  0  0  0  0
  189.1650  176.6300  141.4180 N   0  0  2  0  0  0  0  0  0  0  0  0
  189.4580  177.0590  138.7230 C   0  0  0  0  0  0  0  0  0  0  0  0
  191.2650  178.0120  141.3880 C   0  0  0  0  0  1  0  0  0  0  0  0
  189.4880  177.0280  137.5030 O   0  0  0  0  0  0  0  0  0  0  0  0
  188.4570  177.7660  140.9010 C   0  0  1  0  0  3  0  0  0  0  0  0
  188.7830  176.5730  142.8390 C   0  0  1  0  0  3  0  0  0  0  0  0
  190.6590  176.5150  139.4850 C   0  0  0  0  0  2  0  0  0  0  0  0
  187.8170  178.7880  138.8500 O   0  0  0  0  0  1  0  0  0  0  0  0
  188.2060  177.5710  139.4130 C   0  0  1  0  0  3  0  0  0  0  0  0
  190.5780  176.6990  141.0080 C   0  0  2  0  0  3  0  0  0  0  0  0
  190.5050  178.0820  146.0350 C   0  0  0  0  0  2  0  0  0  0  0  0
  191.6260  177.0350  145.9560 C   0  0  0  0  0  2  0  0  0  0  0  0
  191.0970  175.7840  145.5990 O   0  0  0  0  0  0  0  0  0  0  0  0
  189.8750  177.0090  143.8370 C   0  0  2  0  0  3  0  0  0  0  0  0
  190.8010  175.8310  144.2180 C   0  0  0  0  0  2  0  0  0  0  0  0
  189.3460  177.7470  145.0860 C   0  0  1  0  0  3  0  0  0  0  0  0
  187.3680  177.8500  146.6070 C   0  0  0  0  0  1  0  0  0  0  0  0
  188.2840  176.9320  145.8200 C   0  0  0  0  0  2  0  0  0  0  0  0
  186.6660  179.1820  141.8320 N   0  0  0  0  0  2  0  0  0  0  0  0
  182.7450  179.1550  143.5370 C   0  0  0  0  0  2  0  0  0  0  0  0
  185.2940  179.2790  142.3560 C   0  0  0  0  0  3  0  0  0  0  0  0
  184.3610  178.2190  141.7650 C   0  0  0  0  0  2  0  0  0  0  0  0
  182.9030  178.4440  142.1870 C   0  0  0  0  0  2  0  0  0  0  0  0
  183.9130  178.8510  144.4690 C   0  0  0  0  0  2  0  0  0  0  0  0
  185.2250  179.3880  143.8900 C   0  0  0  0  0  2  0  0  0  0  0  0
  1 21  1  1  0  0  0
  1  2  1  0  0  0  0
  3  8  1  0  0  0  0
  4 11  1  0  0  0  0
  4  9  1  0  0  0  0
  6  4  2  0  0  0  0
  7  3  1  0  0  0  0
  7  1  1  0  0  0  0
  8  2  1  0  0  0  0
  8 16  1  0  0  0  0
  9 12  1  0  0  0  0
 10 11  1  0  0  0  0
 11  7  1  0  0  0  0
 12  5  1  0  0  0  0
 12  3  1  0  0  0  0
 14 13  1  0  0  0  0
 15 14  1  0  0  0  0
 16 17  1  0  0  0  0
 16 18  1  0  0  0  0
 17 15  1  0  0  0  0
 18 20  1  0  0  0  0
 18 13  1  0  0  0  0
 20 19  1  0  0  0  0
 21 23  1  0  0  0  0
 22 26  1  0  0  0  0
 23 27  1  0  0  0  0
 24 25  1  0  0  0  0
 24 23  1  0  0  0  0
 25 22  1  0  0  0  0
 27 26  1  0  0  0  0
M  END
>  <MODEL>
5

>  <REMARK>
 VINA RESULT:      -6.9      1.597      2.495
  Name = 
  4 active torsions:
  status: ('A' for Active; 'I' for Inactive)
    1  A    between atoms: C_1  and  N_15
    2  A    between atoms: C_9  and  N_15
    3  A    between atoms: C_14  and  C_19
    4  A    between atoms: C_17  and  C_21
                            x       y       z     vdW  Elec       q    Type
                         _______ _______ _______ _____ _____    ______ ____

>  <TORSDO>
F 4

$$$$
=
 OpenBabel10272401133D

 27 30  0  0  1  0  0  0  0  0999 V2000
  188.4290  178.0330  141.0300 C   0  0  2  0  0  3  0  0  0  0  0  0
  187.5400  178.4090  140.0030 O   0  0  0  0  0  0  0  0  0  0  0  0
  189.6740  177.9980  139.0990 N   0  0  2  0  0  0  0  0  0  0  0  0
  192.0790  177.2040  140.1570 C   0  0  0  0  0  0  0  0  0  0  0  0
  189.9240  175.7280  138.0460 C   0  0  0  0  0  1  0  0  0  0  0  0
  193.2030  177.0890  140.6180 O   0  0  0  0  0  0  0  0  0  0  0  0
  189.5930  177.3520  140.3770 C   0  0  1  0  0  3  0  0  0  0  0  0
  188.2870  178.3910  138.7970 C   0  0  1  0  0  3  0  0  0  0  0  0
  191.9100  177.1160  138.6460 C   0  0  0  0  0  2  0  0  0  0  0  0
  190.9580  176.6100  142.1790 O   0  0  0  0  0  1  0  0  0  0  0  0
  190.9250  177.4960  141.1000 C   0  0  1  0  0  3  0  0  0  0  0  0
  190.4500  177.1600  138.1690 C   0  0  2  0  0  3  0  0  0  0  0  0
  185.4750  176.4840  136.8190 C   0  0  0  0  0  2  0  0  0  0  0  0
  186.1410  176.8370  135.4820 C   0  0  0  0  0  2  0  0  0  0  0  0
  186.6250  178.1560  135.5140 O   0  0  0  0  0  0  0  0  0  0  0  0
  187.5820  177.5550  137.7100 C   0  0  2  0  0  3  0  0  0  0  0  0
  187.7990  178.1530  136.3010 C   0  0  0  0  0  2  0  0  0  0  0  0
  186.0900  177.2700  137.9860 C   0  0  1  0  0  3  0  0  0  0  0  0
  184.1310  178.2860  139.1560 C   0  0  0  0  0  1  0  0  0  0  0  0
  185.3010  178.5540  138.2280 C   0  0  0  0  0  2  0  0  0  0  0  0
  187.7910  177.1840  142.0520 N   0  0  0  0  0  2  0  0  0  0  0  0
  185.5760  178.9360  145.2630 C   0  0  0  0  0  2  0  0  0  0  0  0
  187.0780  177.8980  143.1240 C   0  0  0  0  0  3  0  0  0  0  0  0
  185.5740  177.9990  142.8640 C   0  0  0  0  0  2  0  0  0  0  0  0
  184.8760  178.8940  143.8980 C   0  0  0  0  0  2  0  0  0  0  0  0
  186.3140  177.6340  145.5530 C   0  0  0  0  0  2  0  0  0  0  0  0
  187.4370  177.4060  144.5380 C   0  0  0  0  0  2  0  0  0  0  0  0
  1 21  1  1  0  0  0
  2  1  1  0  0  0  0
  3  7  1  0  0  0  0
  4  6  2  0  0  0  0
  4 11  1  0  0  0  0
  5 12  1  0  0  0  0
  7  1  1  0  0  0  0
  7 11  1  0  0  0  0
  8  3  1  0  0  0  0
  8  2  1  0  0  0  0
  9  4  1  0  0  0  0
 11 10  1  0  0  0  0
 12  9  1  0  0  0  0
 12  3  1  0  0  0  0
 13 18  1  0  0  0  0
 14 15  1  0  0  0  0
 14 13  1  0  0  0  0
 15 17  1  0  0  0  0
 16 18  1  0  0  0  0
 16  8  1  0  0  0  0
 17 16  1  0  0  0  0
 18 20  1  0  0  0  0
 20 19  1  0  0  0  0
 21 23  1  0  0  0  0
 22 26  1  0  0  0  0
 23 27  1  0  0  0  0
 24 23  1  0  0  0  0
 24 25  1  0  0  0  0
 25 22  1  0  0  0  0
 27 26  1  0  0  0  0
M  END
>  <MODEL>
6

>  <REMARK>
 VINA RESULT:      -6.8      3.085      6.439
  Name = 
  4 active torsions:
  status: ('A' for Active; 'I' for Inactive)
    1  A    between atoms: C_1  and  N_15
    2  A    between atoms: C_9  and  N_15
    3  A    between atoms: C_14  and  C_19
    4  A    between atoms: C_17  and  C_21
                            x       y       z     vdW  Elec       q    Type
                         _______ _______ _______ _____ _____    ______ ____

>  <TORSDO>
F 4

$$$$
=
 OpenBabel10272401133D

 27 30  0  0  1  0  0  0  0  0999 V2000
  186.2770  178.7350  141.1370 C   0  0  2  0  0  3  0  0  0  0  0  0
  184.9110  179.0580  141.0130 O   0  0  0  0  0  0  0  0  0  0  0  0
  185.8880  178.8880  138.8770 N   0  0  2  0  0  0  0  0  0  0  0  0
  188.4090  178.2970  137.9700 C   0  0  0  0  0  0  0  0  0  0  0  0
  185.4690  176.6920  137.7270 C   0  0  0  0  0  1  0  0  0  0  0  0
  189.5530  178.2760  137.5440 O   0  0  0  0  0  0  0  0  0  0  0  0
  186.7250  178.1930  139.8140 C   0  0  1  0  0  3  0  0  0  0  0  0
  184.6450  179.1540  139.6230 C   0  0  1  0  0  3  0  0  0  0  0  0
  187.2680  178.2450  136.9640 C   0  0  0  0  0  2  0  0  0  0  0  0
  188.9830  177.5270  140.1550 O   0  0  0  0  0  1  0  0  0  0  0  0
  188.1850  178.4410  139.4650 C   0  0  1  0  0  3  0  0  0  0  0  0
  185.8690  178.1630  137.5960 C   0  0  2  0  0  3  0  0  0  0  0  0
  181.3930  176.9620  139.8930 C   0  0  0  0  0  2  0  0  0  0  0  0
  180.8850  177.5060  138.5500 C   0  0  0  0  0  2  0  0  0  0  0  0
  181.1610  178.8790  138.4470 O   0  0  0  0  0  0  0  0  0  0  0  0
  183.4330  178.2910  139.2200 C   0  0  2  0  0  3  0  0  0  0  0  0
  182.5430  179.0110  138.1790 C   0  0  0  0  0  2  0  0  0  0  0  0
  182.6030  177.7550  140.4060 C   0  0  1  0  0  3  0  0  0  0  0  0
  180.8760  178.4710  142.0620 C   0  0  0  0  0  1  0  0  0  0  0  0
  182.1410  178.8780  141.3310 C   0  0  0  0  0  2  0  0  0  0  0  0
  186.5420  177.7930  142.2390 N   0  0  0  0  0  2  0  0  0  0  0  0
  185.5540  178.8810  146.2550 C   0  0  0  0  0  2  0  0  0  0  0  0
  186.2320  178.2850  143.5920 C   0  0  0  0  0  3  0  0  0  0  0  0
  184.7310  178.2860  143.8890 C   0  0  0  0  0  2  0  0  0  0  0  0
  184.4160  178.9640  145.2300 C   0  0  0  0  0  2  0  0  0  0  0  0
  186.3920  177.6220  146.0590 C   0  0  0  0  0  2  0  0  0  0  0  0
  187.0880  177.6380  144.6950 C   0  0  0  0  0  2  0  0  0  0  0  0
  1 21  1  1  0  0  0
  2  1  1  0  0  0  0
  3  8  1  0  0  0  0
  3  7  1  0  0  0  0
  4 11  1  0  0  0  0
  6  4  2  0  0  0  0
  7  1  1  0  0  0  0
  8  2  1  0  0  0  0
  9 12  1  0  0  0  0
  9  4  1  0  0  0  0
 11  7  1  0  0  0  0
 11 10  1  0  0  0  0
 12  5  1  0  0  0  0
 12  3  1  0  0  0  0
 13 18  1  0  0  0  0
 14 13  1  0  0  0  0
 15 14  1  0  0  0  0
 16  8  1  0  0  0  0
 16 18  1  0  0  0  0
 17 15  1  0  0  0  0
 17 16  1  0  0  0  0
 18 20  1  0  0  0  0
 20 19  1  0  0  0  0
 21 23  1  0  0  0  0
 23 24  1  0  0  0  0
 23 27  1  0  0  0  0
 24 25  1  0  0  0  0
 25 22  1  0  0  0  0
 26 22  1  0  0  0  0
 27 26  1  0  0  0  0
M  END
>  <MODEL>
7

>  <REMARK>
 VINA RESULT:      -6.8      3.113      6.592
  Name = 
  4 active torsions:
  status: ('A' for Active; 'I' for Inactive)
    1  A    between atoms: C_1  and  N_15
    2  A    between atoms: C_9  and  N_15
    3  A    between atoms: C_14  and  C_19
    4  A    between atoms: C_17  and  C_21
                            x       y       z     vdW  Elec       q    Type
                         _______ _______ _______ _____ _____    ______ ____

>  <TORSDO>
F 4

$$$$
=
 OpenBabel10272401133D

 27 30  0  0  1  0  0  0  0  0999 V2000
  188.0120  178.2800  140.1420 C   0  0  2  0  0  3  0  0  0  0  0  0
  186.7650  178.7980  140.5430 O   0  0  0  0  0  0  0  0  0  0  0  0
  186.8340  178.6130  138.1970 N   0  0  2  0  0  0  0  0  0  0  0  0
  188.7140  177.7260  136.4040 C   0  0  0  0  0  0  0  0  0  0  0  0
  185.6900  176.5640  137.2930 C   0  0  0  0  0  1  0  0  0  0  0  0
  189.5990  177.5690  135.5790 O   0  0  0  0  0  0  0  0  0  0  0  0
  187.8450  177.7560  138.7480 C   0  0  1  0  0  3  0  0  0  0  0  0
  186.0160  179.0080  139.3560 C   0  0  1  0  0  3  0  0  0  0  0  0
  187.2850  177.8910  135.9050 C   0  0  0  0  0  2  0  0  0  0  0  0
  189.9390  176.7620  138.2120 O   0  0  0  0  0  1  0  0  0  0  0  0
  189.0890  177.8160  137.8740 C   0  0  1  0  0  3  0  0  0  0  0  0
  186.2290  177.9700  137.0180 C   0  0  2  0  0  3  0  0  0  0  0  0
  182.8080  177.2860  140.8380 C   0  0  0  0  0  2  0  0  0  0  0  0
  181.9240  177.9660  139.7830 C   0  0  0  0  0  2  0  0  0  0  0  0
  182.3460  179.2900  139.5770 O   0  0  0  0  0  0  0  0  0  0  0  0
  184.6250  178.3480  139.4420 C   0  0  2  0  0  3  0  0  0  0  0  0
  183.5310  179.2390  138.8100 C   0  0  0  0  0  2  0  0  0  0  0  0
  184.2260  177.8720  140.8550 C   0  0  1  0  0  3  0  0  0  0  0  0
  184.4900  178.4280  143.2760 C   0  0  0  0  0  1  0  0  0  0  0  0
  184.3170  178.9990  141.8810 C   0  0  0  0  0  2  0  0  0  0  0  0
  188.5240  177.2500  141.0640 N   0  0  0  0  0  2  0  0  0  0  0  0
  188.6910  177.9950  145.2710 C   0  0  0  0  0  2  0  0  0  0  0  0
  188.5010  177.6000  142.4930 C   0  0  0  0  0  3  0  0  0  0  0  0
  187.7650  176.5620  143.3430 C   0  0  0  0  0  2  0  0  0  0  0  0
  187.5990  177.0280  144.7960 C   0  0  0  0  0  2  0  0  0  0  0  0
  190.0130  177.7410  144.5540 C   0  0  0  0  0  2  0  0  0  0  0  0
  189.8770  178.0040  143.0520 C   0  0  0  0  0  2  0  0  0  0  0  0
  1  2  1  0  0  0  0
  1 21  1  1  0  0  0
  3  7  1  0  0  0  0
  3  8  1  0  0  0  0
  4 11  1  0  0  0  0
  6  4  2  0  0  0  0
  7  1  1  0  0  0  0
  8 16  1  0  0  0  0
  8  2  1  0  0  0  0
  9  4  1  0  0  0  0
  9 12  1  0  0  0  0
 11 10  1  0  0  0  0
 11  7  1  0  0  0  0
 12  5  1  0  0  0  0
 12  3  1  0  0  0  0
 13 18  1  0  0  0  0
 14 13  1  0  0  0  0
 15 14  1  0  0  0  0
 16 18  1  0  0  0  0
 17 16  1  0  0  0  0
 17 15  1  0  0  0  0
 18 20  1  0  0  0  0
 20 19  1  0  0  0  0
 21 23  1  0  0  0  0
 23 27  1  0  0  0  0
 23 24  1  0  0  0  0
 24 25  1  0  0  0  0
 25 22  1  0  0  0  0
 26 22  1  0  0  0  0
 27 26  1  0  0  0  0
M  END
>  <MODEL>
8

>  <REMARK>
 VINA RESULT:      -6.8      3.161      6.508
  Name = 
  4 active torsions:
  status: ('A' for Active; 'I' for Inactive)
    1  A    between atoms: C_1  and  N_15
    2  A    between atoms: C_9  and  N_15
    3  A    between atoms: C_14  and  C_19
    4  A    between atoms: C_17  and  C_21
                            x       y       z     vdW  Elec       q    Type
                         _______ _______ _______ _____ _____    ______ ____

>  <TORSDO>
F 4

$$$$
=
 OpenBabel10272401133D

 27 30  0  0  1  0  0  0  0  0999 V2000
  190.1130  176.6370  140.1290 C   0  0  2  0  0  3  0  0  0  0  0  0
  190.8490  175.7920  139.2760 O   0  0  0  0  0  0  0  0  0  0  0  0
  188.9290  176.5750  138.1610 N   0  0  2  0  0  0  0  0  0  0  0  0
  186.8670  178.2500  138.8510 C   0  0  0  0  0  0  0  0  0  0  0  0
  189.3560  178.5080  136.6110 C   0  0  0  0  0  1  0  0  0  0  0  0
  185.8280  178.7880  139.1990 O   0  0  0  0  0  0  0  0  0  0  0  0
  189.2000  177.4510  139.2640 C   0  0  1  0  0  3  0  0  0  0  0  0
  190.1380  175.7410  138.0490 C   0  0  1  0  0  3  0  0  0  0  0  0
  187.0510  177.9290  137.3740 C   0  0  0  0  0  2  0  0  0  0  0  0
  188.1180  178.9540  140.7580 O   0  0  0  0  0  1  0  0  0  0  0  0
  187.8870  177.8690  139.9110 C   0  0  1  0  0  3  0  0  0  0  0  0
  188.4320  177.3580  137.0170 C   0  0  2  0  0  3  0  0  0  0  0  0
  193.3810  176.2300  135.8820 C   0  0  0  0  0  2  0  0  0  0  0  0
  192.6320  175.7910  134.6160 C   0  0  0  0  0  2  0  0  0  0  0  0
  191.7740  174.7170  134.9070 O   0  0  0  0  0  0  0  0  0  0  0  0
  191.0550  176.0600  136.8510 C   0  0  2  0  0  3  0  0  0  0  0  0
  190.6600  175.2450  135.5980 C   0  0  0  0  0  2  0  0  0  0  0  0
  192.5650  175.9490  137.1520 C   0  0  1  0  0  3  0  0  0  0  0  0
  194.4390  174.3950  137.7130 C   0  0  0  0  0  1  0  0  0  0  0  0
  192.9330  174.5810  137.7210 C   0  0  0  0  0  2  0  0  0  0  0  0
  190.9750  177.4820  140.9750 N   0  0  0  0  0  2  0  0  0  0  0  0
  190.5510  176.9120  145.1920 C   0  0  0  0  0  2  0  0  0  0  0  0
  190.9250  177.2050  142.4200 C   0  0  0  0  0  3  0  0  0  0  0  0
  191.4090  178.3870  143.2630 C   0  0  0  0  0  2  0  0  0  0  0  0
  191.5150  178.0210  144.7500 C   0  0  0  0  0  2  0  0  0  0  0  0
  189.2750  176.9150  144.3560 C   0  0  0  0  0  2  0  0  0  0  0  0
  189.5850  176.6100  142.8880 C   0  0  0  0  0  2  0  0  0  0  0  0
  1 21  1  6  0  0  0
  2  1  1  0  0  0  0
  3  7  1  0  0  0  0
  4  6  2  0  0  0  0
  4 11  1  0  0  0  0
  5 12  1  0  0  0  0
  7 11  1  0  0  0  0
  7  1  1  0  0  0  0
  8  3  1  0  0  0  0
  8  2  1  0  0  0  0
  9  4  1  0  0  0  0
 11 10  1  0  0  0  0
 12  9  1  0  0  0  0
 12  3  1  0  0  0  0
 13 18  1  0  0  0  0
 14 15  1  0  0  0  0
 14 13  1  0  0  0  0
 15 17  1  0  0  0  0
 16 18  1  0  0  0  0
 16  8  1  0  0  0  0
 17 16  1  0  0  0  0
 18 20  1  0  0  0  0
 19 20  1  0  0  0  0
 21 23  1  0  0  0  0
 23 27  1  0  0  0  0
 23 24  1  0  0  0  0
 24 25  1  0  0  0  0
 25 22  1  0  0  0  0
 26 22  1  0  0  0  0
 27 26  1  0  0  0  0
M  END
>  <MODEL>
9

>  <REMARK>
 VINA RESULT:      -6.7      3.872      8.411
  Name = 
  4 active torsions:
  status: ('A' for Active; 'I' for Inactive)
    1  A    between atoms: C_1  and  N_15
    2  A    between atoms: C_9  and  N_15
    3  A    between atoms: C_14  and  C_19
    4  A    between atoms: C_17  and  C_21
                            x       y       z     vdW  Elec       q    Type
                         _______ _______ _______ _____ _____    ______ ____

>  <TORSDO>
F 4

$$$$
