=
 OpenBabel10272401203D

 55 60  0  0  1  0  0  0  0  0999 V2000
  181.4130  177.6320  139.7780 O   0  0  0  0  0  0  0  0  0  0  0  0
  186.7480  176.3580  137.4170 C   0  0  0  0  0  2  0  0  0  0  0  0
  184.7230  177.6790  135.2360 S   0  0  0  0  0  1  0  0  0  0  0  0
  183.1770  177.8680  137.5640 C   0  0  0  0  0  2  0  0  0  0  0  0
  182.7080  179.3300  142.8290 C   0  0  0  0  0  3  0  0  0  0  0  0
  184.4770  178.1730  141.6070 C   0  0  0  0  0  0  0  0  0  0  0  0
  181.4990  176.2890  139.3860 C   0  0  0  0  0  2  0  0  0  0  0  0
  183.6010  177.6180  140.7660 C   0  0  0  0  0  3  0  0  0  0  0  0
  187.5100  177.5650  137.9680 C   0  0  0  0  0  2  0  0  0  0  0  0
  185.2410  176.4250  137.6700 C   0  0  0  0  0  2  0  0  0  0  0  0
  184.6080  177.6730  137.0600 C   0  0  1  0  0  3  0  0  0  0  0  0
  181.7630  179.0440  141.6880 C   0  0  0  0  0  2  0  0  0  0  0  0
  187.5170  177.5850  139.4900 C   0  0  2  0  0  3  0  0  0  0  0  0
  182.1100  177.7210  140.9930 C   0  0  1  0  0  3  0  0  0  0  0  0
  182.1600  176.9220  136.9160 C   0  0  1  0  0  3  0  0  0  0  0  0
  181.2470  176.1200  137.8850 C   0  0  1  0  0  3  0  0  0  0  0  0
  186.3380  178.4020  140.0000 C   0  0  0  0  0  2  0  0  0  0  0  0
  185.9390  177.9560  141.3990 C   0  0  0  0  0  2  0  0  0  0  0  0
  183.9900  178.9530  142.7620 C   0  0  0  0  0  3  0  0  0  0  0  0
  181.2130  174.6210  137.5600 C   0  0  1  0  0  0  0  0  0  0  0  0
  182.3110  174.0300  136.7500 C   0  0  2  0  0  3  0  0  0  0  0  0
  180.4790  173.7770  138.4030 O   0  0  0  0  0  1  0  0  0  0  0  0
  181.0330  174.2980  136.2020 O   0  0  0  0  0  0  0  0  0  0  0  0
  182.4670  172.5290  136.9590 C   0  0  0  0  0  2  0  0  0  0  0  0
  183.9170  172.1910  137.2630 C   0  0  0  0  0  2  0  0  0  0  0  0
  184.8500  172.9910  136.3690 C   0  0  0  0  0  2  0  0  0  0  0  0
  186.1500  172.2280  136.1550 C   0  0  1  0  0  3  0  0  0  0  0  0
  187.9380  173.2080  136.0300 C   0  0  0  0  0  2  0  0  0  0  0  0
  186.9250  172.8000  134.9900 C   0  0  0  0  0  2  0  0  0  0  0  0
  187.1460  172.6600  137.1250 N   0  0  0  0  0  2  0  0  0  0  0  0
  188.8340  178.1530  140.0080 C   0  0  0  0  0  2  0  0  0  0  0  0
  189.5340  177.1970  140.7530 O   0  0  0  0  0  0  0  0  0  0  0  0
  190.8080  178.9270  144.2990 C   0  0  1  0  0  3  0  0  0  0  0  0
  189.8470  176.1700  144.5230 C   0  0  0  0  0  2  0  0  0  0  0  0
  191.0150  177.0080  142.6490 C   0  0  1  0  0  3  0  0  0  0  0  0
  187.4950  176.8630  144.0490 C   0  0  0  0  0  1  0  0  0  0  0  0
  188.8200  177.3160  144.6630 C   0  0  2  0  0  0  0  0  0  0  0  0
  190.1030  177.9140  141.8090 C   0  0  2  0  0  3  0  0  0  0  0  0
  191.7610  177.8960  143.6690 C   0  0  0  0  0  2  0  0  0  0  0  0
  191.1290  180.2040  143.8370 O   0  0  0  0  0  1  0  0  0  0  0  0
  189.0810  178.5720  142.5510 O   0  0  0  0  0  0  0  0  0  0  0  0
  190.2540  175.9300  143.1890 O   0  0  0  0  0  0  0  0  0  0  0  0
  189.3330  178.6010  143.9540 C   0  0  2  0  0  3  0  0  0  0  0  0
  189.5260  176.7780  147.0760 C   0  0  0  0  0  1  0  0  0  0  0  0
  188.6240  177.6180  146.1690 C   0  0  2  0  0  3  0  0  0  0  0  0
  187.1510  177.5810  146.6150 C   0  0  1  0  0  3  0  0  0  0  0  0
  187.0280  177.5910  148.0110 O   0  0  0  0  0  1  0  0  0  0  0  0
  186.3310  178.7050  145.9880 C   0  0  0  0  0  2  0  0  0  0  0  0
  185.2270  179.0230  146.7790 O   0  0  0  0  0  1  0  0  0  0  0  0
  181.3610  177.6850  135.8520 C   0  0  1  0  0  3  0  0  0  0  0  0
  181.2360  176.9170  134.5670 C   0  0  0  0  0  3  0  0  0  0  0  0
  180.2650  176.2070  134.3460 O   0  0  0  0  0  0  0  0  0  0  0  0
  180.0070  178.1730  136.3720 C   0  0  0  0  0  2  0  0  0  0  0  0
  179.9970  179.6830  136.5490 C   0  0  0  0  0  2  0  0  0  0  0  0
  180.3330  180.0560  137.9800 C   0  0  0  0  0  1  0  0  0  0  0  0
  1 14  1  0  0  0  0
  2 10  1  0  0  0  0
  2  9  1  0  0  0  0
  6 19  1  0  0  0  0
  7  1  1  0  0  0  0
  8  6  2  0  0  0  0
  9 13  1  0  0  0  0
 11  3  1  6  0  0  0
 11  4  1  0  0  0  0
 11 10  1  0  0  0  0
 12  5  1  0  0  0  0
 13 17  1  0  0  0  0
 13 31  1  6  0  0  0
 14  8  1  6  0  0  0
 14 12  1  0  0  0  0
 15 50  1  6  0  0  0
 15  4  1  0  0  0  0
 15 16  1  0  0  0  0
 16  7  1  1  0  0  0
 17 18  1  0  0  0  0
 18  6  1  0  0  0  0
 19  5  2  0  0  0  0
 20 16  1  0  0  0  0
 20 22  1  1  0  0  0
 21 24  1  1  0  0  0
 21 20  1  0  0  0  0
 23 21  1  0  0  0  0
 23 20  1  0  0  0  0
 24 25  1  0  0  0  0
 26 25  1  0  0  0  0
 27 26  1  1  0  0  0
 27 30  1  0  0  0  0
 28 30  1  0  0  0  0
 29 28  1  0  0  0  0
 29 27  1  0  0  0  0
 31 32  1  0  0  0  0
 33 40  1  6  0  0  0
 34 37  1  0  0  0  0
 35 42  1  0  0  0  0
 35 39  1  1  0  0  0
 37 36  1  6  0  0  0
 37 45  1  0  0  0  0
 38 32  1  6  0  0  0
 38 41  1  0  0  0  0
 38 35  1  0  0  0  0
 39 33  1  0  0  0  0
 42 34  1  0  0  0  0
 43 41  1  6  0  0  0
 43 33  1  0  0  0  0
 43 37  1  0  0  0  0
 45 46  1  0  0  0  0
 45 44  1  1  0  0  0
 46 47  1  1  0  0  0
 48 46  1  0  0  0  0
 48 49  1  0  0  0  0
 50 51  1  6  0  0  0
 50 53  1  0  0  0  0
 52 51  2  0  0  0  0
 53 54  1  0  0  0  0
 54 55  1  0  0  0  0
M  END
>  <MODEL>
1

>  <REMARK>
 VINA RESULT:      -6.1      0.000      0.000
  Name = 
  15 active torsions:
  status: ('A' for Active; 'I' for Inactive)
    1  A    between atoms: C_8  and  O_22
    2  A    between atoms: C_8  and  C_43
    3  A    between atoms: C_9  and  C_15
    4  A    between atoms: C_9  and  C_26
    5  A    between atoms: C_10  and  C_32
    6  A    between atoms: C_11  and  C_29
    7  A    between atoms: C_13  and  C_34
    8  A    between atoms: C_13  and  C_48
    9  A    between atoms: C_14  and  C_38
   10  A    between atoms: C_16  and  C_26
   11  A    between atoms: C_20  and  O_22
   12  A    between atoms: C_26  and  C_45
   13  A    between atoms: C_29  and  C_38
   14  A    between atoms: C_32  and  C_48
   15  A    between atoms: C_33  and  C_49
                            x       y       z     vdW  Elec       q    Type
                         _______ _______ _______ _____ _____    ______ ____

>  <TORSDO>
F 15

$$$$
=
 OpenBabel10272401203D

 55 60  0  0  1  0  0  0  0  0999 V2000
  183.2900  174.6070  136.3930 O   0  0  0  0  0  0  0  0  0  0  0  0
  185.8520  179.4440  138.7800 C   0  0  0  0  0  2  0  0  0  0  0  0
  183.0860  178.6420  140.3010 S   0  0  0  0  0  1  0  0  0  0  0  0
  183.3330  176.5050  138.5060 C   0  0  0  0  0  2  0  0  0  0  0  0
  186.3730  172.5220  136.2780 C   0  0  0  0  0  3  0  0  0  0  0  0
  186.8680  174.8560  136.7990 C   0  0  0  0  0  0  0  0  0  0  0  0
  182.9590  175.7710  135.6860 C   0  0  0  0  0  2  0  0  0  0  0  0
  185.6020  175.2240  136.5820 C   0  0  0  0  0  3  0  0  0  0  0  0
  186.9250  178.7240  139.5990 C   0  0  0  0  0  2  0  0  0  0  0  0
  184.8390  178.4930  138.1400 C   0  0  0  0  0  2  0  0  0  0  0  0
  184.1160  177.6350  139.1750 C   0  0  1  0  0  3  0  0  0  0  0  0
  184.9020  172.8270  136.4080 C   0  0  0  0  0  2  0  0  0  0  0  0
  187.8690  177.9200  138.7150 C   0  0  2  0  0  3  0  0  0  0  0  0
  184.5910  174.2700  135.9880 C   0  0  1  0  0  3  0  0  0  0  0  0
  182.0300  176.9670  137.8420 C   0  0  1  0  0  3  0  0  0  0  0  0
  181.8200  176.5390  136.3620 C   0  0  1  0  0  3  0  0  0  0  0  0
  187.3580  176.4920  138.5820 C   0  0  0  0  0  2  0  0  0  0  0  0
  187.8550  175.8620  137.2890 C   0  0  0  0  0  2  0  0  0  0  0  0
  187.2890  173.4720  136.5040 C   0  0  0  0  0  3  0  0  0  0  0  0
  181.4190  177.7140  135.4600 C   0  0  1  0  0  0  0  0  0  0  0  0
  180.3770  178.6660  135.9290 C   0  0  2  0  0  3  0  0  0  0  0  0
  182.3350  178.1520  134.4960 O   0  0  0  0  0  1  0  0  0  0  0  0
  180.1040  177.6720  134.9580 O   0  0  0  0  0  0  0  0  0  0  0  0
  180.4620  180.0270  135.2510 C   0  0  0  0  0  2  0  0  0  0  0  0
  180.3240  181.1350  136.2800 C   0  0  0  0  0  2  0  0  0  0  0  0
  180.0750  182.4700  135.5980 C   0  0  0  0  0  2  0  0  0  0  0  0
  181.1070  183.4910  136.0550 C   0  0  1  0  0  3  0  0  0  0  0  0
  180.6650  184.8550  137.5100 C   0  0  0  0  0  2  0  0  0  0  0  0
  180.5360  184.8910  136.0080 C   0  0  0  0  0  2  0  0  0  0  0  0
  181.1920  183.4950  137.5080 N   0  0  0  0  0  2  0  0  0  0  0  0
  189.2810  177.9390  139.2910 C   0  0  0  0  0  2  0  0  0  0  0  0
  189.4600  176.9040  140.2160 O   0  0  0  0  0  0  0  0  0  0  0  0
  190.7040  178.4480  143.8560 C   0  0  1  0  0  3  0  0  0  0  0  0
  189.0620  176.0290  144.0160 C   0  0  0  0  0  2  0  0  0  0  0  0
  190.6140  176.4540  142.2860 C   0  0  1  0  0  3  0  0  0  0  0  0
  187.0310  177.2550  143.2340 C   0  0  0  0  0  1  0  0  0  0  0  0
  188.3460  177.3980  144.0010 C   0  0  2  0  0  0  0  0  0  0  0  0
  190.0630  177.5130  141.3190 C   0  0  2  0  0  3  0  0  0  0  0  0
  191.4340  177.1820  143.3740 C   0  0  0  0  0  2  0  0  0  0  0  0
  191.3870  179.5810  143.4120 O   0  0  0  0  0  1  0  0  0  0  0  0
  189.1600  178.4400  141.9130 O   0  0  0  0  0  0  0  0  0  0  0  0
  189.5490  175.6270  142.7490 O   0  0  0  0  0  0  0  0  0  0  0  0
  189.2450  178.4780  143.3350 C   0  0  2  0  0  3  0  0  0  0  0  0
  188.9720  177.1290  146.4800 C   0  0  0  0  0  1  0  0  0  0  0  0
  188.0580  177.8170  145.4630 C   0  0  2  0  0  3  0  0  0  0  0  0
  186.5710  177.7120  145.8500 C   0  0  1  0  0  3  0  0  0  0  0  0
  186.4010  177.1380  147.1170 O   0  0  0  0  0  1  0  0  0  0  0  0
  185.8570  179.0570  145.7590 C   0  0  0  0  0  2  0  0  0  0  0  0
  184.6340  179.0220  146.4300 O   0  0  0  0  0  1  0  0  0  0  0  0
  180.8420  176.5920  138.7360 C   0  0  1  0  0  3  0  0  0  0  0  0
  179.9910  177.7780  139.0900 C   0  0  0  0  0  3  0  0  0  0  0  0
  180.4540  178.9090  139.0910 O   0  0  0  0  0  0  0  0  0  0  0  0
  180.0180  175.4350  138.1650 C   0  0  0  0  0  2  0  0  0  0  0  0
  180.5200  174.0950  138.6790 C   0  0  0  0  0  2  0  0  0  0  0  0
  180.1600  172.9820  137.7140 C   0  0  0  0  0  1  0  0  0  0  0  0
  2  9  1  0  0  0  0
  4 11  1  0  0  0  0
  5 12  1  0  0  0  0
  5 19  2  0  0  0  0
  6 18  1  0  0  0  0
  7  1  1  0  0  0  0
  8  6  2  0  0  0  0
 10  2  1  0  0  0  0
 10 11  1  0  0  0  0
 11  3  1  6  0  0  0
 13 31  1  1  0  0  0
 13  9  1  0  0  0  0
 14  1  1  0  0  0  0
 14 12  1  1  0  0  0
 14  8  1  0  0  0  0
 15  4  1  0  0  0  0
 15 50  1  1  0  0  0
 16  7  1  6  0  0  0
 16 15  1  0  0  0  0
 17 13  1  0  0  0  0
 18 17  1  0  0  0  0
 19  6  1  0  0  0  0
 20 22  1  6  0  0  0
 20 21  1  0  0  0  0
 20 16  1  0  0  0  0
 21 24  1  6  0  0  0
 23 20  1  0  0  0  0
 23 21  1  0  0  0  0
 24 25  1  0  0  0  0
 26 25  1  0  0  0  0
 27 26  1  1  0  0  0
 27 30  1  0  0  0  0
 29 27  1  0  0  0  0
 29 28  1  0  0  0  0
 30 28  1  0  0  0  0
 31 32  1  0  0  0  0
 33 40  1  6  0  0  0
 35 42  1  0  0  0  0
 35 39  1  1  0  0  0
 37 36  1  6  0  0  0
 37 34  1  0  0  0  0
 37 45  1  0  0  0  0
 38 32  1  6  0  0  0
 38 41  1  0  0  0  0
 38 35  1  0  0  0  0
 39 33  1  0  0  0  0
 42 34  1  0  0  0  0
 43 41  1  6  0  0  0
 43 33  1  0  0  0  0
 43 37  1  0  0  0  0
 45 46  1  0  0  0  0
 45 44  1  1  0  0  0
 46 47  1  1  0  0  0
 48 46  1  0  0  0  0
 48 49  1  0  0  0  0
 50 53  1  6  0  0  0
 50 51  1  0  0  0  0
 51 52  2  0  0  0  0
 53 54  1  0  0  0  0
 55 54  1  0  0  0  0
M  END
>  <MODEL>
2

>  <REMARK>
 VINA RESULT:      -5.3      2.469      5.595
  Name = 
  15 active torsions:
  status: ('A' for Active; 'I' for Inactive)
    1  A    between atoms: C_8  and  O_22
    2  A    between atoms: C_8  and  C_43
    3  A    between atoms: C_9  and  C_15
    4  A    between atoms: C_9  and  C_26
    5  A    between atoms: C_10  and  C_32
    6  A    between atoms: C_11  and  C_29
    7  A    between atoms: C_13  and  C_34
    8  A    between atoms: C_13  and  C_48
    9  A    between atoms: C_14  and  C_38
   10  A    between atoms: C_16  and  C_26
   11  A    between atoms: C_20  and  O_22
   12  A    between atoms: C_26  and  C_45
   13  A    between atoms: C_29  and  C_38
   14  A    between atoms: C_32  and  C_48
   15  A    between atoms: C_33  and  C_49
                            x       y       z     vdW  Elec       q    Type
                         _______ _______ _______ _____ _____    ______ ____

>  <TORSDO>
F 15

$$$$
=
 OpenBabel10272401203D

 55 60  0  0  1  0  0  0  0  0999 V2000
  192.0590  175.9600  138.9500 O   0  0  0  0  0  0  0  0  0  0  0  0
  188.2480  176.4640  134.3800 C   0  0  0  0  0  2  0  0  0  0  0  0
  189.5640  173.4900  134.5610 S   0  0  0  0  0  1  0  0  0  0  0  0
  190.6090  174.6650  136.8800 C   0  0  0  0  0  2  0  0  0  0  0  0
  189.8350  177.4970  141.5120 C   0  0  0  0  0  3  0  0  0  0  0  0
  188.9670  177.7980  139.2500 C   0  0  0  0  0  0  0  0  0  0  0  0
  192.6710  176.5300  137.8260 C   0  0  0  0  0  2  0  0  0  0  0  0
  190.0740  177.2870  138.7040 C   0  0  0  0  0  3  0  0  0  0  0  0
  186.9510  176.3240  135.1790 C   0  0  0  0  0  2  0  0  0  0  0  0
  189.5040  176.1990  135.2130 C   0  0  0  0  0  2  0  0  0  0  0  0
  189.5040  174.8030  135.8320 C   0  0  1  0  0  3  0  0  0  0  0  0
  190.8990  176.5800  140.9590 C   0  0  0  0  0  2  0  0  0  0  0  0
  186.7980  177.4320  136.2120 C   0  0  2  0  0  3  0  0  0  0  0  0
  191.3000  176.9860  139.5350 C   0  0  1  0  0  3  0  0  0  0  0  0
  192.0100  174.5000  136.2810 C   0  0  1  0  0  3  0  0  0  0  0  0
  193.1060  175.4640  136.8170 C   0  0  1  0  0  3  0  0  0  0  0  0
  187.3820  176.9790  137.5430 C   0  0  0  0  0  2  0  0  0  0  0  0
  187.8190  178.1760  138.3740 C   0  0  0  0  0  2  0  0  0  0  0  0
  188.9090  178.0290  140.7070 C   0  0  0  0  0  3  0  0  0  0  0  0
  193.8920  176.1480  135.6900 C   0  0  1  0  0  0  0  0  0  0  0  0
  195.3790  176.1140  135.7200 C   0  0  2  0  0  3  0  0  0  0  0  0
  193.2550  176.3380  134.4580 O   0  0  0  0  0  1  0  0  0  0  0  0
  194.6460  177.2730  136.0730 O   0  0  0  0  0  0  0  0  0  0  0  0
  196.0090  176.3130  134.3470 C   0  0  0  0  0  2  0  0  0  0  0  0
  197.4380  175.7980  134.3470 C   0  0  0  0  0  2  0  0  0  0  0  0
  197.7430  175.0710  135.6470 C   0  0  0  0  0  2  0  0  0  0  0  0
  198.8660  174.0660  135.4320 C   0  0  1  0  0  3  0  0  0  0  0  0
  199.7450  173.1180  137.0130 C   0  0  0  0  0  2  0  0  0  0  0  0
  200.0630  174.4040  136.2920 C   0  0  0  0  0  2  0  0  0  0  0  0
  198.5870  172.8440  136.1720 N   0  0  0  0  0  2  0  0  0  0  0  0
  185.3310  177.8170  136.3660 C   0  0  0  0  0  2  0  0  0  0  0  0
  184.7330  177.1030  137.4110 O   0  0  0  0  0  0  0  0  0  0  0  0
  180.7770  176.2390  136.5220 C   0  0  1  0  0  3  0  0  0  0  0  0
  182.0890  174.3660  138.3500 C   0  0  0  0  0  2  0  0  0  0  0  0
  182.5300  176.6860  138.3030 C   0  0  1  0  0  3  0  0  0  0  0  0
  183.5660  173.4980  136.5340 C   0  0  0  0  0  1  0  0  0  0  0  0
  182.1930  174.0990  136.8320 C   0  0  2  0  0  0  0  0  0  0  0  0
  183.3780  177.0460  137.0740 C   0  0  2  0  0  3  0  0  0  0  0  0
  181.0410  176.8330  137.9160 C   0  0  0  0  0  2  0  0  0  0  0  0
  180.5070  177.2680  135.6170 O   0  0  0  0  0  1  0  0  0  0  0  0
  183.1940  176.1830  135.9580 O   0  0  0  0  0  0  0  0  0  0  0  0
  182.9270  175.4120  138.8030 O   0  0  0  0  0  0  0  0  0  0  0  0
  181.9940  175.4160  136.0300 C   0  0  2  0  0  3  0  0  0  0  0  0
  180.2180  172.6510  137.6140 C   0  0  0  0  0  1  0  0  0  0  0  0
  181.0830  173.0960  136.4330 C   0  0  2  0  0  3  0  0  0  0  0  0
  181.6010  171.9050  135.6070 C   0  0  1  0  0  3  0  0  0  0  0  0
  182.2310  170.9460  136.4120 O   0  0  0  0  0  1  0  0  0  0  0  0
  180.5010  171.2690  134.7620 C   0  0  0  0  0  2  0  0  0  0  0  0
  180.1360  170.0220  135.2680 O   0  0  0  0  0  1  0  0  0  0  0  0
  192.4310  173.0280  136.3640 C   0  0  1  0  0  3  0  0  0  0  0  0
  192.5940  172.3990  135.0100 C   0  0  0  0  0  3  0  0  0  0  0  0
  192.0920  171.3160  134.7510 O   0  0  0  0  0  0  0  0  0  0  0  0
  193.6570  172.8160  137.2560 C   0  0  0  0  0  2  0  0  0  0  0  0
  194.8770  172.4340  136.4330 C   0  0  0  0  0  2  0  0  0  0  0  0
  195.1710  170.9520  136.5680 C   0  0  0  0  0  1  0  0  0  0  0  0
  1 14  1  0  0  0  0
  2  9  1  0  0  0  0
  2 10  1  0  0  0  0
  6 19  1  0  0  0  0
  7  1  1  0  0  0  0
  8  6  2  0  0  0  0
  9 13  1  0  0  0  0
 10 11  1  0  0  0  0
 11  3  1  6  0  0  0
 11  4  1  0  0  0  0
 12  5  1  0  0  0  0
 13 31  1  1  0  0  0
 13 17  1  0  0  0  0
 14  8  1  6  0  0  0
 14 12  1  0  0  0  0
 15 50  1  1  0  0  0
 15 16  1  0  0  0  0
 15  4  1  0  0  0  0
 16  7  1  6  0  0  0
 17 18  1  0  0  0  0
 18  6  1  0  0  0  0
 19  5  2  0  0  0  0
 20 22  1  6  0  0  0
 20 21  1  0  0  0  0
 20 23  1  0  0  0  0
 20 16  1  0  0  0  0
 21 24  1  6  0  0  0
 21 23  1  0  0  0  0
 24 25  1  0  0  0  0
 25 26  1  0  0  0  0
 27 26  1  1  0  0  0
 27 30  1  0  0  0  0
 27 29  1  0  0  0  0
 29 28  1  0  0  0  0
 30 28  1  0  0  0  0
 31 32  1  0  0  0  0
 33 40  1  6  0  0  0
 33 39  1  0  0  0  0
 34 42  1  0  0  0  0
 35 39  1  6  0  0  0
 35 42  1  0  0  0  0
 37 36  1  6  0  0  0
 37 34  1  0  0  0  0
 38 32  1  1  0  0  0
 38 35  1  0  0  0  0
 41 38  1  0  0  0  0
 43 41  1  1  0  0  0
 43 33  1  0  0  0  0
 43 37  1  0  0  0  0
 45 37  1  0  0  0  0
 45 44  1  1  0  0  0
 46 47  1  1  0  0  0
 46 45  1  0  0  0  0
 48 49  1  0  0  0  0
 48 46  1  0  0  0  0
 50 51  1  6  0  0  0
 50 53  1  0  0  0  0
 52 51  2  0  0  0  0
 54 55  1  0  0  0  0
 54 53  1  0  0  0  0
M  END
>  <MODEL>
3

>  <REMARK>
 VINA RESULT:      -4.7      5.297     11.061
  Name = 
  15 active torsions:
  status: ('A' for Active; 'I' for Inactive)
    1  A    between atoms: C_8  and  O_22
    2  A    between atoms: C_8  and  C_43
    3  A    between atoms: C_9  and  C_15
    4  A    between atoms: C_9  and  C_26
    5  A    between atoms: C_10  and  C_32
    6  A    between atoms: C_11  and  C_29
    7  A    between atoms: C_13  and  C_34
    8  A    between atoms: C_13  and  C_48
    9  A    between atoms: C_14  and  C_38
   10  A    between atoms: C_16  and  C_26
   11  A    between atoms: C_20  and  O_22
   12  A    between atoms: C_26  and  C_45
   13  A    between atoms: C_29  and  C_38
   14  A    between atoms: C_32  and  C_48
   15  A    between atoms: C_33  and  C_49
                            x       y       z     vdW  Elec       q    Type
                         _______ _______ _______ _____ _____    ______ ____

>  <TORSDO>
F 15

$$$$
=
 OpenBabel10272401203D

 55 60  0  0  1  0  0  0  0  0999 V2000
  192.2600  175.7440  138.9280 O   0  0  0  0  0  0  0  0  0  0  0  0
  188.3580  175.6130  134.4110 C   0  0  0  0  0  2  0  0  0  0  0  0
  189.9790  172.8060  134.7160 S   0  0  0  0  0  1  0  0  0  0  0  0
  190.9260  174.2000  136.9530 C   0  0  0  0  0  2  0  0  0  0  0  0
  189.9230  177.1730  141.4510 C   0  0  0  0  0  3  0  0  0  0  0  0
  188.9980  177.2650  139.1930 C   0  0  0  0  0  0  0  0  0  0  0  0
  192.7950  176.3160  137.7660 C   0  0  0  0  0  2  0  0  0  0  0  0
  190.1450  176.8440  138.6530 C   0  0  0  0  0  3  0  0  0  0  0  0
  187.0930  175.3810  135.2390 C   0  0  0  0  0  2  0  0  0  0  0  0
  189.6460  175.5230  135.2320 C   0  0  0  0  0  2  0  0  0  0  0  0
  189.7990  174.1690  135.9200 C   0  0  1  0  0  3  0  0  0  0  0  0
  191.0680  176.3440  140.9240 C   0  0  0  0  0  2  0  0  0  0  0  0
  186.8390  176.5200  136.2180 C   0  0  2  0  0  3  0  0  0  0  0  0
  191.4070  176.7150  139.4750 C   0  0  1  0  0  3  0  0  0  0  0  0
  192.3290  174.1510  136.3380 C   0  0  1  0  0  3  0  0  0  0  0  0
  193.3260  175.2500  136.8040 C   0  0  1  0  0  3  0  0  0  0  0  0
  187.4850  176.1980  137.5590 C   0  0  0  0  0  2  0  0  0  0  0  0
  187.8050  177.4760  138.3210 C   0  0  0  0  0  2  0  0  0  0  0  0
  188.9350  177.5640  140.6380 C   0  0  0  0  0  3  0  0  0  0  0  0
  194.0210  175.9530  135.6300 C   0  0  1  0  0  0  0  0  0  0  0  0
  195.4800  176.2270  135.7120 C   0  0  2  0  0  3  0  0  0  0  0  0
  193.4280  175.8710  134.3630 O   0  0  0  0  0  1  0  0  0  0  0  0
  194.5120  177.2430  135.9010 O   0  0  0  0  0  0  0  0  0  0  0  0
  196.1330  176.3990  134.3460 C   0  0  0  0  0  2  0  0  0  0  0  0
  197.6430  176.2830  134.4700 C   0  0  0  0  0  2  0  0  0  0  0  0
  198.0200  175.5730  135.7590 C   0  0  0  0  0  2  0  0  0  0  0  0
  198.5720  174.1880  135.4520 C   0  0  1  0  0  3  0  0  0  0  0  0
  198.6560  172.7440  136.8940 C   0  0  0  0  0  2  0  0  0  0  0  0
  199.6380  173.7990  136.4510 C   0  0  0  0  0  2  0  0  0  0  0  0
  197.6490  173.1680  135.9290 N   0  0  0  0  0  2  0  0  0  0  0  0
  185.3410  176.7570  136.3800 C   0  0  0  0  0  2  0  0  0  0  0  0
  185.0220  177.0580  137.7090 O   0  0  0  0  0  0  0  0  0  0  0  0
  180.9650  176.7170  138.4870 C   0  0  1  0  0  3  0  0  0  0  0  0
  182.0640  179.4200  138.7230 C   0  0  0  0  0  2  0  0  0  0  0  0
  182.8080  177.8310  137.1420 C   0  0  1  0  0  3  0  0  0  0  0  0
  183.3650  178.8040  140.7640 C   0  0  0  0  0  1  0  0  0  0  0  0
  182.0920  178.5090  139.9710 C   0  0  2  0  0  0  0  0  0  0  0  0
  183.6630  176.7540  137.8260 C   0  0  2  0  0  3  0  0  0  0  0  0
  181.3420  177.3410  137.1330 C   0  0  0  0  0  2  0  0  0  0  0  0
  180.8100  175.3370  138.3410 O   0  0  0  0  0  1  0  0  0  0  0  0
  183.3370  176.5220  139.1920 O   0  0  0  0  0  0  0  0  0  0  0  0
  183.0460  179.0940  137.7580 O   0  0  0  0  0  0  0  0  0  0  0  0
  182.0480  177.0120  139.5550 C   0  0  2  0  0  3  0  0  0  0  0  0
  180.1970  180.1670  140.4920 C   0  0  0  0  0  1  0  0  0  0  0  0
  180.8480  178.8260  140.8370 C   0  0  2  0  0  3  0  0  0  0  0  0
  181.0980  178.6710  142.3480 C   0  0  1  0  0  3  0  0  0  0  0  0
  181.3070  179.9080  142.9730 O   0  0  0  0  0  1  0  0  0  0  0  0
  179.9820  177.8930  143.0390 C   0  0  0  0  0  2  0  0  0  0  0  0
  180.1670  177.8730  144.4220 O   0  0  0  0  0  1  0  0  0  0  0  0
  192.9030  172.7370  136.4860 C   0  0  1  0  0  3  0  0  0  0  0  0
  193.1130  172.0590  135.1620 C   0  0  0  0  0  3  0  0  0  0  0  0
  193.0030  170.8470  135.0480 O   0  0  0  0  0  0  0  0  0  0  0  0
  194.1550  172.7000  137.3650 C   0  0  0  0  0  2  0  0  0  0  0  0
  195.1040  171.5970  136.9240 C   0  0  0  0  0  2  0  0  0  0  0  0
  195.5260  170.7480  138.1080 C   0  0  0  0  0  1  0  0  0  0  0  0
  1 14  1  0  0  0  0
  2 10  1  0  0  0  0
  2  9  1  0  0  0  0
  6 19  1  0  0  0  0
  7  1  1  0  0  0  0
  8  6  2  0  0  0  0
  9 13  1  0  0  0  0
 10 11  1  0  0  0  0
 11  3  1  6  0  0  0
 11  4  1  0  0  0  0
 12  5  1  0  0  0  0
 13 31  1  1  0  0  0
 13 17  1  0  0  0  0
 14  8  1  6  0  0  0
 14 12  1  0  0  0  0
 15 50  1  1  0  0  0
 15 16  1  0  0  0  0
 15  4  1  0  0  0  0
 16  7  1  6  0  0  0
 17 18  1  0  0  0  0
 18  6  1  0  0  0  0
 19  5  2  0  0  0  0
 20 22  1  6  0  0  0
 20 21  1  0  0  0  0
 20 23  1  0  0  0  0
 20 16  1  0  0  0  0
 21 24  1  6  0  0  0
 21 23  1  0  0  0  0
 24 25  1  0  0  0  0
 25 26  1  0  0  0  0
 27 26  1  1  0  0  0
 27 30  1  0  0  0  0
 27 29  1  0  0  0  0
 29 28  1  0  0  0  0
 30 28  1  0  0  0  0
 31 32  1  0  0  0  0
 33 40  1  6  0  0  0
 33 43  1  0  0  0  0
 34 37  1  0  0  0  0
 35 39  1  1  0  0  0
 35 42  1  0  0  0  0
 35 38  1  0  0  0  0
 37 36  1  1  0  0  0
 37 45  1  0  0  0  0
 38 32  1  1  0  0  0
 38 41  1  0  0  0  0
 39 33  1  0  0  0  0
 42 34  1  0  0  0  0
 43 41  1  6  0  0  0
 43 37  1  0  0  0  0
 45 44  1  1  0  0  0
 45 46  1  0  0  0  0
 46 47  1  1  0  0  0
 46 48  1  0  0  0  0
 48 49  1  0  0  0  0
 50 51  1  6  0  0  0
 50 53  1  0  0  0  0
 52 51  2  0  0  0  0
 54 53  1  0  0  0  0
 54 55  1  0  0  0  0
M  END
>  <MODEL>
4

>  <REMARK>
 VINA RESULT:      -4.6      5.338     10.329
  Name = 
  15 active torsions:
  status: ('A' for Active; 'I' for Inactive)
    1  A    between atoms: C_8  and  O_22
    2  A    between atoms: C_8  and  C_43
    3  A    between atoms: C_9  and  C_15
    4  A    between atoms: C_9  and  C_26
    5  A    between atoms: C_10  and  C_32
    6  A    between atoms: C_11  and  C_29
    7  A    between atoms: C_13  and  C_34
    8  A    between atoms: C_13  and  C_48
    9  A    between atoms: C_14  and  C_38
   10  A    between atoms: C_16  and  C_26
   11  A    between atoms: C_20  and  O_22
   12  A    between atoms: C_26  and  C_45
   13  A    between atoms: C_29  and  C_38
   14  A    between atoms: C_32  and  C_48
   15  A    between atoms: C_33  and  C_49
                            x       y       z     vdW  Elec       q    Type
                         _______ _______ _______ _____ _____    ______ ____

>  <TORSDO>
F 15

$$$$
=
 OpenBabel10272401203D

 55 60  0  0  1  0  0  0  0  0999 V2000
  183.1330  178.5250  141.2700 O   0  0  0  0  0  0  0  0  0  0  0  0
  187.2210  176.5240  137.4040 C   0  0  0  0  0  2  0  0  0  0  0  0
  185.0850  178.5420  135.9990 S   0  0  0  0  0  1  0  0  0  0  0  0
  184.2770  178.7080  138.6760 C   0  0  0  0  0  2  0  0  0  0  0  0
  185.5330  179.4520  143.9620 C   0  0  0  0  0  3  0  0  0  0  0  0
  186.6000  178.1420  142.2000 C   0  0  0  0  0  0  0  0  0  0  0  0
  182.7910  177.2650  140.7590 C   0  0  0  0  0  2  0  0  0  0  0  0
  185.4310  177.9110  141.5960 C   0  0  0  0  0  3  0  0  0  0  0  0
  188.3650  177.4520  137.8160 C   0  0  0  0  0  2  0  0  0  0  0  0
  185.8890  176.8660  138.0750 C   0  0  0  0  0  2  0  0  0  0  0  0
  185.4410  178.2950  137.7750 C   0  0  1  0  0  3  0  0  0  0  0  0
  184.2880  179.5390  143.1150 C   0  0  0  0  0  2  0  0  0  0  0  0
  188.7650  177.2480  139.2700 C   0  0  2  0  0  3  0  0  0  0  0  0
  184.1180  178.2880  142.2420 C   0  0  1  0  0  3  0  0  0  0  0  0
  182.9320  178.1000  138.2640 C   0  0  1  0  0  3  0  0  0  0  0  0
  182.1310  177.3740  139.3810 C   0  0  1  0  0  3  0  0  0  0  0  0
  187.9870  178.2100  140.1580 C   0  0  0  0  0  2  0  0  0  0  0  0
  187.8640  177.6580  141.5710 C   0  0  0  0  0  2  0  0  0  0  0  0
  186.6260  178.8300  143.5060 C   0  0  0  0  0  3  0  0  0  0  0  0
  181.6560  175.9780  138.9550 C   0  0  1  0  0  0  0  0  0  0  0  0
  180.3290  175.8330  138.3000 C   0  0  2  0  0  3  0  0  0  0  0  0
  182.6220  174.9900  138.7290 O   0  0  0  0  0  1  0  0  0  0  0  0
  180.5410  175.4770  139.6540 O   0  0  0  0  0  0  0  0  0  0  0  0
  180.2140  174.5700  137.4560 C   0  0  0  0  0  2  0  0  0  0  0  0
  180.0670  174.9320  135.9880 C   0  0  0  0  0  2  0  0  0  0  0  0
  180.4740  173.7630  135.1070 C   0  0  0  0  0  2  0  0  0  0  0  0
  181.7480  174.1010  134.3460 C   0  0  1  0  0  3  0  0  0  0  0  0
  183.5600  174.1360  135.2900 C   0  0  0  0  0  2  0  0  0  0  0  0
  182.5170  175.1990  135.0460 C   0  0  0  0  0  2  0  0  0  0  0  0
  182.7730  173.1050  134.6240 N   0  0  0  0  0  2  0  0  0  0  0  0
  190.2670  177.4470  139.4410 C   0  0  0  0  0  2  0  0  0  0  0  0
  190.9610  176.2560  139.1980 O   0  0  0  0  0  0  0  0  0  0  0  0
  192.1030  175.7900  135.2400 C   0  0  1  0  0  3  0  0  0  0  0  0
  192.9330  173.6400  137.0460 C   0  0  0  0  0  2  0  0  0  0  0  0
  190.9000  174.8250  137.2570 C   0  0  1  0  0  3  0  0  0  0  0  0
  194.5540  175.1350  138.2170 C   0  0  0  0  0  1  0  0  0  0  0  0
  193.8710  174.8550  136.8780 C   0  0  2  0  0  0  0  0  0  0  0  0
  191.1550  176.2330  137.8150 C   0  0  2  0  0  3  0  0  0  0  0  0
  190.9350  174.9080  135.7140 C   0  0  0  0  0  2  0  0  0  0  0  0
  191.6050  176.9810  134.7090 O   0  0  0  0  0  1  0  0  0  0  0  0
  192.4350  176.7690  137.4980 O   0  0  0  0  0  0  0  0  0  0  0  0
  191.8030  173.9000  137.8580 O   0  0  0  0  0  0  0  0  0  0  0  0
  193.0710  176.1030  136.4090 C   0  0  2  0  0  3  0  0  0  0  0  0
  194.6560  173.1920  135.0820 C   0  0  0  0  0  1  0  0  0  0  0  0
  194.9350  174.5100  135.8080 C   0  0  2  0  0  3  0  0  0  0  0  0
  196.3810  174.5930  136.3310 C   0  0  1  0  0  3  0  0  0  0  0  0
  196.9720  173.3270  136.4360 O   0  0  0  0  0  1  0  0  0  0  0  0
  197.2440  175.5300  135.4900 C   0  0  0  0  0  2  0  0  0  0  0  0
  196.9940  176.8640  135.8120 O   0  0  0  0  0  1  0  0  0  0  0  0
  182.0950  179.1590  137.5360 C   0  0  1  0  0  3  0  0  0  0  0  0
  181.4400  178.6220  136.2960 C   0  0  0  0  0  3  0  0  0  0  0  0
  180.2280  178.4710  136.2350 O   0  0  0  0  0  0  0  0  0  0  0  0
  181.0990  179.8610  138.4630 C   0  0  0  0  0  2  0  0  0  0  0  0
  181.4850  181.3140  138.6860 C   0  0  0  0  0  2  0  0  0  0  0  0
  180.8520  182.2050  137.6340 C   0  0  0  0  0  1  0  0  0  0  0  0
  1 14  1  0  0  0  0
  2  9  1  0  0  0  0
  2 10  1  0  0  0  0
  6 19  1  0  0  0  0
  7  1  1  0  0  0  0
  8  6  2  0  0  0  0
  9 13  1  0  0  0  0
 11  3  1  6  0  0  0
 11 10  1  0  0  0  0
 11  4  1  0  0  0  0
 12  5  1  0  0  0  0
 13 31  1  6  0  0  0
 13 17  1  0  0  0  0
 14  8  1  6  0  0  0
 14 12  1  0  0  0  0
 15 50  1  1  0  0  0
 15  4  1  0  0  0  0
 15 16  1  0  0  0  0
 16  7  1  1  0  0  0
 17 18  1  0  0  0  0
 18  6  1  0  0  0  0
 19  5  2  0  0  0  0
 20 22  1  6  0  0  0
 20 16  1  0  0  0  0
 20 23  1  0  0  0  0
 21 24  1  6  0  0  0
 21 20  1  0  0  0  0
 21 23  1  0  0  0  0
 25 24  1  0  0  0  0
 26 25  1  0  0  0  0
 27 30  1  0  0  0  0
 27 29  1  0  0  0  0
 27 26  1  1  0  0  0
 29 28  1  0  0  0  0
 30 28  1  0  0  0  0
 32 31  1  0  0  0  0
 33 40  1  1  0  0  0
 33 39  1  0  0  0  0
 33 43  1  0  0  0  0
 34 42  1  0  0  0  0
 35 39  1  6  0  0  0
 35 38  1  0  0  0  0
 35 42  1  0  0  0  0
 37 34  1  0  0  0  0
 37 36  1  1  0  0  0
 38 32  1  1  0  0  0
 41 38  1  0  0  0  0
 43 37  1  0  0  0  0
 43 41  1  1  0  0  0
 45 44  1  1  0  0  0
 45 46  1  0  0  0  0
 45 37  1  0  0  0  0
 46 47  1  6  0  0  0
 48 49  1  0  0  0  0
 48 46  1  0  0  0  0
 50 51  1  6  0  0  0
 50 53  1  0  0  0  0
 52 51  2  0  0  0  0
 53 54  1  0  0  0  0
 55 54  1  0  0  0  0
M  END
>  <MODEL>
5

>  <REMARK>
 VINA RESULT:      -4.3      3.912      6.499
  Name = 
  15 active torsions:
  status: ('A' for Active; 'I' for Inactive)
    1  A    between atoms: C_8  and  O_22
    2  A    between atoms: C_8  and  C_43
    3  A    between atoms: C_9  and  C_15
    4  A    between atoms: C_9  and  C_26
    5  A    between atoms: C_10  and  C_32
    6  A    between atoms: C_11  and  C_29
    7  A    between atoms: C_13  and  C_34
    8  A    between atoms: C_13  and  C_48
    9  A    between atoms: C_14  and  C_38
   10  A    between atoms: C_16  and  C_26
   11  A    between atoms: C_20  and  O_22
   12  A    between atoms: C_26  and  C_45
   13  A    between atoms: C_29  and  C_38
   14  A    between atoms: C_32  and  C_48
   15  A    between atoms: C_33  and  C_49
                            x       y       z     vdW  Elec       q    Type
                         _______ _______ _______ _____ _____    ______ ____

>  <TORSDO>
F 15

$$$$
=
 OpenBabel10272401203D

 55 60  0  0  1  0  0  0  0  0999 V2000
  192.6050  176.0960  138.7930 O   0  0  0  0  0  0  0  0  0  0  0  0
  188.8810  174.6620  134.3520 C   0  0  0  0  0  2  0  0  0  0  0  0
  190.8370  172.1880  135.1620 S   0  0  0  0  0  1  0  0  0  0  0  0
  191.5350  174.0670  137.1190 C   0  0  0  0  0  2  0  0  0  0  0  0
  190.0340  177.6310  141.0070 C   0  0  0  0  0  3  0  0  0  0  0  0
  189.1690  177.2020  138.7650 C   0  0  0  0  0  0  0  0  0  0  0  0
  193.0950  176.5180  137.5500 C   0  0  0  0  0  2  0  0  0  0  0  0
  190.3760  176.8450  138.3150 C   0  0  0  0  0  3  0  0  0  0  0  0
  187.6320  174.4170  135.2010 C   0  0  0  0  0  2  0  0  0  0  0  0
  190.1450  174.8870  135.1820 C   0  0  0  0  0  2  0  0  0  0  0  0
  190.4510  173.7070  136.1020 C   0  0  1  0  0  3  0  0  0  0  0  0
  191.2900  176.8790  140.6440 C   0  0  0  0  0  2  0  0  0  0  0  0
  187.2080  175.6680  135.9600 C   0  0  2  0  0  3  0  0  0  0  0  0
  191.6200  177.0290  139.1530 C   0  0  1  0  0  3  0  0  0  0  0  0
  192.9490  174.0930  136.5290 C   0  0  1  0  0  3  0  0  0  0  0  0
  193.7840  175.3770  136.7970 C   0  0  1  0  0  3  0  0  0  0  0  0
  187.8510  175.6750  137.3400 C   0  0  0  0  0  2  0  0  0  0  0  0
  187.9850  177.0980  137.8630 C   0  0  0  0  0  2  0  0  0  0  0  0
  189.0280  177.7400  140.1320 C   0  0  0  0  0  3  0  0  0  0  0  0
  194.4180  175.9460  135.5200 C   0  0  1  0  0  0  0  0  0  0  0  0
  195.4940  176.9660  135.6370 C   0  0  2  0  0  3  0  0  0  0  0  0
  194.3500  175.1810  134.3490 O   0  0  0  0  0  1  0  0  0  0  0  0
  194.1690  177.3090  135.2750 O   0  0  0  0  0  0  0  0  0  0  0  0
  196.3890  177.0340  134.4060 C   0  0  0  0  0  2  0  0  0  0  0  0
  197.7710  176.4970  134.7340 C   0  0  0  0  0  2  0  0  0  0  0  0
  197.8780  175.0300  134.3490 C   0  0  0  0  0  2  0  0  0  0  0  0
  197.8990  174.1620  135.6000 C   0  0  1  0  0  3  0  0  0  0  0  0
  199.5560  174.0730  136.7910 C   0  0  0  0  0  2  0  0  0  0  0  0
  199.1090  173.2550  135.6050 C   0  0  0  0  0  2  0  0  0  0  0  0
  198.3830  174.9360  136.7340 N   0  0  0  0  0  2  0  0  0  0  0  0
  185.6880  175.7330  136.0690 C   0  0  0  0  0  2  0  0  0  0  0  0
  185.1010  174.5520  135.6010 O   0  0  0  0  0  0  0  0  0  0  0  0
  181.3500  175.2540  137.2210 C   0  0  1  0  0  3  0  0  0  0  0  0
  182.4010  177.3920  135.5190 C   0  0  0  0  0  2  0  0  0  0  0  0
  182.7960  175.0940  135.1400 C   0  0  1  0  0  3  0  0  0  0  0  0
  184.1600  177.9750  137.1920 C   0  0  0  0  0  1  0  0  0  0  0  0
  182.7450  177.4220  137.0240 C   0  0  2  0  0  0  0  0  0  0  0  0
  183.8160  174.5510  136.1510 C   0  0  2  0  0  3  0  0  0  0  0  0
  181.3830  174.8840  135.7290 C   0  0  0  0  0  2  0  0  0  0  0  0
  181.2030  174.0970  137.9880 O   0  0  0  0  0  1  0  0  0  0  0  0
  183.8260  175.2320  137.4010 O   0  0  0  0  0  0  0  0  0  0  0  0
  183.1370  176.4320  134.7850 O   0  0  0  0  0  0  0  0  0  0  0  0
  182.6460  175.9960  137.6360 C   0  0  2  0  0  3  0  0  0  0  0  0
  181.0390  179.3320  136.7960 C   0  0  0  0  0  1  0  0  0  0  0  0
  181.7320  178.3470  137.7420 C   0  0  2  0  0  3  0  0  0  0  0  0
  182.3110  179.0430  138.9870 C   0  0  1  0  0  3  0  0  0  0  0  0
  181.7560  180.3150  139.1790 O   0  0  0  0  0  1  0  0  0  0  0  0
  182.1660  178.1880  140.2430 C   0  0  0  0  0  2  0  0  0  0  0  0
  183.4020  177.9850  140.8560 O   0  0  0  0  0  1  0  0  0  0  0  0
  193.6940  172.8140  136.9320 C   0  0  1  0  0  3  0  0  0  0  0  0
  194.0450  171.9570  135.7490 C   0  0  0  0  0  3  0  0  0  0  0  0
  193.7590  170.7690  135.7220 O   0  0  0  0  0  0  0  0  0  0  0  0
  194.9030  173.0940  137.8270 C   0  0  0  0  0  2  0  0  0  0  0  0
  195.5140  171.8040  138.3480 C   0  0  0  0  0  2  0  0  0  0  0  0
  196.7270  171.4150  137.5250 C   0  0  0  0  0  1  0  0  0  0  0  0
  1 14  1  0  0  0  0
  2 10  1  0  0  0  0
  2  9  1  0  0  0  0
  6 19  1  0  0  0  0
  7  1  1  0  0  0  0
  8  6  2  0  0  0  0
  9 13  1  0  0  0  0
 10 11  1  0  0  0  0
 11  3  1  6  0  0  0
 11  4  1  0  0  0  0
 12  5  1  0  0  0  0
 13 31  1  1  0  0  0
 13 17  1  0  0  0  0
 14  8  1  6  0  0  0
 14 12  1  0  0  0  0
 15 16  1  0  0  0  0
 15 50  1  1  0  0  0
 15  4  1  0  0  0  0
 16  7  1  6  0  0  0
 17 18  1  0  0  0  0
 18  6  1  0  0  0  0
 19  5  2  0  0  0  0
 20 22  1  6  0  0  0
 20 21  1  0  0  0  0
 20 16  1  0  0  0  0
 21 24  1  6  0  0  0
 23 20  1  0  0  0  0
 23 21  1  0  0  0  0
 24 25  1  0  0  0  0
 26 25  1  0  0  0  0
 27 26  1  6  0  0  0
 27 29  1  0  0  0  0
 27 30  1  0  0  0  0
 29 28  1  0  0  0  0
 30 28  1  0  0  0  0
 32 31  1  0  0  0  0
 33 43  1  0  0  0  0
 33 40  1  1  0  0  0
 34 37  1  0  0  0  0
 35 39  1  1  0  0  0
 35 38  1  0  0  0  0
 37 36  1  1  0  0  0
 37 43  1  0  0  0  0
 37 45  1  0  0  0  0
 38 32  1  6  0  0  0
 38 41  1  0  0  0  0
 39 33  1  0  0  0  0
 42 35  1  0  0  0  0
 42 34  1  0  0  0  0
 43 41  1  6  0  0  0
 45 44  1  6  0  0  0
 45 46  1  0  0  0  0
 46 47  1  1  0  0  0
 46 48  1  0  0  0  0
 48 49  1  0  0  0  0
 50 51  1  6  0  0  0
 50 53  1  0  0  0  0
 52 51  2  0  0  0  0
 53 54  1  0  0  0  0
 55 54  1  0  0  0  0
M  END
>  <MODEL>
6

>  <REMARK>
 VINA RESULT:      -4.1      5.531     10.962
  Name = 
  15 active torsions:
  status: ('A' for Active; 'I' for Inactive)
    1  A    between atoms: C_8  and  O_22
    2  A    between atoms: C_8  and  C_43
    3  A    between atoms: C_9  and  C_15
    4  A    between atoms: C_9  and  C_26
    5  A    between atoms: C_10  and  C_32
    6  A    between atoms: C_11  and  C_29
    7  A    between atoms: C_13  and  C_34
    8  A    between atoms: C_13  and  C_48
    9  A    between atoms: C_14  and  C_38
   10  A    between atoms: C_16  and  C_26
   11  A    between atoms: C_20  and  O_22
   12  A    between atoms: C_26  and  C_45
   13  A    between atoms: C_29  and  C_38
   14  A    between atoms: C_32  and  C_48
   15  A    between atoms: C_33  and  C_49
                            x       y       z     vdW  Elec       q    Type
                         _______ _______ _______ _____ _____    ______ ____

>  <TORSDO>
F 15

$$$$
=
 OpenBabel10272401203D

 55 60  0  0  1  0  0  0  0  0999 V2000
  182.7020  174.5460  137.2980 O   0  0  0  0  0  0  0  0  0  0  0  0
  186.8150  178.5270  135.5990 C   0  0  0  0  0  2  0  0  0  0  0  0
  185.5050  179.2700  138.4860 S   0  0  0  0  0  1  0  0  0  0  0  0
  184.2980  176.7920  137.9880 C   0  0  0  0  0  2  0  0  0  0  0  0
  184.7370  171.5140  136.5660 C   0  0  0  0  0  3  0  0  0  0  0  0
  185.7570  173.5390  135.6600 C   0  0  0  0  0  0  0  0  0  0  0  0
  182.1660  175.5050  136.4290 C   0  0  0  0  0  2  0  0  0  0  0  0
  184.6920  174.2780  135.9830 C   0  0  0  0  0  3  0  0  0  0  0  0
  188.0550  177.7140  135.9730 C   0  0  0  0  0  2  0  0  0  0  0  0
  185.5060  177.8880  136.0660 C   0  0  0  0  0  2  0  0  0  0  0  0
  185.4710  177.6830  137.5790 C   0  0  1  0  0  3  0  0  0  0  0  0
  183.7190  172.3710  137.2770 C   0  0  0  0  0  2  0  0  0  0  0  0
  188.1310  176.4060  135.1980 C   0  0  2  0  0  3  0  0  0  0  0  0
  183.4140  173.6490  136.4860 C   0  0  1  0  0  3  0  0  0  0  0  0
  182.9420  177.5050  137.9590 C   0  0  1  0  0  3  0  0  0  0  0  0
  181.8060  176.7980  137.1670 C   0  0  1  0  0  3  0  0  0  0  0  0
  187.4590  175.2960  135.9960 C   0  0  0  0  0  2  0  0  0  0  0  0
  186.9600  174.1960  135.0700 C   0  0  0  0  0  2  0  0  0  0  0  0
  185.7140  172.0740  135.8440 C   0  0  0  0  0  3  0  0  0  0  0  0
  181.0960  177.7400  136.1850 C   0  0  1  0  0  0  0  0  0  0  0  0
  181.3160  179.2060  136.3000 C   0  0  2  0  0  3  0  0  0  0  0  0
  180.6860  177.2230  134.9500 O   0  0  0  0  0  1  0  0  0  0  0  0
  180.1250  178.5870  136.7520 O   0  0  0  0  0  0  0  0  0  0  0  0
  181.0350  179.9560  135.0040 C   0  0  0  0  0  2  0  0  0  0  0  0
  180.0790  181.1080  135.2610 C   0  0  0  0  0  2  0  0  0  0  0  0
  180.3350  181.7180  136.6300 C   0  0  0  0  0  2  0  0  0  0  0  0
  181.2080  182.9570  136.4940 C   0  0  1  0  0  3  0  0  0  0  0  0
  180.4250  184.7310  135.8490 C   0  0  0  0  0  2  0  0  0  0  0  0
  181.0600  183.5720  135.1200 C   0  0  0  0  0  2  0  0  0  0  0  0
  180.5690  184.0900  137.1500 N   0  0  0  0  0  2  0  0  0  0  0  0
  189.5830  176.0520  134.8930 C   0  0  0  0  0  2  0  0  0  0  0  0
  190.0360  175.0270  135.7310 O   0  0  0  0  0  0  0  0  0  0  0  0
  193.7420  176.0120  137.3070 C   0  0  1  0  0  3  0  0  0  0  0  0
  193.8060  174.3730  134.8820 C   0  0  0  0  0  2  0  0  0  0  0  0
  192.1840  176.0380  135.3010 C   0  0  1  0  0  3  0  0  0  0  0  0
  192.8780  172.3960  136.0920 C   0  0  0  0  0  1  0  0  0  0  0  0
  193.7320  173.6540  136.2470 C   0  0  2  0  0  0  0  0  0  0  0  0
  191.1740  175.5500  136.3500 C   0  0  2  0  0  3  0  0  0  0  0  0
  193.3200  176.7790  136.0410 C   0  0  0  0  0  2  0  0  0  0  0  0
  193.3360  176.7190  138.4400 O   0  0  0  0  0  1  0  0  0  0  0  0
  191.6970  174.6050  137.2770 O   0  0  0  0  0  0  0  0  0  0  0  0
  192.5790  174.9470  134.4730 O   0  0  0  0  0  0  0  0  0  0  0  0
  193.1210  174.5930  137.3260 C   0  0  2  0  0  3  0  0  0  0  0  0
  195.5750  171.8630  136.2160 C   0  0  0  0  0  1  0  0  0  0  0  0
  195.1680  173.2650  136.6750 C   0  0  2  0  0  3  0  0  0  0  0  0
  195.4440  173.4910  138.1730 C   0  0  1  0  0  3  0  0  0  0  0  0
  195.6880  172.2870  138.8470 O   0  0  0  0  0  1  0  0  0  0  0  0
  196.5780  174.4850  138.4040 C   0  0  0  0  0  2  0  0  0  0  0  0
  196.3760  175.2120  139.5780 O   0  0  0  0  0  1  0  0  0  0  0  0
  182.5230  177.8640  139.3910 C   0  0  1  0  0  3  0  0  0  0  0  0
  181.2060  177.2520  139.7750 C   0  0  0  0  0  3  0  0  0  0  0  0
  180.4830  177.7800  140.6070 O   0  0  0  0  0  0  0  0  0  0  0  0
  183.6220  177.5720  140.4150 C   0  0  0  0  0  2  0  0  0  0  0  0
  183.8130  178.7420  141.3670 C   0  0  0  0  0  2  0  0  0  0  0  0
  184.7170  178.3530  142.5210 C   0  0  0  0  0  1  0  0  0  0  0  0
  2  9  1  0  0  0  0
  2 10  1  0  0  0  0
  5 12  1  0  0  0  0
  6 19  1  0  0  0  0
  6  8  2  0  0  0  0
  7  1  1  0  0  0  0
 10 11  1  0  0  0  0
 11  4  1  0  0  0  0
 11  3  1  1  0  0  0
 13 31  1  1  0  0  0
 13  9  1  0  0  0  0
 13 17  1  0  0  0  0
 14  8  1  1  0  0  0
 14 12  1  0  0  0  0
 14  1  1  0  0  0  0
 15  4  1  0  0  0  0
 15 50  1  1  0  0  0
 16  7  1  6  0  0  0
 16 15  1  0  0  0  0
 18  6  1  0  0  0  0
 18 17  1  0  0  0  0
 19  5  2  0  0  0  0
 20 22  1  6  0  0  0
 20 21  1  0  0  0  0
 20 23  1  0  0  0  0
 20 16  1  0  0  0  0
 21 24  1  6  0  0  0
 21 23  1  0  0  0  0
 24 25  1  0  0  0  0
 25 26  1  0  0  0  0
 27 26  1  6  0  0  0
 27 30  1  0  0  0  0
 28 30  1  0  0  0  0
 29 28  1  0  0  0  0
 29 27  1  0  0  0  0
 31 32  1  0  0  0  0
 33 43  1  0  0  0  0
 33 40  1  1  0  0  0
 34 37  1  0  0  0  0
 35 39  1  1  0  0  0
 35 38  1  0  0  0  0
 37 36  1  6  0  0  0
 37 45  1  0  0  0  0
 37 43  1  0  0  0  0
 38 32  1  6  0  0  0
 38 41  1  0  0  0  0
 39 33  1  0  0  0  0
 42 34  1  0  0  0  0
 42 35  1  0  0  0  0
 43 41  1  6  0  0  0
 45 44  1  1  0  0  0
 45 46  1  0  0  0  0
 46 48  1  0  0  0  0
 46 47  1  6  0  0  0
 48 49  1  0  0  0  0
 50 51  1  1  0  0  0
 50 53  1  0  0  0  0
 51 52  2  0  0  0  0
 53 54  1  0  0  0  0
 54 55  1  0  0  0  0
M  END
>  <MODEL>
7

>  <REMARK>
 VINA RESULT:      -4.0      4.337      8.168
  Name = 
  15 active torsions:
  status: ('A' for Active; 'I' for Inactive)
    1  A    between atoms: C_8  and  O_22
    2  A    between atoms: C_8  and  C_43
    3  A    between atoms: C_9  and  C_15
    4  A    between atoms: C_9  and  C_26
    5  A    between atoms: C_10  and  C_32
    6  A    between atoms: C_11  and  C_29
    7  A    between atoms: C_13  and  C_34
    8  A    between atoms: C_13  and  C_48
    9  A    between atoms: C_14  and  C_38
   10  A    between atoms: C_16  and  C_26
   11  A    between atoms: C_20  and  O_22
   12  A    between atoms: C_26  and  C_45
   13  A    between atoms: C_29  and  C_38
   14  A    between atoms: C_32  and  C_48
   15  A    between atoms: C_33  and  C_49
                            x       y       z     vdW  Elec       q    Type
                         _______ _______ _______ _____ _____    ______ ____

>  <TORSDO>
F 15

$$$$
