=
 OpenBabel10272415213D

 34 38  0  0  1  0  0  0  0  0999 V2000
  188.8860  176.8310  144.3150 C   0  0  2  0  0  3  0  0  0  0  0  0
  192.1970  176.8980  142.5130 C   0  0  0  0  0  3  0  0  0  0  0  0
  191.5990  175.5210  144.7500 S   0  0  0  0  0  0  0  0  0  0  0  0
  186.6530  177.4780  145.3130 C   0  0  1  0  0  3  0  0  0  0  0  0
  187.6040  177.6350  144.1220 C   0  0  0  0  0  2  0  0  0  0  0  0
  188.7630  177.2320  146.8360 C   0  0  1  0  0  3  0  0  0  0  0  0
  188.9450  178.4270  147.7520 C   0  0  0  0  0  1  0  0  0  0  0  0
  187.2690  176.9350  146.6190 C   0  0  0  0  0  2  0  0  0  0  0  0
  190.9990  176.8830  145.7510 C   0  0  0  0  0  0  0  0  0  0  0  0
  189.5960  177.4060  145.5580 C   0  0  1  0  0  3  0  0  0  0  0  0
  191.7630  177.4500  146.5150 O   0  0  0  0  0  0  0  0  0  0  0  0
  191.9830  177.7930  141.3400 C   0  0  0  0  0  2  0  0  0  0  0  0
  191.1440  177.1250  140.2970 C   0  0  0  0  0  0  0  0  0  0  0  0
  189.8780  176.7760  140.5500 C   0  0  0  0  0  3  0  0  0  0  0  0
  191.2000  176.4550  143.2800 C   0  0  0  0  0  0  0  0  0  0  0  0
  189.2010  176.8720  141.8600 C   0  0  0  0  0  3  0  0  0  0  0  0
  189.7710  176.8160  143.0780 C   0  0  0  0  0  0  0  0  0  0  0  0
  191.6980  176.9370  138.9430 C   0  0  0  0  0  0  0  0  0  0  0  0
  193.1050  176.8350  138.7500 N   0  0  0  0  0  1  0  0  0  0  0  0
  190.9340  176.8610  137.9430 O   0  0  0  0  0  0  0  0  0  0  0  0
  185.7510  178.6960  145.5110 C   0  0  0  0  0  2  0  0  0  0  0  0
  182.2660  178.9260  144.1030 N   0  0  0  0  0  0  0  0  0  0  0  0
  184.8680  178.7280  143.1690 C   0  0  0  0  0  3  0  0  0  0  0  0
  181.6410  178.8990  140.4840 C   0  0  0  0  0  0  0  0  0  0  0  0
  181.4130  178.9400  141.8690 C   0  0  0  0  0  3  0  0  0  0  0  0
  182.4870  178.8850  142.7610 C   0  0  0  0  0  0  0  0  0  0  0  0
  184.0360  178.7460  140.8920 C   0  0  0  0  0  3  0  0  0  0  0  0
  183.8050  178.7870  142.2680 C   0  0  0  0  0  0  0  0  0  0  0  0
  182.9570  178.8020  140.0040 C   0  0  0  0  0  3  0  0  0  0  0  0
  184.6140  178.7620  144.5420 C   0  0  0  0  0  0  0  0  0  0  0  0
  183.2920  178.8690  144.9930 C   0  0  0  0  0  3  0  0  0  0  0  0
  180.5090  178.9580  139.5430 C   0  0  0  0  0  0  0  0  0  0  0  0
  179.9980  180.2140  139.1060 N   0  0  0  0  0  1  0  0  0  0  0  0
  179.9820  177.8960  139.1150 O   0  0  0  0  0  0  0  0  0  0  0  0
  1  5  1  6  0  0  0
  1 10  1  0  0  0  0
  2 15  2  0  0  0  0
  3  9  1  0  0  0  0
  4 21  1  1  0  0  0
  4  8  1  0  0  0  0
  5  4  1  0  0  0  0
  6  7  1  1  0  0  0
  8  6  1  0  0  0  0
  9 11  2  0  0  0  0
 10  9  1  1  0  0  0
 10  6  1  0  0  0  0
 12  2  1  0  0  0  0
 13 14  2  0  0  0  0
 13 12  1  0  0  0  0
 14 16  1  0  0  0  0
 15  3  1  0  0  0  0
 16 17  2  0  0  0  0
 17 15  1  0  0  0  0
 17  1  1  0  0  0  0
 18 13  1  0  0  0  0
 19 18  1  0  0  0  0
 20 18  2  0  0  0  0
 22 31  1  0  0  0  0
 23 30  1  0  0  0  0
 24 25  2  0  0  0  0
 25 26  1  0  0  0  0
 26 22  2  0  0  0  0
 27 28  1  0  0  0  0
 28 26  1  0  0  0  0
 28 23  2  0  0  0  0
 29 24  1  0  0  0  0
 29 27  2  0  0  0  0
 30 31  2  0  0  0  0
 30 21  1  0  0  0  0
 32 24  1  0  0  0  0
 33 32  1  0  0  0  0
 34 32  2  0  0  0  0
M  END
>  <MODEL>
1

>  <REMARK>
 VINA RESULT:     -10.1      0.000      0.000
  Name = 
  4 active torsions:
  status: ('A' for Active; 'I' for Inactive)
    1  A    between atoms: C_3  and  C_25
    2  A    between atoms: C_7  and  C_11
    3  A    between atoms: C_8  and  C_18
    4  A    between atoms: C_18  and  C_30
                            x       y       z     vdW  Elec       q    Type
                         _______ _______ _______ _____ _____    ______ ____

>  <TORSDO>
F 4

$$$$
=
 OpenBabel10272415213D

 34 38  0  0  1  0  0  0  0  0999 V2000
  187.5430  178.3400  139.7520 C   0  0  2  0  0  3  0  0  0  0  0  0
  189.3310  176.6830  136.8760 C   0  0  0  0  0  3  0  0  0  0  0  0
  187.5560  178.7040  136.7300 S   0  0  0  0  0  0  0  0  0  0  0  0
  186.3510  178.7760  141.9410 C   0  0  1  0  0  3  0  0  0  0  0  0
  187.4720  178.0030  141.2380 C   0  0  0  0  0  2  0  0  0  0  0  0
  185.0080  178.6640  139.7010 C   0  0  1  0  0  3  0  0  0  0  0  0
  183.7980  177.7560  139.8090 C   0  0  0  0  0  1  0  0  0  0  0  0
  185.2650  179.3890  141.0340 C   0  0  0  0  0  2  0  0  0  0  0  0
  186.2000  177.9340  137.6160 C   0  0  0  0  0  0  0  0  0  0  0  0
  186.2050  177.8940  139.1260 C   0  0  1  0  0  3  0  0  0  0  0  0
  185.3250  177.3550  136.9930 O   0  0  0  0  0  0  0  0  0  0  0  0
  190.2000  175.6470  137.5040 C   0  0  0  0  0  2  0  0  0  0  0  0
  191.3690  176.2720  138.1980 C   0  0  0  0  0  0  0  0  0  0  0  0
  191.1940  177.0860  139.2450 C   0  0  0  0  0  3  0  0  0  0  0  0
  188.6960  177.6210  137.5800 C   0  0  0  0  0  0  0  0  0  0  0  0
  189.8940  177.5670  139.7580 C   0  0  0  0  0  3  0  0  0  0  0  0
  188.7550  177.7330  139.0610 C   0  0  0  0  0  0  0  0  0  0  0  0
  192.7340  175.9060  137.7770 C   0  0  0  0  0  0  0  0  0  0  0  0
  193.0810  174.5390  137.5790 N   0  0  0  0  0  1  0  0  0  0  0  0
  193.6060  176.7960  137.5830 O   0  0  0  0  0  0  0  0  0  0  0  0
  185.7990  178.0350  143.1590 C   0  0  0  0  0  2  0  0  0  0  0  0
  187.4260  177.3910  146.4930 N   0  0  0  0  0  0  0  0  0  0  0  0
  188.1620  177.5510  143.8250 C   0  0  0  0  0  3  0  0  0  0  0  0
  191.0300  176.7550  146.7900 C   0  0  0  0  0  0  0  0  0  0  0  0
  189.6840  176.9450  147.1400 C   0  0  0  0  0  3  0  0  0  0  0  0
  188.7300  177.2080  146.1530 C   0  0  0  0  0  0  0  0  0  0  0  0
  190.4600  177.0950  144.4480 C   0  0  0  0  0  3  0  0  0  0  0  0
  189.1220  177.2840  144.8010 C   0  0  0  0  0  0  0  0  0  0  0  0
  191.4100  176.8310  145.4410 C   0  0  0  0  0  3  0  0  0  0  0  0
  186.8300  177.7450  144.2010 C   0  0  0  0  0  0  0  0  0  0  0  0
  186.4780  177.6540  145.5540 C   0  0  0  0  0  3  0  0  0  0  0  0
  192.0360  176.4770  147.8310 C   0  0  0  0  0  0  0  0  0  0  0  0
  192.6880  175.2110  147.8840 N   0  0  0  0  0  1  0  0  0  0  0  0
  192.3290  177.3580  148.6830 O   0  0  0  0  0  0  0  0  0  0  0  0
  1  5  1  1  0  0  0
  2 12  1  0  0  0  0
  2 15  2  0  0  0  0
  3 15  1  0  0  0  0
  3  9  1  0  0  0  0
  4 21  1  1  0  0  0
  5  4  1  0  0  0  0
  6  7  1  1  0  0  0
  6  8  1  0  0  0  0
  8  4  1  0  0  0  0
 10  9  1  6  0  0  0
 10  6  1  0  0  0  0
 10  1  1  0  0  0  0
 11  9  2  0  0  0  0
 12 13  1  0  0  0  0
 13 14  2  0  0  0  0
 14 16  1  0  0  0  0
 15 17  1  0  0  0  0
 17  1  1  0  0  0  0
 17 16  2  0  0  0  0
 18 13  1  0  0  0  0
 19 18  1  0  0  0  0
 20 18  2  0  0  0  0
 21 30  1  0  0  0  0
 23 30  2  0  0  0  0
 23 28  1  0  0  0  0
 24 25  1  0  0  0  0
 24 32  1  0  0  0  0
 26 22  1  0  0  0  0
 26 25  2  0  0  0  0
 27 28  2  0  0  0  0
 27 29  1  0  0  0  0
 28 26  1  0  0  0  0
 29 24  2  0  0  0  0
 30 31  1  0  0  0  0
 31 22  2  0  0  0  0
 32 33  1  0  0  0  0
 32 34  2  0  0  0  0
M  END
>  <MODEL>
2

>  <REMARK>
 VINA RESULT:      -9.9      3.404      7.735
  Name = 
  4 active torsions:
  status: ('A' for Active; 'I' for Inactive)
    1  A    between atoms: C_3  and  C_25
    2  A    between atoms: C_7  and  C_11
    3  A    between atoms: C_8  and  C_18
    4  A    between atoms: C_18  and  C_30
                            x       y       z     vdW  Elec       q    Type
                         _______ _______ _______ _____ _____    ______ ____

>  <TORSDO>
F 4

$$$$
=
 OpenBabel10272415213D

 34 38  0  0  1  0  0  0  0  0999 V2000
  186.3100  178.4490  138.8270 C   0  0  2  0  0  3  0  0  0  0  0  0
  189.0200  176.6290  136.9400 C   0  0  0  0  0  3  0  0  0  0  0  0
  187.1510  178.2710  135.9070 S   0  0  0  0  0  0  0  0  0  0  0  0
  184.5000  179.0620  140.4850 C   0  0  1  0  0  3  0  0  0  0  0  0
  185.8530  178.3730  140.2810 C   0  0  0  0  0  2  0  0  0  0  0  0
  183.8770  178.3350  138.0520 C   0  0  1  0  0  3  0  0  0  0  0  0
  182.7950  177.2740  138.0350 C   0  0  0  0  0  1  0  0  0  0  0  0
  183.6590  179.3170  139.2170 C   0  0  0  0  0  2  0  0  0  0  0  0
  185.6910  177.4560  136.5550 C   0  0  0  0  0  0  0  0  0  0  0  0
  185.2660  177.6850  137.9860 C   0  0  1  0  0  3  0  0  0  0  0  0
  185.1010  176.6400  135.8660 O   0  0  0  0  0  0  0  0  0  0  0  0
  189.7800  175.8780  137.9810 C   0  0  0  0  0  2  0  0  0  0  0  0
  190.6250  176.8000  138.8030 C   0  0  0  0  0  0  0  0  0  0  0  0
  190.0680  177.7470  139.5670 C   0  0  0  0  0  3  0  0  0  0  0  0
  188.1110  177.5580  137.2360 C   0  0  0  0  0  0  0  0  0  0  0  0
  188.6300  178.0890  139.6090 C   0  0  0  0  0  3  0  0  0  0  0  0
  187.7280  177.9390  138.6220 C   0  0  0  0  0  0  0  0  0  0  0  0
  192.0840  176.5960  138.8390 C   0  0  0  0  0  0  0  0  0  0  0  0
  192.8840  177.3020  139.7830 N   0  0  0  0  0  1  0  0  0  0  0  0
  192.6400  175.7940  138.0400 O   0  0  0  0  0  0  0  0  0  0  0  0
  183.7050  178.4670  141.6470 C   0  0  0  0  0  2  0  0  0  0  0  0
  184.6130  178.7850  145.2880 N   0  0  0  0  0  0  0  0  0  0  0  0
  185.7750  177.8970  142.9330 C   0  0  0  0  0  3  0  0  0  0  0  0
  187.9050  177.7610  146.5520 C   0  0  0  0  0  0  0  0  0  0  0  0
  186.5930  178.2590  146.5210 C   0  0  0  0  0  3  0  0  0  0  0  0
  185.8850  178.3030  145.3170 C   0  0  0  0  0  0  0  0  0  0  0  0
  187.7960  177.3470  144.1560 C   0  0  0  0  0  3  0  0  0  0  0  0
  186.4910  177.8440  144.1290 C   0  0  0  0  0  0  0  0  0  0  0  0
  188.4990  177.3060  145.3640 C   0  0  0  0  0  3  0  0  0  0  0  0
  184.4740  178.4060  142.9280 C   0  0  0  0  0  0  0  0  0  0  0  0
  183.9030  178.8440  144.1300 C   0  0  0  0  0  3  0  0  0  0  0  0
  188.6520  177.7140  147.8220 C   0  0  0  0  0  0  0  0  0  0  0  0
  190.0330  177.3610  147.8340 N   0  0  0  0  0  1  0  0  0  0  0  0
  188.0760  177.9880  148.9090 O   0  0  0  0  0  0  0  0  0  0  0  0
  1  5  1  1  0  0  0
  2 15  2  0  0  0  0
  2 12  1  0  0  0  0
  3  9  1  0  0  0  0
  3 15  1  0  0  0  0
  4 21  1  1  0  0  0
  5  4  1  0  0  0  0
  6  7  1  1  0  0  0
  6  8  1  0  0  0  0
  8  4  1  0  0  0  0
 10  9  1  6  0  0  0
 10  6  1  0  0  0  0
 10  1  1  0  0  0  0
 11  9  2  0  0  0  0
 12 13  1  0  0  0  0
 13 18  1  0  0  0  0
 13 14  2  0  0  0  0
 14 16  1  0  0  0  0
 15 17  1  0  0  0  0
 17  1  1  0  0  0  0
 17 16  2  0  0  0  0
 18 19  1  0  0  0  0
 20 18  2  0  0  0  0
 21 30  1  0  0  0  0
 22 26  1  0  0  0  0
 23 28  1  0  0  0  0
 24 32  1  0  0  0  0
 25 24  1  0  0  0  0
 26 25  2  0  0  0  0
 27 29  1  0  0  0  0
 28 27  2  0  0  0  0
 28 26  1  0  0  0  0
 29 24  2  0  0  0  0
 30 23  2  0  0  0  0
 30 31  1  0  0  0  0
 31 22  2  0  0  0  0
 32 33  1  0  0  0  0
 32 34  2  0  0  0  0
M  END
>  <MODEL>
3

>  <REMARK>
 VINA RESULT:      -9.9      3.295      7.196
  Name = 
  4 active torsions:
  status: ('A' for Active; 'I' for Inactive)
    1  A    between atoms: C_3  and  C_25
    2  A    between atoms: C_7  and  C_11
    3  A    between atoms: C_8  and  C_18
    4  A    between atoms: C_18  and  C_30
                            x       y       z     vdW  Elec       q    Type
                         _______ _______ _______ _____ _____    ______ ____

>  <TORSDO>
F 4

$$$$
=
 OpenBabel10272415213D

 34 38  0  0  1  0  0  0  0  0999 V2000
  184.6890  179.1790  141.6770 C   0  0  2  0  0  3  0  0  0  0  0  0
  185.6130  177.9270  138.2420 C   0  0  0  0  0  3  0  0  0  0  0  0
  183.6710  179.6920  138.8530 S   0  0  0  0  0  0  0  0  0  0  0  0
  184.2390  179.3400  144.1610 C   0  0  1  0  0  3  0  0  0  0  0  0
  185.1480  178.7630  143.0710 C   0  0  0  0  0  2  0  0  0  0  0  0
  182.2580  179.1560  142.4650 C   0  0  1  0  0  3  0  0  0  0  0  0
  181.2620  178.0870  142.8690 C   0  0  0  0  0  1  0  0  0  0  0  0
  182.8530  179.8430  143.7070 C   0  0  0  0  0  2  0  0  0  0  0  0
  182.7760  178.7010  140.0510 C   0  0  0  0  0  0  0  0  0  0  0  0
  183.2800  178.5870  141.4710 C   0  0  1  0  0  3  0  0  0  0  0  0
  181.8170  178.0390  139.6890 O   0  0  0  0  0  0  0  0  0  0  0  0
  186.7510  176.9900  138.4640 C   0  0  0  0  0  2  0  0  0  0  0  0
  188.0040  177.7330  138.8030 C   0  0  0  0  0  0  0  0  0  0  0  0
  188.0910  178.4630  139.9220 C   0  0  0  0  0  3  0  0  0  0  0  0
  185.1410  178.7340  139.1940 C   0  0  0  0  0  0  0  0  0  0  0  0
  186.9840  178.7360  140.8630 C   0  0  0  0  0  3  0  0  0  0  0  0
  185.6690  178.7790  140.5830 C   0  0  0  0  0  0  0  0  0  0  0  0
  189.1880  177.5790  137.9380 C   0  0  0  0  0  0  0  0  0  0  0  0
  190.2550  176.7200  138.3290 N   0  0  0  0  0  1  0  0  0  0  0  0
  189.2680  178.1990  136.8440 O   0  0  0  0  0  0  0  0  0  0  0  0
  184.2030  178.4710  145.4180 C   0  0  0  0  0  2  0  0  0  0  0  0
  187.0640  178.1300  147.8430 N   0  0  0  0  0  0  0  0  0  0  0  0
  186.5620  177.6780  145.1550 C   0  0  0  0  0  3  0  0  0  0  0  0
  190.3550  176.8930  146.7820 C   0  0  0  0  0  0  0  0  0  0  0  0
  189.3240  177.3910  147.5950 C   0  0  0  0  0  3  0  0  0  0  0  0
  188.0630  177.6500  147.0540 C   0  0  0  0  0  0  0  0  0  0  0  0
  188.8470  176.9170  144.8720 C   0  0  0  0  0  3  0  0  0  0  0  0
  187.8250  177.4110  145.6840 C   0  0  0  0  0  0  0  0  0  0  0  0
  190.1070  176.6590  145.4200 C   0  0  0  0  0  3  0  0  0  0  0  0
  185.5560  178.1810  145.9830 C   0  0  0  0  0  0  0  0  0  0  0  0
  185.8290  178.3960  147.3400 C   0  0  0  0  0  3  0  0  0  0  0  0
  191.6860  176.6200  147.3530 C   0  0  0  0  0  0  0  0  0  0  0  0
  192.4880  175.5610  146.8380 N   0  0  0  0  0  1  0  0  0  0  0  0
  192.1270  177.3210  148.3030 O   0  0  0  0  0  0  0  0  0  0  0  0
  1  5  1  1  0  0  0
  2 12  1  0  0  0  0
  2 15  2  0  0  0  0
  3 15  1  0  0  0  0
  3  9  1  0  0  0  0
  4 21  1  1  0  0  0
  5  4  1  0  0  0  0
  6  7  1  1  0  0  0
  6  8  1  0  0  0  0
  8  4  1  0  0  0  0
 10  9  1  6  0  0  0
 10  1  1  0  0  0  0
 10  6  1  0  0  0  0
 11  9  2  0  0  0  0
 12 13  1  0  0  0  0
 13 14  2  0  0  0  0
 14 16  1  0  0  0  0
 15 17  1  0  0  0  0
 17 16  2  0  0  0  0
 17  1  1  0  0  0  0
 18 19  1  0  0  0  0
 18 13  1  0  0  0  0
 20 18  2  0  0  0  0
 21 30  1  0  0  0  0
 23 28  2  0  0  0  0
 23 30  1  0  0  0  0
 24 32  1  0  0  0  0
 24 25  2  0  0  0  0
 26 25  1  0  0  0  0
 26 22  2  0  0  0  0
 27 29  2  0  0  0  0
 27 28  1  0  0  0  0
 28 26  1  0  0  0  0
 29 24  1  0  0  0  0
 30 31  2  0  0  0  0
 31 22  1  0  0  0  0
 32 34  2  0  0  0  0
 33 32  1  0  0  0  0
M  END
>  <MODEL>
4

>  <REMARK>
 VINA RESULT:      -9.5      3.360      7.747
  Name = 
  4 active torsions:
  status: ('A' for Active; 'I' for Inactive)
    1  A    between atoms: C_3  and  C_25
    2  A    between atoms: C_7  and  C_11
    3  A    between atoms: C_8  and  C_18
    4  A    between atoms: C_18  and  C_30
                            x       y       z     vdW  Elec       q    Type
                         _______ _______ _______ _____ _____    ______ ____

>  <TORSDO>
F 4

$$$$
=
 OpenBabel10272415213D

 34 38  0  0  1  0  0  0  0  0999 V2000
  183.2970  179.1630  141.2950 C   0  0  2  0  0  3  0  0  0  0  0  0
  183.2410  177.8990  137.7430 C   0  0  0  0  0  3  0  0  0  0  0  0
  181.5540  179.6820  138.8530 S   0  0  0  0  0  0  0  0  0  0  0  0
  183.5400  179.3300  143.8080 C   0  0  1  0  0  3  0  0  0  0  0  0
  184.1140  178.7440  142.5130 C   0  0  0  0  0  2  0  0  0  0  0  0
  181.1710  179.1630  142.7150 C   0  0  1  0  0  3  0  0  0  0  0  0
  180.3130  178.1040  143.3780 C   0  0  0  0  0  1  0  0  0  0  0  0
  182.0880  179.8460  143.7460 C   0  0  0  0  0  2  0  0  0  0  0  0
  181.0100  178.7010  140.2520 C   0  0  0  0  0  0  0  0  0  0  0  0
  181.8790  178.5840  141.4820 C   0  0  1  0  0  3  0  0  0  0  0  0
  179.9830  178.0480  140.1660 O   0  0  0  0  0  0  0  0  0  0  0  0
  184.3890  176.9510  137.6510 C   0  0  0  0  0  2  0  0  0  0  0  0
  185.6930  177.6830  137.6340 C   0  0  0  0  0  0  0  0  0  0  0  0
  186.0870  178.4130  138.6840 C   0  0  0  0  0  3  0  0  0  0  0  0
  183.0530  178.7110  138.7850 C   0  0  0  0  0  0  0  0  0  0  0  0
  185.2810  178.6970  139.8900 C   0  0  0  0  0  3  0  0  0  0  0  0
  183.9390  178.7530  139.9780 C   0  0  0  0  0  0  0  0  0  0  0  0
  186.5960  177.5160  136.4800 C   0  0  0  0  0  0  0  0  0  0  0  0
  187.5670  178.5130  136.1790 N   0  0  0  0  0  1  0  0  0  0  0  0
  186.5220  176.4900  135.7510 O   0  0  0  0  0  0  0  0  0  0  0  0
  183.8400  178.4630  145.0300 C   0  0  0  0  0  2  0  0  0  0  0  0
  187.3310  177.3410  144.1750 N   0  0  0  0  0  0  0  0  0  0  0  0
  185.9080  178.1640  146.4070 C   0  0  0  0  0  3  0  0  0  0  0  0
  189.9570  177.0920  146.7290 C   0  0  0  0  0  0  0  0  0  0  0  0
  189.3070  177.0360  145.4870 C   0  0  0  0  0  3  0  0  0  0  0  0
  187.9600  177.3940  145.3800 C   0  0  0  0  0  0  0  0  0  0  0  0
  187.8960  177.8700  147.7640 C   0  0  0  0  0  3  0  0  0  0  0  0
  187.2530  177.8130  146.5260 C   0  0  0  0  0  0  0  0  0  0  0  0
  189.2440  177.5110  147.8640 C   0  0  0  0  0  3  0  0  0  0  0  0
  185.2820  178.0910  145.1610 C   0  0  0  0  0  0  0  0  0  0  0  0
  186.0200  177.6790  144.0440 C   0  0  0  0  0  3  0  0  0  0  0  0
  191.3780  176.7140  146.8420 C   0  0  0  0  0  0  0  0  0  0  0  0
  192.0820  176.9130  148.0650 N   0  0  0  0  0  1  0  0  0  0  0  0
  191.9820  176.2120  145.8570 O   0  0  0  0  0  0  0  0  0  0  0  0
  1 10  1  0  0  0  0
  1  5  1  1  0  0  0
  2 15  2  0  0  0  0
  3  9  1  0  0  0  0
  4 21  1  1  0  0  0
  5  4  1  0  0  0  0
  6  7  1  1  0  0  0
  6  8  1  0  0  0  0
  8  4  1  0  0  0  0
 10  9  1  6  0  0  0
 10  6  1  0  0  0  0
 11  9  2  0  0  0  0
 12  2  1  0  0  0  0
 13 12  1  0  0  0  0
 13 14  2  0  0  0  0
 14 16  1  0  0  0  0
 15  3  1  0  0  0  0
 15 17  1  0  0  0  0
 16 17  2  0  0  0  0
 17  1  1  0  0  0  0
 18 13  1  0  0  0  0
 19 18  1  0  0  0  0
 20 18  2  0  0  0  0
 21 30  1  0  0  0  0
 22 26  1  0  0  0  0
 23 28  1  0  0  0  0
 24 32  1  0  0  0  0
 24 29  1  0  0  0  0
 25 24  2  0  0  0  0
 26 25  1  0  0  0  0
 26 28  2  0  0  0  0
 27 29  2  0  0  0  0
 28 27  1  0  0  0  0
 30 23  2  0  0  0  0
 31 22  2  0  0  0  0
 31 30  1  0  0  0  0
 32 33  1  0  0  0  0
 34 32  2  0  0  0  0
M  END
>  <MODEL>
5

>  <REMARK>
 VINA RESULT:      -9.5      3.792      8.429
  Name = 
  4 active torsions:
  status: ('A' for Active; 'I' for Inactive)
    1  A    between atoms: C_3  and  C_25
    2  A    between atoms: C_7  and  C_11
    3  A    between atoms: C_8  and  C_18
    4  A    between atoms: C_18  and  C_30
                            x       y       z     vdW  Elec       q    Type
                         _______ _______ _______ _____ _____    ______ ____

>  <TORSDO>
F 4

$$$$
=
 OpenBabel10272415213D

 34 38  0  0  1  0  0  0  0  0999 V2000
  187.2540  177.4740  144.7300 C   0  0  2  0  0  3  0  0  0  0  0  0
  188.8640  177.7750  148.1260 C   0  0  0  0  0  3  0  0  0  0  0  0
  186.3160  177.0770  147.5990 S   0  0  0  0  0  0  0  0  0  0  0  0
  186.6050  177.8360  142.3120 C   0  0  1  0  0  3  0  0  0  0  0  0
  187.7480  177.8350  143.3330 C   0  0  0  0  0  2  0  0  0  0  0  0
  185.0190  178.6120  144.2400 C   0  0  1  0  0  3  0  0  0  0  0  0
  184.5510  180.0420  144.0490 C   0  0  0  0  0  1  0  0  0  0  0  0
  185.1730  177.9050  142.8820 C   0  0  0  0  0  2  0  0  0  0  0  0
  185.8500  178.4960  146.6050 C   0  0  0  0  0  0  0  0  0  0  0  0
  186.2530  178.5700  145.1520 C   0  0  1  0  0  3  0  0  0  0  0  0
  185.2960  179.4450  147.1340 O   0  0  0  0  0  0  0  0  0  0  0  0
  190.2760  178.1700  147.8530 C   0  0  0  0  0  2  0  0  0  0  0  0
  191.0620  177.0210  147.3050 C   0  0  0  0  0  0  0  0  0  0  0  0
  190.7480  176.4720  146.1260 C   0  0  0  0  0  3  0  0  0  0  0  0
  188.0270  177.3680  147.1710 C   0  0  0  0  0  0  0  0  0  0  0  0
  189.5690  176.8090  145.3020 C   0  0  0  0  0  3  0  0  0  0  0  0
  188.3850  177.2840  145.7300 C   0  0  0  0  0  0  0  0  0  0  0  0
  192.2560  176.5550  148.0350 C   0  0  0  0  0  0  0  0  0  0  0  0
  192.8940  175.3380  147.6610 N   0  0  0  0  0  1  0  0  0  0  0  0
  192.7260  177.2270  148.9920 O   0  0  0  0  0  0  0  0  0  0  0  0
  186.8570  178.7930  141.1470 C   0  0  0  0  0  2  0  0  0  0  0  0
  188.3340  177.5860  137.9000 N   0  0  0  0  0  0  0  0  0  0  0  0
  189.1400  177.9800  140.5230 C   0  0  0  0  0  3  0  0  0  0  0  0
  191.8300  176.4870  137.6620 C   0  0  0  0  0  0  0  0  0  0  0  0
  190.5080  176.7920  137.3000 C   0  0  0  0  0  3  0  0  0  0  0  0
  189.6150  177.2900  138.2520 C   0  0  0  0  0  0  0  0  0  0  0  0
  191.3570  177.1850  139.9450 C   0  0  0  0  0  3  0  0  0  0  0  0
  190.0430  177.4860  139.5810 C   0  0  0  0  0  0  0  0  0  0  0  0
  192.2460  176.6870  138.9880 C   0  0  0  0  0  3  0  0  0  0  0  0
  187.8280  178.2670  140.1400 C   0  0  0  0  0  0  0  0  0  0  0  0
  187.4430  178.0670  138.8080 C   0  0  0  0  0  3  0  0  0  0  0  0
  192.7730  175.9620  136.6580 C   0  0  0  0  0  0  0  0  0  0  0  0
  194.1040  176.4650  136.5870 N   0  0  0  0  0  1  0  0  0  0  0  0
  192.4100  175.0620  135.8540 O   0  0  0  0  0  0  0  0  0  0  0  0
  1  5  1  6  0  0  0
  1 10  1  0  0  0  0
  1 17  1  0  0  0  0
  4 21  1  6  0  0  0
  4  8  1  0  0  0  0
  4  5  1  0  0  0  0
  6  7  1  6  0  0  0
  6 10  1  0  0  0  0
  8  6  1  0  0  0  0
  9 11  2  0  0  0  0
  9  3  1  0  0  0  0
 10  9  1  1  0  0  0
 12  2  1  0  0  0  0
 13 12  1  0  0  0  0
 13 18  1  0  0  0  0
 14 13  2  0  0  0  0
 15  3  1  0  0  0  0
 15  2  2  0  0  0  0
 16 17  2  0  0  0  0
 16 14  1  0  0  0  0
 17 15  1  0  0  0  0
 18 20  2  0  0  0  0
 19 18  1  0  0  0  0
 22 26  2  0  0  0  0
 22 31  1  0  0  0  0
 24 29  1  0  0  0  0
 25 24  2  0  0  0  0
 25 26  1  0  0  0  0
 26 28  1  0  0  0  0
 28 27  1  0  0  0  0
 28 23  2  0  0  0  0
 29 27  2  0  0  0  0
 30 23  1  0  0  0  0
 30 21  1  0  0  0  0
 31 30  2  0  0  0  0
 32 24  1  0  0  0  0
 33 32  1  0  0  0  0
 34 32  2  0  0  0  0
M  END
>  <MODEL>
6

>  <REMARK>
 VINA RESULT:      -9.4      3.631      7.652
  Name = 
  4 active torsions:
  status: ('A' for Active; 'I' for Inactive)
    1  A    between atoms: C_3  and  C_25
    2  A    between atoms: C_7  and  C_11
    3  A    between atoms: C_8  and  C_18
    4  A    between atoms: C_18  and  C_30
                            x       y       z     vdW  Elec       q    Type
                         _______ _______ _______ _____ _____    ______ ____

>  <TORSDO>
F 4

$$$$
=
 OpenBabel10272415213D

 34 38  0  0  1  0  0  0  0  0999 V2000
  188.3030  178.3680  140.3290 C   0  0  2  0  0  3  0  0  0  0  0  0
  187.6430  177.4770  143.9320 C   0  0  0  0  0  3  0  0  0  0  0  0
  190.0050  178.1810  142.8460 S   0  0  0  0  0  0  0  0  0  0  0  0
  188.2490  178.4530  137.8010 C   0  0  1  0  0  3  0  0  0  0  0  0
  187.4250  178.2960  139.0840 C   0  0  0  0  0  2  0  0  0  0  0  0
  190.2240  177.2740  139.0440 C   0  0  1  0  0  3  0  0  0  0  0  0
  190.5030  175.8930  138.4850 C   0  0  0  0  0  1  0  0  0  0  0  0
  189.7700  178.2320  137.9280 C   0  0  0  0  0  2  0  0  0  0  0  0
  190.0690  176.9640  141.5300 C   0  0  0  0  0  0  0  0  0  0  0  0
  189.2870  177.1810  140.2570 C   0  0  1  0  0  3  0  0  0  0  0  0
  190.6640  175.9150  141.7100 O   0  0  0  0  0  0  0  0  0  0  0  0
  186.1820  177.1860  143.9990 C   0  0  0  0  0  2  0  0  0  0  0  0
  185.3760  178.4420  143.9010 C   0  0  0  0  0  0  0  0  0  0  0  0
  185.4070  179.1960  142.7950 C   0  0  0  0  0  3  0  0  0  0  0  0
  188.2240  178.0310  142.8680 C   0  0  0  0  0  0  0  0  0  0  0  0
  186.2900  178.9840  141.6290 C   0  0  0  0  0  3  0  0  0  0  0  0
  187.5020  178.3990  141.6210 C   0  0  0  0  0  0  0  0  0  0  0  0
  184.4640  178.7980  145.0030 C   0  0  0  0  0  0  0  0  0  0  0  0
  184.9500  178.8770  146.3390 N   0  0  0  0  0  1  0  0  0  0  0  0
  183.2480  179.0410  144.7770 O   0  0  0  0  0  0  0  0  0  0  0  0
  187.6160  177.7430  136.6040 C   0  0  0  0  0  2  0  0  0  0  0  0
  185.2420  174.8890  137.2320 N   0  0  0  0  0  0  0  0  0  0  0  0
  185.2200  177.6590  137.3200 C   0  0  0  0  0  3  0  0  0  0  0  0
  181.7650  175.4630  138.2660 C   0  0  0  0  0  0  0  0  0  0  0  0
  182.9470  174.8000  137.8990 C   0  0  0  0  0  3  0  0  0  0  0  0
  184.0960  175.5320  137.5860 C   0  0  0  0  0  0  0  0  0  0  0  0
  182.8940  177.6030  138.0030 C   0  0  0  0  0  3  0  0  0  0  0  0
  184.0670  176.9410  137.6390 C   0  0  0  0  0  0  0  0  0  0  0  0
  181.7470  176.8660  138.3160 C   0  0  0  0  0  3  0  0  0  0  0  0
  186.3800  176.9760  136.9490 C   0  0  0  0  0  0  0  0  0  0  0  0
  186.3720  175.5760  136.9170 C   0  0  0  0  0  3  0  0  0  0  0  0
  180.5530  174.6920  138.5960 C   0  0  0  0  0  0  0  0  0  0  0  0
  180.0140  173.7610  137.6620 N   0  0  0  0  0  1  0  0  0  0  0  0
  179.9830  174.8490  139.7090 O   0  0  0  0  0  0  0  0  0  0  0  0
  1  5  1  6  0  0  0
  1 17  1  0  0  0  0
  2 12  1  0  0  0  0
  3 15  1  0  0  0  0
  4 21  1  6  0  0  0
  4  8  1  0  0  0  0
  4  5  1  0  0  0  0
  6  7  1  6  0  0  0
  6 10  1  0  0  0  0
  8  6  1  0  0  0  0
  9 11  2  0  0  0  0
  9  3  1  0  0  0  0
 10  1  1  0  0  0  0
 10  9  1  1  0  0  0
 13 12  1  0  0  0  0
 13 18  1  0  0  0  0
 14 13  2  0  0  0  0
 15  2  2  0  0  0  0
 16 14  1  0  0  0  0
 17 16  2  0  0  0  0
 17 15  1  0  0  0  0
 18 19  1  0  0  0  0
 20 18  2  0  0  0  0
 21 30  1  0  0  0  0
 22 26  1  0  0  0  0
 23 28  1  0  0  0  0
 24 29  1  0  0  0  0
 24 32  1  0  0  0  0
 25 24  2  0  0  0  0
 26 28  2  0  0  0  0
 26 25  1  0  0  0  0
 27 29  2  0  0  0  0
 28 27  1  0  0  0  0
 30 23  2  0  0  0  0
 31 30  1  0  0  0  0
 31 22  2  0  0  0  0
 32 34  2  0  0  0  0
 33 32  1  0  0  0  0
M  END
>  <MODEL>
7

>  <REMARK>
 VINA RESULT:      -8.7      3.584      6.622
  Name = 
  4 active torsions:
  status: ('A' for Active; 'I' for Inactive)
    1  A    between atoms: C_3  and  C_25
    2  A    between atoms: C_7  and  C_11
    3  A    between atoms: C_8  and  C_18
    4  A    between atoms: C_18  and  C_30
                            x       y       z     vdW  Elec       q    Type
                         _______ _______ _______ _____ _____    ______ ____

>  <TORSDO>
F 4

$$$$
=
 OpenBabel10272415213D

 34 38  0  0  1  0  0  0  0  0999 V2000
  190.4140  176.9590  137.2990 C   0  0  2  0  0  3  0  0  0  0  0  0
  192.2000  174.1360  135.5510 C   0  0  0  0  0  3  0  0  0  0  0  0
  190.8510  176.1610  134.3940 S   0  0  0  0  0  0  0  0  0  0  0  0
  189.0720  178.3290  138.9490 C   0  0  1  0  0  3  0  0  0  0  0  0
  190.1090  177.2150  138.7720 C   0  0  0  0  0  2  0  0  0  0  0  0
  188.0040  177.5560  136.6910 C   0  0  1  0  0  3  0  0  0  0  0  0
  186.6460  176.9140  136.8950 C   0  0  0  0  0  1  0  0  0  0  0  0
  188.2290  178.6890  137.7070 C   0  0  0  0  0  2  0  0  0  0  0  0
  189.2820  175.9550  135.2390 C   0  0  0  0  0  0  0  0  0  0  0  0
  189.1020  176.4830  136.6430 C   0  0  1  0  0  3  0  0  0  0  0  0
  188.3970  175.3000  134.7150 O   0  0  0  0  0  0  0  0  0  0  0  0
  192.7860  173.3100  136.6450 C   0  0  0  0  0  2  0  0  0  0  0  0
  193.9590  173.9970  137.2710 C   0  0  0  0  0  0  0  0  0  0  0  0
  193.8120  175.1600  137.9180 C   0  0  0  0  0  3  0  0  0  0  0  0
  191.6670  175.3410  135.7570 C   0  0  0  0  0  0  0  0  0  0  0  0
  192.5690  175.9570  137.9910 C   0  0  0  0  0  3  0  0  0  0  0  0
  191.5690  175.9910  137.0900 C   0  0  0  0  0  0  0  0  0  0  0  0
  195.2740  173.3320  137.2530 C   0  0  0  0  0  0  0  0  0  0  0  0
  195.8660  172.8800  138.4670 N   0  0  0  0  0  1  0  0  0  0  0  0
  195.8880  173.1530  136.1660 O   0  0  0  0  0  0  0  0  0  0  0  0
  188.2530  178.1740  140.2310 C   0  0  0  0  0  2  0  0  0  0  0  0
  191.1410  177.0620  142.3760 N   0  0  0  0  0  0  0  0  0  0  0  0
  188.5270  177.9230  142.7050 C   0  0  0  0  0  3  0  0  0  0  0  0
  190.8740  176.8930  146.0350 C   0  0  0  0  0  0  0  0  0  0  0  0
  191.4050  176.8030  144.7390 C   0  0  0  0  0  3  0  0  0  0  0  0
  190.6250  177.1480  143.6320 C   0  0  0  0  0  0  0  0  0  0  0  0
  188.7650  177.6770  145.1060 C   0  0  0  0  0  3  0  0  0  0  0  0
  189.2980  177.5860  143.8180 C   0  0  0  0  0  0  0  0  0  0  0  0
  189.5520  177.3320  146.2100 C   0  0  0  0  0  3  0  0  0  0  0  0
  189.0770  177.8160  141.4260 C   0  0  0  0  0  0  0  0  0  0  0  0
  190.4020  177.3860  141.2820 C   0  0  0  0  0  3  0  0  0  0  0  0
  191.6970  176.5300  147.2020 C   0  0  0  0  0  0  0  0  0  0  0  0
  192.4330  175.3100  147.2150 N   0  0  0  0  0  1  0  0  0  0  0  0
  191.7580  177.2970  148.2010 O   0  0  0  0  0  0  0  0  0  0  0  0
  1  5  1  1  0  0  0
  2 15  2  0  0  0  0
  2 12  1  0  0  0  0
  3  9  1  0  0  0  0
  3 15  1  0  0  0  0
  4 21  1  1  0  0  0
  5  4  1  0  0  0  0
  6  7  1  1  0  0  0
  6  8  1  0  0  0  0
  8  4  1  0  0  0  0
 10  9  1  6  0  0  0
 10  6  1  0  0  0  0
 10  1  1  0  0  0  0
 11  9  2  0  0  0  0
 12 13  1  0  0  0  0
 13 14  2  0  0  0  0
 14 16  1  0  0  0  0
 15 17  1  0  0  0  0
 17  1  1  0  0  0  0
 17 16  2  0  0  0  0
 18 13  1  0  0  0  0
 18 19  1  0  0  0  0
 20 18  2  0  0  0  0
 21 30  1  0  0  0  0
 22 26  1  0  0  0  0
 23 28  1  0  0  0  0
 24 29  1  0  0  0  0
 24 32  1  0  0  0  0
 25 24  2  0  0  0  0
 26 28  2  0  0  0  0
 26 25  1  0  0  0  0
 27 29  2  0  0  0  0
 28 27  1  0  0  0  0
 30 23  2  0  0  0  0
 31 30  1  0  0  0  0
 31 22  2  0  0  0  0
 32 33  1  0  0  0  0
 32 34  2  0  0  0  0
M  END
>  <MODEL>
8

>  <REMARK>
 VINA RESULT:      -8.6      4.939      8.783
  Name = 
  4 active torsions:
  status: ('A' for Active; 'I' for Inactive)
    1  A    between atoms: C_3  and  C_25
    2  A    between atoms: C_7  and  C_11
    3  A    between atoms: C_8  and  C_18
    4  A    between atoms: C_18  and  C_30
                            x       y       z     vdW  Elec       q    Type
                         _______ _______ _______ _____ _____    ______ ____

>  <TORSDO>
F 4

$$$$
=
 OpenBabel10272415213D

 34 38  0  0  1  0  0  0  0  0999 V2000
  188.8410  177.8630  139.4970 C   0  0  2  0  0  3  0  0  0  0  0  0
  190.7170  176.3010  142.3710 C   0  0  0  0  0  3  0  0  0  0  0  0
  191.7700  177.2870  140.0960 S   0  0  0  0  0  0  0  0  0  0  0  0
  187.0960  178.4070  137.7480 C   0  0  1  0  0  3  0  0  0  0  0  0
  187.3500  177.9840  139.1980 C   0  0  0  0  0  2  0  0  0  0  0  0
  189.2650  177.1010  137.0940 C   0  0  1  0  0  3  0  0  0  0  0  0
  188.9570  175.8580  136.2820 C   0  0  0  0  0  1  0  0  0  0  0  0
  188.2700  178.2280  136.7630 C   0  0  0  0  0  2  0  0  0  0  0  0
  190.8070  176.3350  138.9200 C   0  0  0  0  0  0  0  0  0  0  0  0
  189.3950  176.7500  138.5830 C   0  0  1  0  0  3  0  0  0  0  0  0
  191.2620  175.2950  138.4720 O   0  0  0  0  0  0  0  0  0  0  0  0
  189.6690  175.9440  143.3700 C   0  0  0  0  0  2  0  0  0  0  0  0
  189.1350  177.1630  144.0530 C   0  0  0  0  0  0  0  0  0  0  0  0
  188.4810  178.1070  143.3660 C   0  0  0  0  0  3  0  0  0  0  0  0
  190.4720  177.0640  141.3050 C   0  0  0  0  0  0  0  0  0  0  0  0
  188.3150  178.1480  141.8980 C   0  0  0  0  0  3  0  0  0  0  0  0
  189.1360  177.6240  140.9700 C   0  0  0  0  0  0  0  0  0  0  0  0
  189.2530  177.2740  145.5190 C   0  0  0  0  0  0  0  0  0  0  0  0
  188.0830  177.3570  146.3280 N   0  0  0  0  0  1  0  0  0  0  0  0
  190.3850  177.2930  146.0720 O   0  0  0  0  0  0  0  0  0  0  0  0
  185.7550  177.9030  137.2140 C   0  0  0  0  0  2  0  0  0  0  0  0
  182.2750  178.2000  138.6200 N   0  0  0  0  0  0  0  0  0  0  0  0
  184.8910  178.2790  139.5320 C   0  0  0  0  0  3  0  0  0  0  0  0
  181.6830  178.7880  142.1960 C   0  0  0  0  0  0  0  0  0  0  0  0
  181.4420  178.5770  140.8290 C   0  0  0  0  0  3  0  0  0  0  0  0
  182.5100  178.4060  139.9440 C   0  0  0  0  0  0  0  0  0  0  0  0
  184.0780  178.6570  141.7850 C   0  0  0  0  0  3  0  0  0  0  0  0
  183.8340  178.4470  140.4260 C   0  0  0  0  0  0  0  0  0  0  0  0
  183.0050  178.8260  142.6660 C   0  0  0  0  0  3  0  0  0  0  0  0
  184.6250  178.0800  138.1750 C   0  0  0  0  0  0  0  0  0  0  0  0
  183.2950  178.0360  137.7360 C   0  0  0  0  0  3  0  0  0  0  0  0
  180.5570  178.9680  143.1300 C   0  0  0  0  0  0  0  0  0  0  0  0
  179.9820  177.8440  143.7910 N   0  0  0  0  0  1  0  0  0  0  0  0
  180.0930  180.1180  143.3530 O   0  0  0  0  0  0  0  0  0  0  0  0
  1  5  1  1  0  0  0
  1 17  1  0  0  0  0
  2 12  1  0  0  0  0
  3 15  1  0  0  0  0
  4 21  1  6  0  0  0
  4  5  1  0  0  0  0
  6  7  1  6  0  0  0
  6 10  1  0  0  0  0
  8  6  1  0  0  0  0
  8  4  1  0  0  0  0
  9  3  1  0  0  0  0
 10  9  1  1  0  0  0
 10  1  1  0  0  0  0
 11  9  2  0  0  0  0
 12 13  1  0  0  0  0
 13 18  1  0  0  0  0
 14 13  2  0  0  0  0
 15  2  2  0  0  0  0
 16 14  1  0  0  0  0
 17 15  1  0  0  0  0
 17 16  2  0  0  0  0
 18 20  2  0  0  0  0
 18 19  1  0  0  0  0
 21 30  1  0  0  0  0
 22 26  1  0  0  0  0
 23 28  1  0  0  0  0
 24 29  1  0  0  0  0
 24 32  1  0  0  0  0
 25 24  2  0  0  0  0
 26 28  2  0  0  0  0
 26 25  1  0  0  0  0
 27 29  2  0  0  0  0
 28 27  1  0  0  0  0
 30 23  2  0  0  0  0
 31 30  1  0  0  0  0
 31 22  2  0  0  0  0
 32 34  2  0  0  0  0
 32 33  1  0  0  0  0
M  END
>  <MODEL>
9

>  <REMARK>
 VINA RESULT:      -8.4      2.625      5.897
  Name = 
  4 active torsions:
  status: ('A' for Active; 'I' for Inactive)
    1  A    between atoms: C_3  and  C_25
    2  A    between atoms: C_7  and  C_11
    3  A    between atoms: C_8  and  C_18
    4  A    between atoms: C_18  and  C_30
                            x       y       z     vdW  Elec       q    Type
                         _______ _______ _______ _____ _____    ______ ____

>  <TORSDO>
F 4

$$$$
