=
 OpenBabel10272401103D

 27 31  0  0  1  0  0  0  0  0999 V2000
  190.9580  177.6900  140.0800 C   0  0  0  0  0  2  0  0  0  0  0  0
  188.7060  177.5490  138.9820 C   0  0  0  0  0  0  0  0  0  0  0  0
  188.4700  177.8290  141.5330 C   0  0  0  0  0  2  0  0  0  0  0  0
  184.3800  178.9770  138.5700 S   0  0  0  0  0  0  0  0  0  0  0  0
  183.2980  178.0820  140.9230 C   0  0  0  0  0  1  0  0  0  0  0  0
  188.1350  177.6580  137.7010 C   0  0  0  0  0  3  0  0  0  0  0  0
  185.6520  178.7260  140.9270 N   0  0  0  0  0  0  0  0  0  0  0  0
  189.6580  176.9210  145.3930 O   0  0  0  0  0  0  0  0  0  0  0  0
  185.9690  178.9820  142.3250 C   0  0  0  0  0  1  0  0  0  0  0  0
  189.9940  176.9340  144.1810 C   0  0  0  0  0  0  0  0  0  0  0  0
  186.5910  178.3420  139.9200 C   0  0  0  0  0  0  0  0  0  0  0  0
  190.0730  177.0840  139.0880 N   0  0  0  0  0  0  0  0  0  0  0  0
  184.3320  179.0640  140.4030 C   0  0  1  0  0  3  0  0  0  0  0  0
  186.0690  178.4180  138.6480 C   0  0  0  0  0  0  0  0  0  0  0  0
  190.8460  176.9570  141.4130 C   0  0  1  0  0  3  0  0  0  0  0  0
  187.9210  177.8920  140.1290 C   0  0  0  0  0  0  0  0  0  0  0  0
  189.2450  176.0920  143.1930 C   0  0  0  0  0  2  0  0  0  0  0  0
  186.8200  178.0880  137.5290 C   0  0  0  0  0  3  0  0  0  0  0  0
  191.1440  177.7440  143.7550 C   0  0  0  0  0  3  0  0  0  0  0  0
  191.5270  177.7760  142.4780 C   0  0  0  0  0  3  0  0  0  0  0  0
  189.3790  176.6280  141.7640 C   0  0  1  0  0  3  0  0  0  0  0  0
  191.5580  173.8450  136.7590 C   0  0  0  0  0  3  0  0  0  0  0  0
  190.5720  175.9920  138.2830 C   0  0  0  0  0  0  0  0  0  0  0  0
  189.6930  175.0610  137.7070 C   0  0  0  0  0  3  0  0  0  0  0  0
  190.1820  173.9950  136.9470 C   0  0  0  0  0  3  0  0  0  0  0  0
  192.4450  174.7590  137.3320 C   0  0  0  0  0  3  0  0  0  0  0  0
  191.9550  175.8240  138.0930 C   0  0  0  0  0  3  0  0  0  0  0  0
  2 12  1  0  0  0  0
  2 16  1  0  0  0  0
  4 14  1  0  0  0  0
  4 13  1  0  0  0  0
  6  2  2  0  0  0  0
  7  9  1  0  0  0  0
 10  8  2  0  0  0  0
 11 16  2  0  0  0  0
 11  7  1  0  0  0  0
 12  1  1  0  0  0  0
 13  5  1  1  0  0  0
 13  7  1  0  0  0  0
 14 11  1  0  0  0  0
 15  1  1  6  0  0  0
 15 21  1  0  0  0  0
 15 20  1  0  0  0  0
 16  3  1  0  0  0  0
 17 10  1  0  0  0  0
 18  6  1  0  0  0  0
 18 14  2  0  0  0  0
 19 10  1  0  0  0  0
 20 19  2  0  0  0  0
 21  3  1  1  0  0  0
 21 17  1  0  0  0  0
 22 25  2  0  0  0  0
 22 26  1  0  0  0  0
 23 12  1  0  0  0  0
 24 23  2  0  0  0  0
 25 24  1  0  0  0  0
 26 27  2  0  0  0  0
 27 23  1  0  0  0  0
M  END
>  <MODEL>
1

>  <REMARK>
 VINA RESULT:      -7.7      0.000      0.000
  Name = 
  1 active torsions:
  status: ('A' for Active; 'I' for Inactive)
    1  A    between atoms: C_9  and  N_15
                            x       y       z     vdW  Elec       q    Type
                         _______ _______ _______ _____ _____    ______ ____

>  <TORSDO>
F 1

$$$$
=
 OpenBabel10272401103D

 27 31  0  0  1  0  0  0  0  0999 V2000
  184.0280  179.5380  141.3700 C   0  0  0  0  0  2  0  0  0  0  0  0
  186.2590  178.5990  140.7080 C   0  0  0  0  0  0  0  0  0  0  0  0
  184.4330  177.9080  139.0240 C   0  0  0  0  0  2  0  0  0  0  0  0
  189.3760  177.6230  137.5050 S   0  0  0  0  0  0  0  0  0  0  0  0
  188.1140  175.6190  136.1270 C   0  0  0  0  0  1  0  0  0  0  0  0
  187.6240  178.7880  140.9930 C   0  0  0  0  0  3  0  0  0  0  0  0
  186.7250  177.3510  137.1400 N   0  0  0  0  0  0  0  0  0  0  0  0
  180.5940  176.6010  138.1930 O   0  0  0  0  0  0  0  0  0  0  0  0
  185.4600  177.2840  136.4230 C   0  0  0  0  0  1  0  0  0  0  0  0
  181.3380  177.1630  139.0380 C   0  0  0  0  0  0  0  0  0  0  0  0
  186.8990  177.8440  138.4710 C   0  0  0  0  0  0  0  0  0  0  0  0
  185.2910  178.9040  141.7400 N   0  0  0  0  0  0  0  0  0  0  0  0
  187.9780  177.0990  136.4360 C   0  0  1  0  0  3  0  0  0  0  0  0
  188.2240  178.0290  138.8000 C   0  0  0  0  0  0  0  0  0  0  0  0
  182.9830  178.4820  141.0220 C   0  0  1  0  0  3  0  0  0  0  0  0
  185.8770  178.1100  139.4170 C   0  0  0  0  0  0  0  0  0  0  0  0
  182.4930  176.4100  139.6280 C   0  0  0  0  0  2  0  0  0  0  0  0
  188.6070  178.5030  140.0470 C   0  0  0  0  0  3  0  0  0  0  0  0
  181.0420  178.5360  139.4680 C   0  0  0  0  0  3  0  0  0  0  0  0
  181.8090  179.1560  140.3650 C   0  0  0  0  0  3  0  0  0  0  0  0
  183.5800  177.3510  140.1580 C   0  0  1  0  0  3  0  0  0  0  0  0
  185.9820  177.8680  145.8110 C   0  0  0  0  0  3  0  0  0  0  0  0
  185.5110  178.5430  143.1220 C   0  0  0  0  0  0  0  0  0  0  0  0
  184.7510  179.1250  144.1500 C   0  0  0  0  0  3  0  0  0  0  0  0
  184.9820  178.7880  145.4860 C   0  0  0  0  0  3  0  0  0  0  0  0
  186.7510  177.2870  144.8010 C   0  0  0  0  0  3  0  0  0  0  0  0
  186.5200  177.6250  143.4640 C   0  0  0  0  0  3  0  0  0  0  0  0
  1 12  1  0  0  0  0
  2  6  1  0  0  0  0
  2 12  1  0  0  0  0
  3 16  1  0  0  0  0
  4 14  1  0  0  0  0
  7 11  1  0  0  0  0
  8 10  2  0  0  0  0
  9  7  1  0  0  0  0
 10 19  1  0  0  0  0
 10 17  1  0  0  0  0
 11 14  2  0  0  0  0
 11 16  1  0  0  0  0
 12 23  1  0  0  0  0
 13  5  1  1  0  0  0
 13  7  1  0  0  0  0
 13  4  1  0  0  0  0
 14 18  1  0  0  0  0
 15 20  1  6  0  0  0
 15  1  1  0  0  0  0
 16  2  2  0  0  0  0
 17 21  1  0  0  0  0
 18  6  2  0  0  0  0
 19 20  2  0  0  0  0
 21  3  1  6  0  0  0
 21 15  1  0  0  0  0
 23 27  2  0  0  0  0
 23 24  1  0  0  0  0
 24 25  2  0  0  0  0
 25 22  1  0  0  0  0
 26 22  2  0  0  0  0
 27 26  1  0  0  0  0
M  END
>  <MODEL>
2

>  <REMARK>
 VINA RESULT:      -6.9      3.571      7.415
  Name = 
  1 active torsions:
  status: ('A' for Active; 'I' for Inactive)
    1  A    between atoms: C_9  and  N_15
                            x       y       z     vdW  Elec       q    Type
                         _______ _______ _______ _____ _____    ______ ____

>  <TORSDO>
F 1

$$$$
=
 OpenBabel10272401103D

 27 31  0  0  1  0  0  0  0  0999 V2000
  188.5400  178.3990  138.9210 C   0  0  0  0  0  2  0  0  0  0  0  0
  190.7030  177.1270  138.9030 C   0  0  0  0  0  0  0  0  0  0  0  0
  189.2960  176.5820  136.8130 C   0  0  0  0  0  2  0  0  0  0  0  0
  194.3660  175.5350  136.6730 S   0  0  0  0  0  0  0  0  0  0  0  0
  193.2250  173.6350  135.0630 C   0  0  0  0  0  1  0  0  0  0  0  0
  191.9590  177.1480  139.5360 C   0  0  0  0  0  3  0  0  0  0  0  0
  191.8910  175.6000  135.6230 N   0  0  0  0  0  0  0  0  0  0  0  0
  185.6560  175.7550  135.0230 O   0  0  0  0  0  0  0  0  0  0  0  0
  190.8600  175.6590  134.5960 C   0  0  0  0  0  1  0  0  0  0  0  0
  186.2290  176.2640  136.0200 C   0  0  0  0  0  0  0  0  0  0  0  0
  191.7840  176.1500  136.9380 C   0  0  0  0  0  0  0  0  0  0  0  0
  189.5560  177.6260  139.6320 N   0  0  0  0  0  0  0  0  0  0  0  0
  193.2330  175.1360  135.2850 C   0  0  1  0  0  3  0  0  0  0  0  0
  192.9900  176.1750  137.6030 C   0  0  0  0  0  0  0  0  0  0  0  0
  187.4780  177.4740  138.3360 C   0  0  1  0  0  3  0  0  0  0  0  0
  190.6010  176.6120  137.5710 C   0  0  0  0  0  0  0  0  0  0  0  0
  187.0670  175.4010  136.9160 C   0  0  0  0  0  2  0  0  0  0  0  0
  193.1010  176.6720  138.8950 C   0  0  0  0  0  3  0  0  0  0  0  0
  186.0370  177.6890  136.3190 C   0  0  0  0  0  3  0  0  0  0  0  0
  186.6270  178.2560  137.3720 C   0  0  0  0  0  3  0  0  0  0  0  0
  188.1050  176.2190  137.6910 C   0  0  1  0  0  3  0  0  0  0  0  0
  188.9180  176.7220  143.7430 C   0  0  0  0  0  3  0  0  0  0  0  0
  189.3530  177.3280  141.0310 C   0  0  0  0  0  0  0  0  0  0  0  0
  190.1400  176.3650  141.6850 C   0  0  0  0  0  3  0  0  0  0  0  0
  189.9260  176.0650  143.0320 C   0  0  0  0  0  3  0  0  0  0  0  0
  188.1240  177.6770  143.1040 C   0  0  0  0  0  3  0  0  0  0  0  0
  188.3380  177.9750  141.7550 C   0  0  0  0  0  3  0  0  0  0  0  0
  1 12  1  0  0  0  0
  2  6  1  0  0  0  0
  2 12  1  0  0  0  0
  3 16  1  0  0  0  0
  4 14  1  0  0  0  0
  7 11  1  0  0  0  0
  8 10  2  0  0  0  0
  9  7  1  0  0  0  0
 10 19  1  0  0  0  0
 10 17  1  0  0  0  0
 11 16  1  0  0  0  0
 11 14  2  0  0  0  0
 12 23  1  0  0  0  0
 13  5  1  1  0  0  0
 13  7  1  0  0  0  0
 13  4  1  0  0  0  0
 14 18  1  0  0  0  0
 15 20  1  6  0  0  0
 15  1  1  0  0  0  0
 16  2  2  0  0  0  0
 17 21  1  0  0  0  0
 18  6  2  0  0  0  0
 19 20  2  0  0  0  0
 21  3  1  6  0  0  0
 21 15  1  0  0  0  0
 23 24  2  0  0  0  0
 23 27  1  0  0  0  0
 24 25  1  0  0  0  0
 25 22  2  0  0  0  0
 26 22  1  0  0  0  0
 27 26  2  0  0  0  0
M  END
>  <MODEL>
3

>  <REMARK>
 VINA RESULT:      -6.8      3.599      7.243
  Name = 
  1 active torsions:
  status: ('A' for Active; 'I' for Inactive)
    1  A    between atoms: C_9  and  N_15
                            x       y       z     vdW  Elec       q    Type
                         _______ _______ _______ _____ _____    ______ ____

>  <TORSDO>
F 1

$$$$
=
 OpenBabel10272401103D

 27 31  0  0  1  0  0  0  0  0999 V2000
  189.4340  178.3920  140.3090 C   0  0  0  0  0  2  0  0  0  0  0  0
  187.0380  178.4110  141.0540 C   0  0  0  0  0  0  0  0  0  0  0  0
  188.5960  177.7100  142.9840 C   0  0  0  0  0  2  0  0  0  0  0  0
  183.8490  179.3960  144.1820 S   0  0  0  0  0  0  0  0  0  0  0  0
  184.4550  177.5870  146.1480 C   0  0  0  0  0  1  0  0  0  0  0  0
  185.7940  178.9170  140.6350 C   0  0  0  0  0  3  0  0  0  0  0  0
  186.2910  178.4440  144.7880 N   0  0  0  0  0  0  0  0  0  0  0  0
  191.8550  175.5900  144.4080 O   0  0  0  0  0  0  0  0  0  0  0  0
  187.4880  178.2040  145.5800 C   0  0  0  0  0  1  0  0  0  0  0  0
  191.3040  176.0840  143.3910 C   0  0  0  0  0  0  0  0  0  0  0  0
  186.2470  178.5630  143.3640 C   0  0  0  0  0  0  0  0  0  0  0  0
  188.0280  178.0960  140.0460 N   0  0  0  0  0  0  0  0  0  0  0  0
  185.0380  178.8000  145.4470 C   0  0  1  0  0  3  0  0  0  0  0  0
  185.0390  179.0410  142.9070 C   0  0  0  0  0  0  0  0  0  0  0  0
  190.1050  177.2140  141.0090 C   0  0  1  0  0  3  0  0  0  0  0  0
  187.2790  178.2200  142.4530 C   0  0  0  0  0  0  0  0  0  0  0  0
  189.9580  175.5840  142.9580 C   0  0  0  0  0  2  0  0  0  0  0  0
  184.7940  179.2290  141.5530 C   0  0  0  0  0  3  0  0  0  0  0  0
  192.0030  177.1170  142.6150 C   0  0  0  0  0  3  0  0  0  0  0  0
  191.4460  177.6570  141.5300 C   0  0  0  0  0  3  0  0  0  0  0  0
  189.2070  176.6170  142.1130 C   0  0  1  0  0  3  0  0  0  0  0  0
  186.9660  176.1190  136.4280 C   0  0  0  0  0  3  0  0  0  0  0  0
  187.6740  177.4380  138.8090 C   0  0  0  0  0  0  0  0  0  0  0  0
  186.5470  177.8420  138.0740 C   0  0  0  0  0  3  0  0  0  0  0  0
  186.1960  177.1890  136.8900 C   0  0  0  0  0  3  0  0  0  0  0  0
  188.0850  175.7010  137.1520 C   0  0  0  0  0  3  0  0  0  0  0  0
  188.4350  176.3540  138.3370 C   0  0  0  0  0  3  0  0  0  0  0  0
  2 16  1  0  0  0  0
  4 13  1  0  0  0  0
  6  2  2  0  0  0  0
  6 18  1  0  0  0  0
  7 13  1  0  0  0  0
  7  9  1  0  0  0  0
 10  8  2  0  0  0  0
 11  7  1  0  0  0  0
 12  1  1  0  0  0  0
 12  2  1  0  0  0  0
 13  5  1  6  0  0  0
 14 11  1  0  0  0  0
 14  4  1  0  0  0  0
 15  1  1  1  0  0  0
 15 20  1  0  0  0  0
 15 21  1  0  0  0  0
 16  3  1  0  0  0  0
 16 11  2  0  0  0  0
 17 10  1  0  0  0  0
 18 14  2  0  0  0  0
 19 10  1  0  0  0  0
 20 19  2  0  0  0  0
 21 17  1  1  0  0  0
 21  3  1  0  0  0  0
 22 25  2  0  0  0  0
 22 26  1  0  0  0  0
 23 12  1  0  0  0  0
 24 23  2  0  0  0  0
 25 24  1  0  0  0  0
 26 27  2  0  0  0  0
 27 23  1  0  0  0  0
M  END
>  <MODEL>
4

>  <REMARK>
 VINA RESULT:      -6.7      2.291      3.543
  Name = 
  1 active torsions:
  status: ('A' for Active; 'I' for Inactive)
    1  A    between atoms: C_9  and  N_15
                            x       y       z     vdW  Elec       q    Type
                         _______ _______ _______ _____ _____    ______ ____

>  <TORSDO>
F 1

$$$$
=
 OpenBabel10272401103D

 27 31  0  0  1  0  0  0  0  0999 V2000
  189.2460  177.3300  136.2830 C   0  0  0  0  0  2  0  0  0  0  0  0
  188.6350  177.4040  138.7150 C   0  0  0  0  0  0  0  0  0  0  0  0
  191.0550  176.5730  138.3990 C   0  0  0  0  0  2  0  0  0  0  0  0
  189.6930  178.3780  143.0580 S   0  0  0  0  0  0  0  0  0  0  0  0
  191.5900  176.4730  143.5840 C   0  0  0  0  0  1  0  0  0  0  0  0
  187.6570  177.9710  139.5530 C   0  0  0  0  0  3  0  0  0  0  0  0
  191.4300  177.3170  141.3000 N   0  0  0  0  0  0  0  0  0  0  0  0
  193.8540  174.2850  136.3820 O   0  0  0  0  0  0  0  0  0  0  0  0
  192.7160  177.0040  140.6930 C   0  0  0  0  0  1  0  0  0  0  0  0
  192.7260  174.8380  136.3170 C   0  0  0  0  0  0  0  0  0  0  0  0
  190.2000  177.4930  140.5930 C   0  0  0  0  0  0  0  0  0  0  0  0
  188.2750  177.0940  137.3480 N   0  0  0  0  0  0  0  0  0  0  0  0
  191.3590  177.6910  142.7090 C   0  0  1  0  0  3  0  0  0  0  0  0
  189.2070  178.0320  141.3810 C   0  0  0  0  0  0  0  0  0  0  0  0
  190.1310  176.1020  136.0860 C   0  0  1  0  0  3  0  0  0  0  0  0
  189.9430  177.1510  139.2410 C   0  0  0  0  0  0  0  0  0  0  0  0
  191.6300  174.4030  137.2440 C   0  0  0  0  0  2  0  0  0  0  0  0
  187.9350  178.2820  140.8820 C   0  0  0  0  0  3  0  0  0  0  0  0
  192.4820  175.8750  135.3060 C   0  0  0  0  0  3  0  0  0  0  0  0
  191.2950  176.4760  135.2090 C   0  0  0  0  0  3  0  0  0  0  0  0
  190.5730  175.4950  137.4350 C   0  0  1  0  0  3  0  0  0  0  0  0
  184.5360  175.3430  136.3080 C   0  0  0  0  0  3  0  0  0  0  0  0
  187.0020  176.4990  137.0110 C   0  0  0  0  0  0  0  0  0  0  0  0
  186.7850  175.1200  137.1740 C   0  0  0  0  0  3  0  0  0  0  0  0
  185.5590  174.5460  136.8270 C   0  0  0  0  0  3  0  0  0  0  0  0
  184.7400  176.7140  136.1330 C   0  0  0  0  0  3  0  0  0  0  0  0
  185.9670  177.2870  136.4800 C   0  0  0  0  0  3  0  0  0  0  0  0
  1 12  1  0  0  0  0
  2 16  2  0  0  0  0
  2  6  1  0  0  0  0
  3 16  1  0  0  0  0
  6 18  2  0  0  0  0
  7 13  1  0  0  0  0
  9  7  1  0  0  0  0
 10  8  2  0  0  0  0
 10 17  1  0  0  0  0
 11  7  1  0  0  0  0
 11 14  2  0  0  0  0
 12  2  1  0  0  0  0
 13  4  1  0  0  0  0
 13  5  1  1  0  0  0
 14  4  1  0  0  0  0
 15 20  1  6  0  0  0
 15  1  1  0  0  0  0
 15 21  1  0  0  0  0
 16 11  1  0  0  0  0
 18 14  1  0  0  0  0
 19 10  1  0  0  0  0
 20 19  2  0  0  0  0
 21 17  1  6  0  0  0
 21  3  1  0  0  0  0
 22 25  1  0  0  0  0
 23 24  1  0  0  0  0
 23 12  1  0  0  0  0
 25 24  2  0  0  0  0
 26 22  2  0  0  0  0
 26 27  1  0  0  0  0
 27 23  2  0  0  0  0
M  END
>  <MODEL>
5

>  <REMARK>
 VINA RESULT:      -6.6      3.071      6.007
  Name = 
  1 active torsions:
  status: ('A' for Active; 'I' for Inactive)
    1  A    between atoms: C_9  and  N_15
                            x       y       z     vdW  Elec       q    Type
                         _______ _______ _______ _____ _____    ______ ____

>  <TORSDO>
F 1

$$$$
=
 OpenBabel10272401103D

 27 31  0  0  1  0  0  0  0  0999 V2000
  187.0510  178.4640  136.9700 C   0  0  0  0  0  2  0  0  0  0  0  0
  187.0390  178.0900  139.4510 C   0  0  0  0  0  0  0  0  0  0  0  0
  189.1760  177.1220  138.3840 C   0  0  0  0  0  2  0  0  0  0  0  0
  189.2040  178.0420  143.4810 S   0  0  0  0  0  0  0  0  0  0  0  0
  190.8840  175.9020  143.1570 C   0  0  0  0  0  1  0  0  0  0  0  0
  186.3720  178.5590  140.5990 C   0  0  0  0  0  3  0  0  0  0  0  0
  190.3180  177.2120  141.1770 N   0  0  0  0  0  0  0  0  0  0  0  0
  191.0780  175.0520  135.3460 O   0  0  0  0  0  0  0  0  0  0  0  0
  191.3700  176.9130  140.2160 C   0  0  0  0  0  1  0  0  0  0  0  0
  190.0560  175.7080  135.6710 C   0  0  0  0  0  0  0  0  0  0  0  0
  188.9940  177.6430  140.8520 C   0  0  0  0  0  0  0  0  0  0  0  0
  186.3300  178.1040  138.1890 N   0  0  0  0  0  0  0  0  0  0  0  0
  190.6300  177.2910  142.6010 C   0  0  1  0  0  3  0  0  0  0  0  0
  188.2970  178.0970  141.9500 C   0  0  0  0  0  0  0  0  0  0  0  0
  187.6830  177.2270  136.3390 C   0  0  1  0  0  3  0  0  0  0  0  0
  188.3840  177.6130  139.5710 C   0  0  0  0  0  0  0  0  0  0  0  0
  189.1560  175.1940  136.7550 C   0  0  0  0  0  2  0  0  0  0  0  0
  186.9930  178.5610  141.8460 C   0  0  0  0  0  3  0  0  0  0  0  0
  189.7320  176.9500  134.9560 C   0  0  0  0  0  3  0  0  0  0  0  0
  188.6530  177.6650  135.2750 C   0  0  0  0  0  3  0  0  0  0  0  0
  188.3370  176.3160  137.4000 C   0  0  1  0  0  3  0  0  0  0  0  0
  182.2400  176.9720  137.8510 C   0  0  0  0  0  3  0  0  0  0  0  0
  184.9430  177.7120  138.0890 C   0  0  0  0  0  0  0  0  0  0  0  0
  184.5890  176.4030  137.7210 C   0  0  0  0  0  3  0  0  0  0  0  0
  183.2460  176.0340  137.6050 C   0  0  0  0  0  3  0  0  0  0  0  0
  182.5770  178.2790  138.2100 C   0  0  0  0  0  3  0  0  0  0  0  0
  183.9210  178.6470  138.3250 C   0  0  0  0  0  3  0  0  0  0  0  0
  1 12  1  0  0  0  0
  2 16  2  0  0  0  0
  2  6  1  0  0  0  0
  3 16  1  0  0  0  0
  6 18  2  0  0  0  0
  7 13  1  0  0  0  0
  8 10  2  0  0  0  0
  9  7  1  0  0  0  0
 10 17  1  0  0  0  0
 11  7  1  0  0  0  0
 11 14  2  0  0  0  0
 12  2  1  0  0  0  0
 13  5  1  1  0  0  0
 13  4  1  0  0  0  0
 14  4  1  0  0  0  0
 15 20  1  6  0  0  0
 15  1  1  0  0  0  0
 15 21  1  0  0  0  0
 16 11  1  0  0  0  0
 18 14  1  0  0  0  0
 19 20  2  0  0  0  0
 19 10  1  0  0  0  0
 21 17  1  6  0  0  0
 21  3  1  0  0  0  0
 22 26  1  0  0  0  0
 23 12  1  0  0  0  0
 23 27  1  0  0  0  0
 24 23  2  0  0  0  0
 25 24  1  0  0  0  0
 25 22  2  0  0  0  0
 26 27  2  0  0  0  0
M  END
>  <MODEL>
6

>  <REMARK>
 VINA RESULT:      -6.5      3.057      6.528
  Name = 
  1 active torsions:
  status: ('A' for Active; 'I' for Inactive)
    1  A    between atoms: C_9  and  N_15
                            x       y       z     vdW  Elec       q    Type
                         _______ _______ _______ _____ _____    ______ ____

>  <TORSDO>
F 1

$$$$
=
 OpenBabel10272401103D

 27 31  0  0  1  0  0  0  0  0999 V2000
  191.8920  177.6170  140.0420 C   0  0  0  0  0  2  0  0  0  0  0  0
  190.0580  177.3490  138.3520 C   0  0  0  0  0  0  0  0  0  0  0  0
  189.0890  177.6780  140.7170 C   0  0  0  0  0  2  0  0  0  0  0  0
  185.9830  178.5720  136.6710 S   0  0  0  0  0  0  0  0  0  0  0  0
  184.3040  177.6850  138.6470 C   0  0  0  0  0  1  0  0  0  0  0  0
  189.8740  177.4030  136.9570 C   0  0  0  0  0  3  0  0  0  0  0  0
  186.5330  178.4340  139.3010 N   0  0  0  0  0  0  0  0  0  0  0  0
  189.1520  176.9140  144.7860 O   0  0  0  0  0  0  0  0  0  0  0  0
  186.4260  178.7360  140.7210 C   0  0  0  0  0  1  0  0  0  0  0  0
  189.8210  176.9140  143.7210 C   0  0  0  0  0  0  0  0  0  0  0  0
  187.7350  178.0680  138.6180 C   0  0  0  0  0  0  0  0  0  0  0  0
  191.3520  176.9490  138.8610 N   0  0  0  0  0  0  0  0  0  0  0  0
  185.4070  178.7000  138.4100 C   0  0  1  0  0  3  0  0  0  0  0  0
  187.5970  178.0920  137.2480 C   0  0  0  0  0  0  0  0  0  0  0  0
  191.4300  176.9110  141.3130 C   0  0  1  0  0  3  0  0  0  0  0  0
  188.9640  177.6840  139.2130 C   0  0  0  0  0  0  0  0  0  0  0  0
  189.4170  176.0160  142.5890 C   0  0  0  0  0  2  0  0  0  0  0  0
  188.6500  177.7690  136.4030 C   0  0  0  0  0  3  0  0  0  0  0  0
  191.0140  177.7650  143.6120 C   0  0  0  0  0  3  0  0  0  0  0  0
  191.7460  177.7830  142.4970 C   0  0  0  0  0  3  0  0  0  0  0  0
  189.9370  176.5250  141.2410 C   0  0  1  0  0  3  0  0  0  0  0  0
  193.5700  173.7320  137.1690 C   0  0  0  0  0  3  0  0  0  0  0  0
  192.1000  175.8620  138.2710 C   0  0  0  0  0  0  0  0  0  0  0  0
  191.4450  174.7320  137.7540 C   0  0  0  0  0  3  0  0  0  0  0  0
  192.1740  173.6750  137.2040 C   0  0  0  0  0  3  0  0  0  0  0  0
  194.2350  174.8450  137.6860 C   0  0  0  0  0  3  0  0  0  0  0  0
  193.5050  175.9030  138.2370 C   0  0  0  0  0  3  0  0  0  0  0  0
  2 12  1  0  0  0  0
  2 16  1  0  0  0  0
  4 14  1  0  0  0  0
  4 13  1  0  0  0  0
  6  2  2  0  0  0  0
  7  9  1  0  0  0  0
 10  8  2  0  0  0  0
 11 16  2  0  0  0  0
 11  7  1  0  0  0  0
 12  1  1  0  0  0  0
 13  5  1  6  0  0  0
 13  7  1  0  0  0  0
 14 11  1  0  0  0  0
 15  1  1  6  0  0  0
 15 20  1  0  0  0  0
 16  3  1  0  0  0  0
 17 10  1  0  0  0  0
 18  6  1  0  0  0  0
 18 14  2  0  0  0  0
 19 10  1  0  0  0  0
 20 19  2  0  0  0  0
 21  3  1  1  0  0  0
 21 15  1  0  0  0  0
 21 17  1  0  0  0  0
 22 25  2  0  0  0  0
 22 26  1  0  0  0  0
 23 12  1  0  0  0  0
 24 23  2  0  0  0  0
 25 24  1  0  0  0  0
 26 27  2  0  0  0  0
 27 23  1  0  0  0  0
M  END
>  <MODEL>
7

>  <REMARK>
 VINA RESULT:      -6.4      1.279      1.610
  Name = 
  1 active torsions:
  status: ('A' for Active; 'I' for Inactive)
    1  A    between atoms: C_9  and  N_15
                            x       y       z     vdW  Elec       q    Type
                         _______ _______ _______ _____ _____    ______ ____

>  <TORSDO>
F 1

$$$$
=
 OpenBabel10272401103D

 27 31  0  0  1  0  0  0  0  0999 V2000
  190.9580  176.4250  135.6390 C   0  0  0  0  0  2  0  0  0  0  0  0
  189.7370  176.4960  137.8290 C   0  0  0  0  0  0  0  0  0  0  0  0
  192.2840  176.3590  138.2000 C   0  0  0  0  0  2  0  0  0  0  0  0
  189.3420  178.0320  142.1200 S   0  0  0  0  0  0  0  0  0  0  0  0
  191.4570  176.7790  143.3300 C   0  0  0  0  0  1  0  0  0  0  0  0
  188.4630  176.8220  138.3310 C   0  0  0  0  0  3  0  0  0  0  0  0
  191.6880  177.3820  140.9770 N   0  0  0  0  0  0  0  0  0  0  0  0
  195.9980  174.8150  137.2240 O   0  0  0  0  0  0  0  0  0  0  0  0
  193.1240  177.4010  140.7340 C   0  0  0  0  0  1  0  0  0  0  0  0
  194.8240  175.0220  136.8230 C   0  0  0  0  0  0  0  0  0  0  0  0
  190.6820  177.1540  139.9870 C   0  0  0  0  0  0  0  0  0  0  0  0
  189.8360  176.0010  136.4720 N   0  0  0  0  0  0  0  0  0  0  0  0
  191.1590  177.8190  142.2650 C   0  0  1  0  0  3  0  0  0  0  0  0
  189.4140  177.4450  140.4410 C   0  0  0  0  0  0  0  0  0  0  0  0
  192.1460  175.4850  135.8250 C   0  0  1  0  0  3  0  0  0  0  0  0
  190.8820  176.6580  138.6730 C   0  0  0  0  0  0  0  0  0  0  0  0
  193.6730  174.3630  137.5240 C   0  0  0  0  0  2  0  0  0  0  0  0
  188.2960  177.2910  139.6320 C   0  0  0  0  0  3  0  0  0  0  0  0
  194.5970  175.8740  135.6490 C   0  0  0  0  0  3  0  0  0  0  0  0
  193.3630  176.1090  135.1980 C   0  0  0  0  0  3  0  0  0  0  0  0
  192.3610  175.1240  137.3100 C   0  0  1  0  0  3  0  0  0  0  0  0
  187.0750  173.1940  134.8520 C   0  0  0  0  0  3  0  0  0  0  0  0
  188.8900  175.0490  135.9370 C   0  0  0  0  0  0  0  0  0  0  0  0
  188.8870  173.7130  136.3710 C   0  0  0  0  0  3  0  0  0  0  0  0
  187.9840  172.7910  135.8350 C   0  0  0  0  0  3  0  0  0  0  0  0
  187.0720  174.5170  134.4050 C   0  0  0  0  0  3  0  0  0  0  0  0
  187.9760  175.4380  134.9420 C   0  0  0  0  0  3  0  0  0  0  0  0
  1 15  1  0  0  0  0
  1 12  1  0  0  0  0
  2  6  2  0  0  0  0
  2 16  1  0  0  0  0
  3 16  1  0  0  0  0
  4 13  1  0  0  0  0
  6 18  1  0  0  0  0
  7 13  1  0  0  0  0
  9  7  1  0  0  0  0
 10  8  2  0  0  0  0
 10 17  1  0  0  0  0
 11 14  1  0  0  0  0
 11  7  1  0  0  0  0
 12  2  1  0  0  0  0
 13  5  1  1  0  0  0
 14  4  1  0  0  0  0
 15 20  1  1  0  0  0
 15 21  1  0  0  0  0
 16 11  2  0  0  0  0
 18 14  2  0  0  0  0
 19 10  1  0  0  0  0
 20 19  2  0  0  0  0
 21 17  1  6  0  0  0
 21  3  1  0  0  0  0
 22 25  1  0  0  0  0
 23 24  1  0  0  0  0
 23 12  1  0  0  0  0
 25 24  2  0  0  0  0
 26 22  2  0  0  0  0
 26 27  1  0  0  0  0
 27 23  2  0  0  0  0
M  END
>  <MODEL>
8

>  <REMARK>
 VINA RESULT:      -6.2      3.330      5.886
  Name = 
  1 active torsions:
  status: ('A' for Active; 'I' for Inactive)
    1  A    between atoms: C_9  and  N_15
                            x       y       z     vdW  Elec       q    Type
                         _______ _______ _______ _____ _____    ______ ____

>  <TORSDO>
F 1

$$$$
=
 OpenBabel10272401103D

 27 31  0  0  1  0  0  0  0  0999 V2000
  187.3020  176.5620  143.7210 C   0  0  0  0  0  2  0  0  0  0  0  0
  185.2490  177.9670  143.4030 C   0  0  0  0  0  0  0  0  0  0  0  0
  186.6750  177.9220  141.2560 C   0  0  0  0  0  2  0  0  0  0  0  0
  181.7040  179.3150  140.8450 S   0  0  0  0  0  0  0  0  0  0  0  0
  182.9790  180.7150  138.8640 C   0  0  0  0  0  1  0  0  0  0  0  0
  184.0000  178.1870  144.0140 C   0  0  0  0  0  3  0  0  0  0  0  0
  184.1560  178.8210  139.8560 N   0  0  0  0  0  0  0  0  0  0  0  0
  190.3530  178.0380  139.3590 O   0  0  0  0  0  0  0  0  0  0  0  0
  185.1690  178.4540  138.8770 C   0  0  0  0  0  1  0  0  0  0  0  0
  189.7500  177.8100  140.4400 C   0  0  0  0  0  0  0  0  0  0  0  0
  184.2310  178.5700  141.2610 C   0  0  0  0  0  0  0  0  0  0  0  0
  186.3590  177.5520  144.2340 N   0  0  0  0  0  0  0  0  0  0  0  0
  182.8520  179.3050  139.4120 C   0  0  1  0  0  3  0  0  0  0  0  0
  183.0330  178.7880  141.9050 C   0  0  0  0  0  0  0  0  0  0  0  0
  188.4300  177.2460  142.9550 C   0  0  1  0  0  3  0  0  0  0  0  0
  185.3790  178.1650  141.9910 C   0  0  0  0  0  0  0  0  0  0  0  0
  188.9920  178.9140  141.1150 C   0  0  0  0  0  2  0  0  0  0  0  0
  182.8950  178.6000  143.2740 C   0  0  0  0  0  3  0  0  0  0  0  0
  189.8300  176.4750  141.0480 C   0  0  0  0  0  3  0  0  0  0  0  0
  189.2060  176.2040  142.1950 C   0  0  0  0  0  3  0  0  0  0  0  0
  187.9000  178.3740  142.0430 C   0  0  1  0  0  3  0  0  0  0  0  0
  187.0210  179.2440  148.0840 C   0  0  0  0  0  3  0  0  0  0  0  0
  186.5970  178.1340  145.5340 C   0  0  0  0  0  0  0  0  0  0  0  0
  187.6340  177.6630  146.3570 C   0  0  0  0  0  3  0  0  0  0  0  0
  187.8470  178.2160  147.6220 C   0  0  0  0  0  3  0  0  0  0  0  0
  185.9820  179.7170  147.2800 C   0  0  0  0  0  3  0  0  0  0  0  0
  185.7690  179.1630  146.0150 C   0  0  0  0  0  3  0  0  0  0  0  0
  1 12  1  0  0  0  0
  2  6  1  0  0  0  0
  2 12  1  0  0  0  0
  3 16  1  0  0  0  0
  3 21  1  0  0  0  0
  4 14  1  0  0  0  0
  7 11  1  0  0  0  0
  8 10  2  0  0  0  0
  9  7  1  0  0  0  0
 10 19  1  0  0  0  0
 10 17  1  0  0  0  0
 11 14  2  0  0  0  0
 11 16  1  0  0  0  0
 12 23  1  0  0  0  0
 13  5  1  1  0  0  0
 13  7  1  0  0  0  0
 13  4  1  0  0  0  0
 14 18  1  0  0  0  0
 15 20  1  6  0  0  0
 15  1  1  0  0  0  0
 16  2  2  0  0  0  0
 18  6  2  0  0  0  0
 19 20  2  0  0  0  0
 21 17  1  6  0  0  0
 21 15  1  0  0  0  0
 23 27  2  0  0  0  0
 23 24  1  0  0  0  0
 24 25  2  0  0  0  0
 25 22  1  0  0  0  0
 26 22  2  0  0  0  0
 27 26  1  0  0  0  0
M  END
>  <MODEL>
9

>  <REMARK>
 VINA RESULT:      -6.2      3.068      6.495
  Name = 
  1 active torsions:
  status: ('A' for Active; 'I' for Inactive)
    1  A    between atoms: C_9  and  N_15
                            x       y       z     vdW  Elec       q    Type
                         _______ _______ _______ _____ _____    ______ ____

>  <TORSDO>
F 1

$$$$
