=
 OpenBabel10272415123D

 34 38  0  0  1  0  0  0  0  0999 V2000
  191.2820  177.4740  139.6010 C   0  0  0  0  0  2  0  0  0  0  0  0
  189.2130  177.8800  138.2210 C   0  0  0  0  0  0  0  0  0  0  0  0
  187.7760  176.0360  135.2690 C   0  0  0  0  0  3  0  0  0  0  0  0
  189.7800  175.6800  136.6360 N   0  0  0  0  0  0  0  0  0  0  0  0
  188.9300  178.9940  139.0050 O   0  0  0  0  0  1  0  0  0  0  0  0
  190.6270  175.9940  137.6530 C   0  0  0  0  0  0  0  0  0  0  0  0
  190.3550  177.1030  138.4800 C   0  0  0  0  0  0  0  0  0  0  0  0
  186.5670  176.5960  135.1520 C   0  0  0  0  0  3  0  0  0  0  0  0
  186.0410  177.5500  136.1950 C   0  0  2  0  0  3  0  0  0  0  0  0
  188.6660  176.4120  136.3790 C   0  0  0  0  0  0  0  0  0  0  0  0
  187.1720  178.3870  136.8120 C   0  0  0  0  0  2  0  0  0  0  0  0
  188.3580  177.5300  137.1710 C   0  0  0  0  0  0  0  0  0  0  0  0
  192.9280  175.4880  136.9230 C   0  0  0  0  0  1  0  0  0  0  0  0
  191.8190  175.1220  137.8880 C   0  0  0  0  0  2  0  0  0  0  0  0
  185.3890  176.8290  137.2010 O   0  0  0  0  0  0  0  0  0  0  0  0
  183.1540  177.6220  137.2650 C   0  0  0  0  0  2  0  0  0  0  0  0
  183.4900  177.0160  138.6100 C   0  0  0  0  0  2  0  0  0  0  0  0
  184.5550  177.7570  137.8270 C   0  0  0  0  0  3  0  0  0  0  0  0
  190.8420  176.8140  140.8980 C   0  0  0  0  0  2  0  0  0  0  0  0
  190.6350  177.8520  141.9910 C   0  0  0  0  0  2  0  0  0  0  0  0
  187.7110  177.3470  141.9230 O   0  0  0  0  0  0  0  0  0  0  0  0
  190.1490  177.0850  144.3880 C   0  0  0  0  0  0  0  0  0  0  0  0
  186.3520  177.7480  146.1820 C   0  0  1  0  0  3  0  0  0  0  0  0
  186.7430  177.9160  144.7120 C   0  0  0  0  0  2  0  0  0  0  0  0
  187.7600  176.8470  144.3040 C   0  0  2  0  0  3  0  0  0  0  0  0
  189.7800  177.3170  143.0420 N   0  0  0  0  0  0  0  0  0  0  0  0
  188.9010  177.7850  146.4150 C   0  0  0  0  0  2  0  0  0  0  0  0
  188.9830  176.7730  145.2690 C   0  0  2  0  0  3  0  0  0  0  0  0
  187.5570  177.6700  147.1340 C   0  0  0  0  0  2  0  0  0  0  0  0
  191.3430  177.1140  144.7880 O   0  0  0  0  0  0  0  0  0  0  0  0
  188.3710  177.1940  142.9860 C   0  0  0  0  0  0  0  0  0  0  0  0
  184.1320  178.8990  146.1110 O   0  0  0  0  0  0  0  0  0  0  0  0
  185.4320  178.8450  146.6010 C   0  0  0  0  0  0  0  0  0  0  0  0
  185.8370  179.7290  147.3980 O   0  0  0  0  0  1  0  0  0  0  0  0
  1 19  1  0  0  0  0
  2  7  1  0  0  0  0
  2  5  1  0  0  0  0
  3 10  1  0  0  0  0
  4  6  1  0  0  0  0
  6 14  1  0  0  0  0
  6  7  2  0  0  0  0
  7  1  1  0  0  0  0
  8  3  2  0  0  0  0
  8  9  1  0  0  0  0
  9 11  1  0  0  0  0
  9 15  1  1  0  0  0
 10  4  2  0  0  0  0
 10 12  1  0  0  0  0
 11 12  1  0  0  0  0
 12  2  2  0  0  0  0
 13 14  1  0  0  0  0
 15 18  1  0  0  0  0
 16 18  1  0  0  0  0
 16 17  1  0  0  0  0
 18 17  1  0  0  0  0
 19 20  1  0  0  0  0
 20 26  1  0  0  0  0
 21 31  2  0  0  0  0
 22 30  2  0  0  0  0
 22 28  1  0  0  0  0
 23 33  1  1  0  0  0
 23 29  1  0  0  0  0
 24 23  1  0  0  0  0
 25 24  1  1  0  0  0
 25 28  1  0  0  0  0
 26 22  1  0  0  0  0
 27 29  1  0  0  0  0
 28 27  1  1  0  0  0
 31 26  1  0  0  0  0
 31 25  1  0  0  0  0
 32 33  2  0  0  0  0
 33 34  1  0  0  0  0
M  END
>  <MODEL>
1

>  <REMARK>
 VINA RESULT:      -8.3      0.000      0.000
  Name = 
  8 active torsions:
  status: ('A' for Active; 'I' for Inactive)
    1  A    between atoms: C_7  and  C_15
    2  A    between atoms: C_8  and  C_17
    3  A    between atoms: C_8  and  N_18
    4  A    between atoms: C_10  and  C_17
    5  A    between atoms: C_10  and  C_20
    6  A    between atoms: C_19  and  C_22
    7  A    between atoms: C_24  and  O_25
    8  A    between atoms: O_25  and  C_27
                            x       y       z     vdW  Elec       q    Type
                         _______ _______ _______ _____ _____    ______ ____

>  <TORSDO>
F 8

$$$$
=
 OpenBabel10272415123D

 34 38  0  0  1  0  0  0  0  0999 V2000
  186.7150  178.4360  138.1220 C   0  0  0  0  0  2  0  0  0  0  0  0
  184.3460  178.8940  138.8460 C   0  0  0  0  0  0  0  0  0  0  0  0
  181.1740  176.9070  138.4260 C   0  0  0  0  0  3  0  0  0  0  0  0
  183.4930  176.5030  137.7380 N   0  0  0  0  0  0  0  0  0  0  0  0
  184.7650  180.1030  139.3930 O   0  0  0  0  0  1  0  0  0  0  0  0
  184.8090  176.8360  137.6510 C   0  0  0  0  0  0  0  0  0  0  0  0
  185.2690  178.0430  138.2160 C   0  0  0  0  0  0  0  0  0  0  0  0
  180.3260  177.5640  139.2250 C   0  0  0  0  0  3  0  0  0  0  0  0
  180.8030  178.6630  140.1410 C   0  0  2  0  0  3  0  0  0  0  0  0
  182.5880  177.3070  138.3540 C   0  0  0  0  0  0  0  0  0  0  0  0
  181.9680  179.4470  139.5180 C   0  0  0  0  0  2  0  0  0  0  0  0
  182.9990  178.5230  138.9240 C   0  0  0  0  0  0  0  0  0  0  0  0
  185.2280  174.4660  137.1100 C   0  0  0  0  0  1  0  0  0  0  0  0
  185.7460  175.8840  136.9800 C   0  0  0  0  0  2  0  0  0  0  0  0
  181.2100  178.1110  141.3600 O   0  0  0  0  0  0  0  0  0  0  0  0
  180.5810  178.6690  143.5790 C   0  0  0  0  0  2  0  0  0  0  0  0
  182.0740  178.8630  143.4370 C   0  0  0  0  0  2  0  0  0  0  0  0
  181.1580  179.1680  142.2700 C   0  0  0  0  0  3  0  0  0  0  0  0
  187.5360  177.7040  139.1710 C   0  0  0  0  0  2  0  0  0  0  0  0
  187.8140  178.6040  140.3660 C   0  0  0  0  0  2  0  0  0  0  0  0
  185.4210  178.2440  142.0850 O   0  0  0  0  0  0  0  0  0  0  0  0
  188.7480  177.2660  142.3450 C   0  0  0  0  0  0  0  0  0  0  0  0
  187.0350  177.5920  146.2220 C   0  0  1  0  0  3  0  0  0  0  0  0
  186.4770  178.1160  144.8970 C   0  0  0  0  0  2  0  0  0  0  0  0
  186.8090  177.1500  143.7580 C   0  0  2  0  0  3  0  0  0  0  0  0
  187.6900  177.8490  141.6070 N   0  0  0  0  0  0  0  0  0  0  0  0
  189.1500  177.4710  144.7840 C   0  0  0  0  0  2  0  0  0  0  0  0
  188.3230  176.7840  143.6940 C   0  0  2  0  0  3  0  0  0  0  0  0
  188.5280  177.2270  146.1590 C   0  0  0  0  0  2  0  0  0  0  0  0
  189.9170  177.1460  141.8910 O   0  0  0  0  0  0  0  0  0  0  0  0
  186.5460  177.7990  142.4380 C   0  0  0  0  0  0  0  0  0  0  0  0
  185.7110  179.4530  147.2420 O   0  0  0  0  0  0  0  0  0  0  0  0
  186.7900  178.5790  147.3130 C   0  0  0  0  0  0  0  0  0  0  0  0
  187.5680  178.6240  148.3000 O   0  0  0  0  0  1  0  0  0  0  0  0
  1  7  1  0  0  0  0
  1 19  1  0  0  0  0
  2 12  1  0  0  0  0
  2  5  1  0  0  0  0
  3  8  2  0  0  0  0
  4 10  1  0  0  0  0
  6  4  2  0  0  0  0
  6  7  1  0  0  0  0
  7  2  2  0  0  0  0
  8  9  1  0  0  0  0
  9 15  1  1  0  0  0
 10  3  1  0  0  0  0
 10 12  2  0  0  0  0
 11  9  1  0  0  0  0
 12 11  1  0  0  0  0
 14 13  1  0  0  0  0
 14  6  1  0  0  0  0
 15 18  1  0  0  0  0
 17 16  1  0  0  0  0
 18 17  1  0  0  0  0
 18 16  1  0  0  0  0
 19 20  1  0  0  0  0
 20 26  1  0  0  0  0
 21 31  2  0  0  0  0
 22 28  1  0  0  0  0
 23 33  1  1  0  0  0
 24 23  1  0  0  0  0
 25 24  1  1  0  0  0
 26 22  1  0  0  0  0
 26 31  1  0  0  0  0
 27 29  1  0  0  0  0
 28 25  1  0  0  0  0
 28 27  1  1  0  0  0
 29 23  1  0  0  0  0
 30 22  2  0  0  0  0
 31 25  1  0  0  0  0
 32 33  2  0  0  0  0
 33 34  1  0  0  0  0
M  END
>  <MODEL>
2

>  <REMARK>
 VINA RESULT:      -8.1      2.821      4.730
  Name = 
  8 active torsions:
  status: ('A' for Active; 'I' for Inactive)
    1  A    between atoms: C_7  and  C_15
    2  A    between atoms: C_8  and  C_17
    3  A    between atoms: C_8  and  N_18
    4  A    between atoms: C_10  and  C_17
    5  A    between atoms: C_10  and  C_20
    6  A    between atoms: C_19  and  C_22
    7  A    between atoms: C_24  and  O_25
    8  A    between atoms: O_25  and  C_27
                            x       y       z     vdW  Elec       q    Type
                         _______ _______ _______ _____ _____    ______ ____

>  <TORSDO>
F 8

$$$$
=
 OpenBabel10272415123D

 34 38  0  0  1  0  0  0  0  0999 V2000
  190.0380  176.3350  142.4940 C   0  0  0  0  0  2  0  0  0  0  0  0
  188.1510  176.7050  144.1220 C   0  0  0  0  0  0  0  0  0  0  0  0
  188.0370  178.4340  147.4660 C   0  0  0  0  0  3  0  0  0  0  0  0
  189.8440  178.0490  145.8540 N   0  0  0  0  0  0  0  0  0  0  0  0
  187.2980  176.0190  143.2630 O   0  0  0  0  0  1  0  0  0  0  0  0
  190.3470  177.5650  144.6860 C   0  0  0  0  0  0  0  0  0  0  0  0
  189.5030  176.8870  143.7830 C   0  0  0  0  0  0  0  0  0  0  0  0
  186.7230  178.4970  147.7020 C   0  0  0  0  0  3  0  0  0  0  0  0
  185.7170  178.1110  146.6460 C   0  0  2  0  0  3  0  0  0  0  0  0
  188.5390  177.8930  146.1920 C   0  0  0  0  0  0  0  0  0  0  0  0
  186.2410  176.9690  145.7620 C   0  0  0  0  0  2  0  0  0  0  0  0
  187.6630  177.2170  145.3280 C   0  0  0  0  0  0  0  0  0  0  0  0
  192.0040  179.2450  143.9650 C   0  0  0  0  0  1  0  0  0  0  0  0
  191.7900  177.8010  144.3740 C   0  0  0  0  0  2  0  0  0  0  0  0
  185.4250  179.2230  145.8510 O   0  0  0  0  0  0  0  0  0  0  0  0
  183.3540  179.0450  144.7060 C   0  0  0  0  0  2  0  0  0  0  0  0
  184.3140  179.8380  143.8470 C   0  0  0  0  0  2  0  0  0  0  0  0
  184.8290  178.6990  144.7020 C   0  0  0  0  0  3  0  0  0  0  0  0
  189.6260  177.2160  141.3240 C   0  0  0  0  0  2  0  0  0  0  0  0
  190.7340  177.2880  140.2840 C   0  0  0  0  0  2  0  0  0  0  0  0
  189.0660  179.2440  138.8000 O   0  0  0  0  0  0  0  0  0  0  0  0
  190.1750  176.0180  138.1280 C   0  0  0  0  0  0  0  0  0  0  0  0
  186.5720  176.7750  136.0010 C   0  0  1  0  0  3  0  0  0  0  0  0
  187.1780  177.5850  137.1490 C   0  0  0  0  0  2  0  0  0  0  0  0
  188.7060  177.5860  137.0550 C   0  0  2  0  0  3  0  0  0  0  0  0
  190.1760  177.1750  138.9420 N   0  0  0  0  0  0  0  0  0  0  0  0
  188.2390  175.0570  136.9100 C   0  0  0  0  0  2  0  0  0  0  0  0
  189.3070  176.1540  136.9200 C   0  0  2  0  0  3  0  0  0  0  0  0
  187.1680  175.3630  135.8640 C   0  0  0  0  0  2  0  0  0  0  0  0
  190.8600  174.9940  138.3900 O   0  0  0  0  0  0  0  0  0  0  0  0
  189.3000  178.1000  138.3260 C   0  0  0  0  0  0  0  0  0  0  0  0
  184.2580  177.1930  135.1500 O   0  0  0  0  0  0  0  0  0  0  0  0
  185.0910  176.6990  136.1480 C   0  0  0  0  0  0  0  0  0  0  0  0
  184.5910  176.1890  137.1830 O   0  0  0  0  0  1  0  0  0  0  0  0
  1  7  1  0  0  0  0
  2 12  1  0  0  0  0
  3  8  2  0  0  0  0
  4 10  1  0  0  0  0
  5  2  1  0  0  0  0
  6  4  2  0  0  0  0
  7  2  2  0  0  0  0
  7  6  1  0  0  0  0
  9 15  1  6  0  0  0
  9  8  1  0  0  0  0
 10  3  1  0  0  0  0
 11  9  1  0  0  0  0
 12 11  1  0  0  0  0
 12 10  2  0  0  0  0
 13 14  1  0  0  0  0
 14  6  1  0  0  0  0
 17 18  1  0  0  0  0
 17 16  1  0  0  0  0
 18 16  1  0  0  0  0
 18 15  1  0  0  0  0
 19  1  1  0  0  0  0
 20 19  1  0  0  0  0
 22 30  2  0  0  0  0
 22 26  1  0  0  0  0
 23 33  1  1  0  0  0
 23 24  1  0  0  0  0
 25 24  1  1  0  0  0
 25 31  1  0  0  0  0
 26 20  1  0  0  0  0
 28 27  1  1  0  0  0
 28 25  1  0  0  0  0
 28 22  1  0  0  0  0
 29 23  1  0  0  0  0
 29 27  1  0  0  0  0
 31 21  2  0  0  0  0
 31 26  1  0  0  0  0
 32 33  2  0  0  0  0
 33 34  1  0  0  0  0
M  END
>  <MODEL>
3

>  <REMARK>
 VINA RESULT:      -8.0      1.728      8.187
  Name = 
  8 active torsions:
  status: ('A' for Active; 'I' for Inactive)
    1  A    between atoms: C_7  and  C_15
    2  A    between atoms: C_8  and  C_17
    3  A    between atoms: C_8  and  N_18
    4  A    between atoms: C_10  and  C_17
    5  A    between atoms: C_10  and  C_20
    6  A    between atoms: C_19  and  C_22
    7  A    between atoms: C_24  and  O_25
    8  A    between atoms: O_25  and  C_27
                            x       y       z     vdW  Elec       q    Type
                         _______ _______ _______ _____ _____    ______ ____

>  <TORSDO>
F 8

$$$$
=
 OpenBabel10272415123D

 34 38  0  0  1  0  0  0  0  0999 V2000
  190.1980  177.9300  139.8300 C   0  0  0  0  0  2  0  0  0  0  0  0
  188.1320  177.5630  138.4350 C   0  0  0  0  0  0  0  0  0  0  0  0
  187.4980  175.3790  135.4330 C   0  0  0  0  0  3  0  0  0  0  0  0
  189.4850  175.7680  136.8160 N   0  0  0  0  0  0  0  0  0  0  0  0
  187.4500  178.4750  139.2360 O   0  0  0  0  0  1  0  0  0  0  0  0
  190.1510  176.3540  137.8480 C   0  0  0  0  0  0  0  0  0  0  0  0
  189.4810  177.2630  138.6920 C   0  0  0  0  0  0  0  0  0  0  0  0
  186.1680  175.4490  135.3140 C   0  0  0  0  0  3  0  0  0  0  0  0
  185.3200  176.1160  136.3680 C   0  0  2  0  0  3  0  0  0  0  0  0
  188.1790  176.0370  136.5600 C   0  0  0  0  0  0  0  0  0  0  0  0
  186.0540  177.3010  137.0130 C   0  0  0  0  0  2  0  0  0  0  0  0
  187.4740  176.9420  137.3690 C   0  0  0  0  0  0  0  0  0  0  0  0
  191.8510  174.5920  137.5500 C   0  0  0  0  0  1  0  0  0  0  0  0
  191.5800  175.9860  138.0810 C   0  0  0  0  0  2  0  0  0  0  0  0
  184.9820  175.1820  137.3530 O   0  0  0  0  0  0  0  0  0  0  0  0
  185.3260  172.8570  137.6780 C   0  0  0  0  0  2  0  0  0  0  0  0
  183.8810  173.0810  137.2930 C   0  0  0  0  0  2  0  0  0  0  0  0
  184.9660  173.9520  136.6940 C   0  0  0  0  0  3  0  0  0  0  0  0
  190.4020  176.9540  140.9780 C   0  0  0  0  0  2  0  0  0  0  0  0
  190.7310  177.6930  142.2660 C   0  0  0  0  0  2  0  0  0  0  0  0
  187.8220  177.1070  142.2230 O   0  0  0  0  0  0  0  0  0  0  0  0
  190.2480  177.1040  144.7140 C   0  0  0  0  0  0  0  0  0  0  0  0
  186.4230  177.8050  146.4310 C   0  0  1  0  0  3  0  0  0  0  0  0
  186.8200  177.8670  144.9550 C   0  0  0  0  0  2  0  0  0  0  0  0
  187.8670  176.7970  144.6370 C   0  0  2  0  0  3  0  0  0  0  0  0
  189.8830  177.2190  143.3520 N   0  0  0  0  0  0  0  0  0  0  0  0
  188.9680  177.9270  146.6730 C   0  0  0  0  0  2  0  0  0  0  0  0
  189.0840  176.8310  145.6110 C   0  0  2  0  0  3  0  0  0  0  0  0
  187.6230  177.8340  147.3930 C   0  0  0  0  0  2  0  0  0  0  0  0
  191.4380  177.1960  145.1160 O   0  0  0  0  0  0  0  0  0  0  0  0
  188.4780  177.0550  143.2980 C   0  0  0  0  0  0  0  0  0  0  0  0
  184.1810  178.8970  146.2420 O   0  0  0  0  0  0  0  0  0  0  0  0
  185.4720  178.9060  146.7570 C   0  0  0  0  0  0  0  0  0  0  0  0
  185.8420  179.8510  147.5000 O   0  0  0  0  0  1  0  0  0  0  0  0
  1 19  1  0  0  0  0
  2  7  1  0  0  0  0
  2  5  1  0  0  0  0
  3 10  1  0  0  0  0
  4  6  1  0  0  0  0
  6 14  1  0  0  0  0
  6  7  2  0  0  0  0
  7  1  1  0  0  0  0
  8  3  2  0  0  0  0
  8  9  1  0  0  0  0
  9 11  1  0  0  0  0
  9 15  1  1  0  0  0
 10  4  2  0  0  0  0
 10 12  1  0  0  0  0
 11 12  1  0  0  0  0
 12  2  2  0  0  0  0
 13 14  1  0  0  0  0
 17 16  1  0  0  0  0
 18 17  1  0  0  0  0
 18 15  1  0  0  0  0
 18 16  1  0  0  0  0
 19 20  1  0  0  0  0
 20 26  1  0  0  0  0
 21 31  2  0  0  0  0
 22 30  2  0  0  0  0
 22 28  1  0  0  0  0
 23 33  1  1  0  0  0
 23 29  1  0  0  0  0
 24 23  1  0  0  0  0
 25 24  1  1  0  0  0
 25 28  1  0  0  0  0
 26 22  1  0  0  0  0
 27 29  1  0  0  0  0
 28 27  1  1  0  0  0
 31 26  1  0  0  0  0
 31 25  1  0  0  0  0
 32 33  2  0  0  0  0
 33 34  1  0  0  0  0
M  END
>  <MODEL>
4

>  <REMARK>
 VINA RESULT:      -7.9      1.435      1.571
  Name = 
  8 active torsions:
  status: ('A' for Active; 'I' for Inactive)
    1  A    between atoms: C_7  and  C_15
    2  A    between atoms: C_8  and  C_17
    3  A    between atoms: C_8  and  N_18
    4  A    between atoms: C_10  and  C_17
    5  A    between atoms: C_10  and  C_20
    6  A    between atoms: C_19  and  C_22
    7  A    between atoms: C_24  and  O_25
    8  A    between atoms: O_25  and  C_27
                            x       y       z     vdW  Elec       q    Type
                         _______ _______ _______ _____ _____    ______ ____

>  <TORSDO>
F 8

$$$$
=
 OpenBabel10272415123D

 34 38  0  0  1  0  0  0  0  0999 V2000
  191.4410  177.7090  140.1880 C   0  0  0  0  0  2  0  0  0  0  0  0
  192.7820  176.1470  138.7360 C   0  0  0  0  0  0  0  0  0  0  0  0
  191.7430  173.7080  136.0610 C   0  0  0  0  0  3  0  0  0  0  0  0
  190.4770  175.2410  137.4960 N   0  0  0  0  0  0  0  0  0  0  0  0
  193.9430  176.5870  139.3650 O   0  0  0  0  0  1  0  0  0  0  0  0
  190.3720  176.1880  138.4670 C   0  0  0  0  0  0  0  0  0  0  0  0
  191.5330  176.6730  139.1060 C   0  0  0  0  0  0  0  0  0  0  0  0
  192.9170  173.3730  135.5180 C   0  0  0  0  0  3  0  0  0  0  0  0
  194.1890  174.0900  135.8960 C   0  0  2  0  0  3  0  0  0  0  0  0
  191.6760  174.7310  137.1170 C   0  0  0  0  0  0  0  0  0  0  0  0
  194.1700  174.5310  137.3670 C   0  0  0  0  0  2  0  0  0  0  0  0
  192.8580  175.1770  137.7310 C   0  0  0  0  0  0  0  0  0  0  0  0
  188.6780  177.8920  137.9110 C   0  0  0  0  0  1  0  0  0  0  0  0
  189.0180  176.7200  138.8090 C   0  0  0  0  0  2  0  0  0  0  0  0
  194.3550  175.2100  135.0740 O   0  0  0  0  0  0  0  0  0  0  0  0
  196.6600  175.3230  134.5230 C   0  0  0  0  0  2  0  0  0  0  0  0
  196.0640  176.7060  134.3850 C   0  0  0  0  0  2  0  0  0  0  0  0
  195.5690  175.7730  135.4720 C   0  0  0  0  0  3  0  0  0  0  0  0
  191.4480  177.0520  141.5590 C   0  0  0  0  0  2  0  0  0  0  0  0
  191.1220  178.0640  142.6470 C   0  0  0  0  0  2  0  0  0  0  0  0
  188.2360  177.4670  142.2930 O   0  0  0  0  0  0  0  0  0  0  0  0
  190.4320  177.2590  144.9810 C   0  0  0  0  0  0  0  0  0  0  0  0
  186.4610  177.7850  146.4040 C   0  0  1  0  0  3  0  0  0  0  0  0
  186.9860  177.9790  144.9800 C   0  0  0  0  0  2  0  0  0  0  0  0
  188.0720  176.9470  144.6650 C   0  0  2  0  0  3  0  0  0  0  0  0
  190.1880  177.4920  143.6080 N   0  0  0  0  0  0  0  0  0  0  0  0
  188.9730  177.9000  146.8820 C   0  0  0  0  0  2  0  0  0  0  0  0
  189.1980  176.9020  145.7430 C   0  0  2  0  0  3  0  0  0  0  0  0
  187.5710  177.7360  147.4680 C   0  0  0  0  0  2  0  0  0  0  0  0
  191.5810  177.3220  145.4940 O   0  0  0  0  0  0  0  0  0  0  0  0
  188.7960  177.3250  143.4140 C   0  0  0  0  0  0  0  0  0  0  0  0
  184.2140  178.8530  146.1420 O   0  0  0  0  0  0  0  0  0  0  0  0
  185.4700  178.8480  146.7390 C   0  0  0  0  0  0  0  0  0  0  0  0
  185.7750  179.7480  147.5630 O   0  0  0  0  0  1  0  0  0  0  0  0
  1 19  1  0  0  0  0
  2  7  1  0  0  0  0
  2  5  1  0  0  0  0
  3 10  1  0  0  0  0
  4  6  1  0  0  0  0
  6 14  1  0  0  0  0
  6  7  2  0  0  0  0
  7  1  1  0  0  0  0
  8  9  1  0  0  0  0
  8  3  2  0  0  0  0
  9 15  1  6  0  0  0
  9 11  1  0  0  0  0
 10  4  2  0  0  0  0
 10 12  1  0  0  0  0
 11 12  1  0  0  0  0
 12  2  2  0  0  0  0
 13 14  1  0  0  0  0
 15 18  1  0  0  0  0
 16 18  1  0  0  0  0
 17 16  1  0  0  0  0
 17 18  1  0  0  0  0
 19 20  1  0  0  0  0
 20 26  1  0  0  0  0
 21 31  2  0  0  0  0
 22 30  2  0  0  0  0
 22 28  1  0  0  0  0
 23 33  1  1  0  0  0
 23 29  1  0  0  0  0
 24 23  1  0  0  0  0
 25 24  1  1  0  0  0
 25 28  1  0  0  0  0
 26 22  1  0  0  0  0
 27 29  1  0  0  0  0
 28 27  1  1  0  0  0
 31 26  1  0  0  0  0
 31 25  1  0  0  0  0
 32 33  2  0  0  0  0
 33 34  1  0  0  0  0
M  END
>  <MODEL>
5

>  <REMARK>
 VINA RESULT:      -7.9      2.293      5.247
  Name = 
  8 active torsions:
  status: ('A' for Active; 'I' for Inactive)
    1  A    between atoms: C_7  and  C_15
    2  A    between atoms: C_8  and  C_17
    3  A    between atoms: C_8  and  N_18
    4  A    between atoms: C_10  and  C_17
    5  A    between atoms: C_10  and  C_20
    6  A    between atoms: C_19  and  C_22
    7  A    between atoms: C_24  and  O_25
    8  A    between atoms: O_25  and  C_27
                            x       y       z     vdW  Elec       q    Type
                         _______ _______ _______ _____ _____    ______ ____

>  <TORSDO>
F 8

$$$$
=
 OpenBabel10272415123D

 34 38  0  0  1  0  0  0  0  0999 V2000
  186.1080  179.4790  142.0410 C   0  0  0  0  0  2  0  0  0  0  0  0
  184.2890  179.1500  140.3290 C   0  0  0  0  0  0  0  0  0  0  0  0
  180.7160  178.0090  140.6650 C   0  0  0  0  0  3  0  0  0  0  0  0
  182.5160  178.3410  142.2970 N   0  0  0  0  0  0  0  0  0  0  0  0
  185.1790  179.5410  139.3330 O   0  0  0  0  0  1  0  0  0  0  0  0
  183.7840  178.6830  142.6540 C   0  0  0  0  0  0  0  0  0  0  0  0
  184.7010  179.1070  141.6720 C   0  0  0  0  0  0  0  0  0  0  0  0
  180.2240  178.2720  139.4500 C   0  0  0  0  0  3  0  0  0  0  0  0
  181.0240  179.0430  138.4300 C   0  0  2  0  0  3  0  0  0  0  0  0
  182.0970  178.3870  141.0070 C   0  0  0  0  0  0  0  0  0  0  0  0
  182.5270  178.7490  138.5560 C   0  0  0  0  0  2  0  0  0  0  0  0
  182.9790  178.7950  139.9930 C   0  0  0  0  0  0  0  0  0  0  0  0
  182.9240  178.7780  144.9640 C   0  0  0  0  0  1  0  0  0  0  0  0
  184.1600  178.6310  144.1000 C   0  0  0  0  0  2  0  0  0  0  0  0
  180.8000  180.4130  138.5990 O   0  0  0  0  0  0  0  0  0  0  0  0
  179.9820  181.7490  136.8170 C   0  0  0  0  0  2  0  0  0  0  0  0
  181.0970  182.5000  137.5100 C   0  0  0  0  0  2  0  0  0  0  0  0
  181.1660  180.9920  137.3820 C   0  0  0  0  0  3  0  0  0  0  0  0
  187.0830  178.4090  141.5740 C   0  0  0  0  0  2  0  0  0  0  0  0
  187.2050  177.3000  142.6070 C   0  0  0  0  0  2  0  0  0  0  0  0
  190.1410  177.7350  142.5520 O   0  0  0  0  0  0  0  0  0  0  0  0
  187.7340  177.8310  145.0590 C   0  0  0  0  0  0  0  0  0  0  0  0
  191.5280  176.9100  146.7410 C   0  0  1  0  0  3  0  0  0  0  0  0
  191.1190  176.8870  145.2670 C   0  0  0  0  0  2  0  0  0  0  0  0
  190.1270  178.0150  144.9700 C   0  0  2  0  0  3  0  0  0  0  0  0
  188.0840  177.7150  143.6940 N   0  0  0  0  0  0  0  0  0  0  0  0
  188.9810  176.9170  146.9980 C   0  0  0  0  0  2  0  0  0  0  0  0
  188.9160  178.0310  145.9510 C   0  0  2  0  0  3  0  0  0  0  0  0
  190.3340  176.9300  147.7100 C   0  0  0  0  0  2  0  0  0  0  0  0
  186.5430  177.7960  145.4680 O   0  0  0  0  0  0  0  0  0  0  0  0
  189.4950  177.8060  143.6320 C   0  0  0  0  0  0  0  0  0  0  0  0
  193.0100  175.6340  148.3000 O   0  0  0  0  0  1  0  0  0  0  0  0
  192.4220  175.7560  147.0460 C   0  0  0  0  0  0  0  0  0  0  0  0
  192.6490  174.8910  146.1620 O   0  0  0  0  0  0  0  0  0  0  0  0
  2  7  1  0  0  0  0
  3 10  1  0  0  0  0
  4  6  1  0  0  0  0
  5  2  1  0  0  0  0
  6 14  1  0  0  0  0
  7  1  1  0  0  0  0
  7  6  2  0  0  0  0
  8  3  2  0  0  0  0
  9 11  1  0  0  0  0
  9 15  1  1  0  0  0
  9  8  1  0  0  0  0
 10  4  2  0  0  0  0
 11 12  1  0  0  0  0
 12  2  2  0  0  0  0
 12 10  1  0  0  0  0
 14 13  1  0  0  0  0
 16 18  1  0  0  0  0
 16 17  1  0  0  0  0
 18 17  1  0  0  0  0
 18 15  1  0  0  0  0
 19  1  1  0  0  0  0
 19 20  1  0  0  0  0
 20 26  1  0  0  0  0
 21 31  2  0  0  0  0
 22 30  2  0  0  0  0
 22 28  1  0  0  0  0
 23 33  1  1  0  0  0
 23 29  1  0  0  0  0
 24 23  1  0  0  0  0
 25 24  1  1  0  0  0
 25 28  1  0  0  0  0
 26 22  1  0  0  0  0
 27 29  1  0  0  0  0
 28 27  1  1  0  0  0
 31 26  1  0  0  0  0
 31 25  1  0  0  0  0
 33 32  1  0  0  0  0
 34 33  2  0  0  0  0
M  END
>  <MODEL>
6

>  <REMARK>
 VINA RESULT:      -7.9      3.975      6.368
  Name = 
  8 active torsions:
  status: ('A' for Active; 'I' for Inactive)
    1  A    between atoms: C_7  and  C_15
    2  A    between atoms: C_8  and  C_17
    3  A    between atoms: C_8  and  N_18
    4  A    between atoms: C_10  and  C_17
    5  A    between atoms: C_10  and  C_20
    6  A    between atoms: C_19  and  C_22
    7  A    between atoms: C_24  and  O_25
    8  A    between atoms: O_25  and  C_27
                            x       y       z     vdW  Elec       q    Type
                         _______ _______ _______ _____ _____    ______ ____

>  <TORSDO>
F 8

$$$$
=
 OpenBabel10272415123D

 34 38  0  0  1  0  0  0  0  0999 V2000
  189.0610  178.6030  139.6000 C   0  0  0  0  0  2  0  0  0  0  0  0
  187.5500  177.6080  137.8470 C   0  0  0  0  0  0  0  0  0  0  0  0
  187.9400  174.5870  135.6330 C   0  0  0  0  0  3  0  0  0  0  0  0
  189.3800  175.5910  137.3450 N   0  0  0  0  0  0  0  0  0  0  0  0
  186.6320  178.6270  138.0840 O   0  0  0  0  0  1  0  0  0  0  0  0
  189.6740  176.5240  138.2890 C   0  0  0  0  0  0  0  0  0  0  0  0
  188.7540  177.5560  138.5700 C   0  0  0  0  0  0  0  0  0  0  0  0
  186.7150  174.4640  135.1110 C   0  0  0  0  0  3  0  0  0  0  0  0
  185.5640  175.3050  135.6040 C   0  0  2  0  0  3  0  0  0  0  0  0
  188.2170  175.6190  136.6450 C   0  0  0  0  0  0  0  0  0  0  0  0
  186.0340  176.7040  136.0320 C   0  0  0  0  0  2  0  0  0  0  0  0
  187.2750  176.6320  136.8840 C   0  0  0  0  0  0  0  0  0  0  0  0
  192.1230  176.3430  138.0620 C   0  0  0  0  0  1  0  0  0  0  0  0
  190.9630  176.4090  139.0360 C   0  0  0  0  0  2  0  0  0  0  0  0
  184.9500  174.6660  136.6860 O   0  0  0  0  0  0  0  0  0  0  0  0
  184.4860  172.4010  137.2240 C   0  0  0  0  0  2  0  0  0  0  0  0
  183.1810  173.1020  136.9190 C   0  0  0  0  0  2  0  0  0  0  0  0
  184.4360  173.4790  136.1600 C   0  0  0  0  0  3  0  0  0  0  0  0
  188.1620  178.4370  140.8150 C   0  0  0  0  0  2  0  0  0  0  0  0
  188.5930  177.2390  141.6480 C   0  0  0  0  0  2  0  0  0  0  0  0
  191.3980  177.7370  142.4800 O   0  0  0  0  0  0  0  0  0  0  0  0
  188.3430  177.7920  144.1390 C   0  0  0  0  0  0  0  0  0  0  0  0
  191.4660  176.9600  146.9010 C   0  0  1  0  0  3  0  0  0  0  0  0
  191.5230  176.9230  145.3720 C   0  0  0  0  0  2  0  0  0  0  0  0
  190.6460  178.0270  144.7770 C   0  0  2  0  0  3  0  0  0  0  0  0
  189.0930  177.6780  142.9450 N   0  0  0  0  0  0  0  0  0  0  0  0
  188.9610  176.9130  146.3740 C   0  0  0  0  0  2  0  0  0  0  0  0
  189.1940  178.0210  145.3450 C   0  0  2  0  0  3  0  0  0  0  0  0
  190.0330  176.9590  147.4620 C   0  0  0  0  0  2  0  0  0  0  0  0
  187.0850  177.7330  144.1680 O   0  0  0  0  0  0  0  0  0  0  0  0
  190.4540  177.7990  143.3130 C   0  0  0  0  0  0  0  0  0  0  0  0
  193.1080  176.0380  148.5460 O   0  0  0  0  0  1  0  0  0  0  0  0
  192.2470  175.8280  147.4750 C   0  0  0  0  0  0  0  0  0  0  0  0
  192.1300  174.6760  146.9840 O   0  0  0  0  0  0  0  0  0  0  0  0
  1 19  1  0  0  0  0
  2  5  1  0  0  0  0
  2  7  1  0  0  0  0
  3 10  1  0  0  0  0
  4  6  1  0  0  0  0
  6  7  2  0  0  0  0
  6 14  1  0  0  0  0
  7  1  1  0  0  0  0
  8  9  1  0  0  0  0
  8  3  2  0  0  0  0
  9 11  1  0  0  0  0
  9 15  1  1  0  0  0
 10 12  1  0  0  0  0
 10  4  2  0  0  0  0
 11 12  1  0  0  0  0
 12  2  2  0  0  0  0
 13 14  1  0  0  0  0
 17 16  1  0  0  0  0
 18 15  1  0  0  0  0
 18 17  1  0  0  0  0
 18 16  1  0  0  0  0
 19 20  1  0  0  0  0
 20 26  1  0  0  0  0
 21 31  2  0  0  0  0
 22 30  2  0  0  0  0
 22 28  1  0  0  0  0
 23 29  1  0  0  0  0
 23 33  1  1  0  0  0
 24 23  1  0  0  0  0
 25 28  1  0  0  0  0
 25 24  1  1  0  0  0
 26 31  1  0  0  0  0
 26 22  1  0  0  0  0
 27 29  1  0  0  0  0
 28 27  1  1  0  0  0
 31 25  1  0  0  0  0
 33 32  1  0  0  0  0
 34 33  2  0  0  0  0
M  END
>  <MODEL>
7

>  <REMARK>
 VINA RESULT:      -7.9      2.265      3.695
  Name = 
  8 active torsions:
  status: ('A' for Active; 'I' for Inactive)
    1  A    between atoms: C_7  and  C_15
    2  A    between atoms: C_8  and  C_17
    3  A    between atoms: C_8  and  N_18
    4  A    between atoms: C_10  and  C_17
    5  A    between atoms: C_10  and  C_20
    6  A    between atoms: C_19  and  C_22
    7  A    between atoms: C_24  and  O_25
    8  A    between atoms: O_25  and  C_27
                            x       y       z     vdW  Elec       q    Type
                         _______ _______ _______ _____ _____    ______ ____

>  <TORSDO>
F 8

$$$$
=
 OpenBabel10272415123D

 34 38  0  0  1  0  0  0  0  0999 V2000
  188.8910  178.3280  138.8840 C   0  0  0  0  0  2  0  0  0  0  0  0
  186.7450  177.6610  137.7460 C   0  0  0  0  0  0  0  0  0  0  0  0
  185.8430  174.6450  135.6790 C   0  0  0  0  0  3  0  0  0  0  0  0
  187.9120  175.3350  136.8000 N   0  0  0  0  0  0  0  0  0  0  0  0
  186.1560  178.8360  138.2060 O   0  0  0  0  0  1  0  0  0  0  0  0
  188.6580  176.1850  137.5560 C   0  0  0  0  0  0  0  0  0  0  0  0
  188.0830  177.3700  138.0570 C   0  0  0  0  0  0  0  0  0  0  0  0
  184.5160  174.7660  135.5740 C   0  0  0  0  0  3  0  0  0  0  0  0
  183.7580  175.8070  136.3590 C   0  0  2  0  0  3  0  0  0  0  0  0
  186.6140  175.5940  136.4990 C   0  0  0  0  0  0  0  0  0  0  0  0
  184.5910  177.0850  136.5460 C   0  0  0  0  0  2  0  0  0  0  0  0
  186.0010  176.7670  136.9690 C   0  0  0  0  0  0  0  0  0  0  0  0
  190.3640  174.4130  137.3690 C   0  0  0  0  0  1  0  0  0  0  0  0
  190.0730  175.8150  137.8660 C   0  0  0  0  0  2  0  0  0  0  0  0
  183.4110  175.2870  137.6100 O   0  0  0  0  0  0  0  0  0  0  0  0
  181.4920  175.4160  139.0000 C   0  0  0  0  0  2  0  0  0  0  0  0
  182.5990  176.2330  139.6290 C   0  0  0  0  0  2  0  0  0  0  0  0
  182.4640  176.1770  138.1210 C   0  0  0  0  0  3  0  0  0  0  0  0
  188.3840  178.3550  140.3180 C   0  0  0  0  0  2  0  0  0  0  0  0
  188.9500  177.1890  141.1140 C   0  0  0  0  0  2  0  0  0  0  0  0
  191.7050  177.6410  142.1230 O   0  0  0  0  0  0  0  0  0  0  0  0
  188.5490  177.7860  143.5750 C   0  0  0  0  0  0  0  0  0  0  0  0
  191.4650  176.9320  146.5490 C   0  0  1  0  0  3  0  0  0  0  0  0
  191.6210  176.8690  145.0280 C   0  0  0  0  0  2  0  0  0  0  0  0
  190.8100  177.9820  144.3610 C   0  0  2  0  0  3  0  0  0  0  0  0
  189.3730  177.6370  142.4350 N   0  0  0  0  0  0  0  0  0  0  0  0
  188.9990  176.9290  145.8590 C   0  0  0  0  0  2  0  0  0  0  0  0
  189.3240  178.0160  144.8310 C   0  0  2  0  0  3  0  0  0  0  0  0
  189.9990  176.9700  147.0140 C   0  0  0  0  0  2  0  0  0  0  0  0
  187.2910  177.7540  143.5220 O   0  0  0  0  0  0  0  0  0  0  0  0
  190.7090  177.7360  142.8900 C   0  0  0  0  0  0  0  0  0  0  0  0
  192.7230  175.9270  148.4630 O   0  0  0  0  0  1  0  0  0  0  0  0
  192.1810  175.7920  147.1890 C   0  0  0  0  0  0  0  0  0  0  0  0
  192.3000  174.7030  146.5720 O   0  0  0  0  0  0  0  0  0  0  0  0
  1 19  1  0  0  0  0
  2  7  1  0  0  0  0
  2  5  1  0  0  0  0
  3 10  1  0  0  0  0
  4  6  1  0  0  0  0
  6 14  1  0  0  0  0
  6  7  2  0  0  0  0
  7  1  1  0  0  0  0
  8  3  2  0  0  0  0
  8  9  1  0  0  0  0
  9 11  1  0  0  0  0
  9 15  1  1  0  0  0
 10  4  2  0  0  0  0
 10 12  1  0  0  0  0
 11 12  1  0  0  0  0
 12  2  2  0  0  0  0
 13 14  1  0  0  0  0
 15 18  1  0  0  0  0
 16 17  1  0  0  0  0
 18 16  1  0  0  0  0
 18 17  1  0  0  0  0
 19 20  1  0  0  0  0
 20 26  1  0  0  0  0
 21 31  2  0  0  0  0
 22 28  1  0  0  0  0
 23 29  1  0  0  0  0
 23 33  1  1  0  0  0
 24 23  1  0  0  0  0
 25 28  1  0  0  0  0
 25 24  1  1  0  0  0
 26 31  1  0  0  0  0
 26 22  1  0  0  0  0
 27 29  1  0  0  0  0
 28 27  1  1  0  0  0
 30 22  2  0  0  0  0
 31 25  1  0  0  0  0
 33 32  1  0  0  0  0
 34 33  2  0  0  0  0
M  END
>  <MODEL>
8

>  <REMARK>
 VINA RESULT:      -7.7      2.102      3.656
  Name = 
  8 active torsions:
  status: ('A' for Active; 'I' for Inactive)
    1  A    between atoms: C_7  and  C_15
    2  A    between atoms: C_8  and  C_17
    3  A    between atoms: C_8  and  N_18
    4  A    between atoms: C_10  and  C_17
    5  A    between atoms: C_10  and  C_20
    6  A    between atoms: C_19  and  C_22
    7  A    between atoms: C_24  and  O_25
    8  A    between atoms: O_25  and  C_27
                            x       y       z     vdW  Elec       q    Type
                         _______ _______ _______ _____ _____    ______ ____

>  <TORSDO>
F 8

$$$$
=
 OpenBabel10272415123D

 34 38  0  0  1  0  0  0  0  0999 V2000
  184.8030  179.1790  139.3200 C   0  0  0  0  0  2  0  0  0  0  0  0
  183.5930  177.6330  137.7410 C   0  0  0  0  0  0  0  0  0  0  0  0
  184.8610  175.2020  135.1600 C   0  0  0  0  0  3  0  0  0  0  0  0
  185.9980  176.7230  136.7110 N   0  0  0  0  0  0  0  0  0  0  0  0
  182.3810  178.0970  138.2440 O   0  0  0  0  0  1  0  0  0  0  0  0
  186.0170  177.6630  137.6950 C   0  0  0  0  0  0  0  0  0  0  0  0
  184.8060  178.1350  138.2420 C   0  0  0  0  0  0  0  0  0  0  0  0
  183.7500  174.5310  134.8390 C   0  0  0  0  0  3  0  0  0  0  0  0
  182.4690  174.7220  135.6110 C   0  0  2  0  0  3  0  0  0  0  0  0
  184.8360  176.2190  136.2230 C   0  0  0  0  0  0  0  0  0  0  0  0
  182.3240  176.1660  136.1130 C   0  0  0  0  0  2  0  0  0  0  0  0
  183.6050  176.6650  136.7320 C   0  0  0  0  0  0  0  0  0  0  0  0
  188.1520  178.7170  137.0520 C   0  0  0  0  0  1  0  0  0  0  0  0
  187.3380  178.1490  138.1970 C   0  0  0  0  0  2  0  0  0  0  0  0
  182.4450  173.8430  136.7000 O   0  0  0  0  0  0  0  0  0  0  0  0
  183.2400  171.6250  136.9810 C   0  0  0  0  0  2  0  0  0  0  0  0
  181.7320  171.6150  137.0970 C   0  0  0  0  0  2  0  0  0  0  0  0
  182.4110  172.5680  136.1330 C   0  0  0  0  0  3  0  0  0  0  0  0
  184.7960  178.5280  140.6940 C   0  0  0  0  0  2  0  0  0  0  0  0
  185.7390  179.2540  141.6420 C   0  0  0  0  0  2  0  0  0  0  0  0
  184.6270  178.3300  144.2340 O   0  0  0  0  0  0  0  0  0  0  0  0
  187.6240  177.7780  142.5600 C   0  0  0  0  0  0  0  0  0  0  0  0
  188.2030  177.3010  146.7450 C   0  0  1  0  0  3  0  0  0  0  0  0
  187.0110  177.9340  146.0230 C   0  0  0  0  0  2  0  0  0  0  0  0
  186.7280  177.1980  144.7120 C   0  0  2  0  0  3  0  0  0  0  0  0
  186.3160  178.3160  142.5970 N   0  0  0  0  0  0  0  0  0  0  0  0
  189.2430  177.6750  144.4360 C   0  0  0  0  0  2  0  0  0  0  0  0
  187.9930  177.0510  143.8120 C   0  0  2  0  0  3  0  0  0  0  0  0
  189.4500  177.1520  145.8570 C   0  0  0  0  0  2  0  0  0  0  0  0
  188.3820  177.8830  141.5600 O   0  0  0  0  0  0  0  0  0  0  0  0
  185.7850  177.9920  143.8680 C   0  0  0  0  0  0  0  0  0  0  0  0
  189.8320  178.0910  148.4700 O   0  0  0  0  0  0  0  0  0  0  0  0
  188.5330  178.0760  147.9750 C   0  0  0  0  0  0  0  0  0  0  0  0
  187.6290  178.7170  148.5700 O   0  0  0  0  0  1  0  0  0  0  0  0
  1 19  1  0  0  0  0
  2  7  1  0  0  0  0
  2  5  1  0  0  0  0
  3 10  1  0  0  0  0
  4  6  1  0  0  0  0
  6 14  1  0  0  0  0
  6  7  2  0  0  0  0
  7  1  1  0  0  0  0
  8  3  2  0  0  0  0
  8  9  1  0  0  0  0
  9 11  1  0  0  0  0
  9 15  1  1  0  0  0
 10  4  2  0  0  0  0
 10 12  1  0  0  0  0
 11 12  1  0  0  0  0
 12  2  2  0  0  0  0
 13 14  1  0  0  0  0
 16 17  1  0  0  0  0
 18 15  1  0  0  0  0
 18 16  1  0  0  0  0
 18 17  1  0  0  0  0
 19 20  1  0  0  0  0
 20 26  1  0  0  0  0
 22 26  1  0  0  0  0
 22 28  1  0  0  0  0
 23 33  1  1  0  0  0
 24 23  1  0  0  0  0
 25 24  1  1  0  0  0
 26 31  1  0  0  0  0
 27 29  1  0  0  0  0
 28 27  1  1  0  0  0
 28 25  1  0  0  0  0
 29 23  1  0  0  0  0
 30 22  2  0  0  0  0
 31 21  2  0  0  0  0
 31 25  1  0  0  0  0
 33 32  2  0  0  0  0
 33 34  1  0  0  0  0
M  END
>  <MODEL>
9

>  <REMARK>
 VINA RESULT:      -7.6      2.744      4.526
  Name = 
  8 active torsions:
  status: ('A' for Active; 'I' for Inactive)
    1  A    between atoms: C_7  and  C_15
    2  A    between atoms: C_8  and  C_17
    3  A    between atoms: C_8  and  N_18
    4  A    between atoms: C_10  and  C_17
    5  A    between atoms: C_10  and  C_20
    6  A    between atoms: C_19  and  C_22
    7  A    between atoms: C_24  and  O_25
    8  A    between atoms: O_25  and  C_27
                            x       y       z     vdW  Elec       q    Type
                         _______ _______ _______ _____ _____    ______ ____

>  <TORSDO>
F 8

$$$$
