=
 OpenBabel10272400263D

 31 35  0  0  1  0  0  0  0  0999 V2000
  186.6950  178.1650  146.9780 C   0  0  0  0  0  0  0  0  0  0  0  0
  187.3580  177.5520  143.2400 C   0  0  1  0  0  3  0  0  0  0  0  0
  188.8760  177.4280  143.1810 C   0  0  0  0  0  0  0  0  0  0  0  0
  182.4050  178.5150  141.7710 O   0  0  0  0  0  0  0  0  0  0  0  0
  183.1450  178.6450  140.7580 C   0  0  0  0  0  0  0  0  0  0  0  0
  190.9600  176.6090  144.1220 C   0  0  0  0  0  0  0  0  0  0  0  0
  186.7200  177.9650  144.5550 C   0  0  0  0  0  0  0  0  0  0  0  0
  185.3520  178.5500  146.9390 C   0  0  0  0  0  3  0  0  0  0  0  0
  189.5870  176.8220  144.2260 C   0  0  0  0  0  3  0  0  0  0  0  0
  185.2970  178.4480  142.1270 C   0  0  0  0  0  0  0  0  0  0  0  0
  187.3370  178.0700  148.1670 F   0  0  0  0  0  0  0  0  0  0  0  0
  188.8870  178.3210  140.7910 C   0  0  0  0  0  2  0  0  0  0  0  0
  191.6450  176.0460  145.1450 F   0  0  0  0  0  0  0  0  0  0  0  0
  184.6740  178.4660  143.2720 N   0  0  0  0  0  0  0  0  0  0  0  0
  186.8070  178.4370  142.1110 C   0  0  2  0  0  3  0  0  0  0  0  0
  184.5730  178.6010  140.8980 N   0  0  0  0  0  2  0  0  0  0  0  0
  187.3710  177.8610  145.7940 C   0  0  0  0  0  3  0  0  0  0  0  0
  191.6190  176.9710  142.9480 C   0  0  0  0  0  3  0  0  0  0  0  0
  185.3630  178.3530  144.5260 C   0  0  0  0  0  0  0  0  0  0  0  0
  184.6870  178.6410  145.7140 C   0  0  0  0  0  3  0  0  0  0  0  0
  187.3970  178.0070  140.7770 C   0  0  0  0  0  2  0  0  0  0  0  0
  189.5790  177.7250  141.9870 C   0  0  0  0  0  0  0  0  0  0  0  0
  190.9210  177.5120  141.9170 N   0  0  0  0  0  0  0  0  0  0  0  0
  181.4030  179.3030  136.8890 C   0  0  0  0  0  0  0  0  0  0  0  0
  182.0400  180.1020  139.0780 C   0  0  0  0  0  3  0  0  0  0  0  0
  182.9650  176.5270  138.7320 O   0  0  0  0  0  1  0  0  0  0  0  0
  180.8500  179.5270  135.6720 F   0  0  0  0  0  0  0  0  0  0  0  0
  181.4700  180.3350  137.8250 C   0  0  0  0  0  3  0  0  0  0  0  0
  182.4770  177.7990  138.4580 C   0  0  0  0  0  0  0  0  0  0  0  0
  182.5510  178.8380  139.4140 C   0  0  0  0  0  0  0  0  0  0  0  0
  181.9050  178.0400  137.2060 C   0  0  0  0  0  3  0  0  0  0  0  0
  1 11  1  0  0  0  0
  2  3  1  1  0  0  0
  2  7  1  0  0  0  0
  3  9  1  0  0  0  0
  5 16  1  0  0  0  0
  5  4  2  0  0  0  0
  6  9  2  0  0  0  0
  6 13  1  0  0  0  0
  7 17  1  0  0  0  0
  8  1  1  0  0  0  0
 10 14  2  0  0  0  0
 12 22  1  0  0  0  0
 14 19  1  0  0  0  0
 15 21  1  6  0  0  0
 15 10  1  0  0  0  0
 15  2  1  0  0  0  0
 16 10  1  0  0  0  0
 17  1  2  0  0  0  0
 18  6  1  0  0  0  0
 19  7  2  0  0  0  0
 19 20  1  0  0  0  0
 20  8  2  0  0  0  0
 21 12  1  0  0  0  0
 22  3  2  0  0  0  0
 23 22  1  0  0  0  0
 23 18  2  0  0  0  0
 24 31  2  0  0  0  0
 24 28  1  0  0  0  0
 25 30  1  0  0  0  0
 27 24  1  0  0  0  0
 28 25  2  0  0  0  0
 29 26  1  0  0  0  0
 29 30  2  0  0  0  0
 30  5  1  0  0  0  0
 31 29  1  0  0  0  0
M  END
>  <MODEL>
1

>  <REMARK>
 VINA RESULT:     -10.8      0.000      0.000
  Name = 
  1 active torsions:
  status: ('A' for Active; 'I' for Inactive)
    1  A    between atoms: C_9  and  C_22
                            x       y       z     vdW  Elec       q    Type
                         _______ _______ _______ _____ _____    ______ ____

>  <TORSDO>
F 1

$$$$
=
 OpenBabel10272400263D

 31 35  0  0  1  0  0  0  0  0999 V2000
  185.2170  179.0120  143.9100 C   0  0  0  0  0  0  0  0  0  0  0  0
  188.5890  177.1640  143.9500 C   0  0  1  0  0  3  0  0  0  0  0  0
  189.0340  177.3030  145.4020 C   0  0  0  0  0  0  0  0  0  0  0  0
  188.8160  176.5910  138.7310 O   0  0  0  0  0  0  0  0  0  0  0  0
  189.9840  176.4590  139.1900 C   0  0  0  0  0  0  0  0  0  0  0  0
  188.5150  177.2900  147.7740 C   0  0  0  0  0  0  0  0  0  0  0  0
  187.3510  177.9200  143.5010 C   0  0  0  0  0  0  0  0  0  0  0  0
  184.9930  179.1050  142.5340 C   0  0  0  0  0  3  0  0  0  0  0  0
  188.0980  177.2740  146.4450 C   0  0  0  0  0  3  0  0  0  0  0  0
  189.2950  177.1850  141.5450 C   0  0  0  0  0  0  0  0  0  0  0  0
  184.2950  179.4910  144.7790 F   0  0  0  0  0  0  0  0  0  0  0  0
  191.4830  177.2130  144.6910 C   0  0  0  0  0  2  0  0  0  0  0  0
  187.6040  177.2880  148.7770 F   0  0  0  0  0  0  0  0  0  0  0  0
  188.0890  177.5210  141.1820 N   0  0  0  0  0  0  0  0  0  0  0  0
  189.7360  177.4420  142.9650 C   0  0  2  0  0  3  0  0  0  0  0  0
  190.2490  176.7300  140.5740 N   0  0  0  0  0  2  0  0  0  0  0  0
  186.3830  178.4120  144.3910 C   0  0  0  0  0  3  0  0  0  0  0  0
  189.8780  177.2940  148.0610 C   0  0  0  0  0  3  0  0  0  0  0  0
  187.1150  178.0180  142.1130 C   0  0  0  0  0  0  0  0  0  0  0  0
  185.9410  178.6060  141.6370 C   0  0  0  0  0  3  0  0  0  0  0  0
  190.9720  176.6540  143.3690 C   0  0  0  0  0  2  0  0  0  0  0  0
  190.4080  177.2480  145.7430 C   0  0  0  0  0  0  0  0  0  0  0  0
  190.7860  177.2700  147.0510 N   0  0  0  0  0  0  0  0  0  0  0  0
  193.2470  175.2700  136.6630 C   0  0  0  0  0  0  0  0  0  0  0  0
  192.2470  176.8140  138.2300 C   0  0  0  0  0  3  0  0  0  0  0  0
  189.9120  174.0070  137.5760 O   0  0  0  0  0  1  0  0  0  0  0  0
  194.2850  174.9090  135.8710 F   0  0  0  0  0  0  0  0  0  0  0  0
  193.3170  176.4430  137.4150 C   0  0  0  0  0  3  0  0  0  0  0  0
  191.0290  174.8330  137.5420 C   0  0  0  0  0  0  0  0  0  0  0  0
  191.0910  176.0200  138.3080 C   0  0  0  0  0  0  0  0  0  0  0  0
  192.1060  174.4690  136.7270 C   0  0  0  0  0  3  0  0  0  0  0  0
  1 17  1  0  0  0  0
  1 11  1  0  0  0  0
  2  7  1  6  0  0  0
  2  3  1  0  0  0  0
  3 22  2  0  0  0  0
  3  9  1  0  0  0  0
  4  5  2  0  0  0  0
  5 16  1  0  0  0  0
  6 18  1  0  0  0  0
  6 13  1  0  0  0  0
  7 17  2  0  0  0  0
  8  1  2  0  0  0  0
  9  6  2  0  0  0  0
 10 15  1  0  0  0  0
 12 22  1  0  0  0  0
 14 10  2  0  0  0  0
 14 19  1  0  0  0  0
 15 21  1  1  0  0  0
 15  2  1  0  0  0  0
 16 10  1  0  0  0  0
 19  7  1  0  0  0  0
 20 19  2  0  0  0  0
 20  8  1  0  0  0  0
 21 12  1  0  0  0  0
 22 23  1  0  0  0  0
 23 18  2  0  0  0  0
 24 31  2  0  0  0  0
 24 28  1  0  0  0  0
 25 30  1  0  0  0  0
 27 24  1  0  0  0  0
 28 25  2  0  0  0  0
 29 26  1  0  0  0  0
 29 30  2  0  0  0  0
 30  5  1  0  0  0  0
 31 29  1  0  0  0  0
M  END
>  <MODEL>
2

>  <REMARK>
 VINA RESULT:     -10.6      3.882      6.778
  Name = 
  1 active torsions:
  status: ('A' for Active; 'I' for Inactive)
    1  A    between atoms: C_9  and  C_22
                            x       y       z     vdW  Elec       q    Type
                         _______ _______ _______ _____ _____    ______ ____

>  <TORSDO>
F 1

$$$$
=
 OpenBabel10272400263D

 31 35  0  0  1  0  0  0  0  0999 V2000
  191.5540  175.8290  146.4650 C   0  0  0  0  0  0  0  0  0  0  0  0
  188.7860  177.6050  144.4710 C   0  0  1  0  0  3  0  0  0  0  0  0
  187.7250  177.8760  145.5320 C   0  0  0  0  0  0  0  0  0  0  0  0
  190.9930  176.6960  139.7890 O   0  0  0  0  0  0  0  0  0  0  0  0
  189.7710  176.9470  139.6020 C   0  0  0  0  0  0  0  0  0  0  0  0
  187.1240  178.5520  147.7850 C   0  0  0  0  0  0  0  0  0  0  0  0
  189.9870  176.7570  144.8540 C   0  0  0  0  0  0  0  0  0  0  0  0
  192.3560  175.3570  145.4230 C   0  0  0  0  0  3  0  0  0  0  0  0
  188.0900  178.1970  146.8460 C   0  0  0  0  0  3  0  0  0  0  0  0
  189.2350  176.9100  142.1040 C   0  0  0  0  0  0  0  0  0  0  0  0
  191.9200  175.6150  147.7510 F   0  0  0  0  0  0  0  0  0  0  0  0
  185.8860  177.7550  143.7660 C   0  0  0  0  0  2  0  0  0  0  0  0
  187.4820  178.8370  149.0600 F   0  0  0  0  0  0  0  0  0  0  0  0
  190.4220  176.4900  142.4400 N   0  0  0  0  0  0  0  0  0  0  0  0
  188.1760  177.0590  143.1700 C   0  0  2  0  0  3  0  0  0  0  0  0
  188.8820  177.0730  140.7230 N   0  0  0  0  0  2  0  0  0  0  0  0
  190.3830  176.5370  146.1820 C   0  0  0  0  0  3  0  0  0  0  0  0
  185.7890  178.6240  147.3960 C   0  0  0  0  0  3  0  0  0  0  0  0
  190.8040  176.2770  143.8080 C   0  0  0  0  0  0  0  0  0  0  0  0
  191.9820  175.5830  144.0960 C   0  0  0  0  0  3  0  0  0  0  0  0
  187.0010  177.9250  142.7420 C   0  0  0  0  0  2  0  0  0  0  0  0
  186.3620  178.0190  145.1690 C   0  0  0  0  0  0  0  0  0  0  0  0
  185.4410  178.3620  146.1100 N   0  0  0  0  0  0  0  0  0  0  0  0
  188.2440  177.3430  135.6080 C   0  0  0  0  0  0  0  0  0  0  0  0
  189.1040  175.9860  137.4120 C   0  0  0  0  0  3  0  0  0  0  0  0
  188.9820  179.5380  138.4690 O   0  0  0  0  0  1  0  0  0  0  0  0
  187.7640  177.4510  134.3460 F   0  0  0  0  0  0  0  0  0  0  0  0
  188.6090  176.0950  136.1120 C   0  0  0  0  0  3  0  0  0  0  0  0
  188.8680  178.3800  137.7100 C   0  0  0  0  0  0  0  0  0  0  0  0
  189.2410  177.1190  138.2290 C   0  0  0  0  0  0  0  0  0  0  0  0
  188.3740  178.4810  136.4050 C   0  0  0  0  0  3  0  0  0  0  0  0
  1 11  1  0  0  0  0
  2  7  1  1  0  0  0
  2  3  1  0  0  0  0
  3  9  1  0  0  0  0
  5  4  2  0  0  0  0
  5 16  1  0  0  0  0
  6 13  1  0  0  0  0
  7 17  2  0  0  0  0
  8  1  2  0  0  0  0
  9  6  2  0  0  0  0
 10 14  2  0  0  0  0
 10 15  1  0  0  0  0
 12 22  1  0  0  0  0
 14 19  1  0  0  0  0
 15 21  1  6  0  0  0
 15  2  1  0  0  0  0
 16 10  1  0  0  0  0
 17  1  1  0  0  0  0
 18  6  1  0  0  0  0
 19 20  2  0  0  0  0
 19  7  1  0  0  0  0
 20  8  1  0  0  0  0
 21 12  1  0  0  0  0
 22  3  2  0  0  0  0
 22 23  1  0  0  0  0
 23 18  2  0  0  0  0
 24 28  2  0  0  0  0
 24 31  1  0  0  0  0
 25 30  2  0  0  0  0
 27 24  1  0  0  0  0
 28 25  1  0  0  0  0
 29 30  1  0  0  0  0
 29 26  1  0  0  0  0
 30  5  1  0  0  0  0
 31 29  2  0  0  0  0
M  END
>  <MODEL>
3

>  <REMARK>
 VINA RESULT:     -10.2      3.986      6.009
  Name = 
  1 active torsions:
  status: ('A' for Active; 'I' for Inactive)
    1  A    between atoms: C_9  and  C_22
                            x       y       z     vdW  Elec       q    Type
                         _______ _______ _______ _____ _____    ______ ____

>  <TORSDO>
F 1

$$$$
=
 OpenBabel10272400263D

 31 35  0  0  1  0  0  0  0  0999 V2000
  187.4280  177.9890  147.1530 C   0  0  0  0  0  0  0  0  0  0  0  0
  187.4560  177.5010  143.3380 C   0  0  1  0  0  3  0  0  0  0  0  0
  188.9410  177.3560  143.0260 C   0  0  0  0  0  0  0  0  0  0  0  0
  182.3500  178.5940  142.7380 O   0  0  0  0  0  0  0  0  0  0  0  0
  182.9160  178.7480  141.6220 C   0  0  0  0  0  0  0  0  0  0  0  0
  191.1330  176.4710  143.5820 C   0  0  0  0  0  0  0  0  0  0  0  0
  187.0510  177.8760  144.7530 C   0  0  0  0  0  0  0  0  0  0  0  0
  186.1060  178.3960  147.3480 C   0  0  0  0  0  3  0  0  0  0  0  0
  189.8000  176.7010  143.9180 C   0  0  0  0  0  3  0  0  0  0  0  0
  185.2600  178.4680  142.6110 C   0  0  0  0  0  0  0  0  0  0  0  0
  188.2540  177.8410  148.2150 F   0  0  0  0  0  0  0  0  0  0  0  0
  188.5780  178.3340  140.6980 C   0  0  0  0  0  2  0  0  0  0  0  0
  191.9640  175.8610  144.4600 F   0  0  0  0  0  0  0  0  0  0  0  0
  184.8330  178.4550  143.8420 N   0  0  0  0  0  0  0  0  0  0  0  0
  186.7460  178.4350  142.3450 C   0  0  2  0  0  3  0  0  0  0  0  0
  184.3470  178.6770  141.5230 N   0  0  0  0  0  2  0  0  0  0  0  0
  187.8940  177.7180  145.8640 C   0  0  0  0  0  3  0  0  0  0  0  0
  191.5970  176.8650  142.3290 C   0  0  0  0  0  3  0  0  0  0  0  0
  185.7160  178.2860  144.9610 C   0  0  0  0  0  0  0  0  0  0  0  0
  185.2500  178.5410  146.2540 C   0  0  0  0  0  3  0  0  0  0  0  0
  187.0990  178.0450  140.9190 C   0  0  0  0  0  2  0  0  0  0  0  0
  189.4440  177.6850  141.7430 C   0  0  0  0  0  0  0  0  0  0  0  0
  190.7510  177.4540  141.4450 N   0  0  0  0  0  0  0  0  0  0  0  0
  180.6780  179.4820  138.0310 C   0  0  0  0  0  0  0  0  0  0  0  0
  182.7820  179.2040  139.1850 C   0  0  0  0  0  3  0  0  0  0  0  0
  179.9820  178.8450  141.5890 O   0  0  0  0  0  1  0  0  0  0  0  0
  179.9860  179.7140  136.8900 F   0  0  0  0  0  0  0  0  0  0  0  0
  182.0720  179.4430  138.0070 C   0  0  0  0  0  3  0  0  0  0  0  0
  180.7000  179.0400  140.4160 C   0  0  0  0  0  0  0  0  0  0  0  0
  182.1140  178.9990  140.4010 C   0  0  0  0  0  0  0  0  0  0  0  0
  179.9960  179.2810  139.2320 C   0  0  0  0  0  3  0  0  0  0  0  0
  1  8  1  0  0  0  0
  1 11  1  0  0  0  0
  2  3  1  1  0  0  0
  2  7  1  0  0  0  0
  3  9  1  0  0  0  0
  5  4  2  0  0  0  0
  6  9  2  0  0  0  0
  6 13  1  0  0  0  0
  7 19  2  0  0  0  0
  7 17  1  0  0  0  0
 10 14  2  0  0  0  0
 12 21  1  0  0  0  0
 12 22  1  0  0  0  0
 14 19  1  0  0  0  0
 15 21  1  6  0  0  0
 15 10  1  0  0  0  0
 15  2  1  0  0  0  0
 16  5  1  0  0  0  0
 16 10  1  0  0  0  0
 17  1  2  0  0  0  0
 18  6  1  0  0  0  0
 19 20  1  0  0  0  0
 20  8  2  0  0  0  0
 22  3  2  0  0  0  0
 23 22  1  0  0  0  0
 23 18  2  0  0  0  0
 24 31  1  0  0  0  0
 25 30  2  0  0  0  0
 27 24  1  0  0  0  0
 28 24  2  0  0  0  0
 28 25  1  0  0  0  0
 29 26  1  0  0  0  0
 30 29  1  0  0  0  0
 30  5  1  0  0  0  0
 31 29  2  0  0  0  0
M  END
>  <MODEL>
4

>  <REMARK>
 VINA RESULT:     -10.0      1.149      1.353
  Name = 
  1 active torsions:
  status: ('A' for Active; 'I' for Inactive)
    1  A    between atoms: C_9  and  C_22
                            x       y       z     vdW  Elec       q    Type
                         _______ _______ _______ _____ _____    ______ ____

>  <TORSDO>
F 1

$$$$
=
 OpenBabel10272400263D

 31 35  0  0  1  0  0  0  0  0999 V2000
  191.1340  176.2760  143.4770 C   0  0  0  0  0  0  0  0  0  0  0  0
  187.9720  178.1230  144.6490 C   0  0  1  0  0  3  0  0  0  0  0  0
  188.0480  177.9960  146.1660 C   0  0  0  0  0  0  0  0  0  0  0  0
  185.9790  178.6530  139.8150 O   0  0  0  0  0  0  0  0  0  0  0  0
  185.0370  178.7880  140.6430 C   0  0  0  0  0  0  0  0  0  0  0  0
  189.3440  178.0290  148.2200 C   0  0  0  0  0  0  0  0  0  0  0  0
  188.9860  177.3640  143.8110 C   0  0  0  0  0  0  0  0  0  0  0  0
  190.8770  176.1720  142.1080 C   0  0  0  0  0  3  0  0  0  0  0  0
  189.2830  178.0330  146.8280 C   0  0  0  0  0  3  0  0  0  0  0  0
  186.4890  178.0810  142.6280 C   0  0  0  0  0  0  0  0  0  0  0  0
  192.2990  175.8050  143.9840 F   0  0  0  0  0  0  0  0  0  0  0  0
  185.5030  178.0790  146.3310 C   0  0  0  0  0  2  0  0  0  0  0  0
  190.5410  178.0390  148.8530 F   0  0  0  0  0  0  0  0  0  0  0  0
  187.5000  177.7430  141.8790 N   0  0  0  0  0  0  0  0  0  0  0  0
  186.5590  177.8360  144.1160 C   0  0  2  0  0  3  0  0  0  0  0  0
  185.2600  178.5280  142.0370 N   0  0  0  0  0  2  0  0  0  0  0  0
  190.2000  176.8800  144.3220 C   0  0  0  0  0  3  0  0  0  0  0  0
  188.1600  178.0270  148.9540 C   0  0  0  0  0  3  0  0  0  0  0  0
  188.7350  177.2550  142.4270 C   0  0  0  0  0  0  0  0  0  0  0  0
  189.6790  176.6630  141.5830 C   0  0  0  0  0  3  0  0  0  0  0  0
  185.5310  178.6270  144.9100 C   0  0  0  0  0  2  0  0  0  0  0  0
  186.8720  178.0530  146.9550 C   0  0  0  0  0  0  0  0  0  0  0  0
  186.9620  178.0410  148.3130 N   0  0  0  0  0  0  0  0  0  0  0  0
  181.1890  180.0740  139.2370 C   0  0  0  0  0  0  0  0  0  0  0  0
  183.5780  179.8610  138.9450 C   0  0  0  0  0  3  0  0  0  0  0  0
  182.5780  178.3810  142.1950 O   0  0  0  0  0  1  0  0  0  0  0  0
  179.9820  180.4860  138.7790 F   0  0  0  0  0  0  0  0  0  0  0  0
  182.3350  180.2860  138.4710 C   0  0  0  0  0  3  0  0  0  0  0  0
  182.5260  179.0100  140.9570 C   0  0  0  0  0  0  0  0  0  0  0  0
  183.6940  179.2190  140.1880 C   0  0  0  0  0  0  0  0  0  0  0  0
  181.2850  179.4390  140.4750 C   0  0  0  0  0  3  0  0  0  0  0  0
  1 11  1  0  0  0  0
  1 17  1  0  0  0  0
  2  7  1  6  0  0  0
  2  3  1  0  0  0  0
  3  9  2  0  0  0  0
  3 22  1  0  0  0  0
  4  5  2  0  0  0  0
  5 16  1  0  0  0  0
  6 13  1  0  0  0  0
  6 18  2  0  0  0  0
  7 17  2  0  0  0  0
  8  1  2  0  0  0  0
  9  6  1  0  0  0  0
 10 15  1  0  0  0  0
 12 22  1  0  0  0  0
 14 19  1  0  0  0  0
 14 10  2  0  0  0  0
 15  2  1  0  0  0  0
 15 21  1  1  0  0  0
 16 10  1  0  0  0  0
 19  7  1  0  0  0  0
 20  8  1  0  0  0  0
 20 19  2  0  0  0  0
 21 12  1  0  0  0  0
 22 23  2  0  0  0  0
 23 18  1  0  0  0  0
 24 31  1  0  0  0  0
 25 30  2  0  0  0  0
 27 24  1  0  0  0  0
 28 25  1  0  0  0  0
 28 24  2  0  0  0  0
 29 26  1  0  0  0  0
 30  5  1  0  0  0  0
 30 29  1  0  0  0  0
 31 29  2  0  0  0  0
M  END
>  <MODEL>
5

>  <REMARK>
 VINA RESULT:      -9.9      1.973      4.337
  Name = 
  1 active torsions:
  status: ('A' for Active; 'I' for Inactive)
    1  A    between atoms: C_9  and  C_22
                            x       y       z     vdW  Elec       q    Type
                         _______ _______ _______ _____ _____    ______ ____

>  <TORSDO>
F 1

$$$$
=
 OpenBabel10272400263D

 31 35  0  0  1  0  0  0  0  0999 V2000
  184.4630  178.8230  145.4710 C   0  0  0  0  0  0  0  0  0  0  0  0
  187.7760  177.4230  144.1110 C   0  0  1  0  0  3  0  0  0  0  0  0
  188.6660  177.3950  145.3480 C   0  0  0  0  0  0  0  0  0  0  0  0
  186.3020  177.6770  139.0730 O   0  0  0  0  0  0  0  0  0  0  0  0
  187.5620  177.6230  139.1090 C   0  0  0  0  0  0  0  0  0  0  0  0
  188.9630  176.9600  147.7190 C   0  0  0  0  0  0  0  0  0  0  0  0
  186.4110  178.0790  144.2200 C   0  0  0  0  0  0  0  0  0  0  0  0
  183.7910  179.0940  144.2770 C   0  0  0  0  0  3  0  0  0  0  0  0
  188.1320  177.0940  146.6090 C   0  0  0  0  0  3  0  0  0  0  0  0
  187.6430  177.8950  141.6520 C   0  0  0  0  0  0  0  0  0  0  0  0
  183.8500  179.0470  146.6580 F   0  0  0  0  0  0  0  0  0  0  0  0
  190.7420  177.7180  143.9010 C   0  0  0  0  0  2  0  0  0  0  0  0
  188.4380  176.6940  148.9390 F   0  0  0  0  0  0  0  0  0  0  0  0
  186.3650  178.1290  141.7540 N   0  0  0  0  0  0  0  0  0  0  0  0
  188.5110  177.9870  142.8840 C   0  0  2  0  0  3  0  0  0  0  0  0
  188.2510  177.7130  140.3650 N   0  0  0  0  0  2  0  0  0  0  0  0
  185.7600  178.3060  145.4430 C   0  0  0  0  0  3  0  0  0  0  0  0
  190.3410  177.0900  147.5590 C   0  0  0  0  0  3  0  0  0  0  0  0
  185.7230  178.3550  143.0190 C   0  0  0  0  0  0  0  0  0  0  0  0
  184.4200  178.8570  143.0520 C   0  0  0  0  0  3  0  0  0  0  0  0
  189.8620  177.3060  142.7270 C   0  0  0  0  0  2  0  0  0  0  0  0
  190.0760  177.4600  145.2250 C   0  0  0  0  0  0  0  0  0  0  0  0
  190.8620  177.3320  146.3280 N   0  0  0  0  0  0  0  0  0  0  0  0
  189.8000  177.0580  135.4880 C   0  0  0  0  0  0  0  0  0  0  0  0
  188.4380  176.1870  137.2830 C   0  0  0  0  0  3  0  0  0  0  0  0
  188.9370  179.8320  137.7480 O   0  0  0  0  0  1  0  0  0  0  0  0
  190.5020  176.8630  134.3460 F   0  0  0  0  0  0  0  0  0  0  0  0
  189.1610  175.9840  136.1070 C   0  0  0  0  0  3  0  0  0  0  0  0
  188.9940  178.5460  137.2250 C   0  0  0  0  0  0  0  0  0  0  0  0
  188.3420  177.4630  137.8590 C   0  0  0  0  0  0  0  0  0  0  0  0
  189.7170  178.3340  136.0470 C   0  0  0  0  0  3  0  0  0  0  0  0
  1 11  1  0  0  0  0
  2  7  1  1  0  0  0
  2  3  1  0  0  0  0
  3  9  1  0  0  0  0
  4  5  2  0  0  0  0
  5 16  1  0  0  0  0
  6 13  1  0  0  0  0
  7 17  2  0  0  0  0
  8  1  2  0  0  0  0
  9  6  2  0  0  0  0
 10 14  2  0  0  0  0
 10 15  1  0  0  0  0
 12 22  1  0  0  0  0
 14 19  1  0  0  0  0
 15 21  1  6  0  0  0
 15  2  1  0  0  0  0
 16 10  1  0  0  0  0
 17  1  1  0  0  0  0
 18  6  1  0  0  0  0
 19 20  2  0  0  0  0
 19  7  1  0  0  0  0
 20  8  1  0  0  0  0
 21 12  1  0  0  0  0
 22  3  2  0  0  0  0
 22 23  1  0  0  0  0
 23 18  2  0  0  0  0
 24 31  2  0  0  0  0
 24 28  1  0  0  0  0
 25 30  1  0  0  0  0
 27 24  1  0  0  0  0
 28 25  2  0  0  0  0
 29 26  1  0  0  0  0
 29 30  2  0  0  0  0
 30  5  1  0  0  0  0
 31 29  1  0  0  0  0
M  END
>  <MODEL>
6

>  <REMARK>
 VINA RESULT:      -9.8      3.591      4.974
  Name = 
  1 active torsions:
  status: ('A' for Active; 'I' for Inactive)
    1  A    between atoms: C_9  and  C_22
                            x       y       z     vdW  Elec       q    Type
                         _______ _______ _______ _____ _____    ______ ____

>  <TORSDO>
F 1

$$$$
=
 OpenBabel10272400263D

 31 35  0  0  1  0  0  0  0  0999 V2000
  187.6280  178.5330  136.5950 C   0  0  0  0  0  0  0  0  0  0  0  0
  185.3550  178.0390  139.6570 C   0  0  1  0  0  3  0  0  0  0  0  0
  183.9720  178.3740  139.1100 C   0  0  0  0  0  0  0  0  0  0  0  0
  189.3310  177.4320  143.0390 O   0  0  0  0  0  0  0  0  0  0  0  0
  188.3030  177.7480  143.6980 C   0  0  0  0  0  0  0  0  0  0  0  0
  182.3230  178.2440  137.3330 C   0  0  0  0  0  0  0  0  0  0  0  0
  186.5600  178.2800  138.7650 C   0  0  0  0  0  0  0  0  0  0  0  0
  188.8860  178.4970  137.2030 C   0  0  0  0  0  3  0  0  0  0  0  0
  183.6200  178.0390  137.7960 C   0  0  0  0  0  3  0  0  0  0  0  0
  186.9330  178.2440  141.5950 C   0  0  0  0  0  0  0  0  0  0  0  0
  187.5300  178.6700  135.2520 F   0  0  0  0  0  0  0  0  0  0  0  0
  183.2160  179.1590  141.4170 C   0  0  0  0  0  2  0  0  0  0  0  0
  181.9970  177.9420  136.0530 F   0  0  0  0  0  0  0  0  0  0  0  0
  187.9520  178.1070  140.7940 N   0  0  0  0  0  0  0  0  0  0  0  0
  185.6050  178.6860  141.0300 C   0  0  2  0  0  3  0  0  0  0  0  0
  187.1020  178.1380  143.0160 N   0  0  0  0  0  2  0  0  0  0  0  0
  186.4720  178.4120  137.3710 C   0  0  0  0  0  3  0  0  0  0  0  0
  181.3610  178.7520  138.2030 C   0  0  0  0  0  3  0  0  0  0  0  0
  187.8350  178.2430  139.3690 C   0  0  0  0  0  0  0  0  0  0  0  0
  188.9880  178.3500  138.5880 C   0  0  0  0  0  3  0  0  0  0  0  0
  184.4300  178.4130  141.9560 C   0  0  0  0  0  2  0  0  0  0  0  0
  182.9460  178.8330  139.9740 C   0  0  0  0  0  0  0  0  0  0  0  0
  181.6890  179.0300  139.4910 N   0  0  0  0  0  0  0  0  0  0  0  0
  188.2580  177.6800  147.9920 C   0  0  0  0  0  0  0  0  0  0  0  0
  187.1470  178.0380  145.8760 C   0  0  0  0  0  3  0  0  0  0  0  0
  190.6700  177.0410  145.2860 O   0  0  0  0  0  1  0  0  0  0  0  0
  188.2280  177.6630  149.3460 F   0  0  0  0  0  0  0  0  0  0  0  0
  187.1140  178.0210  147.2720 C   0  0  0  0  0  3  0  0  0  0  0  0
  189.4780  177.3700  145.9180 C   0  0  0  0  0  0  0  0  0  0  0  0
  188.3220  177.7150  145.1800 C   0  0  0  0  0  0  0  0  0  0  0  0
  189.4360  177.3560  147.3160 C   0  0  0  0  0  3  0  0  0  0  0  0
  1  8  2  0  0  0  0
  1 17  1  0  0  0  0
  2  7  1  6  0  0  0
  2 15  1  0  0  0  0
  3  2  1  0  0  0  0
  3 22  1  0  0  0  0
  4  5  2  0  0  0  0
  5 30  1  0  0  0  0
  6  9  1  0  0  0  0
  6 18  2  0  0  0  0
  7 19  1  0  0  0  0
  8 20  1  0  0  0  0
  9  3  2  0  0  0  0
 10 16  1  0  0  0  0
 11  1  1  0  0  0  0
 12 21  1  0  0  0  0
 13  6  1  0  0  0  0
 14 10  2  0  0  0  0
 15 10  1  0  0  0  0
 15 21  1  1  0  0  0
 16  5  1  0  0  0  0
 17  7  2  0  0  0  0
 18 23  1  0  0  0  0
 19 14  1  0  0  0  0
 20 19  2  0  0  0  0
 22 12  1  0  0  0  0
 23 22  2  0  0  0  0
 24 27  1  0  0  0  0
 25 28  1  0  0  0  0
 26 29  1  0  0  0  0
 28 24  2  0  0  0  0
 29 31  2  0  0  0  0
 30 25  2  0  0  0  0
 30 29  1  0  0  0  0
 31 24  1  0  0  0  0
M  END
>  <MODEL>
7

>  <REMARK>
 VINA RESULT:      -9.0      3.106      9.023
  Name = 
  1 active torsions:
  status: ('A' for Active; 'I' for Inactive)
    1  A    between atoms: C_9  and  C_22
                            x       y       z     vdW  Elec       q    Type
                         _______ _______ _______ _____ _____    ______ ____

>  <TORSDO>
F 1

$$$$
=
 OpenBabel10272400263D

 31 35  0  0  1  0  0  0  0  0999 V2000
  183.8580  178.8340  139.9660 C   0  0  0  0  0  0  0  0  0  0  0  0
  187.6620  178.3220  140.2060 C   0  0  1  0  0  3  0  0  0  0  0  0
  188.0640  178.0810  138.7550 C   0  0  0  0  0  0  0  0  0  0  0  0
  187.7340  178.1630  145.4580 O   0  0  0  0  0  0  0  0  0  0  0  0
  188.7920  177.6190  145.0370 C   0  0  0  0  0  0  0  0  0  0  0  0
  187.8570  178.6180  136.3960 C   0  0  0  0  0  0  0  0  0  0  0  0
  186.1830  178.4070  140.5390 C   0  0  0  0  0  0  0  0  0  0  0  0
  183.5060  178.7650  141.3160 C   0  0  0  0  0  3  0  0  0  0  0  0
  187.4160  178.7540  137.7110 C   0  0  0  0  0  3  0  0  0  0  0  0
  188.0120  177.6640  142.6000 C   0  0  0  0  0  0  0  0  0  0  0  0
  182.9100  179.0770  139.0310 F   0  0  0  0  0  0  0  0  0  0  0  0
  190.0290  176.6370  139.5070 C   0  0  0  0  0  2  0  0  0  0  0  0
  187.2100  179.2510  135.3880 F   0  0  0  0  0  0  0  0  0  0  0  0
  186.8130  178.0750  142.9010 N   0  0  0  0  0  0  0  0  0  0  0  0
  188.3390  177.3280  141.1650 C   0  0  2  0  0  3  0  0  0  0  0  0
  188.9650  177.3730  143.6340 N   0  0  0  0  0  2  0  0  0  0  0  0
  185.1910  178.6690  139.5810 C   0  0  0  0  0  3  0  0  0  0  0  0
  188.9770  177.8340  136.1310 C   0  0  0  0  0  3  0  0  0  0  0  0
  185.8170  178.3400  141.9000 C   0  0  0  0  0  0  0  0  0  0  0  0
  184.4850  178.5210  142.2820 C   0  0  0  0  0  3  0  0  0  0  0  0
  189.8320  177.2650  140.8810 C   0  0  0  0  0  2  0  0  0  0  0  0
  189.2330  177.3420  138.4430 C   0  0  0  0  0  0  0  0  0  0  0  0
  189.6360  177.2220  137.1490 N   0  0  0  0  0  0  0  0  0  0  0  0
  191.9550  176.4580  147.6990 C   0  0  0  0  0  0  0  0  0  0  0  0
  190.9710  176.5210  145.4930 C   0  0  0  0  0  3  0  0  0  0  0  0
  188.7510  178.2580  147.9030 O   0  0  0  0  0  1  0  0  0  0  0  0
  192.9610  176.0850  148.5260 F   0  0  0  0  0  0  0  0  0  0  0  0
  192.0090  176.1360  146.3430 C   0  0  0  0  0  3  0  0  0  0  0  0
  189.8190  177.5560  147.3590 C   0  0  0  0  0  0  0  0  0  0  0  0
  189.8650  177.2340  145.9830 C   0  0  0  0  0  0  0  0  0  0  0  0
  190.8630  177.1650  148.2040 C   0  0  0  0  0  3  0  0  0  0  0  0
  1  8  1  0  0  0  0
  2  3  1  6  0  0  0
  2  7  1  0  0  0  0
  2 15  1  0  0  0  0
  5  4  2  0  0  0  0
  5 30  1  0  0  0  0
  6  9  1  0  0  0  0
  7 19  2  0  0  0  0
  8 20  2  0  0  0  0
  9  3  2  0  0  0  0
 10 14  2  0  0  0  0
 10 16  1  0  0  0  0
 11  1  1  0  0  0  0
 12 21  1  0  0  0  0
 13  6  1  0  0  0  0
 15 21  1  1  0  0  0
 15 10  1  0  0  0  0
 16  5  1  0  0  0  0
 17  1  2  0  0  0  0
 17  7  1  0  0  0  0
 18  6  2  0  0  0  0
 18 23  1  0  0  0  0
 19 20  1  0  0  0  0
 19 14  1  0  0  0  0
 22  3  1  0  0  0  0
 22 12  1  0  0  0  0
 23 22  2  0  0  0  0
 24 31  1  0  0  0  0
 24 27  1  0  0  0  0
 25 30  2  0  0  0  0
 25 28  1  0  0  0  0
 28 24  2  0  0  0  0
 29 26  1  0  0  0  0
 29 31  2  0  0  0  0
 30 29  1  0  0  0  0
M  END
>  <MODEL>
8

>  <REMARK>
 VINA RESULT:      -8.8      3.413      8.518
  Name = 
  1 active torsions:
  status: ('A' for Active; 'I' for Inactive)
    1  A    between atoms: C_9  and  C_22
                            x       y       z     vdW  Elec       q    Type
                         _______ _______ _______ _____ _____    ______ ____

>  <TORSDO>
F 1

$$$$
=
 OpenBabel10272400263D

 31 35  0  0  1  0  0  0  0  0999 V2000
  185.4940  178.6750  138.5630 C   0  0  0  0  0  0  0  0  0  0  0  0
  185.1130  178.0220  142.3340 C   0  0  1  0  0  3  0  0  0  0  0  0
  183.7190  178.5610  142.6320 C   0  0  0  0  0  0  0  0  0  0  0  0
  190.1240  176.5940  143.0200 O   0  0  0  0  0  0  0  0  0  0  0  0
  189.6550  176.9240  144.1440 C   0  0  0  0  0  0  0  0  0  0  0  0
  181.3860  178.8250  142.0100 C   0  0  0  0  0  0  0  0  0  0  0  0
  185.6940  178.2540  140.9500 C   0  0  0  0  0  0  0  0  0  0  0  0
  186.8600  178.4360  138.3990 C   0  0  0  0  0  3  0  0  0  0  0  0
  182.6850  178.4330  141.6940 C   0  0  0  0  0  3  0  0  0  0  0  0
  187.4820  177.8190  143.1320 C   0  0  0  0  0  0  0  0  0  0  0  0
  184.7290  178.9910  137.4910 F   0  0  0  0  0  0  0  0  0  0  0  0
  184.4110  179.1160  145.0240 C   0  0  0  0  0  2  0  0  0  0  0  0
  180.3970  178.7230  141.0900 F   0  0  0  0  0  0  0  0  0  0  0  0
  187.8960  177.6850  141.9040 N   0  0  0  0  0  0  0  0  0  0  0  0
  186.1400  178.4600  143.3920 C   0  0  2  0  0  3  0  0  0  0  0  0
  188.3500  177.5160  144.2340 N   0  0  0  0  0  2  0  0  0  0  0  0
  184.9110  178.5710  139.8290 C   0  0  0  0  0  3  0  0  0  0  0  0
  181.1120  179.3110  143.2870 C   0  0  0  0  0  3  0  0  0  0  0  0
  187.0730  178.0130  140.7740 C   0  0  0  0  0  0  0  0  0  0  0  0
  187.6480  178.1030  139.5040 C   0  0  0  0  0  3  0  0  0  0  0  0
  185.5970  178.1900  144.7870 C   0  0  0  0  0  2  0  0  0  0  0  0
  183.3800  179.0060  143.9340 C   0  0  0  0  0  0  0  0  0  0  0  0
  182.1040  179.3870  144.2120 N   0  0  0  0  0  0  0  0  0  0  0  0
  191.9990  176.2190  147.6720 C   0  0  0  0  0  0  0  0  0  0  0  0
  191.6070  175.9230  145.3060 C   0  0  0  0  0  3  0  0  0  0  0  0
  188.9160  178.0140  146.7680 O   0  0  0  0  0  1  0  0  0  0  0  0
  192.7500  175.9870  148.7750 F   0  0  0  0  0  0  0  0  0  0  0  0
  192.3820  175.6830  146.4420 C   0  0  0  0  0  3  0  0  0  0  0  0
  190.0600  177.2380  146.6310 C   0  0  0  0  0  0  0  0  0  0  0  0
  190.4400  176.7000  145.3800 C   0  0  0  0  0  0  0  0  0  0  0  0
  190.8420  176.9930  147.7640 C   0  0  0  0  0  3  0  0  0  0  0  0
  1 17  1  0  0  0  0
  2  7  1  6  0  0  0
  2  3  1  0  0  0  0
  2 15  1  0  0  0  0
  3 22  1  0  0  0  0
  4  5  2  0  0  0  0
  5 16  1  0  0  0  0
  5 30  1  0  0  0  0
  6 18  2  0  0  0  0
  8  1  2  0  0  0  0
  8 20  1  0  0  0  0
  9  6  1  0  0  0  0
  9  3  2  0  0  0  0
 10 15  1  0  0  0  0
 10 16  1  0  0  0  0
 11  1  1  0  0  0  0
 13  6  1  0  0  0  0
 14 10  2  0  0  0  0
 15 21  1  1  0  0  0
 17  7  2  0  0  0  0
 18 23  1  0  0  0  0
 19  7  1  0  0  0  0
 19 14  1  0  0  0  0
 20 19  2  0  0  0  0
 21 12  1  0  0  0  0
 22 23  2  0  0  0  0
 22 12  1  0  0  0  0
 24 31  1  0  0  0  0
 24 27  1  0  0  0  0
 25 30  2  0  0  0  0
 25 28  1  0  0  0  0
 28 24  2  0  0  0  0
 29 26  1  0  0  0  0
 29 31  2  0  0  0  0
 30 29  1  0  0  0  0
M  END
>  <MODEL>
9

>  <REMARK>
 VINA RESULT:      -8.6      3.351      9.253
  Name = 
  1 active torsions:
  status: ('A' for Active; 'I' for Inactive)
    1  A    between atoms: C_9  and  C_22
                            x       y       z     vdW  Elec       q    Type
                         _______ _______ _______ _____ _____    ______ ____

>  <TORSDO>
F 1

$$$$
