=
 OpenBabel10272402023D

 28 29  0  0  1  0  0  0  0  0999 V2000
  187.6350  177.2840  144.9890 C   0  0  0  0  0  2  0  0  0  0  0  0
  186.3850  177.7050  145.7440 C   0  0  2  0  0  3  0  0  0  0  0  0
  185.7030  178.8450  145.0020 C   0  0  0  0  0  2  0  0  0  0  0  0
  184.2000  178.7940  145.2190 C   0  0  0  0  0  2  0  0  0  0  0  0
  181.4860  178.9360  142.5940 C   0  0  0  0  0  3  0  0  0  0  0  0
  183.4970  178.7310  143.9070 C   0  0  0  0  0  0  0  0  0  0  0  0
  183.5390  178.4160  141.5170 C   0  0  0  0  0  0  0  0  0  0  0  0
  182.1240  178.9800  143.8370 C   0  0  0  0  0  3  0  0  0  0  0  0
  184.2130  178.4530  142.7400 C   0  0  0  0  0  3  0  0  0  0  0  0
  184.2190  178.1540  140.3780 F   0  0  0  0  0  0  0  0  0  0  0  0
  182.2000  178.6550  141.4710 N   0  0  0  0  0  0  0  0  0  0  0  0
  186.7630  178.1570  147.1470 C   0  0  0  0  0  2  0  0  0  0  0  0
  189.1630  178.2170  148.4340 S   0  0  0  0  0  1  0  0  0  0  0  0
  187.8110  177.2320  147.7330 C   0  0  0  0  0  2  0  0  0  0  0  0
  187.2630  176.7170  143.6240 C   0  0  0  0  0  2  0  0  0  0  0  0
  188.7450  177.8440  141.8240 C   0  0  2  0  0  0  0  0  0  0  0  0
  190.6350  177.5440  143.1700 C   0  0  1  0  0  3  0  0  0  0  0  0
  189.8630  178.5460  142.4400 N   0  0  0  0  0  2  0  0  0  0  0  0
  191.0860  178.0860  144.3720 O   0  0  0  0  0  1  0  0  0  0  0  0
  189.7420  176.3510  143.4500 C   0  0  2  0  0  3  0  0  0  0  0  0
  190.3550  175.1900  142.9780 O   0  0  0  0  0  1  0  0  0  0  0  0
  187.6390  178.6970  141.7570 O   0  0  0  0  0  1  0  0  0  0  0  0
  188.4670  176.6020  142.6770 C   0  0  1  0  0  3  0  0  0  0  0  0
  189.1380  177.4250  140.4100 C   0  0  0  0  0  2  0  0  0  0  0  0
  188.7470  178.3930  139.4820 O   0  0  0  0  0  0  0  0  0  0  0  0
  189.5060  178.1420  138.3880 N   0  0  0  0  0  2  0  0  0  0  0  0
  188.9930  178.9750  137.3130 C   0  0  0  0  0  2  0  0  0  0  0  0
  187.6040  179.0610  137.4080 O   0  0  0  0  0  1  0  0  0  0  0  0
  2  1  1  6  0  0  0
  2 12  1  0  0  0  0
  3  4  1  0  0  0  0
  3  2  1  0  0  0  0
  5  8  1  0  0  0  0
  6  4  1  0  0  0  0
  7  9  2  0  0  0  0
  8  6  2  0  0  0  0
  9  6  1  0  0  0  0
 10  7  1  0  0  0  0
 11  7  1  0  0  0  0
 11  5  2  0  0  0  0
 12 14  1  0  0  0  0
 14 13  1  0  0  0  0
 15  1  1  0  0  0  0
 16 22  1  6  0  0  0
 16 18  1  0  0  0  0
 16 23  1  0  0  0  0
 17 20  1  0  0  0  0
 17 19  1  1  0  0  0
 18 17  1  0  0  0  0
 20 21  1  6  0  0  0
 23 20  1  0  0  0  0
 23 15  1  1  0  0  0
 24 16  1  0  0  0  0
 25 24  1  0  0  0  0
 26 25  1  0  0  0  0
 27 28  1  0  0  0  0
 27 26  1  0  0  0  0
M  END
>  <MODEL>
1

>  <REMARK>
 VINA RESULT:      -7.4      0.000      0.000
  Name = 
  12 active torsions:
  status: ('A' for Active; 'I' for Inactive)
    1  A    between atoms: C_1  and  C_11
    2  A    between atoms: O_6  and  N_8
    3  A    between atoms: O_6  and  C_11
    4  A    between atoms: N_8  and  C_22
    5  A    between atoms: C_9  and  C_18
    6  A    between atoms: C_10  and  C_14
    7  A    between atoms: C_10  and  C_17
    8  A    between atoms: C_10  and  C_25
    9  A    between atoms: C_14  and  C_18
   10  A    between atoms: C_17  and  C_19
   11  A    between atoms: C_19  and  C_27
   12  A    between atoms: C_20  and  C_25
                            x       y       z     vdW  Elec       q    Type
                         _______ _______ _______ _____ _____    ______ ____

>  <TORSDO>
F 12

$$$$
=
 OpenBabel10272402023D

 28 29  0  0  1  0  0  0  0  0999 V2000
  186.9280  178.6200  141.3700 C   0  0  0  0  0  2  0  0  0  0  0  0
  186.0150  178.5510  142.5830 C   0  0  2  0  0  3  0  0  0  0  0  0
  186.5700  177.5460  143.5800 C   0  0  0  0  0  2  0  0  0  0  0  0
  186.2140  177.9550  145.0000 C   0  0  0  0  0  2  0  0  0  0  0  0
  189.7220  177.2440  146.2080 C   0  0  0  0  0  3  0  0  0  0  0  0
  187.3950  177.7840  145.8910 C   0  0  0  0  0  0  0  0  0  0  0  0
  188.4110  177.9060  148.0740 C   0  0  0  0  0  0  0  0  0  0  0  0
  188.6210  177.3790  145.3580 C   0  0  0  0  0  3  0  0  0  0  0  0
  187.2870  178.0550  147.2570 C   0  0  0  0  0  3  0  0  0  0  0  0
  188.3230  178.1700  149.3980 F   0  0  0  0  0  0  0  0  0  0  0  0
  189.5940  177.5060  147.5370 N   0  0  0  0  0  0  0  0  0  0  0  0
  184.6190  178.1300  142.1490 C   0  0  0  0  0  2  0  0  0  0  0  0
  182.5090  178.4320  140.4530 S   0  0  0  0  0  1  0  0  0  0  0  0
  184.2180  178.8600  140.8820 C   0  0  0  0  0  2  0  0  0  0  0  0
  188.1540  177.7370  141.5780 C   0  0  0  0  0  2  0  0  0  0  0  0
  190.3430  176.9090  140.4710 C   0  0  2  0  0  0  0  0  0  0  0  0
  189.2930  176.8820  138.3800 C   0  0  1  0  0  3  0  0  0  0  0  0
  190.0520  176.0630  139.3210 N   0  0  0  0  0  2  0  0  0  0  0  0
  188.2960  176.1090  137.7870 O   0  0  0  0  0  1  0  0  0  0  0  0
  188.6630  178.0360  139.1370 C   0  0  2  0  0  3  0  0  0  0  0  0
  189.0160  179.2400  138.5280 O   0  0  0  0  0  1  0  0  0  0  0  0
  190.3770  176.1260  141.6290 O   0  0  0  0  0  1  0  0  0  0  0  0
  189.2490  177.9800  140.5300 C   0  0  1  0  0  3  0  0  0  0  0  0
  191.7050  177.5680  140.2730 C   0  0  0  0  0  2  0  0  0  0  0  0
  192.6720  176.6130  139.9490 O   0  0  0  0  0  0  0  0  0  0  0  0
  193.4160  177.1980  138.9800 N   0  0  0  0  0  2  0  0  0  0  0  0
  193.2590  176.3940  137.7790 C   0  0  0  0  0  2  0  0  0  0  0  0
  194.4510  175.7230  137.5040 O   0  0  0  0  0  1  0  0  0  0  0  0
  1 15  1  0  0  0  0
  2  1  1  6  0  0  0
  2  3  1  0  0  0  0
  3  4  1  0  0  0  0
  4  6  1  0  0  0  0
  5 11  1  0  0  0  0
  6  9  2  0  0  0  0
  7 10  1  0  0  0  0
  8  6  1  0  0  0  0
  8  5  2  0  0  0  0
  9  7  1  0  0  0  0
 11  7  2  0  0  0  0
 12  2  1  0  0  0  0
 13 14  1  0  0  0  0
 14 12  1  0  0  0  0
 16 23  1  0  0  0  0
 16 22  1  1  0  0  0
 17 19  1  1  0  0  0
 17 20  1  0  0  0  0
 17 18  1  0  0  0  0
 18 16  1  0  0  0  0
 20 21  1  6  0  0  0
 20 23  1  0  0  0  0
 23 15  1  1  0  0  0
 24 16  1  0  0  0  0
 25 24  1  0  0  0  0
 26 25  1  0  0  0  0
 27 26  1  0  0  0  0
 28 27  1  0  0  0  0
M  END
>  <MODEL>
2

>  <REMARK>
 VINA RESULT:      -7.0      3.736      5.943
  Name = 
  12 active torsions:
  status: ('A' for Active; 'I' for Inactive)
    1  A    between atoms: C_1  and  C_11
    2  A    between atoms: O_6  and  N_8
    3  A    between atoms: O_6  and  C_11
    4  A    between atoms: N_8  and  C_22
    5  A    between atoms: C_9  and  C_18
    6  A    between atoms: C_10  and  C_14
    7  A    between atoms: C_10  and  C_17
    8  A    between atoms: C_10  and  C_25
    9  A    between atoms: C_14  and  C_18
   10  A    between atoms: C_17  and  C_19
   11  A    between atoms: C_19  and  C_27
   12  A    between atoms: C_20  and  C_25
                            x       y       z     vdW  Elec       q    Type
                         _______ _______ _______ _____ _____    ______ ____

>  <TORSDO>
F 12

$$$$
=
 OpenBabel10272402023D

 28 29  0  0  1  0  0  0  0  0999 V2000
  189.4450  177.4580  140.9050 C   0  0  0  0  0  2  0  0  0  0  0  0
  190.1970  176.4840  141.7980 C   0  0  2  0  0  3  0  0  0  0  0  0
  189.3720  176.1960  143.0430 C   0  0  0  0  0  2  0  0  0  0  0  0
  188.0200  176.8850  142.9550 C   0  0  0  0  0  2  0  0  0  0  0  0
  188.0060  177.6400  146.6560 C   0  0  0  0  0  3  0  0  0  0  0  0
  187.5630  177.2880  144.3130 C   0  0  0  0  0  0  0  0  0  0  0  0
  185.8520  178.1330  145.7860 C   0  0  0  0  0  0  0  0  0  0  0  0
  188.4490  177.2390  145.3930 C   0  0  0  0  0  3  0  0  0  0  0  0
  186.2570  177.7430  144.5070 C   0  0  0  0  0  3  0  0  0  0  0  0
  184.5910  178.5820  145.9890 F   0  0  0  0  0  0  0  0  0  0  0  0
  186.7280  178.0730  146.8250 N   0  0  0  0  0  0  0  0  0  0  0  0
  191.5370  177.0850  142.1950 C   0  0  0  0  0  2  0  0  0  0  0  0
  191.4400  179.1080  144.0160 S   0  0  0  0  0  1  0  0  0  0  0  0
  191.5810  177.3300  143.6910 C   0  0  0  0  0  2  0  0  0  0  0  0
  189.9390  177.3480  139.4670 C   0  0  0  0  0  2  0  0  0  0  0  0
  188.4420  178.3650  137.6150 C   0  0  2  0  0  0  0  0  0  0  0  0
  189.1660  176.7280  136.1090 C   0  0  1  0  0  3  0  0  0  0  0  0
  189.0410  178.1700  136.3010 N   0  0  0  0  0  2  0  0  0  0  0  0
  190.3670  176.4450  135.4610 O   0  0  0  0  0  1  0  0  0  0  0  0
  189.1460  176.0520  137.4670 C   0  0  2  0  0  3  0  0  0  0  0  0
  188.1570  175.0680  137.4830 O   0  0  0  0  0  1  0  0  0  0  0  0
  188.9270  179.5510  138.1760 O   0  0  0  0  0  1  0  0  0  0  0  0
  188.7990  177.1380  138.4590 C   0  0  1  0  0  3  0  0  0  0  0  0
  186.9270  178.4680  137.4620 C   0  0  0  0  0  2  0  0  0  0  0  0
  186.3020  178.4470  138.7110 O   0  0  0  0  0  0  0  0  0  0  0  0
  185.0720  178.9660  138.4840 N   0  0  0  0  0  2  0  0  0  0  0  0
  184.4590  179.1920  139.7830 C   0  0  0  0  0  2  0  0  0  0  0  0
  185.4470  179.4890  140.7230 O   0  0  0  0  0  1  0  0  0  0  0  0
  2  1  1  6  0  0  0
  2 12  1  0  0  0  0
  2  3  1  0  0  0  0
  4  3  1  0  0  0  0
  4  6  1  0  0  0  0
  5 11  1  0  0  0  0
  6  9  2  0  0  0  0
  6  8  1  0  0  0  0
  7 10  1  0  0  0  0
  7 11  2  0  0  0  0
  8  5  2  0  0  0  0
  9  7  1  0  0  0  0
 12 14  1  0  0  0  0
 14 13  1  0  0  0  0
 15  1  1  0  0  0  0
 16 22  1  1  0  0  0
 16 23  1  0  0  0  0
 17 19  1  1  0  0  0
 17 18  1  0  0  0  0
 17 20  1  0  0  0  0
 18 16  1  0  0  0  0
 20 21  1  6  0  0  0
 20 23  1  0  0  0  0
 23 15  1  1  0  0  0
 24 16  1  0  0  0  0
 24 25  1  0  0  0  0
 26 25  1  0  0  0  0
 26 27  1  0  0  0  0
 27 28  1  0  0  0  0
M  END
>  <MODEL>
3

>  <REMARK>
 VINA RESULT:      -7.0      3.115      5.500
  Name = 
  12 active torsions:
  status: ('A' for Active; 'I' for Inactive)
    1  A    between atoms: C_1  and  C_11
    2  A    between atoms: O_6  and  N_8
    3  A    between atoms: O_6  and  C_11
    4  A    between atoms: N_8  and  C_22
    5  A    between atoms: C_9  and  C_18
    6  A    between atoms: C_10  and  C_14
    7  A    between atoms: C_10  and  C_17
    8  A    between atoms: C_10  and  C_25
    9  A    between atoms: C_14  and  C_18
   10  A    between atoms: C_17  and  C_19
   11  A    between atoms: C_19  and  C_27
   12  A    between atoms: C_20  and  C_25
                            x       y       z     vdW  Elec       q    Type
                         _______ _______ _______ _____ _____    ______ ____

>  <TORSDO>
F 12

$$$$
=
 OpenBabel10272402023D

 28 29  0  0  1  0  0  0  0  0999 V2000
  186.9390  178.5350  141.4510 C   0  0  0  0  0  2  0  0  0  0  0  0
  186.0720  178.5340  142.6990 C   0  0  2  0  0  3  0  0  0  0  0  0
  186.6400  177.5490  143.7110 C   0  0  0  0  0  2  0  0  0  0  0  0
  186.2980  177.9860  145.1250 C   0  0  0  0  0  2  0  0  0  0  0  0
  188.4530  177.7640  148.2200 C   0  0  0  0  0  3  0  0  0  0  0  0
  187.4740  177.7930  146.0170 C   0  0  0  0  0  0  0  0  0  0  0  0
  189.7930  177.2150  146.3370 C   0  0  0  0  0  0  0  0  0  0  0  0
  187.3420  177.9690  147.3970 C   0  0  0  0  0  3  0  0  0  0  0  0
  188.7050  177.4070  145.4820 C   0  0  0  0  0  3  0  0  0  0  0  0
  190.9900  176.8360  145.8340 F   0  0  0  0  0  0  0  0  0  0  0  0
  189.6450  177.3960  147.6770 N   0  0  0  0  0  0  0  0  0  0  0  0
  184.6500  178.1350  142.3340 C   0  0  0  0  0  2  0  0  0  0  0  0
  182.4830  178.4560  140.7160 S   0  0  0  0  0  1  0  0  0  0  0  0
  184.2360  178.7940  141.0330 C   0  0  0  0  0  2  0  0  0  0  0  0
  188.1950  177.7020  141.6770 C   0  0  0  0  0  2  0  0  0  0  0  0
  190.3890  176.9110  140.5520 C   0  0  2  0  0  0  0  0  0  0  0  0
  189.3360  176.9060  138.4640 C   0  0  1  0  0  3  0  0  0  0  0  0
  190.1040  176.0800  139.3910 N   0  0  0  0  0  2  0  0  0  0  0  0
  188.3440  176.1330  137.8610 O   0  0  0  0  0  1  0  0  0  0  0  0
  188.6970  178.0420  139.2400 C   0  0  2  0  0  3  0  0  0  0  0  0
  189.0370  179.2590  138.6480 O   0  0  0  0  0  1  0  0  0  0  0  0
  190.4340  176.1110  141.6980 O   0  0  0  0  0  1  0  0  0  0  0  0
  189.2860  177.9710  140.6300 C   0  0  1  0  0  3  0  0  0  0  0  0
  191.7450  177.5860  140.3620 C   0  0  0  0  0  2  0  0  0  0  0  0
  192.7400  176.6350  140.1190 O   0  0  0  0  0  0  0  0  0  0  0  0
  193.4770  177.1640  139.1130 N   0  0  0  0  0  2  0  0  0  0  0  0
  193.2960  176.3040  137.9550 C   0  0  0  0  0  2  0  0  0  0  0  0
  194.4700  175.5900  137.7130 O   0  0  0  0  0  1  0  0  0  0  0  0
  1 15  1  0  0  0  0
  2  1  1  6  0  0  0
  2  3  1  0  0  0  0
  3  4  1  0  0  0  0
  4  6  1  0  0  0  0
  6  8  1  0  0  0  0
  7 11  2  0  0  0  0
  8  5  2  0  0  0  0
  9  6  2  0  0  0  0
  9  7  1  0  0  0  0
 10  7  1  0  0  0  0
 11  5  1  0  0  0  0
 12  2  1  0  0  0  0
 13 14  1  0  0  0  0
 14 12  1  0  0  0  0
 16 23  1  0  0  0  0
 16 22  1  1  0  0  0
 17 19  1  1  0  0  0
 17 20  1  0  0  0  0
 17 18  1  0  0  0  0
 18 16  1  0  0  0  0
 20 21  1  6  0  0  0
 20 23  1  0  0  0  0
 23 15  1  1  0  0  0
 24 16  1  0  0  0  0
 25 24  1  0  0  0  0
 26 25  1  0  0  0  0
 27 26  1  0  0  0  0
 28 27  1  0  0  0  0
M  END
>  <MODEL>
4

>  <REMARK>
 VINA RESULT:      -7.0      3.611      5.819
  Name = 
  12 active torsions:
  status: ('A' for Active; 'I' for Inactive)
    1  A    between atoms: C_1  and  C_11
    2  A    between atoms: O_6  and  N_8
    3  A    between atoms: O_6  and  C_11
    4  A    between atoms: N_8  and  C_22
    5  A    between atoms: C_9  and  C_18
    6  A    between atoms: C_10  and  C_14
    7  A    between atoms: C_10  and  C_17
    8  A    between atoms: C_10  and  C_25
    9  A    between atoms: C_14  and  C_18
   10  A    between atoms: C_17  and  C_19
   11  A    between atoms: C_19  and  C_27
   12  A    between atoms: C_20  and  C_25
                            x       y       z     vdW  Elec       q    Type
                         _______ _______ _______ _____ _____    ______ ____

>  <TORSDO>
F 12

$$$$
=
 OpenBabel10272402023D

 28 29  0  0  1  0  0  0  0  0999 V2000
  188.7510  177.5550  141.1320 C   0  0  0  0  0  2  0  0  0  0  0  0
  188.9040  176.4510  142.1660 C   0  0  2  0  0  3  0  0  0  0  0  0
  187.9720  176.7220  143.3380 C   0  0  0  0  0  2  0  0  0  0  0  0
  186.8050  177.5900  142.8980 C   0  0  0  0  0  2  0  0  0  0  0  0
  184.0130  178.9210  145.0670 C   0  0  0  0  0  3  0  0  0  0  0  0
  186.0370  178.0530  144.0870 C   0  0  0  0  0  0  0  0  0  0  0  0
  185.8690  178.4240  146.4630 C   0  0  0  0  0  0  0  0  0  0  0  0
  184.7250  178.5100  143.9360 C   0  0  0  0  0  3  0  0  0  0  0  0
  186.6130  178.0030  145.3580 C   0  0  0  0  0  3  0  0  0  0  0  0
  186.4130  178.3770  147.7010 F   0  0  0  0  0  0  0  0  0  0  0  0
  184.5960  178.8720  146.2950 N   0  0  0  0  0  0  0  0  0  0  0  0
  190.3440  176.4030  142.6540 C   0  0  0  0  0  2  0  0  0  0  0  0
  191.3280  178.6360  143.8660 S   0  0  0  0  0  1  0  0  0  0  0  0
  190.4590  177.0510  144.0200 C   0  0  0  0  0  2  0  0  0  0  0  0
  189.5040  177.1930  139.8560 C   0  0  0  0  0  2  0  0  0  0  0  0
  188.5240  178.3530  137.7590 C   0  0  2  0  0  0  0  0  0  0  0  0
  189.3980  176.6630  136.3970 C   0  0  1  0  0  3  0  0  0  0  0  0
  189.3640  178.1100  136.5940 N   0  0  0  0  0  2  0  0  0  0  0  0
  190.6780  176.2740  136.0060 O   0  0  0  0  0  1  0  0  0  0  0  0
  189.0350  175.9850  137.7050 C   0  0  2  0  0  3  0  0  0  0  0  0
  187.9810  175.0970  137.4920 O   0  0  0  0  0  1  0  0  0  0  0  0
  188.9840  179.4860  138.4360 O   0  0  0  0  0  1  0  0  0  0  0  0
  188.5860  177.0940  138.6290 C   0  0  1  0  0  3  0  0  0  0  0  0
  187.0900  178.5950  137.2970 C   0  0  0  0  0  2  0  0  0  0  0  0
  186.1830  177.9480  138.1400 O   0  0  0  0  0  0  0  0  0  0  0  0
  185.2020  178.8570  138.3470 N   0  0  0  0  0  2  0  0  0  0  0  0
  184.7180  178.6610  139.7030 C   0  0  0  0  0  2  0  0  0  0  0  0
  185.3210  179.5880  140.5550 O   0  0  0  0  0  1  0  0  0  0  0  0
  2  1  1  6  0  0  0
  2 12  1  0  0  0  0
  2  3  1  0  0  0  0
  4  3  1  0  0  0  0
  4  6  1  0  0  0  0
  5 11  1  0  0  0  0
  6  9  2  0  0  0  0
  7 10  1  0  0  0  0
  8  6  1  0  0  0  0
  8  5  2  0  0  0  0
  9  7  1  0  0  0  0
 11  7  2  0  0  0  0
 12 14  1  0  0  0  0
 13 14  1  0  0  0  0
 15  1  1  0  0  0  0
 16 22  1  1  0  0  0
 16 23  1  0  0  0  0
 17 19  1  1  0  0  0
 17 18  1  0  0  0  0
 17 20  1  0  0  0  0
 18 16  1  0  0  0  0
 20 21  1  6  0  0  0
 20 23  1  0  0  0  0
 23 15  1  1  0  0  0
 24 16  1  0  0  0  0
 24 25  1  0  0  0  0
 25 26  1  0  0  0  0
 26 27  1  0  0  0  0
 27 28  1  0  0  0  0
M  END
>  <MODEL>
5

>  <REMARK>
 VINA RESULT:      -6.9      3.126      4.916
  Name = 
  12 active torsions:
  status: ('A' for Active; 'I' for Inactive)
    1  A    between atoms: C_1  and  C_11
    2  A    between atoms: O_6  and  N_8
    3  A    between atoms: O_6  and  C_11
    4  A    between atoms: N_8  and  C_22
    5  A    between atoms: C_9  and  C_18
    6  A    between atoms: C_10  and  C_14
    7  A    between atoms: C_10  and  C_17
    8  A    between atoms: C_10  and  C_25
    9  A    between atoms: C_14  and  C_18
   10  A    between atoms: C_17  and  C_19
   11  A    between atoms: C_19  and  C_27
   12  A    between atoms: C_20  and  C_25
                            x       y       z     vdW  Elec       q    Type
                         _______ _______ _______ _____ _____    ______ ____

>  <TORSDO>
F 12

$$$$
=
 OpenBabel10272402023D

 28 29  0  0  1  0  0  0  0  0999 V2000
  189.1900  178.2780  142.7870 C   0  0  0  0  0  2  0  0  0  0  0  0
  189.1140  177.3360  143.9770 C   0  0  2  0  0  3  0  0  0  0  0  0
  187.6720  176.9000  144.1890 C   0  0  0  0  0  2  0  0  0  0  0  0
  186.9640  177.8510  145.1400 C   0  0  0  0  0  2  0  0  0  0  0  0
  183.4170  179.1260  144.8990 C   0  0  0  0  0  3  0  0  0  0  0  0
  185.6290  178.2200  144.5940 C   0  0  0  0  0  0  0  0  0  0  0  0
  184.1030  178.4180  142.7380 C   0  0  0  0  0  0  0  0  0  0  0  0
  184.6560  178.7670  145.4350 C   0  0  0  0  0  3  0  0  0  0  0  0
  185.3550  178.0490  143.2350 C   0  0  0  0  0  3  0  0  0  0  0  0
  183.8250  178.2640  141.4230 F   0  0  0  0  0  0  0  0  0  0  0  0
  183.1670  178.9440  143.5740 N   0  0  0  0  0  0  0  0  0  0  0  0
  189.6250  178.0440  145.2230 C   0  0  0  0  0  2  0  0  0  0  0  0
  191.6090  176.2010  144.9270 S   0  0  0  0  0  1  0  0  0  0  0  0
  190.5000  177.1100  146.0370 C   0  0  0  0  0  2  0  0  0  0  0  0
  188.6440  177.5980  141.5370 C   0  0  0  0  0  2  0  0  0  0  0  0
  190.4890  176.7030  139.9560 C   0  0  2  0  0  0  0  0  0  0  0  0
  189.0360  176.8870  138.1310 C   0  0  1  0  0  3  0  0  0  0  0  0
  189.9040  175.9570  138.8490 N   0  0  0  0  0  2  0  0  0  0  0  0
  187.8810  176.2240  137.7190 O   0  0  0  0  0  1  0  0  0  0  0  0
  188.6670  178.0260  139.0620 C   0  0  2  0  0  3  0  0  0  0  0  0
  188.9820  179.2420  138.4570 O   0  0  0  0  0  1  0  0  0  0  0  0
  190.6970  175.8420  141.0390 O   0  0  0  0  0  1  0  0  0  0  0  0
  189.5180  177.8380  140.2970 C   0  0  1  0  0  3  0  0  0  0  0  0
  191.8300  177.2810  139.5130 C   0  0  0  0  0  2  0  0  0  0  0  0
  192.2340  176.7190  138.3000 O   0  0  0  0  0  0  0  0  0  0  0  0
  193.5650  176.5160  138.4450 N   0  0  0  0  0  2  0  0  0  0  0  0
  193.8790  175.2580  137.7880 C   0  0  0  0  0  2  0  0  0  0  0  0
  195.0520  175.3970  137.0450 O   0  0  0  0  0  1  0  0  0  0  0  0
  2  1  1  6  0  0  0
  2  3  1  0  0  0  0
  2 12  1  0  0  0  0
  3  4  1  0  0  0  0
  5  8  1  0  0  0  0
  6  4  1  0  0  0  0
  6  8  2  0  0  0  0
  7  9  2  0  0  0  0
  7 11  1  0  0  0  0
  9  6  1  0  0  0  0
 10  7  1  0  0  0  0
 11  5  2  0  0  0  0
 12 14  1  0  0  0  0
 13 14  1  0  0  0  0
 15  1  1  0  0  0  0
 16 23  1  0  0  0  0
 16 22  1  1  0  0  0
 17 19  1  1  0  0  0
 17 18  1  0  0  0  0
 17 20  1  0  0  0  0
 18 16  1  0  0  0  0
 20 21  1  6  0  0  0
 20 23  1  0  0  0  0
 23 15  1  1  0  0  0
 24 16  1  0  0  0  0
 25 26  1  0  0  0  0
 25 24  1  0  0  0  0
 27 26  1  0  0  0  0
 28 27  1  0  0  0  0
M  END
>  <MODEL>
6

>  <REMARK>
 VINA RESULT:      -6.8      2.747      4.112
  Name = 
  12 active torsions:
  status: ('A' for Active; 'I' for Inactive)
    1  A    between atoms: C_1  and  C_11
    2  A    between atoms: O_6  and  N_8
    3  A    between atoms: O_6  and  C_11
    4  A    between atoms: N_8  and  C_22
    5  A    between atoms: C_9  and  C_18
    6  A    between atoms: C_10  and  C_14
    7  A    between atoms: C_10  and  C_17
    8  A    between atoms: C_10  and  C_25
    9  A    between atoms: C_14  and  C_18
   10  A    between atoms: C_17  and  C_19
   11  A    between atoms: C_19  and  C_27
   12  A    between atoms: C_20  and  C_25
                            x       y       z     vdW  Elec       q    Type
                         _______ _______ _______ _____ _____    ______ ____

>  <TORSDO>
F 12

$$$$
=
 OpenBabel10272402023D

 28 29  0  0  1  0  0  0  0  0999 V2000
  186.5870  178.4160  141.3420 C   0  0  0  0  0  2  0  0  0  0  0  0
  185.8560  178.6450  142.6540 C   0  0  2  0  0  3  0  0  0  0  0  0
  186.3240  177.6240  143.6810 C   0  0  0  0  0  2  0  0  0  0  0  0
  186.0550  178.1270  145.0890 C   0  0  0  0  0  2  0  0  0  0  0  0
  189.5590  177.2750  146.2120 C   0  0  0  0  0  3  0  0  0  0  0  0
  187.2400  177.8800  145.9550 C   0  0  0  0  0  0  0  0  0  0  0  0
  188.2820  177.8520  148.1290 C   0  0  0  0  0  0  0  0  0  0  0  0
  188.4520  177.4820  145.3840 C   0  0  0  0  0  3  0  0  0  0  0  0
  187.1540  178.0720  147.3360 C   0  0  0  0  0  3  0  0  0  0  0  0
  188.2150  178.0390  149.4680 F   0  0  0  0  0  0  0  0  0  0  0  0
  189.4520  177.4600  147.5550 N   0  0  0  0  0  0  0  0  0  0  0  0
  184.3570  178.5050  142.4360 C   0  0  0  0  0  2  0  0  0  0  0  0
  182.2830  178.3170  140.6790 S   0  0  0  0  0  1  0  0  0  0  0  0
  184.0080  178.7860  140.9870 C   0  0  0  0  0  2  0  0  0  0  0  0
  188.0900  178.5890  141.5350 C   0  0  0  0  0  2  0  0  0  0  0  0
  189.8040  177.4960  139.9320 C   0  0  2  0  0  0  0  0  0  0  0  0
  191.2070  177.0100  141.7390 C   0  0  1  0  0  3  0  0  0  0  0  0
  191.1610  177.6630  140.4340 N   0  0  0  0  0  2  0  0  0  0  0  0
  191.9890  177.7650  142.6120 O   0  0  0  0  0  1  0  0  0  0  0  0
  189.7940  176.9030  142.2800 C   0  0  2  0  0  3  0  0  0  0  0  0
  189.5240  175.5760  142.6160 O   0  0  0  0  0  1  0  0  0  0  0  0
  189.4560  178.6030  139.1520 O   0  0  0  0  0  1  0  0  0  0  0  0
  188.8890  177.3360  141.1500 C   0  0  1  0  0  3  0  0  0  0  0  0
  189.7440  176.2390  139.0680 C   0  0  0  0  0  2  0  0  0  0  0  0
  191.0190  175.8870  138.6180 O   0  0  0  0  0  0  0  0  0  0  0  0
  190.8560  174.6660  138.0560 N   0  0  0  0  0  2  0  0  0  0  0  0
  192.0850  174.3590  137.3410 C   0  0  0  0  0  2  0  0  0  0  0  0
  192.2250  175.2260  136.2560 O   0  0  0  0  0  1  0  0  0  0  0  0
  1 15  1  0  0  0  0
  2  1  1  6  0  0  0
  2  3  1  0  0  0  0
  3  4  1  0  0  0  0
  4  6  1  0  0  0  0
  5 11  1  0  0  0  0
  6  9  2  0  0  0  0
  7 10  1  0  0  0  0
  8  6  1  0  0  0  0
  8  5  2  0  0  0  0
  9  7  1  0  0  0  0
 11  7  2  0  0  0  0
 12  2  1  0  0  0  0
 13 14  1  0  0  0  0
 14 12  1  0  0  0  0
 16 22  1  6  0  0  0
 16 18  1  0  0  0  0
 16 23  1  0  0  0  0
 17 20  1  0  0  0  0
 17 19  1  1  0  0  0
 18 17  1  0  0  0  0
 20 21  1  6  0  0  0
 23 15  1  1  0  0  0
 23 20  1  0  0  0  0
 24 16  1  0  0  0  0
 25 24  1  0  0  0  0
 26 25  1  0  0  0  0
 27 26  1  0  0  0  0
 28 27  1  0  0  0  0
M  END
>  <MODEL>
7

>  <REMARK>
 VINA RESULT:      -6.7      3.632      5.355
  Name = 
  12 active torsions:
  status: ('A' for Active; 'I' for Inactive)
    1  A    between atoms: C_1  and  C_11
    2  A    between atoms: O_6  and  N_8
    3  A    between atoms: O_6  and  C_11
    4  A    between atoms: N_8  and  C_22
    5  A    between atoms: C_9  and  C_18
    6  A    between atoms: C_10  and  C_14
    7  A    between atoms: C_10  and  C_17
    8  A    between atoms: C_10  and  C_25
    9  A    between atoms: C_14  and  C_18
   10  A    between atoms: C_17  and  C_19
   11  A    between atoms: C_19  and  C_27
   12  A    between atoms: C_20  and  C_25
                            x       y       z     vdW  Elec       q    Type
                         _______ _______ _______ _____ _____    ______ ____

>  <TORSDO>
F 12

$$$$
=
 OpenBabel10272402023D

 28 29  0  0  1  0  0  0  0  0999 V2000
  188.8470  177.4860  141.1460 C   0  0  0  0  0  2  0  0  0  0  0  0
  188.9590  176.5180  142.3120 C   0  0  2  0  0  3  0  0  0  0  0  0
  187.9940  176.9350  143.4120 C   0  0  0  0  0  2  0  0  0  0  0  0
  186.8420  177.7360  142.8310 C   0  0  0  0  0  2  0  0  0  0  0  0
  183.6920  178.8050  144.6220 C   0  0  0  0  0  3  0  0  0  0  0  0
  185.8900  178.1190  143.9110 C   0  0  0  0  0  0  0  0  0  0  0  0
  185.3880  178.4470  146.2460 C   0  0  0  0  0  0  0  0  0  0  0  0
  184.5750  178.4680  143.5920 C   0  0  0  0  0  3  0  0  0  0  0  0
  186.3010  178.1020  145.2460 C   0  0  0  0  0  3  0  0  0  0  0  0
  185.7700  178.4300  147.5440 F   0  0  0  0  0  0  0  0  0  0  0  0
  184.1140  178.7900  145.9150 N   0  0  0  0  0  0  0  0  0  0  0  0
  190.3830  176.5250  142.8470 C   0  0  0  0  0  2  0  0  0  0  0  0
  191.3120  178.7980  144.0260 S   0  0  0  0  0  1  0  0  0  0  0  0
  190.4370  177.2190  144.1940 C   0  0  0  0  0  2  0  0  0  0  0  0
  190.1800  177.5890  140.4120 C   0  0  0  0  0  2  0  0  0  0  0  0
  189.9870  176.4330  138.1030 C   0  0  2  0  0  0  0  0  0  0  0  0
  187.9080  177.4480  137.7520 C   0  0  1  0  0  3  0  0  0  0  0  0
  188.5930  176.1590  137.7780 N   0  0  0  0  0  2  0  0  0  0  0  0
  186.6380  177.3130  138.3090 O   0  0  0  0  0  1  0  0  0  0  0  0
  188.7170  178.4460  138.5590 C   0  0  2  0  0  3  0  0  0  0  0  0
  188.9800  179.5720  137.7790 O   0  0  0  0  0  1  0  0  0  0  0  0
  190.5130  175.3650  138.8360 O   0  0  0  0  0  1  0  0  0  0  0  0
  190.0150  177.7460  138.8930 C   0  0  1  0  0  3  0  0  0  0  0  0
  190.7790  176.5900  136.8090 C   0  0  0  0  0  2  0  0  0  0  0  0
  191.4780  175.4160  136.5130 O   0  0  0  0  0  0  0  0  0  0  0  0
  192.7270  175.8350  136.1980 N   0  0  0  0  0  2  0  0  0  0  0  0
  193.5980  175.4370  137.2920 C   0  0  0  0  0  2  0  0  0  0  0  0
  193.8510  176.5370  138.1130 O   0  0  0  0  0  1  0  0  0  0  0  0
  2  1  1  6  0  0  0
  2 12  1  0  0  0  0
  2  3  1  0  0  0  0
  4  3  1  0  0  0  0
  4  6  1  0  0  0  0
  5 11  1  0  0  0  0
  6  9  2  0  0  0  0
  7 10  1  0  0  0  0
  8  6  1  0  0  0  0
  8  5  2  0  0  0  0
  9  7  1  0  0  0  0
 11  7  2  0  0  0  0
 12 14  1  0  0  0  0
 13 14  1  0  0  0  0
 15  1  1  0  0  0  0
 16 22  1  1  0  0  0
 16 23  1  0  0  0  0
 17 18  1  0  0  0  0
 17 19  1  1  0  0  0
 17 20  1  0  0  0  0
 18 16  1  0  0  0  0
 20 21  1  6  0  0  0
 20 23  1  0  0  0  0
 23 15  1  1  0  0  0
 24 16  1  0  0  0  0
 25 24  1  0  0  0  0
 26 25  1  0  0  0  0
 26 27  1  0  0  0  0
 27 28  1  0  0  0  0
M  END
>  <MODEL>
8

>  <REMARK>
 VINA RESULT:      -6.7      3.128      4.998
  Name = 
  12 active torsions:
  status: ('A' for Active; 'I' for Inactive)
    1  A    between atoms: C_1  and  C_11
    2  A    between atoms: O_6  and  N_8
    3  A    between atoms: O_6  and  C_11
    4  A    between atoms: N_8  and  C_22
    5  A    between atoms: C_9  and  C_18
    6  A    between atoms: C_10  and  C_14
    7  A    between atoms: C_10  and  C_17
    8  A    between atoms: C_10  and  C_25
    9  A    between atoms: C_14  and  C_18
   10  A    between atoms: C_17  and  C_19
   11  A    between atoms: C_19  and  C_27
   12  A    between atoms: C_20  and  C_25
                            x       y       z     vdW  Elec       q    Type
                         _______ _______ _______ _____ _____    ______ ____

>  <TORSDO>
F 12

$$$$
=
 OpenBabel10272402023D

 28 29  0  0  1  0  0  0  0  0999 V2000
  188.4480  177.4830  144.8620 C   0  0  0  0  0  2  0  0  0  0  0  0
  187.0730  177.4710  145.5090 C   0  0  2  0  0  3  0  0  0  0  0  0
  186.0060  177.6560  144.4400 C   0  0  0  0  0  2  0  0  0  0  0  0
  185.0690  178.7900  144.8170 C   0  0  0  0  0  2  0  0  0  0  0  0
  182.9530  178.7770  141.6870 C   0  0  0  0  0  3  0  0  0  0  0  0
  183.8890  178.8010  143.9080 C   0  0  0  0  0  0  0  0  0  0  0  0
  181.5020  178.7870  143.5670 C   0  0  0  0  0  0  0  0  0  0  0  0
  184.0730  178.7870  142.5230 C   0  0  0  0  0  3  0  0  0  0  0  0
  182.5960  178.7940  144.4360 C   0  0  0  0  0  3  0  0  0  0  0  0
  180.2440  178.7750  144.0640 F   0  0  0  0  0  0  0  0  0  0  0  0
  181.7030  178.7790  142.2220 N   0  0  0  0  0  0  0  0  0  0  0  0
  186.9770  178.5940  146.5310 C   0  0  0  0  0  2  0  0  0  0  0  0
  189.0040  177.8740  148.2020 S   0  0  0  0  0  1  0  0  0  0  0  0
  187.2210  178.0570  147.9280 C   0  0  0  0  0  2  0  0  0  0  0  0
  188.4750  176.5510  143.6570 C   0  0  0  0  0  2  0  0  0  0  0  0
  190.1570  177.6570  142.0280 C   0  0  2  0  0  0  0  0  0  0  0  0
  191.7560  177.7720  143.7320 C   0  0  1  0  0  3  0  0  0  0  0  0
  191.0410  178.5700  142.7390 N   0  0  0  0  0  2  0  0  0  0  0  0
  191.8900  178.5030  144.9110 O   0  0  0  0  0  1  0  0  0  0  0  0
  190.9620  176.5070  144.0020 C   0  0  2  0  0  3  0  0  0  0  0  0
  191.7830  175.3940  143.8180 O   0  0  0  0  0  1  0  0  0  0  0  0
  188.9990  178.3380  141.6380 O   0  0  0  0  0  1  0  0  0  0  0  0
  189.8510  176.4940  142.9770 C   0  0  1  0  0  3  0  0  0  0  0  0
  190.8730  177.1370  140.7840 C   0  0  0  0  0  2  0  0  0  0  0  0
  190.0330  176.3010  140.0450 O   0  0  0  0  0  0  0  0  0  0  0  0
  190.1550  176.7390  138.7690 N   0  0  0  0  0  2  0  0  0  0  0  0
  191.2680  176.0170  138.1750 C   0  0  0  0  0  2  0  0  0  0  0  0
  190.9520  174.6610  138.0830 O   0  0  0  0  0  1  0  0  0  0  0  0
  1  2  1  0  0  0  0
  2  3  1  6  0  0  0
  2 12  1  0  0  0  0
  3  4  1  0  0  0  0
  5 11  2  0  0  0  0
  5  8  1  0  0  0  0
  6  9  1  0  0  0  0
  6  4  1  0  0  0  0
  7 10  1  0  0  0  0
  7  9  2  0  0  0  0
  8  6  2  0  0  0  0
 11  7  1  0  0  0  0
 12 14  1  0  0  0  0
 14 13  1  0  0  0  0
 15  1  1  0  0  0  0
 16 22  1  6  0  0  0
 16 18  1  0  0  0  0
 16 23  1  0  0  0  0
 17 20  1  0  0  0  0
 17 19  1  1  0  0  0
 18 17  1  0  0  0  0
 20 21  1  6  0  0  0
 23 15  1  1  0  0  0
 23 20  1  0  0  0  0
 24 16  1  0  0  0  0
 25 24  1  0  0  0  0
 26 25  1  0  0  0  0
 27 26  1  0  0  0  0
 28 27  1  0  0  0  0
M  END
>  <MODEL>
9

>  <REMARK>
 VINA RESULT:      -6.7      1.857      2.184
  Name = 
  12 active torsions:
  status: ('A' for Active; 'I' for Inactive)
    1  A    between atoms: C_1  and  C_11
    2  A    between atoms: O_6  and  N_8
    3  A    between atoms: O_6  and  C_11
    4  A    between atoms: N_8  and  C_22
    5  A    between atoms: C_9  and  C_18
    6  A    between atoms: C_10  and  C_14
    7  A    between atoms: C_10  and  C_17
    8  A    between atoms: C_10  and  C_25
    9  A    between atoms: C_14  and  C_18
   10  A    between atoms: C_17  and  C_19
   11  A    between atoms: C_19  and  C_27
   12  A    between atoms: C_20  and  C_25
                            x       y       z     vdW  Elec       q    Type
                         _______ _______ _______ _____ _____    ______ ____

>  <TORSDO>
F 12

$$$$
