=
 OpenBabel10272413213D

 32 37  0  0  1  0  0  0  0  0999 V2000
  187.4840  176.9000  137.2460 C   0  0  0  0  0  2  0  0  0  0  0  0
  188.0380  177.9030  142.2140 C   0  0  0  0  0  0  0  0  0  0  0  0
  183.1670  178.7300  142.8320 C   0  0  0  0  0  2  0  0  0  0  0  0
  183.4840  179.3410  144.1820 C   0  0  0  0  0  2  0  0  0  0  0  0
  189.4610  177.4470  144.2520 C   0  0  0  0  0  0  0  0  0  0  0  0
  189.4990  177.3680  145.6440 C   0  0  0  0  0  0  0  0  0  0  0  0
  188.9460  177.7770  139.9360 C   0  0  0  0  0  0  0  0  0  0  0  0
  186.6220  178.3610  140.2810 C   0  0  0  0  0  3  0  0  0  0  0  0
  188.8350  177.4330  147.7030 C   0  0  0  0  0  0  0  0  0  0  0  0
  187.4390  178.2620  137.9440 C   0  0  0  0  0  2  0  0  0  0  0  0
  184.3570  178.9390  141.9070 C   0  0  0  0  0  2  0  0  0  0  0  0
  186.7730  178.2490  141.6730 C   0  0  0  0  0  0  0  0  0  0  0  0
  185.6690  178.4810  142.5130 C   0  0  0  0  0  0  0  0  0  0  0  0
  187.0670  178.0440  144.4690 C   0  0  0  0  0  0  0  0  0  0  0  0
  190.1130  177.1110  147.6600 O   0  0  0  0  0  0  0  0  0  0  0  0
  189.9660  177.0300  137.6610 C   0  0  0  0  0  2  0  0  0  0  0  0
  187.6890  178.1390  139.4130 C   0  0  0  0  0  0  0  0  0  0  0  0
  190.5520  177.0620  146.4290 N   0  0  0  0  0  0  0  0  0  0  0  0
  190.1810  177.5270  139.0970 C   0  0  0  0  0  2  0  0  0  0  0  0
  188.7590  176.1030  137.5380 C   0  0  2  0  0  3  0  0  0  0  0  0
  184.6180  178.5540  144.8230 C   0  0  0  0  0  2  0  0  0  0  0  0
  185.8200  178.3910  143.9130 C   0  0  0  0  0  0  0  0  0  0  0  0
  187.1800  177.9450  145.8740 C   0  0  0  0  0  3  0  0  0  0  0  0
  189.0970  177.6770  141.3190 C   0  0  0  0  0  3  0  0  0  0  0  0
  190.7320  177.1610  143.5160 C   0  0  0  0  0  1  0  0  0  0  0  0
  188.0310  177.5750  148.9470 C   0  0  0  0  0  1  0  0  0  0  0  0
  188.2100  177.7950  143.6260 C   0  0  0  0  0  0  0  0  0  0  0  0
  188.4060  177.6070  146.4130 C   0  0  0  0  0  0  0  0  0  0  0  0
  188.9760  175.0870  136.4300 C   0  0  0  0  0  2  0  0  0  0  0  0
  189.3830  173.7690  136.9930 C   0  0  0  0  0  0  0  0  0  0  0  0
  188.4680  172.7250  137.0520 O   0  0  0  0  0  0  0  0  0  0  0  0
  190.5650  173.5900  137.3880 O   0  0  0  0  0  1  0  0  0  0  0  0
  1 20  1  0  0  0  0
  1 10  1  0  0  0  0
  2 27  1  0  0  0  0
  3  4  1  0  0  0  0
  4 21  1  0  0  0  0
  5  6  1  0  0  0  0
  6 28  1  0  0  0  0
  6 18  2  0  0  0  0
  7 24  1  0  0  0  0
  8 12  2  0  0  0  0
  9 26  1  0  0  0  0
 10 17  1  0  0  0  0
 11 13  1  0  0  0  0
 11  3  1  0  0  0  0
 12  2  1  0  0  0  0
 12 13  1  0  0  0  0
 13 22  2  0  0  0  0
 14 23  2  0  0  0  0
 15  9  1  0  0  0  0
 16 19  1  0  0  0  0
 17  7  2  0  0  0  0
 17  8  1  0  0  0  0
 18 15  1  0  0  0  0
 19  7  1  0  0  0  0
 20 29  1  6  0  0  0
 20 16  1  0  0  0  0
 22 14  1  0  0  0  0
 22 21  1  0  0  0  0
 23 28  1  0  0  0  0
 24  2  2  0  0  0  0
 25  5  1  0  0  0  0
 27  5  2  0  0  0  0
 27 14  1  0  0  0  0
 28  9  2  0  0  0  0
 29 30  1  0  0  0  0
 30 31  2  0  0  0  0
 30 32  1  0  0  0  0
M  END
>  <MODEL>
1

>  <REMARK>
 VINA RESULT:     -11.8      0.000      0.000
  Name = 
  2 active torsions:
  status: ('A' for Active; 'I' for Inactive)
    1  A    between atoms: C_1  and  C_10
    2  A    between atoms: C_10  and  C_24
                            x       y       z     vdW  Elec       q    Type
                         _______ _______ _______ _____ _____    ______ ____

>  <TORSDO>
F 2

$$$$
=
 OpenBabel10272413213D

 32 37  0  0  1  0  0  0  0  0999 V2000
  189.2380  176.3630  137.2040 C   0  0  0  0  0  2  0  0  0  0  0  0
  189.0770  177.6080  142.1460 C   0  0  0  0  0  0  0  0  0  0  0  0
  184.1920  178.5580  141.9900 C   0  0  0  0  0  2  0  0  0  0  0  0
  184.3210  179.2310  143.3420 C   0  0  0  0  0  2  0  0  0  0  0  0
  190.1700  177.2300  144.3930 C   0  0  0  0  0  0  0  0  0  0  0  0
  189.9990  177.2220  145.7770 C   0  0  0  0  0  0  0  0  0  0  0  0
  190.3090  177.3490  140.0370 C   0  0  0  0  0  0  0  0  0  0  0  0
  187.9750  177.9930  140.0040 C   0  0  0  0  0  3  0  0  0  0  0  0
  189.0400  177.4040  147.7090 C   0  0  0  0  0  0  0  0  0  0  0  0
  189.1270  177.7600  137.8220 C   0  0  0  0  0  2  0  0  0  0  0  0
  185.5110  178.6960  141.2450 C   0  0  0  0  0  2  0  0  0  0  0  0
  187.9150  177.9490  141.4070 C   0  0  0  0  0  0  0  0  0  0  0  0
  186.7060  178.2460  142.0600 C   0  0  0  0  0  0  0  0  0  0  0  0
  187.7860  177.8830  144.2220 C   0  0  0  0  0  0  0  0  0  0  0  0
  190.3010  177.0560  147.8720 O   0  0  0  0  0  0  0  0  0  0  0  0
  191.6340  176.4670  137.9790 C   0  0  0  0  0  2  0  0  0  0  0  0
  189.1530  177.7070  139.3160 C   0  0  0  0  0  0  0  0  0  0  0  0
  190.9160  176.9360  146.7240 N   0  0  0  0  0  0  0  0  0  0  0  0
  191.6470  177.0320  139.4050 C   0  0  0  0  0  2  0  0  0  0  0  0
  190.4350  175.5580  137.7210 C   0  0  2  0  0  3  0  0  0  0  0  0
  185.3270  178.4570  144.1820 C   0  0  0  0  0  2  0  0  0  0  0  0
  186.6450  178.2240  143.4690 C   0  0  0  0  0  0  0  0  0  0  0  0
  187.6880  177.8530  145.6310 C   0  0  0  0  0  3  0  0  0  0  0  0
  190.2510  177.3160  141.4310 C   0  0  0  0  0  3  0  0  0  0  0  0
  191.5280  176.8830  143.8690 C   0  0  0  0  0  1  0  0  0  0  0  0
  188.0640  177.6240  148.8110 C   0  0  0  0  0  1  0  0  0  0  0  0
  189.0350  177.5690  143.5720 C   0  0  0  0  0  0  0  0  0  0  0  0
  188.8110  177.5200  146.3620 C   0  0  0  0  0  0  0  0  0  0  0  0
  190.7860  174.4830  136.7070 C   0  0  0  0  0  2  0  0  0  0  0  0
  191.7780  174.9930  135.7190 C   0  0  0  0  0  0  0  0  0  0  0  0
  193.1040  174.5880  135.7920 O   0  0  0  0  0  1  0  0  0  0  0  0
  191.4080  175.7670  134.7980 O   0  0  0  0  0  0  0  0  0  0  0  0
  1 20  1  0  0  0  0
  1 10  1  0  0  0  0
  2 27  1  0  0  0  0
  3  4  1  0  0  0  0
  4 21  1  0  0  0  0
  5  6  1  0  0  0  0
  6 28  1  0  0  0  0
  6 18  2  0  0  0  0
  7 24  2  0  0  0  0
  8 12  1  0  0  0  0
  9 15  1  0  0  0  0
  9 26  1  0  0  0  0
 10 17  1  0  0  0  0
 11  3  1  0  0  0  0
 11 13  1  0  0  0  0
 12 13  1  0  0  0  0
 12  2  2  0  0  0  0
 13 22  2  0  0  0  0
 14 23  2  0  0  0  0
 16 19  1  0  0  0  0
 17  8  2  0  0  0  0
 17  7  1  0  0  0  0
 18 15  1  0  0  0  0
 19  7  1  0  0  0  0
 20 29  1  6  0  0  0
 20 16  1  0  0  0  0
 22 21  1  0  0  0  0
 22 14  1  0  0  0  0
 23 28  1  0  0  0  0
 24  2  1  0  0  0  0
 25  5  1  0  0  0  0
 27 14  1  0  0  0  0
 27  5  2  0  0  0  0
 28  9  2  0  0  0  0
 30 31  1  0  0  0  0
 30 29  1  0  0  0  0
 32 30  2  0  0  0  0
M  END
>  <MODEL>
2

>  <REMARK>
 VINA RESULT:     -11.2      1.380      1.670
  Name = 
  2 active torsions:
  status: ('A' for Active; 'I' for Inactive)
    1  A    between atoms: C_1  and  C_10
    2  A    between atoms: C_10  and  C_24
                            x       y       z     vdW  Elec       q    Type
                         _______ _______ _______ _____ _____    ______ ____

>  <TORSDO>
F 2

$$$$
=
 OpenBabel10272413213D

 32 37  0  0  1  0  0  0  0  0999 V2000
  184.0220  177.9920  138.2610 C   0  0  0  0  0  2  0  0  0  0  0  0
  187.3470  178.0290  142.1270 C   0  0  0  0  0  0  0  0  0  0  0  0
  183.7410  178.4620  145.5330 C   0  0  0  0  0  2  0  0  0  0  0  0
  184.8050  178.8110  146.5550 C   0  0  0  0  0  2  0  0  0  0  0  0
  189.6350  177.2570  142.8700 C   0  0  0  0  0  0  0  0  0  0  0  0
  190.4450  176.9090  143.9510 C   0  0  0  0  0  0  0  0  0  0  0  0
  186.8020  178.4010  139.7610 C   0  0  0  0  0  0  0  0  0  0  0  0
  185.1230  178.7820  141.4630 C   0  0  0  0  0  3  0  0  0  0  0  0
  191.0640  176.5340  145.9910 C   0  0  0  0  0  0  0  0  0  0  0  0
  184.4720  179.1870  139.1070 C   0  0  0  0  0  2  0  0  0  0  0  0
  184.2150  178.9090  144.1590 C   0  0  0  0  0  2  0  0  0  0  0  0
  186.0230  178.4070  142.4740 C   0  0  0  0  0  0  0  0  0  0  0  0
  185.6040  178.4120  143.8160 C   0  0  0  0  0  0  0  0  0  0  0  0
  187.8270  177.6740  144.5120 C   0  0  0  0  0  0  0  0  0  0  0  0
  192.0690  176.2940  145.1730 O   0  0  0  0  0  0  0  0  0  0  0  0
  186.3080  178.1690  137.2160 C   0  0  0  0  0  2  0  0  0  0  0  0
  185.4970  178.7910  140.1210 C   0  0  0  0  0  0  0  0  0  0  0  0
  191.7330  176.5110  143.9280 N   0  0  0  0  0  0  0  0  0  0  0  0
  187.3280  178.3850  138.3420 C   0  0  0  0  0  2  0  0  0  0  0  0
  185.1820  177.2220  137.6220 C   0  0  2  0  0  3  0  0  0  0  0  0
  186.0460  177.9750  146.2780 C   0  0  0  0  0  2  0  0  0  0  0  0
  186.5110  178.0570  144.8370 C   0  0  0  0  0  0  0  0  0  0  0  0
  188.7050  177.3070  145.5560 C   0  0  0  0  0  3  0  0  0  0  0  0
  187.6990  178.0390  140.7660 C   0  0  0  0  0  3  0  0  0  0  0  0
  190.2470  177.1890  141.5070 C   0  0  0  0  0  1  0  0  0  0  0  0
  191.1120  176.3860  147.4710 C   0  0  0  0  0  1  0  0  0  0  0  0
  188.2760  177.6550  143.1420 C   0  0  0  0  0  0  0  0  0  0  0  0
  189.9950  176.9340  145.2310 C   0  0  0  0  0  0  0  0  0  0  0  0
  184.6660  176.4560  136.4160 C   0  0  0  0  0  2  0  0  0  0  0  0
  185.0300  175.0140  136.5110 C   0  0  0  0  0  0  0  0  0  0  0  0
  186.1720  174.6290  137.2010 O   0  0  0  0  0  1  0  0  0  0  0  0
  184.2870  174.1410  135.9910 O   0  0  0  0  0  0  0  0  0  0  0  0
  1 10  1  0  0  0  0
  2 12  1  0  0  0  0
  2 27  1  0  0  0  0
  3  4  1  0  0  0  0
  5 27  2  0  0  0  0
  5  6  1  0  0  0  0
  6 28  1  0  0  0  0
  7 17  2  0  0  0  0
  7 24  1  0  0  0  0
  8 12  2  0  0  0  0
  9 26  1  0  0  0  0
 10 17  1  0  0  0  0
 11  3  1  0  0  0  0
 12 13  1  0  0  0  0
 13 11  1  0  0  0  0
 13 22  2  0  0  0  0
 14 22  1  0  0  0  0
 14 23  2  0  0  0  0
 15  9  1  0  0  0  0
 16 20  1  0  0  0  0
 16 19  1  0  0  0  0
 17  8  1  0  0  0  0
 18  6  2  0  0  0  0
 18 15  1  0  0  0  0
 19  7  1  0  0  0  0
 20 29  1  6  0  0  0
 20  1  1  0  0  0  0
 21  4  1  0  0  0  0
 22 21  1  0  0  0  0
 24  2  2  0  0  0  0
 25  5  1  0  0  0  0
 27 14  1  0  0  0  0
 28 23  1  0  0  0  0
 28  9  2  0  0  0  0
 29 30  1  0  0  0  0
 30 31  1  0  0  0  0
 32 30  2  0  0  0  0
M  END
>  <MODEL>
3

>  <REMARK>
 VINA RESULT:     -11.0      2.117      2.856
  Name = 
  2 active torsions:
  status: ('A' for Active; 'I' for Inactive)
    1  A    between atoms: C_1  and  C_10
    2  A    between atoms: C_10  and  C_24
                            x       y       z     vdW  Elec       q    Type
                         _______ _______ _______ _____ _____    ______ ____

>  <TORSDO>
F 2

$$$$
=
 OpenBabel10272413213D

 32 37  0  0  1  0  0  0  0  0999 V2000
  180.5400  177.9990  141.0330 C   0  0  0  0  0  2  0  0  0  0  0  0
  185.5380  178.3770  141.9720 C   0  0  0  0  0  0  0  0  0  0  0  0
  184.8790  178.0330  146.8950 C   0  0  0  0  0  2  0  0  0  0  0  0
  186.3100  178.4980  147.0780 C   0  0  0  0  0  2  0  0  0  0  0  0
  187.8410  177.9540  141.0210 C   0  0  0  0  0  0  0  0  0  0  0  0
  189.1800  177.6870  141.3060 C   0  0  0  0  0  0  0  0  0  0  0  0
  183.5880  178.7790  140.5330 C   0  0  0  0  0  0  0  0  0  0  0  0
  183.3370  178.7900  142.9410 C   0  0  0  0  0  3  0  0  0  0  0  0
  190.9810  177.3110  142.4460 C   0  0  0  0  0  0  0  0  0  0  0  0
  181.3090  179.2060  141.5810 C   0  0  0  0  0  2  0  0  0  0  0  0
  184.3310  178.6240  145.6040 C   0  0  0  0  0  2  0  0  0  0  0  0
  184.7040  178.5150  143.1120 C   0  0  0  0  0  0  0  0  0  0  0  0
  185.2300  178.3800  144.4090 C   0  0  0  0  0  0  0  0  0  0  0  0
  187.4500  177.9810  143.4670 C   0  0  0  0  0  0  0  0  0  0  0  0
  191.2590  177.2830  141.1580 O   0  0  0  0  0  0  0  0  0  0  0  0
  181.6210  178.6030  138.8380 C   0  0  0  0  0  2  0  0  0  0  0  0
  182.7750  178.9300  141.6750 C   0  0  0  0  0  0  0  0  0  0  0  0
  190.1930  177.5070  140.4340 N   0  0  0  0  0  0  0  0  0  0  0  0
  183.0970  178.9240  139.1090 C   0  0  0  0  0  2  0  0  0  0  0  0
  181.1010  177.4640  139.7120 C   0  0  2  0  0  3  0  0  0  0  0  0
  187.1680  177.8930  145.9760 C   0  0  0  0  0  2  0  0  0  0  0  0
  186.6060  178.1260  144.5870 C   0  0  0  0  0  0  0  0  0  0  0  0
  188.8190  177.7090  143.6790 C   0  0  0  0  0  3  0  0  0  0  0  0
  184.9480  178.5170  140.7040 C   0  0  0  0  0  3  0  0  0  0  0  0
  187.4550  178.0590  139.5790 C   0  0  0  0  0  1  0  0  0  0  0  0
  191.9680  177.0960  143.5390 C   0  0  0  0  0  1  0  0  0  0  0  0
  186.9300  178.1080  142.1280 C   0  0  0  0  0  0  0  0  0  0  0  0
  189.6410  177.5710  142.5770 C   0  0  0  0  0  0  0  0  0  0  0  0
  180.0140  176.6890  138.9880 C   0  0  0  0  0  2  0  0  0  0  0  0
  180.2120  175.2210  139.1550 C   0  0  0  0  0  0  0  0  0  0  0  0
  180.5660  174.4380  138.0640 O   0  0  0  0  0  0  0  0  0  0  0  0
  180.0880  174.6940  140.2920 O   0  0  0  0  0  1  0  0  0  0  0  0
  1 10  1  0  0  0  0
  2 27  1  0  0  0  0
  2 12  1  0  0  0  0
  3  4  1  0  0  0  0
  5  6  1  0  0  0  0
  5 27  2  0  0  0  0
  6 28  1  0  0  0  0
  7 24  1  0  0  0  0
  7 17  2  0  0  0  0
  8 12  2  0  0  0  0
  9 28  2  0  0  0  0
  9 26  1  0  0  0  0
 10 17  1  0  0  0  0
 11  3  1  0  0  0  0
 12 13  1  0  0  0  0
 13 22  2  0  0  0  0
 13 11  1  0  0  0  0
 14 23  2  0  0  0  0
 14 22  1  0  0  0  0
 15  9  1  0  0  0  0
 16 19  1  0  0  0  0
 16 20  1  0  0  0  0
 17  8  1  0  0  0  0
 18 15  1  0  0  0  0
 18  6  2  0  0  0  0
 19  7  1  0  0  0  0
 20 29  1  6  0  0  0
 20  1  1  0  0  0  0
 21  4  1  0  0  0  0
 22 21  1  0  0  0  0
 24  2  2  0  0  0  0
 25  5  1  0  0  0  0
 27 14  1  0  0  0  0
 28 23  1  0  0  0  0
 29 30  1  0  0  0  0
 30 32  1  0  0  0  0
 31 30  2  0  0  0  0
M  END
>  <MODEL>
4

>  <REMARK>
 VINA RESULT:     -10.2      3.358      5.839
  Name = 
  2 active torsions:
  status: ('A' for Active; 'I' for Inactive)
    1  A    between atoms: C_1  and  C_10
    2  A    between atoms: C_10  and  C_24
                            x       y       z     vdW  Elec       q    Type
                         _______ _______ _______ _____ _____    ______ ____

>  <TORSDO>
F 2

$$$$
=
 OpenBabel10272413213D

 32 37  0  0  1  0  0  0  0  0999 V2000
  181.8480  180.5580  137.8120 C   0  0  0  0  0  2  0  0  0  0  0  0
  184.3720  178.6570  141.8140 C   0  0  0  0  0  0  0  0  0  0  0  0
  188.6590  178.4130  139.2940 C   0  0  0  0  0  2  0  0  0  0  0  0
  189.2150  177.5440  140.4040 C   0  0  0  0  0  2  0  0  0  0  0  0
  184.4390  178.5590  144.3380 C   0  0  0  0  0  0  0  0  0  0  0  0
  185.2370  178.3930  145.4690 C   0  0  0  0  0  0  0  0  0  0  0  0
  182.2840  179.0430  140.5790 C   0  0  0  0  0  0  0  0  0  0  0  0
  184.3620  178.7340  139.3750 C   0  0  0  0  0  3  0  0  0  0  0  0
  186.9970  178.0710  146.6870 C   0  0  0  0  0  0  0  0  0  0  0  0
  182.3120  179.1160  138.0360 C   0  0  0  0  0  2  0  0  0  0  0  0
  187.1550  178.2040  139.2130 C   0  0  0  0  0  2  0  0  0  0  0  0
  185.0690  178.5850  140.5800 C   0  0  0  0  0  0  0  0  0  0  0  0
  186.4580  178.3670  140.5480 C   0  0  0  0  0  0  0  0  0  0  0  0
  186.4970  178.2680  142.9900 C   0  0  0  0  0  0  0  0  0  0  0  0
  185.9420  178.2170  147.4640 O   0  0  0  0  0  0  0  0  0  0  0  0
  180.1030  180.0190  139.5480 C   0  0  0  0  0  2  0  0  0  0  0  0
  182.9860  178.9520  139.3610 C   0  0  0  0  0  0  0  0  0  0  0  0
  184.8560  178.4140  146.7630 N   0  0  0  0  0  0  0  0  0  0  0  0
  180.7910  179.2600  140.6910 C   0  0  0  0  0  2  0  0  0  0  0  0
  180.9910  181.1100  138.9550 C   0  0  2  0  0  3  0  0  0  0  0  0
  188.6790  178.0460  141.7370 C   0  0  0  0  0  2  0  0  0  0  0  0
  187.1700  178.1960  141.7540 C   0  0  0  0  0  0  0  0  0  0  0  0
  187.2410  178.1100  144.1800 C   0  0  0  0  0  3  0  0  0  0  0  0
  182.9860  178.8840  141.7740 C   0  0  0  0  0  3  0  0  0  0  0  0
  182.9770  178.7890  144.5590 C   0  0  0  0  0  1  0  0  0  0  0  0
  188.3860  177.8310  147.1660 C   0  0  0  0  0  1  0  0  0  0  0  0
  185.0740  178.4980  143.0450 C   0  0  0  0  0  0  0  0  0  0  0  0
  186.5750  178.1800  145.3870 C   0  0  0  0  0  0  0  0  0  0  0  0
  180.1470  182.2610  138.4320 C   0  0  0  0  0  2  0  0  0  0  0  0
  180.8870  183.0260  137.3890 C   0  0  0  0  0  0  0  0  0  0  0  0
  180.5270  182.9070  136.0530 O   0  0  0  0  0  0  0  0  0  0  0  0
  181.8170  183.8060  137.7210 O   0  0  0  0  0  1  0  0  0  0  0  0
  1 10  1  0  0  0  0
  1 20  1  0  0  0  0
  2 27  1  0  0  0  0
  3  4  1  0  0  0  0
  4 21  1  0  0  0  0
  5 25  1  0  0  0  0
  5  6  1  0  0  0  0
  6 18  2  0  0  0  0
  7 19  1  0  0  0  0
  7 24  2  0  0  0  0
  8 12  1  0  0  0  0
  9 26  1  0  0  0  0
  9 15  1  0  0  0  0
 10 17  1  0  0  0  0
 11  3  1  0  0  0  0
 11 13  1  0  0  0  0
 12  2  2  0  0  0  0
 13 12  1  0  0  0  0
 13 22  2  0  0  0  0
 14 27  1  0  0  0  0
 14 23  2  0  0  0  0
 16 19  1  0  0  0  0
 17  8  2  0  0  0  0
 17  7  1  0  0  0  0
 18 15  1  0  0  0  0
 20 29  1  6  0  0  0
 20 16  1  0  0  0  0
 21 22  1  0  0  0  0
 22 14  1  0  0  0  0
 23 28  1  0  0  0  0
 24  2  1  0  0  0  0
 27  5  2  0  0  0  0
 28  6  1  0  0  0  0
 28  9  2  0  0  0  0
 30 32  1  0  0  0  0
 30 29  1  0  0  0  0
 31 30  2  0  0  0  0
M  END
>  <MODEL>
5

>  <REMARK>
 VINA RESULT:      -9.9      4.374      6.787
  Name = 
  2 active torsions:
  status: ('A' for Active; 'I' for Inactive)
    1  A    between atoms: C_1  and  C_10
    2  A    between atoms: C_10  and  C_24
                            x       y       z     vdW  Elec       q    Type
                         _______ _______ _______ _____ _____    ______ ____

>  <TORSDO>
F 2

$$$$
=
 OpenBabel10272413213D

 32 37  0  0  1  0  0  0  0  0999 V2000
  190.7190  176.2280  136.8990 C   0  0  0  0  0  2  0  0  0  0  0  0
  188.5160  177.8280  141.2100 C   0  0  0  0  0  0  0  0  0  0  0  0
  184.1060  178.4790  138.9940 C   0  0  0  0  0  2  0  0  0  0  0  0
  183.6540  179.2570  140.2140 C   0  0  0  0  0  2  0  0  0  0  0  0
  188.6000  177.6840  143.7320 C   0  0  0  0  0  0  0  0  0  0  0  0
  187.8770  177.7690  144.9210 C   0  0  0  0  0  0  0  0  0  0  0  0
  190.5100  177.4840  139.8180 C   0  0  0  0  0  0  0  0  0  0  0  0
  188.3820  177.9870  138.7800 C   0  0  0  0  0  3  0  0  0  0  0  0
  186.2060  178.0400  146.2700 C   0  0  0  0  0  0  0  0  0  0  0  0
  190.3320  177.6580  137.2860 C   0  0  0  0  0  2  0  0  0  0  0  0
  185.6110  178.6370  138.8400 C   0  0  0  0  0  2  0  0  0  0  0  0
  187.7530  178.0450  140.0340 C   0  0  0  0  0  0  0  0  0  0  0  0
  186.3760  178.3190  140.1090 C   0  0  0  0  0  0  0  0  0  0  0  0
  186.4820  178.1830  142.5470 C   0  0  0  0  0  0  0  0  0  0  0  0
  187.2960  177.7790  146.9640 O   0  0  0  0  0  0  0  0  0  0  0  0
  192.5830  176.5280  138.5680 C   0  0  0  0  0  2  0  0  0  0  0  0
  189.7440  177.7190  138.6600 C   0  0  0  0  0  0  0  0  0  0  0  0
  188.3300  177.6090  146.1810 N   0  0  0  0  0  0  0  0  0  0  0  0
  191.9970  177.1990  139.8170 C   0  0  0  0  0  2  0  0  0  0  0  0
  191.6150  175.5350  137.9300 C   0  0  2  0  0  3  0  0  0  0  0  0
  184.2440  178.6080  141.4570 C   0  0  0  0  0  2  0  0  0  0  0  0
  185.7430  178.4000  141.3670 C   0  0  0  0  0  0  0  0  0  0  0  0
  185.8160  178.2530  143.7900 C   0  0  0  0  0  3  0  0  0  0  0  0
  189.8860  177.5520  141.0640 C   0  0  0  0  0  3  0  0  0  0  0  0
  190.0610  177.3780  143.8400 C   0  0  0  0  0  1  0  0  0  0  0  0
  184.8590  178.2850  146.8540 C   0  0  0  0  0  1  0  0  0  0  0  0
  187.8940  177.8940  142.4920 C   0  0  0  0  0  0  0  0  0  0  0  0
  186.5470  178.0410  144.9420 C   0  0  0  0  0  0  0  0  0  0  0  0
  192.3750  174.4090  137.2500 C   0  0  0  0  0  2  0  0  0  0  0  0
  193.8460  174.6270  137.3530 C   0  0  0  0  0  0  0  0  0  0  0  0
  194.6270  173.7620  138.1090 O   0  0  0  0  0  1  0  0  0  0  0  0
  194.3870  175.5770  136.7290 O   0  0  0  0  0  0  0  0  0  0  0  0
  1 10  1  0  0  0  0
  1 20  1  0  0  0  0
  2 27  1  0  0  0  0
  3  4  1  0  0  0  0
  4 21  1  0  0  0  0
  5 25  1  0  0  0  0
  5  6  1  0  0  0  0
  6 28  1  0  0  0  0
  6 18  2  0  0  0  0
  7 24  2  0  0  0  0
  8 12  1  0  0  0  0
  9 26  1  0  0  0  0
  9 15  1  0  0  0  0
 10 17  1  0  0  0  0
 11  3  1  0  0  0  0
 11 13  1  0  0  0  0
 12 13  1  0  0  0  0
 12  2  2  0  0  0  0
 13 22  2  0  0  0  0
 14 23  2  0  0  0  0
 16 19  1  0  0  0  0
 17  8  2  0  0  0  0
 17  7  1  0  0  0  0
 18 15  1  0  0  0  0
 19  7  1  0  0  0  0
 20 29  1  6  0  0  0
 20 16  1  0  0  0  0
 22 21  1  0  0  0  0
 22 14  1  0  0  0  0
 23 28  1  0  0  0  0
 24  2  1  0  0  0  0
 27 14  1  0  0  0  0
 27  5  2  0  0  0  0
 28  9  2  0  0  0  0
 29 30  1  0  0  0  0
 30 31  1  0  0  0  0
 32 30  2  0  0  0  0
M  END
>  <MODEL>
6

>  <REMARK>
 VINA RESULT:      -9.3      2.093      2.956
  Name = 
  2 active torsions:
  status: ('A' for Active; 'I' for Inactive)
    1  A    between atoms: C_1  and  C_10
    2  A    between atoms: C_10  and  C_24
                            x       y       z     vdW  Elec       q    Type
                         _______ _______ _______ _____ _____    ______ ____

>  <TORSDO>
F 2

$$$$
=
 OpenBabel10272413213D

 32 37  0  0  1  0  0  0  0  0999 V2000
  191.9770  176.4560  143.6460 C   0  0  0  0  0  2  0  0  0  0  0  0
  187.2850  178.2730  142.8220 C   0  0  0  0  0  0  0  0  0  0  0  0
  187.7000  177.7670  137.8870 C   0  0  0  0  0  2  0  0  0  0  0  0
  186.4620  178.6280  137.7350 C   0  0  0  0  0  2  0  0  0  0  0  0
  184.9810  178.5340  143.8280 C   0  0  0  0  0  0  0  0  0  0  0  0
  183.6160  178.6690  143.5750 C   0  0  0  0  0  0  0  0  0  0  0  0
  189.3000  178.0860  144.2130 C   0  0  0  0  0  0  0  0  0  0  0  0
  189.4870  178.0310  141.8000 C   0  0  0  0  0  3  0  0  0  0  0  0
  181.7570  178.8360  142.4790 C   0  0  0  0  0  0  0  0  0  0  0  0
  191.5800  177.8360  143.1110 C   0  0  0  0  0  2  0  0  0  0  0  0
  188.4250  178.1700  139.1610 C   0  0  0  0  0  2  0  0  0  0  0  0
  188.0950  178.1660  141.6620 C   0  0  0  0  0  0  0  0  0  0  0  0
  187.5230  178.1940  140.3780 C   0  0  0  0  0  0  0  0  0  0  0  0
  185.3060  178.4540  141.3730 C   0  0  0  0  0  0  0  0  0  0  0  0
  181.5130  178.8870  143.7730 O   0  0  0  0  0  0  0  0  0  0  0  0
  191.1700  177.3420  145.8630 C   0  0  0  0  0  2  0  0  0  0  0  0
  190.0950  177.9980  143.0530 C   0  0  0  0  0  0  0  0  0  0  0  0
  182.6150  178.7880  144.4710 N   0  0  0  0  0  0  0  0  0  0  0  0
  189.8450  178.0790  145.6250 C   0  0  0  0  0  2  0  0  0  0  0  0
  191.3160  176.1040  144.9820 C   0  0  2  0  0  3  0  0  0  0  0  0
  185.4910  178.2950  138.8590 C   0  0  0  0  0  2  0  0  0  0  0  0
  186.1280  178.3500  140.2340 C   0  0  0  0  0  0  0  0  0  0  0  0
  183.9120  178.5920  141.1950 C   0  0  0  0  0  3  0  0  0  0  0  0
  187.9190  178.2310  144.0750 C   0  0  0  0  0  3  0  0  0  0  0  0
  185.4140  178.5180  145.2600 C   0  0  0  0  0  1  0  0  0  0  0  0
  180.7250  178.9200  141.4100 C   0  0  0  0  0  1  0  0  0  0  0  0
  185.8710  178.4210  142.6990 C   0  0  0  0  0  0  0  0  0  0  0  0
  183.1120  178.6950  142.3160 C   0  0  0  0  0  0  0  0  0  0  0  0
  192.1480  175.0430  145.6830 C   0  0  0  0  0  2  0  0  0  0  0  0
  192.1700  175.2770  147.1550 C   0  0  0  0  0  0  0  0  0  0  0  0
  193.3110  175.7880  147.7610 O   0  0  0  0  0  0  0  0  0  0  0  0
  191.1450  175.0420  147.8460 O   0  0  0  0  0  1  0  0  0  0  0  0
  1 20  1  0  0  0  0
  2 24  1  0  0  0  0
  3 11  1  0  0  0  0
  4  3  1  0  0  0  0
  4 21  1  0  0  0  0
  5 25  1  0  0  0  0
  6  5  1  0  0  0  0
  6 18  2  0  0  0  0
  7 19  1  0  0  0  0
  8 17  2  0  0  0  0
  9 15  1  0  0  0  0
 10  1  1  0  0  0  0
 11 13  1  0  0  0  0
 12  8  1  0  0  0  0
 12  2  2  0  0  0  0
 13 12  1  0  0  0  0
 14 27  1  0  0  0  0
 15 18  1  0  0  0  0
 17 10  1  0  0  0  0
 17  7  1  0  0  0  0
 19 16  1  0  0  0  0
 20 29  1  1  0  0  0
 20 16  1  0  0  0  0
 21 22  1  0  0  0  0
 22 13  2  0  0  0  0
 22 14  1  0  0  0  0
 23 14  2  0  0  0  0
 23 28  1  0  0  0  0
 24  7  2  0  0  0  0
 26  9  1  0  0  0  0
 27  2  1  0  0  0  0
 27  5  2  0  0  0  0
 28  9  2  0  0  0  0
 28  6  1  0  0  0  0
 29 30  1  0  0  0  0
 30 31  2  0  0  0  0
 30 32  1  0  0  0  0
M  END
>  <MODEL>
7

>  <REMARK>
 VINA RESULT:      -9.3      3.536      6.925
  Name = 
  2 active torsions:
  status: ('A' for Active; 'I' for Inactive)
    1  A    between atoms: C_1  and  C_10
    2  A    between atoms: C_10  and  C_24
                            x       y       z     vdW  Elec       q    Type
                         _______ _______ _______ _____ _____    ______ ____

>  <TORSDO>
F 2

$$$$
=
 OpenBabel10272413213D

 32 37  0  0  1  0  0  0  0  0999 V2000
  182.5080  178.2950  139.2960 C   0  0  0  0  0  2  0  0  0  0  0  0
  186.7610  178.1380  142.1040 C   0  0  0  0  0  0  0  0  0  0  0  0
  184.2320  178.4660  146.3800 C   0  0  0  0  0  2  0  0  0  0  0  0
  185.5410  178.7620  147.0840 C   0  0  0  0  0  2  0  0  0  0  0  0
  189.1490  177.3130  142.1640 C   0  0  0  0  0  0  0  0  0  0  0  0
  190.2150  176.9120  142.9690 C   0  0  0  0  0  0  0  0  0  0  0  0
  185.6000  178.6130  139.9930 C   0  0  0  0  0  0  0  0  0  0  0  0
  184.4570  178.9410  142.1020 C   0  0  0  0  0  3  0  0  0  0  0  0
  191.3590  176.4460  144.7470 C   0  0  0  0  0  0  0  0  0  0  0  0
  183.1970  179.4500  140.0300 C   0  0  0  0  0  2  0  0  0  0  0  0
  184.3220  178.9660  144.9460 C   0  0  0  0  0  2  0  0  0  0  0  0
  185.5910  178.5150  142.8130 C   0  0  0  0  0  0  0  0  0  0  0  0
  185.5540  178.4690  144.2180 C   0  0  0  0  0  0  0  0  0  0  0  0
  187.8670  177.6790  144.2520 C   0  0  0  0  0  0  0  0  0  0  0  0
  192.0980  176.2300  143.6760 O   0  0  0  0  0  0  0  0  0  0  0  0
  184.4260  178.4920  137.6730 C   0  0  0  0  0  2  0  0  0  0  0  0
  184.4510  179.0010  140.7100 C   0  0  0  0  0  0  0  0  0  0  0  0
  191.4390  176.5010  142.5790 N   0  0  0  0  0  0  0  0  0  0  0  0
  185.7190  178.6500  138.4840 C   0  0  0  0  0  2  0  0  0  0  0  0
  183.4330  177.5400  138.3360 C   0  0  2  0  0  3  0  0  0  0  0  0
  186.6410  177.9260  146.4480 C   0  0  0  0  0  2  0  0  0  0  0  0
  186.6970  178.0620  144.9380 C   0  0  0  0  0  0  0  0  0  0  0  0
  188.9880  177.2600  145.0020 C   0  0  0  0  0  3  0  0  0  0  0  0
  186.7290  178.2000  140.7000 C   0  0  0  0  0  3  0  0  0  0  0  0
  189.3640  177.2940  140.6840 C   0  0  0  0  0  1  0  0  0  0  0  0
  191.8060  176.2360  146.1510 C   0  0  0  0  0  1  0  0  0  0  0  0
  187.9240  177.7130  142.8120 C   0  0  0  0  0  0  0  0  0  0  0  0
  190.1320  176.8890  144.3230 C   0  0  0  0  0  0  0  0  0  0  0  0
  182.5910  176.8300  137.2900 C   0  0  0  0  0  2  0  0  0  0  0  0
  181.4710  177.7010  136.8340 C   0  0  0  0  0  0  0  0  0  0  0  0
  181.6230  179.0810  136.8220 O   0  0  0  0  0  1  0  0  0  0  0  0
  180.3970  177.1840  136.4290 O   0  0  0  0  0  0  0  0  0  0  0  0
  1 10  1  0  0  0  0
  2 27  1  0  0  0  0
  2 12  1  0  0  0  0
  3  4  1  0  0  0  0
  5 27  2  0  0  0  0
  5  6  1  0  0  0  0
  6 28  1  0  0  0  0
  7 24  1  0  0  0  0
  7 17  2  0  0  0  0
  8 12  2  0  0  0  0
  9 26  1  0  0  0  0
 10 17  1  0  0  0  0
 11  3  1  0  0  0  0
 12 13  1  0  0  0  0
 13 22  2  0  0  0  0
 13 11  1  0  0  0  0
 14 22  1  0  0  0  0
 14 23  2  0  0  0  0
 15  9  1  0  0  0  0
 16 20  1  0  0  0  0
 16 19  1  0  0  0  0
 17  8  1  0  0  0  0
 18  6  2  0  0  0  0
 18 15  1  0  0  0  0
 19  7  1  0  0  0  0
 20 29  1  6  0  0  0
 20  1  1  0  0  0  0
 21  4  1  0  0  0  0
 22 21  1  0  0  0  0
 24  2  2  0  0  0  0
 25  5  1  0  0  0  0
 27 14  1  0  0  0  0
 28  9  2  0  0  0  0
 28 23  1  0  0  0  0
 30 29  1  0  0  0  0
 31 30  1  0  0  0  0
 32 30  2  0  0  0  0
M  END
>  <MODEL>
8

>  <REMARK>
 VINA RESULT:      -9.2      3.248      4.582
  Name = 
  2 active torsions:
  status: ('A' for Active; 'I' for Inactive)
    1  A    between atoms: C_1  and  C_10
    2  A    between atoms: C_10  and  C_24
                            x       y       z     vdW  Elec       q    Type
                         _______ _______ _______ _____ _____    ______ ____

>  <TORSDO>
F 2

$$$$
