=
 OpenBabel10272400303D

 31 35  0  0  0  0  0  0  0  0999 V2000
  188.7820  177.2830  144.5100 C   0  0  0  0  0  0  0  0  0  0  0  0
  187.5450  177.7770  145.0180 C   0  0  0  0  0  0  0  0  0  0  0  0
  186.0940  178.5090  146.8750 C   0  0  0  0  0  0  0  0  0  0  0  0
  189.8560  177.0010  145.2810 C   0  0  0  0  0  0  0  0  0  0  0  0
  191.2160  176.7350  146.9300 C   0  0  0  0  0  0  0  0  0  0  0  0
  187.3610  177.9990  146.3300 C   0  0  0  0  0  3  0  0  0  0  0  0
  190.2050  176.5470  142.5190 C   0  0  0  0  0  0  0  0  0  0  0  0
  186.6460  177.8150  142.7520 C   0  0  0  0  0  3  0  0  0  0  0  0
  185.9720  178.7120  148.2080 F   0  0  0  0  0  0  0  0  0  0  0  0
  191.2360  176.2880  143.3360 C   0  0  0  0  0  3  0  0  0  0  0  0
  188.9230  177.0630  143.1050 C   0  0  0  0  0  0  0  0  0  0  0  0
  189.9980  177.1340  146.6920 N   0  0  0  0  0  0  0  0  0  0  0  0
  185.0660  178.7700  146.0700 C   0  0  0  0  0  3  0  0  0  0  0  0
  191.0500  176.5170  144.7270 N   0  0  0  0  0  0  0  0  0  0  0  0
  191.9580  176.3380  145.7650 N   0  0  0  0  0  2  0  0  0  0  0  0
  187.8510  177.3340  142.2520 C   0  0  0  0  0  3  0  0  0  0  0  0
  186.4820  178.0390  144.1180 C   0  0  0  0  0  0  0  0  0  0  0  0
  185.1450  178.5620  144.5840 C   0  0  0  0  0  2  0  0  0  0  0  0
  192.0550  177.8160  140.6170 O   0  0  0  0  0  0  0  0  0  0  0  0
  191.2180  176.9790  140.1880 C   0  0  0  0  0  0  0  0  0  0  0  0
  190.3040  176.3450  141.0990 N   0  0  0  0  0  2  0  0  0  0  0  0
  191.1800  175.8730  136.0320 C   0  0  0  0  0  0  0  0  0  0  0  0
  192.1190  175.7300  138.2520 C   0  0  0  0  0  3  0  0  0  0  0  0
  188.9370  178.2880  138.3150 Cl  0  0  0  0  0  0  0  0  0  0  0  0
  191.1920  175.4030  134.3470 Cl  0  0  0  0  0  0  0  0  0  0  0  0
  192.1310  175.3530  136.9080 C   0  0  0  0  0  3  0  0  0  0  0  0
  190.1960  177.1540  137.8460 C   0  0  0  0  0  0  0  0  0  0  0  0
  191.1610  176.6310  138.7460 C   0  0  0  0  0  0  0  0  0  0  0  0
  190.2190  176.7690  136.5000 C   0  0  0  0  0  3  0  0  0  0  0  0
  191.8080  176.7460  148.2950 C   0  0  0  0  0  2  0  0  0  0  0  0
  192.9170  175.7170  148.3830 C   0  0  0  0  0  1  0  0  0  0  0  0
  1  2  1  0  0  0  0
  1  4  2  0  0  0  0
  2  6  2  0  0  0  0
  3  9  1  0  0  0  0
  4 12  1  0  0  0  0
  5 30  1  0  0  0  0
  6  3  1  0  0  0  0
  7 11  1  0  0  0  0
  7 10  2  0  0  0  0
  8 17  2  0  0  0  0
 10 14  1  0  0  0  0
 11  1  1  0  0  0  0
 12  5  2  0  0  0  0
 13  3  2  0  0  0  0
 14  4  1  0  0  0  0
 14 15  1  0  0  0  0
 15  5  1  0  0  0  0
 16  8  1  0  0  0  0
 16 11  2  0  0  0  0
 17 18  1  0  0  0  0
 17  2  1  0  0  0  0
 18 13  1  0  0  0  0
 20 19  2  0  0  0  0
 20 21  1  0  0  0  0
 21  7  1  0  0  0  0
 22 29  2  0  0  0  0
 22 26  1  0  0  0  0
 23 28  1  0  0  0  0
 25 22  1  0  0  0  0
 26 23  2  0  0  0  0
 27 24  1  0  0  0  0
 27 28  2  0  0  0  0
 28 20  1  0  0  0  0
 29 27  1  0  0  0  0
 30 31  1  0  0  0  0
M  END
>  <MODEL>
1

>  <REMARK>
 VINA RESULT:     -10.4      0.000      0.000
  Name = 
  3 active torsions:
  status: ('A' for Active; 'I' for Inactive)
    1  A    between atoms: C_2  and  C_13
    2  A    between atoms: C_9  and  C_22
    3  A    between atoms: C_15  and  N_23
                            x       y       z     vdW  Elec       q    Type
                         _______ _______ _______ _____ _____    ______ ____

>  <TORSDO>
F 3

$$$$
=
 OpenBabel10272400303D

 31 35  0  0  1  0  0  0  0  0999 V2000
  188.5830  177.4960  144.2880 C   0  0  0  0  0  0  0  0  0  0  0  0
  189.2160  177.4120  145.5620 C   0  0  2  0  0  3  0  0  0  0  0  0
  189.2000  177.6510  148.0180 C   0  0  0  0  0  0  0  0  0  0  0  0
  187.3040  177.8940  144.1050 C   0  0  0  0  0  0  0  0  0  0  0  0
  185.2780  178.5680  144.3900 C   0  0  0  0  0  0  0  0  0  0  0  0
  188.5670  177.7300  146.6930 C   0  0  0  0  0  3  0  0  0  0  0  0
  188.7000  177.2140  141.7510 C   0  0  0  0  0  0  0  0  0  0  0  0
  191.2620  176.6460  144.4790 C   0  0  0  0  0  3  0  0  0  0  0  0
  188.4910  177.9860  149.1220 F   0  0  0  0  0  0  0  0  0  0  0  0
  187.4250  177.6140  141.6340 C   0  0  0  0  0  3  0  0  0  0  0  0
  189.3210  177.1450  143.1160 C   0  0  0  0  0  0  0  0  0  0  0  0
  186.3450  178.2860  145.0830 N   0  0  0  0  0  0  0  0  0  0  0  0
  190.4650  177.2530  148.1410 C   0  0  0  0  0  3  0  0  0  0  0  0
  186.7310  177.9570  142.8260 N   0  0  0  0  0  0  0  0  0  0  0  0
  185.4150  178.3860  142.9720 N   0  0  0  0  0  2  0  0  0  0  0  0
  190.6480  176.7260  143.2340 C   0  0  0  0  0  3  0  0  0  0  0  0
  190.5650  176.9820  145.6380 C   0  0  0  0  0  0  0  0  0  0  0  0
  191.2990  176.8690  146.9510 C   0  0  0  0  0  3  0  0  0  0  0  0
  189.2080  178.7800  139.3140 O   0  0  0  0  0  0  0  0  0  0  0  0
  189.7130  177.6310  139.4170 C   0  0  0  0  0  0  0  0  0  0  0  0
  189.4790  176.8470  140.5990 N   0  0  0  0  0  2  0  0  0  0  0  0
  192.0170  175.9950  136.1750 C   0  0  0  0  0  0  0  0  0  0  0  0
  189.9230  176.7360  137.1200 C   0  0  0  0  0  3  0  0  0  0  0  0
  192.8800  177.2220  139.8940 Cl  0  0  0  0  0  0  0  0  0  0  0  0
  192.9260  175.3280  134.8380 Cl  0  0  0  0  0  0  0  0  0  0  0  0
  190.6450  176.2040  136.0520 C   0  0  0  0  0  3  0  0  0  0  0  0
  191.9520  176.8540  138.4460 C   0  0  0  0  0  0  0  0  0  0  0  0
  190.5540  177.0700  138.3300 C   0  0  0  0  0  0  0  0  0  0  0  0
  192.6660  176.3190  137.3670 C   0  0  0  0  0  3  0  0  0  0  0  0
  184.0020  178.9910  145.0270 C   0  0  0  0  0  2  0  0  0  0  0  0
  182.8740  178.9190  144.0170 C   0  0  0  0  0  1  0  0  0  0  0  0
  1  2  1  0  0  0  0
  2 17  1  0  0  0  0
  2  6  1  6  0  0  0
  3 13  1  0  0  0  0
  3  9  1  0  0  0  0
  4  1  2  0  0  0  0
  4 12  1  0  0  0  0
  5 30  1  0  0  0  0
  5 12  2  0  0  0  0
  6  3  2  0  0  0  0
  7 11  1  0  0  0  0
  8 17  2  0  0  0  0
 10  7  2  0  0  0  0
 10 14  1  0  0  0  0
 11 16  2  0  0  0  0
 11  1  1  0  0  0  0
 14 15  1  0  0  0  0
 14  4  1  0  0  0  0
 15  5  1  0  0  0  0
 16  8  1  0  0  0  0
 17 18  1  0  0  0  0
 18 13  2  0  0  0  0
 19 20  2  0  0  0  0
 20 21  1  0  0  0  0
 21  7  1  0  0  0  0
 22 29  1  0  0  0  0
 23 28  2  0  0  0  0
 25 22  1  0  0  0  0
 26 22  2  0  0  0  0
 26 23  1  0  0  0  0
 27 24  1  0  0  0  0
 28 27  1  0  0  0  0
 28 20  1  0  0  0  0
 29 27  2  0  0  0  0
 31 30  1  0  0  0  0
M  END
>  <MODEL>
2

>  <REMARK>
 VINA RESULT:     -10.1      2.161      4.405
  Name = 
  3 active torsions:
  status: ('A' for Active; 'I' for Inactive)
    1  A    between atoms: C_2  and  C_13
    2  A    between atoms: C_9  and  C_22
    3  A    between atoms: C_15  and  N_23
                            x       y       z     vdW  Elec       q    Type
                         _______ _______ _______ _____ _____    ______ ____

>  <TORSDO>
F 3

$$$$
=
 OpenBabel10272400303D

 31 35  0  0  1  0  0  0  0  0999 V2000
  188.8980  177.5970  143.1050 C   0  0  0  0  0  0  0  0  0  0  0  0
  189.3090  177.3540  144.4490 C   0  0  2  0  0  3  0  0  0  0  0  0
  188.8750  177.2870  146.8770 C   0  0  0  0  0  0  0  0  0  0  0  0
  187.6600  178.0160  142.7580 C   0  0  0  0  0  0  0  0  0  0  0  0
  185.6030  178.6520  142.7760 C   0  0  0  0  0  0  0  0  0  0  0  0
  188.4720  177.5310  145.4840 C   0  0  0  0  0  3  0  0  0  0  0  0
  189.4460  177.6310  140.6100 C   0  0  0  0  0  0  0  0  0  0  0  0
  191.5230  176.7260  143.6430 C   0  0  0  0  0  3  0  0  0  0  0  0
  187.9830  177.4830  147.8770 F   0  0  0  0  0  0  0  0  0  0  0  0
  188.2020  178.0440  140.3290 C   0  0  0  0  0  3  0  0  0  0  0  0
  189.8300  177.3930  142.0410 C   0  0  0  0  0  0  0  0  0  0  0  0
  186.5430  178.2850  143.6000 N   0  0  0  0  0  0  0  0  0  0  0  0
  190.1090  176.8750  147.1630 C   0  0  0  0  0  3  0  0  0  0  0  0
  187.3100  178.2380  141.4180 N   0  0  0  0  0  0  0  0  0  0  0  0
  185.9810  178.6460  141.3900 N   0  0  0  0  0  2  0  0  0  0  0  0
  191.1260  176.9610  142.3310 C   0  0  0  0  0  3  0  0  0  0  0  0
  190.6340  176.9160  144.6990 C   0  0  0  0  0  0  0  0  0  0  0  0
  191.1390  176.6410  146.0940 C   0  0  0  0  0  3  0  0  0  0  0  0
  189.5210  175.4750  138.6100 O   0  0  0  0  0  0  0  0  0  0  0  0
  190.4310  176.3460  138.6030 C   0  0  0  0  0  0  0  0  0  0  0  0
  190.4160  177.4090  139.5700 N   0  0  0  0  0  2  0  0  0  0  0  0
  193.4970  176.1510  135.5940 C   0  0  0  0  0  0  0  0  0  0  0  0
  191.1910  175.9540  136.2820 C   0  0  0  0  0  3  0  0  0  0  0  0
  193.4600  176.9980  139.5130 Cl  0  0  0  0  0  0  0  0  0  0  0  0
  194.7210  176.0620  134.3460 Cl  0  0  0  0  0  0  0  0  0  0  0  0
  192.1650  175.8830  135.2850 C   0  0  0  0  0  3  0  0  0  0  0  0
  192.8870  176.5630  137.9080 C   0  0  0  0  0  0  0  0  0  0  0  0
  191.5270  176.2920  137.6030 C   0  0  0  0  0  0  0  0  0  0  0  0
  193.8540  176.4880  136.8990 C   0  0  0  0  0  3  0  0  0  0  0  0
  184.2290  178.9940  143.2340 C   0  0  0  0  0  2  0  0  0  0  0  0
  184.1240  178.8030  144.7330 C   0  0  0  0  0  1  0  0  0  0  0  0
  1  2  1  0  0  0  0
  2 17  1  0  0  0  0
  2  6  1  1  0  0  0
  3 13  1  0  0  0  0
  3  9  1  0  0  0  0
  4  1  2  0  0  0  0
  4 12  1  0  0  0  0
  5 30  1  0  0  0  0
  5 12  2  0  0  0  0
  6  3  2  0  0  0  0
  7 11  1  0  0  0  0
  8 17  2  0  0  0  0
 10  7  2  0  0  0  0
 10 14  1  0  0  0  0
 11 16  2  0  0  0  0
 11  1  1  0  0  0  0
 14  4  1  0  0  0  0
 15 14  1  0  0  0  0
 15  5  1  0  0  0  0
 16  8  1  0  0  0  0
 17 18  1  0  0  0  0
 18 13  2  0  0  0  0
 20 19  2  0  0  0  0
 20 21  1  0  0  0  0
 21  7  1  0  0  0  0
 22 29  1  0  0  0  0
 23 28  2  0  0  0  0
 25 22  1  0  0  0  0
 26 22  2  0  0  0  0
 26 23  1  0  0  0  0
 27 24  1  0  0  0  0
 28 27  1  0  0  0  0
 28 20  1  0  0  0  0
 29 27  2  0  0  0  0
 30 31  1  0  0  0  0
M  END
>  <MODEL>
3

>  <REMARK>
 VINA RESULT:      -9.8      2.503      4.538
  Name = 
  3 active torsions:
  status: ('A' for Active; 'I' for Inactive)
    1  A    between atoms: C_2  and  C_13
    2  A    between atoms: C_9  and  C_22
    3  A    between atoms: C_15  and  N_23
                            x       y       z     vdW  Elec       q    Type
                         _______ _______ _______ _____ _____    ______ ____

>  <TORSDO>
F 3

$$$$
=
 OpenBabel10272400303D

 31 35  0  0  1  0  0  0  0  0999 V2000
  188.7170  177.2940  144.6640 C   0  0  0  0  0  0  0  0  0  0  0  0
  187.8260  177.7450  145.6820 C   0  0  2  0  0  3  0  0  0  0  0  0
  187.2390  178.1120  148.0510 C   0  0  0  0  0  0  0  0  0  0  0  0
  189.9300  176.7490  144.9090 C   0  0  0  0  0  0  0  0  0  0  0  0
  191.7110  175.9830  145.8470 C   0  0  0  0  0  0  0  0  0  0  0  0
  188.1420  177.6540  146.9850 C   0  0  0  0  0  3  0  0  0  0  0  0
  189.2330  176.9580  142.1840 C   0  0  0  0  0  0  0  0  0  0  0  0
  186.2240  178.4060  143.9680 C   0  0  0  0  0  3  0  0  0  0  0  0
  187.6160  177.9930  149.3460 F   0  0  0  0  0  0  0  0  0  0  0  0
  190.4250  176.4270  142.4910 C   0  0  0  0  0  3  0  0  0  0  0  0
  188.3300  177.4140  143.2940 C   0  0  0  0  0  0  0  0  0  0  0  0
  190.5670  176.5220  146.1630 N   0  0  0  0  0  0  0  0  0  0  0  0
  186.0540  178.6420  147.7530 C   0  0  0  0  0  3  0  0  0  0  0  0
  190.7660  176.3230  143.8670 N   0  0  0  0  0  0  0  0  0  0  0  0
  191.9330  175.8250  144.4370 N   0  0  0  0  0  2  0  0  0  0  0  0
  187.0890  177.9690  142.9720 C   0  0  0  0  0  3  0  0  0  0  0  0
  186.5770  178.3020  145.3130 C   0  0  0  0  0  0  0  0  0  0  0  0
  185.5840  178.7980  146.3350 C   0  0  0  0  0  3  0  0  0  0  0  0
  190.8450  177.6610  139.8270 O   0  0  0  0  0  0  0  0  0  0  0  0
  189.6130  177.4470  139.6820 C   0  0  0  0  0  0  0  0  0  0  0  0
  188.8040  177.1020  140.8190 N   0  0  0  0  0  2  0  0  0  0  0  0
  187.6360  177.7910  135.8780 C   0  0  0  0  0  0  0  0  0  0  0  0
  187.6620  178.0370  138.2790 C   0  0  0  0  0  3  0  0  0  0  0  0
  191.2600  176.5430  137.0560 Cl  0  0  0  0  0  0  0  0  0  0  0  0
  186.8040  177.9430  134.3460 Cl  0  0  0  0  0  0  0  0  0  0  0  0
  186.9960  178.1590  137.0590 C   0  0  0  0  0  3  0  0  0  0  0  0
  189.6200  177.1730  137.1350 C   0  0  0  0  0  0  0  0  0  0  0  0
  188.9760  177.5450  138.3440 C   0  0  0  0  0  0  0  0  0  0  0  0
  188.9410  177.3000  135.9170 C   0  0  0  0  0  3  0  0  0  0  0  0
  192.7280  175.6130  146.8680 C   0  0  0  0  0  2  0  0  0  0  0  0
  192.3220  176.1630  148.2200 C   0  0  0  0  0  1  0  0  0  0  0  0
  1  4  2  0  0  0  0
  1  2  1  0  0  0  0
  2  6  1  1  0  0  0
  3  9  1  0  0  0  0
  4 12  1  0  0  0  0
  5 12  2  0  0  0  0
  5 30  1  0  0  0  0
  6  3  2  0  0  0  0
  7 10  2  0  0  0  0
  7 11  1  0  0  0  0
  8 17  2  0  0  0  0
 10 14  1  0  0  0  0
 11  1  1  0  0  0  0
 13  3  1  0  0  0  0
 14 15  1  0  0  0  0
 14  4  1  0  0  0  0
 15  5  1  0  0  0  0
 16 11  2  0  0  0  0
 16  8  1  0  0  0  0
 17  2  1  0  0  0  0
 17 18  1  0  0  0  0
 18 13  2  0  0  0  0
 20 19  2  0  0  0  0
 20 21  1  0  0  0  0
 21  7  1  0  0  0  0
 22 29  2  0  0  0  0
 22 26  1  0  0  0  0
 23 28  1  0  0  0  0
 24 27  1  0  0  0  0
 25 22  1  0  0  0  0
 26 23  2  0  0  0  0
 27 28  2  0  0  0  0
 28 20  1  0  0  0  0
 29 27  1  0  0  0  0
 30 31  1  0  0  0  0
M  END
>  <MODEL>
4

>  <REMARK>
 VINA RESULT:      -9.6      1.716      2.297
  Name = 
  3 active torsions:
  status: ('A' for Active; 'I' for Inactive)
    1  A    between atoms: C_2  and  C_13
    2  A    between atoms: C_9  and  C_22
    3  A    between atoms: C_15  and  N_23
                            x       y       z     vdW  Elec       q    Type
                         _______ _______ _______ _____ _____    ______ ____

>  <TORSDO>
F 3

$$$$
=
 OpenBabel10272400303D

 31 35  0  0  0  0  0  0  0  0999 V2000
  187.2000  178.2910  139.3060 C   0  0  0  0  0  0  0  0  0  0  0  0
  187.7700  178.0500  138.0210 C   0  0  0  0  0  0  0  0  0  0  0  0
  187.6320  177.9960  135.5580 C   0  0  0  0  0  0  0  0  0  0  0  0
  185.9340  178.7200  139.5030 C   0  0  0  0  0  0  0  0  0  0  0  0
  183.9050  179.3940  139.2390 C   0  0  0  0  0  0  0  0  0  0  0  0
  187.0650  178.2380  136.8930 C   0  0  0  0  0  3  0  0  0  0  0  0
  187.4450  178.3150  141.8500 C   0  0  0  0  0  0  0  0  0  0  0  0
  189.8630  177.3960  139.0860 C   0  0  0  0  0  3  0  0  0  0  0  0
  186.8700  178.2050  134.4590 F   0  0  0  0  0  0  0  0  0  0  0  0
  186.1810  178.7430  141.9800 C   0  0  0  0  0  3  0  0  0  0  0  0
  187.9950  178.0730  140.4740 C   0  0  0  0  0  0  0  0  0  0  0  0
  184.9360  179.0240  138.5320 N   0  0  0  0  0  0  0  0  0  0  0  0
  188.8870  177.5730  135.4210 C   0  0  0  0  0  3  0  0  0  0  0  0
  185.4260  178.9410  140.7920 N   0  0  0  0  0  0  0  0  0  0  0  0
  184.1140  179.3840  140.6600 N   0  0  0  0  0  2  0  0  0  0  0  0
  189.3130  177.6300  140.3410 C   0  0  0  0  0  3  0  0  0  0  0  0
  189.1100  177.6000  137.9310 C   0  0  0  0  0  0  0  0  0  0  0  0
  189.7780  177.3240  136.6060 C   0  0  0  0  0  2  0  0  0  0  0  0
  187.9260  175.7970  143.2900 O   0  0  0  0  0  0  0  0  0  0  0  0
  188.5010  176.8450  143.6850 C   0  0  0  0  0  0  0  0  0  0  0  0
  188.2810  178.0880  142.9970 N   0  0  0  0  0  2  0  0  0  0  0  0
  191.2580  176.7280  146.9840 C   0  0  0  0  0  0  0  0  0  0  0  0
  190.7620  176.5060  144.6320 C   0  0  0  0  0  3  0  0  0  0  0  0
  187.3380  177.4940  146.6270 Cl  0  0  0  0  0  0  0  0  0  0  0  0
  192.4050  176.6720  148.3040 Cl  0  0  0  0  0  0  0  0  0  0  0  0
  191.6780  176.4600  145.6820 C   0  0  0  0  0  3  0  0  0  0  0  0
  188.9920  177.0890  146.1880 C   0  0  0  0  0  0  0  0  0  0  0  0
  189.4110  176.8180  144.8590 C   0  0  0  0  0  0  0  0  0  0  0  0
  189.9220  177.0400  147.2330 C   0  0  0  0  0  3  0  0  0  0  0  0
  182.6310  179.8440  138.6160 C   0  0  0  0  0  2  0  0  0  0  0  0
  182.0560  178.7330  137.7610 C   0  0  0  0  0  1  0  0  0  0  0  0
  1  4  2  0  0  0  0
  1 11  1  0  0  0  0
  2  1  1  0  0  0  0
  3  6  1  0  0  0  0
  4 14  1  0  0  0  0
  5 15  1  0  0  0  0
  6  2  2  0  0  0  0
  7 10  2  0  0  0  0
  7 21  1  0  0  0  0
  8 16  1  0  0  0  0
  9  3  1  0  0  0  0
 11  7  1  0  0  0  0
 12  5  2  0  0  0  0
 12  4  1  0  0  0  0
 13  3  2  0  0  0  0
 13 18  1  0  0  0  0
 14 10  1  0  0  0  0
 15 14  1  0  0  0  0
 16 11  2  0  0  0  0
 17  2  1  0  0  0  0
 17  8  2  0  0  0  0
 18 17  1  0  0  0  0
 19 20  2  0  0  0  0
 20 28  1  0  0  0  0
 21 20  1  0  0  0  0
 22 29  1  0  0  0  0
 22 25  1  0  0  0  0
 23 28  2  0  0  0  0
 23 26  1  0  0  0  0
 26 22  2  0  0  0  0
 27 24  1  0  0  0  0
 27 29  2  0  0  0  0
 28 27  1  0  0  0  0
 30  5  1  0  0  0  0
 31 30  1  0  0  0  0
M  END
>  <MODEL>
5

>  <REMARK>
 VINA RESULT:      -9.6      4.814      8.938
  Name = 
  3 active torsions:
  status: ('A' for Active; 'I' for Inactive)
    1  A    between atoms: C_2  and  C_13
    2  A    between atoms: C_9  and  C_22
    3  A    between atoms: C_15  and  N_23
                            x       y       z     vdW  Elec       q    Type
                         _______ _______ _______ _____ _____    ______ ____

>  <TORSDO>
F 3

$$$$
=
 OpenBabel10272400303D

 31 35  0  0  0  0  0  0  0  0999 V2000
  187.2250  178.2870  139.2580 C   0  0  0  0  0  0  0  0  0  0  0  0
  187.7720  178.0470  137.9630 C   0  0  0  0  0  0  0  0  0  0  0  0
  187.5900  177.9860  135.5030 C   0  0  0  0  0  0  0  0  0  0  0  0
  185.9580  178.7060  139.4760 C   0  0  0  0  0  0  0  0  0  0  0  0
  183.9200  179.3620  139.2480 C   0  0  0  0  0  0  0  0  0  0  0  0
  187.0460  178.2270  136.8480 C   0  0  0  0  0  3  0  0  0  0  0  0
  187.5150  178.3200  141.7960 C   0  0  0  0  0  0  0  0  0  0  0  0
  189.8900  177.4130  138.9910 C   0  0  0  0  0  3  0  0  0  0  0  0
  186.8060  178.1860  134.4170 F   0  0  0  0  0  0  0  0  0  0  0  0
  186.2500  178.7380  141.9480 C   0  0  0  0  0  3  0  0  0  0  0  0
  188.0420  178.0790  140.4110 C   0  0  0  0  0  0  0  0  0  0  0  0
  184.9410  178.9990  138.5240 N   0  0  0  0  0  0  0  0  0  0  0  0
  188.8460  177.5730  135.3450 C   0  0  0  0  0  3  0  0  0  0  0  0
  185.4720  178.9270  140.7740 N   0  0  0  0  0  0  0  0  0  0  0  0
  184.1550  179.3590  140.6650 N   0  0  0  0  0  2  0  0  0  0  0  0
  189.3610  177.6460  140.2560 C   0  0  0  0  0  3  0  0  0  0  0  0
  189.1150  177.6080  137.8490 C   0  0  0  0  0  0  0  0  0  0  0  0
  189.7600  177.3340  136.5130 C   0  0  0  0  0  2  0  0  0  0  0  0
  187.9800  175.8270  143.2860 O   0  0  0  0  0  0  0  0  0  0  0  0
  188.5850  176.8720  143.6410 C   0  0  0  0  0  0  0  0  0  0  0  0
  188.3740  178.1020  142.9290 N   0  0  0  0  0  2  0  0  0  0  0  0
  191.1730  176.8480  147.0770 C   0  0  0  0  0  0  0  0  0  0  0  0
  188.9890  177.0760  146.0740 C   0  0  0  0  0  3  0  0  0  0  0  0
  191.7280  176.3290  143.1400 Cl  0  0  0  0  0  0  0  0  0  0  0  0
  192.1980  176.8450  148.4940 Cl  0  0  0  0  0  0  0  0  0  0  0  0
  189.8040  177.0750  147.2060 C   0  0  0  0  0  3  0  0  0  0  0  0
  190.9170  176.6230  144.6720 C   0  0  0  0  0  0  0  0  0  0  0  0
  189.5220  176.8530  144.7940 C   0  0  0  0  0  0  0  0  0  0  0  0
  191.7250  176.6240  145.8160 C   0  0  0  0  0  3  0  0  0  0  0  0
  182.6310  179.8000  138.6470 C   0  0  0  0  0  2  0  0  0  0  0  0
  182.0350  178.6720  137.8300 C   0  0  0  0  0  1  0  0  0  0  0  0
  1  4  2  0  0  0  0
  1 11  1  0  0  0  0
  2  1  1  0  0  0  0
  3  6  1  0  0  0  0
  4 14  1  0  0  0  0
  5 15  1  0  0  0  0
  6  2  2  0  0  0  0
  7 10  2  0  0  0  0
  7 21  1  0  0  0  0
  8 16  1  0  0  0  0
  9  3  1  0  0  0  0
 11  7  1  0  0  0  0
 12  5  2  0  0  0  0
 12  4  1  0  0  0  0
 13  3  2  0  0  0  0
 13 18  1  0  0  0  0
 14 10  1  0  0  0  0
 15 14  1  0  0  0  0
 16 11  2  0  0  0  0
 17  2  1  0  0  0  0
 17  8  2  0  0  0  0
 18 17  1  0  0  0  0
 19 20  2  0  0  0  0
 20 28  1  0  0  0  0
 21 20  1  0  0  0  0
 22 26  1  0  0  0  0
 22 25  1  0  0  0  0
 23 26  2  0  0  0  0
 24 27  1  0  0  0  0
 27 28  2  0  0  0  0
 27 29  1  0  0  0  0
 28 23  1  0  0  0  0
 29 22  2  0  0  0  0
 30  5  1  0  0  0  0
 31 30  1  0  0  0  0
M  END
>  <MODEL>
6

>  <REMARK>
 VINA RESULT:      -9.5      4.687      8.916
  Name = 
  3 active torsions:
  status: ('A' for Active; 'I' for Inactive)
    1  A    between atoms: C_2  and  C_13
    2  A    between atoms: C_9  and  C_22
    3  A    between atoms: C_15  and  N_23
                            x       y       z     vdW  Elec       q    Type
                         _______ _______ _______ _____ _____    ______ ____

>  <TORSDO>
F 3

$$$$
=
 OpenBabel10272400303D

 31 35  0  0  1  0  0  0  0  0999 V2000
  185.7630  178.4510  140.4570 C   0  0  0  0  0  0  0  0  0  0  0  0
  184.3500  178.6220  140.5270 C   0  0  2  0  0  3  0  0  0  0  0  0
  182.1430  178.9380  139.4680 C   0  0  0  0  0  0  0  0  0  0  0  0
  186.4640  178.4140  139.3010 C   0  0  0  0  0  0  0  0  0  0  0  0
  187.0530  178.4190  137.2300 C   0  0  0  0  0  0  0  0  0  0  0  0
  183.6020  178.7610  139.4200 C   0  0  0  0  0  3  0  0  0  0  0  0
  188.0000  178.1230  141.6490 C   0  0  0  0  0  0  0  0  0  0  0  0
  184.4690  178.5060  142.9590 C   0  0  0  0  0  3  0  0  0  0  0  0
  181.4460  179.0720  138.3150 F   0  0  0  0  0  0  0  0  0  0  0  0
  188.6380  178.0920  140.4700 C   0  0  0  0  0  3  0  0  0  0  0  0
  186.5100  178.3090  141.6670 C   0  0  0  0  0  0  0  0  0  0  0  0
  185.9810  178.5180  137.9650 N   0  0  0  0  0  0  0  0  0  0  0  0
  181.5030  178.9680  140.6350 C   0  0  0  0  0  3  0  0  0  0  0  0
  187.8560  178.2420  139.2920 N   0  0  0  0  0  0  0  0  0  0  0  0
  188.2730  178.2350  137.9660 N   0  0  0  0  0  2  0  0  0  0  0  0
  185.8480  178.3390  142.8970 C   0  0  0  0  0  3  0  0  0  0  0  0
  183.7170  178.6470  141.7950 C   0  0  0  0  0  0  0  0  0  0  0  0
  182.2260  178.8250  141.9450 C   0  0  0  0  0  3  0  0  0  0  0  0
  188.2510  175.7340  143.3450 O   0  0  0  0  0  0  0  0  0  0  0  0
  188.8190  176.7990  143.7030 C   0  0  0  0  0  0  0  0  0  0  0  0
  188.7110  177.9790  142.8910 N   0  0  0  0  0  2  0  0  0  0  0  0
  191.2320  176.9140  147.2620 C   0  0  0  0  0  0  0  0  0  0  0  0
  190.9670  176.5100  144.8960 C   0  0  0  0  0  3  0  0  0  0  0  0
  187.3830  177.6930  146.4530 Cl  0  0  0  0  0  0  0  0  0  0  0  0
  192.2400  176.9500  148.6910 Cl  0  0  0  0  0  0  0  0  0  0  0  0
  191.7740  176.5380  146.0340 C   0  0  0  0  0  3  0  0  0  0  0  0
  189.0640  177.2360  146.2160 C   0  0  0  0  0  0  0  0  0  0  0  0
  189.6070  176.8550  144.9610 C   0  0  0  0  0  0  0  0  0  0  0  0
  189.8840  177.2600  147.3500 C   0  0  0  0  0  3  0  0  0  0  0  0
  187.0060  178.4380  135.7430 C   0  0  0  0  0  2  0  0  0  0  0  0
  186.1960  177.2610  135.2390 C   0  0  0  0  0  1  0  0  0  0  0  0
  1  2  1  0  0  0  0
  1 11  1  0  0  0  0
  2  6  1  1  0  0  0
  2 17  1  0  0  0  0
  3 13  1  0  0  0  0
  4  1  2  0  0  0  0
  5 12  2  0  0  0  0
  5 15  1  0  0  0  0
  6  3  2  0  0  0  0
  7 11  1  0  0  0  0
  7 21  1  0  0  0  0
  9  3  1  0  0  0  0
 10  7  2  0  0  0  0
 11 16  2  0  0  0  0
 12  4  1  0  0  0  0
 13 18  2  0  0  0  0
 14  4  1  0  0  0  0
 14 10  1  0  0  0  0
 15 14  1  0  0  0  0
 16  8  1  0  0  0  0
 17 18  1  0  0  0  0
 17  8  2  0  0  0  0
 19 20  2  0  0  0  0
 20 28  1  0  0  0  0
 21 20  1  0  0  0  0
 22 29  1  0  0  0  0
 22 25  1  0  0  0  0
 23 28  2  0  0  0  0
 23 26  1  0  0  0  0
 26 22  2  0  0  0  0
 27 24  1  0  0  0  0
 27 29  2  0  0  0  0
 28 27  1  0  0  0  0
 30  5  1  0  0  0  0
 31 30  1  0  0  0  0
M  END
>  <MODEL>
7

>  <REMARK>
 VINA RESULT:      -9.4      4.435      8.091
  Name = 
  3 active torsions:
  status: ('A' for Active; 'I' for Inactive)
    1  A    between atoms: C_2  and  C_13
    2  A    between atoms: C_9  and  C_22
    3  A    between atoms: C_15  and  N_23
                            x       y       z     vdW  Elec       q    Type
                         _______ _______ _______ _____ _____    ______ ____

>  <TORSDO>
F 3

$$$$
=
 OpenBabel10272400303D

 31 35  0  0  0  0  0  0  0  0999 V2000
  187.6460  177.7030  143.6550 C   0  0  0  0  0  0  0  0  0  0  0  0
  186.3020  178.1650  143.7640 C   0  0  0  0  0  0  0  0  0  0  0  0
  184.3540  178.8910  145.0940 C   0  0  0  0  0  0  0  0  0  0  0  0
  188.4560  177.4790  144.7140 C   0  0  0  0  0  0  0  0  0  0  0  0
  189.2840  177.3040  146.6940 C   0  0  0  0  0  0  0  0  0  0  0  0
  185.7380  178.4140  144.9580 C   0  0  0  0  0  3  0  0  0  0  0  0
  189.6060  176.9680  142.1890 C   0  0  0  0  0  0  0  0  0  0  0  0
  186.1000  178.1140  141.3350 C   0  0  0  0  0  3  0  0  0  0  0  0
  183.8440  179.1250  146.3260 F   0  0  0  0  0  0  0  0  0  0  0  0
  190.3610  176.7670  143.2780 C   0  0  0  0  0  3  0  0  0  0  0  0
  188.1950  177.4530  142.3590 C   0  0  0  0  0  0  0  0  0  0  0  0
  188.1780  177.6530  146.1000 N   0  0  0  0  0  0  0  0  0  0  0  0
  183.5980  179.0950  144.0160 C   0  0  0  0  0  3  0  0  0  0  0  0
  189.7730  177.0240  144.5470 N   0  0  0  0  0  0  0  0  0  0  0  0
  190.3430  176.9040  145.8090 N   0  0  0  0  0  2  0  0  0  0  0  0
  187.4110  177.6640  141.2230 C   0  0  0  0  0  3  0  0  0  0  0  0
  185.5400  178.3660  142.5860 C   0  0  0  0  0  0  0  0  0  0  0  0
  184.1120  178.8520  142.6250 C   0  0  0  0  0  2  0  0  0  0  0  0
  192.0630  178.0280  140.9680 O   0  0  0  0  0  0  0  0  0  0  0  0
  191.3250  177.2640  140.2910 C   0  0  0  0  0  0  0  0  0  0  0  0
  190.1200  176.7340  140.8660 N   0  0  0  0  0  2  0  0  0  0  0  0
  192.5170  176.1790  136.3040 C   0  0  0  0  0  0  0  0  0  0  0  0
  193.0170  176.5380  138.6380 C   0  0  0  0  0  3  0  0  0  0  0  0
  189.0620  177.3190  137.9890 Cl  0  0  0  0  0  0  0  0  0  0  0  0
  193.0340  175.7320  134.6930 Cl  0  0  0  0  0  0  0  0  0  0  0  0
  193.4320  176.1810  137.3550 C   0  0  0  0  0  3  0  0  0  0  0  0
  190.7600  176.8930  137.8200 C   0  0  0  0  0  0  0  0  0  0  0  0
  191.6840  176.8990  138.8970 C   0  0  0  0  0  0  0  0  0  0  0  0
  191.1890  176.5330  136.5370 C   0  0  0  0  0  3  0  0  0  0  0  0
  189.4520  177.3710  148.1710 C   0  0  0  0  0  2  0  0  0  0  0  0
  188.2440  178.0380  148.7960 C   0  0  0  0  0  1  0  0  0  0  0  0
  1  2  1  0  0  0  0
  1  4  2  0  0  0  0
  2  6  2  0  0  0  0
  3  9  1  0  0  0  0
  4 12  1  0  0  0  0
  5 30  1  0  0  0  0
  6  3  1  0  0  0  0
  7 11  1  0  0  0  0
  7 10  2  0  0  0  0
  8 17  2  0  0  0  0
 10 14  1  0  0  0  0
 11  1  1  0  0  0  0
 12  5  2  0  0  0  0
 13  3  2  0  0  0  0
 14  4  1  0  0  0  0
 14 15  1  0  0  0  0
 15  5  1  0  0  0  0
 16  8  1  0  0  0  0
 16 11  2  0  0  0  0
 17 18  1  0  0  0  0
 17  2  1  0  0  0  0
 18 13  1  0  0  0  0
 20 21  1  0  0  0  0
 20 19  2  0  0  0  0
 21  7  1  0  0  0  0
 22 29  2  0  0  0  0
 22 26  1  0  0  0  0
 23 28  1  0  0  0  0
 25 22  1  0  0  0  0
 26 23  2  0  0  0  0
 27 24  1  0  0  0  0
 27 28  2  0  0  0  0
 28 20  1  0  0  0  0
 29 27  1  0  0  0  0
 30 31  1  0  0  0  0
M  END
>  <MODEL>
8

>  <REMARK>
 VINA RESULT:      -9.2      1.472      1.867
  Name = 
  3 active torsions:
  status: ('A' for Active; 'I' for Inactive)
    1  A    between atoms: C_2  and  C_13
    2  A    between atoms: C_9  and  C_22
    3  A    between atoms: C_15  and  N_23
                            x       y       z     vdW  Elec       q    Type
                         _______ _______ _______ _____ _____    ______ ____

>  <TORSDO>
F 3

$$$$
=
 OpenBabel10272400303D

 31 35  0  0  0  0  0  0  0  0999 V2000
  187.5730  178.1400  142.7540 C   0  0  0  0  0  0  0  0  0  0  0  0
  188.9250  177.7690  142.4960 C   0  0  0  0  0  0  0  0  0  0  0  0
  191.1710  177.0770  143.2480 C   0  0  0  0  0  0  0  0  0  0  0  0
  187.0340  178.2150  143.9910 C   0  0  0  0  0  0  0  0  0  0  0  0
  186.7030  178.1630  146.1190 C   0  0  0  0  0  0  0  0  0  0  0  0
  189.7730  177.4620  143.4910 C   0  0  0  0  0  3  0  0  0  0  0  0
  185.2820  178.8500  141.8740 C   0  0  0  0  0  0  0  0  0  0  0  0
  188.5290  178.0380  140.1050 C   0  0  0  0  0  3  0  0  0  0  0  0
  191.9770  176.7790  144.2950 F   0  0  0  0  0  0  0  0  0  0  0  0
  184.8040  178.9040  143.1260 C   0  0  0  0  0  3  0  0  0  0  0  0
  186.7140  178.4570  141.6570 C   0  0  0  0  0  0  0  0  0  0  0  0
  187.6490  177.9460  145.2480 N   0  0  0  0  0  0  0  0  0  0  0  0
  191.6520  177.0200  142.0070 C   0  0  0  0  0  3  0  0  0  0  0  0
  185.6950  178.5850  144.1870 N   0  0  0  0  0  0  0  0  0  0  0  0
  185.4430  178.5580  145.5540 N   0  0  0  0  0  2  0  0  0  0  0  0
  187.2090  178.3990  140.3520 C   0  0  0  0  0  3  0  0  0  0  0  0
  189.3880  177.7230  141.1570 C   0  0  0  0  0  0  0  0  0  0  0  0
  190.8050  177.3400  140.8080 C   0  0  0  0  0  2  0  0  0  0  0  0
  183.1860  177.1950  140.6430 O   0  0  0  0  0  0  0  0  0  0  0  0
  183.4320  178.3300  140.1560 C   0  0  0  0  0  0  0  0  0  0  0  0
  184.4520  179.1570  140.7410 N   0  0  0  0  0  2  0  0  0  0  0  0
  181.2130  179.9170  136.8310 C   0  0  0  0  0  0  0  0  0  0  0  0
  182.0340  180.0740  139.0960 C   0  0  0  0  0  3  0  0  0  0  0  0
  183.3280  176.5680  137.4520 Cl  0  0  0  0  0  0  0  0  0  0  0  0
  180.3020  180.5910  135.4980 Cl  0  0  0  0  0  0  0  0  0  0  0  0
  181.3070  180.6140  138.0350 C   0  0  0  0  0  3  0  0  0  0  0  0
  182.5770  178.1300  137.7490 C   0  0  0  0  0  0  0  0  0  0  0  0
  182.6790  178.8320  138.9780 C   0  0  0  0  0  0  0  0  0  0  0  0
  181.8450  178.6820  136.6910 C   0  0  0  0  0  3  0  0  0  0  0  0
  186.9020  177.9610  147.5790 C   0  0  0  0  0  2  0  0  0  0  0  0
  188.3830  177.9470  147.9000 C   0  0  0  0  0  1  0  0  0  0  0  0
  1  4  2  0  0  0  0
  2  1  1  0  0  0  0
  2  6  2  0  0  0  0
  3  6  1  0  0  0  0
  3  9  1  0  0  0  0
  4 14  1  0  0  0  0
  4 12  1  0  0  0  0
  5 30  1  0  0  0  0
  7 10  2  0  0  0  0
  8 16  1  0  0  0  0
  8 17  2  0  0  0  0
 10 14  1  0  0  0  0
 11  7  1  0  0  0  0
 11  1  1  0  0  0  0
 12  5  2  0  0  0  0
 13  3  2  0  0  0  0
 14 15  1  0  0  0  0
 15  5  1  0  0  0  0
 16 11  2  0  0  0  0
 17  2  1  0  0  0  0
 18 17  1  0  0  0  0
 18 13  1  0  0  0  0
 20 19  2  0  0  0  0
 20 21  1  0  0  0  0
 21  7  1  0  0  0  0
 22 26  1  0  0  0  0
 24 27  1  0  0  0  0
 25 22  1  0  0  0  0
 26 23  2  0  0  0  0
 27 28  2  0  0  0  0
 28 23  1  0  0  0  0
 28 20  1  0  0  0  0
 29 22  2  0  0  0  0
 29 27  1  0  0  0  0
 30 31  1  0  0  0  0
M  END
>  <MODEL>
9

>  <REMARK>
 VINA RESULT:      -8.6      4.789      6.930
  Name = 
  3 active torsions:
  status: ('A' for Active; 'I' for Inactive)
    1  A    between atoms: C_2  and  C_13
    2  A    between atoms: C_9  and  C_22
    3  A    between atoms: C_15  and  N_23
                            x       y       z     vdW  Elec       q    Type
                         _______ _______ _______ _____ _____    ______ ____

>  <TORSDO>
F 3

$$$$
