=
 OpenBabel10272400533D

 25 28  0  0  1  0  0  0  0  0999 V2000
  187.5720  177.9410  142.9710 N   0  0  0  0  0  0  0  0  0  0  0  0
  187.3680  177.8050  144.3850 C   0  0  0  0  0  0  0  0  0  0  0  0
  185.3110  178.6860  142.6160 C   0  0  0  0  0  3  0  0  0  0  0  0
  188.7530  177.6630  142.1530 C   0  0  0  0  0  0  0  0  0  0  0  0
  189.0940  178.6870  139.7030 C   0  0  0  0  0  2  0  0  0  0  0  0
  185.0750  178.5820  144.0780 C   0  0  0  0  0  3  0  0  0  0  0  0
  188.2270  178.0120  140.7410 C   0  0  0  0  0  0  0  0  0  0  0  0
  188.6440  177.2390  139.5100 C   0  0  0  0  0  2  0  0  0  0  0  0
  185.7840  178.1130  146.4050 C   0  0  2  0  0  3  0  0  0  0  0  0
  185.5460  179.4500  146.9210 N   0  0  0  0  0  1  0  0  0  0  0  0
  188.3120  177.3310  145.1950 C   0  0  0  0  0  3  0  0  0  0  0  0
  189.9100  178.5570  142.5730 C   0  0  0  0  0  1  0  0  0  0  0  0
  186.5140  178.3760  142.1290 C   0  0  0  0  0  0  0  0  0  0  0  0
  186.8720  178.4290  140.7960 O   0  0  0  0  0  0  0  0  0  0  0  0
  186.8950  177.4990  147.1460 N   0  0  0  0  0  0  0  0  0  0  0  0
  189.1450  176.1960  142.2680 C   0  0  0  0  0  1  0  0  0  0  0  0
  188.0450  177.1590  146.6320 C   0  0  0  0  0  0  0  0  0  0  0  0
  186.0400  178.1740  144.9220 C   0  0  0  0  0  0  0  0  0  0  0  0
  189.0470  176.6090  147.4340 O   0  0  0  0  0  0  0  0  0  0  0  0
  190.2700  177.2840  147.6870 C   0  0  0  0  0  2  0  0  0  0  0  0
  191.3950  176.5290  147.0670 C   0  0  0  0  0  0  0  0  0  0  0  0
  192.0330  175.6920  147.7600 O   0  0  0  0  0  0  0  0  0  0  0  0
  191.7350  176.7280  145.6530 C   0  0  0  0  0  0  0  0  0  0  0  0
  191.8620  175.6360  144.8030 O   0  0  0  0  0  0  0  0  0  0  0  0
  191.9150  177.8890  145.2010 O   0  0  0  0  0  1  0  0  0  0  0  0
  1  2  1  0  0  0  0
  2 18  1  0  0  0  0
  2 11  2  0  0  0  0
  3  6  1  0  0  0  0
  4 16  1  0  0  0  0
  4 12  1  0  0  0  0
  4  1  1  0  0  0  0
  5  7  1  0  0  0  0
  6 18  2  0  0  0  0
  7 14  1  0  0  0  0
  7  4  1  0  0  0  0
  8  5  1  0  0  0  0
  8  7  1  0  0  0  0
  9 10  1  1  0  0  0
  9 15  1  0  0  0  0
 11 17  1  0  0  0  0
 13  3  2  0  0  0  0
 13  1  1  0  0  0  0
 14 13  1  0  0  0  0
 17 15  2  0  0  0  0
 17 19  1  0  0  0  0
 18  9  1  0  0  0  0
 19 20  1  0  0  0  0
 21 20  1  0  0  0  0
 21 22  2  0  0  0  0
 23 21  1  0  0  0  0
 24 23  2  0  0  0  0
 25 23  1  0  0  0  0
M  END
>  <MODEL>
1

>  <REMARK>
 VINA RESULT:      -8.4      0.000      0.000
  Name = 
  4 active torsions:
  status: ('A' for Active; 'I' for Inactive)
    1  A    between atoms: C_2  and  C_21
    2  A    between atoms: O_6  and  C_15
    3  A    between atoms: O_6  and  C_23
    4  A    between atoms: C_15  and  C_21
                            x       y       z     vdW  Elec       q    Type
                         _______ _______ _______ _____ _____    ______ ____

>  <TORSDO>
F 4

$$$$
=
 OpenBabel10272400533D

 25 28  0  0  1  0  0  0  0  0999 V2000
  188.4170  177.5860  145.0000 N   0  0  0  0  0  0  0  0  0  0  0  0
  187.0660  178.0480  145.1450 C   0  0  0  0  0  0  0  0  0  0  0  0
  188.8630  177.8450  147.3510 C   0  0  0  0  0  3  0  0  0  0  0  0
  189.1540  177.1730  143.8060 C   0  0  0  0  0  0  0  0  0  0  0  0
  191.3740  175.6800  143.9150 C   0  0  0  0  0  2  0  0  0  0  0  0
  187.4630  178.3010  147.5400 C   0  0  0  0  0  3  0  0  0  0  0  0
  190.5390  176.8380  144.4100 C   0  0  0  0  0  0  0  0  0  0  0  0
  191.8290  177.1200  143.6740 C   0  0  0  0  0  2  0  0  0  0  0  0
  185.1800  178.8260  146.7340 C   0  0  2  0  0  3  0  0  0  0  0  0
  184.4890  177.8410  147.5480 N   0  0  0  0  0  1  0  0  0  0  0  0
  186.2540  178.2040  144.1020 C   0  0  0  0  0  3  0  0  0  0  0  0
  188.4940  175.9570  143.1720 C   0  0  0  0  0  1  0  0  0  0  0  0
  189.2770  177.5100  146.1280 C   0  0  0  0  0  0  0  0  0  0  0  0
  190.5470  177.0680  145.8090 O   0  0  0  0  0  0  0  0  0  0  0  0
  184.4430  179.0190  145.4770 N   0  0  0  0  0  0  0  0  0  0  0  0
  189.2300  178.3180  142.8060 C   0  0  0  0  0  1  0  0  0  0  0  0
  184.8930  178.7290  144.2880 C   0  0  0  0  0  0  0  0  0  0  0  0
  186.6050  178.3950  146.5080 C   0  0  0  0  0  0  0  0  0  0  0  0
  184.0950  178.9250  143.1590 O   0  0  0  0  0  0  0  0  0  0  0  0
  184.2620  178.1630  141.9720 C   0  0  0  0  0  2  0  0  0  0  0  0
  184.7530  179.0450  140.8780 C   0  0  0  0  0  0  0  0  0  0  0  0
  185.9360  179.4770  140.9160 O   0  0  0  0  0  0  0  0  0  0  0  0
  183.8820  179.3810  139.7440 C   0  0  0  0  0  0  0  0  0  0  0  0
  182.6870  178.6980  139.5530 O   0  0  0  0  0  1  0  0  0  0  0  0
  184.2130  180.2900  138.9380 O   0  0  0  0  0  0  0  0  0  0  0  0
  1  2  1  0  0  0  0
  1 13  1  0  0  0  0
  2 18  1  0  0  0  0
  3  6  1  0  0  0  0
  4  7  1  0  0  0  0
  4  1  1  0  0  0  0
  5  7  1  0  0  0  0
  7 14  1  0  0  0  0
  8  5  1  0  0  0  0
  8  7  1  0  0  0  0
  9 10  1  1  0  0  0
 11 17  1  0  0  0  0
 11  2  2  0  0  0  0
 12  4  1  0  0  0  0
 13  3  2  0  0  0  0
 14 13  1  0  0  0  0
 15  9  1  0  0  0  0
 16  4  1  0  0  0  0
 17 15  2  0  0  0  0
 18  9  1  0  0  0  0
 18  6  2  0  0  0  0
 19 17  1  0  0  0  0
 20 19  1  0  0  0  0
 21 22  2  0  0  0  0
 21 20  1  0  0  0  0
 23 21  1  0  0  0  0
 24 23  1  0  0  0  0
 25 23  2  0  0  0  0
M  END
>  <MODEL>
2

>  <REMARK>
 VINA RESULT:      -8.3      2.052      5.993
  Name = 
  4 active torsions:
  status: ('A' for Active; 'I' for Inactive)
    1  A    between atoms: C_2  and  C_21
    2  A    between atoms: O_6  and  C_15
    3  A    between atoms: O_6  and  C_23
    4  A    between atoms: C_15  and  C_21
                            x       y       z     vdW  Elec       q    Type
                         _______ _______ _______ _____ _____    ______ ____

>  <TORSDO>
F 4

$$$$
=
 OpenBabel10272400533D

 25 28  0  0  1  0  0  0  0  0999 V2000
  188.5620  177.5990  143.7090 N   0  0  0  0  0  0  0  0  0  0  0  0
  187.7210  177.9780  142.6100 C   0  0  0  0  0  0  0  0  0  0  0  0
  186.8200  178.0190  145.3150 C   0  0  0  0  0  3  0  0  0  0  0  0
  189.9600  177.1690  143.7290 C   0  0  0  0  0  0  0  0  0  0  0  0
  191.0400  175.8360  145.7840 C   0  0  0  0  0  2  0  0  0  0  0  0
  185.9150  178.3920  144.1990 C   0  0  0  0  0  3  0  0  0  0  0  0
  190.1880  176.9620  145.2450 C   0  0  0  0  0  0  0  0  0  0  0  0
  191.5050  177.2870  145.9140 C   0  0  0  0  0  2  0  0  0  0  0  0
  185.3790  178.7170  141.8020 C   0  0  2  0  0  3  0  0  0  0  0  0
  184.3090  177.7360  141.7400 N   0  0  0  0  0  1  0  0  0  0  0  0
  188.1680  178.0200  141.3570 C   0  0  0  0  0  3  0  0  0  0  0  0
  190.1270  175.8780  142.9400 C   0  0  0  0  0  1  0  0  0  0  0  0
  188.0700  177.6440  145.0410 C   0  0  0  0  0  0  0  0  0  0  0  0
  189.0140  177.2700  145.9780 O   0  0  0  0  0  0  0  0  0  0  0  0
  186.0460  178.7890  140.4950 N   0  0  0  0  0  0  0  0  0  0  0  0
  190.8590  178.2590  143.1610 C   0  0  0  0  0  1  0  0  0  0  0  0
  187.2880  178.4630  140.2650 C   0  0  0  0  0  0  0  0  0  0  0  0
  186.3280  178.3700  142.9180 C   0  0  0  0  0  0  0  0  0  0  0  0
  187.8160  178.5410  138.9740 O   0  0  0  0  0  0  0  0  0  0  0  0
  189.2000  178.7510  138.7330 C   0  0  0  0  0  2  0  0  0  0  0  0
  189.7870  177.5350  138.1050 C   0  0  0  0  0  0  0  0  0  0  0  0
  189.5540  177.2930  136.8900 O   0  0  0  0  0  0  0  0  0  0  0  0
  190.6600  176.6430  138.8790 C   0  0  0  0  0  0  0  0  0  0  0  0
  190.7440  175.2940  138.5590 O   0  0  0  0  0  0  0  0  0  0  0  0
  191.3370  177.0960  139.8390 O   0  0  0  0  0  1  0  0  0  0  0  0
  1  4  1  0  0  0  0
  1 13  1  0  0  0  0
  2 18  1  0  0  0  0
  2  1  1  0  0  0  0
  4  7  1  0  0  0  0
  5  8  1  0  0  0  0
  6  3  1  0  0  0  0
  7  5  1  0  0  0  0
  7  8  1  0  0  0  0
  7 14  1  0  0  0  0
  9 10  1  6  0  0  0
  9 18  1  0  0  0  0
 11  2  2  0  0  0  0
 12  4  1  0  0  0  0
 13  3  2  0  0  0  0
 13 14  1  0  0  0  0
 15  9  1  0  0  0  0
 16  4  1  0  0  0  0
 17 15  2  0  0  0  0
 17 11  1  0  0  0  0
 18  6  2  0  0  0  0
 19 17  1  0  0  0  0
 20 19  1  0  0  0  0
 21 20  1  0  0  0  0
 21 23  1  0  0  0  0
 22 21  2  0  0  0  0
 23 25  1  0  0  0  0
 24 23  2  0  0  0  0
M  END
>  <MODEL>
3

>  <REMARK>
 VINA RESULT:      -7.8      2.294      5.841
  Name = 
  4 active torsions:
  status: ('A' for Active; 'I' for Inactive)
    1  A    between atoms: C_2  and  C_21
    2  A    between atoms: O_6  and  C_15
    3  A    between atoms: O_6  and  C_23
    4  A    between atoms: C_15  and  C_21
                            x       y       z     vdW  Elec       q    Type
                         _______ _______ _______ _____ _____    ______ ____

>  <TORSDO>
F 4

$$$$
=
 OpenBabel10272400533D

 25 28  0  0  1  0  0  0  0  0999 V2000
  187.5100  177.9660  144.2660 N   0  0  0  0  0  0  0  0  0  0  0  0
  186.9910  178.2340  142.9550 C   0  0  0  0  0  0  0  0  0  0  0  0
  185.3930  178.4410  145.3090 C   0  0  0  0  0  3  0  0  0  0  0  0
  188.8580  177.5890  144.6930 C   0  0  0  0  0  0  0  0  0  0  0  0
  189.3630  176.4500  147.0610 C   0  0  0  0  0  2  0  0  0  0  0  0
  184.8180  178.6980  143.9650 C   0  0  0  0  0  3  0  0  0  0  0  0
  188.6720  177.5020  146.2260 C   0  0  0  0  0  0  0  0  0  0  0  0
  189.7550  177.9220  147.1940 C   0  0  0  0  0  2  0  0  0  0  0  0
  184.9410  178.8280  141.4940 C   0  0  2  0  0  3  0  0  0  0  0  0
  183.9430  177.8070  141.2270 N   0  0  0  0  0  1  0  0  0  0  0  0
  187.7570  178.2000  141.8680 C   0  0  0  0  0  3  0  0  0  0  0  0
  189.2490  176.2510  144.0830 C   0  0  0  0  0  1  0  0  0  0  0  0
  186.6770  178.0910  145.4100 C   0  0  0  0  0  0  0  0  0  0  0  0
  187.3390  177.8210  146.5910 O   0  0  0  0  0  0  0  0  0  0  0  0
  185.9350  178.8270  140.4110 N   0  0  0  0  0  0  0  0  0  0  0  0
  189.8590  178.6660  144.2990 C   0  0  0  0  0  1  0  0  0  0  0  0
  187.1970  178.5300  140.5480 C   0  0  0  0  0  0  0  0  0  0  0  0
  185.5600  178.5970  142.8470 C   0  0  0  0  0  0  0  0  0  0  0  0
  188.0520  178.5320  139.4440 O   0  0  0  0  0  0  0  0  0  0  0  0
  189.3820  178.0390  139.5140 C   0  0  0  0  0  2  0  0  0  0  0  0
  189.5360  176.8830  138.5870 C   0  0  0  0  0  0  0  0  0  0  0  0
  188.5930  176.5880  137.8060 O   0  0  0  0  0  0  0  0  0  0  0  0
  190.7870  176.1150  138.5550 C   0  0  0  0  0  0  0  0  0  0  0  0
  192.0000  176.7410  138.8200 O   0  0  0  0  0  1  0  0  0  0  0  0
  190.7700  174.8860  138.2880 O   0  0  0  0  0  0  0  0  0  0  0  0
  1  4  1  0  0  0  0
  1 13  1  0  0  0  0
  2  1  1  0  0  0  0
  3 13  2  0  0  0  0
  4  7  1  0  0  0  0
  5  8  1  0  0  0  0
  6  3  1  0  0  0  0
  7 14  1  0  0  0  0
  7  5  1  0  0  0  0
  7  8  1  0  0  0  0
  9 10  1  6  0  0  0
  9 18  1  0  0  0  0
 11  2  2  0  0  0  0
 12  4  1  0  0  0  0
 13 14  1  0  0  0  0
 15 17  2  0  0  0  0
 15  9  1  0  0  0  0
 16  4  1  0  0  0  0
 17 11  1  0  0  0  0
 18  2  1  0  0  0  0
 18  6  2  0  0  0  0
 19 20  1  0  0  0  0
 19 17  1  0  0  0  0
 21 20  1  0  0  0  0
 22 21  2  0  0  0  0
 23 21  1  0  0  0  0
 23 24  1  0  0  0  0
 25 23  2  0  0  0  0
M  END
>  <MODEL>
4

>  <REMARK>
 VINA RESULT:      -7.7      2.406      5.901
  Name = 
  4 active torsions:
  status: ('A' for Active; 'I' for Inactive)
    1  A    between atoms: C_2  and  C_21
    2  A    between atoms: O_6  and  C_15
    3  A    between atoms: O_6  and  C_23
    4  A    between atoms: C_15  and  C_21
                            x       y       z     vdW  Elec       q    Type
                         _______ _______ _______ _____ _____    ______ ____

>  <TORSDO>
F 4

$$$$
=
 OpenBabel10272400533D

 25 28  0  0  1  0  0  0  0  0999 V2000
  188.0170  177.8190  144.7850 N   0  0  0  0  0  0  0  0  0  0  0  0
  186.8620  178.3640  144.1310 C   0  0  0  0  0  0  0  0  0  0  0  0
  187.0310  178.0820  146.9650 C   0  0  0  0  0  3  0  0  0  0  0  0
  189.2860  177.3460  144.2300 C   0  0  0  0  0  0  0  0  0  0  0  0
  190.9410  175.7240  145.5700 C   0  0  0  0  0  2  0  0  0  0  0  0
  185.8090  178.6250  146.3180 C   0  0  0  0  0  3  0  0  0  0  0  0
  190.0410  176.9370  145.5170 C   0  0  0  0  0  0  0  0  0  0  0  0
  191.5330  177.1300  145.6720 C   0  0  0  0  0  2  0  0  0  0  0  0
  184.4520  179.2750  144.3510 C   0  0  2  0  0  3  0  0  0  0  0  0
  183.3620  178.3450  144.5890 N   0  0  0  0  0  1  0  0  0  0  0  0
  186.8160  178.5540  142.8150 C   0  0  0  0  0  3  0  0  0  0  0  0
  189.0480  176.1640  143.3020 C   0  0  0  0  0  1  0  0  0  0  0  0
  188.0580  177.7060  146.2010 C   0  0  0  0  0  0  0  0  0  0  0  0
  189.2490  177.1850  146.6670 O   0  0  0  0  0  0  0  0  0  0  0  0
  184.5920  179.4950  142.9040 N   0  0  0  0  0  0  0  0  0  0  0  0
  189.9920  178.4710  143.4870 C   0  0  0  0  0  1  0  0  0  0  0  0
  185.6310  179.1620  142.1900 C   0  0  0  0  0  0  0  0  0  0  0  0
  185.7170  178.7560  144.9820 C   0  0  0  0  0  0  0  0  0  0  0  0
  185.6490  179.3900  140.8120 O   0  0  0  0  0  0  0  0  0  0  0  0
  184.8170  178.6700  139.9140 C   0  0  0  0  0  2  0  0  0  0  0  0
  183.7230  179.5570  139.4280 C   0  0  0  0  0  0  0  0  0  0  0  0
  184.0140  180.6350  138.8450 O   0  0  0  0  0  0  0  0  0  0  0  0
  182.3180  179.1630  139.5910 C   0  0  0  0  0  0  0  0  0  0  0  0
  181.8070  178.8970  140.8560 O   0  0  0  0  0  1  0  0  0  0  0  0
  181.5670  179.0640  138.5850 O   0  0  0  0  0  0  0  0  0  0  0  0
  1 13  1  0  0  0  0
  2  1  1  0  0  0  0
  2 18  1  0  0  0  0
  4  1  1  0  0  0  0
  4  7  1  0  0  0  0
  5  8  1  0  0  0  0
  6  3  1  0  0  0  0
  7  5  1  0  0  0  0
  7  8  1  0  0  0  0
  7 14  1  0  0  0  0
  9 10  1  6  0  0  0
  9 18  1  0  0  0  0
 11  2  2  0  0  0  0
 12  4  1  0  0  0  0
 13 14  1  0  0  0  0
 13  3  2  0  0  0  0
 15  9  1  0  0  0  0
 16  4  1  0  0  0  0
 17 11  1  0  0  0  0
 17 15  2  0  0  0  0
 18  6  2  0  0  0  0
 19 17  1  0  0  0  0
 20 19  1  0  0  0  0
 21 23  1  0  0  0  0
 21 20  1  0  0  0  0
 22 21  2  0  0  0  0
 23 24  1  0  0  0  0
 25 23  2  0  0  0  0
M  END
>  <MODEL>
5

>  <REMARK>
 VINA RESULT:      -7.2      2.525      6.866
  Name = 
  4 active torsions:
  status: ('A' for Active; 'I' for Inactive)
    1  A    between atoms: C_2  and  C_21
    2  A    between atoms: O_6  and  C_15
    3  A    between atoms: O_6  and  C_23
    4  A    between atoms: C_15  and  C_21
                            x       y       z     vdW  Elec       q    Type
                         _______ _______ _______ _____ _____    ______ ____

>  <TORSDO>
F 4

$$$$
=
 OpenBabel10272400533D

 25 28  0  0  1  0  0  0  0  0999 V2000
  189.6070  177.5090  141.8690 N   0  0  0  0  0  0  0  0  0  0  0  0
  190.0310  177.3530  140.5070 C   0  0  0  0  0  0  0  0  0  0  0  0
  187.4760  178.4100  141.2070 C   0  0  0  0  0  3  0  0  0  0  0  0
  190.3130  177.2270  143.1200 C   0  0  0  0  0  0  0  0  0  0  0  0
  189.0490  176.9130  145.4590 C   0  0  0  0  0  2  0  0  0  0  0  0
  187.8730  178.2350  139.7870 C   0  0  0  0  0  3  0  0  0  0  0  0
  189.2570  177.6630  144.1630 C   0  0  0  0  0  0  0  0  0  0  0  0
  189.6390  178.3250  145.4690 C   0  0  0  0  0  2  0  0  0  0  0  0
  189.4350  177.5320  137.9980 C   0  0  2  0  0  3  0  0  0  0  0  0
  188.5640  176.5330  137.4040 N   0  0  0  0  0  1  0  0  0  0  0  0
  191.2490  176.9210  140.1890 C   0  0  0  0  0  3  0  0  0  0  0  0
  190.6410  175.7440  143.2180 C   0  0  0  0  0  1  0  0  0  0  0  0
  188.3280  178.0490  142.1680 C   0  0  0  0  0  0  0  0  0  0  0  0
  188.0890  178.1530  143.5250 O   0  0  0  0  0  0  0  0  0  0  0  0
  190.8350  177.1220  137.8170 N   0  0  0  0  0  0  0  0  0  0  0  0
  191.5840  178.0600  143.2120 C   0  0  0  0  0  1  0  0  0  0  0  0
  191.6620  176.8230  138.7800 C   0  0  0  0  0  0  0  0  0  0  0  0
  189.0730  177.7320  139.4460 C   0  0  0  0  0  0  0  0  0  0  0  0
  192.9670  176.4150  138.4960 O   0  0  0  0  0  0  0  0  0  0  0  0
  193.2470  175.2930  137.6720 C   0  0  0  0  0  2  0  0  0  0  0  0
  194.7120  175.0220  137.6780 C   0  0  0  0  0  0  0  0  0  0  0  0
  195.4130  175.3950  136.7000 O   0  0  0  0  0  0  0  0  0  0  0  0
  195.3430  174.3610  138.8280 C   0  0  0  0  0  0  0  0  0  0  0  0
  195.4910  172.9800  138.8470 O   0  0  0  0  0  0  0  0  0  0  0  0
  195.7530  175.0420  139.8040 O   0  0  0  0  0  1  0  0  0  0  0  0
  1 13  1  0  0  0  0
  1  4  1  0  0  0  0
  2  1  1  0  0  0  0
  3 13  2  0  0  0  0
  4 16  1  0  0  0  0
  4 12  1  0  0  0  0
  4  7  1  0  0  0  0
  5  8  1  0  0  0  0
  6  3  1  0  0  0  0
  7  5  1  0  0  0  0
  7  8  1  0  0  0  0
  9 10  1  1  0  0  0
  9 18  1  0  0  0  0
 11  2  2  0  0  0  0
 13 14  1  0  0  0  0
 14  7  1  0  0  0  0
 15  9  1  0  0  0  0
 15 17  2  0  0  0  0
 17 11  1  0  0  0  0
 18  6  2  0  0  0  0
 18  2  1  0  0  0  0
 19 17  1  0  0  0  0
 20 21  1  0  0  0  0
 20 19  1  0  0  0  0
 21 23  1  0  0  0  0
 22 21  2  0  0  0  0
 23 24  2  0  0  0  0
 23 25  1  0  0  0  0
M  END
>  <MODEL>
6

>  <REMARK>
 VINA RESULT:      -7.2      4.337      7.051
  Name = 
  4 active torsions:
  status: ('A' for Active; 'I' for Inactive)
    1  A    between atoms: C_2  and  C_21
    2  A    between atoms: O_6  and  C_15
    3  A    between atoms: O_6  and  C_23
    4  A    between atoms: C_15  and  C_21
                            x       y       z     vdW  Elec       q    Type
                         _______ _______ _______ _____ _____    ______ ____

>  <TORSDO>
F 4

$$$$
=
 OpenBabel10272400533D

 25 28  0  0  1  0  0  0  0  0999 V2000
  183.0100  178.6440  141.7010 N   0  0  0  0  0  0  0  0  0  0  0  0
  184.1320  178.4340  142.5710 C   0  0  0  0  0  0  0  0  0  0  0  0
  181.5200  179.0250  143.5510 C   0  0  0  0  0  3  0  0  0  0  0  0
  182.9180  178.5840  140.2410 C   0  0  0  0  0  0  0  0  0  0  0  0
  180.9250  179.7250  138.8660 C   0  0  0  0  0  2  0  0  0  0  0  0
  182.6640  178.8410  144.4780 C   0  0  0  0  0  3  0  0  0  0  0  0
  181.4170  178.8880  140.0240 C   0  0  0  0  0  0  0  0  0  0  0  0
  180.6120  178.2290  138.9260 C   0  0  0  0  0  2  0  0  0  0  0  0
  185.0520  178.4210  144.9870 C   0  0  2  0  0  3  0  0  0  0  0  0
  185.3010  179.6860  145.6560 N   0  0  0  0  0  1  0  0  0  0  0  0
  185.3330  178.0930  142.1100 C   0  0  0  0  0  3  0  0  0  0  0  0
  183.8150  179.6400  139.6120 C   0  0  0  0  0  1  0  0  0  0  0  0
  181.7260  178.9280  142.2370 C   0  0  0  0  0  0  0  0  0  0  0  0
  180.7560  179.0790  141.2640 O   0  0  0  0  0  0  0  0  0  0  0  0
  186.2860  177.9720  144.3260 N   0  0  0  0  0  0  0  0  0  0  0  0
  183.2980  177.1970  139.7420 C   0  0  0  0  0  1  0  0  0  0  0  0
  186.4440  177.8370  143.0390 C   0  0  0  0  0  0  0  0  0  0  0  0
  183.9020  178.5670  144.0260 C   0  0  0  0  0  0  0  0  0  0  0  0
  187.6720  177.4310  142.5120 O   0  0  0  0  0  0  0  0  0  0  0  0
  188.5820  178.3470  141.9200 C   0  0  0  0  0  2  0  0  0  0  0  0
  188.9750  177.8570  140.5690 C   0  0  0  0  0  0  0  0  0  0  0  0
  189.7820  176.8940  140.4710 O   0  0  0  0  0  0  0  0  0  0  0  0
  188.4000  178.4620  139.3610 C   0  0  0  0  0  0  0  0  0  0  0  0
  187.0380  178.3560  139.1040 O   0  0  0  0  0  1  0  0  0  0  0  0
  189.1370  179.0810  138.5500 O   0  0  0  0  0  0  0  0  0  0  0  0
  1 13  1  0  0  0  0
  1  2  1  0  0  0  0
  2 18  1  0  0  0  0
  3  6  1  0  0  0  0
  4  1  1  0  0  0  0
  5  8  1  0  0  0  0
  5  7  1  0  0  0  0
  7  4  1  0  0  0  0
  7 14  1  0  0  0  0
  8  7  1  0  0  0  0
  9 10  1  6  0  0  0
 11  2  2  0  0  0  0
 11 17  1  0  0  0  0
 12  4  1  0  0  0  0
 13  3  2  0  0  0  0
 14 13  1  0  0  0  0
 15  9  1  0  0  0  0
 16  4  1  0  0  0  0
 17 15  2  0  0  0  0
 18  6  2  0  0  0  0
 18  9  1  0  0  0  0
 19 17  1  0  0  0  0
 20 19  1  0  0  0  0
 21 20  1  0  0  0  0
 22 21  2  0  0  0  0
 23 21  1  0  0  0  0
 24 23  1  0  0  0  0
 25 23  2  0  0  0  0
M  END
>  <MODEL>
7

>  <REMARK>
 VINA RESULT:      -7.1      3.373      5.748
  Name = 
  4 active torsions:
  status: ('A' for Active; 'I' for Inactive)
    1  A    between atoms: C_2  and  C_21
    2  A    between atoms: O_6  and  C_15
    3  A    between atoms: O_6  and  C_23
    4  A    between atoms: C_15  and  C_21
                            x       y       z     vdW  Elec       q    Type
                         _______ _______ _______ _____ _____    ______ ____

>  <TORSDO>
F 4

$$$$
=
 OpenBabel10272400533D

 25 28  0  0  1  0  0  0  0  0999 V2000
  183.0430  178.6270  141.6990 N   0  0  0  0  0  0  0  0  0  0  0  0
  184.1320  178.4110  142.6080 C   0  0  0  0  0  0  0  0  0  0  0  0
  181.5060  179.0860  143.4930 C   0  0  0  0  0  3  0  0  0  0  0  0
  182.9950  178.5370  140.2390 C   0  0  0  0  0  0  0  0  0  0  0  0
  181.0730  179.6920  138.7770 C   0  0  0  0  0  2  0  0  0  0  0  0
  182.6170  178.8960  144.4590 C   0  0  0  0  0  3  0  0  0  0  0  0
  181.5090  178.8700  139.9680 C   0  0  0  0  0  0  0  0  0  0  0  0
  180.7220  178.2050  138.8610 C   0  0  0  0  0  2  0  0  0  0  0  0
  184.9760  178.4320  145.0520 C   0  0  2  0  0  3  0  0  0  0  0  0
  185.2350  179.7060  145.7010 N   0  0  0  0  0  1  0  0  0  0  0  0
  185.3380  178.0320  142.1930 C   0  0  0  0  0  3  0  0  0  0  0  0
  183.9370  179.5560  139.6150 C   0  0  0  0  0  1  0  0  0  0  0  0
  181.7500  178.9540  142.1880 C   0  0  0  0  0  0  0  0  0  0  0  0
  180.8150  179.1050  141.1820 O   0  0  0  0  0  0  0  0  0  0  0  0
  186.2190  177.9390  144.4410 N   0  0  0  0  0  0  0  0  0  0  0  0
  183.3560  177.1300  139.7830 C   0  0  0  0  0  1  0  0  0  0  0  0
  186.4140  177.7710  143.1620 C   0  0  0  0  0  0  0  0  0  0  0  0
  183.8610  178.5840  144.0530 C   0  0  0  0  0  0  0  0  0  0  0  0
  187.6470  177.3240  142.6840 O   0  0  0  0  0  0  0  0  0  0  0  0
  188.3180  176.2070  143.2470 C   0  0  0  0  0  2  0  0  0  0  0  0
  189.7910  176.4020  143.1380 C   0  0  0  0  0  0  0  0  0  0  0  0
  190.4980  175.4990  142.6170 O   0  0  0  0  0  0  0  0  0  0  0  0
  190.4130  177.6510  143.5990 C   0  0  0  0  0  0  0  0  0  0  0  0
  189.9470  178.2830  144.7460 O   0  0  0  0  0  1  0  0  0  0  0  0
  191.3710  178.1560  142.9590 O   0  0  0  0  0  0  0  0  0  0  0  0
  1 13  1  0  0  0  0
  1  2  1  0  0  0  0
  2 18  1  0  0  0  0
  3  6  1  0  0  0  0
  4  1  1  0  0  0  0
  5  8  1  0  0  0  0
  5  7  1  0  0  0  0
  7  4  1  0  0  0  0
  7 14  1  0  0  0  0
  8  7  1  0  0  0  0
  9 10  1  6  0  0  0
 11  2  2  0  0  0  0
 11 17  1  0  0  0  0
 12  4  1  0  0  0  0
 13  3  2  0  0  0  0
 14 13  1  0  0  0  0
 15  9  1  0  0  0  0
 16  4  1  0  0  0  0
 17 15  2  0  0  0  0
 18  6  2  0  0  0  0
 18  9  1  0  0  0  0
 19 17  1  0  0  0  0
 19 20  1  0  0  0  0
 21 20  1  0  0  0  0
 21 23  1  0  0  0  0
 22 21  2  0  0  0  0
 23 24  1  0  0  0  0
 25 23  2  0  0  0  0
M  END
>  <MODEL>
8

>  <REMARK>
 VINA RESULT:      -7.0      3.214      4.857
  Name = 
  4 active torsions:
  status: ('A' for Active; 'I' for Inactive)
    1  A    between atoms: C_2  and  C_21
    2  A    between atoms: O_6  and  C_15
    3  A    between atoms: O_6  and  C_23
    4  A    between atoms: C_15  and  C_21
                            x       y       z     vdW  Elec       q    Type
                         _______ _______ _______ _____ _____    ______ ____

>  <TORSDO>
F 4

$$$$
=
 OpenBabel10272400533D

 25 28  0  0  1  0  0  0  0  0999 V2000
  188.6580  177.5640  143.6930 N   0  0  0  0  0  0  0  0  0  0  0  0
  187.8170  177.9490  142.5950 C   0  0  0  0  0  0  0  0  0  0  0  0
  186.9210  177.9890  145.3030 C   0  0  0  0  0  3  0  0  0  0  0  0
  190.0550  177.1270  143.7090 C   0  0  0  0  0  0  0  0  0  0  0  0
  191.1310  175.7840  145.7590 C   0  0  0  0  0  2  0  0  0  0  0  0
  186.0160  178.3680  144.1880 C   0  0  0  0  0  3  0  0  0  0  0  0
  190.2840  176.9160  145.2240 C   0  0  0  0  0  0  0  0  0  0  0  0
  191.6030  177.2330  145.8920 C   0  0  0  0  0  2  0  0  0  0  0  0
  185.4770  178.7010  141.7940 C   0  0  2  0  0  3  0  0  0  0  0  0
  184.4030  177.7250  141.7310 N   0  0  0  0  0  1  0  0  0  0  0  0
  188.2620  177.9910  141.3420 C   0  0  0  0  0  3  0  0  0  0  0  0
  190.2140  175.8370  142.9180 C   0  0  0  0  0  1  0  0  0  0  0  0
  188.1690  177.6080  145.0250 C   0  0  0  0  0  0  0  0  0  0  0  0
  189.1130  177.2280  145.9600 O   0  0  0  0  0  0  0  0  0  0  0  0
  186.1420  178.7720  140.4850 N   0  0  0  0  0  0  0  0  0  0  0  0
  190.9570  178.2130  143.1410 C   0  0  0  0  0  1  0  0  0  0  0  0
  187.3820  178.4400  140.2520 C   0  0  0  0  0  0  0  0  0  0  0  0
  186.4270  178.3460  142.9070 C   0  0  0  0  0  0  0  0  0  0  0  0
  187.9080  178.5180  138.9610 O   0  0  0  0  0  0  0  0  0  0  0  0
  187.2200  178.0030  137.8300 C   0  0  0  0  0  2  0  0  0  0  0  0
  187.7650  176.6600  137.4840 C   0  0  0  0  0  0  0  0  0  0  0  0
  188.9230  176.3460  137.8670 O   0  0  0  0  0  0  0  0  0  0  0  0
  186.9480  175.6950  136.7370 C   0  0  0  0  0  0  0  0  0  0  0  0
  185.6150  175.4950  137.0760 O   0  0  0  0  0  1  0  0  0  0  0  0
  187.4500  175.0430  135.7850 O   0  0  0  0  0  0  0  0  0  0  0  0
  1  4  1  0  0  0  0
  1 13  1  0  0  0  0
  2 18  1  0  0  0  0
  2  1  1  0  0  0  0
  4  7  1  0  0  0  0
  5  8  1  0  0  0  0
  6  3  1  0  0  0  0
  7  5  1  0  0  0  0
  7  8  1  0  0  0  0
  7 14  1  0  0  0  0
  9 10  1  6  0  0  0
  9 18  1  0  0  0  0
 11  2  2  0  0  0  0
 12  4  1  0  0  0  0
 13  3  2  0  0  0  0
 13 14  1  0  0  0  0
 15  9  1  0  0  0  0
 16  4  1  0  0  0  0
 17 15  2  0  0  0  0
 17 11  1  0  0  0  0
 18  6  2  0  0  0  0
 19 17  1  0  0  0  0
 20 19  1  0  0  0  0
 21 20  1  0  0  0  0
 21 22  2  0  0  0  0
 23 24  1  0  0  0  0
 23 21  1  0  0  0  0
 25 23  2  0  0  0  0
M  END
>  <MODEL>
9

>  <REMARK>
 VINA RESULT:      -6.9      2.427      6.582
  Name = 
  4 active torsions:
  status: ('A' for Active; 'I' for Inactive)
    1  A    between atoms: C_2  and  C_21
    2  A    between atoms: O_6  and  C_15
    3  A    between atoms: O_6  and  C_23
    4  A    between atoms: C_15  and  C_21
                            x       y       z     vdW  Elec       q    Type
                         _______ _______ _______ _____ _____    ______ ____

>  <TORSDO>
F 4

$$$$
