=
 OpenBabel10272400343D

 31 34  0  0  1  0  0  0  0  0999 V2000
  186.9100  178.0450  147.0850 C   0  0  0  0  0  0  0  0  0  0  0  0
  187.4620  177.7280  143.3770 C   0  0  0  0  0  0  0  0  0  0  0  0
  188.7800  176.9850  143.1940 C   0  0  2  0  0  3  0  0  0  0  0  0
  190.6570  177.1650  144.7600 C   0  0  0  0  0  2  0  0  0  0  0  0
  186.8660  178.0120  144.6420 C   0  0  0  0  0  0  0  0  0  0  0  0
  185.6280  178.5940  147.1140 C   0  0  0  0  0  3  0  0  0  0  0  0
  189.4320  176.3260  144.4010 C   0  0  0  0  0  2  0  0  0  0  0  0
  185.4680  178.6490  142.2750 C   0  0  0  0  0  0  0  0  0  0  0  0
  187.5800  177.7800  148.2710 O   0  0  0  0  0  1  0  0  0  0  0  0
  188.6620  178.1340  140.4910 C   0  0  0  0  0  3  0  0  0  0  0  0
  190.9980  178.0160  143.5470 C   0  0  2  0  0  3  0  0  0  0  0  0
  184.8870  178.8740  143.5230 C   0  0  0  0  0  3  0  0  0  0  0  0
  186.7730  178.1210  142.1940 C   0  0  0  0  0  0  0  0  0  0  0  0
  187.5180  177.7590  145.8600 C   0  0  0  0  0  3  0  0  0  0  0  0
  191.1790  179.4590  143.9840 C   0  0  0  0  0  1  0  0  0  0  0  0
  185.5710  178.5820  144.6930 C   0  0  0  0  0  0  0  0  0  0  0  0
  184.9600  178.8630  145.9190 C   0  0  0  0  0  3  0  0  0  0  0  0
  187.3710  178.0210  140.8340 C   0  0  0  0  0  3  0  0  0  0  0  0
  189.7990  178.3360  141.4080 C   0  0  0  0  0  3  0  0  0  0  0  0
  189.8190  177.8860  142.6590 C   0  0  0  0  0  0  0  0  0  0  0  0
  183.1000  177.3220  141.1200 O   0  0  0  0  0  0  0  0  0  0  0  0
  183.6180  178.3000  140.5160 C   0  0  0  0  0  0  0  0  0  0  0  0
  184.7580  178.9760  141.0670 N   0  0  0  0  0  2  0  0  0  0  0  0
  182.4840  179.9140  139.2340 O   0  0  0  0  0  0  0  0  0  0  0  0
  182.3130  178.4580  136.8740 C   0  0  0  0  0  1  0  0  0  0  0  0
  183.0930  178.0140  138.0250 N   0  0  0  0  0  0  0  0  0  0  0  0
  183.0440  178.7840  139.2420 C   0  0  0  0  0  0  0  0  0  0  0  0
  184.0130  176.8860  137.8700 C   0  0  1  0  0  3  0  0  0  0  0  0
  183.2490  175.6030  137.5780 C   0  0  0  0  0  1  0  0  0  0  0  0
  186.1870  177.9910  137.3430 C   0  0  0  0  0  1  0  0  0  0  0  0
  185.0400  177.1730  136.7830 C   0  0  0  0  0  2  0  0  0  0  0  0
  1  6  1  0  0  0  0
  1  9  1  0  0  0  0
  2  5  1  0  0  0  0
  3  2  1  0  0  0  0
  3  7  1  1  0  0  0
  5 16  2  0  0  0  0
  5 14  1  0  0  0  0
  7  4  1  0  0  0  0
  8 12  2  0  0  0  0
 10 18  2  0  0  0  0
 10 19  1  0  0  0  0
 11 15  1  1  0  0  0
 11  4  1  0  0  0  0
 12 16  1  0  0  0  0
 13  8  1  0  0  0  0
 13  2  2  0  0  0  0
 14  1  2  0  0  0  0
 16 17  1  0  0  0  0
 17  6  2  0  0  0  0
 18 13  1  0  0  0  0
 19 20  2  0  0  0  0
 20  3  1  0  0  0  0
 20 11  1  0  0  0  0
 22 23  1  0  0  0  0
 22 21  2  0  0  0  0
 23  8  1  0  0  0  0
 24 27  2  0  0  0  0
 25 26  1  0  0  0  0
 26 27  1  0  0  0  0
 27 22  1  0  0  0  0
 28 29  1  6  0  0  0
 28 26  1  0  0  0  0
 31 30  1  0  0  0  0
 31 28  1  0  0  0  0
M  END
>  <MODEL>
1

>  <REMARK>
 VINA RESULT:      -9.0      0.000      0.000
  Name = 
  4 active torsions:
  status: ('A' for Active; 'I' for Inactive)
    1  A    between atoms: C_1  and  N_19
    2  A    between atoms: C_1  and  C_24
    3  A    between atoms: C_9  and  C_22
    4  A    between atoms: C_15  and  N_23
                            x       y       z     vdW  Elec       q    Type
                         _______ _______ _______ _____ _____    ______ ____

>  <TORSDO>
F 4

$$$$
=
 OpenBabel10272400343D

 31 34  0  0  1  0  0  0  0  0999 V2000
  188.2340  177.9560  147.8820 C   0  0  0  0  0  0  0  0  0  0  0  0
  187.3570  177.7820  144.2270 C   0  0  0  0  0  0  0  0  0  0  0  0
  188.5040  177.0520  143.5380 C   0  0  2  0  0  3  0  0  0  0  0  0
  190.8310  177.1800  144.2940 C   0  0  0  0  0  2  0  0  0  0  0  0
  187.2800  178.0150  145.6330 C   0  0  0  0  0  0  0  0  0  0  0  0
  187.0620  178.4980  148.4080 C   0  0  0  0  0  3  0  0  0  0  0  0
  189.5520  176.3500  144.3890 C   0  0  0  0  0  2  0  0  0  0  0  0
  185.1050  178.7350  143.9850 C   0  0  0  0  0  0  0  0  0  0  0  0
  189.2950  177.6500  148.7200 O   0  0  0  0  0  1  0  0  0  0  0  0
  187.3960  178.3010  141.1180 C   0  0  0  0  0  3  0  0  0  0  0  0
  190.7030  178.0780  143.0740 C   0  0  2  0  0  3  0  0  0  0  0  0
  185.0350  178.9100  145.3670 C   0  0  0  0  0  3  0  0  0  0  0  0
  186.2800  178.2160  143.4030 C   0  0  0  0  0  0  0  0  0  0  0  0
  188.3380  177.7190  146.5090 C   0  0  0  0  0  3  0  0  0  0  0  0
  191.0490  179.5040  143.4630 C   0  0  0  0  0  1  0  0  0  0  0  0
  186.1030  178.5770  146.1850 C   0  0  0  0  0  0  0  0  0  0  0  0
  185.9980  178.8090  147.5600 C   0  0  0  0  0  3  0  0  0  0  0  0
  186.3250  178.1700  141.9150 C   0  0  0  0  0  3  0  0  0  0  0  0
  188.7950  178.4730  141.5510 C   0  0  0  0  0  3  0  0  0  0  0  0
  189.2760  177.9760  142.6870 C   0  0  0  0  0  0  0  0  0  0  0  0
  182.2180  178.4440  144.5150 O   0  0  0  0  0  0  0  0  0  0  0  0
  182.6000  178.9330  143.4170 C   0  0  0  0  0  0  0  0  0  0  0  0
  183.9980  179.1040  143.1430 N   0  0  0  0  0  2  0  0  0  0  0  0
  180.6800  180.1280  142.7690 O   0  0  0  0  0  0  0  0  0  0  0  0
  180.5440  179.2140  140.1480 C   0  0  0  0  0  1  0  0  0  0  0  0
  181.6730  178.9310  141.0290 N   0  0  0  0  0  0  0  0  0  0  0  0
  181.6130  179.3620  142.4030 C   0  0  0  0  0  0  0  0  0  0  0  0
  182.8900  178.3490  140.4630 C   0  0  1  0  0  3  0  0  0  0  0  0
  182.6020  176.9870  139.8480 C   0  0  0  0  0  1  0  0  0  0  0  0
  184.5330  178.5540  138.5950 C   0  0  0  0  0  1  0  0  0  0  0  0
  183.5120  179.2910  139.4400 C   0  0  0  0  0  2  0  0  0  0  0  0
  1  6  1  0  0  0  0
  1  9  1  0  0  0  0
  2  5  1  0  0  0  0
  3  2  1  0  0  0  0
  3  7  1  1  0  0  0
  4  7  1  0  0  0  0
  5 16  2  0  0  0  0
  5 14  1  0  0  0  0
  8 12  2  0  0  0  0
 10 19  1  0  0  0  0
 10 18  2  0  0  0  0
 11 15  1  1  0  0  0
 11  4  1  0  0  0  0
 12 16  1  0  0  0  0
 13  8  1  0  0  0  0
 13  2  2  0  0  0  0
 14  1  2  0  0  0  0
 16 17  1  0  0  0  0
 17  6  2  0  0  0  0
 18 13  1  0  0  0  0
 19 20  2  0  0  0  0
 20 11  1  0  0  0  0
 20  3  1  0  0  0  0
 22 21  2  0  0  0  0
 23 22  1  0  0  0  0
 23  8  1  0  0  0  0
 25 26  1  0  0  0  0
 26 27  1  0  0  0  0
 27 24  2  0  0  0  0
 27 22  1  0  0  0  0
 28 29  1  6  0  0  0
 28 26  1  0  0  0  0
 30 31  1  0  0  0  0
 31 28  1  0  0  0  0
M  END
>  <MODEL>
2

>  <REMARK>
 VINA RESULT:      -9.0      1.698      2.217
  Name = 
  4 active torsions:
  status: ('A' for Active; 'I' for Inactive)
    1  A    between atoms: C_1  and  N_19
    2  A    between atoms: C_1  and  C_24
    3  A    between atoms: C_9  and  C_22
    4  A    between atoms: C_15  and  N_23
                            x       y       z     vdW  Elec       q    Type
                         _______ _______ _______ _____ _____    ______ ____

>  <TORSDO>
F 4

$$$$
=
 OpenBabel10272400343D

 31 34  0  0  1  0  0  0  0  0999 V2000
  187.3990  178.0050  147.3890 C   0  0  0  0  0  0  0  0  0  0  0  0
  188.1360  177.5080  143.7330 C   0  0  0  0  0  0  0  0  0  0  0  0
  189.4620  176.7620  143.6530 C   0  0  2  0  0  3  0  0  0  0  0  0
  191.2590  177.0270  145.2990 C   0  0  0  0  0  2  0  0  0  0  0  0
  187.4770  177.8510  144.9520 C   0  0  0  0  0  0  0  0  0  0  0  0
  186.1160  178.5490  147.3280 C   0  0  0  0  0  3  0  0  0  0  0  0
  190.0550  176.1660  144.9220 C   0  0  0  0  0  2  0  0  0  0  0  0
  186.1970  178.3640  142.4900 C   0  0  0  0  0  0  0  0  0  0  0  0
  188.0100  177.8020  148.6180 O   0  0  0  0  0  1  0  0  0  0  0  0
  189.4770  177.7760  140.8940 C   0  0  0  0  0  3  0  0  0  0  0  0
  191.6590  177.8190  144.0650 C   0  0  2  0  0  3  0  0  0  0  0  0
  185.5540  178.6480  143.6940 C   0  0  0  0  0  3  0  0  0  0  0  0
  187.5060  177.8390  142.4990 C   0  0  0  0  0  0  0  0  0  0  0  0
  188.0680  177.6620  146.2120 C   0  0  0  0  0  3  0  0  0  0  0  0
  191.8140  179.2830  144.4370 C   0  0  0  0  0  1  0  0  0  0  0  0
  186.1800  178.4170  144.9100 C   0  0  0  0  0  0  0  0  0  0  0  0
  185.5080  178.7560  146.0890 C   0  0  0  0  0  3  0  0  0  0  0  0
  188.1710  177.6750  141.1770 C   0  0  0  0  0  3  0  0  0  0  0  0
  190.5670  178.0270  141.8550 C   0  0  0  0  0  3  0  0  0  0  0  0
  190.5250  177.6400  143.1270 C   0  0  0  0  0  0  0  0  0  0  0  0
  183.3180  178.7010  141.9470 O   0  0  0  0  0  0  0  0  0  0  0  0
  184.1390  178.7680  140.9930 C   0  0  0  0  0  0  0  0  0  0  0  0
  185.5470  178.6290  141.2330 N   0  0  0  0  0  2  0  0  0  0  0  0
  184.0160  180.0920  139.0520 O   0  0  0  0  0  0  0  0  0  0  0  0
  182.2250  178.5080  137.6380 C   0  0  0  0  0  1  0  0  0  0  0  0
  182.8270  178.0900  138.9000 N   0  0  0  0  0  0  0  0  0  0  0  0
  183.6690  179.0170  139.6140 C   0  0  0  0  0  0  0  0  0  0  0  0
  182.6790  176.7000  139.3350 C   0  0  1  0  0  3  0  0  0  0  0  0
  181.2280  176.3900  139.6690 C   0  0  0  0  0  1  0  0  0  0  0  0
  182.1240  174.7920  137.8250 C   0  0  0  0  0  1  0  0  0  0  0  0
  183.2140  175.7450  138.2760 C   0  0  0  0  0  2  0  0  0  0  0  0
  1  9  1  0  0  0  0
  2  5  1  0  0  0  0
  3  2  1  0  0  0  0
  3  7  1  1  0  0  0
  5 14  1  0  0  0  0
  6  1  1  0  0  0  0
  7  4  1  0  0  0  0
  8 13  1  0  0  0  0
  8 12  2  0  0  0  0
 10 18  2  0  0  0  0
 10 19  1  0  0  0  0
 11 15  1  1  0  0  0
 11  4  1  0  0  0  0
 12 16  1  0  0  0  0
 13  2  2  0  0  0  0
 14  1  2  0  0  0  0
 16  5  2  0  0  0  0
 16 17  1  0  0  0  0
 17  6  2  0  0  0  0
 18 13  1  0  0  0  0
 19 20  2  0  0  0  0
 20  3  1  0  0  0  0
 20 11  1  0  0  0  0
 22 23  1  0  0  0  0
 22 21  2  0  0  0  0
 23  8  1  0  0  0  0
 24 27  2  0  0  0  0
 25 26  1  0  0  0  0
 26 28  1  0  0  0  0
 26 27  1  0  0  0  0
 27 22  1  0  0  0  0
 28 29  1  6  0  0  0
 30 31  1  0  0  0  0
 31 28  1  0  0  0  0
M  END
>  <MODEL>
3

>  <REMARK>
 VINA RESULT:      -8.9      1.175      1.484
  Name = 
  4 active torsions:
  status: ('A' for Active; 'I' for Inactive)
    1  A    between atoms: C_1  and  N_19
    2  A    between atoms: C_1  and  C_24
    3  A    between atoms: C_9  and  C_22
    4  A    between atoms: C_15  and  N_23
                            x       y       z     vdW  Elec       q    Type
                         _______ _______ _______ _____ _____    ______ ____

>  <TORSDO>
F 4

$$$$
=
 OpenBabel10272400343D

 31 34  0  0  1  0  0  0  0  0999 V2000
  181.4130  178.9520  142.4090 C   0  0  0  0  0  0  0  0  0  0  0  0
  184.7440  178.8870  140.6610 C   0  0  0  0  0  0  0  0  0  0  0  0
  184.4810  179.2610  139.2080 C   0  0  2  0  0  3  0  0  0  0  0  0
  182.4040  178.7120  138.0290 C   0  0  0  0  0  2  0  0  0  0  0  0
  183.7410  178.8420  141.6760 C   0  0  0  0  0  0  0  0  0  0  0  0
  181.8060  178.7460  143.7320 C   0  0  0  0  0  3  0  0  0  0  0  0
  183.1150  179.8090  138.8190 C   0  0  0  0  0  2  0  0  0  0  0  0
  186.4440  178.4320  142.3770 C   0  0  0  0  0  0  0  0  0  0  0  0
  180.0710  179.1120  142.1000 O   0  0  0  0  0  1  0  0  0  0  0  0
  187.1060  178.0130  138.7660 C   0  0  0  0  0  3  0  0  0  0  0  0
  183.4630  177.7280  137.5580 C   0  0  2  0  0  3  0  0  0  0  0  0
  185.4510  178.4390  143.3570 C   0  0  0  0  0  3  0  0  0  0  0  0
  186.0940  178.6080  141.0220 C   0  0  0  0  0  0  0  0  0  0  0  0
  182.3740  178.9980  141.3960 C   0  0  0  0  0  3  0  0  0  0  0  0
  183.0240  176.3160  137.9030 C   0  0  0  0  0  1  0  0  0  0  0  0
  184.1190  178.6220  143.0230 C   0  0  0  0  0  0  0  0  0  0  0  0
  183.1570  178.5800  144.0370 C   0  0  0  0  0  3  0  0  0  0  0  0
  187.1900  178.4690  140.0240 C   0  0  0  0  0  3  0  0  0  0  0  0
  185.8790  177.5890  138.0670 C   0  0  0  0  0  3  0  0  0  0  0  0
  184.6770  178.0960  138.3240 C   0  0  0  0  0  0  0  0  0  0  0  0
  187.7640  175.9250  143.1950 O   0  0  0  0  0  0  0  0  0  0  0  0
  188.4350  176.9900  143.1480 C   0  0  0  0  0  0  0  0  0  0  0  0
  187.8220  178.2200  142.7320 N   0  0  0  0  0  2  0  0  0  0  0  0
  190.7070  177.2010  142.5720 O   0  0  0  0  0  0  0  0  0  0  0  0
  191.7790  176.5360  145.0480 C   0  0  0  0  0  1  0  0  0  0  0  0
  190.3500  176.7440  144.8320 N   0  0  0  0  0  0  0  0  0  0  0  0
  189.8730  176.9880  143.4940 C   0  0  0  0  0  0  0  0  0  0  0  0
  189.4610  176.8410  145.9910 C   0  0  1  0  0  3  0  0  0  0  0  0
  190.2320  176.6190  147.2840 C   0  0  0  0  0  1  0  0  0  0  0  0
  187.3140  178.0120  146.4870 C   0  0  0  0  0  1  0  0  0  0  0  0
  188.7410  178.1840  146.0050 C   0  0  0  0  0  2  0  0  0  0  0  0
  1  6  1  0  0  0  0
  2 13  2  0  0  0  0
  2  5  1  0  0  0  0
  3  7  1  1  0  0  0
  3  2  1  0  0  0  0
  4  7  1  0  0  0  0
  5 16  2  0  0  0  0
  6 17  2  0  0  0  0
  8 23  1  0  0  0  0
  8 12  2  0  0  0  0
  9  1  1  0  0  0  0
 10 18  2  0  0  0  0
 11 15  1  1  0  0  0
 11  4  1  0  0  0  0
 11 20  1  0  0  0  0
 13  8  1  0  0  0  0
 14  5  1  0  0  0  0
 14  1  2  0  0  0  0
 16 12  1  0  0  0  0
 16 17  1  0  0  0  0
 18 13  1  0  0  0  0
 19 20  2  0  0  0  0
 19 10  1  0  0  0  0
 20  3  1  0  0  0  0
 22 21  2  0  0  0  0
 22 27  1  0  0  0  0
 23 22  1  0  0  0  0
 24 27  2  0  0  0  0
 26 25  1  0  0  0  0
 26 28  1  0  0  0  0
 27 26  1  0  0  0  0
 28 31  1  0  0  0  0
 28 29  1  1  0  0  0
 31 30  1  0  0  0  0
M  END
>  <MODEL>
4

>  <REMARK>
 VINA RESULT:      -8.4      2.584      7.425
  Name = 
  4 active torsions:
  status: ('A' for Active; 'I' for Inactive)
    1  A    between atoms: C_1  and  N_19
    2  A    between atoms: C_1  and  C_24
    3  A    between atoms: C_9  and  C_22
    4  A    between atoms: C_15  and  N_23
                            x       y       z     vdW  Elec       q    Type
                         _______ _______ _______ _____ _____    ______ ____

>  <TORSDO>
F 4

$$$$
=
 OpenBabel10272400343D

 31 34  0  0  1  0  0  0  0  0999 V2000
  187.1700  178.3250  147.2020 C   0  0  0  0  0  0  0  0  0  0  0  0
  188.3030  177.3560  143.7480 C   0  0  0  0  0  0  0  0  0  0  0  0
  189.7210  176.8150  143.8900 C   0  0  2  0  0  3  0  0  0  0  0  0
  191.3040  177.6110  145.5830 C   0  0  0  0  0  2  0  0  0  0  0  0
  187.4940  177.7910  144.8400 C   0  0  0  0  0  0  0  0  0  0  0  0
  185.8370  178.6530  146.9600 C   0  0  0  0  0  3  0  0  0  0  0  0
  190.2690  176.5290  145.2810 C   0  0  0  0  0  2  0  0  0  0  0  0
  186.3900  177.6980  142.2450 C   0  0  0  0  0  0  0  0  0  0  0  0
  187.6870  178.4190  148.4870 O   0  0  0  0  0  1  0  0  0  0  0  0
  189.8530  177.3560  141.0030 C   0  0  0  0  0  3  0  0  0  0  0  0
  191.7050  178.2420  144.2590 C   0  0  2  0  0  3  0  0  0  0  0  0
  185.6050  178.0740  143.3350 C   0  0  0  0  0  3  0  0  0  0  0  0
  187.7510  177.3840  142.4350 C   0  0  0  0  0  0  0  0  0  0  0  0
  187.9860  177.8990  146.1510 C   0  0  0  0  0  3  0  0  0  0  0  0
  191.6250  179.7530  144.3810 C   0  0  0  0  0  1  0  0  0  0  0  0
  186.1410  178.1410  144.6120 C   0  0  0  0  0  0  0  0  0  0  0  0
  185.3240  178.5620  145.6660 C   0  0  0  0  0  3  0  0  0  0  0  0
  188.5520  177.1080  141.2110 C   0  0  0  0  0  3  0  0  0  0  0  0
  190.8040  177.9220  141.9780 C   0  0  0  0  0  3  0  0  0  0  0  0
  190.6980  177.7440  143.2920 C   0  0  0  0  0  0  0  0  0  0  0  0
  185.1490  179.8850  140.7020 O   0  0  0  0  0  0  0  0  0  0  0  0
  185.2110  178.7300  140.1990 C   0  0  0  0  0  0  0  0  0  0  0  0
  185.8290  177.6540  140.9210 N   0  0  0  0  0  2  0  0  0  0  0  0
  183.4700  178.7760  138.6180 O   0  0  0  0  0  0  0  0  0  0  0  0
  184.7980  177.4480  136.5690 C   0  0  0  0  0  1  0  0  0  0  0  0
  185.4610  177.8770  137.7960 N   0  0  0  0  0  0  0  0  0  0  0  0
  184.6730  178.4700  138.8470 C   0  0  0  0  0  0  0  0  0  0  0  0
  186.9220  177.8260  137.8720 C   0  0  1  0  0  3  0  0  0  0  0  0
  187.4310  176.4280  137.5570 C   0  0  0  0  0  1  0  0  0  0  0  0
  189.0320  178.9840  137.2130 C   0  0  0  0  0  1  0  0  0  0  0  0
  187.5450  178.8590  136.9430 C   0  0  0  0  0  2  0  0  0  0  0  0
  1  9  1  0  0  0  0
  2  3  1  0  0  0  0
  2  5  1  0  0  0  0
  3  7  1  1  0  0  0
  5 14  1  0  0  0  0
  6  1  1  0  0  0  0
  7  4  1  0  0  0  0
  8 13  1  0  0  0  0
  8 12  2  0  0  0  0
 10 18  2  0  0  0  0
 10 19  1  0  0  0  0
 11 15  1  1  0  0  0
 11  4  1  0  0  0  0
 12 16  1  0  0  0  0
 13  2  2  0  0  0  0
 14  1  2  0  0  0  0
 16  5  2  0  0  0  0
 16 17  1  0  0  0  0
 17  6  2  0  0  0  0
 18 13  1  0  0  0  0
 19 20  2  0  0  0  0
 20  3  1  0  0  0  0
 20 11  1  0  0  0  0
 22 21  2  0  0  0  0
 22 23  1  0  0  0  0
 23  8  1  0  0  0  0
 24 27  2  0  0  0  0
 25 26  1  0  0  0  0
 26 28  1  0  0  0  0
 26 27  1  0  0  0  0
 27 22  1  0  0  0  0
 28 29  1  6  0  0  0
 31 30  1  0  0  0  0
 31 28  1  0  0  0  0
M  END
>  <MODEL>
5

>  <REMARK>
 VINA RESULT:      -8.3      1.374      1.812
  Name = 
  4 active torsions:
  status: ('A' for Active; 'I' for Inactive)
    1  A    between atoms: C_1  and  N_19
    2  A    between atoms: C_1  and  C_24
    3  A    between atoms: C_9  and  C_22
    4  A    between atoms: C_15  and  N_23
                            x       y       z     vdW  Elec       q    Type
                         _______ _______ _______ _____ _____    ______ ____

>  <TORSDO>
F 4

$$$$
=
 OpenBabel10272400343D

 31 34  0  0  1  0  0  0  0  0999 V2000
  183.8930  178.6390  138.8230 C   0  0  0  0  0  0  0  0  0  0  0  0
  187.6090  178.1290  139.1150 C   0  0  0  0  0  0  0  0  0  0  0  0
  188.1510  178.0490  137.6930 C   0  0  2  0  0  3  0  0  0  0  0  0
  186.8750  177.1310  135.8140 C   0  0  0  0  0  2  0  0  0  0  0  0
  186.2410  178.3660  139.4430 C   0  0  0  0  0  0  0  0  0  0  0  0
  183.5500  178.8440  140.1590 C   0  0  0  0  0  3  0  0  0  0  0  0
  187.2430  178.4280  136.5320 C   0  0  0  0  0  2  0  0  0  0  0  0
  188.1610  178.2400  141.5070 C   0  0  0  0  0  0  0  0  0  0  0  0
  182.9140  178.6720  137.8410 O   0  0  0  0  0  1  0  0  0  0  0  0
  190.4570  176.7820  139.0060 C   0  0  0  0  0  3  0  0  0  0  0  0
  187.8850  176.0740  136.2310 C   0  0  2  0  0  3  0  0  0  0  0  0
  186.8260  178.5170  141.7990 C   0  0  0  0  0  3  0  0  0  0  0  0
  188.5530  177.9980  140.1740 C   0  0  0  0  0  0  0  0  0  0  0  0
  185.2250  178.4020  138.4740 C   0  0  0  0  0  3  0  0  0  0  0  0
  187.1470  174.8190  136.6640 C   0  0  0  0  0  1  0  0  0  0  0  0
  185.8700  178.5640  140.7960 C   0  0  0  0  0  0  0  0  0  0  0  0
  184.5370  178.8050  141.1440 C   0  0  0  0  0  3  0  0  0  0  0  0
  189.9690  177.5920  139.9560 C   0  0  0  0  0  3  0  0  0  0  0  0
  189.6910  176.1430  137.9200 C   0  0  0  0  0  3  0  0  0  0  0  0
  188.6000  176.6790  137.3800 C   0  0  0  0  0  0  0  0  0  0  0  0
  188.9470  175.9110  143.1380 O   0  0  0  0  0  0  0  0  0  0  0  0
  189.4900  177.0280  143.3520 C   0  0  0  0  0  0  0  0  0  0  0  0
  189.1410  178.1720  142.5590 N   0  0  0  0  0  2  0  0  0  0  0  0
  191.6860  177.4890  144.0590 O   0  0  0  0  0  0  0  0  0  0  0  0
  191.3370  176.9040  146.7530 C   0  0  0  0  0  1  0  0  0  0  0  0
  190.2300  176.9610  145.8050 N   0  0  0  0  0  0  0  0  0  0  0  0
  190.5150  177.1740  144.4080 C   0  0  0  0  0  0  0  0  0  0  0  0
  188.8570  176.9450  146.3100 C   0  0  1  0  0  3  0  0  0  0  0  0
  188.8410  176.9350  147.8320 C   0  0  0  0  0  1  0  0  0  0  0  0
  186.6230  177.7310  145.5210 C   0  0  0  0  0  1  0  0  0  0  0  0
  188.0670  178.1270  145.7610 C   0  0  0  0  0  2  0  0  0  0  0  0
  1  6  1  0  0  0  0
  2  5  2  0  0  0  0
  2 13  1  0  0  0  0
  3  7  1  6  0  0  0
  3  2  1  0  0  0  0
  4 11  1  0  0  0  0
  4  7  1  0  0  0  0
  5 16  1  0  0  0  0
  6 17  2  0  0  0  0
  8 12  1  0  0  0  0
  8 23  1  0  0  0  0
  9  1  1  0  0  0  0
 10 18  2  0  0  0  0
 11 15  1  1  0  0  0
 11 20  1  0  0  0  0
 13  8  2  0  0  0  0
 14  1  2  0  0  0  0
 14  5  1  0  0  0  0
 16 17  1  0  0  0  0
 16 12  2  0  0  0  0
 18 13  1  0  0  0  0
 19 10  1  0  0  0  0
 20  3  1  0  0  0  0
 20 19  2  0  0  0  0
 21 22  2  0  0  0  0
 22 27  1  0  0  0  0
 23 22  1  0  0  0  0
 24 27  2  0  0  0  0
 26 28  1  0  0  0  0
 26 25  1  0  0  0  0
 27 26  1  0  0  0  0
 28 29  1  1  0  0  0
 30 31  1  0  0  0  0
 31 28  1  0  0  0  0
M  END
>  <MODEL>
6

>  <REMARK>
 VINA RESULT:      -8.2      2.752      7.698
  Name = 
  4 active torsions:
  status: ('A' for Active; 'I' for Inactive)
    1  A    between atoms: C_1  and  N_19
    2  A    between atoms: C_1  and  C_24
    3  A    between atoms: C_9  and  C_22
    4  A    between atoms: C_15  and  N_23
                            x       y       z     vdW  Elec       q    Type
                         _______ _______ _______ _____ _____    ______ ____

>  <TORSDO>
F 4

$$$$
=
 OpenBabel10272400343D

 31 34  0  0  1  0  0  0  0  0999 V2000
  183.9360  178.6780  143.6240 C   0  0  0  0  0  0  0  0  0  0  0  0
  185.5980  178.6480  140.2490 C   0  0  0  0  0  0  0  0  0  0  0  0
  184.5240  179.0110  139.2310 C   0  0  2  0  0  3  0  0  0  0  0  0
  182.1580  178.4280  139.5010 C   0  0  0  0  0  2  0  0  0  0  0  0
  185.3860  178.5950  141.6590 C   0  0  0  0  0  0  0  0  0  0  0  0
  185.0350  178.4840  144.4610 C   0  0  0  0  0  3  0  0  0  0  0  0
  183.1840  179.5380  139.7240 C   0  0  0  0  0  2  0  0  0  0  0  0
  187.9880  178.2250  140.6320 C   0  0  0  0  0  0  0  0  0  0  0  0
  182.6660  178.8190  144.1660 O   0  0  0  0  0  1  0  0  0  0  0  0
  186.4010  177.7960  137.3230 C   0  0  0  0  0  3  0  0  0  0  0  0
  182.7500  177.4560  138.4920 C   0  0  2  0  0  3  0  0  0  0  0  0
  187.7630  178.2240  142.0080 C   0  0  0  0  0  3  0  0  0  0  0  0
  186.9040  178.3890  139.7440 C   0  0  0  0  0  0  0  0  0  0  0  0
  184.1140  178.7310  142.2390 C   0  0  0  0  0  3  0  0  0  0  0  0
  182.6180  176.0400  139.0250 C   0  0  0  0  0  1  0  0  0  0  0  0
  186.4870  178.3870  142.5250 C   0  0  0  0  0  0  0  0  0  0  0  0
  186.3080  178.3380  143.9110 C   0  0  0  0  0  3  0  0  0  0  0  0
  187.2040  178.2590  138.2920 C   0  0  0  0  0  3  0  0  0  0  0  0
  185.0040  177.3520  137.4790 C   0  0  0  0  0  3  0  0  0  0  0  0
  184.1770  177.8440  138.3970 C   0  0  0  0  0  0  0  0  0  0  0  0
  189.9800  176.1800  141.3750 O   0  0  0  0  0  0  0  0  0  0  0  0
  190.2720  177.0400  140.5020 C   0  0  0  0  0  0  0  0  0  0  0  0
  189.3130  178.0330  140.1070 N   0  0  0  0  0  2  0  0  0  0  0  0
  192.5740  177.5280  140.4740 O   0  0  0  0  0  0  0  0  0  0  0  0
  193.0940  176.7000  137.8720 C   0  0  0  0  0  1  0  0  0  0  0  0
  191.8140  176.4740  138.5350 N   0  0  0  0  0  0  0  0  0  0  0  0
  191.5990  177.0260  139.8490 C   0  0  0  0  0  0  0  0  0  0  0  0
  190.8380  175.5790  137.9130 C   0  0  1  0  0  3  0  0  0  0  0  0
  190.0450  176.3060  136.8380 C   0  0  0  0  0  1  0  0  0  0  0  0
  190.5550  173.5380  136.5040 C   0  0  0  0  0  1  0  0  0  0  0  0
  191.5260  174.3440  137.3460 C   0  0  0  0  0  2  0  0  0  0  0  0
  1  9  1  0  0  0  0
  1  6  1  0  0  0  0
  2  5  1  0  0  0  0
  3  7  1  1  0  0  0
  3  2  1  0  0  0  0
  4  7  1  0  0  0  0
  5 14  1  0  0  0  0
  5 16  2  0  0  0  0
  8 12  2  0  0  0  0
 10 19  1  0  0  0  0
 10 18  2  0  0  0  0
 11 15  1  1  0  0  0
 11  4  1  0  0  0  0
 12 16  1  0  0  0  0
 13  2  2  0  0  0  0
 13  8  1  0  0  0  0
 14  1  2  0  0  0  0
 16 17  1  0  0  0  0
 17  6  2  0  0  0  0
 18 13  1  0  0  0  0
 19 20  2  0  0  0  0
 20 11  1  0  0  0  0
 20  3  1  0  0  0  0
 22 21  2  0  0  0  0
 23 22  1  0  0  0  0
 23  8  1  0  0  0  0
 25 26  1  0  0  0  0
 26 27  1  0  0  0  0
 27 24  2  0  0  0  0
 27 22  1  0  0  0  0
 28 29  1  6  0  0  0
 28 26  1  0  0  0  0
 30 31  1  0  0  0  0
 31 28  1  0  0  0  0
M  END
>  <MODEL>
7

>  <REMARK>
 VINA RESULT:      -7.8      3.591      6.654
  Name = 
  4 active torsions:
  status: ('A' for Active; 'I' for Inactive)
    1  A    between atoms: C_1  and  N_19
    2  A    between atoms: C_1  and  C_24
    3  A    between atoms: C_9  and  C_22
    4  A    between atoms: C_15  and  N_23
                            x       y       z     vdW  Elec       q    Type
                         _______ _______ _______ _____ _____    ______ ____

>  <TORSDO>
F 4

$$$$
=
 OpenBabel10272400343D

 31 34  0  0  1  0  0  0  0  0999 V2000
  181.8370  178.8970  143.3650 C   0  0  0  0  0  0  0  0  0  0  0  0
  184.3650  178.8030  140.5800 C   0  0  0  0  0  0  0  0  0  0  0  0
  183.6010  179.0680  139.2890 C   0  0  2  0  0  3  0  0  0  0  0  0
  181.2760  178.3820  138.9330 C   0  0  0  0  0  2  0  0  0  0  0  0
  183.7740  178.8010  141.8790 C   0  0  0  0  0  0  0  0  0  0  0  0
  182.6680  178.7940  144.4790 C   0  0  0  0  0  3  0  0  0  0  0  0
  182.1590  179.5500  139.3660 C   0  0  0  0  0  2  0  0  0  0  0  0
  186.5700  178.5150  141.6250 C   0  0  0  0  0  0  0  0  0  0  0  0
  180.4630  178.9980  143.5300 O   0  0  0  0  0  1  0  0  0  0  0  0
  185.9740  177.8660  138.0370 C   0  0  0  0  0  3  0  0  0  0  0  0
  182.1560  177.3970  138.1800 C   0  0  2  0  0  3  0  0  0  0  0  0
  185.9750  178.5630  142.8860 C   0  0  0  0  0  3  0  0  0  0  0  0
  185.7690  178.5870  140.4680 C   0  0  0  0  0  0  0  0  0  0  0  0
  182.3880  178.8990  142.0810 C   0  0  0  0  0  3  0  0  0  0  0  0
  181.9330  176.0010  138.7330 C   0  0  0  0  0  1  0  0  0  0  0  0
  184.6010  178.6850  143.0230 C   0  0  0  0  0  0  0  0  0  0  0  0
  184.0490  178.6870  144.3080 C   0  0  0  0  0  3  0  0  0  0  0  0
  186.4610  178.4090  139.1620 C   0  0  0  0  0  3  0  0  0  0  0  0
  184.6050  177.3610  137.8300 C   0  0  0  0  0  3  0  0  0  0  0  0
  183.5400  177.8510  138.4570 C   0  0  0  0  0  0  0  0  0  0  0  0
  188.2800  176.3050  142.5690 O   0  0  0  0  0  0  0  0  0  0  0  0
  188.8080  177.2880  141.9820 C   0  0  0  0  0  0  0  0  0  0  0  0
  187.9950  178.3660  141.4940 N   0  0  0  0  0  2  0  0  0  0  0  0
  191.0200  177.4020  142.7740 O   0  0  0  0  0  0  0  0  0  0  0  0
  192.2850  177.5950  140.3070 C   0  0  0  0  0  1  0  0  0  0  0  0
  190.8590  177.3190  140.4470 N   0  0  0  0  0  0  0  0  0  0  0  0
  190.2690  177.3350  141.7620 C   0  0  0  0  0  0  0  0  0  0  0  0
  190.0960  176.8950  139.2730 C   0  0  1  0  0  3  0  0  0  0  0  0
  189.7470  178.0880  138.3950 C   0  0  0  0  0  1  0  0  0  0  0  0
  190.0920  175.4470  137.2400 C   0  0  0  0  0  1  0  0  0  0  0  0
  190.8630  175.8400  138.4850 C   0  0  0  0  0  2  0  0  0  0  0  0
  1  9  1  0  0  0  0
  1  6  1  0  0  0  0
  2  5  1  0  0  0  0
  3  7  1  1  0  0  0
  3  2  1  0  0  0  0
  4  7  1  0  0  0  0
  5 14  1  0  0  0  0
  5 16  2  0  0  0  0
  8 12  2  0  0  0  0
 10 18  2  0  0  0  0
 11 20  1  0  0  0  0
 11 15  1  1  0  0  0
 11  4  1  0  0  0  0
 12 16  1  0  0  0  0
 13  2  2  0  0  0  0
 13  8  1  0  0  0  0
 14  1  2  0  0  0  0
 16 17  1  0  0  0  0
 17  6  2  0  0  0  0
 18 13  1  0  0  0  0
 19 10  1  0  0  0  0
 19 20  2  0  0  0  0
 20  3  1  0  0  0  0
 22 21  2  0  0  0  0
 23  8  1  0  0  0  0
 23 22  1  0  0  0  0
 25 26  1  0  0  0  0
 26 27  1  0  0  0  0
 27 22  1  0  0  0  0
 27 24  2  0  0  0  0
 28 29  1  6  0  0  0
 28 26  1  0  0  0  0
 30 31  1  0  0  0  0
 31 28  1  0  0  0  0
M  END
>  <MODEL>
8

>  <REMARK>
 VINA RESULT:      -7.7      2.784      6.672
  Name = 
  4 active torsions:
  status: ('A' for Active; 'I' for Inactive)
    1  A    between atoms: C_1  and  N_19
    2  A    between atoms: C_1  and  C_24
    3  A    between atoms: C_9  and  C_22
    4  A    between atoms: C_15  and  N_23
                            x       y       z     vdW  Elec       q    Type
                         _______ _______ _______ _____ _____    ______ ____

>  <TORSDO>
F 4

$$$$
=
 OpenBabel10272400343D

 31 34  0  0  1  0  0  0  0  0999 V2000
  185.0850  178.5810  145.3190 C   0  0  0  0  0  0  0  0  0  0  0  0
  188.5060  177.0370  145.0610 C   0  0  0  0  0  0  0  0  0  0  0  0
  188.8650  176.5380  146.4560 C   0  0  2  0  0  3  0  0  0  0  0  0
  188.1000  177.6230  148.5150 C   0  0  0  0  0  2  0  0  0  0  0  0
  187.2630  177.6480  144.7200 C   0  0  0  0  0  0  0  0  0  0  0  0
  184.8180  178.8540  143.9770 C   0  0  0  0  0  3  0  0  0  0  0  0
  187.7870  176.4990  147.5290 C   0  0  0  0  0  2  0  0  0  0  0  0
  189.1450  177.1020  142.6900 C   0  0  0  0  0  0  0  0  0  0  0  0
  184.1490  178.8980  146.2920 O   0  0  0  0  0  1  0  0  0  0  0  0
  191.6060  176.5730  145.3940 C   0  0  0  0  0  3  0  0  0  0  0  0
  189.5530  178.0190  148.3100 C   0  0  2  0  0  3  0  0  0  0  0  0
  187.9040  177.6560  142.3750 C   0  0  0  0  0  3  0  0  0  0  0  0
  189.4720  176.8340  144.0340 C   0  0  0  0  0  0  0  0  0  0  0  0
  186.2960  177.9850  145.6820 C   0  0  0  0  0  3  0  0  0  0  0  0
  189.6470  179.5280  148.1720 C   0  0  0  0  0  1  0  0  0  0  0  0
  186.9790  177.9460  143.3650 C   0  0  0  0  0  0  0  0  0  0  0  0
  185.7640  178.5380  143.0020 C   0  0  0  0  0  3  0  0  0  0  0  0
  190.8570  176.3560  144.3030 C   0  0  0  0  0  3  0  0  0  0  0  0
  191.1980  177.3040  146.6070 C   0  0  0  0  0  3  0  0  0  0  0  0
  189.9430  177.3560  147.0440 C   0  0  0  0  0  0  0  0  0  0  0  0
  189.3650  178.3230  140.0130 O   0  0  0  0  0  0  0  0  0  0  0  0
  190.1790  177.4220  140.3510 C   0  0  0  0  0  0  0  0  0  0  0  0
  190.1070  176.8270  141.6550 N   0  0  0  0  0  2  0  0  0  0  0  0
  192.4410  177.1640  139.7570 O   0  0  0  0  0  0  0  0  0  0  0  0
  192.0370  176.1630  137.1960 C   0  0  0  0  0  1  0  0  0  0  0  0
  190.9500  176.3630  138.1490 N   0  0  0  0  0  0  0  0  0  0  0  0
  191.2390  176.9800  139.4200 C   0  0  0  0  0  0  0  0  0  0  0  0
  189.6300  175.8050  137.8530 C   0  0  1  0  0  3  0  0  0  0  0  0
  188.8800  176.6870  136.8650 C   0  0  0  0  0  1  0  0  0  0  0  0
  188.5100  173.9920  136.5540 C   0  0  0  0  0  1  0  0  0  0  0  0
  189.7530  174.3790  137.3310 C   0  0  0  0  0  2  0  0  0  0  0  0
  1 14  1  0  0  0  0
  1  9  1  0  0  0  0
  2  3  1  0  0  0  0
  3 20  1  0  0  0  0
  3  7  1  1  0  0  0
  5  2  1  0  0  0  0
  5 14  2  0  0  0  0
  6  1  2  0  0  0  0
  7  4  1  0  0  0  0
  8 13  1  0  0  0  0
 10 19  1  0  0  0  0
 11 15  1  6  0  0  0
 11  4  1  0  0  0  0
 12  8  2  0  0  0  0
 12 16  1  0  0  0  0
 13 18  1  0  0  0  0
 13  2  2  0  0  0  0
 16  5  1  0  0  0  0
 17 16  2  0  0  0  0
 17  6  1  0  0  0  0
 18 10  2  0  0  0  0
 19 20  2  0  0  0  0
 20 11  1  0  0  0  0
 21 22  2  0  0  0  0
 22 23  1  0  0  0  0
 23  8  1  0  0  0  0
 25 26  1  0  0  0  0
 26 27  1  0  0  0  0
 27 24  2  0  0  0  0
 27 22  1  0  0  0  0
 28 29  1  6  0  0  0
 28 26  1  0  0  0  0
 30 31  1  0  0  0  0
 31 28  1  0  0  0  0
M  END
>  <MODEL>
9

>  <REMARK>
 VINA RESULT:      -7.5      3.546      5.310
  Name = 
  4 active torsions:
  status: ('A' for Active; 'I' for Inactive)
    1  A    between atoms: C_1  and  N_19
    2  A    between atoms: C_1  and  C_24
    3  A    between atoms: C_9  and  C_22
    4  A    between atoms: C_15  and  N_23
                            x       y       z     vdW  Elec       q    Type
                         _______ _______ _______ _____ _____    ______ ____

>  <TORSDO>
F 4

$$$$
