=
 OpenBabel10272414263D

 43 48  0  0  1  0  0  0  0  0999 V2000
  189.3920  177.3870  140.5940 N   0  0  0  0  0  2  0  0  0  0  0  0
  187.8350  177.6870  147.8380 C   0  0  0  0  0  0  0  0  0  0  0  0
  188.4550  177.6570  142.8440 C   0  0  0  0  0  0  0  0  0  0  0  0
  186.1040  178.5960  141.7520 C   0  0  0  0  0  0  0  0  0  0  0  0
  188.7250  177.4410  145.6010 C   0  0  0  0  0  0  0  0  0  0  0  0
  186.6320  178.1640  147.3120 C   0  0  0  0  0  3  0  0  0  0  0  0
  187.9890  177.5730  149.1800 F   0  0  0  0  0  0  0  0  0  0  0  0
  187.5110  177.9240  145.0610 C   0  0  0  0  0  0  0  0  0  0  0  0
  188.8810  177.3240  146.9840 C   0  0  0  0  0  3  0  0  0  0  0  0
  186.4690  178.2840  145.9290 C   0  0  0  0  0  3  0  0  0  0  0  0
  186.2270  178.4920  143.1030 N   0  0  0  0  0  0  0  0  0  0  0  0
  187.3750  178.0330  143.6680 C   0  0  0  0  0  0  0  0  0  0  0  0
  189.6100  177.1950  143.3960 N   0  0  0  0  0  0  0  0  0  0  0  0
  188.3080  177.7670  141.4560 C   0  0  0  0  0  0  0  0  0  0  0  0
  187.1370  178.2330  140.9470 N   0  0  0  0  0  0  0  0  0  0  0  0
  189.7650  177.0810  144.7420 C   0  0  0  0  0  3  0  0  0  0  0  0
  189.8700  176.2680  137.0720 C   0  0  0  0  0  3  0  0  0  0  0  0
  189.4960  177.4090  136.3530 C   0  0  0  0  0  0  0  0  0  0  0  0
  189.0380  178.5600  138.4330 C   0  0  0  0  0  3  0  0  0  0  0  0
  189.8320  176.2770  138.4690 C   0  0  0  0  0  3  0  0  0  0  0  0
  189.4180  177.4210  139.1600 C   0  0  0  0  0  0  0  0  0  0  0  0
  189.0760  178.5540  137.0360 C   0  0  0  0  0  3  0  0  0  0  0  0
  189.5210  177.3940  134.8640 C   0  0  0  0  0  2  0  0  0  0  0  0
  189.0570  176.0450  134.3460 C   0  0  0  0  0  1  0  0  0  0  0  0
  184.8370  179.0910  141.1410 C   0  0  2  0  0  3  0  0  0  0  0  0
  183.6370  178.4180  141.7820 C   0  0  0  0  0  1  0  0  0  0  0  0
  184.8430  178.7900  139.3470 S   0  0  0  0  0  0  0  0  0  0  0  0
  183.1570  179.4390  139.1460 C   0  0  1  0  0  3  0  0  0  0  0  0
  183.2230  180.7690  138.7770 F   0  0  0  0  0  0  0  0  0  0  0  0
  182.4170  178.6500  138.0660 C   0  0  0  0  0  2  0  0  0  0  0  0
  182.4060  177.1960  138.2910 N   0  0  0  0  0  0  0  0  0  0  0  0
  180.7140  176.8060  140.0010 C   0  0  0  0  0  2  0  0  0  0  0  0
  181.0470  176.7120  138.5230 C   0  0  0  0  0  3  0  0  0  0  0  0
  181.0890  175.4720  139.3980 C   0  0  0  0  0  2  0  0  0  0  0  0
  183.0940  176.3660  136.9200 S   0  0  0  0  0  0  0  0  0  0  0  0
  182.0250  175.6110  136.1780 O   0  0  0  0  0  0  0  0  0  0  0  0
  183.7310  177.3620  135.9890 O   0  0  0  0  0  0  0  0  0  0  0  0
  184.3360  175.2170  137.4840 C   0  0  1  0  0  3  0  0  0  0  0  0
  186.6720  174.4150  137.0240 C   0  0  0  0  0  3  0  0  0  0  0  0
  184.9680  172.8460  137.7430 C   0  0  0  0  0  2  0  0  0  0  0  0
  186.3250  173.2230  137.3830 N   0  0  0  0  0  0  0  0  0  0  0  0
  183.9300  173.7910  137.1450 C   0  0  0  0  0  2  0  0  0  0  0  0
  185.6740  175.5290  136.8250 C   0  0  0  0  0  2  0  0  0  0  0  0
  1 14  1  0  0  0  0
  2  7  1  0  0  0  0
  3 13  2  0  0  0  0
  3 12  1  0  0  0  0
  4 11  2  0  0  0  0
  5  9  1  0  0  0  0
  6  2  1  0  0  0  0
  8  5  1  0  0  0  0
  8 10  1  0  0  0  0
  9  2  2  0  0  0  0
 10  6  2  0  0  0  0
 11 12  1  0  0  0  0
 12  8  2  0  0  0  0
 13 16  1  0  0  0  0
 14  3  1  0  0  0  0
 15 14  2  0  0  0  0
 15  4  1  0  0  0  0
 16  5  2  0  0  0  0
 17 20  1  0  0  0  0
 18 22  1  0  0  0  0
 18 17  2  0  0  0  0
 19 21  1  0  0  0  0
 20 21  2  0  0  0  0
 21  1  1  0  0  0  0
 22 19  2  0  0  0  0
 23 18  1  0  0  0  0
 24 23  1  0  0  0  0
 25  4  1  0  0  0  0
 25 26  1  1  0  0  0
 27 25  1  0  0  0  0
 28 29  1  6  0  0  0
 28 27  1  0  0  0  0
 30 31  1  0  0  0  0
 30 28  1  0  0  0  0
 31 33  1  0  0  0  0
 33 34  1  0  0  0  0
 33 32  1  0  0  0  0
 34 32  1  0  0  0  0
 35 31  1  0  0  0  0
 36 35  2  0  0  0  0
 37 35  2  0  0  0  0
 38 35  1  6  0  0  0
 39 41  2  0  0  0  0
 41 40  1  0  0  0  0
 42 38  1  0  0  0  0
 42 40  1  0  0  0  0
 43 39  1  0  0  0  0
 43 38  1  0  0  0  0
M  END
>  <MODEL>
1

>  <REMARK>
 VINA RESULT:      -8.8      0.000      0.000
  Name = 
  10 active torsions:
  status: ('A' for Active; 'I' for Inactive)
    1  A    between atoms: N_1  and  C_35
    2  A    between atoms: C_2  and  S_6
    3  A    between atoms: C_2  and  C_13
    4  A    between atoms: C_3  and  N_4
    5  A    between atoms: C_3  and  C_12
    6  A    between atoms: N_4  and  S_14
    7  A    between atoms: N_4  and  C_15
    8  A    between atoms: S_6  and  C_12
    9  A    between atoms: C_11  and  S_14
   10  A    between atoms: C_19  and  C_25
                            x       y       z     vdW  Elec       q    Type
                         _______ _______ _______ _____ _____    ______ ____

>  <TORSDO>
F 10

$$$$
=
 OpenBabel10272414263D

 43 48  0  0  1  0  0  0  0  0999 V2000
  185.6910  178.2940  142.8570 N   0  0  0  0  0  2  0  0  0  0  0  0
  191.3570  176.5430  147.3090 C   0  0  0  0  0  0  0  0  0  0  0  0
  187.8050  177.6490  143.9210 C   0  0  0  0  0  0  0  0  0  0  0  0
  188.9650  177.3590  141.4370 C   0  0  0  0  0  0  0  0  0  0  0  0
  189.2880  177.1690  146.2200 C   0  0  0  0  0  0  0  0  0  0  0  0
  191.9710  176.3900  146.0630 C   0  0  0  0  0  3  0  0  0  0  0  0
  192.0620  176.3150  148.4440 F   0  0  0  0  0  0  0  0  0  0  0  0
  189.9030  177.0160  144.9570 C   0  0  0  0  0  0  0  0  0  0  0  0
  190.0170  176.9330  147.3890 C   0  0  0  0  0  3  0  0  0  0  0  0
  191.2480  176.6240  144.8900 C   0  0  0  0  0  3  0  0  0  0  0  0
  189.7000  177.1220  142.5580 N   0  0  0  0  0  0  0  0  0  0  0  0
  189.1520  177.2580  143.7950 C   0  0  0  0  0  0  0  0  0  0  0  0
  187.2430  177.7880  145.1530 N   0  0  0  0  0  0  0  0  0  0  0  0
  187.0650  177.8910  142.7570 C   0  0  0  0  0  0  0  0  0  0  0  0
  187.6660  177.7390  141.5450 N   0  0  0  0  0  0  0  0  0  0  0  0
  187.9500  177.5590  146.2920 C   0  0  0  0  0  3  0  0  0  0  0  0
  182.5160  178.5980  140.9290 C   0  0  0  0  0  3  0  0  0  0  0  0
  182.9630  179.1510  139.7230 C   0  0  0  0  0  0  0  0  0  0  0  0
  185.2300  179.1530  140.5730 C   0  0  0  0  0  3  0  0  0  0  0  0
  183.4280  178.3200  141.9510 C   0  0  0  0  0  3  0  0  0  0  0  0
  184.7900  178.5930  141.7820 C   0  0  0  0  0  0  0  0  0  0  0  0
  184.3210  179.4320  139.5490 C   0  0  0  0  0  3  0  0  0  0  0  0
  181.9900  179.4630  138.6390 C   0  0  0  0  0  2  0  0  0  0  0  0
  181.8840  180.9630  138.4470 C   0  0  0  0  0  1  0  0  0  0  0  0
  189.5770  177.2170  140.0850 C   0  0  2  0  0  3  0  0  0  0  0  0
  191.0920  177.2720  140.1760 C   0  0  0  0  0  1  0  0  0  0  0  0
  188.9670  178.5250  138.9770 S   0  0  0  0  0  0  0  0  0  0  0  0
  188.0260  177.3450  137.9640 C   0  0  1  0  0  3  0  0  0  0  0  0
  186.7250  177.7920  137.8350 F   0  0  0  0  0  0  0  0  0  0  0  0
  188.6590  177.2240  136.5770 C   0  0  0  0  0  2  0  0  0  0  0  0
  188.8750  175.8360  136.1390 N   0  0  0  0  0  0  0  0  0  0  0  0
  190.7180  174.8020  137.3540 C   0  0  0  0  0  2  0  0  0  0  0  0
  189.2110  174.9750  137.2710 C   0  0  0  0  0  3  0  0  0  0  0  0
  189.8650  173.7010  136.7680 C   0  0  0  0  0  2  0  0  0  0  0  0
  187.4480  175.2220  135.3450 S   0  0  0  0  0  0  0  0  0  0  0  0
  186.7290  176.3350  134.6320 O   0  0  0  0  0  0  0  0  0  0  0  0
  187.8370  174.1660  134.3460 O   0  0  0  0  0  0  0  0  0  0  0  0
  186.3560  174.5040  136.5580 C   0  0  1  0  0  3  0  0  0  0  0  0
  185.0020  172.4480  137.0580 C   0  0  0  0  0  3  0  0  0  0  0  0
  184.1590  174.6370  137.6720 C   0  0  0  0  0  2  0  0  0  0  0  0
  184.1100  173.1850  137.6320 N   0  0  0  0  0  0  0  0  0  0  0  0
  185.0130  175.2150  136.5470 C   0  0  0  0  0  2  0  0  0  0  0  0
  186.1440  173.0250  136.2590 C   0  0  0  0  0  2  0  0  0  0  0  0
  2  9  1  0  0  0  0
  2  7  1  0  0  0  0
  3 13  1  0  0  0  0
  4 15  1  0  0  0  0
  4 11  2  0  0  0  0
  5 16  1  0  0  0  0
  5  9  2  0  0  0  0
  6  2  2  0  0  0  0
  8  5  1  0  0  0  0
 10  8  2  0  0  0  0
 10  6  1  0  0  0  0
 11 12  1  0  0  0  0
 12  3  2  0  0  0  0
 12  8  1  0  0  0  0
 13 16  2  0  0  0  0
 14  1  1  0  0  0  0
 14  3  1  0  0  0  0
 15 14  2  0  0  0  0
 17 20  1  0  0  0  0
 18 17  2  0  0  0  0
 19 21  1  0  0  0  0
 21 20  2  0  0  0  0
 21  1  1  0  0  0  0
 22 18  1  0  0  0  0
 22 19  2  0  0  0  0
 23 18  1  0  0  0  0
 24 23  1  0  0  0  0
 25 26  1  1  0  0  0
 25  4  1  0  0  0  0
 27 25  1  0  0  0  0
 28 29  1  6  0  0  0
 28 27  1  0  0  0  0
 30 28  1  0  0  0  0
 31 30  1  0  0  0  0
 31 33  1  0  0  0  0
 33 32  1  0  0  0  0
 34 33  1  0  0  0  0
 34 32  1  0  0  0  0
 35 31  1  0  0  0  0
 36 35  2  0  0  0  0
 37 35  2  0  0  0  0
 38 35  1  6  0  0  0
 39 41  2  0  0  0  0
 41 40  1  0  0  0  0
 42 38  1  0  0  0  0
 42 40  1  0  0  0  0
 43 38  1  0  0  0  0
 43 39  1  0  0  0  0
M  END
>  <MODEL>
2

>  <REMARK>
 VINA RESULT:      -8.6      2.264      5.348
  Name = 
  10 active torsions:
  status: ('A' for Active; 'I' for Inactive)
    1  A    between atoms: N_1  and  C_35
    2  A    between atoms: C_2  and  S_6
    3  A    between atoms: C_2  and  C_13
    4  A    between atoms: C_3  and  N_4
    5  A    between atoms: C_3  and  C_12
    6  A    between atoms: N_4  and  S_14
    7  A    between atoms: N_4  and  C_15
    8  A    between atoms: S_6  and  C_12
    9  A    between atoms: C_11  and  S_14
   10  A    between atoms: C_19  and  C_25
                            x       y       z     vdW  Elec       q    Type
                         _______ _______ _______ _____ _____    ______ ____

>  <TORSDO>
F 10

$$$$
=
 OpenBabel10272414263D

 43 48  0  0  1  0  0  0  0  0999 V2000
  185.6020  178.3070  142.7390 N   0  0  0  0  0  2  0  0  0  0  0  0
  191.2490  176.6200  147.2400 C   0  0  0  0  0  0  0  0  0  0  0  0
  187.7150  177.6890  143.8210 C   0  0  0  0  0  0  0  0  0  0  0  0
  188.9050  177.4300  141.3480 C   0  0  0  0  0  0  0  0  0  0  0  0
  189.1820  177.2200  146.1330 C   0  0  0  0  0  0  0  0  0  0  0  0
  191.8780  176.4830  146.0000 C   0  0  0  0  0  3  0  0  0  0  0  0
  191.9460  176.3970  148.3800 F   0  0  0  0  0  0  0  0  0  0  0  0
  189.8120  177.0830  144.8750 C   0  0  0  0  0  0  0  0  0  0  0  0
  189.9020  176.9900  147.3070 C   0  0  0  0  0  3  0  0  0  0  0  0
  191.1640  176.7120  144.8200 C   0  0  0  0  0  3  0  0  0  0  0  0
  189.6320  177.1990  142.4750 N   0  0  0  0  0  0  0  0  0  0  0  0
  189.0690  177.3190  143.7070 C   0  0  0  0  0  0  0  0  0  0  0  0
  187.1390  177.8130  145.0480 N   0  0  0  0  0  0  0  0  0  0  0  0
  186.9840  177.9260  142.6500 C   0  0  0  0  0  0  0  0  0  0  0  0
  187.5980  177.7900  141.4450 N   0  0  0  0  0  0  0  0  0  0  0  0
  187.8380  177.5890  146.1930 C   0  0  0  0  0  3  0  0  0  0  0  0
  182.4300  178.6750  140.8180 C   0  0  0  0  0  3  0  0  0  0  0  0
  182.8930  179.1450  139.5840 C   0  0  0  0  0  0  0  0  0  0  0  0
  185.1650  179.0750  140.4180 C   0  0  0  0  0  3  0  0  0  0  0  0
  183.3350  178.4020  141.8470 C   0  0  0  0  0  3  0  0  0  0  0  0
  184.7080  178.5980  141.6560 C   0  0  0  0  0  0  0  0  0  0  0  0
  184.2620  179.3480  139.3870 C   0  0  0  0  0  3  0  0  0  0  0  0
  181.9270  179.4520  138.4920 C   0  0  0  0  0  2  0  0  0  0  0  0
  182.0020  178.3890  137.4130 C   0  0  0  0  0  1  0  0  0  0  0  0
  189.5330  177.3050  140.0010 C   0  0  2  0  0  3  0  0  0  0  0  0
  191.0450  177.2550  140.1200 C   0  0  0  0  0  1  0  0  0  0  0  0
  189.0320  178.6950  138.9410 S   0  0  0  0  0  0  0  0  0  0  0  0
  187.9360  177.6470  137.9380 C   0  0  1  0  0  3  0  0  0  0  0  0
  187.0470  178.4490  137.2470 F   0  0  0  0  0  0  0  0  0  0  0  0
  188.7600  176.8300  136.9420 C   0  0  0  0  0  2  0  0  0  0  0  0
  188.4780  175.3860  136.9780 N   0  0  0  0  0  0  0  0  0  0  0  0
  186.0900  174.9010  136.9430 C   0  0  0  0  0  2  0  0  0  0  0  0
  187.3510  175.0500  136.1110 C   0  0  0  0  0  3  0  0  0  0  0  0
  186.8260  173.6710  136.4660 C   0  0  0  0  0  2  0  0  0  0  0  0
  189.8850  174.4820  136.4820 S   0  0  0  0  0  0  0  0  0  0  0  0
  190.0180  173.2310  137.3080 O   0  0  0  0  0  0  0  0  0  0  0  0
  189.7610  174.1050  135.0310 O   0  0  0  0  0  0  0  0  0  0  0  0
  191.3430  175.4840  136.7020 C   0  0  1  0  0  3  0  0  0  0  0  0
  193.4220  176.2710  135.5310 C   0  0  0  0  0  3  0  0  0  0  0  0
  193.4840  175.7530  137.8990 C   0  0  0  0  0  2  0  0  0  0  0  0
  194.0590  176.2360  136.6550 N   0  0  0  0  0  0  0  0  0  0  0  0
  192.3090  174.8090  137.6620 C   0  0  0  0  0  2  0  0  0  0  0  0
  192.0360  175.7000  135.3620 C   0  0  0  0  0  2  0  0  0  0  0  0
  2  9  1  0  0  0  0
  2  7  1  0  0  0  0
  3 13  1  0  0  0  0
  4 15  1  0  0  0  0
  4 11  2  0  0  0  0
  5 16  1  0  0  0  0
  5  9  2  0  0  0  0
  6  2  2  0  0  0  0
  8  5  1  0  0  0  0
 10  8  2  0  0  0  0
 10  6  1  0  0  0  0
 11 12  1  0  0  0  0
 12  3  2  0  0  0  0
 12  8  1  0  0  0  0
 13 16  2  0  0  0  0
 14  1  1  0  0  0  0
 14  3  1  0  0  0  0
 15 14  2  0  0  0  0
 17 20  1  0  0  0  0
 18 17  2  0  0  0  0
 19 21  1  0  0  0  0
 21 20  2  0  0  0  0
 21  1  1  0  0  0  0
 22 18  1  0  0  0  0
 22 19  2  0  0  0  0
 23 18  1  0  0  0  0
 24 23  1  0  0  0  0
 25 26  1  1  0  0  0
 25  4  1  0  0  0  0
 27 25  1  0  0  0  0
 28 29  1  6  0  0  0
 28 27  1  0  0  0  0
 30 31  1  0  0  0  0
 30 28  1  0  0  0  0
 33 34  1  0  0  0  0
 33 32  1  0  0  0  0
 33 31  1  0  0  0  0
 34 32  1  0  0  0  0
 35 31  1  0  0  0  0
 35 36  2  0  0  0  0
 37 35  2  0  0  0  0
 38 35  1  6  0  0  0
 38 42  1  0  0  0  0
 39 41  2  0  0  0  0
 41 40  1  0  0  0  0
 42 40  1  0  0  0  0
 43 39  1  0  0  0  0
 43 38  1  0  0  0  0
M  END
>  <MODEL>
3

>  <REMARK>
 VINA RESULT:      -8.6      2.878      5.868
  Name = 
  10 active torsions:
  status: ('A' for Active; 'I' for Inactive)
    1  A    between atoms: N_1  and  C_35
    2  A    between atoms: C_2  and  S_6
    3  A    between atoms: C_2  and  C_13
    4  A    between atoms: C_3  and  N_4
    5  A    between atoms: C_3  and  C_12
    6  A    between atoms: N_4  and  S_14
    7  A    between atoms: N_4  and  C_15
    8  A    between atoms: S_6  and  C_12
    9  A    between atoms: C_11  and  S_14
   10  A    between atoms: C_19  and  C_25
                            x       y       z     vdW  Elec       q    Type
                         _______ _______ _______ _____ _____    ______ ____

>  <TORSDO>
F 10

$$$$
=
 OpenBabel10272414263D

 43 48  0  0  1  0  0  0  0  0999 V2000
  186.4800  177.9380  144.5890 N   0  0  0  0  0  2  0  0  0  0  0  0
  181.2220  179.4270  139.5760 C   0  0  0  0  0  0  0  0  0  0  0  0
  185.1050  178.4370  142.6200 C   0  0  0  0  0  0  0  0  0  0  0  0
  187.3610  178.4030  141.0360 C   0  0  0  0  0  0  0  0  0  0  0  0
  182.6150  178.9400  141.4940 C   0  0  0  0  0  0  0  0  0  0  0  0
  182.3480  179.4140  138.7490 C   0  0  0  0  0  3  0  0  0  0  0  0
  179.9980  179.6690  139.0470 F   0  0  0  0  0  0  0  0  0  0  0  0
  183.7590  178.9250  140.6640 C   0  0  0  0  0  0  0  0  0  0  0  0
  181.3540  179.1890  140.9470 C   0  0  0  0  0  3  0  0  0  0  0  0
  183.6130  179.1660  139.2890 C   0  0  0  0  0  3  0  0  0  0  0  0
  186.1450  178.6490  140.4750 N   0  0  0  0  0  0  0  0  0  0  0  0
  185.0170  178.6720  141.2340 C   0  0  0  0  0  0  0  0  0  0  0  0
  183.9830  178.4580  143.3910 N   0  0  0  0  0  0  0  0  0  0  0  0
  186.3630  178.1830  143.1780 C   0  0  0  0  0  0  0  0  0  0  0  0
  187.4580  178.1730  142.3710 N   0  0  0  0  0  0  0  0  0  0  0  0
  182.7540  178.7010  142.8620 C   0  0  0  0  0  3  0  0  0  0  0  0
  188.7570  177.3620  147.4820 C   0  0  0  0  0  3  0  0  0  0  0  0
  189.9740  177.0980  146.8430 C   0  0  0  0  0  0  0  0  0  0  0  0
  188.8980  177.3790  144.6930 C   0  0  0  0  0  3  0  0  0  0  0  0
  187.6150  177.6380  146.7250 C   0  0  0  0  0  3  0  0  0  0  0  0
  187.6760  177.6510  145.3270 C   0  0  0  0  0  0  0  0  0  0  0  0
  190.0410  177.1030  145.4470 C   0  0  0  0  0  3  0  0  0  0  0  0
  191.1870  176.7860  147.6490 C   0  0  0  0  0  2  0  0  0  0  0  0
  192.0310  175.7430  146.9420 C   0  0  0  0  0  1  0  0  0  0  0  0
  188.5920  178.3700  140.1950 C   0  0  2  0  0  3  0  0  0  0  0  0
  188.2340  178.1670  138.7340 C   0  0  0  0  0  1  0  0  0  0  0  0
  189.7050  177.0470  140.7590 S   0  0  0  0  0  0  0  0  0  0  0  0
  190.8180  177.2610  139.3390 C   0  0  1  0  0  3  0  0  0  0  0  0
  192.0620  177.6570  139.7920 F   0  0  0  0  0  0  0  0  0  0  0  0
  190.9540  175.9430  138.5750 C   0  0  0  0  0  2  0  0  0  0  0  0
  191.4250  176.1020  137.1910 N   0  0  0  0  0  0  0  0  0  0  0  0
  193.7500  175.5930  137.7210 C   0  0  0  0  0  2  0  0  0  0  0  0
  192.5330  175.1910  136.9060 C   0  0  0  0  0  3  0  0  0  0  0  0
  193.6710  175.9590  136.2570 C   0  0  0  0  0  2  0  0  0  0  0  0
  190.1230  175.8030  136.0690 S   0  0  0  0  0  0  0  0  0  0  0  0
  189.5310  177.1030  135.5990 O   0  0  0  0  0  0  0  0  0  0  0  0
  190.6410  175.0380  134.8810 O   0  0  0  0  0  0  0  0  0  0  0  0
  188.8560  174.8410  136.8740 C   0  0  1  0  0  3  0  0  0  0  0  0
  187.9430  172.5090  137.0760 C   0  0  0  0  0  3  0  0  0  0  0  0
  186.4360  174.4090  137.0890 C   0  0  0  0  0  2  0  0  0  0  0  0
  186.7510  172.9950  137.1980 N   0  0  0  0  0  0  0  0  0  0  0  0
  187.4900  175.1750  136.2950 C   0  0  0  0  0  2  0  0  0  0  0  0
  189.1310  173.3530  136.6870 C   0  0  0  0  0  2  0  0  0  0  0  0
  1 21  1  0  0  0  0
  2  9  1  0  0  0  0
  3 14  1  0  0  0  0
  3 13  1  0  0  0  0
  4 15  1  0  0  0  0
  5 16  1  0  0  0  0
  6 10  1  0  0  0  0
  6  2  2  0  0  0  0
  7  2  1  0  0  0  0
  8 12  1  0  0  0  0
  8  5  1  0  0  0  0
  9  5  2  0  0  0  0
 10  8  2  0  0  0  0
 11  4  2  0  0  0  0
 11 12  1  0  0  0  0
 12  3  2  0  0  0  0
 14  1  1  0  0  0  0
 15 14  2  0  0  0  0
 16 13  2  0  0  0  0
 18 17  1  0  0  0  0
 18 23  1  0  0  0  0
 19 21  2  0  0  0  0
 19 22  1  0  0  0  0
 20 17  2  0  0  0  0
 21 20  1  0  0  0  0
 22 18  2  0  0  0  0
 24 23  1  0  0  0  0
 25 26  1  6  0  0  0
 25 27  1  0  0  0  0
 25  4  1  0  0  0  0
 28 29  1  1  0  0  0
 28 27  1  0  0  0  0
 30 28  1  0  0  0  0
 31 30  1  0  0  0  0
 33 31  1  0  0  0  0
 33 32  1  0  0  0  0
 34 33  1  0  0  0  0
 34 32  1  0  0  0  0
 35 31  1  0  0  0  0
 36 35  2  0  0  0  0
 37 35  2  0  0  0  0
 38 35  1  6  0  0  0
 39 41  2  0  0  0  0
 40 41  1  0  0  0  0
 42 38  1  0  0  0  0
 42 40  1  0  0  0  0
 43 38  1  0  0  0  0
 43 39  1  0  0  0  0
M  END
>  <MODEL>
4

>  <REMARK>
 VINA RESULT:      -8.3      3.167      7.867
  Name = 
  10 active torsions:
  status: ('A' for Active; 'I' for Inactive)
    1  A    between atoms: N_1  and  C_35
    2  A    between atoms: C_2  and  S_6
    3  A    between atoms: C_2  and  C_13
    4  A    between atoms: C_3  and  N_4
    5  A    between atoms: C_3  and  C_12
    6  A    between atoms: N_4  and  S_14
    7  A    between atoms: N_4  and  C_15
    8  A    between atoms: S_6  and  C_12
    9  A    between atoms: C_11  and  S_14
   10  A    between atoms: C_19  and  C_25
                            x       y       z     vdW  Elec       q    Type
                         _______ _______ _______ _____ _____    ______ ____

>  <TORSDO>
F 10

$$$$
=
 OpenBabel10272414263D

 43 48  0  0  1  0  0  0  0  0999 V2000
  186.8150  177.8580  144.4130 N   0  0  0  0  0  2  0  0  0  0  0  0
  181.6540  179.4300  139.3250 C   0  0  0  0  0  0  0  0  0  0  0  0
  185.4790  178.3950  142.4280 C   0  0  0  0  0  0  0  0  0  0  0  0
  187.7690  178.4200  140.8930 C   0  0  0  0  0  0  0  0  0  0  0  0
  183.0100  178.9050  141.2600 C   0  0  0  0  0  0  0  0  0  0  0  0
  182.7990  179.4470  138.5230 C   0  0  0  0  0  3  0  0  0  0  0  0
  180.4400  179.6750  138.7760 F   0  0  0  0  0  0  0  0  0  0  0  0
  184.1720  178.9210  140.4550 C   0  0  0  0  0  0  0  0  0  0  0  0
  181.7590  179.1580  140.6920 C   0  0  0  0  0  3  0  0  0  0  0  0
  184.0540  179.1950  139.0840 C   0  0  0  0  0  3  0  0  0  0  0  0
  186.5640  178.6690  140.3120 N   0  0  0  0  0  0  0  0  0  0  0  0
  185.4190  178.6640  141.0460 C   0  0  0  0  0  0  0  0  0  0  0  0
  184.3410  178.3870  143.1740 N   0  0  0  0  0  0  0  0  0  0  0  0
  186.7270  178.1370  143.0070 C   0  0  0  0  0  0  0  0  0  0  0  0
  187.8390  178.1560  142.2240 N   0  0  0  0  0  0  0  0  0  0  0  0
  183.1220  178.6330  142.6240 C   0  0  0  0  0  3  0  0  0  0  0  0
  189.0660  177.3580  147.3400 C   0  0  0  0  0  3  0  0  0  0  0  0
  190.2690  176.9980  146.7220 C   0  0  0  0  0  0  0  0  0  0  0  0
  189.2040  177.1940  144.5560 C   0  0  0  0  0  3  0  0  0  0  0  0
  187.9370  177.6400  146.5660 C   0  0  0  0  0  3  0  0  0  0  0  0
  187.9970  177.5620  145.1700 C   0  0  0  0  0  0  0  0  0  0  0  0
  190.3350  176.9130  145.3280 C   0  0  0  0  0  3  0  0  0  0  0  0
  191.4670  176.6820  147.5480 C   0  0  0  0  0  2  0  0  0  0  0  0
  192.3010  175.6100  146.8710 C   0  0  0  0  0  1  0  0  0  0  0  0
  189.0180  178.4180  140.0790 C   0  0  2  0  0  3  0  0  0  0  0  0
  188.7160  178.7930  138.6390 C   0  0  0  0  0  1  0  0  0  0  0  0
  189.8140  176.7830  140.1490 S   0  0  0  0  0  0  0  0  0  0  0  0
  190.5220  176.9620  138.4850 C   0  0  1  0  0  3  0  0  0  0  0  0
  191.8730  177.2300  138.5910 F   0  0  0  0  0  0  0  0  0  0  0  0
  190.3230  175.6710  137.6890 C   0  0  0  0  0  2  0  0  0  0  0  0
  189.2160  175.7300  136.7230 N   0  0  0  0  0  0  0  0  0  0  0  0
  189.3730  177.6650  135.2490 C   0  0  0  0  0  2  0  0  0  0  0  0
  189.6840  176.1880  135.4160 C   0  0  0  0  0  3  0  0  0  0  0  0
  188.5000  176.6310  134.5760 C   0  0  0  0  0  2  0  0  0  0  0  0
  188.4710  174.1610  136.5570 S   0  0  0  0  0  0  0  0  0  0  0  0
  188.4370  173.7500  135.1100 O   0  0  0  0  0  0  0  0  0  0  0  0
  189.2540  173.1420  137.3410 O   0  0  0  0  0  0  0  0  0  0  0  0
  186.8040  174.2260  137.1860 C   0  0  1  0  0  3  0  0  0  0  0  0
  184.8010  172.7940  137.6890 C   0  0  0  0  0  3  0  0  0  0  0  0
  184.5030  175.0360  136.8140 C   0  0  0  0  0  2  0  0  0  0  0  0
  184.0270  173.7720  137.3500 N   0  0  0  0  0  0  0  0  0  0  0  0
  185.8870  174.9100  136.1840 C   0  0  0  0  0  2  0  0  0  0  0  0
  186.2910  172.8150  137.4540 C   0  0  0  0  0  2  0  0  0  0  0  0
  1 21  1  0  0  0  0
  2  9  1  0  0  0  0
  3 14  1  0  0  0  0
  3 13  1  0  0  0  0
  4 15  1  0  0  0  0
  5 16  1  0  0  0  0
  6 10  1  0  0  0  0
  6  2  2  0  0  0  0
  7  2  1  0  0  0  0
  8 12  1  0  0  0  0
  8  5  1  0  0  0  0
  9  5  2  0  0  0  0
 10  8  2  0  0  0  0
 11  4  2  0  0  0  0
 11 12  1  0  0  0  0
 12  3  2  0  0  0  0
 14  1  1  0  0  0  0
 15 14  2  0  0  0  0
 16 13  2  0  0  0  0
 18 17  1  0  0  0  0
 18 23  1  0  0  0  0
 19 21  2  0  0  0  0
 19 22  1  0  0  0  0
 20 17  2  0  0  0  0
 21 20  1  0  0  0  0
 22 18  2  0  0  0  0
 24 23  1  0  0  0  0
 25 26  1  6  0  0  0
 25 27  1  0  0  0  0
 25  4  1  0  0  0  0
 28 29  1  1  0  0  0
 28 27  1  0  0  0  0
 30 28  1  0  0  0  0
 31 30  1  0  0  0  0
 32 33  1  0  0  0  0
 33 31  1  0  0  0  0
 34 32  1  0  0  0  0
 34 33  1  0  0  0  0
 35 31  1  0  0  0  0
 35 37  2  0  0  0  0
 36 35  2  0  0  0  0
 38 35  1  6  0  0  0
 38 43  1  0  0  0  0
 40 41  1  0  0  0  0
 41 39  2  0  0  0  0
 42 40  1  0  0  0  0
 42 38  1  0  0  0  0
 43 39  1  0  0  0  0
M  END
>  <MODEL>
5

>  <REMARK>
 VINA RESULT:      -8.1      2.965      7.327
  Name = 
  10 active torsions:
  status: ('A' for Active; 'I' for Inactive)
    1  A    between atoms: N_1  and  C_35
    2  A    between atoms: C_2  and  S_6
    3  A    between atoms: C_2  and  C_13
    4  A    between atoms: C_3  and  N_4
    5  A    between atoms: C_3  and  C_12
    6  A    between atoms: N_4  and  S_14
    7  A    between atoms: N_4  and  C_15
    8  A    between atoms: S_6  and  C_12
    9  A    between atoms: C_11  and  S_14
   10  A    between atoms: C_19  and  C_25
                            x       y       z     vdW  Elec       q    Type
                         _______ _______ _______ _____ _____    ______ ____

>  <TORSDO>
F 10

$$$$
=
 OpenBabel10272414263D

 43 48  0  0  1  0  0  0  0  0999 V2000
  184.8980  178.2220  143.3290 N   0  0  0  0  0  2  0  0  0  0  0  0
  191.0890  176.7830  147.1480 C   0  0  0  0  0  0  0  0  0  0  0  0
  187.1620  177.7900  144.1680 C   0  0  0  0  0  0  0  0  0  0  0  0
  188.1660  178.1140  141.6210 C   0  0  0  0  0  0  0  0  0  0  0  0
  188.8710  177.2080  146.2790 C   0  0  0  0  0  0  0  0  0  0  0  0
  191.6260  176.9440  145.8680 C   0  0  0  0  0  3  0  0  0  0  0  0
  191.9050  176.5000  148.1920 F   0  0  0  0  0  0  0  0  0  0  0  0
  189.4060  177.3720  144.9810 C   0  0  0  0  0  0  0  0  0  0  0  0
  189.7130  176.9160  147.3550 C   0  0  0  0  0  3  0  0  0  0  0  0
  190.7890  177.2360  144.7870 C   0  0  0  0  0  3  0  0  0  0  0  0
  189.0120  177.8300  142.6490 N   0  0  0  0  0  0  0  0  0  0  0  0
  188.5420  177.6650  143.9150 C   0  0  0  0  0  0  0  0  0  0  0  0
  186.6780  177.6280  145.4300 N   0  0  0  0  0  0  0  0  0  0  0  0
  186.3090  178.0860  143.0980 C   0  0  0  0  0  0  0  0  0  0  0  0
  186.8340  178.2400  141.8520 N   0  0  0  0  0  0  0  0  0  0  0  0
  187.4960  177.3430  146.4780 C   0  0  0  0  0  3  0  0  0  0  0  0
  181.5620  179.0830  141.9070 C   0  0  0  0  0  3  0  0  0  0  0  0
  181.8400  179.1420  140.5370 C   0  0  0  0  0  0  0  0  0  0  0  0
  184.1550  178.5980  140.9890 C   0  0  0  0  0  3  0  0  0  0  0  0
  182.5810  178.7770  142.8150 C   0  0  0  0  0  3  0  0  0  0  0  0
  183.8830  178.5310  142.3640 C   0  0  0  0  0  0  0  0  0  0  0  0
  183.1390  178.9040  140.0790 C   0  0  0  0  0  3  0  0  0  0  0  0
  180.7580  179.4850  139.5710 C   0  0  0  0  0  2  0  0  0  0  0  0
  181.1520  180.7000  138.7540 C   0  0  0  0  0  1  0  0  0  0  0  0
  188.6910  178.3040  140.2380 C   0  0  2  0  0  3  0  0  0  0  0  0
  187.6090  178.0130  139.2130 C   0  0  0  0  0  1  0  0  0  0  0  0
  190.1290  177.2260  139.9560 S   0  0  0  0  0  0  0  0  0  0  0  0
  189.6350  176.8720  138.2430 C   0  0  1  0  0  3  0  0  0  0  0  0
  190.1260  177.8620  137.4140 F   0  0  0  0  0  0  0  0  0  0  0  0
  190.1980  175.5190  137.8040 C   0  0  0  0  0  2  0  0  0  0  0  0
  190.2630  175.3460  136.3450 N   0  0  0  0  0  0  0  0  0  0  0  0
  192.6520  175.7330  136.0480 C   0  0  0  0  0  2  0  0  0  0  0  0
  191.5240  174.7220  135.9460 C   0  0  0  0  0  3  0  0  0  0  0  0
  192.0580  175.4020  134.6990 C   0  0  0  0  0  2  0  0  0  0  0  0
  188.9290  174.3680  135.7900 S   0  0  0  0  0  0  0  0  0  0  0  0
  189.3890  173.4180  134.7190 O   0  0  0  0  0  0  0  0  0  0  0  0
  188.3640  173.5790  136.9410 O   0  0  0  0  0  0  0  0  0  0  0  0
  187.6550  175.4240  135.1260 C   0  0  1  0  0  3  0  0  0  0  0  0
  187.1700  177.8010  134.4720 C   0  0  0  0  0  3  0  0  0  0  0  0
  185.4390  176.4450  135.4960 C   0  0  0  0  0  2  0  0  0  0  0  0
  185.9460  177.6490  134.8590 N   0  0  0  0  0  0  0  0  0  0  0  0
  186.5500  175.6280  136.1500 C   0  0  0  0  0  2  0  0  0  0  0  0
  188.2440  176.7770  134.7450 C   0  0  0  0  0  2  0  0  0  0  0  0
  2  9  1  0  0  0  0
  2  7  1  0  0  0  0
  3 13  1  0  0  0  0
  4 15  1  0  0  0  0
  4 11  2  0  0  0  0
  5 16  1  0  0  0  0
  5  9  2  0  0  0  0
  6  2  2  0  0  0  0
  8  5  1  0  0  0  0
 10  8  2  0  0  0  0
 10  6  1  0  0  0  0
 11 12  1  0  0  0  0
 12  3  2  0  0  0  0
 12  8  1  0  0  0  0
 13 16  2  0  0  0  0
 14  1  1  0  0  0  0
 14  3  1  0  0  0  0
 15 14  2  0  0  0  0
 17 20  1  0  0  0  0
 18 17  2  0  0  0  0
 19 21  1  0  0  0  0
 21 20  2  0  0  0  0
 21  1  1  0  0  0  0
 22 18  1  0  0  0  0
 22 19  2  0  0  0  0
 23 18  1  0  0  0  0
 24 23  1  0  0  0  0
 25 26  1  6  0  0  0
 25  4  1  0  0  0  0
 27 25  1  0  0  0  0
 28 29  1  6  0  0  0
 28 27  1  0  0  0  0
 30 28  1  0  0  0  0
 31 30  1  0  0  0  0
 33 32  1  0  0  0  0
 33 31  1  0  0  0  0
 34 33  1  0  0  0  0
 34 32  1  0  0  0  0
 35 31  1  0  0  0  0
 35 37  2  0  0  0  0
 36 35  2  0  0  0  0
 38 35  1  1  0  0  0
 38 42  1  0  0  0  0
 39 43  1  0  0  0  0
 39 41  2  0  0  0  0
 40 42  1  0  0  0  0
 41 40  1  0  0  0  0
 43 38  1  0  0  0  0
M  END
>  <MODEL>
6

>  <REMARK>
 VINA RESULT:      -7.9      2.988      6.323
  Name = 
  10 active torsions:
  status: ('A' for Active; 'I' for Inactive)
    1  A    between atoms: N_1  and  C_35
    2  A    between atoms: C_2  and  S_6
    3  A    between atoms: C_2  and  C_13
    4  A    between atoms: C_3  and  N_4
    5  A    between atoms: C_3  and  C_12
    6  A    between atoms: N_4  and  S_14
    7  A    between atoms: N_4  and  C_15
    8  A    between atoms: S_6  and  C_12
    9  A    between atoms: C_11  and  S_14
   10  A    between atoms: C_19  and  C_25
                            x       y       z     vdW  Elec       q    Type
                         _______ _______ _______ _____ _____    ______ ____

>  <TORSDO>
F 10

$$$$
=
 OpenBabel10272414263D

 43 48  0  0  1  0  0  0  0  0999 V2000
  186.6750  177.9340  144.7550 N   0  0  0  0  0  2  0  0  0  0  0  0
  181.6390  179.2250  139.4660 C   0  0  0  0  0  0  0  0  0  0  0  0
  185.3760  178.2970  142.7060 C   0  0  0  0  0  0  0  0  0  0  0  0
  187.6410  177.8640  141.1940 C   0  0  0  0  0  0  0  0  0  0  0  0
  182.9570  178.8660  141.4640 C   0  0  0  0  0  0  0  0  0  0  0  0
  182.7710  179.0090  138.6760 C   0  0  0  0  0  3  0  0  0  0  0  0
  180.4490  179.5040  138.8820 F   0  0  0  0  0  0  0  0  0  0  0  0
  184.1060  178.6470  140.6710 C   0  0  0  0  0  0  0  0  0  0  0  0
  181.7310  179.1530  140.8600 C   0  0  0  0  0  3  0  0  0  0  0  0
  184.0010  178.7220  139.2740 C   0  0  0  0  0  3  0  0  0  0  0  0
  186.4600  178.1420  140.5770 N   0  0  0  0  0  0  0  0  0  0  0  0
  185.3290  178.3590  141.2990 C   0  0  0  0  0  0  0  0  0  0  0  0
  184.2510  178.5130  143.4400 N   0  0  0  0  0  0  0  0  0  0  0  0
  186.5990  178.0070  143.3220 C   0  0  0  0  0  0  0  0  0  0  0  0
  187.7000  177.7980  142.5500 N   0  0  0  0  0  0  0  0  0  0  0  0
  183.0560  178.7930  142.8540 C   0  0  0  0  0  3  0  0  0  0  0  0
  190.1730  177.0090  145.6460 C   0  0  0  0  0  3  0  0  0  0  0  0
  190.1350  177.0500  147.0440 C   0  0  0  0  0  0  0  0  0  0  0  0
  187.8000  177.6850  146.9550 C   0  0  0  0  0  3  0  0  0  0  0  0
  189.0240  177.3010  144.9060 C   0  0  0  0  0  3  0  0  0  0  0  0
  187.8300  177.6400  145.5530 C   0  0  0  0  0  0  0  0  0  0  0  0
  188.9470  177.3930  147.6980 C   0  0  0  0  0  3  0  0  0  0  0  0
  191.3630  176.7550  147.8330 C   0  0  0  0  0  2  0  0  0  0  0  0
  192.2510  175.7860  147.0750 C   0  0  0  0  0  1  0  0  0  0  0  0
  188.8760  177.6170  140.3950 C   0  0  2  0  0  3  0  0  0  0  0  0
  190.1100  177.7330  141.2710 C   0  0  0  0  0  1  0  0  0  0  0  0
  188.9760  178.7930  139.0110 S   0  0  0  0  0  0  0  0  0  0  0  0
  187.8070  177.8340  138.0010 C   0  0  1  0  0  3  0  0  0  0  0  0
  186.9020  178.6960  137.4120 F   0  0  0  0  0  0  0  0  0  0  0  0
  188.5610  177.0690  136.9110 C   0  0  0  0  0  2  0  0  0  0  0  0
  188.3400  175.6150  136.9430 N   0  0  0  0  0  0  0  0  0  0  0  0
  185.9640  175.0870  136.7960 C   0  0  0  0  0  2  0  0  0  0  0  0
  187.2670  175.2280  136.0280 C   0  0  0  0  0  3  0  0  0  0  0  0
  186.7450  173.8530  136.4060 C   0  0  0  0  0  2  0  0  0  0  0  0
  189.8040  174.7700  136.5130 S   0  0  0  0  0  0  0  0  0  0  0  0
  189.9520  173.5260  137.3460 O   0  0  0  0  0  0  0  0  0  0  0  0
  189.7620  174.3880  135.0580 O   0  0  0  0  0  0  0  0  0  0  0  0
  191.2080  175.8330  136.7970 C   0  0  1  0  0  3  0  0  0  0  0  0
  193.6210  176.1620  136.1810 C   0  0  0  0  0  3  0  0  0  0  0  0
  192.8640  176.6470  138.4340 C   0  0  0  0  0  2  0  0  0  0  0  0
  193.8550  176.6090  137.3710 N   0  0  0  0  0  0  0  0  0  0  0  0
  191.7400  175.6410  138.2080 C   0  0  0  0  0  2  0  0  0  0  0  0
  192.3130  175.5170  135.7960 C   0  0  0  0  0  2  0  0  0  0  0  0
  1 21  1  0  0  0  0
  2  9  1  0  0  0  0
  3 14  1  0  0  0  0
  3 13  1  0  0  0  0
  4 15  1  0  0  0  0
  5 16  1  0  0  0  0
  6 10  1  0  0  0  0
  6  2  2  0  0  0  0
  7  2  1  0  0  0  0
  8 12  1  0  0  0  0
  8  5  1  0  0  0  0
  9  5  2  0  0  0  0
 10  8  2  0  0  0  0
 11  4  2  0  0  0  0
 11 12  1  0  0  0  0
 12  3  2  0  0  0  0
 14  1  1  0  0  0  0
 15 14  2  0  0  0  0
 16 13  2  0  0  0  0
 17 18  1  0  0  0  0
 18 22  2  0  0  0  0
 18 23  1  0  0  0  0
 19 22  1  0  0  0  0
 20 21  1  0  0  0  0
 20 17  2  0  0  0  0
 21 19  2  0  0  0  0
 24 23  1  0  0  0  0
 25  4  1  0  0  0  0
 25 26  1  1  0  0  0
 27 25  1  0  0  0  0
 28 29  1  6  0  0  0
 28 27  1  0  0  0  0
 30 31  1  0  0  0  0
 30 28  1  0  0  0  0
 33 34  1  0  0  0  0
 33 32  1  0  0  0  0
 33 31  1  0  0  0  0
 34 32  1  0  0  0  0
 35 31  1  0  0  0  0
 35 36  2  0  0  0  0
 37 35  2  0  0  0  0
 38 35  1  6  0  0  0
 38 42  1  0  0  0  0
 39 41  2  0  0  0  0
 41 40  1  0  0  0  0
 42 40  1  0  0  0  0
 43 39  1  0  0  0  0
 43 38  1  0  0  0  0
M  END
>  <MODEL>
7

>  <REMARK>
 VINA RESULT:      -7.6      3.253      7.479
  Name = 
  10 active torsions:
  status: ('A' for Active; 'I' for Inactive)
    1  A    between atoms: N_1  and  C_35
    2  A    between atoms: C_2  and  S_6
    3  A    between atoms: C_2  and  C_13
    4  A    between atoms: C_3  and  N_4
    5  A    between atoms: C_3  and  C_12
    6  A    between atoms: N_4  and  S_14
    7  A    between atoms: N_4  and  C_15
    8  A    between atoms: S_6  and  C_12
    9  A    between atoms: C_11  and  S_14
   10  A    between atoms: C_19  and  C_25
                            x       y       z     vdW  Elec       q    Type
                         _______ _______ _______ _____ _____    ______ ____

>  <TORSDO>
F 10

$$$$
=
 OpenBabel10272414263D

 43 48  0  0  1  0  0  0  0  0999 V2000
  186.5220  177.8660  144.5090 N   0  0  0  0  0  2  0  0  0  0  0  0
  181.4960  179.4360  139.2870 C   0  0  0  0  0  0  0  0  0  0  0  0
  185.2380  178.4010  142.4890 C   0  0  0  0  0  0  0  0  0  0  0  0
  187.5660  178.4170  141.0130 C   0  0  0  0  0  0  0  0  0  0  0  0
  182.8010  178.9130  141.2570 C   0  0  0  0  0  0  0  0  0  0  0  0
  182.6600  179.4480  138.5140 C   0  0  0  0  0  3  0  0  0  0  0  0
  180.2970  179.6820  138.7070 F   0  0  0  0  0  0  0  0  0  0  0  0
  183.9830  178.9250  140.4820 C   0  0  0  0  0  0  0  0  0  0  0  0
  181.5650  179.1670  140.6570 C   0  0  0  0  0  3  0  0  0  0  0  0
  183.9000  179.1950  139.1080 C   0  0  0  0  0  3  0  0  0  0  0  0
  186.3770  178.6680  140.4010 N   0  0  0  0  0  0  0  0  0  0  0  0
  185.2140  178.6660  141.1050 C   0  0  0  0  0  0  0  0  0  0  0  0
  184.0810  178.3970  143.2060 N   0  0  0  0  0  0  0  0  0  0  0  0
  186.4700  178.1420  143.1000 C   0  0  0  0  0  0  0  0  0  0  0  0
  187.6020  178.1570  142.3460 N   0  0  0  0  0  0  0  0  0  0  0  0
  182.8770  178.6440  142.6250 C   0  0  0  0  0  3  0  0  0  0  0  0
  189.9340  176.6610  145.4030 C   0  0  0  0  0  3  0  0  0  0  0  0
  189.9940  176.9560  146.7700 C   0  0  0  0  0  0  0  0  0  0  0  0
  187.7530  177.8670  146.6660 C   0  0  0  0  0  3  0  0  0  0  0  0
  188.7820  176.9660  144.6720 C   0  0  0  0  0  3  0  0  0  0  0  0
  187.6840  177.5690  145.2960 C   0  0  0  0  0  0  0  0  0  0  0  0
  188.9040  177.5630  147.3990 C   0  0  0  0  0  3  0  0  0  0  0  0
  191.2280  176.6470  147.5450 C   0  0  0  0  0  2  0  0  0  0  0  0
  192.1650  175.7890  146.7170 C   0  0  0  0  0  1  0  0  0  0  0  0
  188.8360  178.4100  140.2310 C   0  0  2  0  0  3  0  0  0  0  0  0
  188.5460  178.2970  138.7450 C   0  0  0  0  0  1  0  0  0  0  0  0
  189.9010  177.0380  140.7700 S   0  0  0  0  0  0  0  0  0  0  0  0
  190.8700  177.0740  139.2320 C   0  0  1  0  0  3  0  0  0  0  0  0
  192.0100  177.8290  139.4310 F   0  0  0  0  0  0  0  0  0  0  0  0
  191.2680  175.6530  138.8300 C   0  0  0  0  0  2  0  0  0  0  0  0
  191.6020  175.5080  137.4050 N   0  0  0  0  0  0  0  0  0  0  0  0
  189.6530  176.0420  136.0410 C   0  0  0  0  0  2  0  0  0  0  0  0
  190.9650  176.5550  136.6080 C   0  0  0  0  0  3  0  0  0  0  0  0
  190.8780  176.1130  135.1590 C   0  0  0  0  0  2  0  0  0  0  0  0
  193.3300  175.5730  137.1770 S   0  0  0  0  0  0  0  0  0  0  0  0
  193.6980  176.7500  136.3150 O   0  0  0  0  0  0  0  0  0  0  0  0
  194.0140  175.7060  138.5110 O   0  0  0  0  0  0  0  0  0  0  0  0
  193.8820  174.0740  136.3850 C   0  0  1  0  0  3  0  0  0  0  0  0
  193.1760  171.7240  135.8450 C   0  0  0  0  0  3  0  0  0  0  0  0
  195.4790  172.1940  136.4410 C   0  0  0  0  0  2  0  0  0  0  0  0
  194.3970  171.3300  135.9990 N   0  0  0  0  0  0  0  0  0  0  0  0
  194.9690  173.4070  137.2130 C   0  0  0  0  0  2  0  0  0  0  0  0
  192.7130  173.1090  136.2210 C   0  0  0  0  0  2  0  0  0  0  0  0
  1 21  1  0  0  0  0
  2  9  1  0  0  0  0
  3 14  1  0  0  0  0
  3 13  1  0  0  0  0
  4 15  1  0  0  0  0
  5 16  1  0  0  0  0
  6 10  1  0  0  0  0
  6  2  2  0  0  0  0
  7  2  1  0  0  0  0
  8 12  1  0  0  0  0
  8  5  1  0  0  0  0
  9  5  2  0  0  0  0
 10  8  2  0  0  0  0
 11  4  2  0  0  0  0
 11 12  1  0  0  0  0
 12  3  2  0  0  0  0
 14  1  1  0  0  0  0
 15 14  2  0  0  0  0
 16 13  2  0  0  0  0
 17 18  1  0  0  0  0
 18 22  2  0  0  0  0
 18 23  1  0  0  0  0
 19 22  1  0  0  0  0
 20 21  1  0  0  0  0
 20 17  2  0  0  0  0
 21 19  2  0  0  0  0
 24 23  1  0  0  0  0
 25 26  1  6  0  0  0
 25 27  1  0  0  0  0
 25  4  1  0  0  0  0
 28 29  1  1  0  0  0
 28 27  1  0  0  0  0
 30 28  1  0  0  0  0
 31 30  1  0  0  0  0
 32 33  1  0  0  0  0
 33 31  1  0  0  0  0
 34 32  1  0  0  0  0
 34 33  1  0  0  0  0
 35 31  1  0  0  0  0
 35 37  2  0  0  0  0
 36 35  2  0  0  0  0
 38 35  1  1  0  0  0
 38 42  1  0  0  0  0
 39 41  2  0  0  0  0
 39 43  1  0  0  0  0
 40 42  1  0  0  0  0
 41 40  1  0  0  0  0
 43 38  1  0  0  0  0
M  END
>  <MODEL>
8

>  <REMARK>
 VINA RESULT:      -7.6      4.139      8.527
  Name = 
  10 active torsions:
  status: ('A' for Active; 'I' for Inactive)
    1  A    between atoms: N_1  and  C_35
    2  A    between atoms: C_2  and  S_6
    3  A    between atoms: C_2  and  C_13
    4  A    between atoms: C_3  and  N_4
    5  A    between atoms: C_3  and  C_12
    6  A    between atoms: N_4  and  S_14
    7  A    between atoms: N_4  and  C_15
    8  A    between atoms: S_6  and  C_12
    9  A    between atoms: C_11  and  S_14
   10  A    between atoms: C_19  and  C_25
                            x       y       z     vdW  Elec       q    Type
                         _______ _______ _______ _____ _____    ______ ____

>  <TORSDO>
F 10

$$$$
=
 OpenBabel10272414263D

 43 48  0  0  1  0  0  0  0  0999 V2000
  190.4870  176.1650  136.8350 N   0  0  0  0  0  2  0  0  0  0  0  0
  184.2390  178.9900  139.6580 C   0  0  0  0  0  0  0  0  0  0  0  0
  188.6850  177.1700  138.1610 C   0  0  0  0  0  0  0  0  0  0  0  0
  190.4210  177.4870  140.2790 C   0  0  0  0  0  0  0  0  0  0  0  0
  186.0430  177.9980  138.3850 C   0  0  0  0  0  0  0  0  0  0  0  0
  185.0970  179.1640  140.7470 C   0  0  0  0  0  3  0  0  0  0  0  0
  182.9460  179.3870  139.7450 F   0  0  0  0  0  0  0  0  0  0  0  0
  186.9170  178.1710  139.4830 C   0  0  0  0  0  0  0  0  0  0  0  0
  184.7110  178.4080  138.4770 C   0  0  0  0  0  3  0  0  0  0  0  0
  186.4310  178.7560  140.6620 C   0  0  0  0  0  3  0  0  0  0  0  0
  189.1290  177.8970  140.3980 N   0  0  0  0  0  0  0  0  0  0  0  0
  188.2520  177.7520  139.3690 C   0  0  0  0  0  0  0  0  0  0  0  0
  187.8180  177.0190  137.1230 N   0  0  0  0  0  0  0  0  0  0  0  0
  190.0190  176.7580  138.0560 C   0  0  0  0  0  0  0  0  0  0  0  0
  190.8520  176.9280  139.1180 N   0  0  0  0  0  0  0  0  0  0  0  0
  186.5200  177.4170  137.2100 C   0  0  0  0  0  3  0  0  0  0  0  0
  193.7270  175.7040  135.0510 C   0  0  0  0  0  3  0  0  0  0  0  0
  194.4050  174.8290  135.9070 C   0  0  0  0  0  0  0  0  0  0  0  0
  192.5000  174.8250  137.4020 C   0  0  0  0  0  3  0  0  0  0  0  0
  192.4360  176.1340  135.3700 C   0  0  0  0  0  3  0  0  0  0  0  0
  191.8120  175.6980  136.5450 C   0  0  0  0  0  0  0  0  0  0  0  0
  193.7910  174.3930  137.0850 C   0  0  0  0  0  3  0  0  0  0  0  0
  195.7870  174.3830  135.5760 C   0  0  0  0  0  2  0  0  0  0  0  0
  196.7960  175.4140  136.0450 C   0  0  0  0  0  1  0  0  0  0  0  0
  191.3790  177.6590  141.4090 C   0  0  2  0  0  3  0  0  0  0  0  0
  192.7850  177.2810  140.9790 C   0  0  0  0  0  1  0  0  0  0  0  0
  190.8630  176.6480  142.8310 S   0  0  0  0  0  0  0  0  0  0  0  0
  191.3380  177.9320  144.0260 C   0  0  1  0  0  3  0  0  0  0  0  0
  191.6030  179.1080  143.3480 F   0  0  0  0  0  0  0  0  0  0  0  0
  190.2020  178.1680  145.0220 C   0  0  0  0  0  2  0  0  0  0  0  0
  190.0560  177.0990  146.0230 N   0  0  0  0  0  0  0  0  0  0  0  0
  192.0510  175.7230  146.2900 C   0  0  0  0  0  2  0  0  0  0  0  0
  191.2860  176.9330  146.7960 C   0  0  0  0  0  3  0  0  0  0  0  0
  191.2370  175.6220  147.5590 C   0  0  0  0  0  2  0  0  0  0  0  0
  188.7340  177.4560  147.1030 S   0  0  0  0  0  0  0  0  0  0  0  0
  188.2360  176.1940  147.7520 O   0  0  0  0  0  0  0  0  0  0  0  0
  189.1930  178.4130  148.1690 O   0  0  0  0  0  0  0  0  0  0  0  0
  187.4010  178.2040  146.1830 C   0  0  1  0  0  3  0  0  0  0  0  0
  184.9610  178.7860  146.3170 C   0  0  0  0  0  3  0  0  0  0  0  0
  185.9170  178.0320  144.2190 C   0  0  0  0  0  2  0  0  0  0  0  0
  184.8430  178.5450  145.0530 N   0  0  0  0  0  0  0  0  0  0  0  0
  186.9790  177.3010  145.0350 C   0  0  0  0  0  2  0  0  0  0  0  0
  186.2070  178.4470  147.0970 C   0  0  0  0  0  2  0  0  0  0  0  0
  1 14  1  0  0  0  0
  2  7  1  0  0  0  0
  2  6  1  0  0  0  0
  3 12  1  0  0  0  0
  4 11  2  0  0  0  0
  4 25  1  0  0  0  0
  5  9  1  0  0  0  0
  5  8  1  0  0  0  0
  8 10  1  0  0  0  0
  9  2  2  0  0  0  0
 10  6  2  0  0  0  0
 12  8  2  0  0  0  0
 12 11  1  0  0  0  0
 13 16  1  0  0  0  0
 13  3  2  0  0  0  0
 14  3  1  0  0  0  0
 14 15  2  0  0  0  0
 15  4  1  0  0  0  0
 16  5  2  0  0  0  0
 17 20  2  0  0  0  0
 17 18  1  0  0  0  0
 18 22  2  0  0  0  0
 20 21  1  0  0  0  0
 21  1  1  0  0  0  0
 21 19  2  0  0  0  0
 22 19  1  0  0  0  0
 23 18  1  0  0  0  0
 23 24  1  0  0  0  0
 25 26  1  6  0  0  0
 25 27  1  0  0  0  0
 27 28  1  0  0  0  0
 28 29  1  6  0  0  0
 28 30  1  0  0  0  0
 30 31  1  0  0  0  0
 31 33  1  0  0  0  0
 31 35  1  0  0  0  0
 32 33  1  0  0  0  0
 32 34  1  0  0  0  0
 33 34  1  0  0  0  0
 35 36  2  0  0  0  0
 35 37  2  0  0  0  0
 38 43  1  0  0  0  0
 38 35  1  1  0  0  0
 39 43  1  0  0  0  0
 40 42  1  0  0  0  0
 40 41  1  0  0  0  0
 41 39  2  0  0  0  0
 42 38  1  0  0  0  0
M  END
>  <MODEL>
9

>  <REMARK>
 VINA RESULT:      -7.6      4.415      8.513
  Name = 
  10 active torsions:
  status: ('A' for Active; 'I' for Inactive)
    1  A    between atoms: N_1  and  C_35
    2  A    between atoms: C_2  and  S_6
    3  A    between atoms: C_2  and  C_13
    4  A    between atoms: C_3  and  N_4
    5  A    between atoms: C_3  and  C_12
    6  A    between atoms: N_4  and  S_14
    7  A    between atoms: N_4  and  C_15
    8  A    between atoms: S_6  and  C_12
    9  A    between atoms: C_11  and  S_14
   10  A    between atoms: C_19  and  C_25
                            x       y       z     vdW  Elec       q    Type
                         _______ _______ _______ _____ _____    ______ ____

>  <TORSDO>
F 10

$$$$
