=
 OpenBabel10272401443D

 55 60  0  0  1  0  0  0  0  0999 V2000
  191.2870  177.5790  142.9050 C   0  0  2  0  0  0  0  0  0  0  0  0
  191.4210  178.8480  143.7220 C   0  0  0  0  0  1  0  0  0  0  0  0
  191.3030  175.2360  143.5070 O   0  0  0  0  0  0  0  0  0  0  0  0
  191.5260  176.4280  143.8580 C   0  0  0  0  0  0  0  0  0  0  0  0
  191.9130  176.6830  145.1710 O   0  0  0  0  0  1  0  0  0  0  0  0
  192.2570  177.6190  141.8680 O   0  0  0  0  0  0  0  0  0  0  0  0
  191.6960  177.1590  140.6600 C   0  0  0  0  0  2  0  0  0  0  0  0
  192.7370  177.2050  139.5590 C   0  0  0  0  0  2  0  0  0  0  0  0
  192.4910  176.0880  138.5630 C   0  0  0  0  0  2  0  0  0  0  0  0
  193.3890  176.2570  137.3530 C   0  0  1  0  0  3  0  0  0  0  0  0
  193.6620  177.6030  137.1840 F   0  0  0  0  0  0  0  0  0  0  0  0
  194.5920  175.5580  137.5660 O   0  0  0  0  0  0  0  0  0  0  0  0
  196.4860  172.4090  137.9140 C   0  0  0  0  0  2  0  0  0  0  0  0
  194.8620  174.6860  136.4780 C   0  0  1  0  0  0  0  0  0  0  0  0
  197.1690  174.6250  138.7420 O   0  0  0  0  0  0  0  0  0  0  0  0
  197.0190  175.7760  136.2080 O   0  0  0  0  0  1  0  0  0  0  0  0
  196.4060  174.5320  136.3770 C   0  0  1  0  0  0  0  0  0  0  0  0
  196.2930  172.1640  135.4170 C   0  0  0  0  0  2  0  0  0  0  0  0
  198.2050  174.1370  138.0260 O   0  0  0  0  0  0  0  0  0  0  0  0
  195.5740  171.9680  136.7610 C   0  0  2  0  0  0  0  0  0  0  0  0
  196.9200  173.8390  137.6420 C   0  0  0  0  0  0  0  0  0  0  0  0
  194.0630  173.0180  136.7730 S   0  0  0  0  0  0  0  0  0  0  0  0
  196.7620  173.6180  135.1950 C   0  0  0  0  0  2  0  0  0  0  0  0
  194.8330  176.4840  134.7780 O   0  0  0  0  0  0  0  0  0  0  0  0
  194.3560  175.2720  135.2250 N   0  0  0  0  0  0  0  0  0  0  0  0
  193.3570  174.7790  134.6630 O   0  0  0  0  0  0  0  0  0  0  0  0
  195.2050  170.5190  136.9080 C   0  0  0  0  0  0  0  0  0  0  0  0
  193.9180  170.0850  136.5960 O   0  0  0  0  0  0  0  0  0  0  0  0
  196.0280  169.6980  137.4010 O   0  0  0  0  0  1  0  0  0  0  0  0
  189.8620  177.5280  142.3260 C   0  0  0  0  0  2  0  0  0  0  0  0
  189.0690  178.5890  142.7910 O   0  0  0  0  0  0  0  0  0  0  0  0
  187.9710  178.6770  141.9210 C   0  0  2  0  0  3  0  0  0  0  0  0
  186.6640  178.2090  142.6120 C   0  0  1  0  0  3  0  0  0  0  0  0
  184.1120  178.4760  142.4590 C   0  0  0  0  0  2  0  0  0  0  0  0
  184.7180  179.2240  141.2880 C   0  0  1  0  0  3  0  0  0  0  0  0
  185.3690  177.9510  141.8020 C   0  0  1  0  0  3  0  0  0  0  0  0
  183.8830  178.9140  140.0570 C   0  0  1  0  0  3  0  0  0  0  0  0
  183.8170  180.0620  139.2440 O   0  0  0  0  0  0  0  0  0  0  0  0
  184.6920  179.0510  138.8220 C   0  0  0  0  0  2  0  0  0  0  0  0
  186.9020  177.1080  143.6550 C   0  0  0  0  0  2  0  0  0  0  0  0
  188.7360  176.9960  145.9910 O   0  0  0  0  0  0  0  0  0  0  0  0
  185.7720  178.8060  146.8510 C   0  0  0  0  0  3  0  0  0  0  0  0
  186.6680  177.5690  145.0210 N   0  0  0  0  0  0  0  0  0  0  0  0
  185.5580  178.4230  145.3790 C   0  0  0  0  0  3  0  0  0  0  0  0
  187.1540  178.2910  147.2640 C   0  0  0  0  0  2  0  0  0  0  0  0
  187.6130  177.5600  146.0700 C   0  0  0  0  0  0  0  0  0  0  0  0
  188.2350  177.8140  140.6770 C   0  0  0  0  0  2  0  0  0  0  0  0
  187.8960  178.5220  139.5200 O   0  0  0  0  0  0  0  0  0  0  0  0
  189.0490  178.4950  138.7350 C   0  0  0  0  0  2  0  0  0  0  0  0
  189.0190  177.2630  137.8530 C   0  0  0  0  0  2  0  0  0  0  0  0
  188.5890  177.6350  136.4810 C   0  0  0  0  0  0  0  0  0  0  0  0
  189.4110  177.5700  135.5330 O   0  0  0  0  0  0  0  0  0  0  0  0
  187.2840  178.0890  136.2740 O   0  0  0  0  0  0  0  0  0  0  0  0
  186.1890  177.2010  136.1010 C   0  0  0  0  0  2  0  0  0  0  0  0
  185.5390  177.4300  134.7480 C   0  0  0  0  0  1  0  0  0  0  0  0
  1  2  1  1  0  0  0
  1  4  1  0  0  0  0
  3  4  2  0  0  0  0
  4  5  1  0  0  0  0
  6  1  1  0  0  0  0
  7  6  1  0  0  0  0
  8  7  1  0  0  0  0
  9  8  1  0  0  0  0
 10 11  1  1  0  0  0
 10 12  1  0  0  0  0
 10  9  1  0  0  0  0
 14 22  1  0  0  0  0
 14 12  1  1  0  0  0
 17 16  1  6  0  0  0
 17 14  1  0  0  0  0
 17 21  1  0  0  0  0
 18 20  1  0  0  0  0
 19 15  1  0  0  0  0
 20 22  1  0  0  0  0
 20 27  1  1  0  0  0
 20 13  1  0  0  0  0
 21 13  1  0  0  0  0
 21 19  1  0  0  0  0
 21 15  1  0  0  0  0
 23 18  1  0  0  0  0
 23 17  1  0  0  0  0
 24 25  2  0  0  0  0
 25 14  1  0  0  0  0
 26 25  2  0  0  0  0
 27 29  1  0  0  0  0
 28 27  2  0  0  0  0
 30 31  1  0  0  0  0
 30  1  1  0  0  0  0
 32 47  1  6  0  0  0
 32 33  1  0  0  0  0
 32 31  1  0  0  0  0
 33 40  1  6  0  0  0
 35 36  1  0  0  0  0
 35 34  1  1  0  0  0
 36 34  1  0  0  0  0
 36 33  1  1  0  0  0
 37 39  1  6  0  0  0
 37 35  1  0  0  0  0
 38 37  1  0  0  0  0
 39 38  1  0  0  0  0
 40 43  1  0  0  0  0
 41 46  2  0  0  0  0
 42 45  1  0  0  0  0
 43 44  1  0  0  0  0
 43 46  1  0  0  0  0
 44 42  2  0  0  0  0
 46 45  1  0  0  0  0
 48 47  1  0  0  0  0
 49 48  1  0  0  0  0
 50 49  1  0  0  0  0
 51 50  1  0  0  0  0
 52 51  2  0  0  0  0
 53 51  1  0  0  0  0
 54 53  1  0  0  0  0
 55 54  1  0  0  0  0
M  END
>  <MODEL>
1

>  <REMARK>
 VINA RESULT:      -6.4      0.000      0.000
  Name = 
  25 active torsions:
  status: ('A' for Active; 'I' for Inactive)
    1  A    between atoms: C_1  and  C_29
    2  A    between atoms: C_2  and  O_28
    3  A    between atoms: C_2  and  C_31
    4  A    between atoms: C_4  and  C_40
    5  A    between atoms: C_6  and  N_20
    6  A    between atoms: C_6  and  O_22
    7  A    between atoms: C_8  and  O_22
    8  A    between atoms: C_8  and  C_35
    9  A    between atoms: C_10  and  O_32
   10  A    between atoms: C_13  and  C_48
   11  A    between atoms: C_13  and  O_52
   12  A    between atoms: N_16  and  C_36
   13  A    between atoms: O_27  and  C_31
   14  A    between atoms: O_27  and  C_54
   15  A    between atoms: O_28  and  C_33
   16  A    between atoms: C_31  and  C_41
   17  A    between atoms: O_32  and  C_39
   18  A    between atoms: C_33  and  C_34
   19  A    between atoms: C_33  and  C_49
   20  A    between atoms: C_34  and  O_52
   21  A    between atoms: C_35  and  C_51
   22  A    between atoms: C_36  and  C_49
   23  A    between atoms: C_39  and  C_48
   24  A    between atoms: C_45  and  C_49
   25  A    between atoms: C_51  and  C_54
                            x       y       z     vdW  Elec       q    Type
                         _______ _______ _______ _____ _____    ______ ____

>  <TORSDO>
F 25

$$$$
=
 OpenBabel10272401443D

 55 60  0  0  1  0  0  0  0  0999 V2000
  190.5100  177.4060  142.1030 C   0  0  2  0  0  0  0  0  0  0  0  0
  190.5370  178.5540  143.0920 C   0  0  0  0  0  1  0  0  0  0  0  0
  189.2550  175.5800  143.0750 O   0  0  0  0  0  0  0  0  0  0  0  0
  190.3760  176.1380  142.9200 C   0  0  0  0  0  0  0  0  0  0  0  0
  191.4850  175.6220  143.5850 O   0  0  0  0  0  1  0  0  0  0  0  0
  191.7220  177.4330  141.3630 O   0  0  0  0  0  0  0  0  0  0  0  0
  191.5050  176.9520  140.0560 C   0  0  0  0  0  2  0  0  0  0  0  0
  192.8200  176.8930  139.3050 C   0  0  0  0  0  2  0  0  0  0  0  0
  192.8440  175.6820  138.3920 C   0  0  0  0  0  2  0  0  0  0  0  0
  193.6470  175.9840  137.1420 C   0  0  1  0  0  3  0  0  0  0  0  0
  193.5510  177.3370  136.8650 F   0  0  0  0  0  0  0  0  0  0  0  0
  194.9960  175.6460  137.3620 O   0  0  0  0  0  0  0  0  0  0  0  0
  197.5820  173.0720  137.9150 C   0  0  0  0  0  2  0  0  0  0  0  0
  195.4660  174.7810  136.3390 C   0  0  1  0  0  0  0  0  0  0  0  0
  197.7180  175.4440  138.5610 O   0  0  0  0  0  0  0  0  0  0  0  0
  197.3030  176.3270  135.9490 O   0  0  0  0  0  1  0  0  0  0  0  0
  197.0020  174.9890  136.2230 C   0  0  1  0  0  0  0  0  0  0  0  0
  197.4570  172.5950  135.4480 C   0  0  0  0  0  2  0  0  0  0  0  0
  198.8420  175.1620  137.8660 O   0  0  0  0  0  0  0  0  0  0  0  0
  196.8020  172.3390  136.8140 C   0  0  2  0  0  0  0  0  0  0  0  0
  197.6640  174.5390  137.5280 C   0  0  0  0  0  0  0  0  0  0  0  0
  195.0850  172.9990  136.7730 S   0  0  0  0  0  0  0  0  0  0  0  0
  197.5670  174.0970  135.1080 C   0  0  0  0  0  2  0  0  0  0  0  0
  194.1120  174.1930  134.3520 O   0  0  0  0  0  0  0  0  0  0  0  0
  194.8370  175.1310  135.0540 N   0  0  0  0  0  0  0  0  0  0  0  0
  195.1170  176.2110  134.4940 O   0  0  0  0  0  0  0  0  0  0  0  0
  196.7880  170.8600  137.0780 C   0  0  0  0  0  0  0  0  0  0  0  0
  195.5850  170.1990  137.3160 O   0  0  0  0  0  1  0  0  0  0  0  0
  197.8720  170.2190  137.1750 O   0  0  0  0  0  0  0  0  0  0  0  0
  189.2940  177.5950  141.1790 C   0  0  0  0  0  2  0  0  0  0  0  0
  188.5340  178.7200  141.5360 O   0  0  0  0  0  0  0  0  0  0  0  0
  187.5860  178.9010  140.5180 C   0  0  2  0  0  3  0  0  0  0  0  0
  186.1440  178.6770  141.0410 C   0  0  1  0  0  3  0  0  0  0  0  0
  184.6350  178.0910  143.0380 C   0  0  0  0  0  2  0  0  0  0  0  0
  186.0630  177.7730  143.4390 C   0  0  1  0  0  3  0  0  0  0  0  0
  185.7690  178.9480  142.5190 C   0  0  1  0  0  3  0  0  0  0  0  0
  186.2680  178.2710  144.8600 C   0  0  1  0  0  3  0  0  0  0  0  0
  186.4090  177.1640  145.7190 O   0  0  0  0  0  0  0  0  0  0  0  0
  187.5890  177.8450  145.3820 C   0  0  0  0  0  2  0  0  0  0  0  0
  185.0710  179.2150  140.0830 C   0  0  0  0  0  2  0  0  0  0  0  0
  182.2490  178.7200  140.8710 O   0  0  0  0  0  0  0  0  0  0  0  0
  183.1780  176.5170  138.2100 C   0  0  0  0  0  3  0  0  0  0  0  0
  184.1630  178.1710  139.6150 N   0  0  0  0  0  0  0  0  0  0  0  0
  184.4410  177.3560  138.4530 C   0  0  0  0  0  3  0  0  0  0  0  0
  182.0960  177.0250  139.1670 C   0  0  0  0  0  2  0  0  0  0  0  0
  182.8030  178.0380  139.9690 C   0  0  0  0  0  0  0  0  0  0  0  0
  187.8770  177.9220  139.3690 C   0  0  0  0  0  2  0  0  0  0  0  0
  187.6750  178.5510  138.1370 O   0  0  0  0  0  0  0  0  0  0  0  0
  188.9520  178.6860  137.5930 C   0  0  0  0  0  2  0  0  0  0  0  0
  189.5350  177.3090  137.3500 C   0  0  0  0  0  2  0  0  0  0  0  0
  189.5810  177.0300  135.8920 C   0  0  0  0  0  0  0  0  0  0  0  0
  190.4750  176.2760  135.4310 O   0  0  0  0  0  0  0  0  0  0  0  0
  188.6490  177.6410  135.0500 O   0  0  0  0  0  0  0  0  0  0  0  0
  187.4780  176.9740  134.5990 C   0  0  0  0  0  2  0  0  0  0  0  0
  186.3680  177.9800  134.3490 C   0  0  0  0  0  1  0  0  0  0  0  0
  1  4  1  0  0  0  0
  1  2  1  1  0  0  0
  4  3  2  0  0  0  0
  4  5  1  0  0  0  0
  6  1  1  0  0  0  0
  7  6  1  0  0  0  0
  8  7  1  0  0  0  0
  9  8  1  0  0  0  0
 10 11  1  1  0  0  0
 10 12  1  0  0  0  0
 10  9  1  0  0  0  0
 14 22  1  0  0  0  0
 14 12  1  1  0  0  0
 17 16  1  6  0  0  0
 17 14  1  0  0  0  0
 17 21  1  0  0  0  0
 18 20  1  0  0  0  0
 19 15  1  0  0  0  0
 20 27  1  1  0  0  0
 20 13  1  0  0  0  0
 21 19  1  0  0  0  0
 21 13  1  0  0  0  0
 21 15  1  0  0  0  0
 22 20  1  0  0  0  0
 23 18  1  0  0  0  0
 23 17  1  0  0  0  0
 24 25  2  0  0  0  0
 25 14  1  0  0  0  0
 26 25  2  0  0  0  0
 27 29  2  0  0  0  0
 27 28  1  0  0  0  0
 30 31  1  0  0  0  0
 30  1  1  0  0  0  0
 32 47  1  6  0  0  0
 32 33  1  0  0  0  0
 32 31  1  0  0  0  0
 33 40  1  6  0  0  0
 35 34  1  1  0  0  0
 35 37  1  0  0  0  0
 36 33  1  6  0  0  0
 36 34  1  0  0  0  0
 36 35  1  0  0  0  0
 37 39  1  6  0  0  0
 37 38  1  0  0  0  0
 39 38  1  0  0  0  0
 42 44  2  0  0  0  0
 42 45  1  0  0  0  0
 43 46  1  0  0  0  0
 43 40  1  0  0  0  0
 44 43  1  0  0  0  0
 45 46  1  0  0  0  0
 46 41  2  0  0  0  0
 48 47  1  0  0  0  0
 49 48  1  0  0  0  0
 50 49  1  0  0  0  0
 51 50  1  0  0  0  0
 52 51  2  0  0  0  0
 53 51  1  0  0  0  0
 54 53  1  0  0  0  0
 55 54  1  0  0  0  0
M  END
>  <MODEL>
2

>  <REMARK>
 VINA RESULT:      -6.2      1.531      3.421
  Name = 
  25 active torsions:
  status: ('A' for Active; 'I' for Inactive)
    1  A    between atoms: C_1  and  C_29
    2  A    between atoms: C_2  and  O_28
    3  A    between atoms: C_2  and  C_31
    4  A    between atoms: C_4  and  C_40
    5  A    between atoms: C_6  and  N_20
    6  A    between atoms: C_6  and  O_22
    7  A    between atoms: C_8  and  O_22
    8  A    between atoms: C_8  and  C_35
    9  A    between atoms: C_10  and  O_32
   10  A    between atoms: C_13  and  C_48
   11  A    between atoms: C_13  and  O_52
   12  A    between atoms: N_16  and  C_36
   13  A    between atoms: O_27  and  C_31
   14  A    between atoms: O_27  and  C_54
   15  A    between atoms: O_28  and  C_33
   16  A    between atoms: C_31  and  C_41
   17  A    between atoms: O_32  and  C_39
   18  A    between atoms: C_33  and  C_34
   19  A    between atoms: C_33  and  C_49
   20  A    between atoms: C_34  and  O_52
   21  A    between atoms: C_35  and  C_51
   22  A    between atoms: C_36  and  C_49
   23  A    between atoms: C_39  and  C_48
   24  A    between atoms: C_45  and  C_49
   25  A    between atoms: C_51  and  C_54
                            x       y       z     vdW  Elec       q    Type
                         _______ _______ _______ _____ _____    ______ ____

>  <TORSDO>
F 25

$$$$
=
 OpenBabel10272401443D

 55 60  0  0  1  0  0  0  0  0999 V2000
  190.4160  177.1080  141.8000 C   0  0  2  0  0  0  0  0  0  0  0  0
  191.4850  177.8020  142.6190 C   0  0  0  0  0  1  0  0  0  0  0  0
  190.7060  175.0630  143.0600 O   0  0  0  0  0  1  0  0  0  0  0  0
  189.9150  175.9510  142.6380 C   0  0  0  0  0  0  0  0  0  0  0  0
  188.5510  175.8090  142.8780 O   0  0  0  0  0  0  0  0  0  0  0  0
  191.0090  176.6650  140.5870 O   0  0  0  0  0  0  0  0  0  0  0  0
  191.8830  177.6500  140.0850 C   0  0  0  0  0  2  0  0  0  0  0  0
  193.1770  177.0050  139.6300 C   0  0  0  0  0  2  0  0  0  0  0  0
  192.8830  175.7160  138.8880 C   0  0  0  0  0  2  0  0  0  0  0  0
  193.2990  175.8400  137.4350 C   0  0  1  0  0  3  0  0  0  0  0  0
  192.8120  177.0340  136.9320 F   0  0  0  0  0  0  0  0  0  0  0  0
  194.7040  175.8340  137.3510 O   0  0  0  0  0  0  0  0  0  0  0  0
  196.8630  172.9390  138.1110 C   0  0  0  0  0  2  0  0  0  0  0  0
  195.1400  174.9080  136.3670 C   0  0  1  0  0  0  0  0  0  0  0  0
  197.2600  175.2740  138.7810 O   0  0  0  0  0  0  0  0  0  0  0  0
  197.1950  176.1910  136.1480 O   0  0  0  0  0  1  0  0  0  0  0  0
  196.6950  174.9070  136.3870 C   0  0  1  0  0  0  0  0  0  0  0  0
  196.8890  172.4690  135.6390 C   0  0  0  0  0  2  0  0  0  0  0  0
  198.3910  174.8400  138.1840 O   0  0  0  0  0  0  0  0  0  0  0  0
  196.0900  172.3110  136.9410 C   0  0  2  0  0  0  0  0  0  0  0  0
  197.1750  174.3790  137.7410 C   0  0  0  0  0  0  0  0  0  0  0  0
  194.4880  173.1960  136.7560 S   0  0  0  0  0  0  0  0  0  0  0  0
  197.2290  173.9410  135.3190 C   0  0  0  0  0  2  0  0  0  0  0  0
  194.8380  176.6370  134.6220 O   0  0  0  0  0  0  0  0  0  0  0  0
  194.6780  175.3320  135.0350 N   0  0  0  0  0  0  0  0  0  0  0  0
  193.9650  174.5720  134.3480 O   0  0  0  0  0  0  0  0  0  0  0  0
  195.8540  170.8490  137.1930 C   0  0  0  0  0  0  0  0  0  0  0  0
  196.0380  169.9200  136.1720 O   0  0  0  0  0  0  0  0  0  0  0  0
  195.4000  170.4590  138.3060 O   0  0  0  0  0  1  0  0  0  0  0  0
  189.2880  178.1180  141.5260 C   0  0  0  0  0  2  0  0  0  0  0  0
  188.9220  178.1410  140.1710 O   0  0  0  0  0  0  0  0  0  0  0  0
  187.5560  177.8250  140.1210 C   0  0  2  0  0  3  0  0  0  0  0  0
  187.0260  177.8400  138.6640 C   0  0  1  0  0  3  0  0  0  0  0  0
  184.9430  177.8140  137.1570 C   0  0  0  0  0  2  0  0  0  0  0  0
  184.4770  177.5800  138.5810 C   0  0  1  0  0  3  0  0  0  0  0  0
  185.6650  178.4860  138.3040 C   0  0  1  0  0  3  0  0  0  0  0  0
  183.2310  178.4190  138.8060 C   0  0  1  0  0  3  0  0  0  0  0  0
  182.0950  177.5920  138.7040 O   0  0  0  0  0  0  0  0  0  0  0  0
  182.4890  177.9510  140.0010 C   0  0  0  0  0  2  0  0  0  0  0  0
  188.1090  178.2070  137.6390 C   0  0  0  0  0  2  0  0  0  0  0  0
  187.5390  177.5880  134.7880 O   0  0  0  0  0  0  0  0  0  0  0  0
  189.8550  175.2060  136.1160 C   0  0  0  0  0  3  0  0  0  0  0  0
  188.5470  177.0580  136.8500 N   0  0  0  0  0  0  0  0  0  0  0  0
  189.5860  176.1550  137.2930 C   0  0  0  0  0  3  0  0  0  0  0  0
  189.0620  175.7260  134.9140 C   0  0  0  0  0  2  0  0  0  0  0  0
  188.3090  176.8620  135.4720 C   0  0  0  0  0  0  0  0  0  0  0  0
  186.7660  178.8360  140.9670 C   0  0  0  0  0  2  0  0  0  0  0  0
  185.8500  178.1680  141.7840 O   0  0  0  0  0  0  0  0  0  0  0  0
  185.7320  178.9710  142.9180 C   0  0  0  0  0  2  0  0  0  0  0  0
  184.3990  178.6970  143.5840 C   0  0  0  0  0  2  0  0  0  0  0  0
  184.5080  178.9280  145.0470 C   0  0  0  0  0  0  0  0  0  0  0  0
  183.4640  179.0600  145.7340 O   0  0  0  0  0  0  0  0  0  0  0  0
  185.7730  179.0320  145.6300 O   0  0  0  0  0  0  0  0  0  0  0  0
  186.3290  177.9990  146.4310 C   0  0  0  0  0  2  0  0  0  0  0  0
  187.6620  177.5530  145.8570 C   0  0  0  0  0  1  0  0  0  0  0  0
  1  2  1  1  0  0  0
  1  4  1  0  0  0  0
  4  5  2  0  0  0  0
  4  3  1  0  0  0  0
  6  1  1  0  0  0  0
  7  6  1  0  0  0  0
  8  7  1  0  0  0  0
  9  8  1  0  0  0  0
 10 11  1  1  0  0  0
 10  9  1  0  0  0  0
 12 10  1  0  0  0  0
 14 17  1  0  0  0  0
 14 22  1  0  0  0  0
 14 12  1  1  0  0  0
 17 16  1  6  0  0  0
 17 21  1  0  0  0  0
 18 20  1  0  0  0  0
 19 15  1  0  0  0  0
 20 27  1  1  0  0  0
 20 13  1  0  0  0  0
 21 13  1  0  0  0  0
 21 19  1  0  0  0  0
 21 15  1  0  0  0  0
 22 20  1  0  0  0  0
 23 18  1  0  0  0  0
 23 17  1  0  0  0  0
 24 25  2  0  0  0  0
 25 14  1  0  0  0  0
 26 25  2  0  0  0  0
 27 29  1  0  0  0  0
 28 27  2  0  0  0  0
 30  1  1  0  0  0  0
 31 30  1  0  0  0  0
 32 31  1  0  0  0  0
 32 47  1  1  0  0  0
 33 40  1  6  0  0  0
 33 32  1  0  0  0  0
 34 36  1  0  0  0  0
 35 34  1  6  0  0  0
 35 37  1  0  0  0  0
 36 35  1  0  0  0  0
 36 33  1  1  0  0  0
 37 39  1  1  0  0  0
 38 37  1  0  0  0  0
 38 39  1  0  0  0  0
 41 46  2  0  0  0  0
 42 44  2  0  0  0  0
 43 44  1  0  0  0  0
 43 40  1  0  0  0  0
 45 46  1  0  0  0  0
 45 42  1  0  0  0  0
 46 43  1  0  0  0  0
 47 48  1  0  0  0  0
 48 49  1  0  0  0  0
 49 50  1  0  0  0  0
 50 51  1  0  0  0  0
 51 53  1  0  0  0  0
 51 52  2  0  0  0  0
 53 54  1  0  0  0  0
 55 54  1  0  0  0  0
M  END
>  <MODEL>
3

>  <REMARK>
 VINA RESULT:      -6.2      1.814      5.302
  Name = 
  25 active torsions:
  status: ('A' for Active; 'I' for Inactive)
    1  A    between atoms: C_1  and  C_29
    2  A    between atoms: C_2  and  O_28
    3  A    between atoms: C_2  and  C_31
    4  A    between atoms: C_4  and  C_40
    5  A    between atoms: C_6  and  N_20
    6  A    between atoms: C_6  and  O_22
    7  A    between atoms: C_8  and  O_22
    8  A    between atoms: C_8  and  C_35
    9  A    between atoms: C_10  and  O_32
   10  A    between atoms: C_13  and  C_48
   11  A    between atoms: C_13  and  O_52
   12  A    between atoms: N_16  and  C_36
   13  A    between atoms: O_27  and  C_31
   14  A    between atoms: O_27  and  C_54
   15  A    between atoms: O_28  and  C_33
   16  A    between atoms: C_31  and  C_41
   17  A    between atoms: O_32  and  C_39
   18  A    between atoms: C_33  and  C_34
   19  A    between atoms: C_33  and  C_49
   20  A    between atoms: C_34  and  O_52
   21  A    between atoms: C_35  and  C_51
   22  A    between atoms: C_36  and  C_49
   23  A    between atoms: C_39  and  C_48
   24  A    between atoms: C_45  and  C_49
   25  A    between atoms: C_51  and  C_54
                            x       y       z     vdW  Elec       q    Type
                         _______ _______ _______ _____ _____    ______ ____

>  <TORSDO>
F 25

$$$$
=
 OpenBabel10272401443D

 55 60  0  0  1  0  0  0  0  0999 V2000
  188.2820  177.2250  136.5710 C   0  0  2  0  0  0  0  0  0  0  0  0
  187.7720  178.5530  136.0470 C   0  0  0  0  0  1  0  0  0  0  0  0
  189.4430  175.4010  135.4870 O   0  0  0  0  0  1  0  0  0  0  0  0
  189.1200  176.6200  135.4660 C   0  0  0  0  0  0  0  0  0  0  0  0
  189.6220  177.4330  134.4520 O   0  0  0  0  0  0  0  0  0  0  0  0
  187.1580  176.4150  136.8870 O   0  0  0  0  0  0  0  0  0  0  0  0
  186.5680  175.9210  135.7060 C   0  0  0  0  0  2  0  0  0  0  0  0
  185.0600  176.0410  135.7970 C   0  0  0  0  0  2  0  0  0  0  0  0
  184.6360  176.1890  137.2450 C   0  0  0  0  0  2  0  0  0  0  0  0
  184.1180  177.5910  137.4990 C   0  0  1  0  0  3  0  0  0  0  0  0
  184.7630  178.4670  136.6440 F   0  0  0  0  0  0  0  0  0  0  0  0
  182.7330  177.6280  137.2510 O   0  0  0  0  0  0  0  0  0  0  0  0
  182.3240  176.9020  140.8460 C   0  0  0  0  0  2  0  0  0  0  0  0
  182.0880  178.5120  138.1560 C   0  0  1  0  0  0  0  0  0  0  0  0
  181.7550  175.4030  138.9780 O   0  0  0  0  0  0  0  0  0  0  0  0
  180.0280  177.2630  137.8240 O   0  0  0  0  0  1  0  0  0  0  0  0
  180.9070  177.7340  138.8030 C   0  0  1  0  0  0  0  0  0  0  0  0
  181.0060  179.0400  141.0000 C   0  0  0  0  0  2  0  0  0  0  0  0
  180.6640  175.4730  139.7710 O   0  0  0  0  0  0  0  0  0  0  0  0
  182.4160  178.4310  140.9590 C   0  0  2  0  0  0  0  0  0  0  0  0
  181.4700  176.5770  139.6330 C   0  0  0  0  0  0  0  0  0  0  0  0
  183.2910  179.0770  139.4750 S   0  0  0  0  0  0  0  0  0  0  0  0
  180.1500  178.6510  139.7750 C   0  0  0  0  0  2  0  0  0  0  0  0
  181.0580  179.5370  136.1520 O   0  0  0  0  0  0  0  0  0  0  0  0
  181.5530  179.6770  137.4290 N   0  0  0  0  0  0  0  0  0  0  0  0
  181.7230  180.8280  137.8810 O   0  0  0  0  0  0  0  0  0  0  0  0
  183.1510  178.8210  142.2110 C   0  0  0  0  0  0  0  0  0  0  0  0
  182.4810  178.8810  143.4310 O   0  0  0  0  0  1  0  0  0  0  0  0
  184.3590  179.1850  142.1530 O   0  0  0  0  0  0  0  0  0  0  0  0
  189.1350  177.4980  137.8220 C   0  0  0  0  0  2  0  0  0  0  0  0
  188.6790  176.7760  138.9360 O   0  0  0  0  0  0  0  0  0  0  0  0
  189.7990  176.5460  139.7490 C   0  0  2  0  0  3  0  0  0  0  0  0
  190.1220  177.7810  140.6280 C   0  0  1  0  0  3  0  0  0  0  0  0
  187.6580  178.4360  140.9510 C   0  0  0  0  0  2  0  0  0  0  0  0
  188.0100  177.4400  142.0390 C   0  0  1  0  0  3  0  0  0  0  0  0
  189.0510  178.4280  141.5400 C   0  0  1  0  0  3  0  0  0  0  0  0
  187.4060  177.9400  143.3400 C   0  0  1  0  0  3  0  0  0  0  0  0
  186.3610  177.0780  143.7240 O   0  0  0  0  0  0  0  0  0  0  0  0
  187.5710  176.9360  144.4180 C   0  0  0  0  0  2  0  0  0  0  0  0
  191.4740  177.6640  141.3470 C   0  0  0  0  0  2  0  0  0  0  0  0
  190.6970  175.1990  142.8150 O   0  0  0  0  0  0  0  0  0  0  0  0
  191.6200  177.7630  145.1340 C   0  0  0  0  0  3  0  0  0  0  0  0
  191.3280  177.4680  142.7870 N   0  0  0  0  0  0  0  0  0  0  0  0
  191.8200  178.4180  143.7600 C   0  0  0  0  0  3  0  0  0  0  0  0
  191.1700  176.3190  144.8950 C   0  0  0  0  0  2  0  0  0  0  0  0
  191.0330  176.2460  143.4300 C   0  0  0  0  0  0  0  0  0  0  0  0
  191.0110  176.2080  138.8660 C   0  0  0  0  0  2  0  0  0  0  0  0
  190.9480  174.8750  138.4510 O   0  0  0  0  0  0  0  0  0  0  0  0
  191.8820  174.7780  137.4200 C   0  0  0  0  0  2  0  0  0  0  0  0
  193.2080  175.3330  137.8980 C   0  0  0  0  0  2  0  0  0  0  0  0
  194.2370  175.1630  136.8400 C   0  0  0  0  0  0  0  0  0  0  0  0
  193.8830  174.8740  135.6690 O   0  0  0  0  0  0  0  0  0  0  0  0
  195.5870  175.2930  137.1730 O   0  0  0  0  0  0  0  0  0  0  0  0
  196.5470  174.2940  136.8610 C   0  0  0  0  0  2  0  0  0  0  0  0
  197.9270  174.9160  136.7360 C   0  0  0  0  0  1  0  0  0  0  0  0
  1  2  1  6  0  0  0
  1  6  1  0  0  0  0
  1 30  1  0  0  0  0
  4  3  1  0  0  0  0
  4  1  1  0  0  0  0
  5  4  2  0  0  0  0
  7  8  1  0  0  0  0
  7  6  1  0  0  0  0
  8  9  1  0  0  0  0
  9 10  1  0  0  0  0
 10 11  1  6  0  0  0
 12 10  1  0  0  0  0
 13 20  1  0  0  0  0
 14 12  1  6  0  0  0
 14 17  1  0  0  0  0
 14 22  1  0  0  0  0
 15 21  1  0  0  0  0
 15 19  1  0  0  0  0
 17 16  1  6  0  0  0
 17 21  1  0  0  0  0
 17 23  1  0  0  0  0
 20 18  1  0  0  0  0
 20 27  1  1  0  0  0
 21 19  1  0  0  0  0
 21 13  1  0  0  0  0
 22 20  1  0  0  0  0
 23 18  1  0  0  0  0
 24 25  2  0  0  0  0
 25 26  2  0  0  0  0
 25 14  1  0  0  0  0
 27 28  1  0  0  0  0
 29 27  2  0  0  0  0
 30 31  1  0  0  0  0
 31 32  1  0  0  0  0
 32 47  1  6  0  0  0
 32 33  1  0  0  0  0
 33 40  1  1  0  0  0
 34 36  1  0  0  0  0
 35 34  1  6  0  0  0
 35 37  1  0  0  0  0
 36 33  1  6  0  0  0
 36 35  1  0  0  0  0
 37 38  1  0  0  0  0
 37 39  1  1  0  0  0
 38 39  1  0  0  0  0
 40 43  1  0  0  0  0
 41 46  2  0  0  0  0
 43 46  1  0  0  0  0
 43 44  1  0  0  0  0
 44 42  2  0  0  0  0
 45 42  1  0  0  0  0
 46 45  1  0  0  0  0
 48 47  1  0  0  0  0
 49 50  1  0  0  0  0
 49 48  1  0  0  0  0
 51 53  1  0  0  0  0
 51 50  1  0  0  0  0
 52 51  2  0  0  0  0
 54 53  1  0  0  0  0
 55 54  1  0  0  0  0
M  END
>  <MODEL>
4

>  <REMARK>
 VINA RESULT:      -5.3      3.455     10.413
  Name = 
  25 active torsions:
  status: ('A' for Active; 'I' for Inactive)
    1  A    between atoms: C_1  and  C_29
    2  A    between atoms: C_2  and  O_28
    3  A    between atoms: C_2  and  C_31
    4  A    between atoms: C_4  and  C_40
    5  A    between atoms: C_6  and  N_20
    6  A    between atoms: C_6  and  O_22
    7  A    between atoms: C_8  and  O_22
    8  A    between atoms: C_8  and  C_35
    9  A    between atoms: C_10  and  O_32
   10  A    between atoms: C_13  and  C_48
   11  A    between atoms: C_13  and  O_52
   12  A    between atoms: N_16  and  C_36
   13  A    between atoms: O_27  and  C_31
   14  A    between atoms: O_27  and  C_54
   15  A    between atoms: O_28  and  C_33
   16  A    between atoms: C_31  and  C_41
   17  A    between atoms: O_32  and  C_39
   18  A    between atoms: C_33  and  C_34
   19  A    between atoms: C_33  and  C_49
   20  A    between atoms: C_34  and  O_52
   21  A    between atoms: C_35  and  C_51
   22  A    between atoms: C_36  and  C_49
   23  A    between atoms: C_39  and  C_48
   24  A    between atoms: C_45  and  C_49
   25  A    between atoms: C_51  and  C_54
                            x       y       z     vdW  Elec       q    Type
                         _______ _______ _______ _____ _____    ______ ____

>  <TORSDO>
F 25

$$$$
=
 OpenBabel10272401443D

 55 60  0  0  1  0  0  0  0  0999 V2000
  189.0320  177.3550  138.9950 C   0  0  2  0  0  0  0  0  0  0  0  0
  189.1180  178.8020  138.5510 C   0  0  0  0  0  1  0  0  0  0  0  0
  190.5920  175.8930  140.1250 O   0  0  0  0  0  1  0  0  0  0  0  0
  190.4010  176.9840  139.5220 C   0  0  0  0  0  0  0  0  0  0  0  0
  191.4520  177.8930  139.4230 O   0  0  0  0  0  0  0  0  0  0  0  0
  188.6670  176.5700  137.8680 O   0  0  0  0  0  0  0  0  0  0  0  0
  187.2700  176.6040  137.6830 C   0  0  0  0  0  2  0  0  0  0  0  0
  186.9480  177.1330  136.3000 C   0  0  0  0  0  2  0  0  0  0  0  0
  185.4460  177.1590  136.0900 C   0  0  0  0  0  2  0  0  0  0  0  0
  184.7390  177.4600  137.3970 C   0  0  1  0  0  3  0  0  0  0  0  0
  185.2040  178.6670  137.8890 F   0  0  0  0  0  0  0  0  0  0  0  0
  183.3530  177.5500  137.1670 O   0  0  0  0  0  0  0  0  0  0  0  0
  182.7360  174.4670  135.2350 C   0  0  0  0  0  2  0  0  0  0  0  0
  182.6850  176.4160  137.7010 C   0  0  1  0  0  0  0  0  0  0  0  0
  182.2270  176.7670  134.5200 O   0  0  0  0  0  0  0  0  0  0  0  0
  180.6130  177.2520  136.7410 O   0  0  0  0  0  1  0  0  0  0  0  0
  181.4510  176.1350  136.7970 C   0  0  1  0  0  0  0  0  0  0  0  0
  181.4690  173.6160  137.2360 C   0  0  0  0  0  2  0  0  0  0  0  0
  181.0970  176.0450  134.3520 O   0  0  0  0  0  0  0  0  0  0  0  0
  182.8620  173.8140  136.6190 C   0  0  2  0  0  0  0  0  0  0  0  0
  181.9380  175.7490  135.3980 C   0  0  0  0  0  0  0  0  0  0  0  0
  183.8310  174.9350  137.7100 S   0  0  0  0  0  0  0  0  0  0  0  0
  180.6690  174.9320  137.3420 C   0  0  0  0  0  2  0  0  0  0  0  0
  181.9190  177.9900  139.4500 O   0  0  0  0  0  0  0  0  0  0  0  0
  182.2210  176.7020  139.0690 N   0  0  0  0  0  0  0  0  0  0  0  0
  182.2860  175.8190  139.9490 O   0  0  0  0  0  0  0  0  0  0  0  0
  183.5400  172.4770  136.5090 C   0  0  0  0  0  0  0  0  0  0  0  0
  183.6760  171.8570  135.2690 O   0  0  0  0  0  0  0  0  0  0  0  0
  183.9110  171.8630  137.5480 O   0  0  0  0  0  1  0  0  0  0  0  0
  187.9690  177.2550  140.1040 C   0  0  0  0  0  2  0  0  0  0  0  0
  187.8440  178.4560  140.8200 O   0  0  0  0  0  0  0  0  0  0  0  0
  188.0330  178.1360  142.1730 C   0  0  2  0  0  3  0  0  0  0  0  0
  186.7640  178.4420  143.0090 C   0  0  1  0  0  3  0  0  0  0  0  0
  184.7410  177.9320  141.5070 C   0  0  0  0  0  2  0  0  0  0  0  0
  184.2080  178.2950  142.8800 C   0  0  1  0  0  3  0  0  0  0  0  0
  185.4650  178.9630  142.3450 C   0  0  1  0  0  3  0  0  0  0  0  0
  183.0150  179.2150  142.6860 C   0  0  1  0  0  3  0  0  0  0  0  0
  181.8900  178.4430  142.3350 O   0  0  0  0  0  0  0  0  0  0  0  0
  181.9430  178.9000  143.6610 C   0  0  0  0  0  2  0  0  0  0  0  0
  186.4640  177.3600  144.0560 C   0  0  0  0  0  2  0  0  0  0  0  0
  184.8130  179.0760  145.8350 O   0  0  0  0  0  0  0  0  0  0  0  0
  187.6570  177.8440  147.6210 C   0  0  0  0  0  3  0  0  0  0  0  0
  186.7500  177.8030  145.4180 N   0  0  0  0  0  0  0  0  0  0  0  0
  187.8030  177.2250  146.2230 C   0  0  0  0  0  3  0  0  0  0  0  0
  186.3590  178.6560  147.6330 C   0  0  0  0  0  2  0  0  0  0  0  0
  185.8840  178.5550  146.2430 C   0  0  0  0  0  0  0  0  0  0  0  0
  189.2220  178.9380  142.7270 C   0  0  0  0  0  2  0  0  0  0  0  0
  189.7540  178.2960  143.8490 O   0  0  0  0  0  0  0  0  0  0  0  0
  190.3110  177.1170  143.3560 C   0  0  0  0  0  2  0  0  0  0  0  0
  191.6840  176.9240  143.9640 C   0  0  0  0  0  2  0  0  0  0  0  0
  191.8370  175.5230  144.4330 C   0  0  0  0  0  0  0  0  0  0  0  0
  191.8230  174.5840  143.5980 O   0  0  0  0  0  0  0  0  0  0  0  0
  191.9570  175.2690  145.8010 O   0  0  0  0  0  0  0  0  0  0  0  0
  192.1850  176.3020  146.7500 C   0  0  0  0  0  2  0  0  0  0  0  0
  191.0190  176.3900  147.7180 C   0  0  0  0  0  1  0  0  0  0  0  0
  1  2  1  6  0  0  0
  1  4  1  0  0  0  0
  1 30  1  0  0  0  0
  4  3  1  0  0  0  0
  5  4  2  0  0  0  0
  6  1  1  0  0  0  0
  7  6  1  0  0  0  0
  8  7  1  0  0  0  0
  9  8  1  0  0  0  0
  9 10  1  0  0  0  0
 10 11  1  6  0  0  0
 12 10  1  0  0  0  0
 13 21  1  0  0  0  0
 13 20  1  0  0  0  0
 14 12  1  6  0  0  0
 14 22  1  0  0  0  0
 14 25  1  0  0  0  0
 15 21  1  0  0  0  0
 17 16  1  6  0  0  0
 17 23  1  0  0  0  0
 17 14  1  0  0  0  0
 18 23  1  0  0  0  0
 19 15  1  0  0  0  0
 19 21  1  0  0  0  0
 20 27  1  6  0  0  0
 20 18  1  0  0  0  0
 20 22  1  0  0  0  0
 21 17  1  0  0  0  0
 25 24  2  0  0  0  0
 25 26  2  0  0  0  0
 27 29  1  0  0  0  0
 28 27  2  0  0  0  0
 30 31  1  0  0  0  0
 31 32  1  0  0  0  0
 32 47  1  1  0  0  0
 32 33  1  0  0  0  0
 33 40  1  6  0  0  0
 34 36  1  0  0  0  0
 35 34  1  6  0  0  0
 36 35  1  0  0  0  0
 36 33  1  1  0  0  0
 37 35  1  0  0  0  0
 37 39  1  1  0  0  0
 38 37  1  0  0  0  0
 38 39  1  0  0  0  0
 40 43  1  0  0  0  0
 41 46  2  0  0  0  0
 42 45  1  0  0  0  0
 43 44  1  0  0  0  0
 43 46  1  0  0  0  0
 44 42  2  0  0  0  0
 46 45  1  0  0  0  0
 47 48  1  0  0  0  0
 49 48  1  0  0  0  0
 49 50  1  0  0  0  0
 50 51  1  0  0  0  0
 51 53  1  0  0  0  0
 52 51  2  0  0  0  0
 53 54  1  0  0  0  0
 54 55  1  0  0  0  0
M  END
>  <MODEL>
5

>  <REMARK>
 VINA RESULT:      -5.2      4.859      9.256
  Name = 
  25 active torsions:
  status: ('A' for Active; 'I' for Inactive)
    1  A    between atoms: C_1  and  C_29
    2  A    between atoms: C_2  and  O_28
    3  A    between atoms: C_2  and  C_31
    4  A    between atoms: C_4  and  C_40
    5  A    between atoms: C_6  and  N_20
    6  A    between atoms: C_6  and  O_22
    7  A    between atoms: C_8  and  O_22
    8  A    between atoms: C_8  and  C_35
    9  A    between atoms: C_10  and  O_32
   10  A    between atoms: C_13  and  C_48
   11  A    between atoms: C_13  and  O_52
   12  A    between atoms: N_16  and  C_36
   13  A    between atoms: O_27  and  C_31
   14  A    between atoms: O_27  and  C_54
   15  A    between atoms: O_28  and  C_33
   16  A    between atoms: C_31  and  C_41
   17  A    between atoms: O_32  and  C_39
   18  A    between atoms: C_33  and  C_34
   19  A    between atoms: C_33  and  C_49
   20  A    between atoms: C_34  and  O_52
   21  A    between atoms: C_35  and  C_51
   22  A    between atoms: C_36  and  C_49
   23  A    between atoms: C_39  and  C_48
   24  A    between atoms: C_45  and  C_49
   25  A    between atoms: C_51  and  C_54
                            x       y       z     vdW  Elec       q    Type
                         _______ _______ _______ _____ _____    ______ ____

>  <TORSDO>
F 25

$$$$
=
 OpenBabel10272401443D

 55 60  0  0  1  0  0  0  0  0999 V2000
  188.0920  176.7830  136.9730 C   0  0  2  0  0  0  0  0  0  0  0  0
  188.2200  177.7080  135.7790 C   0  0  0  0  0  1  0  0  0  0  0  0
  189.4170  174.8040  137.3990 O   0  0  0  0  0  1  0  0  0  0  0  0
  188.7370  175.4730  136.5730 C   0  0  0  0  0  0  0  0  0  0  0  0
  188.6580  175.0360  135.2530 O   0  0  0  0  0  0  0  0  0  0  0  0
  186.7100  176.6260  137.2630 O   0  0  0  0  0  0  0  0  0  0  0  0
  185.9470  177.5250  136.4910 C   0  0  0  0  0  2  0  0  0  0  0  0
  184.9280  178.2210  137.3710 C   0  0  0  0  0  2  0  0  0  0  0  0
  184.6690  177.3980  138.6190 C   0  0  0  0  0  2  0  0  0  0  0  0
  183.2670  177.6560  139.1350 C   0  0  1  0  0  3  0  0  0  0  0  0
  183.2240  178.9200  139.6980 F   0  0  0  0  0  0  0  0  0  0  0  0
  182.3570  177.5890  138.0640 O   0  0  0  0  0  0  0  0  0  0  0  0
  182.8430  175.1180  135.3660 C   0  0  0  0  0  2  0  0  0  0  0  0
  181.7090  176.3250  138.0390 C   0  0  1  0  0  0  0  0  0  0  0  0
  182.2940  177.5010  135.0840 O   0  0  0  0  0  0  0  0  0  0  0  0
  179.9820  177.2990  136.6290 O   0  0  0  0  0  1  0  0  0  0  0  0
  180.8970  176.2460  136.7150 C   0  0  1  0  0  0  0  0  0  0  0  0
  181.1090  173.7040  136.5200 C   0  0  0  0  0  2  0  0  0  0  0  0
  181.3940  176.8030  134.3580 O   0  0  0  0  0  0  0  0  0  0  0  0
  182.5880  174.1220  136.5070 C   0  0  2  0  0  0  0  0  0  0  0  0
  181.8700  176.2730  135.5330 C   0  0  0  0  0  0  0  0  0  0  0  0
  182.9770  174.9480  138.1040 S   0  0  0  0  0  0  0  0  0  0  0  0
  180.1490  174.9070  136.6420 C   0  0  0  0  0  2  0  0  0  0  0  0
  180.0860  177.3120  139.6250 O   0  0  0  0  0  0  0  0  0  0  0  0
  180.7810  176.2110  139.1770 N   0  0  0  0  0  0  0  0  0  0  0  0
  180.7640  175.1720  139.8680 O   0  0  0  0  0  0  0  0  0  0  0  0
  183.4380  172.8950  136.3320 C   0  0  0  0  0  0  0  0  0  0  0  0
  183.7470  172.4280  135.0570 O   0  0  0  0  0  0  0  0  0  0  0  0
  183.8050  172.2260  137.3390 O   0  0  0  0  0  1  0  0  0  0  0  0
  188.8360  177.4230  138.1590 C   0  0  0  0  0  2  0  0  0  0  0  0
  188.1380  177.2580  139.3660 O   0  0  0  0  0  0  0  0  0  0  0  0
  189.1040  177.0220  140.3560 C   0  0  2  0  0  3  0  0  0  0  0  0
  188.6880  177.6490  141.7110 C   0  0  1  0  0  3  0  0  0  0  0  0
  186.5270  178.6290  140.7220 C   0  0  0  0  0  2  0  0  0  0  0  0
  186.2150  178.1740  142.1340 C   0  0  1  0  0  3  0  0  0  0  0  0
  187.5860  178.7340  141.7960 C   0  0  1  0  0  3  0  0  0  0  0  0
  185.3660  179.2490  142.7910 C   0  0  1  0  0  3  0  0  0  0  0  0
  184.0120  178.8660  142.7330 O   0  0  0  0  0  0  0  0  0  0  0  0
  184.6510  178.7080  143.9720 C   0  0  0  0  0  2  0  0  0  0  0  0
  188.5350  176.6070  142.8290 C   0  0  0  0  0  2  0  0  0  0  0  0
  187.4960  177.2800  145.5310 O   0  0  0  0  0  0  0  0  0  0  0  0
  191.0680  177.1010  145.6060 C   0  0  0  0  0  3  0  0  0  0  0  0
  189.2840  176.9610  144.0320 N   0  0  0  0  0  0  0  0  0  0  0  0
  190.7120  176.7670  144.1500 C   0  0  0  0  0  3  0  0  0  0  0  0
  189.7550  177.3090  146.3650 C   0  0  0  0  0  2  0  0  0  0  0  0
  188.7330  177.1920  145.3120 C   0  0  0  0  0  0  0  0  0  0  0  0
  190.4510  177.6090  139.9070 C   0  0  0  0  0  2  0  0  0  0  0  0
  191.5030  176.8330  140.4010 O   0  0  0  0  0  0  0  0  0  0  0  0
  192.5650  177.0770  139.5300 C   0  0  0  0  0  2  0  0  0  0  0  0
  192.2510  176.4620  138.1820 C   0  0  0  0  0  2  0  0  0  0  0  0
  193.5090  176.0380  137.5150 C   0  0  0  0  0  0  0  0  0  0  0  0
  193.5730  176.0260  136.2600 O   0  0  0  0  0  0  0  0  0  0  0  0
  194.5910  175.6250  138.2960 O   0  0  0  0  0  0  0  0  0  0  0  0
  195.0080  174.2680  138.3610 C   0  0  0  0  0  2  0  0  0  0  0  0
  196.5160  174.1920  138.5190 C   0  0  0  0  0  1  0  0  0  0  0  0
  1  2  1  6  0  0  0
  1  6  1  0  0  0  0
  1 30  1  0  0  0  0
  4  1  1  0  0  0  0
  4  3  1  0  0  0  0
  5  4  2  0  0  0  0
  7  6  1  0  0  0  0
  7  8  1  0  0  0  0
  8  9  1  0  0  0  0
  9 10  1  0  0  0  0
 10 11  1  6  0  0  0
 12 10  1  0  0  0  0
 13 21  1  0  0  0  0
 13 20  1  0  0  0  0
 14 12  1  1  0  0  0
 14 22  1  0  0  0  0
 14 25  1  0  0  0  0
 15 21  1  0  0  0  0
 17 16  1  6  0  0  0
 17 14  1  0  0  0  0
 18 23  1  0  0  0  0
 19 15  1  0  0  0  0
 19 21  1  0  0  0  0
 20 27  1  6  0  0  0
 20 18  1  0  0  0  0
 20 22  1  0  0  0  0
 21 17  1  0  0  0  0
 23 17  1  0  0  0  0
 25 24  2  0  0  0  0
 25 26  2  0  0  0  0
 27 29  1  0  0  0  0
 28 27  2  0  0  0  0
 30 31  1  0  0  0  0
 31 32  1  0  0  0  0
 32 47  1  6  0  0  0
 32 33  1  0  0  0  0
 33 40  1  1  0  0  0
 34 36  1  0  0  0  0
 35 34  1  6  0  0  0
 35 37  1  0  0  0  0
 36 33  1  6  0  0  0
 36 35  1  0  0  0  0
 37 39  1  1  0  0  0
 38 37  1  0  0  0  0
 38 39  1  0  0  0  0
 40 43  1  0  0  0  0
 42 45  1  0  0  0  0
 43 44  1  0  0  0  0
 43 46  1  0  0  0  0
 44 42  2  0  0  0  0
 46 41  2  0  0  0  0
 46 45  1  0  0  0  0
 47 48  1  0  0  0  0
 49 48  1  0  0  0  0
 50 49  1  0  0  0  0
 51 50  1  0  0  0  0
 51 53  1  0  0  0  0
 52 51  2  0  0  0  0
 53 54  1  0  0  0  0
 54 55  1  0  0  0  0
M  END
>  <MODEL>
6

>  <REMARK>
 VINA RESULT:      -5.2      3.971      9.627
  Name = 
  25 active torsions:
  status: ('A' for Active; 'I' for Inactive)
    1  A    between atoms: C_1  and  C_29
    2  A    between atoms: C_2  and  O_28
    3  A    between atoms: C_2  and  C_31
    4  A    between atoms: C_4  and  C_40
    5  A    between atoms: C_6  and  N_20
    6  A    between atoms: C_6  and  O_22
    7  A    between atoms: C_8  and  O_22
    8  A    between atoms: C_8  and  C_35
    9  A    between atoms: C_10  and  O_32
   10  A    between atoms: C_13  and  C_48
   11  A    between atoms: C_13  and  O_52
   12  A    between atoms: N_16  and  C_36
   13  A    between atoms: O_27  and  C_31
   14  A    between atoms: O_27  and  C_54
   15  A    between atoms: O_28  and  C_33
   16  A    between atoms: C_31  and  C_41
   17  A    between atoms: O_32  and  C_39
   18  A    between atoms: C_33  and  C_34
   19  A    between atoms: C_33  and  C_49
   20  A    between atoms: C_34  and  O_52
   21  A    between atoms: C_35  and  C_51
   22  A    between atoms: C_36  and  C_49
   23  A    between atoms: C_39  and  C_48
   24  A    between atoms: C_45  and  C_49
   25  A    between atoms: C_51  and  C_54
                            x       y       z     vdW  Elec       q    Type
                         _______ _______ _______ _____ _____    ______ ____

>  <TORSDO>
F 25

$$$$
=
 OpenBabel10272401443D

 55 60  0  0  1  0  0  0  0  0999 V2000
  189.3000  177.3870  142.5290 C   0  0  2  0  0  0  0  0  0  0  0  0
  189.0950  175.8900  142.6460 C   0  0  0  0  0  1  0  0  0  0  0  0
  191.2160  176.8580  143.9070 O   0  0  0  0  0  0  0  0  0  0  0  0
  190.4280  177.7420  143.4720 C   0  0  0  0  0  0  0  0  0  0  0  0
  190.5540  179.0480  143.9420 O   0  0  0  0  0  1  0  0  0  0  0  0
  188.0850  178.0270  142.8920 O   0  0  0  0  0  0  0  0  0  0  0  0
  187.5450  178.7110  141.7840 C   0  0  0  0  0  2  0  0  0  0  0  0
  186.0960  179.0660  142.0550 C   0  0  0  0  0  2  0  0  0  0  0  0
  185.1930  178.3610  141.0610 C   0  0  0  0  0  2  0  0  0  0  0  0
  183.8620  178.0290  141.7060 C   0  0  1  0  0  3  0  0  0  0  0  0
  184.0530  177.8670  143.0680 F   0  0  0  0  0  0  0  0  0  0  0  0
  182.9600  179.0870  141.4830 O   0  0  0  0  0  0  0  0  0  0  0  0
  182.6090  178.4730  137.8610 C   0  0  0  0  0  2  0  0  0  0  0  0
  181.7650  178.6050  140.8860 C   0  0  1  0  0  0  0  0  0  0  0  0
  183.4710  180.5220  138.9200 O   0  0  0  0  0  0  0  0  0  0  0  0
  181.1410  180.9060  140.4030 O   0  0  0  0  0  1  0  0  0  0  0  0
  181.3230  179.6480  139.8210 C   0  0  1  0  0  0  0  0  0  0  0  0
  180.1990  177.9120  138.3160 C   0  0  0  0  0  2  0  0  0  0  0  0
  182.5090  180.9040  138.0520 O   0  0  0  0  0  0  0  0  0  0  0  0
  181.6410  177.3840  138.3430 C   0  0  2  0  0  0  0  0  0  0  0  0
  182.3820  179.7080  138.7160 C   0  0  0  0  0  0  0  0  0  0  0  0
  182.0700  176.9430  140.0770 S   0  0  0  0  0  0  0  0  0  0  0  0
  180.0150  179.1940  139.1570 C   0  0  0  0  0  2  0  0  0  0  0  0
  180.3520  179.5660  142.6770 O   0  0  0  0  0  0  0  0  0  0  0  0
  180.7060  178.4830  141.9030 N   0  0  0  0  0  0  0  0  0  0  0  0
  180.2610  177.3580  142.2110 O   0  0  0  0  0  0  0  0  0  0  0  0
  181.7310  176.1720  137.4590 C   0  0  0  0  0  0  0  0  0  0  0  0
  180.9530  176.0810  136.3070 O   0  0  0  0  0  0  0  0  0  0  0  0
  182.4450  175.1870  137.7980 O   0  0  0  0  0  1  0  0  0  0  0  0
  189.6780  177.7080  141.0720 C   0  0  0  0  0  2  0  0  0  0  0  0
  188.9650  176.9170  140.1580 O   0  0  0  0  0  0  0  0  0  0  0  0
  189.6030  177.0660  138.9170 C   0  0  2  0  0  3  0  0  0  0  0  0
  188.7500  176.4710  137.7680 C   0  0  1  0  0  3  0  0  0  0  0  0
  186.7790  178.0380  137.2500 C   0  0  0  0  0  2  0  0  0  0  0  0
  186.6800  176.8560  136.3050 C   0  0  1  0  0  3  0  0  0  0  0  0
  187.2140  176.6660  137.7160 C   0  0  1  0  0  3  0  0  0  0  0  0
  185.2230  176.4310  136.2450 C   0  0  1  0  0  3  0  0  0  0  0  0
  184.5580  177.2020  135.2720 O   0  0  0  0  0  0  0  0  0  0  0  0
  184.8870  175.8890  134.9070 C   0  0  0  0  0  2  0  0  0  0  0  0
  189.3880  176.6730  136.3860 C   0  0  0  0  0  2  0  0  0  0  0  0
  191.7850  176.2450  134.6830 O   0  0  0  0  0  0  0  0  0  0  0  0
  190.2990  173.0980  135.5130 C   0  0  0  0  0  3  0  0  0  0  0  0
  189.8870  175.4260  135.8110 N   0  0  0  0  0  0  0  0  0  0  0  0
  189.4100  174.1260  136.2280 C   0  0  0  0  0  3  0  0  0  0  0  0
  191.4280  173.8670  134.8190 C   0  0  0  0  0  2  0  0  0  0  0  0
  191.0820  175.2760  135.0740 C   0  0  0  0  0  0  0  0  0  0  0  0
  190.9720  176.3670  138.9600 C   0  0  0  0  0  2  0  0  0  0  0  0
  191.9270  177.1400  138.2930 O   0  0  0  0  0  0  0  0  0  0  0  0
  193.1400  176.4980  138.5420 C   0  0  0  0  0  2  0  0  0  0  0  0
  193.0870  175.0970  137.9690 C   0  0  0  0  0  2  0  0  0  0  0  0
  194.4570  174.6380  137.6280 C   0  0  0  0  0  0  0  0  0  0  0  0
  195.3070  175.4690  137.2200 O   0  0  0  0  0  0  0  0  0  0  0  0
  194.7690  173.2800  137.7330 O   0  0  0  0  0  0  0  0  0  0  0  0
  194.8190  172.4220  136.6020 C   0  0  0  0  0  2  0  0  0  0  0  0
  194.9780  170.9790  137.0480 C   0  0  0  0  0  1  0  0  0  0  0  0
  1  2  1  1  0  0  0
  1  6  1  0  0  0  0
  1  4  1  0  0  0  0
  4  3  2  0  0  0  0
  4  5  1  0  0  0  0
  7  8  1  0  0  0  0
  7  6  1  0  0  0  0
  9 10  1  0  0  0  0
  9  8  1  0  0  0  0
 10 11  1  1  0  0  0
 12 10  1  0  0  0  0
 13 20  1  0  0  0  0
 13 21  1  0  0  0  0
 14 12  1  1  0  0  0
 14 25  1  0  0  0  0
 17 16  1  1  0  0  0
 17 14  1  0  0  0  0
 18 20  1  0  0  0  0
 18 23  1  0  0  0  0
 19 21  1  0  0  0  0
 19 15  1  0  0  0  0
 20 27  1  6  0  0  0
 20 22  1  0  0  0  0
 21 15  1  0  0  0  0
 21 17  1  0  0  0  0
 22 14  1  0  0  0  0
 23 17  1  0  0  0  0
 25 26  2  0  0  0  0
 25 24  2  0  0  0  0
 27 29  1  0  0  0  0
 28 27  2  0  0  0  0
 30  1  1  0  0  0  0
 31 30  1  0  0  0  0
 32 47  1  1  0  0  0
 32 31  1  0  0  0  0
 33 40  1  6  0  0  0
 33 32  1  0  0  0  0
 34 36  1  0  0  0  0
 35 34  1  1  0  0  0
 35 36  1  0  0  0  0
 36 33  1  6  0  0  0
 37 39  1  6  0  0  0
 37 35  1  0  0  0  0
 38 37  1  0  0  0  0
 39 38  1  0  0  0  0
 41 46  2  0  0  0  0
 42 44  2  0  0  0  0
 43 44  1  0  0  0  0
 43 40  1  0  0  0  0
 45 46  1  0  0  0  0
 45 42  1  0  0  0  0
 46 43  1  0  0  0  0
 48 49  1  0  0  0  0
 48 47  1  0  0  0  0
 50 49  1  0  0  0  0
 51 53  1  0  0  0  0
 51 50  1  0  0  0  0
 52 51  2  0  0  0  0
 54 55  1  0  0  0  0
 54 53  1  0  0  0  0
M  END
>  <MODEL>
7

>  <REMARK>
 VINA RESULT:      -4.9      3.611     10.779
  Name = 
  25 active torsions:
  status: ('A' for Active; 'I' for Inactive)
    1  A    between atoms: C_1  and  C_29
    2  A    between atoms: C_2  and  O_28
    3  A    between atoms: C_2  and  C_31
    4  A    between atoms: C_4  and  C_40
    5  A    between atoms: C_6  and  N_20
    6  A    between atoms: C_6  and  O_22
    7  A    between atoms: C_8  and  O_22
    8  A    between atoms: C_8  and  C_35
    9  A    between atoms: C_10  and  O_32
   10  A    between atoms: C_13  and  C_48
   11  A    between atoms: C_13  and  O_52
   12  A    between atoms: N_16  and  C_36
   13  A    between atoms: O_27  and  C_31
   14  A    between atoms: O_27  and  C_54
   15  A    between atoms: O_28  and  C_33
   16  A    between atoms: C_31  and  C_41
   17  A    between atoms: O_32  and  C_39
   18  A    between atoms: C_33  and  C_34
   19  A    between atoms: C_33  and  C_49
   20  A    between atoms: C_34  and  O_52
   21  A    between atoms: C_35  and  C_51
   22  A    between atoms: C_36  and  C_49
   23  A    between atoms: C_39  and  C_48
   24  A    between atoms: C_45  and  C_49
   25  A    between atoms: C_51  and  C_54
                            x       y       z     vdW  Elec       q    Type
                         _______ _______ _______ _____ _____    ______ ____

>  <TORSDO>
F 25

$$$$
=
 OpenBabel10272401443D

 55 60  0  0  1  0  0  0  0  0999 V2000
  189.3430  177.4410  141.6400 C   0  0  2  0  0  0  0  0  0  0  0  0
  188.7590  176.3730  142.5430 C   0  0  0  0  0  1  0  0  0  0  0  0
  191.6970  177.8550  142.0100 O   0  0  0  0  0  0  0  0  0  0  0  0
  190.5090  178.0470  142.3900 C   0  0  0  0  0  0  0  0  0  0  0  0
  190.2840  178.7570  143.5670 O   0  0  0  0  0  1  0  0  0  0  0  0
  188.3270  178.3980  141.3770 O   0  0  0  0  0  0  0  0  0  0  0  0
  187.0620  177.7760  141.3720 C   0  0  0  0  0  2  0  0  0  0  0  0
  185.9870  178.7960  141.6940 C   0  0  0  0  0  2  0  0  0  0  0  0
  185.2380  178.3820  142.9460 C   0  0  0  0  0  2  0  0  0  0  0  0
  183.7630  178.2030  142.6400 C   0  0  1  0  0  3  0  0  0  0  0  0
  183.0400  178.3860  143.8050 F   0  0  0  0  0  0  0  0  0  0  0  0
  183.3670  179.1600  141.6860 O   0  0  0  0  0  0  0  0  0  0  0  0
  184.0080  178.1610  138.1920 C   0  0  0  0  0  2  0  0  0  0  0  0
  182.3650  178.6270  140.8320 C   0  0  1  0  0  0  0  0  0  0  0  0
  184.6210  180.3050  139.2360 O   0  0  0  0  0  0  0  0  0  0  0  0
  181.9890  180.8680  139.9640 O   0  0  0  0  0  1  0  0  0  0  0  0
  182.2770  179.5530  139.5860 C   0  0  1  0  0  0  0  0  0  0  0  0
  181.5450  177.6750  138.0110 C   0  0  0  0  0  2  0  0  0  0  0  0
  183.9520  180.5990  138.1000 O   0  0  0  0  0  0  0  0  0  0  0  0
  182.9020  177.1390  138.4930 C   0  0  2  0  0  0  0  0  0  0  0  0
  183.6010  179.4830  138.8200 C   0  0  0  0  0  0  0  0  0  0  0  0
  182.8180  176.8850  140.3140 S   0  0  0  0  0  0  0  0  0  0  0  0
  181.1860  179.0410  138.6330 C   0  0  0  0  0  2  0  0  0  0  0  0
  180.1840  177.5790  141.3500 O   0  0  0  0  0  0  0  0  0  0  0  0
  181.0630  178.6250  141.5210 N   0  0  0  0  0  0  0  0  0  0  0  0
  180.6620  179.6530  142.1030 O   0  0  0  0  0  0  0  0  0  0  0  0
  183.1870  175.8380  137.7970 C   0  0  0  0  0  0  0  0  0  0  0  0
  183.0650  174.6310  138.4820 O   0  0  0  0  0  1  0  0  0  0  0  0
  183.6250  175.8320  136.6120 O   0  0  0  0  0  0  0  0  0  0  0  0
  189.8150  176.7660  140.3400 C   0  0  0  0  0  2  0  0  0  0  0  0
  189.5640  177.5640  139.2130 O   0  0  0  0  0  0  0  0  0  0  0  0
  190.3210  177.0220  138.1640 C   0  0  2  0  0  3  0  0  0  0  0  0
  189.4910  176.0110  137.3320 C   0  0  1  0  0  3  0  0  0  0  0  0
  188.6820  173.6050  136.9280 C   0  0  0  0  0  2  0  0  0  0  0  0
  189.7820  173.8880  135.9240 C   0  0  1  0  0  3  0  0  0  0  0  0
  189.8370  174.5010  137.3140 C   0  0  1  0  0  3  0  0  0  0  0  0
  190.6820  172.6660  135.8650 C   0  0  1  0  0  3  0  0  0  0  0  0
  191.4810  172.7390  134.7070 O   0  0  0  0  0  0  0  0  0  0  0  0
  192.1110  173.0600  135.9180 C   0  0  0  0  0  2  0  0  0  0  0  0
  187.9770  176.2370  137.4550 C   0  0  0  0  0  2  0  0  0  0  0  0
  186.5690  175.0970  135.1000 O   0  0  0  0  0  0  0  0  0  0  0  0
  186.4740  178.6720  134.9680 C   0  0  0  0  0  3  0  0  0  0  0  0
  187.4180  176.9360  136.3010 N   0  0  0  0  0  0  0  0  0  0  0  0
  187.2310  178.3700  136.2700 C   0  0  0  0  0  3  0  0  0  0  0  0
  186.0670  177.3310  134.3500 C   0  0  0  0  0  2  0  0  0  0  0  0
  186.6870  176.3420  135.2490 C   0  0  0  0  0  0  0  0  0  0  0  0
  191.5630  176.3220  138.7380 C   0  0  0  0  0  2  0  0  0  0  0  0
  192.7110  176.7530  138.0670 O   0  0  0  0  0  0  0  0  0  0  0  0
  193.5690  175.6540  138.0880 C   0  0  0  0  0  2  0  0  0  0  0  0
  194.2880  175.5610  136.7570 C   0  0  0  0  0  2  0  0  0  0  0  0
  195.5380  174.7730  136.9130 C   0  0  0  0  0  0  0  0  0  0  0  0
  195.7600  173.8030  136.1460 O   0  0  0  0  0  0  0  0  0  0  0  0
  196.4300  175.1030  137.9350 O   0  0  0  0  0  0  0  0  0  0  0  0
  197.4950  174.2450  138.3220 C   0  0  0  0  0  2  0  0  0  0  0  0
  198.5400  175.0270  139.0980 C   0  0  0  0  0  1  0  0  0  0  0  0
  1  4  1  0  0  0  0
  1  2  1  1  0  0  0
  3  4  2  0  0  0  0
  4  5  1  0  0  0  0
  6  1  1  0  0  0  0
  7  6  1  0  0  0  0
  7  8  1  0  0  0  0
  8  9  1  0  0  0  0
 10  9  1  0  0  0  0
 10 11  1  1  0  0  0
 12 10  1  0  0  0  0
 13 20  1  0  0  0  0
 13 21  1  0  0  0  0
 14 25  1  0  0  0  0
 14 12  1  1  0  0  0
 17 16  1  1  0  0  0
 17 14  1  0  0  0  0
 18 20  1  0  0  0  0
 18 23  1  0  0  0  0
 19 21  1  0  0  0  0
 19 15  1  0  0  0  0
 20 27  1  6  0  0  0
 20 22  1  0  0  0  0
 21 15  1  0  0  0  0
 21 17  1  0  0  0  0
 22 14  1  0  0  0  0
 23 17  1  0  0  0  0
 24 25  2  0  0  0  0
 25 26  2  0  0  0  0
 27 28  1  0  0  0  0
 29 27  2  0  0  0  0
 30  1  1  0  0  0  0
 31 30  1  0  0  0  0
 32 47  1  1  0  0  0
 32 31  1  0  0  0  0
 33 40  1  1  0  0  0
 33 32  1  0  0  0  0
 34 36  1  0  0  0  0
 35 34  1  1  0  0  0
 35 36  1  0  0  0  0
 36 33  1  6  0  0  0
 37 39  1  1  0  0  0
 37 35  1  0  0  0  0
 38 37  1  0  0  0  0
 38 39  1  0  0  0  0
 41 46  2  0  0  0  0
 42 44  2  0  0  0  0
 43 40  1  0  0  0  0
 44 43  1  0  0  0  0
 45 42  1  0  0  0  0
 45 46  1  0  0  0  0
 46 43  1  0  0  0  0
 48 49  1  0  0  0  0
 48 47  1  0  0  0  0
 50 51  1  0  0  0  0
 50 49  1  0  0  0  0
 51 53  1  0  0  0  0
 52 51  2  0  0  0  0
 53 54  1  0  0  0  0
 54 55  1  0  0  0  0
M  END
>  <MODEL>
8

>  <REMARK>
 VINA RESULT:      -4.7      3.594     10.727
  Name = 
  25 active torsions:
  status: ('A' for Active; 'I' for Inactive)
    1  A    between atoms: C_1  and  C_29
    2  A    between atoms: C_2  and  O_28
    3  A    between atoms: C_2  and  C_31
    4  A    between atoms: C_4  and  C_40
    5  A    between atoms: C_6  and  N_20
    6  A    between atoms: C_6  and  O_22
    7  A    between atoms: C_8  and  O_22
    8  A    between atoms: C_8  and  C_35
    9  A    between atoms: C_10  and  O_32
   10  A    between atoms: C_13  and  C_48
   11  A    between atoms: C_13  and  O_52
   12  A    between atoms: N_16  and  C_36
   13  A    between atoms: O_27  and  C_31
   14  A    between atoms: O_27  and  C_54
   15  A    between atoms: O_28  and  C_33
   16  A    between atoms: C_31  and  C_41
   17  A    between atoms: O_32  and  C_39
   18  A    between atoms: C_33  and  C_34
   19  A    between atoms: C_33  and  C_49
   20  A    between atoms: C_34  and  O_52
   21  A    between atoms: C_35  and  C_51
   22  A    between atoms: C_36  and  C_49
   23  A    between atoms: C_39  and  C_48
   24  A    between atoms: C_45  and  C_49
   25  A    between atoms: C_51  and  C_54
                            x       y       z     vdW  Elec       q    Type
                         _______ _______ _______ _____ _____    ______ ____

>  <TORSDO>
F 25

$$$$
=
 OpenBabel10272401443D

 55 60  0  0  1  0  0  0  0  0999 V2000
  189.2720  177.2200  141.6370 C   0  0  2  0  0  0  0  0  0  0  0  0
  188.4250  176.4880  142.6590 C   0  0  0  0  0  1  0  0  0  0  0  0
  191.3260  178.4420  142.0110 O   0  0  0  0  0  0  0  0  0  0  0  0
  190.6320  177.4210  142.2700 C   0  0  0  0  0  0  0  0  0  0  0  0
  191.1710  176.4270  143.0830 O   0  0  0  0  0  1  0  0  0  0  0  0
  188.6370  178.4560  141.3430 O   0  0  0  0  0  0  0  0  0  0  0  0
  187.3040  178.4390  141.8010 C   0  0  0  0  0  2  0  0  0  0  0  0
  186.3550  178.4180  140.6190 C   0  0  0  0  0  2  0  0  0  0  0  0
  185.1240  179.2490  140.9260 C   0  0  0  0  0  2  0  0  0  0  0  0
  183.9800  178.3520  141.3570 C   0  0  1  0  0  3  0  0  0  0  0  0
  184.2370  177.8840  142.6340 F   0  0  0  0  0  0  0  0  0  0  0  0
  182.7830  179.0940  141.3620 O   0  0  0  0  0  0  0  0  0  0  0  0
  182.7620  178.4960  137.7210 C   0  0  0  0  0  2  0  0  0  0  0  0
  181.7520  178.3800  140.6960 C   0  0  1  0  0  0  0  0  0  0  0  0
  183.1080  180.6590  138.8460 O   0  0  0  0  0  0  0  0  0  0  0  0
  180.6760  180.5050  140.2010 O   0  0  0  0  0  1  0  0  0  0  0  0
  181.1540  179.3280  139.6170 C   0  0  1  0  0  0  0  0  0  0  0  0
  180.5070  177.4250  138.0360 C   0  0  0  0  0  2  0  0  0  0  0  0
  182.1330  180.8450  137.9290 O   0  0  0  0  0  0  0  0  0  0  0  0
  182.0260  177.2150  138.1380 C   0  0  2  0  0  0  0  0  0  0  0  0
  182.2310  179.6360  138.5740 C   0  0  0  0  0  0  0  0  0  0  0  0
  182.4490  176.8400  139.8890 S   0  0  0  0  0  0  0  0  0  0  0  0
  180.0100  178.6190  138.8780 C   0  0  0  0  0  2  0  0  0  0  0  0
  179.9940  176.8360  141.5020 O   0  0  0  0  0  0  0  0  0  0  0  0
  180.6930  178.0140  141.6510 N   0  0  0  0  0  0  0  0  0  0  0  0
  180.2850  178.8490  142.4830 O   0  0  0  0  0  0  0  0  0  0  0  0
  182.4200  176.0700  137.2480 C   0  0  0  0  0  0  0  0  0  0  0  0
  181.5850  174.9630  137.1140 O   0  0  0  0  0  1  0  0  0  0  0  0
  183.5510  176.0600  136.6860 O   0  0  0  0  0  0  0  0  0  0  0  0
  189.3750  176.3400  140.3790 C   0  0  0  0  0  2  0  0  0  0  0  0
  190.0940  176.9730  139.3530 O   0  0  0  0  0  0  0  0  0  0  0  0
  190.4840  175.9660  138.4580 C   0  0  2  0  0  3  0  0  0  0  0  0
  190.7590  176.5420  137.0450 C   0  0  1  0  0  3  0  0  0  0  0  0
  189.4670  177.4320  135.0080 C   0  0  0  0  0  2  0  0  0  0  0  0
  188.4640  177.2180  136.1250 C   0  0  1  0  0  3  0  0  0  0  0  0
  189.8810  177.6670  136.4440 C   0  0  1  0  0  3  0  0  0  0  0  0
  187.5280  178.4140  136.1430 C   0  0  1  0  0  3  0  0  0  0  0  0
  186.3910  178.1210  135.3650 O   0  0  0  0  0  0  0  0  0  0  0  0
  186.2270  178.0560  136.7570 C   0  0  0  0  0  2  0  0  0  0  0  0
  192.2510  176.7980  136.7850 C   0  0  0  0  0  2  0  0  0  0  0  0
  194.3540  175.7570  138.6090 O   0  0  0  0  0  0  0  0  0  0  0  0
  193.6160  173.3310  136.0850 C   0  0  0  0  0  3  0  0  0  0  0  0
  193.0220  175.5610  136.6770 N   0  0  0  0  0  0  0  0  0  0  0  0
  192.6670  174.4960  135.7670 C   0  0  0  0  0  3  0  0  0  0  0  0
  194.4020  173.7080  137.3450 C   0  0  0  0  0  2  0  0  0  0  0  0
  193.9540  175.0830  137.6240 C   0  0  0  0  0  0  0  0  0  0  0  0
  189.3790  174.9010  138.3740 C   0  0  0  0  0  2  0  0  0  0  0  0
  189.8380  173.7860  137.6670 O   0  0  0  0  0  0  0  0  0  0  0  0
  188.9370  173.6360  136.6130 C   0  0  0  0  0  2  0  0  0  0  0  0
  187.5770  173.2700  137.1720 C   0  0  0  0  0  2  0  0  0  0  0  0
  186.6860  172.8140  136.0740 C   0  0  0  0  0  0  0  0  0  0  0  0
  186.8850  173.2230  134.9030 O   0  0  0  0  0  0  0  0  0  0  0  0
  185.6180  171.9640  136.3700 O   0  0  0  0  0  0  0  0  0  0  0  0
  184.2850  172.2510  135.9710 C   0  0  0  0  0  2  0  0  0  0  0  0
  183.3020  171.6450  136.9570 C   0  0  0  0  0  1  0  0  0  0  0  0
  1  4  1  0  0  0  0
  1  2  1  1  0  0  0
  3  4  2  0  0  0  0
  4  5  1  0  0  0  0
  6  1  1  0  0  0  0
  6  7  1  0  0  0  0
  8  9  1  0  0  0  0
  8  7  1  0  0  0  0
  9 10  1  0  0  0  0
 10 12  1  0  0  0  0
 10 11  1  1  0  0  0
 13 20  1  0  0  0  0
 13 21  1  0  0  0  0
 14 12  1  1  0  0  0
 14 25  1  0  0  0  0
 17 16  1  1  0  0  0
 17 14  1  0  0  0  0
 18 20  1  0  0  0  0
 18 23  1  0  0  0  0
 19 21  1  0  0  0  0
 19 15  1  0  0  0  0
 20 27  1  6  0  0  0
 20 22  1  0  0  0  0
 21 15  1  0  0  0  0
 21 17  1  0  0  0  0
 22 14  1  0  0  0  0
 23 17  1  0  0  0  0
 24 25  2  0  0  0  0
 25 26  2  0  0  0  0
 28 27  1  0  0  0  0
 29 27  2  0  0  0  0
 30  1  1  0  0  0  0
 31 30  1  0  0  0  0
 32 47  1  6  0  0  0
 32 31  1  0  0  0  0
 33 40  1  1  0  0  0
 33 32  1  0  0  0  0
 34 36  1  0  0  0  0
 35 34  1  6  0  0  0
 35 37  1  0  0  0  0
 35 36  1  0  0  0  0
 36 33  1  1  0  0  0
 37 39  1  1  0  0  0
 38 37  1  0  0  0  0
 38 39  1  0  0  0  0
 42 45  1  0  0  0  0
 43 40  1  0  0  0  0
 43 46  1  0  0  0  0
 44 42  2  0  0  0  0
 44 43  1  0  0  0  0
 45 46  1  0  0  0  0
 46 41  2  0  0  0  0
 48 47  1  0  0  0  0
 49 50  1  0  0  0  0
 49 48  1  0  0  0  0
 51 53  1  0  0  0  0
 51 50  1  0  0  0  0
 52 51  2  0  0  0  0
 54 53  1  0  0  0  0
 54 55  1  0  0  0  0
M  END
>  <MODEL>
9

>  <REMARK>
 VINA RESULT:      -4.4      3.853     10.612
  Name = 
  25 active torsions:
  status: ('A' for Active; 'I' for Inactive)
    1  A    between atoms: C_1  and  C_29
    2  A    between atoms: C_2  and  O_28
    3  A    between atoms: C_2  and  C_31
    4  A    between atoms: C_4  and  C_40
    5  A    between atoms: C_6  and  N_20
    6  A    between atoms: C_6  and  O_22
    7  A    between atoms: C_8  and  O_22
    8  A    between atoms: C_8  and  C_35
    9  A    between atoms: C_10  and  O_32
   10  A    between atoms: C_13  and  C_48
   11  A    between atoms: C_13  and  O_52
   12  A    between atoms: N_16  and  C_36
   13  A    between atoms: O_27  and  C_31
   14  A    between atoms: O_27  and  C_54
   15  A    between atoms: O_28  and  C_33
   16  A    between atoms: C_31  and  C_41
   17  A    between atoms: O_32  and  C_39
   18  A    between atoms: C_33  and  C_34
   19  A    between atoms: C_33  and  C_49
   20  A    between atoms: C_34  and  O_52
   21  A    between atoms: C_35  and  C_51
   22  A    between atoms: C_36  and  C_49
   23  A    between atoms: C_39  and  C_48
   24  A    between atoms: C_45  and  C_49
   25  A    between atoms: C_51  and  C_54
                            x       y       z     vdW  Elec       q    Type
                         _______ _______ _______ _____ _____    ______ ____

>  <TORSDO>
F 25

$$$$
