=
 OpenBabel10272401413D

 55 59  0  0  1  0  0  0  0  0999 V2000
  184.7630  179.7080  144.2670 O   0  0  0  0  0  0  0  0  0  0  0  0
  184.2870  178.0540  142.6810 N   0  0  0  0  0  0  0  0  0  0  0  0
  183.4280  179.8910  143.8970 C   0  0  0  0  0  2  0  0  0  0  0  0
  185.3150  178.9210  143.2420 C   0  0  2  0  0  3  0  0  0  0  0  0
  183.0540  178.7540  142.9840 C   0  0  0  0  0  2  0  0  0  0  0  0
  184.4660  178.0550  141.2350 C   0  0  0  0  0  2  0  0  0  0  0  0
  183.3430  177.2770  140.5580 C   0  0  0  0  0  2  0  0  0  0  0  0
  182.2670  179.2710  139.4240 C   0  0  0  0  0  1  0  0  0  0  0  0
  182.9370  177.9140  139.2310 C   0  0  2  0  0  3  0  0  0  0  0  0
  182.0330  176.9700  138.4400 C   0  0  0  0  0  2  0  0  0  0  0  0
  181.9750  177.3320  136.9610 C   0  0  0  0  0  2  0  0  0  0  0  0
  181.3500  174.7280  136.7040 O   0  0  0  0  0  0  0  0  0  0  0  0
  181.9950  175.8630  135.9570 S   0  0  0  0  0  0  0  0  0  0  0  0
  181.2350  176.1130  134.6880 O   0  0  0  0  0  0  0  0  0  0  0  0
  184.4930  174.7920  136.5060 C   0  0  0  0  0  0  0  0  0  0  0  0
  184.0960  174.5890  137.6830 O   0  0  0  0  0  0  0  0  0  0  0  0
  183.6280  175.4390  135.5670 N   0  0  0  0  0  2  0  0  0  0  0  0
  185.9260  174.4580  136.1180 C   0  0  2  0  0  0  0  0  0  0  0  0
  188.6540  174.8630  136.1280 O   0  0  0  0  0  1  0  0  0  0  0  0
  187.0150  176.6300  136.5130 C   0  0  1  0  0  3  0  0  0  0  0  0
  188.4900  176.6010  134.3470 C   0  0  0  0  0  1  0  0  0  0  0  0
  187.9240  175.9290  135.5900 C   0  0  1  0  0  0  0  0  0  0  0  0
  186.7040  178.0600  136.0990 C   0  0  0  0  0  1  0  0  0  0  0  0
  186.4600  175.6990  135.4960 N   0  0  0  0  0  0  0  0  0  0  0  0
  184.9280  172.3010  135.1700 C   0  0  0  0  0  2  0  0  0  0  0  0
  186.2770  172.0990  135.5120 O   0  0  0  0  0  0  0  0  0  0  0  0
  185.9430  173.3710  135.0030 C   0  0  2  0  0  3  0  0  0  0  0  0
  186.6880  174.0690  137.2650 O   0  0  0  0  0  0  0  0  0  0  0  0
  186.6550  172.7530  137.3740 O   0  0  0  0  0  1  0  0  0  0  0  0
  186.5130  178.1180  143.7560 C   0  0  1  0  0  3  0  0  0  0  0  0
  187.5650  178.2260  142.8420 O   0  0  0  0  0  0  0  0  0  0  0  0
  191.7740  178.9560  144.5690 C   0  0  0  0  0  1  0  0  0  0  0  0
  191.3780  176.7240  143.7260 C   0  0  2  0  0  3  0  0  0  0  0  0
  190.9230  178.1290  143.7230 N   0  0  0  0  0  0  0  0  0  0  0  0
  189.2870  176.5920  142.2290 C   0  0  1  0  0  3  0  0  0  0  0  0
  190.4680  175.8260  142.8690 C   0  0  0  0  0  2  0  0  0  0  0  0
  189.5460  178.2340  144.2060 C   0  0  0  0  0  2  0  0  0  0  0  0
  188.5810  177.4040  143.3440 C   0  0  1  0  0  3  0  0  0  0  0  0
  190.9280  176.9280  140.4840 C   0  0  0  0  0  2  0  0  0  0  0  0
  188.7130  177.3460  140.0470 C   0  0  0  0  0  2  0  0  0  0  0  0
  189.4200  177.5640  138.7300 C   0  0  0  0  0  2  0  0  0  0  0  0
  190.8670  177.2310  139.0030 C   0  0  2  0  0  3  0  0  0  0  0  0
  189.7120  177.4550  141.1050 N   0  0  1  0  0  0  0  0  0  0  0  0
  191.2600  176.0770  138.2720 O   0  0  0  0  0  0  0  0  0  0  0  0
  192.5640  175.8910  137.8070 C   0  0  0  0  0  0  0  0  0  0  0  0
  192.9360  174.6330  137.2570 N   0  0  0  0  0  1  0  0  0  0  0  0
  193.4150  176.8200  137.8740 O   0  0  0  0  0  0  0  0  0  0  0  0
  192.3700  175.2140  145.2960 O   0  0  0  0  0  0  0  0  0  0  0  0
  191.5320  176.1340  145.1030 C   0  0  0  0  0  0  0  0  0  0  0  0
  190.7720  176.6070  146.1670 O   0  0  0  0  0  1  0  0  0  0  0  0
  186.9800  178.6020  145.1280 C   0  0  0  0  0  2  0  0  0  0  0  0
  185.4700  178.3670  147.0680 C   0  0  0  0  0  1  0  0  0  0  0  0
  186.5100  177.6570  146.2220 C   0  0  2  0  0  3  0  0  0  0  0  0
  187.6870  177.2410  147.0900 C   0  0  0  0  0  2  0  0  0  0  0  0
  187.8570  178.2000  148.2520 C   0  0  0  0  0  1  0  0  0  0  0  0
  2  5  1  0  0  0  0
  2  4  1  0  0  0  0
  3  1  1  0  0  0  0
  4 30  1  1  0  0  0
  4  1  1  0  0  0  0
  5  3  1  0  0  0  0
  6  2  1  0  0  0  0
  7  6  1  0  0  0  0
  9  8  1  1  0  0  0
  9  7  1  0  0  0  0
 10  9  1  0  0  0  0
 11 10  1  0  0  0  0
 13 12  2  0  0  0  0
 13 11  1  0  0  0  0
 14 13  2  0  0  0  0
 15 16  2  0  0  0  0
 17 13  1  0  0  0  0
 17 15  1  0  0  0  0
 18 15  1  1  0  0  0
 18 28  1  0  0  0  0
 20 23  1  6  0  0  0
 22 21  1  6  0  0  0
 22 19  1  0  0  0  0
 22 20  1  0  0  0  0
 24 22  1  0  0  0  0
 24 18  1  0  0  0  0
 24 20  1  0  0  0  0
 25 26  1  0  0  0  0
 27 25  1  0  0  0  0
 27 26  1  0  0  0  0
 27 18  1  1  0  0  0
 28 29  1  0  0  0  0
 30 51  1  1  0  0  0
 31 30  1  0  0  0  0
 33 49  1  1  0  0  0
 34 33  1  0  0  0  0
 34 37  1  0  0  0  0
 34 32  1  0  0  0  0
 35 36  1  1  0  0  0
 35 38  1  0  0  0  0
 36 33  1  0  0  0  0
 38 31  1  6  0  0  0
 38 37  1  0  0  0  0
 39 43  1  0  0  0  0
 41 42  1  0  0  0  0
 41 40  1  0  0  0  0
 42 44  1  6  0  0  0
 42 39  1  0  0  0  0
 43 40  1  6  0  0  0
 43 35  1  0  0  0  0
 45 47  2  0  0  0  0
 45 44  1  0  0  0  0
 46 45  1  0  0  0  0
 49 48  2  0  0  0  0
 49 50  1  0  0  0  0
 51 53  1  0  0  0  0
 53 52  1  1  0  0  0
 53 54  1  0  0  0  0
 54 55  1  0  0  0  0
M  END
>  <MODEL>
1

>  <REMARK>
 VINA RESULT:      -6.5      0.000      0.000
  Name = 
  21 active torsions:
  status: ('A' for Active; 'I' for Inactive)
    1  A    between atoms: C_1  and  C_21
    2  A    between atoms: C_1  and  O_29
    3  A    between atoms: C_1  and  C_38
    4  A    between atoms: C_1  and  N_53
    5  A    between atoms: C_2  and  C_19
    6  A    between atoms: C_2  and  O_28
    7  A    between atoms: C_2  and  C_44
    8  A    between atoms: C_4  and  C_40
    9  A    between atoms: C_8  and  S_20
   10  A    between atoms: C_8  and  C_43
   11  A    between atoms: C_10  and  O_32
   12  A    between atoms: C_16  and  C_17
   13  A    between atoms: C_19  and  C_40
   14  A    between atoms: S_20  and  N_42
   15  A    between atoms: N_27  and  C_31
   16  A    between atoms: O_28  and  C_49
   17  A    between atoms: C_31  and  C_54
   18  A    between atoms: O_32  and  C_48
   19  A    between atoms: C_33  and  N_52
   20  A    between atoms: C_43  and  C_51
   21  A    between atoms: C_51  and  C_54
                            x       y       z     vdW  Elec       q    Type
                         _______ _______ _______ _____ _____    ______ ____

>  <TORSDO>
F 21

$$$$
=
 OpenBabel10272401413D

 55 59  0  0  1  0  0  0  0  0999 V2000
  187.2590  177.1220  143.0360 O   0  0  0  0  0  0  0  0  0  0  0  0
  188.0070  178.6630  141.4410 N   0  0  0  0  0  0  0  0  0  0  0  0
  188.6260  176.8860  142.8750 C   0  0  0  0  0  2  0  0  0  0  0  0
  186.8840  177.8550  141.8970 C   0  0  2  0  0  3  0  0  0  0  0  0
  189.1620  177.9560  141.9610 C   0  0  0  0  0  2  0  0  0  0  0  0
  188.0380  178.5750  139.9870 C   0  0  0  0  0  2  0  0  0  0  0  0
  189.0220  177.4990  139.5400 C   0  0  0  0  0  2  0  0  0  0  0  0
  188.6130  177.1150  137.0690 C   0  0  0  0  0  1  0  0  0  0  0  0
  189.5210  177.7500  138.1180 C   0  0  2  0  0  3  0  0  0  0  0  0
  190.9580  177.2560  137.9620 C   0  0  0  0  0  2  0  0  0  0  0  0
  191.1690  175.8850  138.5920 C   0  0  0  0  0  2  0  0  0  0  0  0
  190.3470  173.6470  137.3460 O   0  0  0  0  0  0  0  0  0  0  0  0
  191.4590  174.6590  137.3360 S   0  0  0  0  0  0  0  0  0  0  0  0
  191.5090  175.3220  135.9900 O   0  0  0  0  0  0  0  0  0  0  0  0
  194.1930  174.3040  137.0450 C   0  0  0  0  0  0  0  0  0  0  0  0
  194.1820  175.2570  136.2210 O   0  0  0  0  0  0  0  0  0  0  0  0
  192.9660  173.8590  137.6310 N   0  0  0  0  0  2  0  0  0  0  0  0
  195.4870  173.5540  137.3220 C   0  0  2  0  0  0  0  0  0  0  0  0
  198.1870  173.0410  137.5540 O   0  0  0  0  0  1  0  0  0  0  0  0
  197.2670  175.0040  136.4340 C   0  0  1  0  0  3  0  0  0  0  0  0
  198.5050  173.1320  135.0810 C   0  0  0  0  0  1  0  0  0  0  0  0
  197.8270  173.6450  136.3440 C   0  0  1  0  0  0  0  0  0  0  0  0
  197.4310  175.8210  135.1610 C   0  0  0  0  0  1  0  0  0  0  0  0
  196.3680  173.8540  136.1610 N   0  0  0  0  0  0  0  0  0  0  0  0
  195.5500  171.3680  135.9950 C   0  0  0  0  0  2  0  0  0  0  0  0
  194.2290  171.6660  136.3710 O   0  0  0  0  0  0  0  0  0  0  0  0
  195.2370  172.0170  137.2920 C   0  0  2  0  0  3  0  0  0  0  0  0
  196.0730  173.9840  138.5560 O   0  0  0  0  0  0  0  0  0  0  0  0
  195.3610  174.9870  139.0390 O   0  0  0  0  0  1  0  0  0  0  0  0
  185.6500  178.7140  142.1850 C   0  0  1  0  0  3  0  0  0  0  0  0
  184.4980  177.9630  141.9340 O   0  0  0  0  0  0  0  0  0  0  0  0
  180.0380  177.7930  140.7900 C   0  0  0  0  0  1  0  0  0  0  0  0
  181.3560  179.4050  139.5620 C   0  0  2  0  0  3  0  0  0  0  0  0
  181.3850  178.1970  140.4120 N   0  0  0  0  0  0  0  0  0  0  0  0
  183.8870  178.9900  139.7930 C   0  0  1  0  0  3  0  0  0  0  0  0
  182.7730  179.8710  139.1830 C   0  0  0  0  0  2  0  0  0  0  0  0
  182.1580  178.4340  141.6300 C   0  0  0  0  0  2  0  0  0  0  0  0
  183.6060  178.8420  141.3100 C   0  0  1  0  0  3  0  0  0  0  0  0
  182.9440  177.5130  138.1270 C   0  0  0  0  0  2  0  0  0  0  0  0
  185.2250  177.6760  138.3290 C   0  0  0  0  0  2  0  0  0  0  0  0
  185.0020  176.7590  137.1500 C   0  0  0  0  0  2  0  0  0  0  0  0
  183.5030  176.7000  136.9790 C   0  0  2  0  0  3  0  0  0  0  0  0
  184.0010  177.6760  139.1250 N   0  0  1  0  0  0  0  0  0  0  0  0
  183.1160  177.2990  135.7490 O   0  0  0  0  0  0  0  0  0  0  0  0
  181.9580  176.9230  135.0630 C   0  0  0  0  0  0  0  0  0  0  0  0
  181.2200  177.9080  134.3510 N   0  0  0  0  0  1  0  0  0  0  0  0
  181.5590  175.7270  135.0720 O   0  0  0  0  0  0  0  0  0  0  0  0
  180.2360  181.5150  139.4210 O   0  0  0  0  0  0  0  0  0  0  0  0
  180.5790  180.5510  140.1540 C   0  0  0  0  0  0  0  0  0  0  0  0
  180.2210  180.5470  141.4970 O   0  0  0  0  0  1  0  0  0  0  0  0
  185.6240  179.2170  143.6270 C   0  0  0  0  0  2  0  0  0  0  0  0
  183.3680  179.3740  144.6180 C   0  0  0  0  0  1  0  0  0  0  0  0
  184.5770  178.4740  144.4390 C   0  0  2  0  0  3  0  0  0  0  0  0
  185.1460  178.0960  145.7980 C   0  0  0  0  0  2  0  0  0  0  0  0
  186.6540  178.2550  145.8070 C   0  0  0  0  0  1  0  0  0  0  0  0
  2  4  1  0  0  0  0
  2  5  1  0  0  0  0
  3  1  1  0  0  0  0
  4 30  1  1  0  0  0
  4  1  1  0  0  0  0
  5  3  1  0  0  0  0
  6  2  1  0  0  0  0
  7  6  1  0  0  0  0
  9  8  1  6  0  0  0
  9  7  1  0  0  0  0
 10  9  1  0  0  0  0
 10 11  1  0  0  0  0
 13 12  2  0  0  0  0
 13 17  1  0  0  0  0
 13 11  1  0  0  0  0
 14 13  2  0  0  0  0
 15 17  1  0  0  0  0
 16 15  2  0  0  0  0
 18 15  1  6  0  0  0
 18 28  1  0  0  0  0
 20 23  1  6  0  0  0
 22 21  1  6  0  0  0
 22 20  1  0  0  0  0
 22 19  1  0  0  0  0
 24 22  1  0  0  0  0
 24 20  1  0  0  0  0
 24 18  1  0  0  0  0
 25 26  1  0  0  0  0
 25 27  1  0  0  0  0
 26 27  1  0  0  0  0
 27 18  1  6  0  0  0
 28 29  1  0  0  0  0
 30 51  1  1  0  0  0
 31 30  1  0  0  0  0
 33 49  1  1  0  0  0
 33 34  1  0  0  0  0
 34 32  1  0  0  0  0
 34 37  1  0  0  0  0
 35 36  1  6  0  0  0
 35 38  1  0  0  0  0
 36 33  1  0  0  0  0
 38 37  1  0  0  0  0
 38 31  1  6  0  0  0
 40 43  1  0  0  0  0
 41 40  1  0  0  0  0
 42 44  1  6  0  0  0
 42 41  1  0  0  0  0
 42 39  1  0  0  0  0
 43 39  1  6  0  0  0
 43 35  1  0  0  0  0
 45 47  2  0  0  0  0
 45 44  1  0  0  0  0
 46 45  1  0  0  0  0
 48 49  2  0  0  0  0
 49 50  1  0  0  0  0
 51 53  1  0  0  0  0
 53 52  1  1  0  0  0
 53 54  1  0  0  0  0
 54 55  1  0  0  0  0
M  END
>  <MODEL>
2

>  <REMARK>
 VINA RESULT:      -5.7      3.386      8.610
  Name = 
  21 active torsions:
  status: ('A' for Active; 'I' for Inactive)
    1  A    between atoms: C_1  and  C_21
    2  A    between atoms: C_1  and  O_29
    3  A    between atoms: C_1  and  C_38
    4  A    between atoms: C_1  and  N_53
    5  A    between atoms: C_2  and  C_19
    6  A    between atoms: C_2  and  O_28
    7  A    between atoms: C_2  and  C_44
    8  A    between atoms: C_4  and  C_40
    9  A    between atoms: C_8  and  S_20
   10  A    between atoms: C_8  and  C_43
   11  A    between atoms: C_10  and  O_32
   12  A    between atoms: C_16  and  C_17
   13  A    between atoms: C_19  and  C_40
   14  A    between atoms: S_20  and  N_42
   15  A    between atoms: N_27  and  C_31
   16  A    between atoms: O_28  and  C_49
   17  A    between atoms: C_31  and  C_54
   18  A    between atoms: O_32  and  C_48
   19  A    between atoms: C_33  and  N_52
   20  A    between atoms: C_43  and  C_51
   21  A    between atoms: C_51  and  C_54
                            x       y       z     vdW  Elec       q    Type
                         _______ _______ _______ _____ _____    ______ ____

>  <TORSDO>
F 21

$$$$
=
 OpenBabel10272401413D

 55 59  0  0  1  0  0  0  0  0999 V2000
  188.2480  178.1450  141.2540 O   0  0  0  0  0  0  0  0  0  0  0  0
  187.7010  178.5900  139.0220 N   0  0  0  0  0  0  0  0  0  0  0  0
  189.4370  178.0350  140.5290 C   0  0  0  0  0  2  0  0  0  0  0  0
  187.2300  178.0490  140.2900 C   0  0  2  0  0  3  0  0  0  0  0  0
  189.1420  178.4560  139.1140 C   0  0  0  0  0  2  0  0  0  0  0  0
  187.2280  177.6980  137.9720 C   0  0  0  0  0  2  0  0  0  0  0  0
  188.3930  177.2300  137.1060 C   0  0  0  0  0  2  0  0  0  0  0  0
  186.4570  176.5820  135.6060 C   0  0  0  0  0  1  0  0  0  0  0  0
  187.9440  176.9140  135.6810 C   0  0  2  0  0  3  0  0  0  0  0  0
  188.7840  175.7800  135.0960 C   0  0  0  0  0  2  0  0  0  0  0  0
  190.2060  175.7730  135.6440 C   0  0  0  0  0  2  0  0  0  0  0  0
  190.2270  174.3300  137.9140 O   0  0  0  0  0  0  0  0  0  0  0  0
  190.5570  174.2260  136.4500 S   0  0  0  0  0  0  0  0  0  0  0  0
  189.7250  173.1400  135.8340 O   0  0  0  0  0  0  0  0  0  0  0  0
  193.2550  174.4680  137.0380 C   0  0  0  0  0  0  0  0  0  0  0  0
  192.9520  175.4020  137.8260 O   0  0  0  0  0  0  0  0  0  0  0  0
  192.2320  173.8330  136.2640 N   0  0  0  0  0  2  0  0  0  0  0  0
  194.7150  174.0980  136.8220 C   0  0  2  0  0  0  0  0  0  0  0  0
  196.5610  172.8690  135.1820 O   0  0  0  0  0  1  0  0  0  0  0  0
  194.2610  172.1010  135.4570 C   0  0  1  0  0  3  0  0  0  0  0  0
  196.2770  170.6850  136.3530 C   0  0  0  0  0  1  0  0  0  0  0  0
  195.6840  171.9810  135.8150 C   0  0  1  0  0  0  0  0  0  0  0  0
  193.4630  170.8260  135.6800 C   0  0  0  0  0  1  0  0  0  0  0  0
  194.7370  172.6110  136.7690 N   0  0  0  0  0  0  0  0  0  0  0  0
  196.8220  173.7330  138.2270 C   0  0  0  0  0  2  0  0  0  0  0  0
  195.6770  173.4420  138.9900 O   0  0  0  0  0  0  0  0  0  0  0  0
  195.5620  174.5000  138.0660 C   0  0  2  0  0  3  0  0  0  0  0  0
  195.2170  174.6790  135.6150 O   0  0  0  0  0  0  0  0  0  0  0  0
  195.3550  175.9810  135.7930 O   0  0  0  0  0  1  0  0  0  0  0  0
  185.9580  178.7550  140.7680 C   0  0  1  0  0  3  0  0  0  0  0  0
  184.8540  177.9360  140.5140 O   0  0  0  0  0  0  0  0  0  0  0  0
  180.4240  179.2010  140.4510 C   0  0  0  0  0  1  0  0  0  0  0  0
  181.5200  179.1780  138.2960 C   0  0  2  0  0  3  0  0  0  0  0  0
  181.5690  178.7090  139.6960 N   0  0  0  0  0  0  0  0  0  0  0  0
  183.7380  177.8690  138.3310 C   0  0  1  0  0  3  0  0  0  0  0  0
  182.7420  178.7000  137.4910 C   0  0  0  0  0  2  0  0  0  0  0  0
  182.7910  179.1640  140.3570 C   0  0  0  0  0  2  0  0  0  0  0  0
  184.0480  178.6600  139.6280 C   0  0  1  0  0  3  0  0  0  0  0  0
  181.9600  176.2750  137.9500 C   0  0  0  0  0  2  0  0  0  0  0  0
  184.1370  175.5490  137.9940 C   0  0  0  0  0  2  0  0  0  0  0  0
  183.3240  174.3250  137.6420 C   0  0  0  0  0  2  0  0  0  0  0  0
  181.8990  174.8160  137.5530 C   0  0  2  0  0  3  0  0  0  0  0  0
  183.2370  176.5090  138.6250 N   0  0  1  0  0  0  0  0  0  0  0  0
  181.4160  174.7120  136.2200 O   0  0  0  0  0  0  0  0  0  0  0  0
  182.1010  174.0070  135.2270 C   0  0  0  0  0  0  0  0  0  0  0  0
  181.6160  172.7350  134.8150 N   0  0  0  0  0  1  0  0  0  0  0  0
  183.1430  174.4810  134.6970 O   0  0  0  0  0  0  0  0  0  0  0  0
  182.3340  181.4240  138.4220 O   0  0  0  0  0  1  0  0  0  0  0  0
  181.3620  180.6680  138.1550 C   0  0  0  0  0  0  0  0  0  0  0  0
  180.1630  181.2180  137.7180 O   0  0  0  0  0  0  0  0  0  0  0  0
  186.0120  179.0860  142.2580 C   0  0  0  0  0  2  0  0  0  0  0  0
  184.0460  178.5670  143.6600 C   0  0  0  0  0  1  0  0  0  0  0  0
  185.3290  178.0040  143.0760 C   0  0  2  0  0  3  0  0  0  0  0  0
  186.2480  177.5420  144.1980 C   0  0  0  0  0  2  0  0  0  0  0  0
  187.5270  176.9580  143.6310 C   0  0  0  0  0  1  0  0  0  0  0  0
  2  5  1  0  0  0  0
  2  4  1  0  0  0  0
  3  1  1  0  0  0  0
  4 30  1  1  0  0  0
  4  1  1  0  0  0  0
  5  3  1  0  0  0  0
  6  2  1  0  0  0  0
  7  6  1  0  0  0  0
  9  8  1  1  0  0  0
  9  7  1  0  0  0  0
 10 11  1  0  0  0  0
 10  9  1  0  0  0  0
 11 13  1  0  0  0  0
 13 12  2  0  0  0  0
 14 13  2  0  0  0  0
 15 16  2  0  0  0  0
 17 13  1  0  0  0  0
 17 15  1  0  0  0  0
 18 28  1  6  0  0  0
 18 15  1  0  0  0  0
 19 22  1  0  0  0  0
 20 23  1  1  0  0  0
 20 22  1  0  0  0  0
 20 24  1  0  0  0  0
 22 21  1  1  0  0  0
 22 24  1  0  0  0  0
 24 18  1  0  0  0  0
 25 26  1  0  0  0  0
 27 18  1  6  0  0  0
 27 25  1  0  0  0  0
 27 26  1  0  0  0  0
 28 29  1  0  0  0  0
 30 51  1  1  0  0  0
 31 30  1  0  0  0  0
 33 49  1  1  0  0  0
 33 34  1  0  0  0  0
 34 37  1  0  0  0  0
 34 32  1  0  0  0  0
 35 36  1  1  0  0  0
 35 43  1  0  0  0  0
 35 38  1  0  0  0  0
 36 33  1  0  0  0  0
 38 37  1  0  0  0  0
 38 31  1  1  0  0  0
 40 43  1  0  0  0  0
 41 40  1  0  0  0  0
 42 44  1  6  0  0  0
 42 41  1  0  0  0  0
 42 39  1  0  0  0  0
 43 39  1  6  0  0  0
 45 44  1  0  0  0  0
 46 45  1  0  0  0  0
 47 45  2  0  0  0  0
 49 48  1  0  0  0  0
 50 49  2  0  0  0  0
 51 53  1  0  0  0  0
 53 52  1  1  0  0  0
 53 54  1  0  0  0  0
 55 54  1  0  0  0  0
M  END
>  <MODEL>
3

>  <REMARK>
 VINA RESULT:      -5.6      3.183      8.591
  Name = 
  21 active torsions:
  status: ('A' for Active; 'I' for Inactive)
    1  A    between atoms: C_1  and  C_21
    2  A    between atoms: C_1  and  O_29
    3  A    between atoms: C_1  and  C_38
    4  A    between atoms: C_1  and  N_53
    5  A    between atoms: C_2  and  C_19
    6  A    between atoms: C_2  and  O_28
    7  A    between atoms: C_2  and  C_44
    8  A    between atoms: C_4  and  C_40
    9  A    between atoms: C_8  and  S_20
   10  A    between atoms: C_8  and  C_43
   11  A    between atoms: C_10  and  O_32
   12  A    between atoms: C_16  and  C_17
   13  A    between atoms: C_19  and  C_40
   14  A    between atoms: S_20  and  N_42
   15  A    between atoms: N_27  and  C_31
   16  A    between atoms: O_28  and  C_49
   17  A    between atoms: C_31  and  C_54
   18  A    between atoms: O_32  and  C_48
   19  A    between atoms: C_33  and  N_52
   20  A    between atoms: C_43  and  C_51
   21  A    between atoms: C_51  and  C_54
                            x       y       z     vdW  Elec       q    Type
                         _______ _______ _______ _____ _____    ______ ____

>  <TORSDO>
F 21

$$$$
=
 OpenBabel10272401413D

 55 59  0  0  1  0  0  0  0  0999 V2000
  188.6830  178.2000  137.4590 O   0  0  0  0  0  0  0  0  0  0  0  0
  186.8800  177.6540  138.8470 N   0  0  0  0  0  0  0  0  0  0  0  0
  189.0210  178.6530  138.7370 C   0  0  0  0  0  2  0  0  0  0  0  0
  187.2900  178.0200  137.4980 C   0  0  2  0  0  3  0  0  0  0  0  0
  187.9410  178.1890  139.6780 C   0  0  0  0  0  2  0  0  0  0  0  0
  185.6590  178.3930  139.1390 C   0  0  0  0  0  2  0  0  0  0  0  0
  185.5960  178.7540  140.6200 C   0  0  0  0  0  2  0  0  0  0  0  0
  183.0770  178.4880  140.5510 C   0  0  0  0  0  1  0  0  0  0  0  0
  184.3660  178.1500  141.2950 C   0  0  2  0  0  3  0  0  0  0  0  0
  184.2840  178.5970  142.7530 C   0  0  0  0  0  2  0  0  0  0  0  0
  185.6160  179.1250  143.2700 C   0  0  0  0  0  2  0  0  0  0  0  0
  185.5450  179.6940  145.8980 O   0  0  0  0  0  0  0  0  0  0  0  0
  185.8950  178.5870  144.9430 S   0  0  0  0  0  0  0  0  0  0  0  0
  185.0330  177.3930  145.2360 O   0  0  0  0  0  0  0  0  0  0  0  0
  188.3950  177.7890  144.0490 C   0  0  0  0  0  0  0  0  0  0  0  0
  187.9020  177.7020  142.8940 O   0  0  0  0  0  0  0  0  0  0  0  0
  187.5570  178.1510  145.1520 N   0  0  0  0  0  2  0  0  0  0  0  0
  189.8450  177.3960  144.2890 C   0  0  2  0  0  0  0  0  0  0  0  0
  191.4700  175.6010  145.6090 O   0  0  0  0  0  1  0  0  0  0  0  0
  189.4030  176.5050  146.5400 C   0  0  1  0  0  3  0  0  0  0  0  0
  191.7350  177.1380  147.5560 C   0  0  0  0  0  1  0  0  0  0  0  0
  190.8720  176.5480  146.4480 C   0  0  1  0  0  0  0  0  0  0  0  0
  188.8510  177.1020  147.8260 C   0  0  0  0  0  1  0  0  0  0  0  0
  190.0610  177.5770  145.7500 N   0  0  0  0  0  0  0  0  0  0  0  0
  191.9850  178.7950  144.3840 C   0  0  0  0  0  2  0  0  0  0  0  0
  190.8650  179.6350  144.2620 O   0  0  0  0  0  0  0  0  0  0  0  0
  190.8010  178.4030  143.5810 C   0  0  2  0  0  3  0  0  0  0  0  0
  190.0830  176.0450  143.8810 O   0  0  0  0  0  0  0  0  0  0  0  0
  190.7150  176.0550  142.7210 O   0  0  0  0  0  1  0  0  0  0  0  0
  186.8470  176.9760  136.4700 C   0  0  1  0  0  3  0  0  0  0  0  0
  186.3570  175.8500  137.1390 O   0  0  0  0  0  0  0  0  0  0  0  0
  189.8810  174.8470  134.3460 C   0  0  0  0  0  1  0  0  0  0  0  0
  189.2960  173.1160  135.9290 C   0  0  2  0  0  3  0  0  0  0  0  0
  188.8500  174.3480  135.2450 N   0  0  0  0  0  0  0  0  0  0  0  0
  186.9710  173.4820  136.9750 C   0  0  1  0  0  3  0  0  0  0  0  0
  188.2340  172.5930  136.9140 C   0  0  0  0  0  2  0  0  0  0  0  0
  188.5300  175.3960  136.2130 C   0  0  0  0  0  2  0  0  0  0  0  0
  187.4260  174.9490  137.1860 C   0  0  1  0  0  3  0  0  0  0  0  0
  186.2730  172.0070  135.1910 C   0  0  0  0  0  2  0  0  0  0  0  0
  184.7230  173.3600  136.2090 C   0  0  0  0  0  2  0  0  0  0  0  0
  183.9300  172.5240  135.2320 C   0  0  0  0  0  2  0  0  0  0  0  0
  184.9410  171.5920  134.6060 C   0  0  2  0  0  3  0  0  0  0  0  0
  186.1170  173.3380  135.7770 N   0  0  1  0  0  0  0  0  0  0  0  0
  184.6690  170.2450  134.9680 O   0  0  0  0  0  0  0  0  0  0  0  0
  183.3690  169.7580  135.1300 C   0  0  0  0  0  0  0  0  0  0  0  0
  183.1260  168.7160  136.0660 N   0  0  0  0  0  1  0  0  0  0  0  0
  182.4130  170.2270  134.4530 O   0  0  0  0  0  0  0  0  0  0  0  0
  190.7330  174.0330  137.6080 O   0  0  0  0  0  1  0  0  0  0  0  0
  190.6230  173.2500  136.6270 C   0  0  0  0  0  0  0  0  0  0  0  0
  191.7220  172.5080  136.2130 O   0  0  0  0  0  0  0  0  0  0  0  0
  185.7700  177.5170  135.5310 C   0  0  0  0  0  2  0  0  0  0  0  0
  183.5680  177.0680  134.5080 C   0  0  0  0  0  1  0  0  0  0  0  0
  184.4880  176.7120  135.6600 C   0  0  2  0  0  3  0  0  0  0  0  0
  183.8070  177.0310  136.9830 C   0  0  0  0  0  2  0  0  0  0  0  0
  182.7860  175.9630  137.3270 C   0  0  0  0  0  1  0  0  0  0  0  0
  1  4  1  0  0  0  0
  1  3  1  0  0  0  0
  2  6  1  0  0  0  0
  2  5  1  0  0  0  0
  3  5  1  0  0  0  0
  4 30  1  6  0  0  0
  4  2  1  0  0  0  0
  6  7  1  0  0  0  0
  7  9  1  0  0  0  0
  9  8  1  6  0  0  0
  9 10  1  0  0  0  0
 10 11  1  0  0  0  0
 11 13  1  0  0  0  0
 13 17  1  0  0  0  0
 13 14  2  0  0  0  0
 13 12  2  0  0  0  0
 15 18  1  0  0  0  0
 15 17  1  0  0  0  0
 16 15  2  0  0  0  0
 18 28  1  6  0  0  0
 18 24  1  0  0  0  0
 19 22  1  0  0  0  0
 20 23  1  1  0  0  0
 22 20  1  0  0  0  0
 22 21  1  1  0  0  0
 24 22  1  0  0  0  0
 24 20  1  0  0  0  0
 26 25  1  0  0  0  0
 27 26  1  0  0  0  0
 27 18  1  1  0  0  0
 27 25  1  0  0  0  0
 29 28  1  0  0  0  0
 30 51  1  6  0  0  0
 30 31  1  0  0  0  0
 32 34  1  0  0  0  0
 33 49  1  1  0  0  0
 33 36  1  0  0  0  0
 34 33  1  0  0  0  0
 34 37  1  0  0  0  0
 35 36  1  6  0  0  0
 35 38  1  0  0  0  0
 37 38  1  0  0  0  0
 38 31  1  6  0  0  0
 41 40  1  0  0  0  0
 42 44  1  1  0  0  0
 42 39  1  0  0  0  0
 42 41  1  0  0  0  0
 43 39  1  1  0  0  0
 43 40  1  0  0  0  0
 43 35  1  0  0  0  0
 44 45  1  0  0  0  0
 45 46  1  0  0  0  0
 47 45  2  0  0  0  0
 49 48  1  0  0  0  0
 50 49  2  0  0  0  0
 51 53  1  0  0  0  0
 53 52  1  6  0  0  0
 53 54  1  0  0  0  0
 54 55  1  0  0  0  0
M  END
>  <MODEL>
4

>  <REMARK>
 VINA RESULT:      -5.3      2.728      9.274
  Name = 
  21 active torsions:
  status: ('A' for Active; 'I' for Inactive)
    1  A    between atoms: C_1  and  C_21
    2  A    between atoms: C_1  and  O_29
    3  A    between atoms: C_1  and  C_38
    4  A    between atoms: C_1  and  N_53
    5  A    between atoms: C_2  and  C_19
    6  A    between atoms: C_2  and  O_28
    7  A    between atoms: C_2  and  C_44
    8  A    between atoms: C_4  and  C_40
    9  A    between atoms: C_8  and  S_20
   10  A    between atoms: C_8  and  C_43
   11  A    between atoms: C_10  and  O_32
   12  A    between atoms: C_16  and  C_17
   13  A    between atoms: C_19  and  C_40
   14  A    between atoms: S_20  and  N_42
   15  A    between atoms: N_27  and  C_31
   16  A    between atoms: O_28  and  C_49
   17  A    between atoms: C_31  and  C_54
   18  A    between atoms: O_32  and  C_48
   19  A    between atoms: C_33  and  N_52
   20  A    between atoms: C_43  and  C_51
   21  A    between atoms: C_51  and  C_54
                            x       y       z     vdW  Elec       q    Type
                         _______ _______ _______ _____ _____    ______ ____

>  <TORSDO>
F 21

$$$$
=
 OpenBabel10272401413D

 55 59  0  0  1  0  0  0  0  0999 V2000
  189.4510  178.1020  144.4150 O   0  0  0  0  0  0  0  0  0  0  0  0
  187.9060  176.8420  143.1890 N   0  0  0  0  0  0  0  0  0  0  0  0
  188.2880  178.0480  145.1880 C   0  0  0  0  0  2  0  0  0  0  0  0
  189.0370  177.7580  143.1170 C   0  0  2  0  0  3  0  0  0  0  0  0
  187.3260  177.1250  144.4880 C   0  0  0  0  0  2  0  0  0  0  0  0
  186.9530  177.2550  142.1670 C   0  0  0  0  0  2  0  0  0  0  0  0
  186.8390  178.7750  142.1290 C   0  0  0  0  0  2  0  0  0  0  0  0
  184.8660  179.5590  143.5110 C   0  0  0  0  0  1  0  0  0  0  0  0
  185.3810  179.2300  142.1140 C   0  0  2  0  0  3  0  0  0  0  0  0
  184.5000  178.1760  141.4450 C   0  0  0  0  0  2  0  0  0  0  0  0
  184.3090  178.4440  139.9570 C   0  0  0  0  0  2  0  0  0  0  0  0
  181.8380  178.9620  140.8830 O   0  0  0  0  0  0  0  0  0  0  0  0
  182.6010  178.7910  139.5990 S   0  0  0  0  0  0  0  0  0  0  0  0
  182.5050  180.0550  138.7960 O   0  0  0  0  0  0  0  0  0  0  0  0
  182.7080  176.6370  137.8570 C   0  0  0  0  0  0  0  0  0  0  0  0
  183.9340  176.8810  137.7050 O   0  0  0  0  0  0  0  0  0  0  0  0
  181.9140  177.4880  138.6910 N   0  0  0  0  0  2  0  0  0  0  0  0
  182.0510  175.5170  137.0650 C   0  0  2  0  0  0  0  0  0  0  0  0
  181.4720  173.0740  135.9210 O   0  0  0  0  0  1  0  0  0  0  0  0
  183.3870  173.4740  137.3800 C   0  0  1  0  0  3  0  0  0  0  0  0
  183.7130  172.9550  134.8320 C   0  0  0  0  0  1  0  0  0  0  0  0
  182.8420  173.3450  136.0190 C   0  0  1  0  0  0  0  0  0  0  0  0
  184.8780  173.1890  137.4740 C   0  0  0  0  0  1  0  0  0  0  0  0
  183.1770  174.6900  136.5520 N   0  0  0  0  0  0  0  0  0  0  0  0
  180.2040  177.0110  136.1140 C   0  0  0  0  0  2  0  0  0  0  0  0
  179.9870  175.6750  135.7340 O   0  0  0  0  0  0  0  0  0  0  0  0
  181.3300  176.0950  135.8100 C   0  0  2  0  0  3  0  0  0  0  0  0
  181.1670  174.7550  137.8930 O   0  0  0  0  0  0  0  0  0  0  0  0
  181.4760  174.9720  139.1590 O   0  0  0  0  0  1  0  0  0  0  0  0
  190.1970  177.1620  142.3150 C   0  0  1  0  0  3  0  0  0  0  0  0
  190.2450  177.7690  141.0560 O   0  0  0  0  0  0  0  0  0  0  0  0
  193.3150  177.2600  137.6590 C   0  0  0  0  0  1  0  0  0  0  0  0
  191.4040  175.7830  137.5510 C   0  0  2  0  0  3  0  0  0  0  0  0
  191.9550  177.0270  138.1270 N   0  0  0  0  0  0  0  0  0  0  0  0
  189.4730  176.5560  139.0700 C   0  0  1  0  0  3  0  0  0  0  0  0
  189.9810  175.4980  138.0630 C   0  0  0  0  0  2  0  0  0  0  0  0
  191.9710  176.9640  139.5880 C   0  0  0  0  0  2  0  0  0  0  0  0
  190.5600  176.7430  140.1590 C   0  0  1  0  0  3  0  0  0  0  0  0
  189.2160  177.7160  136.9640 C   0  0  0  0  0  2  0  0  0  0  0  0
  187.7020  178.0870  138.6490 C   0  0  0  0  0  2  0  0  0  0  0  0
  187.1850  178.8850  137.4760 C   0  0  0  0  0  2  0  0  0  0  0  0
  188.1470  178.5930  136.3500 C   0  0  2  0  0  3  0  0  0  0  0  0
  189.1210  177.8360  138.4190 N   0  0  1  0  0  0  0  0  0  0  0  0
  187.4950  177.8780  135.3080 O   0  0  0  0  0  0  0  0  0  0  0  0
  187.5300  176.4850  135.2200 C   0  0  0  0  0  0  0  0  0  0  0  0
  188.5850  175.8570  134.5020 N   0  0  0  0  0  1  0  0  0  0  0  0
  186.6360  175.7780  135.7620 O   0  0  0  0  0  0  0  0  0  0  0  0
  191.8000  173.4230  137.5690 O   0  0  0  0  0  0  0  0  0  0  0  0
  192.2770  174.5740  137.7580 C   0  0  0  0  0  0  0  0  0  0  0  0
  193.6060  174.7140  138.1360 O   0  0  0  0  0  1  0  0  0  0  0  0
  191.5380  177.3500  143.0210 C   0  0  0  0  0  2  0  0  0  0  0  0
  190.8680  175.0560  143.6440 C   0  0  0  0  0  1  0  0  0  0  0  0
  191.8130  176.1970  143.9720 C   0  0  2  0  0  3  0  0  0  0  0  0
  191.5990  176.6480  145.4090 C   0  0  0  0  0  2  0  0  0  0  0  0
  192.1180  175.6030  146.3780 C   0  0  0  0  0  1  0  0  0  0  0  0
  1  3  1  0  0  0  0
  2  5  1  0  0  0  0
  4 30  1  1  0  0  0
  4  2  1  0  0  0  0
  4  1  1  0  0  0  0
  5  3  1  0  0  0  0
  6  2  1  0  0  0  0
  7  6  1  0  0  0  0
  9  7  1  0  0  0  0
  9  8  1  1  0  0  0
 10  9  1  0  0  0  0
 11 10  1  0  0  0  0
 13 11  1  0  0  0  0
 13 12  2  0  0  0  0
 14 13  2  0  0  0  0
 15 17  1  0  0  0  0
 16 15  2  0  0  0  0
 17 13  1  0  0  0  0
 18 15  1  1  0  0  0
 18 28  1  0  0  0  0
 19 22  1  0  0  0  0
 20 23  1  6  0  0  0
 22 21  1  6  0  0  0
 22 24  1  0  0  0  0
 22 20  1  0  0  0  0
 24 18  1  0  0  0  0
 24 20  1  0  0  0  0
 26 27  1  0  0  0  0
 26 25  1  0  0  0  0
 27 25  1  0  0  0  0
 27 18  1  1  0  0  0
 28 29  1  0  0  0  0
 30 51  1  1  0  0  0
 31 30  1  0  0  0  0
 32 34  1  0  0  0  0
 33 49  1  1  0  0  0
 33 36  1  0  0  0  0
 33 34  1  0  0  0  0
 34 37  1  0  0  0  0
 35 36  1  6  0  0  0
 35 38  1  0  0  0  0
 37 38  1  0  0  0  0
 38 31  1  6  0  0  0
 41 40  1  0  0  0  0
 42 44  1  6  0  0  0
 42 39  1  0  0  0  0
 42 41  1  0  0  0  0
 43 39  1  6  0  0  0
 43 40  1  0  0  0  0
 43 35  1  0  0  0  0
 45 44  1  0  0  0  0
 45 47  2  0  0  0  0
 46 45  1  0  0  0  0
 48 49  2  0  0  0  0
 49 50  1  0  0  0  0
 51 53  1  0  0  0  0
 53 52  1  6  0  0  0
 53 54  1  0  0  0  0
 54 55  1  0  0  0  0
M  END
>  <MODEL>
5

>  <REMARK>
 VINA RESULT:      -5.1      2.226      5.226
  Name = 
  21 active torsions:
  status: ('A' for Active; 'I' for Inactive)
    1  A    between atoms: C_1  and  C_21
    2  A    between atoms: C_1  and  O_29
    3  A    between atoms: C_1  and  C_38
    4  A    between atoms: C_1  and  N_53
    5  A    between atoms: C_2  and  C_19
    6  A    between atoms: C_2  and  O_28
    7  A    between atoms: C_2  and  C_44
    8  A    between atoms: C_4  and  C_40
    9  A    between atoms: C_8  and  S_20
   10  A    between atoms: C_8  and  C_43
   11  A    between atoms: C_10  and  O_32
   12  A    between atoms: C_16  and  C_17
   13  A    between atoms: C_19  and  C_40
   14  A    between atoms: S_20  and  N_42
   15  A    between atoms: N_27  and  C_31
   16  A    between atoms: O_28  and  C_49
   17  A    between atoms: C_31  and  C_54
   18  A    between atoms: O_32  and  C_48
   19  A    between atoms: C_33  and  N_52
   20  A    between atoms: C_43  and  C_51
   21  A    between atoms: C_51  and  C_54
                            x       y       z     vdW  Elec       q    Type
                         _______ _______ _______ _____ _____    ______ ____

>  <TORSDO>
F 21

$$$$
=
 OpenBabel10272401413D

 55 59  0  0  1  0  0  0  0  0999 V2000
  186.9940  177.8250  138.8820 O   0  0  0  0  0  0  0  0  0  0  0  0
  189.0810  177.6090  137.8450 N   0  0  0  0  0  0  0  0  0  0  0  0
  187.8590  178.6930  139.5550 C   0  0  0  0  0  2  0  0  0  0  0  0
  187.8400  176.9340  138.1990 C   0  0  2  0  0  3  0  0  0  0  0  0
  189.1720  178.6800  138.8180 C   0  0  0  0  0  2  0  0  0  0  0  0
  190.1670  176.6720  138.0990 C   0  0  0  0  0  2  0  0  0  0  0  0
  190.4570  176.5850  139.5940 C   0  0  0  0  0  2  0  0  0  0  0  0
  192.9550  176.7940  139.2280 C   0  0  0  0  0  1  0  0  0  0  0  0
  191.7340  177.3370  139.9640 C   0  0  2  0  0  3  0  0  0  0  0  0
  191.9530  177.3060  141.4750 C   0  0  0  0  0  2  0  0  0  0  0  0
  190.6690  177.5760  142.2500 C   0  0  0  0  0  2  0  0  0  0  0  0
  191.6450  176.7200  144.6050 O   0  0  0  0  0  0  0  0  0  0  0  0
  191.0300  177.9290  143.9560 S   0  0  0  0  0  0  0  0  0  0  0  0
  191.9950  179.0750  144.0370 O   0  0  0  0  0  0  0  0  0  0  0  0
  188.4010  177.5320  144.7420 C   0  0  0  0  0  0  0  0  0  0  0  0
  188.3860  176.5090  144.0090 O   0  0  0  0  0  0  0  0  0  0  0  0
  189.5740  178.3520  144.7900 N   0  0  0  0  0  2  0  0  0  0  0  0
  187.1410  177.9590  145.4790 C   0  0  2  0  0  0  0  0  0  0  0  0
  184.5010  178.5620  146.0010 O   0  0  0  0  0  1  0  0  0  0  0  0
  185.3750  178.0990  143.7700 C   0  0  1  0  0  3  0  0  0  0  0  0
  184.5400  180.4950  144.4250 C   0  0  0  0  0  1  0  0  0  0  0  0
  184.9720  179.0820  144.7900 C   0  0  1  0  0  0  0  0  0  0  0  0
  185.3190  178.6340  142.3470 C   0  0  0  0  0  1  0  0  0  0  0  0
  186.4140  178.8430  144.5280 N   0  0  0  0  0  0  0  0  0  0  0  0
  187.5490  178.1260  147.9990 C   0  0  0  0  0  2  0  0  0  0  0  0
  186.4520  178.9270  147.6340 O   0  0  0  0  0  0  0  0  0  0  0  0
  187.5080  178.8490  146.7040 C   0  0  2  0  0  3  0  0  0  0  0  0
  186.3560  176.8220  145.8510 O   0  0  0  0  0  0  0  0  0  0  0  0
  187.1580  175.8890  146.3310 O   0  0  0  0  0  1  0  0  0  0  0  0
  187.1390  176.3550  136.9670 C   0  0  1  0  0  3  0  0  0  0  0  0
  185.9070  176.9920  136.7960 O   0  0  0  0  0  0  0  0  0  0  0  0
  182.2600  175.2270  134.6020 C   0  0  0  0  0  1  0  0  0  0  0  0
  182.2350  174.9800  137.0070 C   0  0  2  0  0  3  0  0  0  0  0  0
  182.8220  175.7020  135.8590 N   0  0  0  0  0  0  0  0  0  0  0  0
  183.9340  176.5230  138.1750 C   0  0  1  0  0  3  0  0  0  0  0  0
  182.8440  175.4400  138.3430 C   0  0  0  0  0  2  0  0  0  0  0  0
  184.2730  175.5240  135.8160 C   0  0  0  0  0  2  0  0  0  0  0  0
  184.9420  176.0270  137.1060 C   0  0  1  0  0  3  0  0  0  0  0  0
  181.9890  177.9540  138.2930 C   0  0  0  0  0  2  0  0  0  0  0  0
  184.0750  178.8570  138.6100 C   0  0  0  0  0  2  0  0  0  0  0  0
  183.1150  179.9990  138.8470 C   0  0  0  0  0  2  0  0  0  0  0  0
  181.7410  179.3910  138.6990 C   0  0  2  0  0  3  0  0  0  0  0  0
  183.3710  177.8460  137.8280 N   0  0  1  0  0  0  0  0  0  0  0  0
  181.0470  179.4150  139.9390 O   0  0  0  0  0  0  0  0  0  0  0  0
  181.2900  178.4850  140.9530 C   0  0  0  0  0  0  0  0  0  0  0  0
  180.3990  178.4100  142.0590 N   0  0  0  0  0  1  0  0  0  0  0  0
  182.2890  177.7170  140.9020 O   0  0  0  0  0  0  0  0  0  0  0  0
  181.3090  172.8290  136.5120 O   0  0  0  0  0  0  0  0  0  0  0  0
  182.3180  173.4810  136.8930 C   0  0  0  0  0  0  0  0  0  0  0  0
  183.4990  172.8100  137.1850 O   0  0  0  0  0  1  0  0  0  0  0  0
  187.9770  176.5220  135.7000 C   0  0  0  0  0  2  0  0  0  0  0  0
  188.0290  174.0880  136.1180 C   0  0  0  0  0  1  0  0  0  0  0  0
  188.3080  175.1700  135.0910 C   0  0  2  0  0  3  0  0  0  0  0  0
  189.7740  175.1290  134.6830 C   0  0  0  0  0  2  0  0  0  0  0  0
  190.2710  176.5210  134.3470 C   0  0  0  0  0  1  0  0  0  0  0  0
  1  3  1  0  0  0  0
  2  6  1  0  0  0  0
  2  4  1  0  0  0  0
  2  5  1  0  0  0  0
  4 30  1  6  0  0  0
  4  1  1  0  0  0  0
  5  3  1  0  0  0  0
  6  7  1  0  0  0  0
  7  9  1  0  0  0  0
  9  8  1  6  0  0  0
  9 10  1  0  0  0  0
 10 11  1  0  0  0  0
 11 13  1  0  0  0  0
 13 14  2  0  0  0  0
 13 12  2  0  0  0  0
 13 17  1  0  0  0  0
 15 17  1  0  0  0  0
 16 15  2  0  0  0  0
 18 15  1  6  0  0  0
 18 28  1  0  0  0  0
 20 23  1  6  0  0  0
 20 24  1  0  0  0  0
 20 22  1  0  0  0  0
 22 21  1  6  0  0  0
 22 19  1  0  0  0  0
 24 22  1  0  0  0  0
 24 18  1  0  0  0  0
 26 25  1  0  0  0  0
 27 18  1  6  0  0  0
 27 26  1  0  0  0  0
 27 25  1  0  0  0  0
 28 29  1  0  0  0  0
 30 51  1  6  0  0  0
 31 30  1  0  0  0  0
 32 34  1  0  0  0  0
 33 49  1  6  0  0  0
 33 36  1  0  0  0  0
 34 33  1  0  0  0  0
 35 36  1  6  0  0  0
 37 34  1  0  0  0  0
 37 38  1  0  0  0  0
 38 31  1  6  0  0  0
 38 35  1  0  0  0  0
 39 42  1  0  0  0  0
 40 41  1  0  0  0  0
 42 41  1  0  0  0  0
 42 44  1  1  0  0  0
 43 35  1  0  0  0  0
 43 39  1  1  0  0  0
 43 40  1  0  0  0  0
 44 45  1  0  0  0  0
 45 46  1  0  0  0  0
 47 45  2  0  0  0  0
 48 49  2  0  0  0  0
 49 50  1  0  0  0  0
 53 51  1  0  0  0  0
 53 52  1  1  0  0  0
 54 53  1  0  0  0  0
 55 54  1  0  0  0  0
M  END
>  <MODEL>
6

>  <REMARK>
 VINA RESULT:      -5.0      2.888     10.367
  Name = 
  21 active torsions:
  status: ('A' for Active; 'I' for Inactive)
    1  A    between atoms: C_1  and  C_21
    2  A    between atoms: C_1  and  O_29
    3  A    between atoms: C_1  and  C_38
    4  A    between atoms: C_1  and  N_53
    5  A    between atoms: C_2  and  C_19
    6  A    between atoms: C_2  and  O_28
    7  A    between atoms: C_2  and  C_44
    8  A    between atoms: C_4  and  C_40
    9  A    between atoms: C_8  and  S_20
   10  A    between atoms: C_8  and  C_43
   11  A    between atoms: C_10  and  O_32
   12  A    between atoms: C_16  and  C_17
   13  A    between atoms: C_19  and  C_40
   14  A    between atoms: S_20  and  N_42
   15  A    between atoms: N_27  and  C_31
   16  A    between atoms: O_28  and  C_49
   17  A    between atoms: C_31  and  C_54
   18  A    between atoms: O_32  and  C_48
   19  A    between atoms: C_33  and  N_52
   20  A    between atoms: C_43  and  C_51
   21  A    between atoms: C_51  and  C_54
                            x       y       z     vdW  Elec       q    Type
                         _______ _______ _______ _____ _____    ______ ____

>  <TORSDO>
F 21

$$$$
=
 OpenBabel10272401413D

 55 59  0  0  1  0  0  0  0  0999 V2000
  193.3410  176.9960  138.2950 O   0  0  0  0  0  0  0  0  0  0  0  0
  191.5250  175.5200  138.2640 N   0  0  0  0  0  0  0  0  0  0  0  0
  192.5510  177.3230  139.4000 C   0  0  0  0  0  2  0  0  0  0  0  0
  192.4950  176.2480  137.4580 C   0  0  2  0  0  3  0  0  0  0  0  0
  191.4520  176.2980  139.4850 C   0  0  0  0  0  2  0  0  0  0  0  0
  190.2400  175.6210  137.5850 C   0  0  0  0  0  2  0  0  0  0  0  0
  189.6700  177.0280  137.7300 C   0  0  0  0  0  2  0  0  0  0  0  0
  187.9420  178.6780  136.8860 C   0  0  0  0  0  1  0  0  0  0  0  0
  188.5110  177.2680  136.7640 C   0  0  2  0  0  3  0  0  0  0  0  0
  187.4170  176.2210  136.9720 C   0  0  0  0  0  2  0  0  0  0  0  0
  186.3720  176.2520  135.8640 C   0  0  0  0  0  2  0  0  0  0  0  0
  184.2270  174.9000  134.9650 O   0  0  0  0  0  0  0  0  0  0  0  0
  185.0800  175.0730  136.1910 S   0  0  0  0  0  0  0  0  0  0  0  0
  185.6890  173.7510  136.5580 O   0  0  0  0  0  0  0  0  0  0  0  0
  183.3330  176.8360  137.4270 C   0  0  0  0  0  0  0  0  0  0  0  0
  183.4320  177.5730  136.4110 O   0  0  0  0  0  0  0  0  0  0  0  0
  184.0960  175.6270  137.5030 N   0  0  0  0  0  2  0  0  0  0  0  0
  182.4990  177.2880  138.6160 C   0  0  2  0  0  0  0  0  0  0  0  0
  182.1780  179.5020  140.2290 O   0  0  0  0  0  1  0  0  0  0  0  0
  184.3430  178.6890  139.4500 C   0  0  1  0  0  3  0  0  0  0  0  0
  183.6770  178.5500  141.9810 C   0  0  0  0  0  1  0  0  0  0  0  0
  183.3260  178.7540  140.5130 C   0  0  1  0  0  0  0  0  0  0  0  0
  185.7460  178.3980  139.9590 C   0  0  0  0  0  1  0  0  0  0  0  0
  183.4760  177.5120  139.7150 N   0  0  0  0  0  0  0  0  0  0  0  0
  181.2150  176.1800  140.5310 C   0  0  0  0  0  2  0  0  0  0  0  0
  182.1990  175.3040  140.0400 O   0  0  0  0  0  0  0  0  0  0  0  0
  181.5670  176.1330  139.0910 C   0  0  2  0  0  3  0  0  0  0  0  0
  181.7690  178.4790  138.3050 O   0  0  0  0  0  0  0  0  0  0  0  0
  180.4760  178.2290  138.4170 O   0  0  0  0  0  1  0  0  0  0  0  0
  193.3070  175.3060  136.5640 C   0  0  1  0  0  3  0  0  0  0  0  0
  193.4560  174.0750  137.2090 O   0  0  0  0  0  0  0  0  0  0  0  0
  197.5860  174.9960  135.3870 C   0  0  0  0  0  1  0  0  0  0  0  0
  197.6180  173.5970  137.3590 C   0  0  2  0  0  3  0  0  0  0  0  0
  196.7940  174.1360  136.2570 N   0  0  0  0  0  0  0  0  0  0  0  0
  195.3000  172.6210  137.9130 C   0  0  1  0  0  3  0  0  0  0  0  0
  196.7900  172.7170  138.3130 C   0  0  0  0  0  2  0  0  0  0  0  0
  195.6690  174.9120  136.7760 C   0  0  0  0  0  2  0  0  0  0  0  0
  194.7700  174.0600  137.6880 C   0  0  1  0  0  3  0  0  0  0  0  0
  196.1130  170.7280  136.6480 C   0  0  0  0  0  2  0  0  0  0  0  0
  193.8530  171.0080  136.9330 C   0  0  0  0  0  2  0  0  0  0  0  0
  193.9940  169.6980  136.1930 C   0  0  0  0  0  2  0  0  0  0  0  0
  195.4830  169.4840  136.0590 C   0  0  2  0  0  3  0  0  0  0  0  0
  195.0840  171.7640  136.7270 N   0  0  1  0  0  0  0  0  0  0  0  0
  195.8940  168.3500  136.8110 O   0  0  0  0  0  0  0  0  0  0  0  0
  196.3210  168.4430  138.1380 C   0  0  0  0  0  0  0  0  0  0  0  0
  197.7080  168.3320  138.4330 N   0  0  0  0  0  1  0  0  0  0  0  0
  195.4940  168.6190  139.0740 O   0  0  0  0  0  0  0  0  0  0  0  0
  199.4490  175.0980  137.7050 O   0  0  0  0  0  0  0  0  0  0  0  0
  198.3560  174.6500  138.1420 C   0  0  0  0  0  0  0  0  0  0  0  0
  197.8370  175.1470  139.3310 O   0  0  0  0  0  1  0  0  0  0  0  0
  192.6440  175.0920  135.2050 C   0  0  0  0  0  2  0  0  0  0  0  0
  193.0680  172.8150  134.3470 C   0  0  0  0  0  1  0  0  0  0  0  0
  192.0770  173.6860  135.0980 C   0  0  2  0  0  3  0  0  0  0  0  0
  190.7500  173.7160  134.3550 C   0  0  0  0  0  2  0  0  0  0  0  0
  189.6450  173.1320  135.2150 C   0  0  0  0  0  1  0  0  0  0  0  0
  1  3  1  0  0  0  0
  2  5  1  0  0  0  0
  3  5  1  0  0  0  0
  4 30  1  1  0  0  0
  4  2  1  0  0  0  0
  4  1  1  0  0  0  0
  6  7  1  0  0  0  0
  6  2  1  0  0  0  0
  9  8  1  1  0  0  0
  9 10  1  0  0  0  0
  9  7  1  0  0  0  0
 11 13  1  0  0  0  0
 11 10  1  0  0  0  0
 12 13  2  0  0  0  0
 13 14  2  0  0  0  0
 13 17  1  0  0  0  0
 15 17  1  0  0  0  0
 16 15  2  0  0  0  0
 18 15  1  6  0  0  0
 18 24  1  0  0  0  0
 19 22  1  0  0  0  0
 20 24  1  0  0  0  0
 20 23  1  1  0  0  0
 20 22  1  0  0  0  0
 22 21  1  1  0  0  0
 24 22  1  0  0  0  0
 26 25  1  0  0  0  0
 27 18  1  1  0  0  0
 27 26  1  0  0  0  0
 27 25  1  0  0  0  0
 28 29  1  0  0  0  0
 28 18  1  0  0  0  0
 30 51  1  6  0  0  0
 30 31  1  0  0  0  0
 32 34  1  0  0  0  0
 33 49  1  1  0  0  0
 33 36  1  0  0  0  0
 34 37  1  0  0  0  0
 34 33  1  0  0  0  0
 35 36  1  6  0  0  0
 37 38  1  0  0  0  0
 38 31  1  6  0  0  0
 38 35  1  0  0  0  0
 41 40  1  0  0  0  0
 42 41  1  0  0  0  0
 42 39  1  0  0  0  0
 42 44  1  1  0  0  0
 43 39  1  1  0  0  0
 43 40  1  0  0  0  0
 43 35  1  0  0  0  0
 44 45  1  0  0  0  0
 45 46  1  0  0  0  0
 45 47  2  0  0  0  0
 48 49  2  0  0  0  0
 49 50  1  0  0  0  0
 53 52  1  6  0  0  0
 53 51  1  0  0  0  0
 54 53  1  0  0  0  0
 54 55  1  0  0  0  0
M  END
>  <MODEL>
7

>  <REMARK>
 VINA RESULT:      -4.8      4.115      8.700
  Name = 
  21 active torsions:
  status: ('A' for Active; 'I' for Inactive)
    1  A    between atoms: C_1  and  C_21
    2  A    between atoms: C_1  and  O_29
    3  A    between atoms: C_1  and  C_38
    4  A    between atoms: C_1  and  N_53
    5  A    between atoms: C_2  and  C_19
    6  A    between atoms: C_2  and  O_28
    7  A    between atoms: C_2  and  C_44
    8  A    between atoms: C_4  and  C_40
    9  A    between atoms: C_8  and  S_20
   10  A    between atoms: C_8  and  C_43
   11  A    between atoms: C_10  and  O_32
   12  A    between atoms: C_16  and  C_17
   13  A    between atoms: C_19  and  C_40
   14  A    between atoms: S_20  and  N_42
   15  A    between atoms: N_27  and  C_31
   16  A    between atoms: O_28  and  C_49
   17  A    between atoms: C_31  and  C_54
   18  A    between atoms: O_32  and  C_48
   19  A    between atoms: C_33  and  N_52
   20  A    between atoms: C_43  and  C_51
   21  A    between atoms: C_51  and  C_54
                            x       y       z     vdW  Elec       q    Type
                         _______ _______ _______ _____ _____    ______ ____

>  <TORSDO>
F 21

$$$$
=
 OpenBabel10272401413D

 55 59  0  0  1  0  0  0  0  0999 V2000
  188.6190  178.6160  139.2520 O   0  0  0  0  0  0  0  0  0  0  0  0
  186.4140  177.8870  139.5480 N   0  0  0  0  0  0  0  0  0  0  0  0
  188.3220  178.8000  140.6050 C   0  0  0  0  0  2  0  0  0  0  0  0
  187.3680  178.4880  138.6250 C   0  0  2  0  0  3  0  0  0  0  0  0
  186.9600  178.2080  140.8520 C   0  0  0  0  0  2  0  0  0  0  0  0
  185.1560  178.6040  139.3930 C   0  0  0  0  0  2  0  0  0  0  0  0
  184.7320  179.2280  140.7190 C   0  0  0  0  0  2  0  0  0  0  0  0
  182.2380  178.9000  141.0190 C   0  0  0  0  0  1  0  0  0  0  0  0
  183.6330  178.4140  141.3980 C   0  0  2  0  0  3  0  0  0  0  0  0
  183.8190  178.4270  142.9140 C   0  0  0  0  0  2  0  0  0  0  0  0
  185.2500  178.7600  143.3170 C   0  0  0  0  0  2  0  0  0  0  0  0
  184.7040  179.4630  145.8550 O   0  0  0  0  0  0  0  0  0  0  0  0
  185.4950  178.4660  145.0550 S   0  0  0  0  0  0  0  0  0  0  0  0
  185.0330  177.0800  145.3980 O   0  0  0  0  0  0  0  0  0  0  0  0
  188.1490  177.6650  145.0070 C   0  0  0  0  0  0  0  0  0  0  0  0
  187.7790  176.6360  144.3840 O   0  0  0  0  0  0  0  0  0  0  0  0
  187.1750  178.6170  145.4460 N   0  0  0  0  0  2  0  0  0  0  0  0
  189.6100  177.8350  145.3940 C   0  0  2  0  0  0  0  0  0  0  0  0
  192.0290  176.9930  146.4180 O   0  0  0  0  0  1  0  0  0  0  0  0
  191.5650  177.2130  144.0330 C   0  0  1  0  0  3  0  0  0  0  0  0
  191.9330  174.8610  145.1280 C   0  0  0  0  0  1  0  0  0  0  0  0
  191.6650  176.3570  145.2260 C   0  0  1  0  0  0  0  0  0  0  0  0
  191.7460  176.4630  142.7220 C   0  0  0  0  0  1  0  0  0  0  0  0
  190.3280  176.7310  144.7010 N   0  0  0  0  0  0  0  0  0  0  0  0
  188.5620  177.1630  147.6300 C   0  0  0  0  0  2  0  0  0  0  0  0
  189.0410  178.4830  147.6990 O   0  0  0  0  0  0  0  0  0  0  0  0
  189.7960  177.5830  146.9210 C   0  0  2  0  0  3  0  0  0  0  0  0
  190.1000  179.1190  144.9940 O   0  0  0  0  0  0  0  0  0  0  0  0
  189.9860  179.2290  143.6820 O   0  0  0  0  0  1  0  0  0  0  0  0
  187.4880  177.6800  137.3300 C   0  0  1  0  0  3  0  0  0  0  0  0
  187.2240  176.3350  137.6010 O   0  0  0  0  0  0  0  0  0  0  0  0
  190.4830  176.4020  134.3460 C   0  0  0  0  0  1  0  0  0  0  0  0
  190.4410  174.4130  135.7220 C   0  0  2  0  0  3  0  0  0  0  0  0
  189.6880  175.6010  135.2680 N   0  0  0  0  0  0  0  0  0  0  0  0
  188.2440  174.1760  137.0440 C   0  0  1  0  0  3  0  0  0  0  0  0
  189.6320  173.5740  136.7270 C   0  0  0  0  0  2  0  0  0  0  0  0
  189.3050  176.4420  136.4010 C   0  0  0  0  0  2  0  0  0  0  0  0
  188.4390  175.6690  137.4100 C   0  0  1  0  0  3  0  0  0  0  0  0
  187.7910  173.0340  134.9610 C   0  0  0  0  0  2  0  0  0  0  0  0
  186.0860  173.3620  136.4620 C   0  0  0  0  0  2  0  0  0  0  0  0
  185.4730  172.5480  135.3470 C   0  0  0  0  0  2  0  0  0  0  0  0
  186.6090  172.2810  134.3890 C   0  0  2  0  0  3  0  0  0  0  0  0
  187.2840  174.0040  135.9320 N   0  0  1  0  0  0  0  0  0  0  0  0
  186.9130  170.8930  134.3480 O   0  0  0  0  0  0  0  0  0  0  0  0
  188.0280  170.3500  134.9920 C   0  0  0  0  0  0  0  0  0  0  0  0
  189.3310  170.7450  134.5810 N   0  0  0  0  0  1  0  0  0  0  0  0
  187.8940  169.5130  135.9250 O   0  0  0  0  0  0  0  0  0  0  0  0
  192.8010  174.7610  135.5290 O   0  0  0  0  0  0  0  0  0  0  0  0
  191.7990  174.7310  136.2910 C   0  0  0  0  0  0  0  0  0  0  0  0
  191.9550  175.0090  137.6430 O   0  0  0  0  0  1  0  0  0  0  0  0
  186.5270  178.1790  136.2520 C   0  0  0  0  0  2  0  0  0  0  0  0
  185.0110  177.5010  134.4240 C   0  0  0  0  0  1  0  0  0  0  0  0
  185.7070  177.0310  135.6880 C   0  0  2  0  0  3  0  0  0  0  0  0
  184.6740  176.5810  136.7100 C   0  0  0  0  0  2  0  0  0  0  0  0
  183.3570  177.3000  136.4890 C   0  0  0  0  0  1  0  0  0  0  0  0
  1  3  1  0  0  0  0
  2  5  1  0  0  0  0
  3  5  1  0  0  0  0
  4 30  1  6  0  0  0
  4  1  1  0  0  0  0
  4  2  1  0  0  0  0
  6  2  1  0  0  0  0
  6  7  1  0  0  0  0
  7  9  1  0  0  0  0
  9  8  1  1  0  0  0
  9 10  1  0  0  0  0
 10 11  1  0  0  0  0
 11 13  1  0  0  0  0
 13 14  2  0  0  0  0
 13 17  1  0  0  0  0
 13 12  2  0  0  0  0
 15 18  1  0  0  0  0
 15 17  1  0  0  0  0
 16 15  2  0  0  0  0
 18 28  1  6  0  0  0
 20 23  1  6  0  0  0
 20 24  1  0  0  0  0
 20 22  1  0  0  0  0
 22 21  1  6  0  0  0
 22 19  1  0  0  0  0
 24 22  1  0  0  0  0
 24 18  1  0  0  0  0
 25 26  1  0  0  0  0
 27 18  1  6  0  0  0
 27 25  1  0  0  0  0
 27 26  1  0  0  0  0
 29 28  1  0  0  0  0
 30 51  1  6  0  0  0
 30 31  1  0  0  0  0
 32 34  1  0  0  0  0
 33 49  1  1  0  0  0
 33 36  1  0  0  0  0
 34 33  1  0  0  0  0
 34 37  1  0  0  0  0
 35 36  1  6  0  0  0
 35 38  1  0  0  0  0
 37 38  1  0  0  0  0
 38 31  1  6  0  0  0
 41 40  1  0  0  0  0
 42 44  1  1  0  0  0
 42 39  1  0  0  0  0
 42 41  1  0  0  0  0
 43 39  1  6  0  0  0
 43 40  1  0  0  0  0
 43 35  1  0  0  0  0
 44 45  1  0  0  0  0
 45 47  2  0  0  0  0
 46 45  1  0  0  0  0
 48 49  2  0  0  0  0
 49 50  1  0  0  0  0
 53 52  1  6  0  0  0
 53 51  1  0  0  0  0
 53 54  1  0  0  0  0
 55 54  1  0  0  0  0
M  END
>  <MODEL>
8

>  <REMARK>
 VINA RESULT:      -4.6      2.751      8.766
  Name = 
  21 active torsions:
  status: ('A' for Active; 'I' for Inactive)
    1  A    between atoms: C_1  and  C_21
    2  A    between atoms: C_1  and  O_29
    3  A    between atoms: C_1  and  C_38
    4  A    between atoms: C_1  and  N_53
    5  A    between atoms: C_2  and  C_19
    6  A    between atoms: C_2  and  O_28
    7  A    between atoms: C_2  and  C_44
    8  A    between atoms: C_4  and  C_40
    9  A    between atoms: C_8  and  S_20
   10  A    between atoms: C_8  and  C_43
   11  A    between atoms: C_10  and  O_32
   12  A    between atoms: C_16  and  C_17
   13  A    between atoms: C_19  and  C_40
   14  A    between atoms: S_20  and  N_42
   15  A    between atoms: N_27  and  C_31
   16  A    between atoms: O_28  and  C_49
   17  A    between atoms: C_31  and  C_54
   18  A    between atoms: O_32  and  C_48
   19  A    between atoms: C_33  and  N_52
   20  A    between atoms: C_43  and  C_51
   21  A    between atoms: C_51  and  C_54
                            x       y       z     vdW  Elec       q    Type
                         _______ _______ _______ _____ _____    ______ ____

>  <TORSDO>
F 21

$$$$
=
 OpenBabel10272401413D

 55 59  0  0  1  0  0  0  0  0999 V2000
  188.7600  178.9450  140.4430 O   0  0  0  0  0  0  0  0  0  0  0  0
  186.6140  178.0190  140.5660 N   0  0  0  0  0  0  0  0  0  0  0  0
  188.1120  179.5950  141.4960 C   0  0  0  0  0  2  0  0  0  0  0  0
  187.7270  178.3620  139.6900 C   0  0  2  0  0  3  0  0  0  0  0  0
  186.7800  178.9210  141.6890 C   0  0  0  0  0  2  0  0  0  0  0  0
  185.3890  178.3840  139.8670 C   0  0  0  0  0  2  0  0  0  0  0  0
  184.4890  179.2190  140.7710 C   0  0  0  0  0  2  0  0  0  0  0  0
  182.2960  178.1230  141.4110 C   0  0  0  0  0  1  0  0  0  0  0  0
  183.7560  178.3510  141.7920 C   0  0  2  0  0  3  0  0  0  0  0  0
  183.8640  178.9620  143.1880 C   0  0  0  0  0  2  0  0  0  0  0  0
  184.5000  178.0060  144.1890 C   0  0  0  0  0  2  0  0  0  0  0  0
  184.9820  180.3770  145.3630 O   0  0  0  0  0  0  0  0  0  0  0  0
  185.2690  178.9090  145.5150 S   0  0  0  0  0  0  0  0  0  0  0  0
  184.7220  178.4330  146.8290 O   0  0  0  0  0  0  0  0  0  0  0  0
  187.5650  177.4680  144.9330 C   0  0  0  0  0  0  0  0  0  0  0  0
  186.8210  176.5380  144.5220 O   0  0  0  0  0  0  0  0  0  0  0  0
  186.9810  178.6520  145.4860 N   0  0  0  0  0  2  0  0  0  0  0  0
  189.0750  177.2830  144.9490 C   0  0  2  0  0  0  0  0  0  0  0  0
  191.0430  175.7740  146.1560 O   0  0  0  0  0  1  0  0  0  0  0  0
  189.0700  176.6170  147.3190 C   0  0  1  0  0  3  0  0  0  0  0  0
  191.4620  177.5340  147.8720 C   0  0  0  0  0  1  0  0  0  0  0  0
  190.4970  176.7610  146.9840 C   0  0  1  0  0  0  0  0  0  0  0  0
  188.6710  177.3110  148.6120 C   0  0  0  0  0  1  0  0  0  0  0  0
  189.4960  177.6410  146.3310 N   0  0  0  0  0  0  0  0  0  0  0  0
  191.2380  178.2670  144.0010 C   0  0  0  0  0  2  0  0  0  0  0  0
  190.5350  179.2500  144.7200 O   0  0  0  0  0  0  0  0  0  0  0  0
  189.7550  178.3190  144.0050 C   0  0  2  0  0  3  0  0  0  0  0  0
  189.4290  175.9360  144.6200 O   0  0  0  0  0  0  0  0  0  0  0  0
  189.2520  175.7540  143.3230 O   0  0  0  0  0  1  0  0  0  0  0  0
  188.2360  177.1420  138.9180 C   0  0  1  0  0  3  0  0  0  0  0  0
  187.4230  176.9320  137.8010 O   0  0  0  0  0  0  0  0  0  0  0  0
  188.7440  174.1850  134.3460 C   0  0  0  0  0  1  0  0  0  0  0  0
  187.1550  173.2110  135.8870 C   0  0  2  0  0  3  0  0  0  0  0  0
  187.7590  174.4620  135.3830 N   0  0  0  0  0  0  0  0  0  0  0  0
  186.0050  174.9790  137.3650 C   0  0  1  0  0  3  0  0  0  0  0  0
  186.1390  173.4800  137.0120 C   0  0  0  0  0  2  0  0  0  0  0  0
  188.4160  175.1970  136.4630 C   0  0  0  0  0  2  0  0  0  0  0  0
  187.4300  175.5490  137.5890 C   0  0  1  0  0  3  0  0  0  0  0  0
  184.2460  174.9000  135.7090 C   0  0  0  0  0  2  0  0  0  0  0  0
  184.4850  176.7740  137.0130 C   0  0  0  0  0  2  0  0  0  0  0  0
  183.2520  177.0330  136.1790 C   0  0  0  0  0  2  0  0  0  0  0  0
  183.0600  175.7750  135.3650 C   0  0  2  0  0  3  0  0  0  0  0  0
  185.2640  175.7410  136.3370 N   0  0  1  0  0  0  0  0  0  0  0  0
  181.8620  175.1120  135.7460 O   0  0  0  0  0  0  0  0  0  0  0  0
  181.7040  173.7280  135.6400 C   0  0  0  0  0  0  0  0  0  0  0  0
  182.1010  172.8960  136.7230 N   0  0  0  0  0  1  0  0  0  0  0  0
  181.2210  173.2080  134.5970 O   0  0  0  0  0  0  0  0  0  0  0  0
  188.9420  171.6690  135.4950 O   0  0  0  0  0  0  0  0  0  0  0  0
  188.1610  172.1850  136.3370 C   0  0  0  0  0  0  0  0  0  0  0  0
  188.2480  171.8140  137.6730 O   0  0  0  0  0  1  0  0  0  0  0  0
  189.6860  177.3130  138.4670 C   0  0  0  0  0  2  0  0  0  0  0  0
  191.3490  177.3510  140.2920 C   0  0  0  0  0  1  0  0  0  0  0  0
  190.6170  176.4570  139.3090 C   0  0  2  0  0  3  0  0  0  0  0  0
  191.6200  175.7450  138.4130 C   0  0  0  0  0  2  0  0  0  0  0  0
  193.0230  176.2600  138.6690 C   0  0  0  0  0  1  0  0  0  0  0  0
  1  3  1  0  0  0  0
  2  5  1  0  0  0  0
  3  5  1  0  0  0  0
  4 30  1  1  0  0  0
  4  1  1  0  0  0  0
  4  2  1  0  0  0  0
  6  2  1  0  0  0  0
  6  7  1  0  0  0  0
  7  9  1  0  0  0  0
  9  8  1  6  0  0  0
  9 10  1  0  0  0  0
 10 11  1  0  0  0  0
 11 13  1  0  0  0  0
 12 13  2  0  0  0  0
 13 14  2  0  0  0  0
 15 18  1  0  0  0  0
 15 17  1  0  0  0  0
 16 15  2  0  0  0  0
 17 13  1  0  0  0  0
 18 28  1  6  0  0  0
 18 24  1  0  0  0  0
 19 22  1  0  0  0  0
 20 23  1  1  0  0  0
 22 20  1  0  0  0  0
 22 21  1  1  0  0  0
 24 22  1  0  0  0  0
 24 20  1  0  0  0  0
 25 27  1  0  0  0  0
 25 26  1  0  0  0  0
 27 26  1  0  0  0  0
 27 18  1  1  0  0  0
 29 28  1  0  0  0  0
 30 51  1  6  0  0  0
 31 30  1  0  0  0  0
 32 34  1  0  0  0  0
 33 49  1  1  0  0  0
 33 36  1  0  0  0  0
 34 33  1  0  0  0  0
 34 37  1  0  0  0  0
 35 36  1  6  0  0  0
 35 38  1  0  0  0  0
 37 38  1  0  0  0  0
 38 31  1  6  0  0  0
 41 40  1  0  0  0  0
 42 39  1  0  0  0  0
 42 44  1  1  0  0  0
 42 41  1  0  0  0  0
 43 39  1  1  0  0  0
 43 40  1  0  0  0  0
 43 35  1  0  0  0  0
 45 44  1  0  0  0  0
 45 46  1  0  0  0  0
 47 45  2  0  0  0  0
 48 49  2  0  0  0  0
 49 50  1  0  0  0  0
 51 53  1  0  0  0  0
 53 52  1  1  0  0  0
 54 55  1  0  0  0  0
 54 53  1  0  0  0  0
M  END
>  <MODEL>
9

>  <REMARK>
 VINA RESULT:      -4.5      2.636      9.012
  Name = 
  21 active torsions:
  status: ('A' for Active; 'I' for Inactive)
    1  A    between atoms: C_1  and  C_21
    2  A    between atoms: C_1  and  O_29
    3  A    between atoms: C_1  and  C_38
    4  A    between atoms: C_1  and  N_53
    5  A    between atoms: C_2  and  C_19
    6  A    between atoms: C_2  and  O_28
    7  A    between atoms: C_2  and  C_44
    8  A    between atoms: C_4  and  C_40
    9  A    between atoms: C_8  and  S_20
   10  A    between atoms: C_8  and  C_43
   11  A    between atoms: C_10  and  O_32
   12  A    between atoms: C_16  and  C_17
   13  A    between atoms: C_19  and  C_40
   14  A    between atoms: S_20  and  N_42
   15  A    between atoms: N_27  and  C_31
   16  A    between atoms: O_28  and  C_49
   17  A    between atoms: C_31  and  C_54
   18  A    between atoms: O_32  and  C_48
   19  A    between atoms: C_33  and  N_52
   20  A    between atoms: C_43  and  C_51
   21  A    between atoms: C_51  and  C_54
                            x       y       z     vdW  Elec       q    Type
                         _______ _______ _______ _____ _____    ______ ____

>  <TORSDO>
F 21

$$$$
