=
 OpenBabel10272402063D

 32 36  0  0  1  0  0  0  0  0999 V2000
  183.6400  177.2970  135.9250 N   0  0  0  0  0  0  0  0  0  0  0  0
  183.3110  176.9420  138.3300 C   0  0  0  0  0  0  0  0  0  0  0  0
  182.9890  177.9160  134.7570 C   0  0  0  0  0  2  0  0  0  0  0  0
  182.8480  176.8830  137.0630 C   0  0  0  0  0  0  0  0  0  0  0  0
  182.4640  176.5120  139.5070 C   0  0  1  0  0  3  0  0  0  0  0  0
  183.8880  179.3150  139.4170 C   0  0  1  0  0  3  0  0  0  0  0  0
  182.4390  179.0720  139.9040 C   0  0  2  0  0  3  0  0  0  0  0  0
  181.4470  176.4940  136.8090 C   0  0  0  0  0  0  0  0  0  0  0  0
  182.2500  177.6680  140.5040 C   0  0  0  0  0  2  0  0  0  0  0  0
  180.6770  176.0240  137.7830 C   0  0  0  0  0  3  0  0  0  0  0  0
  180.8960  176.6850  135.4380 C   0  0  0  0  0  2  0  0  0  0  0  0
  185.7260  177.3460  134.8700 O   0  0  0  0  0  0  0  0  0  0  0  0
  184.9770  176.7980  135.7250 C   0  0  0  0  0  0  0  0  0  0  0  0
  184.7940  177.8580  138.7510 S   0  0  0  0  0  0  0  0  0  0  0  0
  181.1870  175.9050  139.1150 N   0  0  0  0  0  0  0  0  0  0  0  0
  181.4610  177.9830  134.8710 C   0  0  0  0  0  2  0  0  0  0  0  0
  183.9710  180.3800  138.5370 F   0  0  0  0  0  0  0  0  0  0  0  0
  181.3930  179.3750  138.8320 C   0  0  0  0  0  3  0  0  0  0  0  0
  180.0030  179.3330  139.4390 C   0  0  0  0  0  2  0  0  0  0  0  0
  180.6730  180.6640  139.1780 C   0  0  0  0  0  2  0  0  0  0  0  0
  180.3770  175.2400  140.1250 C   0  0  0  0  0  2  0  0  0  0  0  0
  179.9820  173.8540  139.6520 C   0  0  0  0  0  1  0  0  0  0  0  0
  185.4400  175.5580  136.4410 C   0  0  2  0  0  3  0  0  0  0  0  0
  187.4800  174.6250  135.6300 O   0  0  0  0  0  0  0  0  0  0  0  0
  186.9320  175.4060  136.4480 C   0  0  0  0  0  0  0  0  0  0  0  0
  187.7320  176.1270  137.3810 N   0  0  0  0  0  1  0  0  0  0  0  0
  184.7440  174.3280  135.8750 C   0  0  0  0  0  2  0  0  0  0  0  0
  184.4570  173.7880  138.3080 F   0  0  0  0  0  0  0  0  0  0  0  0
  184.0220  172.0130  136.7100 C   0  0  0  0  0  2  0  0  0  0  0  0
  184.1320  173.4920  136.9960 C   0  0  2  0  0  0  0  0  0  0  0  0
  182.1880  173.0690  135.4120 C   0  0  0  0  0  1  0  0  0  0  0  0
  182.7580  172.8620  136.8060 C   0  0  1  0  0  3  0  0  0  0  0  0
  1  4  1  0  0  0  0
  2 14  1  0  0  0  0
  2  5  1  0  0  0  0
  3 16  1  0  0  0  0
  3  1  1  0  0  0  0
  4  2  2  0  0  0  0
  5  9  1  1  0  0  0
  6 17  1  6  0  0  0
  6  7  1  0  0  0  0
  7 18  1  6  0  0  0
  7  9  1  0  0  0  0
  8  4  1  0  0  0  0
  8 10  2  0  0  0  0
 10 15  1  0  0  0  0
 11  8  1  0  0  0  0
 12 13  2  0  0  0  0
 13  1  1  0  0  0  0
 13 23  1  0  0  0  0
 14  6  1  0  0  0  0
 15  5  1  0  0  0  0
 15 21  1  0  0  0  0
 16 11  1  0  0  0  0
 18 20  1  0  0  0  0
 18 19  1  0  0  0  0
 20 19  1  0  0  0  0
 22 21  1  0  0  0  0
 23 27  1  6  0  0  0
 23 25  1  0  0  0  0
 24 25  2  0  0  0  0
 25 26  1  0  0  0  0
 27 30  1  0  0  0  0
 29 32  1  0  0  0  0
 29 30  1  0  0  0  0
 30 28  1  1  0  0  0
 32 31  1  6  0  0  0
 32 30  1  0  0  0  0
M  END
>  <MODEL>
1

>  <REMARK>
 VINA RESULT:      -3.9      0.000      0.000
  Name = 
  6 active torsions:
  status: ('A' for Active; 'I' for Inactive)
    1  A    between atoms: C_9  and  C_12
    2  A    between atoms: C_13  and  N_29
    3  A    between atoms: C_15  and  C_20
    4  A    between atoms: C_16  and  C_20
    5  A    between atoms: C_16  and  C_22
    6  A    between atoms: C_16  and  C_27
                            x       y       z     vdW  Elec       q    Type
                         _______ _______ _______ _____ _____    ______ ____

>  <TORSDO>
F 6

$$$$
=
 OpenBabel10272402063D

 32 36  0  0  1  0  0  0  0  0999 V2000
  186.8840  178.1740  136.7810 N   0  0  0  0  0  0  0  0  0  0  0  0
  185.1890  176.9330  138.0470 C   0  0  0  0  0  0  0  0  0  0  0  0
  187.0920  178.8240  135.4750 C   0  0  0  0  0  2  0  0  0  0  0  0
  185.9050  177.1170  136.9180 C   0  0  0  0  0  0  0  0  0  0  0  0
  184.1650  175.8270  138.1690 C   0  0  1  0  0  3  0  0  0  0  0  0
  183.4700  178.8190  138.8470 C   0  0  1  0  0  3  0  0  0  0  0  0
  182.5570  177.8550  138.0500 C   0  0  2  0  0  3  0  0  0  0  0  0
  185.6200  176.2980  135.7240 C   0  0  0  0  0  0  0  0  0  0  0  0
  182.7580  176.3850  138.4590 C   0  0  0  0  0  2  0  0  0  0  0  0
  184.7970  175.2570  135.7850 C   0  0  0  0  0  3  0  0  0  0  0  0
  186.2400  176.6940  134.4290 C   0  0  0  0  0  2  0  0  0  0  0  0
  188.6050  179.4250  137.7500 O   0  0  0  0  0  0  0  0  0  0  0  0
  187.9180  178.3670  137.7660 C   0  0  0  0  0  0  0  0  0  0  0  0
  185.1240  178.1770  139.3380 S   0  0  0  0  0  0  0  0  0  0  0  0
  184.1480  174.9190  137.0150 N   0  0  0  0  0  0  0  0  0  0  0  0
  186.2490  178.2170  134.3460 C   0  0  0  0  0  2  0  0  0  0  0  0
  183.5930  180.0510  138.2280 F   0  0  0  0  0  0  0  0  0  0  0  0
  182.6710  178.0420  136.5370 C   0  0  0  0  0  3  0  0  0  0  0  0
  181.6100  177.2190  135.8330 C   0  0  0  0  0  2  0  0  0  0  0  0
  181.4130  178.7080  136.0140 C   0  0  0  0  0  2  0  0  0  0  0  0
  183.3820  173.6850  137.0940 C   0  0  0  0  0  2  0  0  0  0  0  0
  184.3120  172.5000  137.2790 C   0  0  0  0  0  1  0  0  0  0  0  0
  188.2620  177.2640  138.7310 C   0  0  2  0  0  3  0  0  0  0  0  0
  187.8910  178.7440  140.5660 O   0  0  0  0  0  0  0  0  0  0  0  0
  188.5390  177.7640  140.1180 C   0  0  0  0  0  0  0  0  0  0  0  0
  189.5380  177.1480  140.9260 N   0  0  0  0  0  1  0  0  0  0  0  0
  189.4070  176.4220  138.1890 C   0  0  0  0  0  2  0  0  0  0  0  0
  187.6900  174.6700  137.6660 F   0  0  0  0  0  0  0  0  0  0  0  0
  189.9250  174.3440  136.7760 C   0  0  0  0  0  2  0  0  0  0  0  0
  188.8760  175.2890  137.3140 C   0  0  2  0  0  0  0  0  0  0  0  0
  190.1190  176.3950  135.3900 C   0  0  0  0  0  1  0  0  0  0  0  0
  189.1840  175.2760  135.8220 C   0  0  1  0  0  3  0  0  0  0  0  0
  1  4  1  0  0  0  0
  1 13  1  0  0  0  0
  2  5  1  0  0  0  0
  2 14  1  0  0  0  0
  3  1  1  0  0  0  0
  4  2  2  0  0  0  0
  5  9  1  6  0  0  0
  6 17  1  6  0  0  0
  6 14  1  0  0  0  0
  7 18  1  6  0  0  0
  7  9  1  0  0  0  0
  7  6  1  0  0  0  0
  8 10  2  0  0  0  0
  8  4  1  0  0  0  0
 10 15  1  0  0  0  0
 11  8  1  0  0  0  0
 12 13  2  0  0  0  0
 13 23  1  0  0  0  0
 15 21  1  0  0  0  0
 15  5  1  0  0  0  0
 16 11  1  0  0  0  0
 16  3  1  0  0  0  0
 19 20  1  0  0  0  0
 19 18  1  0  0  0  0
 20 18  1  0  0  0  0
 21 22  1  0  0  0  0
 23 27  1  6  0  0  0
 23 25  1  0  0  0  0
 25 24  2  0  0  0  0
 25 26  1  0  0  0  0
 29 30  1  0  0  0  0
 30 28  1  1  0  0  0
 30 27  1  0  0  0  0
 32 31  1  1  0  0  0
 32 29  1  0  0  0  0
 32 30  1  0  0  0  0
M  END
>  <MODEL>
2

>  <REMARK>
 VINA RESULT:      -3.6      2.643      4.408
  Name = 
  6 active torsions:
  status: ('A' for Active; 'I' for Inactive)
    1  A    between atoms: C_9  and  C_12
    2  A    between atoms: C_13  and  N_29
    3  A    between atoms: C_15  and  C_20
    4  A    between atoms: C_16  and  C_20
    5  A    between atoms: C_16  and  C_22
    6  A    between atoms: C_16  and  C_27
                            x       y       z     vdW  Elec       q    Type
                         _______ _______ _______ _____ _____    ______ ____

>  <TORSDO>
F 6

$$$$
=
 OpenBabel10272402063D

 32 36  0  0  1  0  0  0  0  0999 V2000
  191.1130  176.9180  139.5750 N   0  0  0  0  0  0  0  0  0  0  0  0
  188.8520  176.5940  138.6790 C   0  0  0  0  0  0  0  0  0  0  0  0
  192.5210  176.9590  139.1460 C   0  0  0  0  0  2  0  0  0  0  0  0
  190.1360  176.1920  138.7920 C   0  0  0  0  0  0  0  0  0  0  0  0
  187.8470  175.8260  137.8500 C   0  0  1  0  0  3  0  0  0  0  0  0
  188.2930  178.9170  137.4810 C   0  0  1  0  0  3  0  0  0  0  0  0
  188.1300  177.9010  136.3250 C   0  0  2  0  0  3  0  0  0  0  0  0
  190.6170  175.0380  138.0070 C   0  0  0  0  0  0  0  0  0  0  0  0
  187.2590  176.6960  136.7220 C   0  0  0  0  0  2  0  0  0  0  0  0
  189.7750  174.2700  137.3270 C   0  0  0  0  0  3  0  0  0  0  0  0
  192.0840  174.7810  137.9540 C   0  0  0  0  0  2  0  0  0  0  0  0
  191.6040  178.1160  141.5220 O   0  0  0  0  0  0  0  0  0  0  0  0
  190.8470  177.2890  140.9420 C   0  0  0  0  0  0  0  0  0  0  0  0
  188.3270  178.2310  139.1880 S   0  0  0  0  0  0  0  0  0  0  0  0
  188.3730  174.5600  137.3240 N   0  0  0  0  0  0  0  0  0  0  0  0
  192.8050  176.1220  137.8920 C   0  0  0  0  0  2  0  0  0  0  0  0
  189.3660  179.7680  137.2790 F   0  0  0  0  0  0  0  0  0  0  0  0
  189.4650  177.4610  135.7260 C   0  0  0  0  0  3  0  0  0  0  0  0
  189.2250  176.6190  134.4880 C   0  0  0  0  0  2  0  0  0  0  0  0
  189.6270  178.0710  134.3470 C   0  0  0  0  0  2  0  0  0  0  0  0
  187.4570  173.6130  136.7060 C   0  0  0  0  0  2  0  0  0  0  0  0
  187.8570  172.1910  137.0550 C   0  0  0  0  0  1  0  0  0  0  0  0
  189.7500  176.6070  141.7140 C   0  0  2  0  0  3  0  0  0  0  0  0
  189.0040  178.7800  142.3560 O   0  0  0  0  0  0  0  0  0  0  0  0
  188.7180  177.5620  142.2360 C   0  0  0  0  0  0  0  0  0  0  0  0
  187.4230  177.1000  142.6120 N   0  0  0  0  0  1  0  0  0  0  0  0
  190.3390  175.7420  142.8200 C   0  0  0  0  0  2  0  0  0  0  0  0
  189.2130  177.0730  144.6240 F   0  0  0  0  0  0  0  0  0  0  0  0
  191.6070  177.3660  144.3490 C   0  0  0  0  0  2  0  0  0  0  0  0
  190.3800  176.5100  144.1400 C   0  0  2  0  0  0  0  0  0  0  0  0
  192.3560  175.0350  144.7610 C   0  0  0  0  0  1  0  0  0  0  0  0
  191.3940  176.1240  145.2090 C   0  0  1  0  0  3  0  0  0  0  0  0
  1 13  1  0  0  0  0
  2  4  2  0  0  0  0
  2 14  1  0  0  0  0
  3  1  1  0  0  0  0
  4  1  1  0  0  0  0
  5  9  1  6  0  0  0
  5  2  1  0  0  0  0
  6 17  1  6  0  0  0
  6 14  1  0  0  0  0
  7 18  1  1  0  0  0
  7  9  1  0  0  0  0
  7  6  1  0  0  0  0
  8  4  1  0  0  0  0
 10  8  2  0  0  0  0
 11  8  1  0  0  0  0
 13 12  2  0  0  0  0
 13 23  1  0  0  0  0
 15 10  1  0  0  0  0
 15  5  1  0  0  0  0
 16 11  1  0  0  0  0
 16  3  1  0  0  0  0
 19 18  1  0  0  0  0
 20 19  1  0  0  0  0
 20 18  1  0  0  0  0
 21 22  1  0  0  0  0
 21 15  1  0  0  0  0
 23 25  1  0  0  0  0
 23 27  1  1  0  0  0
 25 24  2  0  0  0  0
 25 26  1  0  0  0  0
 27 30  1  0  0  0  0
 29 32  1  0  0  0  0
 30 29  1  0  0  0  0
 30 28  1  1  0  0  0
 30 32  1  0  0  0  0
 32 31  1  6  0  0  0
M  END
>  <MODEL>
3

>  <REMARK>
 VINA RESULT:      -3.0      5.812      8.794
  Name = 
  6 active torsions:
  status: ('A' for Active; 'I' for Inactive)
    1  A    between atoms: C_9  and  C_12
    2  A    between atoms: C_13  and  N_29
    3  A    between atoms: C_15  and  C_20
    4  A    between atoms: C_16  and  C_20
    5  A    between atoms: C_16  and  C_22
    6  A    between atoms: C_16  and  C_27
                            x       y       z     vdW  Elec       q    Type
                         _______ _______ _______ _____ _____    ______ ____

>  <TORSDO>
F 6

$$$$
=
 OpenBabel10272402063D

 32 36  0  0  1  0  0  0  0  0999 V2000
  185.8900  176.8870  135.6840 N   0  0  0  0  0  0  0  0  0  0  0  0
  187.3990  175.9080  137.3530 C   0  0  0  0  0  0  0  0  0  0  0  0
  185.9110  177.6920  134.4520 C   0  0  0  0  0  2  0  0  0  0  0  0
  186.9880  176.9680  136.6240 C   0  0  0  0  0  0  0  0  0  0  0  0
  188.5540  176.0110  138.3240 C   0  0  1  0  0  3  0  0  0  0  0  0
  188.4290  173.7720  136.1180 C   0  0  1  0  0  3  0  0  0  0  0  0
  189.6950  174.5830  136.4880 C   0  0  2  0  0  3  0  0  0  0  0  0
  187.7390  178.2370  136.6820 C   0  0  0  0  0  0  0  0  0  0  0  0
  189.6910  175.0370  137.9590 C   0  0  0  0  0  2  0  0  0  0  0  0
  188.7070  178.4230  137.5720 C   0  0  0  0  0  3  0  0  0  0  0  0
  187.4200  179.2950  135.6830 C   0  0  0  0  0  2  0  0  0  0  0  0
  183.7580  176.0640  135.1870 O   0  0  0  0  0  0  0  0  0  0  0  0
  184.6150  176.3410  136.0730 C   0  0  0  0  0  0  0  0  0  0  0  0
  186.8680  174.2380  136.9740 S   0  0  0  0  0  0  0  0  0  0  0  0
  189.0580  177.3800  138.4870 N   0  0  0  0  0  0  0  0  0  0  0  0
  187.1280  178.6210  134.3460 C   0  0  0  0  0  2  0  0  0  0  0  0
  188.2320  173.7110  134.7500 F   0  0  0  0  0  0  0  0  0  0  0  0
  189.9530  175.7500  135.5360 C   0  0  0  0  0  3  0  0  0  0  0  0
  191.3340  176.3260  135.7850 C   0  0  0  0  0  2  0  0  0  0  0  0
  191.1020  175.4020  134.6090 C   0  0  0  0  0  2  0  0  0  0  0  0
  190.0070  177.6650  139.5520 C   0  0  0  0  0  2  0  0  0  0  0  0
  189.3000  177.6770  140.8950 C   0  0  0  0  0  1  0  0  0  0  0  0
  184.2540  176.2140  137.5280 C   0  0  2  0  0  3  0  0  0  0  0  0
  183.9690  173.8580  137.7700 O   0  0  0  0  0  0  0  0  0  0  0  0
  183.4340  174.9940  137.8260 C   0  0  0  0  0  0  0  0  0  0  0  0
  182.0520  175.1090  138.1560 N   0  0  0  0  0  1  0  0  0  0  0  0
  183.5810  177.4870  138.0210 C   0  0  0  0  0  2  0  0  0  0  0  0
  185.6820  178.0290  139.2810 F   0  0  0  0  0  0  0  0  0  0  0  0
  183.6580  177.6890  140.5770 C   0  0  0  0  0  2  0  0  0  0  0  0
  184.2990  178.0330  139.2540 C   0  0  2  0  0  0  0  0  0  0  0  0
  182.2460  179.4900  139.6160 C   0  0  0  0  0  1  0  0  0  0  0  0
  183.6480  179.1320  140.0840 C   0  0  1  0  0  3  0  0  0  0  0  0
  1 13  1  0  0  0  0
  1  4  1  0  0  0  0
  2  5  1  0  0  0  0
  3  1  1  0  0  0  0
  4  8  1  0  0  0  0
  4  2  2  0  0  0  0
  5  9  1  6  0  0  0
  5 15  1  0  0  0  0
  6 17  1  6  0  0  0
  6  7  1  0  0  0  0
  6 14  1  0  0  0  0
  7 18  1  6  0  0  0
  7  9  1  0  0  0  0
  8 10  2  0  0  0  0
 10 15  1  0  0  0  0
 11  8  1  0  0  0  0
 12 13  2  0  0  0  0
 13 23  1  0  0  0  0
 14  2  1  0  0  0  0
 15 21  1  0  0  0  0
 16  3  1  0  0  0  0
 16 11  1  0  0  0  0
 18 19  1  0  0  0  0
 20 18  1  0  0  0  0
 20 19  1  0  0  0  0
 21 22  1  0  0  0  0
 23 25  1  0  0  0  0
 23 27  1  6  0  0  0
 24 25  2  0  0  0  0
 25 26  1  0  0  0  0
 27 30  1  0  0  0  0
 30 28  1  6  0  0  0
 30 32  1  0  0  0  0
 30 29  1  0  0  0  0
 32 31  1  6  0  0  0
 32 29  1  0  0  0  0
M  END
>  <MODEL>
4

>  <REMARK>
 VINA RESULT:      -2.9      3.012      6.988
  Name = 
  6 active torsions:
  status: ('A' for Active; 'I' for Inactive)
    1  A    between atoms: C_9  and  C_12
    2  A    between atoms: C_13  and  N_29
    3  A    between atoms: C_15  and  C_20
    4  A    between atoms: C_16  and  C_20
    5  A    between atoms: C_16  and  C_22
    6  A    between atoms: C_16  and  C_27
                            x       y       z     vdW  Elec       q    Type
                         _______ _______ _______ _____ _____    ______ ____

>  <TORSDO>
F 6

$$$$
=
 OpenBabel10272402063D

 32 36  0  0  1  0  0  0  0  0999 V2000
  186.3130  175.9980  135.5380 N   0  0  0  0  0  0  0  0  0  0  0  0
  187.9950  175.2000  137.1350 C   0  0  0  0  0  0  0  0  0  0  0  0
  186.1620  176.9110  134.3920 C   0  0  0  0  0  2  0  0  0  0  0  0
  187.3660  176.2150  136.5060 C   0  0  0  0  0  0  0  0  0  0  0  0
  189.0980  175.4470  138.1390 C   0  0  1  0  0  3  0  0  0  0  0  0
  189.4630  173.4720  135.7180 C   0  0  1  0  0  3  0  0  0  0  0  0
  190.5240  174.4930  136.1970 C   0  0  2  0  0  3  0  0  0  0  0  0
  187.8250  177.6030  136.7080 C   0  0  0  0  0  0  0  0  0  0  0  0
  190.4190  174.7820  137.7050 C   0  0  0  0  0  2  0  0  0  0  0  0
  188.7290  177.9000  137.6350 C   0  0  0  0  0  3  0  0  0  0  0  0
  187.2880  178.6650  135.8120 C   0  0  0  0  0  2  0  0  0  0  0  0
  184.4090  174.7930  134.9100 O   0  0  0  0  0  0  0  0  0  0  0  0
  185.1840  175.1540  135.8390 C   0  0  0  0  0  0  0  0  0  0  0  0
  187.8360  173.5020  136.5790 S   0  0  0  0  0  0  0  0  0  0  0  0
  189.2960  176.8680  138.4500 N   0  0  0  0  0  0  0  0  0  0  0  0
  187.1500  178.0850  134.4090 C   0  0  0  0  0  2  0  0  0  0  0  0
  189.2850  173.5100  134.3460 F   0  0  0  0  0  0  0  0  0  0  0  0
  190.5260  175.7790  135.3730 C   0  0  0  0  0  3  0  0  0  0  0  0
  191.7790  176.5810  135.6680 C   0  0  0  0  0  2  0  0  0  0  0  0
  191.6910  175.7570  134.4020 C   0  0  0  0  0  2  0  0  0  0  0  0
  190.1590  177.2390  139.5600 C   0  0  0  0  0  2  0  0  0  0  0  0
  189.3270  177.5470  140.7920 C   0  0  0  0  0  1  0  0  0  0  0  0
  184.8570  174.8040  137.2660 C   0  0  2  0  0  3  0  0  0  0  0  0
  185.5030  172.7230  138.2370 O   0  0  0  0  0  0  0  0  0  0  0  0
  184.6960  173.3300  137.4870 C   0  0  0  0  0  0  0  0  0  0  0  0
  183.6490  172.6080  136.8440 N   0  0  0  0  0  1  0  0  0  0  0  0
  183.6400  175.5880  137.7390 C   0  0  0  0  0  2  0  0  0  0  0  0
  185.2830  177.3250  138.4970 F   0  0  0  0  0  0  0  0  0  0  0  0
  182.9230  177.8710  138.6620 C   0  0  0  0  0  2  0  0  0  0  0  0
  184.0130  177.0400  138.0280 C   0  0  2  0  0  0  0  0  0  0  0  0
  182.2880  177.6730  136.2700 C   0  0  0  0  0  1  0  0  0  0  0  0
  183.3610  178.1620  137.2300 C   0  0  1  0  0  3  0  0  0  0  0  0
  1 13  1  0  0  0  0
  1  4  1  0  0  0  0
  2  5  1  0  0  0  0
  3 16  1  0  0  0  0
  3  1  1  0  0  0  0
  4  8  1  0  0  0  0
  4  2  2  0  0  0  0
  5  9  1  6  0  0  0
  5 15  1  0  0  0  0
  6 17  1  6  0  0  0
  6  7  1  0  0  0  0
  6 14  1  0  0  0  0
  7 18  1  6  0  0  0
  7  9  1  0  0  0  0
  8 10  2  0  0  0  0
 10 15  1  0  0  0  0
 11  8  1  0  0  0  0
 12 13  2  0  0  0  0
 13 23  1  0  0  0  0
 14  2  1  0  0  0  0
 15 21  1  0  0  0  0
 16 11  1  0  0  0  0
 18 19  1  0  0  0  0
 20 18  1  0  0  0  0
 20 19  1  0  0  0  0
 21 22  1  0  0  0  0
 23 25  1  0  0  0  0
 23 27  1  6  0  0  0
 25 24  2  0  0  0  0
 26 25  1  0  0  0  0
 27 30  1  0  0  0  0
 30 28  1  1  0  0  0
 30 29  1  0  0  0  0
 32 31  1  6  0  0  0
 32 30  1  0  0  0  0
 32 29  1  0  0  0  0
M  END
>  <MODEL>
5

>  <REMARK>
 VINA RESULT:      -2.8      3.318      7.041
  Name = 
  6 active torsions:
  status: ('A' for Active; 'I' for Inactive)
    1  A    between atoms: C_9  and  C_12
    2  A    between atoms: C_13  and  N_29
    3  A    between atoms: C_15  and  C_20
    4  A    between atoms: C_16  and  C_20
    5  A    between atoms: C_16  and  C_22
    6  A    between atoms: C_16  and  C_27
                            x       y       z     vdW  Elec       q    Type
                         _______ _______ _______ _____ _____    ______ ____

>  <TORSDO>
F 6

$$$$
=
 OpenBabel10272402063D

 32 36  0  0  1  0  0  0  0  0999 V2000
  184.6910  178.5640  139.9250 N   0  0  0  0  0  0  0  0  0  0  0  0
  182.3370  177.9720  140.2800 C   0  0  0  0  0  0  0  0  0  0  0  0
  185.6850  178.7170  138.8490 C   0  0  0  0  0  2  0  0  0  0  0  0
  183.5430  177.7040  139.7360 C   0  0  0  0  0  0  0  0  0  0  0  0
  181.1460  177.0650  140.0640 C   0  0  1  0  0  3  0  0  0  0  0  0
  180.9990  180.1590  139.5190 C   0  0  1  0  0  3  0  0  0  0  0  0
  180.3980  179.0670  138.6000 C   0  0  2  0  0  3  0  0  0  0  0  0
  183.6970  176.5600  138.8170 C   0  0  0  0  0  0  0  0  0  0  0  0
  179.9820  177.8080  139.3810 C   0  0  0  0  0  2  0  0  0  0  0  0
  182.7200  175.6750  138.6500 C   0  0  0  0  0  3  0  0  0  0  0  0
  184.9610  176.4420  138.0370 C   0  0  0  0  0  2  0  0  0  0  0  0
  185.9460  179.9130  141.3640 O   0  0  0  0  0  0  0  0  0  0  0  0
  185.0990  178.9850  141.2410 C   0  0  0  0  0  0  0  0  0  0  0  0
  181.9540  179.5780  140.9810 S   0  0  0  0  0  0  0  0  0  0  0  0
  181.4800  175.8270  139.3480 N   0  0  0  0  0  0  0  0  0  0  0  0
  185.4010  177.8420  137.6210 C   0  0  0  0  0  2  0  0  0  0  0  0
  181.7270  181.0960  138.8070 F   0  0  0  0  0  0  0  0  0  0  0  0
  181.3000  178.7250  137.4150 C   0  0  0  0  0  3  0  0  0  0  0  0
  180.5600  177.8240  136.4450 C   0  0  0  0  0  2  0  0  0  0  0  0
  180.7040  179.2990  136.1440 C   0  0  0  0  0  2  0  0  0  0  0  0
  180.4910  174.7630  139.2710 C   0  0  0  0  0  2  0  0  0  0  0  0
  180.5050  174.1310  137.8920 C   0  0  0  0  0  1  0  0  0  0  0  0
  184.6160  178.2450  142.4590 C   0  0  2  0  0  3  0  0  0  0  0  0
  184.8610  180.2490  143.7300 O   0  0  0  0  0  0  0  0  0  0  0  0
  184.2550  179.1560  143.5950 C   0  0  0  0  0  0  0  0  0  0  0  0
  183.2440  178.7890  144.5290 N   0  0  0  0  0  1  0  0  0  0  0  0
  185.6290  177.1890  142.8750 C   0  0  0  0  0  2  0  0  0  0  0  0
  187.5020  178.7890  142.4040 F   0  0  0  0  0  0  0  0  0  0  0  0
  187.9810  176.9060  143.8580 C   0  0  0  0  0  2  0  0  0  0  0  0
  186.9610  177.8370  143.2480 C   0  0  2  0  0  0  0  0  0  0  0  0
  186.3430  177.3560  145.6680 C   0  0  0  0  0  1  0  0  0  0  0  0
  187.3410  177.9940  144.7150 C   0  0  1  0  0  3  0  0  0  0  0  0
  1 13  1  0  0  0  0
  2 14  1  0  0  0  0
  3  1  1  0  0  0  0
  4  1  1  0  0  0  0
  4  2  2  0  0  0  0
  5  9  1  6  0  0  0
  5  2  1  0  0  0  0
  6 17  1  6  0  0  0
  6 14  1  0  0  0  0
  7 18  1  6  0  0  0
  7  9  1  0  0  0  0
  7  6  1  0  0  0  0
  8  4  1  0  0  0  0
 10  8  2  0  0  0  0
 10 15  1  0  0  0  0
 11  8  1  0  0  0  0
 13 12  2  0  0  0  0
 13 23  1  0  0  0  0
 15  5  1  0  0  0  0
 16 11  1  0  0  0  0
 16  3  1  0  0  0  0
 19 18  1  0  0  0  0
 20 19  1  0  0  0  0
 20 18  1  0  0  0  0
 21 15  1  0  0  0  0
 22 21  1  0  0  0  0
 23 27  1  1  0  0  0
 23 25  1  0  0  0  0
 25 24  2  0  0  0  0
 25 26  1  0  0  0  0
 27 30  1  0  0  0  0
 29 32  1  0  0  0  0
 30 28  1  6  0  0  0
 30 29  1  0  0  0  0
 30 32  1  0  0  0  0
 32 31  1  1  0  0  0
M  END
>  <MODEL>
6

>  <REMARK>
 VINA RESULT:      -2.5      3.894      5.843
  Name = 
  6 active torsions:
  status: ('A' for Active; 'I' for Inactive)
    1  A    between atoms: C_9  and  C_12
    2  A    between atoms: C_13  and  N_29
    3  A    between atoms: C_15  and  C_20
    4  A    between atoms: C_16  and  C_20
    5  A    between atoms: C_16  and  C_22
    6  A    between atoms: C_16  and  C_27
                            x       y       z     vdW  Elec       q    Type
                         _______ _______ _______ _____ _____    ______ ____

>  <TORSDO>
F 6

$$$$
=
 OpenBabel10272402063D

 32 36  0  0  1  0  0  0  0  0999 V2000
  181.6710  177.7380  136.9890 N   0  0  0  0  0  0  0  0  0  0  0  0
  182.8420  175.7800  137.8910 C   0  0  0  0  0  0  0  0  0  0  0  0
  181.2930  178.3580  135.7070 C   0  0  0  0  0  2  0  0  0  0  0  0
  182.8030  176.8390  137.0540 C   0  0  0  0  0  0  0  0  0  0  0  0
  184.0310  174.8470  137.9390 C   0  0  1  0  0  3  0  0  0  0  0  0
  181.0940  173.7810  137.5770 C   0  0  1  0  0  3  0  0  0  0  0  0
  182.3260  173.2700  136.7910 C   0  0  2  0  0  3  0  0  0  0  0  0
  183.8910  177.0460  136.0780 C   0  0  0  0  0  0  0  0  0  0  0  0
  183.6310  173.3990  137.5980 C   0  0  0  0  0  2  0  0  0  0  0  0
  185.0010  176.3180  136.1220 C   0  0  0  0  0  3  0  0  0  0  0  0
  183.6970  178.0610  135.0060 C   0  0  0  0  0  2  0  0  0  0  0  0
  180.0090  178.9250  138.1270 O   0  0  0  0  0  0  0  0  0  0  0  0
  181.1270  178.3410  138.1790 C   0  0  0  0  0  0  0  0  0  0  0  0
  181.3740  175.1870  138.7320 S   0  0  0  0  0  0  0  0  0  0  0  0
  185.1580  175.2960  137.1110 N   0  0  0  0  0  0  0  0  0  0  0  0
  182.2410  178.0090  134.5530 C   0  0  0  0  0  2  0  0  0  0  0  0
  180.0180  174.0430  136.7470 F   0  0  0  0  0  0  0  0  0  0  0  0
  182.4530  173.9030  135.4060 C   0  0  0  0  0  3  0  0  0  0  0  0
  183.5370  173.2000  134.6130 C   0  0  0  0  0  2  0  0  0  0  0  0
  182.0820  172.8820  134.3480 C   0  0  0  0  0  2  0  0  0  0  0  0
  186.4430  174.6260  137.2380 C   0  0  0  0  0  2  0  0  0  0  0  0
  187.4830  175.3200  136.3790 C   0  0  0  0  0  1  0  0  0  0  0  0
  181.9370  178.3830  139.4470 C   0  0  2  0  0  3  0  0  0  0  0  0
  180.9070  179.5300  141.2670 O   0  0  0  0  0  0  0  0  0  0  0  0
  181.0900  178.4320  140.6830 C   0  0  0  0  0  0  0  0  0  0  0  0
  180.5030  177.2450  141.2100 N   0  0  0  0  0  1  0  0  0  0  0  0
  182.9400  179.5270  139.3970 C   0  0  0  0  0  2  0  0  0  0  0  0
  185.1660  179.1230  138.3140 F   0  0  0  0  0  0  0  0  0  0  0  0
  184.5460  177.6800  140.1650 C   0  0  0  0  0  2  0  0  0  0  0  0
  184.3700  178.9920  139.4370 C   0  0  2  0  0  0  0  0  0  0  0  0
  184.2870  179.3880  141.9480 C   0  0  0  0  0  1  0  0  0  0  0  0
  185.1290  178.9590  140.7570 C   0  0  1  0  0  3  0  0  0  0  0  0
  1  4  1  0  0  0  0
  1 13  1  0  0  0  0
  2  5  1  0  0  0  0
  2 14  1  0  0  0  0
  3  1  1  0  0  0  0
  4  2  2  0  0  0  0
  5  9  1  6  0  0  0
  6 17  1  6  0  0  0
  6 14  1  0  0  0  0
  7 18  1  6  0  0  0
  7  6  1  0  0  0  0
  7  9  1  0  0  0  0
  8 10  2  0  0  0  0
  8  4  1  0  0  0  0
 10 15  1  0  0  0  0
 11  8  1  0  0  0  0
 12 13  2  0  0  0  0
 13 23  1  0  0  0  0
 15 21  1  0  0  0  0
 15  5  1  0  0  0  0
 16 11  1  0  0  0  0
 16  3  1  0  0  0  0
 19 18  1  0  0  0  0
 20 19  1  0  0  0  0
 20 18  1  0  0  0  0
 22 21  1  0  0  0  0
 23 27  1  6  0  0  0
 23 25  1  0  0  0  0
 25 26  1  0  0  0  0
 25 24  2  0  0  0  0
 27 30  1  0  0  0  0
 29 32  1  0  0  0  0
 30 28  1  6  0  0  0
 30 29  1  0  0  0  0
 30 32  1  0  0  0  0
 32 31  1  1  0  0  0
M  END
>  <MODEL>
7

>  <REMARK>
 VINA RESULT:      -2.4      2.768      6.151
  Name = 
  6 active torsions:
  status: ('A' for Active; 'I' for Inactive)
    1  A    between atoms: C_9  and  C_12
    2  A    between atoms: C_13  and  N_29
    3  A    between atoms: C_15  and  C_20
    4  A    between atoms: C_16  and  C_20
    5  A    between atoms: C_16  and  C_22
    6  A    between atoms: C_16  and  C_27
                            x       y       z     vdW  Elec       q    Type
                         _______ _______ _______ _____ _____    ______ ____

>  <TORSDO>
F 6

$$$$
=
 OpenBabel10272402063D

 32 36  0  0  1  0  0  0  0  0999 V2000
  192.8700  175.5710  135.4940 N   0  0  0  0  0  0  0  0  0  0  0  0
  193.7060  173.9510  137.1360 C   0  0  0  0  0  0  0  0  0  0  0  0
  193.3210  176.3780  134.3480 C   0  0  0  0  0  2  0  0  0  0  0  0
  193.8220  175.1320  136.4920 C   0  0  0  0  0  0  0  0  0  0  0  0
  194.7160  173.5050  138.1700 C   0  0  1  0  0  3  0  0  0  0  0  0
  193.8870  171.6680  135.7550 C   0  0  1  0  0  3  0  0  0  0  0  0
  195.3360  171.8620  136.2660 C   0  0  2  0  0  3  0  0  0  0  0  0
  195.0140  175.9740  136.7100 C   0  0  0  0  0  0  0  0  0  0  0  0
  195.3890  172.1780  137.7710 C   0  0  0  0  0  2  0  0  0  0  0  0
  195.8940  175.6870  137.6620 C   0  0  0  0  0  3  0  0  0  0  0  0
  195.2370  177.1340  135.8020 C   0  0  0  0  0  2  0  0  0  0  0  0
  190.6390  175.7300  134.8120 O   0  0  0  0  0  0  0  0  0  0  0  0
  191.4550  175.5720  135.7630 C   0  0  0  0  0  0  0  0  0  0  0  0
  192.5800  172.6750  136.5710 S   0  0  0  0  0  0  0  0  0  0  0  0
  195.7140  174.5330  138.4890 N   0  0  0  0  0  0  0  0  0  0  0  0
  194.8140  176.7310  134.3940 C   0  0  0  0  0  2  0  0  0  0  0  0
  193.7990  171.7850  134.3790 F   0  0  0  0  0  0  0  0  0  0  0  0
  196.1240  172.8810  135.4450 C   0  0  0  0  0  3  0  0  0  0  0  0
  197.5710  172.9030  135.8980 C   0  0  0  0  0  2  0  0  0  0  0  0
  197.1870  172.1650  134.6340 C   0  0  0  0  0  2  0  0  0  0  0  0
  196.6020  174.3320  139.6240 C   0  0  0  0  0  2  0  0  0  0  0  0
  197.9460  174.9850  139.3620 C   0  0  0  0  0  1  0  0  0  0  0  0
  190.9500  175.5070  137.1790 C   0  0  2  0  0  3  0  0  0  0  0  0
  189.6820  173.5110  137.4960 O   0  0  0  0  0  0  0  0  0  0  0  0
  189.6600  174.7540  137.3090 C   0  0  0  0  0  0  0  0  0  0  0  0
  188.4090  175.4300  137.2060 N   0  0  0  0  0  1  0  0  0  0  0  0
  190.8570  176.9040  137.7740 C   0  0  0  0  0  2  0  0  0  0  0  0
  192.8140  176.8670  139.3420 F   0  0  0  0  0  0  0  0  0  0  0  0
  190.6680  176.1440  140.2160 C   0  0  0  0  0  2  0  0  0  0  0  0
  191.4410  176.9300  139.1850 C   0  0  2  0  0  0  0  0  0  0  0  0
  189.3570  178.2220  139.8600 C   0  0  0  0  0  1  0  0  0  0  0  0
  190.7040  177.6660  140.2960 C   0  0  1  0  0  3  0  0  0  0  0  0
  1 13  1  0  0  0  0
  1  4  1  0  0  0  0
  2  5  1  0  0  0  0
  3 16  1  0  0  0  0
  3  1  1  0  0  0  0
  4  8  1  0  0  0  0
  4  2  2  0  0  0  0
  5  9  1  6  0  0  0
  5 15  1  0  0  0  0
  6 17  1  6  0  0  0
  6  7  1  0  0  0  0
  6 14  1  0  0  0  0
  7 18  1  6  0  0  0
  7  9  1  0  0  0  0
  8 10  2  0  0  0  0
 10 15  1  0  0  0  0
 11  8  1  0  0  0  0
 12 13  2  0  0  0  0
 13 23  1  0  0  0  0
 14  2  1  0  0  0  0
 15 21  1  0  0  0  0
 16 11  1  0  0  0  0
 18 19  1  0  0  0  0
 20 18  1  0  0  0  0
 20 19  1  0  0  0  0
 22 21  1  0  0  0  0
 23 25  1  0  0  0  0
 23 27  1  6  0  0  0
 25 24  2  0  0  0  0
 26 25  1  0  0  0  0
 27 30  1  0  0  0  0
 29 32  1  0  0  0  0
 30 28  1  1  0  0  0
 30 29  1  0  0  0  0
 30 32  1  0  0  0  0
 32 31  1  6  0  0  0
M  END
>  <MODEL>
8

>  <REMARK>
 VINA RESULT:      -2.0      7.657     12.100
  Name = 
  6 active torsions:
  status: ('A' for Active; 'I' for Inactive)
    1  A    between atoms: C_9  and  C_12
    2  A    between atoms: C_13  and  N_29
    3  A    between atoms: C_15  and  C_20
    4  A    between atoms: C_16  and  C_20
    5  A    between atoms: C_16  and  C_22
    6  A    between atoms: C_16  and  C_27
                            x       y       z     vdW  Elec       q    Type
                         _______ _______ _______ _____ _____    ______ ____

>  <TORSDO>
F 6

$$$$
=
 OpenBabel10272402063D

 32 36  0  0  1  0  0  0  0  0999 V2000
  194.7750  175.0680  137.6110 N   0  0  0  0  0  0  0  0  0  0  0  0
  195.6360  173.8770  135.6470 C   0  0  0  0  0  0  0  0  0  0  0  0
  195.1300  175.3910  139.0040 C   0  0  0  0  0  2  0  0  0  0  0  0
  195.3480  173.9070  136.9660 C   0  0  0  0  0  0  0  0  0  0  0  0
  196.2420  172.6560  134.9920 C   0  0  1  0  0  3  0  0  0  0  0  0
  197.5030  175.5190  134.6630 C   0  0  1  0  0  3  0  0  0  0  0  0
  198.3060  174.2200  134.9200 C   0  0  2  0  0  3  0  0  0  0  0  0
  195.7260  172.7700  137.8270 C   0  0  0  0  0  0  0  0  0  0  0  0
  197.6060  172.9750  134.3480 C   0  0  0  0  0  2  0  0  0  0  0  0
  196.1820  171.6360  137.3080 C   0  0  0  0  0  3  0  0  0  0  0  0
  195.6310  172.9380  139.3040 C   0  0  0  0  0  2  0  0  0  0  0  0
  193.2570  176.8450  137.5190 O   0  0  0  0  0  0  0  0  0  0  0  0
  193.5970  175.7090  137.0840 C   0  0  0  0  0  0  0  0  0  0  0  0
  195.6680  175.3700  134.6540 S   0  0  0  0  0  0  0  0  0  0  0  0
  196.3380  171.5000  135.8920 N   0  0  0  0  0  0  0  0  0  0  0  0
  196.0600  174.3590  139.6550 C   0  0  0  0  0  2  0  0  0  0  0  0
  197.9000  176.5510  135.4960 F   0  0  0  0  0  0  0  0  0  0  0  0
  198.6810  174.0340  136.3900 C   0  0  0  0  0  3  0  0  0  0  0  0
  199.6510  172.8770  136.5330 C   0  0  0  0  0  2  0  0  0  0  0  0
  200.1630  174.3000  136.5710 C   0  0  0  0  0  2  0  0  0  0  0  0
  196.6840  170.1990  135.3410 C   0  0  0  0  0  2  0  0  0  0  0  0
  197.9440  169.6680  136.0000 C   0  0  0  0  0  1  0  0  0  0  0  0
  192.7070  174.9820  136.1120 C   0  0  2  0  0  3  0  0  0  0  0  0
  191.9120  176.4420  134.4000 O   0  0  0  0  0  0  0  0  0  0  0  0
  191.6680  175.8680  135.4920 C   0  0  0  0  0  0  0  0  0  0  0  0
  190.4130  176.0780  136.1350 N   0  0  0  0  0  1  0  0  0  0  0  0
  192.0910  173.7560  136.7710 C   0  0  0  0  0  2  0  0  0  0  0  0
  193.1410  171.5540  136.1880 F   0  0  0  0  0  0  0  0  0  0  0  0
  192.1230  172.8190  134.3840 C   0  0  0  0  0  2  0  0  0  0  0  0
  192.2210  172.5350  135.8640 C   0  0  2  0  0  0  0  0  0  0  0  0
  189.7910  172.9370  135.2290 C   0  0  0  0  0  1  0  0  0  0  0  0
  191.0110  172.0410  135.0810 C   0  0  1  0  0  3  0  0  0  0  0  0
  1  3  1  0  0  0  0
  2  4  2  0  0  0  0
  3 16  1  0  0  0  0
  4  1  1  0  0  0  0
  4  8  1  0  0  0  0
  5  9  1  1  0  0  0
  5  2  1  0  0  0  0
  5 15  1  0  0  0  0
  6  7  1  0  0  0  0
  6 17  1  1  0  0  0
  7 18  1  1  0  0  0
  8 11  1  0  0  0  0
  9  7  1  0  0  0  0
 10  8  2  0  0  0  0
 11 16  1  0  0  0  0
 13 12  2  0  0  0  0
 13  1  1  0  0  0  0
 14  6  1  0  0  0  0
 14  2  1  0  0  0  0
 15 10  1  0  0  0  0
 18 19  1  0  0  0  0
 18 20  1  0  0  0  0
 19 20  1  0  0  0  0
 21 15  1  0  0  0  0
 21 22  1  0  0  0  0
 23 27  1  1  0  0  0
 23 13  1  0  0  0  0
 24 25  2  0  0  0  0
 25 23  1  0  0  0  0
 25 26  1  0  0  0  0
 29 32  1  0  0  0  0
 29 30  1  0  0  0  0
 30 28  1  1  0  0  0
 30 27  1  0  0  0  0
 32 31  1  1  0  0  0
 32 30  1  0  0  0  0
M  END
>  <MODEL>
9

>  <REMARK>
 VINA RESULT:      -1.7      9.229     13.460
  Name = 
  6 active torsions:
  status: ('A' for Active; 'I' for Inactive)
    1  A    between atoms: C_9  and  C_12
    2  A    between atoms: C_13  and  N_29
    3  A    between atoms: C_15  and  C_20
    4  A    between atoms: C_16  and  C_20
    5  A    between atoms: C_16  and  C_22
    6  A    between atoms: C_16  and  C_27
                            x       y       z     vdW  Elec       q    Type
                         _______ _______ _______ _____ _____    ______ ____

>  <TORSDO>
F 6

$$$$
