=
 OpenBabel10272415043D

 37 42  0  0  1  0  0  0  0  0999 V2000
  192.0780  178.9860  144.2400 F   0  0  0  0  0  0  0  0  0  0  0  0
  189.7090  176.4140  140.7150 C   0  0  2  0  0  3  0  0  0  0  0  0
  187.3860  178.1350  138.5870 O   0  0  0  0  0  1  0  0  0  0  0  0
  190.8810  177.7950  142.3880 C   0  0  2  0  0  3  0  0  0  0  0  0
  188.8670  177.5200  140.2870 N   0  0  1  0  0  0  0  0  0  0  0  0
  189.9250  176.6230  142.1870 C   0  0  1  0  0  3  0  0  0  0  0  0
  188.3140  177.1680  138.9800 C   0  0  2  0  0  3  0  0  0  0  0  0
  192.1690  177.5690  141.6060 C   0  0  0  0  0  2  0  0  0  0  0  0
  188.5370  177.0450  142.6310 C   0  0  1  0  0  3  0  0  0  0  0  0
  189.7950  178.3010  144.6500 C   0  0  2  0  0  3  0  0  0  0  0  0
  193.1470  177.3000  139.5130 C   0  0  0  0  0  1  0  0  0  0  0  0
  191.8680  177.5220  140.1710 N   0  0  0  0  0  0  0  0  0  0  0  0
  188.4790  177.9420  143.8990 C   0  0  2  0  0  3  0  0  0  0  0  0
  191.0070  176.3560  139.9030 C   0  0  2  0  0  3  0  0  0  0  0  0
  187.8620  177.6050  141.3520 C   0  0  1  0  0  3  0  0  0  0  0  0
  191.0880  178.0950  143.8690 C   0  0  2  0  0  0  0  0  0  0  0  0
  189.4800  177.1250  137.9560 C   0  0  1  0  0  3  0  0  0  0  0  0
  190.6720  177.0810  144.9220 C   0  0  0  0  0  2  0  0  0  0  0  0
  190.6370  176.2140  138.4140 C   0  0  0  0  0  2  0  0  0  0  0  0
  189.0840  176.7600  136.5850 N   0  0  0  0  0  0  0  0  0  0  0  0
  190.0040  177.2510  135.5420 C   0  0  0  0  0  2  0  0  0  0  0  0
  190.6070  176.1470  134.6770 C   0  0  0  0  0  1  0  0  0  0  0  0
  188.8020  175.3310  136.4740 C   0  0  0  0  0  2  0  0  0  0  0  0
  186.5200  174.6330  137.1910 O   0  0  0  0  0  1  0  0  0  0  0  0
  186.8960  175.3440  135.0450 O   0  0  0  0  0  0  0  0  0  0  0  0
  187.3550  175.1180  136.1940 C   0  0  0  0  0  0  0  0  0  0  0  0
  187.4240  177.4150  144.8610 C   0  0  0  0  0  2  0  0  0  0  0  0
  187.3450  178.2630  146.0420 N   0  0  0  0  0  0  0  0  0  0  0  0
  187.3910  177.3850  147.2060 C   0  0  0  0  0  1  0  0  0  0  0  0
  186.0740  178.9970  145.9980 C   0  0  2  0  0  3  0  0  0  0  0  0
  184.2250  179.3150  144.7970 C   0  0  0  0  0  2  0  0  0  0  0  0
  185.0010  178.2810  146.7890 C   0  0  0  0  0  2  0  0  0  0  0  0
  185.6160  179.1930  144.6810 O   0  0  0  0  0  0  0  0  0  0  0  0
  183.7630  178.4780  145.9690 C   0  0  0  0  0  2  0  0  0  0  0  0
  187.3900  179.0510  141.5040 C   0  0  0  0  0  2  0  0  0  0  0  0
  185.3570  179.5730  140.3650 O   0  0  0  0  0  1  0  0  0  0  0  0
  185.8750  179.1140  141.5760 C   0  0  0  0  0  2  0  0  0  0  0  0
  2  6  1  0  0  0  0
  3  7  1  0  0  0  0
  4 16  1  0  0  0  0
  5  2  1  0  0  0  0
  5 15  1  0  0  0  0
  6  4  1  0  0  0  0
  6  9  1  0  0  0  0
  7  5  1  0  0  0  0
  8  4  1  0  0  0  0
  9 13  1  0  0  0  0
 10 18  1  0  0  0  0
 11 12  1  0  0  0  0
 12  8  1  0  0  0  0
 13 10  1  0  0  0  0
 13 27  1  0  0  0  0
 14 12  1  0  0  0  0
 14  2  1  0  0  0  0
 15 35  1  0  0  0  0
 15  9  1  0  0  0  0
 16  1  1  0  0  0  0
 16 10  1  0  0  0  0
 16 18  1  0  0  0  0
 17 19  1  0  0  0  0
 17  7  1  0  0  0  0
 19 14  1  0  0  0  0
 20 17  1  0  0  0  0
 21 20  1  0  0  0  0
 22 21  1  0  0  0  0
 23 20  1  0  0  0  0
 25 26  2  0  0  0  0
 26 23  1  0  0  0  0
 26 24  1  0  0  0  0
 27 28  1  0  0  0  0
 28 29  1  0  0  0  0
 30 28  1  0  0  0  0
 30 32  1  0  0  0  0
 31 34  1  0  0  0  0
 33 31  1  0  0  0  0
 33 30  1  0  0  0  0
 34 32  1  0  0  0  0
 35 37  1  0  0  0  0
 36 37  1  0  0  0  0
M  END
>  <MODEL>
1

>  <REMARK>
 VINA RESULT:      -7.4      0.000      0.000
  Name = 
  9 active torsions:
  status: ('A' for Active; 'I' for Inactive)
    1  A    between atoms: N_1  and  C_5
    2  A    between atoms: N_1  and  C_23
    3  A    between atoms: C_2  and  N_6
    4  A    between atoms: N_6  and  C_8
    5  A    between atoms: N_6  and  C_31
    6  A    between atoms: C_8  and  C_19
    7  A    between atoms: C_23  and  C_25
    8  A    between atoms: C_29  and  C_33
    9  A    between atoms: C_33  and  C_36
                            x       y       z     vdW  Elec       q    Type
                         _______ _______ _______ _____ _____    ______ ____

>  <TORSDO>
F 9

$$$$
=
 OpenBabel10272415043D

 37 42  0  0  1  0  0  0  0  0999 V2000
  183.7960  177.7280  141.7580 F   0  0  0  0  0  0  0  0  0  0  0  0
  188.4430  178.6050  140.2460 C   0  0  2  0  0  3  0  0  0  0  0  0
  190.7990  175.8970  140.2420 O   0  0  0  0  0  1  0  0  0  0  0  0
  186.1470  178.0490  140.9500 C   0  0  2  0  0  3  0  0  0  0  0  0
  188.9380  177.2760  140.5610 N   0  0  1  0  0  0  0  0  0  0  0  0
  187.3800  178.8890  141.2700 C   0  0  1  0  0  3  0  0  0  0  0  0
  190.2110  177.1050  139.8610 C   0  0  2  0  0  3  0  0  0  0  0  0
  185.6950  178.2930  139.5160 C   0  0  0  0  0  2  0  0  0  0  0  0
  188.0300  178.3420  142.5270 C   0  0  1  0  0  3  0  0  0  0  0  0
  185.5170  178.0220  143.4310 C   0  0  2  0  0  3  0  0  0  0  0  0
  186.2300  178.1270  137.2580 C   0  0  0  0  0  1  0  0  0  0  0  0
  186.7460  177.8530  138.5910 N   0  0  0  0  0  0  0  0  0  0  0  0
  187.0520  177.8680  143.6370 C   0  0  2  0  0  3  0  0  0  0  0  0
  187.9440  178.6850  138.7990 C   0  0  2  0  0  3  0  0  0  0  0  0
  189.0660  177.3050  142.0220 C   0  0  1  0  0  3  0  0  0  0  0  0
  185.0540  178.2480  141.9960 C   0  0  2  0  0  0  0  0  0  0  0  0
  189.9250  177.0820  138.3350 C   0  0  1  0  0  3  0  0  0  0  0  0
  185.1220  179.4210  142.9620 C   0  0  0  0  0  2  0  0  0  0  0  0
  189.1090  178.3030  137.8660 C   0  0  0  0  0  2  0  0  0  0  0  0
  191.1200  176.9370  137.4860 N   0  0  0  0  0  0  0  0  0  0  0  0
  192.3520  176.6170  138.2310 C   0  0  0  0  0  2  0  0  0  0  0  0
  193.4960  176.1170  137.3520 C   0  0  0  0  0  1  0  0  0  0  0  0
  190.8730  176.0270  136.3690 C   0  0  0  0  0  2  0  0  0  0  0  0
  190.5550  173.8770  137.5880 O   0  0  0  0  0  1  0  0  0  0  0  0
  188.8080  174.8430  136.4620 O   0  0  0  0  0  0  0  0  0  0  0  0
  190.0150  174.8950  136.8160 C   0  0  0  0  0  0  0  0  0  0  0  0
  187.4850  178.4280  144.9850 C   0  0  0  0  0  2  0  0  0  0  0  0
  186.7730  177.7580  146.0650 N   0  0  0  0  0  0  0  0  0  0  0  0
  185.9070  178.7520  146.6900 C   0  0  0  0  0  1  0  0  0  0  0  0
  187.7620  177.2550  147.0270 C   0  0  2  0  0  3  0  0  0  0  0  0
  189.9400  177.1790  147.4890 C   0  0  0  0  0  2  0  0  0  0  0  0
  187.9160  178.2000  148.1980 C   0  0  0  0  0  2  0  0  0  0  0  0
  189.0230  177.0490  146.4360 O   0  0  0  0  0  0  0  0  0  0  0  0
  189.3850  178.1640  148.4930 C   0  0  0  0  0  2  0  0  0  0  0  0
  188.8390  175.9040  142.5890 C   0  0  0  0  0  2  0  0  0  0  0  0
  190.9140  176.4860  143.6200 O   0  0  0  0  0  1  0  0  0  0  0  0
  190.0840  175.4100  143.3060 C   0  0  0  0  0  2  0  0  0  0  0  0
  1 16  1  0  0  0  0
  2  5  1  0  0  0  0
  2  6  1  0  0  0  0
  4  6  1  0  0  0  0
  4 16  1  0  0  0  0
  5 15  1  0  0  0  0
  6  9  1  0  0  0  0
  7  3  1  0  0  0  0
  7  5  1  0  0  0  0
  8  4  1  0  0  0  0
  9 13  1  0  0  0  0
 10 13  1  0  0  0  0
 11 12  1  0  0  0  0
 12 14  1  0  0  0  0
 12  8  1  0  0  0  0
 13 27  1  0  0  0  0
 14  2  1  0  0  0  0
 15  9  1  0  0  0  0
 15 35  1  0  0  0  0
 16 18  1  0  0  0  0
 16 10  1  0  0  0  0
 17  7  1  0  0  0  0
 18 10  1  0  0  0  0
 19 17  1  0  0  0  0
 19 14  1  0  0  0  0
 20 21  1  0  0  0  0
 20 17  1  0  0  0  0
 22 21  1  0  0  0  0
 23 26  1  0  0  0  0
 23 20  1  0  0  0  0
 25 26  2  0  0  0  0
 26 24  1  0  0  0  0
 27 28  1  0  0  0  0
 28 29  1  0  0  0  0
 28 30  1  0  0  0  0
 30 32  1  0  0  0  0
 31 34  1  0  0  0  0
 32 34  1  0  0  0  0
 33 30  1  0  0  0  0
 33 31  1  0  0  0  0
 35 37  1  0  0  0  0
 37 36  1  0  0  0  0
M  END
>  <MODEL>
2

>  <REMARK>
 VINA RESULT:      -6.7      2.642      4.335
  Name = 
  9 active torsions:
  status: ('A' for Active; 'I' for Inactive)
    1  A    between atoms: N_1  and  C_5
    2  A    between atoms: N_1  and  C_23
    3  A    between atoms: C_2  and  N_6
    4  A    between atoms: N_6  and  C_8
    5  A    between atoms: N_6  and  C_31
    6  A    between atoms: C_8  and  C_19
    7  A    between atoms: C_23  and  C_25
    8  A    between atoms: C_29  and  C_33
    9  A    between atoms: C_33  and  C_36
                            x       y       z     vdW  Elec       q    Type
                         _______ _______ _______ _____ _____    ______ ____

>  <TORSDO>
F 9

$$$$
=
 OpenBabel10272415043D

 37 42  0  0  1  0  0  0  0  0999 V2000
  186.2180  179.5610  146.9870 F   0  0  0  0  0  0  0  0  0  0  0  0
  187.7920  176.9790  143.0490 C   0  0  2  0  0  3  0  0  0  0  0  0
  188.2440  178.6920  139.9270 O   0  0  0  0  0  1  0  0  0  0  0  0
  187.0730  178.3640  144.9570 C   0  0  2  0  0  3  0  0  0  0  0  0
  187.6730  178.0820  142.1100 N   0  0  1  0  0  0  0  0  0  0  0  0
  186.6980  177.1910  144.0560 C   0  0  1  0  0  3  0  0  0  0  0  0
  188.4410  177.7270  140.9180 C   0  0  2  0  0  3  0  0  0  0  0  0
  188.4440  178.1370  145.5810 C   0  0  0  0  0  2  0  0  0  0  0  0
  185.5500  177.6120  143.1580 C   0  0  1  0  0  3  0  0  0  0  0  0
  184.5930  178.8750  145.3330 C   0  0  2  0  0  3  0  0  0  0  0  0
  190.7240  177.8640  145.2110 C   0  0  0  0  0  1  0  0  0  0  0  0
  189.4600  178.0860  144.5240 N   0  0  0  0  0  0  0  0  0  0  0  0
  184.4710  178.5120  143.8240 C   0  0  2  0  0  3  0  0  0  0  0  0
  189.1950  176.9200  143.6640 C   0  0  2  0  0  3  0  0  0  0  0  0
  186.2270  178.1690  141.8790 C   0  0  1  0  0  3  0  0  0  0  0  0
  185.9660  178.6680  145.9620 C   0  0  2  0  0  0  0  0  0  0  0  0
  189.9440  177.6820  141.3040 C   0  0  1  0  0  3  0  0  0  0  0  0
  184.8600  177.6550  146.2130 C   0  0  0  0  0  2  0  0  0  0  0  0
  190.2160  176.7740  142.5200 C   0  0  0  0  0  2  0  0  0  0  0  0
  190.8530  177.3140  140.2050 N   0  0  0  0  0  0  0  0  0  0  0  0
  192.2810  177.3350  140.5730 C   0  0  0  0  0  2  0  0  0  0  0  0
  193.2270  177.0870  139.4010 C   0  0  0  0  0  1  0  0  0  0  0  0
  190.4430  176.0640  139.5710 C   0  0  0  0  0  2  0  0  0  0  0  0
  190.1710  177.5890  137.6200 O   0  0  0  0  0  1  0  0  0  0  0  0
  189.6040  175.3750  137.4500 O   0  0  0  0  0  0  0  0  0  0  0  0
  190.0610  176.3130  138.1540 C   0  0  0  0  0  0  0  0  0  0  0  0
  183.0810  177.9860  143.4940 C   0  0  0  0  0  2  0  0  0  0  0  0
  182.1720  179.0910  143.2230 N   0  0  0  0  0  0  0  0  0  0  0  0
  181.0440  178.9550  144.1370 C   0  0  0  0  0  1  0  0  0  0  0  0
  181.7240  178.9870  141.8280 C   0  0  2  0  0  3  0  0  0  0  0  0
  181.3720  177.5560  140.1580 C   0  0  0  0  0  2  0  0  0  0  0  0
  180.2160  178.8940  141.7440 C   0  0  0  0  0  2  0  0  0  0  0  0
  182.2880  177.8780  141.1680 O   0  0  0  0  0  0  0  0  0  0  0  0
  179.9820  177.9150  140.6340 C   0  0  0  0  0  2  0  0  0  0  0  0
  185.8380  179.6150  141.5730 C   0  0  0  0  0  2  0  0  0  0  0  0
  185.2330  178.8140  139.4050 O   0  0  0  0  0  1  0  0  0  0  0  0
  184.8350  179.6670  140.4340 C   0  0  0  0  0  2  0  0  0  0  0  0
  2 14  1  0  0  0  0
  2  6  1  0  0  0  0
  3  7  1  0  0  0  0
  4  8  1  0  0  0  0
  4 16  1  0  0  0  0
  5  2  1  0  0  0  0
  6  4  1  0  0  0  0
  7 17  1  0  0  0  0
  7  5  1  0  0  0  0
  9 13  1  0  0  0  0
  9  6  1  0  0  0  0
 10 16  1  0  0  0  0
 10 18  1  0  0  0  0
 12 11  1  0  0  0  0
 12  8  1  0  0  0  0
 13 10  1  0  0  0  0
 14 12  1  0  0  0  0
 15  5  1  0  0  0  0
 15  9  1  0  0  0  0
 16 18  1  0  0  0  0
 16  1  1  0  0  0  0
 17 19  1  0  0  0  0
 19 14  1  0  0  0  0
 20 21  1  0  0  0  0
 20 17  1  0  0  0  0
 22 21  1  0  0  0  0
 23 20  1  0  0  0  0
 24 26  1  0  0  0  0
 25 26  2  0  0  0  0
 26 23  1  0  0  0  0
 27 13  1  0  0  0  0
 28 27  1  0  0  0  0
 28 29  1  0  0  0  0
 30 28  1  0  0  0  0
 31 34  1  0  0  0  0
 31 33  1  0  0  0  0
 32 30  1  0  0  0  0
 33 30  1  0  0  0  0
 34 32  1  0  0  0  0
 35 15  1  0  0  0  0
 36 37  1  0  0  0  0
 37 35  1  0  0  0  0
M  END
>  <MODEL>
3

>  <REMARK>
 VINA RESULT:      -6.2      2.697      4.659
  Name = 
  9 active torsions:
  status: ('A' for Active; 'I' for Inactive)
    1  A    between atoms: N_1  and  C_5
    2  A    between atoms: N_1  and  C_23
    3  A    between atoms: C_2  and  N_6
    4  A    between atoms: N_6  and  C_8
    5  A    between atoms: N_6  and  C_31
    6  A    between atoms: C_8  and  C_19
    7  A    between atoms: C_23  and  C_25
    8  A    between atoms: C_29  and  C_33
    9  A    between atoms: C_33  and  C_36
                            x       y       z     vdW  Elec       q    Type
                         _______ _______ _______ _____ _____    ______ ____

>  <TORSDO>
F 9

$$$$
=
 OpenBabel10272415043D

 37 42  0  0  1  0  0  0  0  0999 V2000
  188.0540  179.3040  136.9510 F   0  0  0  0  0  0  0  0  0  0  0  0
  189.1940  176.5670  140.9340 C   0  0  2  0  0  3  0  0  0  0  0  0
  192.1230  177.4110  142.8300 O   0  0  0  0  0  1  0  0  0  0  0  0
  188.6800  178.0290  139.0160 C   0  0  2  0  0  3  0  0  0  0  0  0
  190.4530  177.2420  141.2030 N   0  0  1  0  0  0  0  0  0  0  0  0
  189.0310  176.6060  139.4410 C   0  0  1  0  0  3  0  0  0  0  0  0
  190.8480  176.9020  142.5690 C   0  0  2  0  0  3  0  0  0  0  0  0
  187.4580  178.5240  139.7780 C   0  0  0  0  0  2  0  0  0  0  0  0
  190.4430  176.2930  138.9840 C   0  0  1  0  0  3  0  0  0  0  0  0
  189.7830  177.6260  136.7420 C   0  0  2  0  0  3  0  0  0  0  0  0
  186.5490  179.0610  141.8510 C   0  0  0  0  0  1  0  0  0  0  0  0
  187.7670  178.5850  141.2110 N   0  0  0  0  0  0  0  0  0  0  0  0
  190.8360  176.8520  137.5870 C   0  0  2  0  0  3  0  0  0  0  0  0
  188.0370  177.2210  141.6990 C   0  0  2  0  0  3  0  0  0  0  0  0
  191.3480  176.7000  140.1750 C   0  0  1  0  0  3  0  0  0  0  0  0
  188.5650  178.1420  137.5000 C   0  0  2  0  0  0  0  0  0  0  0  0
  189.8260  177.5460  143.5450 C   0  0  1  0  0  3  0  0  0  0  0  0
  188.4480  176.8900  136.6440 C   0  0  0  0  0  2  0  0  0  0  0  0
  188.3680  177.1770  143.2030 C   0  0  0  0  0  2  0  0  0  0  0  0
  190.0780  177.2740  144.9700 N   0  0  0  0  0  0  0  0  0  0  0  0
  191.5070  177.2100  145.3270 C   0  0  0  0  0  2  0  0  0  0  0  0
  191.8500  176.0980  146.3150 C   0  0  0  0  0  1  0  0  0  0  0  0
  189.3140  178.1770  145.8280 C   0  0  0  0  0  2  0  0  0  0  0  0
  188.8200  176.6220  147.7120 O   0  0  0  0  0  1  0  0  0  0  0  0
  187.1270  177.4150  146.3860 O   0  0  0  0  0  0  0  0  0  0  0  0
  188.3550  177.3980  146.6590 C   0  0  0  0  0  0  0  0  0  0  0  0
  191.5110  175.7640  136.7640 C   0  0  0  0  0  2  0  0  0  0  0  0
  191.5210  174.5060  137.4970 N   0  0  0  0  0  0  0  0  0  0  0  0
  192.9050  174.0460  137.5450 C   0  0  0  0  0  1  0  0  0  0  0  0
  190.6810  173.5440  136.7720 C   0  0  2  0  0  3  0  0  0  0  0  0
  188.5730  172.9710  136.3380 C   0  0  0  0  0  2  0  0  0  0  0  0
  190.4800  173.9690  135.3340 C   0  0  0  0  0  2  0  0  0  0  0  0
  189.4220  173.3720  137.3790 O   0  0  0  0  0  0  0  0  0  0  0  0
  189.0550  173.6020  135.0510 C   0  0  0  0  0  2  0  0  0  0  0  0
  192.4010  177.7430  139.8030 C   0  0  0  0  0  2  0  0  0  0  0  0
  194.5920  176.9930  140.3860 O   0  0  0  0  0  1  0  0  0  0  0  0
  193.6780  177.0690  139.3350 C   0  0  0  0  0  2  0  0  0  0  0  0
  1 16  1  0  0  0  0
  2  5  1  0  0  0  0
  2 14  1  0  0  0  0
  4  6  1  0  0  0  0
  4  8  1  0  0  0  0
  5  7  1  0  0  0  0
  6  2  1  0  0  0  0
  7  3  1  0  0  0  0
  7 17  1  0  0  0  0
  8 12  1  0  0  0  0
  9  6  1  0  0  0  0
  9 15  1  0  0  0  0
 10 16  1  0  0  0  0
 10 13  1  0  0  0  0
 12 14  1  0  0  0  0
 12 11  1  0  0  0  0
 13  9  1  0  0  0  0
 14 19  1  0  0  0  0
 15  5  1  0  0  0  0
 16  4  1  0  0  0  0
 17 20  1  0  0  0  0
 18 10  1  0  0  0  0
 18 16  1  0  0  0  0
 19 17  1  0  0  0  0
 20 21  1  0  0  0  0
 20 23  1  0  0  0  0
 21 22  1  0  0  0  0
 23 26  1  0  0  0  0
 25 26  2  0  0  0  0
 26 24  1  0  0  0  0
 27 28  1  0  0  0  0
 27 13  1  0  0  0  0
 28 29  1  0  0  0  0
 30 33  1  0  0  0  0
 30 28  1  0  0  0  0
 31 33  1  0  0  0  0
 32 30  1  0  0  0  0
 34 32  1  0  0  0  0
 34 31  1  0  0  0  0
 35 15  1  0  0  0  0
 37 35  1  0  0  0  0
 37 36  1  0  0  0  0
M  END
>  <MODEL>
4

>  <REMARK>
 VINA RESULT:      -6.1      2.861      8.379
  Name = 
  9 active torsions:
  status: ('A' for Active; 'I' for Inactive)
    1  A    between atoms: N_1  and  C_5
    2  A    between atoms: N_1  and  C_23
    3  A    between atoms: C_2  and  N_6
    4  A    between atoms: N_6  and  C_8
    5  A    between atoms: N_6  and  C_31
    6  A    between atoms: C_8  and  C_19
    7  A    between atoms: C_23  and  C_25
    8  A    between atoms: C_29  and  C_33
    9  A    between atoms: C_33  and  C_36
                            x       y       z     vdW  Elec       q    Type
                         _______ _______ _______ _____ _____    ______ ____

>  <TORSDO>
F 9

$$$$
=
 OpenBabel10272415043D

 37 42  0  0  1  0  0  0  0  0999 V2000
  183.5230  180.8670  144.5030 F   0  0  0  0  0  0  0  0  0  0  0  0
  186.8080  177.1450  144.6110 C   0  0  2  0  0  3  0  0  0  0  0  0
  190.0440  177.6530  143.1420 O   0  0  0  0  0  1  0  0  0  0  0  0
  185.2770  179.0770  144.5640 C   0  0  2  0  0  3  0  0  0  0  0  0
  187.8120  177.8310  143.8150 N   0  0  1  0  0  0  0  0  0  0  0  0
  185.4850  177.6390  144.0980 C   0  0  1  0  0  3  0  0  0  0  0  0
  189.0770  177.1190  143.9970 C   0  0  2  0  0  3  0  0  0  0  0  0
  185.4180  179.1690  146.0780 C   0  0  0  0  0  2  0  0  0  0  0  0
  185.7350  177.6430  142.6010 C   0  0  1  0  0  3  0  0  0  0  0  0
  183.8300  179.5400  142.5040 C   0  0  2  0  0  3  0  0  0  0  0  0
  186.8230  178.9170  147.9150 C   0  0  0  0  0  1  0  0  0  0  0  0
  186.7860  178.8040  146.4640 N   0  0  0  0  0  0  0  0  0  0  0  0
  184.8870  178.6550  141.7810 C   0  0  2  0  0  3  0  0  0  0  0  0
  187.0210  177.3930  146.1090 C   0  0  2  0  0  3  0  0  0  0  0  0
  187.2750  177.7440  142.4530 C   0  0  1  0  0  3  0  0  0  0  0  0
  183.9750  179.6530  144.0180 C   0  0  2  0  0  0  0  0  0  0  0  0
  189.5300  177.3040  145.4700 C   0  0  1  0  0  3  0  0  0  0  0  0
  182.9170  178.7340  143.4270 C   0  0  0  0  0  2  0  0  0  0  0  0
  188.4350  176.9080  146.4810 C   0  0  0  0  0  2  0  0  0  0  0  0
  190.7880  176.6220  145.8190 N   0  0  0  0  0  0  0  0  0  0  0  0
  191.7300  176.4850  144.6930 C   0  0  0  0  0  2  0  0  0  0  0  0
  191.9810  175.0410  144.2660 C   0  0  0  0  0  1  0  0  0  0  0  0
  191.3990  177.2080  147.0100 C   0  0  0  0  0  2  0  0  0  0  0  0
  193.1060  176.4280  148.6490 O   0  0  0  0  0  1  0  0  0  0  0  0
  191.5630  174.9650  147.7940 O   0  0  0  0  0  0  0  0  0  0  0  0
  192.0130  176.1390  147.8450 C   0  0  0  0  0  0  0  0  0  0  0  0
  184.2880  177.9660  140.5640 C   0  0  0  0  0  2  0  0  0  0  0  0
  183.7840  178.9520  139.6190 N   0  0  0  0  0  0  0  0  0  0  0  0
  182.3340  178.8020  139.5710 C   0  0  0  0  0  1  0  0  0  0  0  0
  184.3770  178.6750  138.3040 C   0  0  2  0  0  3  0  0  0  0  0  0
  186.2190  177.9510  137.2810 C   0  0  0  0  0  2  0  0  0  0  0  0
  184.0000  177.2930  137.8150 C   0  0  0  0  0  2  0  0  0  0  0  0
  185.7800  178.7880  138.3170 O   0  0  0  0  0  0  0  0  0  0  0  0
  185.2470  176.8010  137.1460 C   0  0  0  0  0  2  0  0  0  0  0  0
  187.7220  178.9590  141.6410 C   0  0  0  0  0  2  0  0  0  0  0  0
  188.6390  177.1760  140.3420 O   0  0  0  0  0  1  0  0  0  0  0  0
  188.2900  178.5260  140.3010 C   0  0  0  0  0  2  0  0  0  0  0  0
  2 14  1  0  0  0  0
  3  7  1  0  0  0  0
  4  8  1  0  0  0  0
  5  7  1  0  0  0  0
  5  2  1  0  0  0  0
  6  4  1  0  0  0  0
  6  2  1  0  0  0  0
  7 17  1  0  0  0  0
  8 12  1  0  0  0  0
  9  6  1  0  0  0  0
 10 18  1  0  0  0  0
 10 16  1  0  0  0  0
 12 11  1  0  0  0  0
 13 10  1  0  0  0  0
 13  9  1  0  0  0  0
 14 12  1  0  0  0  0
 14 19  1  0  0  0  0
 15  9  1  0  0  0  0
 15  5  1  0  0  0  0
 16  1  1  0  0  0  0
 16  4  1  0  0  0  0
 17 20  1  0  0  0  0
 17 19  1  0  0  0  0
 18 16  1  0  0  0  0
 20 23  1  0  0  0  0
 21 20  1  0  0  0  0
 22 21  1  0  0  0  0
 23 26  1  0  0  0  0
 25 26  2  0  0  0  0
 26 24  1  0  0  0  0
 27 13  1  0  0  0  0
 28 27  1  0  0  0  0
 29 28  1  0  0  0  0
 30 33  1  0  0  0  0
 30 28  1  0  0  0  0
 31 33  1  0  0  0  0
 32 30  1  0  0  0  0
 34 31  1  0  0  0  0
 34 32  1  0  0  0  0
 35 15  1  0  0  0  0
 37 36  1  0  0  0  0
 37 35  1  0  0  0  0
M  END
>  <MODEL>
5

>  <REMARK>
 VINA RESULT:      -6.0      3.403      7.859
  Name = 
  9 active torsions:
  status: ('A' for Active; 'I' for Inactive)
    1  A    between atoms: N_1  and  C_5
    2  A    between atoms: N_1  and  C_23
    3  A    between atoms: C_2  and  N_6
    4  A    between atoms: N_6  and  C_8
    5  A    between atoms: N_6  and  C_31
    6  A    between atoms: C_8  and  C_19
    7  A    between atoms: C_23  and  C_25
    8  A    between atoms: C_29  and  C_33
    9  A    between atoms: C_33  and  C_36
                            x       y       z     vdW  Elec       q    Type
                         _______ _______ _______ _____ _____    ______ ____

>  <TORSDO>
F 9

$$$$
=
 OpenBabel10272415043D

 37 42  0  0  1  0  0  0  0  0999 V2000
  184.2430  177.3030  145.7570 F   0  0  0  0  0  0  0  0  0  0  0  0
  186.6970  179.0230  141.7980 C   0  0  2  0  0  3  0  0  0  0  0  0
  188.6250  176.7240  139.8270 O   0  0  0  0  0  1  0  0  0  0  0  0
  185.4640  178.0560  143.7010 C   0  0  2  0  0  3  0  0  0  0  0  0
  187.3540  177.7630  141.4920 N   0  0  1  0  0  0  0  0  0  0  0  0
  186.5530  179.0440  143.2940 C   0  0  1  0  0  3  0  0  0  0  0  0
  187.8620  177.8560  140.1230 C   0  0  2  0  0  3  0  0  0  0  0  0
  184.1690  178.3560  142.9570 C   0  0  0  0  0  2  0  0  0  0  0  0
  187.8980  178.4930  143.7260 C   0  0  1  0  0  3  0  0  0  0  0  0
  186.6190  177.7070  145.9590 C   0  0  2  0  0  3  0  0  0  0  0  0
  183.1000  178.4800  140.8950 C   0  0  0  0  0  1  0  0  0  0  0  0
  184.3790  178.1690  141.5170 N   0  0  0  0  0  0  0  0  0  0  0  0
  187.9190  177.7740  145.1040 C   0  0  2  0  0  3  0  0  0  0  0  0
  185.3680  179.1550  141.0470 C   0  0  2  0  0  3  0  0  0  0  0  0
  188.4070  177.6790  142.5090 C   0  0  1  0  0  3  0  0  0  0  0  0
  185.3160  177.9880  145.2180 C   0  0  2  0  0  0  0  0  0  0  0  0
  186.6470  177.9270  139.1590 C   0  0  1  0  0  3  0  0  0  0  0  0
  185.9330  179.0650  146.0980 C   0  0  0  0  0  2  0  0  0  0  0  0
  185.6550  179.0450  139.5380 C   0  0  0  0  0  2  0  0  0  0  0  0
  186.9970  178.0460  137.7330 N   0  0  0  0  0  0  0  0  0  0  0  0
  188.3260  178.6380  137.4880 C   0  0  0  0  0  2  0  0  0  0  0  0
  189.1030  177.9690  136.3560 C   0  0  0  0  0  1  0  0  0  0  0  0
  186.7930  176.7840  137.0260 C   0  0  0  0  0  2  0  0  0  0  0  0
  184.3640  176.2750  136.7960 O   0  0  0  0  0  1  0  0  0  0  0  0
  185.4920  177.3430  135.1110 O   0  0  0  0  0  0  0  0  0  0  0  0
  185.5170  176.8310  136.2600 C   0  0  0  0  0  0  0  0  0  0  0  0
  189.0960  178.2700  145.9320 C   0  0  0  0  0  2  0  0  0  0  0  0
  189.2860  177.4230  147.1020 N   0  0  0  0  0  0  0  0  0  0  0  0
  188.8960  178.2070  148.2680 C   0  0  0  0  0  1  0  0  0  0  0  0
  190.7060  177.0540  147.1770 C   0  0  2  0  0  3  0  0  0  0  0  0
  192.1070  175.3290  147.3280 C   0  0  0  0  0  2  0  0  0  0  0  0
  191.3220  176.9680  145.7980 C   0  0  0  0  0  2  0  0  0  0  0  0
  190.9040  175.8300  147.8440 O   0  0  0  0  0  0  0  0  0  0  0  0
  192.2490  175.7940  145.8960 C   0  0  0  0  0  2  0  0  0  0  0  0
  188.6900  176.2140  142.8410 C   0  0  0  0  0  2  0  0  0  0  0  0
  190.8430  177.0180  142.1920 O   0  0  0  0  0  1  0  0  0  0  0  0
  190.1750  175.9190  142.7310 C   0  0  0  0  0  2  0  0  0  0  0  0
  2  6  1  0  0  0  0
  3  7  1  0  0  0  0
  4 16  1  0  0  0  0
  5  2  1  0  0  0  0
  5 15  1  0  0  0  0
  6  4  1  0  0  0  0
  6  9  1  0  0  0  0
  7  5  1  0  0  0  0
  8  4  1  0  0  0  0
  9 13  1  0  0  0  0
 10 18  1  0  0  0  0
 11 12  1  0  0  0  0
 12  8  1  0  0  0  0
 13 27  1  0  0  0  0
 13 10  1  0  0  0  0
 14 12  1  0  0  0  0
 14  2  1  0  0  0  0
 15 35  1  0  0  0  0
 15  9  1  0  0  0  0
 16  1  1  0  0  0  0
 16 10  1  0  0  0  0
 16 18  1  0  0  0  0
 17 19  1  0  0  0  0
 17  7  1  0  0  0  0
 19 14  1  0  0  0  0
 20 17  1  0  0  0  0
 21 20  1  0  0  0  0
 22 21  1  0  0  0  0
 23 20  1  0  0  0  0
 25 26  2  0  0  0  0
 26 24  1  0  0  0  0
 26 23  1  0  0  0  0
 27 28  1  0  0  0  0
 28 30  1  0  0  0  0
 28 29  1  0  0  0  0
 30 33  1  0  0  0  0
 31 33  1  0  0  0  0
 32 34  1  0  0  0  0
 32 30  1  0  0  0  0
 34 31  1  0  0  0  0
 36 37  1  0  0  0  0
 37 35  1  0  0  0  0
M  END
>  <MODEL>
6

>  <REMARK>
 VINA RESULT:      -5.9      2.788      5.117
  Name = 
  9 active torsions:
  status: ('A' for Active; 'I' for Inactive)
    1  A    between atoms: N_1  and  C_5
    2  A    between atoms: N_1  and  C_23
    3  A    between atoms: C_2  and  N_6
    4  A    between atoms: N_6  and  C_8
    5  A    between atoms: N_6  and  C_31
    6  A    between atoms: C_8  and  C_19
    7  A    between atoms: C_23  and  C_25
    8  A    between atoms: C_29  and  C_33
    9  A    between atoms: C_33  and  C_36
                            x       y       z     vdW  Elec       q    Type
                         _______ _______ _______ _____ _____    ______ ____

>  <TORSDO>
F 9

$$$$
=
 OpenBabel10272415043D

 37 42  0  0  1  0  0  0  0  0999 V2000
  187.6720  179.0040  137.9200 F   0  0  0  0  0  0  0  0  0  0  0  0
  188.8350  176.7420  142.1830 C   0  0  2  0  0  3  0  0  0  0  0  0
  191.6250  177.9630  144.0840 O   0  0  0  0  0  1  0  0  0  0  0  0
  188.3010  177.9760  140.1180 C   0  0  2  0  0  3  0  0  0  0  0  0
  190.0350  177.5250  142.4270 N   0  0  1  0  0  0  0  0  0  0  0  0
  188.7290  176.6280  140.6890 C   0  0  1  0  0  3  0  0  0  0  0  0
  190.3990  177.3440  143.8320 C   0  0  2  0  0  3  0  0  0  0  0  0
  187.0190  178.4550  140.7880 C   0  0  0  0  0  2  0  0  0  0  0  0
  190.1750  176.3740  140.3110 C   0  0  1  0  0  3  0  0  0  0  0  0
  189.5170  177.4400  137.9300 C   0  0  2  0  0  3  0  0  0  0  0  0
  185.9960  179.1190  142.7680 C   0  0  0  0  0  1  0  0  0  0  0  0
  187.2670  178.6710  142.2180 N   0  0  0  0  0  0  0  0  0  0  0  0
  190.5850  176.8240  138.8800 C   0  0  2  0  0  3  0  0  0  0  0  0
  187.6090  177.3820  142.8430 C   0  0  2  0  0  3  0  0  0  0  0  0
  191.0040  176.9530  141.4860 C   0  0  1  0  0  3  0  0  0  0  0  0
  188.2380  177.9380  138.5940 C   0  0  2  0  0  0  0  0  0  0  0  0
  189.2980  178.0030  144.7070 C   0  0  1  0  0  3  0  0  0  0  0  0
  188.2380  176.6060  137.8600 C   0  0  0  0  0  2  0  0  0  0  0  0
  187.8830  177.5020  144.3540 C   0  0  0  0  0  2  0  0  0  0  0  0
  189.5110  177.8850  146.1590 N   0  0  0  0  0  0  0  0  0  0  0  0
  188.4020  178.4130  146.9750 C   0  0  0  0  0  2  0  0  0  0  0  0
  188.0960  177.5820  148.2180 C   0  0  0  0  0  1  0  0  0  0  0  0
  189.9010  176.5270  146.5320 C   0  0  0  0  0  2  0  0  0  0  0  0
  192.2290  175.6390  146.5590 O   0  0  0  0  0  0  0  0  0  0  0  0
  191.6040  177.3030  148.0060 O   0  0  0  0  0  1  0  0  0  0  0  0
  191.2900  176.5260  147.0670 C   0  0  0  0  0  0  0  0  0  0  0  0
  191.3630  175.7140  138.1880 C   0  0  0  0  0  2  0  0  0  0  0  0
  191.9310  176.1970  136.9370 N   0  0  0  0  0  0  0  0  0  0  0  0
  191.4240  175.3370  135.8740 C   0  0  0  0  0  1  0  0  0  0  0  0
  193.3940  176.0990  137.0290 C   0  0  2  0  0  3  0  0  0  0  0  0
  195.0870  174.6690  137.2580 C   0  0  0  0  0  2  0  0  0  0  0  0
  194.0260  176.0640  135.6540 C   0  0  0  0  0  2  0  0  0  0  0  0
  193.8090  174.9640  137.7510 O   0  0  0  0  0  0  0  0  0  0  0  0
  195.1510  175.0860  135.8060 C   0  0  0  0  0  2  0  0  0  0  0  0
  191.9980  178.0280  141.0490 C   0  0  0  0  0  2  0  0  0  0  0  0
  193.8580  177.9750  139.5510 O   0  0  0  0  0  1  0  0  0  0  0  0
  193.3440  177.4070  140.7170 C   0  0  0  0  0  2  0  0  0  0  0  0
  1 16  1  0  0  0  0
  2  5  1  0  0  0  0
  2 14  1  0  0  0  0
  4  6  1  0  0  0  0
  4  8  1  0  0  0  0
  5  7  1  0  0  0  0
  6  2  1  0  0  0  0
  7  3  1  0  0  0  0
  7 17  1  0  0  0  0
  8 12  1  0  0  0  0
  9  6  1  0  0  0  0
  9 15  1  0  0  0  0
 10 16  1  0  0  0  0
 10 13  1  0  0  0  0
 12 11  1  0  0  0  0
 12 14  1  0  0  0  0
 13  9  1  0  0  0  0
 14 19  1  0  0  0  0
 15  5  1  0  0  0  0
 16  4  1  0  0  0  0
 17 20  1  0  0  0  0
 18 10  1  0  0  0  0
 18 16  1  0  0  0  0
 19 17  1  0  0  0  0
 20 23  1  0  0  0  0
 20 21  1  0  0  0  0
 21 22  1  0  0  0  0
 23 26  1  0  0  0  0
 24 26  2  0  0  0  0
 26 25  1  0  0  0  0
 27 13  1  0  0  0  0
 28 30  1  0  0  0  0
 28 27  1  0  0  0  0
 29 28  1  0  0  0  0
 30 33  1  0  0  0  0
 31 33  1  0  0  0  0
 32 34  1  0  0  0  0
 32 30  1  0  0  0  0
 34 31  1  0  0  0  0
 35 15  1  0  0  0  0
 36 37  1  0  0  0  0
 37 35  1  0  0  0  0
M  END
>  <MODEL>
7

>  <REMARK>
 VINA RESULT:      -5.9      3.369      8.941
  Name = 
  9 active torsions:
  status: ('A' for Active; 'I' for Inactive)
    1  A    between atoms: N_1  and  C_5
    2  A    between atoms: N_1  and  C_23
    3  A    between atoms: C_2  and  N_6
    4  A    between atoms: N_6  and  C_8
    5  A    between atoms: N_6  and  C_31
    6  A    between atoms: C_8  and  C_19
    7  A    between atoms: C_23  and  C_25
    8  A    between atoms: C_29  and  C_33
    9  A    between atoms: C_33  and  C_36
                            x       y       z     vdW  Elec       q    Type
                         _______ _______ _______ _____ _____    ______ ____

>  <TORSDO>
F 9

$$$$
=
 OpenBabel10272415043D

 37 42  0  0  1  0  0  0  0  0999 V2000
  188.0280  179.1630  136.8680 F   0  0  0  0  0  0  0  0  0  0  0  0
  189.1560  176.5400  140.9310 C   0  0  2  0  0  3  0  0  0  0  0  0
  192.1190  177.3920  142.7710 O   0  0  0  0  0  1  0  0  0  0  0  0
  188.6510  177.9460  138.9690 C   0  0  2  0  0  3  0  0  0  0  0  0
  190.4300  177.2000  141.1650 N   0  0  1  0  0  0  0  0  0  0  0  0
  188.9790  176.5320  139.4390 C   0  0  1  0  0  3  0  0  0  0  0  0
  190.8320  176.8990  142.5380 C   0  0  2  0  0  3  0  0  0  0  0  0
  187.4450  178.4900  139.7250 C   0  0  0  0  0  2  0  0  0  0  0  0
  190.3810  176.1790  138.9790 C   0  0  1  0  0  3  0  0  0  0  0  0
  189.7240  177.4480  136.7000 C   0  0  2  0  0  3  0  0  0  0  0  0
  186.5660  179.1120  141.7870 C   0  0  0  0  0  1  0  0  0  0  0  0
  187.7690  178.5930  141.1530 N   0  0  0  0  0  0  0  0  0  0  0  0
  190.7710  176.6830  137.5610 C   0  0  2  0  0  3  0  0  0  0  0  0
  188.0200  177.2410  141.6830 C   0  0  2  0  0  3  0  0  0  0  0  0
  191.3050  176.6070  140.1480 C   0  0  1  0  0  3  0  0  0  0  0  0
  188.5230  178.0110  137.4510 C   0  0  2  0  0  0  0  0  0  0  0  0
  189.8320  177.5930  143.5010 C   0  0  1  0  0  3  0  0  0  0  0  0
  188.3750  176.7340  136.6380 C   0  0  0  0  0  2  0  0  0  0  0  0
  188.3640  177.2400  143.1850 C   0  0  0  0  0  2  0  0  0  0  0  0
  190.0920  177.3650  144.9320 N   0  0  0  0  0  0  0  0  0  0  0  0
  191.5240  177.3090  145.2820 C   0  0  0  0  0  2  0  0  0  0  0  0
  191.8920  176.1510  146.2050 C   0  0  0  0  0  1  0  0  0  0  0  0
  189.3340  178.2940  145.7670 C   0  0  0  0  0  2  0  0  0  0  0  0
  187.0200  177.6570  146.4370 O   0  0  0  0  0  0  0  0  0  0  0  0
  188.8280  176.8290  147.5750 O   0  0  0  0  0  1  0  0  0  0  0  0
  188.3880  177.5410  146.6360 C   0  0  0  0  0  0  0  0  0  0  0  0
  191.4190  175.5560  136.7690 C   0  0  0  0  0  2  0  0  0  0  0  0
  192.5880  176.0460  136.0530 N   0  0  0  0  0  0  0  0  0  0  0  0
  192.1980  176.2190  134.6580 C   0  0  0  0  0  1  0  0  0  0  0  0
  193.6540  175.0430  136.1720 C   0  0  2  0  0  3  0  0  0  0  0  0
  195.6470  174.6390  137.0830 C   0  0  0  0  0  2  0  0  0  0  0  0
  193.3530  174.0530  137.2750 C   0  0  0  0  0  2  0  0  0  0  0  0
  194.9120  175.6280  136.4130 O   0  0  0  0  0  0  0  0  0  0  0  0
  194.6910  173.7990  137.9000 C   0  0  0  0  0  2  0  0  0  0  0  0
  192.3730  177.6180  139.7320 C   0  0  0  0  0  2  0  0  0  0  0  0
  194.5810  176.9910  140.3930 O   0  0  0  0  0  1  0  0  0  0  0  0
  193.6600  176.9090  139.3490 C   0  0  0  0  0  2  0  0  0  0  0  0
  1 16  1  0  0  0  0
  2  5  1  0  0  0  0
  2 14  1  0  0  0  0
  4  6  1  0  0  0  0
  4  8  1  0  0  0  0
  5  7  1  0  0  0  0
  6  2  1  0  0  0  0
  7  3  1  0  0  0  0
  7 17  1  0  0  0  0
  8 12  1  0  0  0  0
  9  6  1  0  0  0  0
  9 15  1  0  0  0  0
 10 16  1  0  0  0  0
 10 13  1  0  0  0  0
 12 14  1  0  0  0  0
 12 11  1  0  0  0  0
 13  9  1  0  0  0  0
 14 19  1  0  0  0  0
 15  5  1  0  0  0  0
 16  4  1  0  0  0  0
 17 20  1  0  0  0  0
 18 10  1  0  0  0  0
 18 16  1  0  0  0  0
 19 17  1  0  0  0  0
 20 21  1  0  0  0  0
 20 23  1  0  0  0  0
 21 22  1  0  0  0  0
 23 26  1  0  0  0  0
 24 26  2  0  0  0  0
 26 25  1  0  0  0  0
 27 13  1  0  0  0  0
 28 30  1  0  0  0  0
 28 27  1  0  0  0  0
 29 28  1  0  0  0  0
 30 33  1  0  0  0  0
 30 32  1  0  0  0  0
 31 34  1  0  0  0  0
 32 34  1  0  0  0  0
 33 31  1  0  0  0  0
 35 15  1  0  0  0  0
 37 35  1  0  0  0  0
 37 36  1  0  0  0  0
M  END
>  <MODEL>
8

>  <REMARK>
 VINA RESULT:      -5.7      3.351      8.839
  Name = 
  9 active torsions:
  status: ('A' for Active; 'I' for Inactive)
    1  A    between atoms: N_1  and  C_5
    2  A    between atoms: N_1  and  C_23
    3  A    between atoms: C_2  and  N_6
    4  A    between atoms: N_6  and  C_8
    5  A    between atoms: N_6  and  C_31
    6  A    between atoms: C_8  and  C_19
    7  A    between atoms: C_23  and  C_25
    8  A    between atoms: C_29  and  C_33
    9  A    between atoms: C_33  and  C_36
                            x       y       z     vdW  Elec       q    Type
                         _______ _______ _______ _____ _____    ______ ____

>  <TORSDO>
F 9

$$$$
=
 OpenBabel10272415043D

 37 42  0  0  1  0  0  0  0  0999 V2000
  187.3500  173.2850  136.7930 F   0  0  0  0  0  0  0  0  0  0  0  0
  191.6080  175.7540  136.1380 C   0  0  2  0  0  3  0  0  0  0  0  0
  193.7660  176.2560  138.9620 O   0  0  0  0  0  1  0  0  0  0  0  0
  189.5520  174.4580  136.5560 C   0  0  2  0  0  3  0  0  0  0  0  0
  191.9740  175.7630  137.5440 N   0  0  1  0  0  0  0  0  0  0  0  0
  190.1060  175.8100  136.1150 C   0  0  1  0  0  3  0  0  0  0  0  0
  193.3950  176.0960  137.6240 C   0  0  2  0  0  3  0  0  0  0  0  0
  190.1350  173.3410  135.7000 C   0  0  0  0  0  2  0  0  0  0  0  0
  189.8350  176.8280  137.2070 C   0  0  1  0  0  3  0  0  0  0  0  0
  187.4500  175.6090  137.4560 C   0  0  2  0  0  3  0  0  0  0  0  0
  192.0510  172.1940  135.0480 C   0  0  0  0  0  1  0  0  0  0  0  0
  191.5870  173.2780  135.9020 N   0  0  0  0  0  0  0  0  0  0  0  0
  188.4590  176.6990  137.9190 C   0  0  2  0  0  3  0  0  0  0  0  0
  192.1910  174.5330  135.4180 C   0  0  2  0  0  3  0  0  0  0  0  0
  191.0930  176.7890  138.1120 C   0  0  1  0  0  3  0  0  0  0  0  0
  188.0280  174.4760  136.6140 C   0  0  2  0  0  0  0  0  0  0  0  0
  194.2040  174.9250  137.0010 C   0  0  1  0  0  3  0  0  0  0  0  0
  187.2480  175.5950  135.9410 C   0  0  0  0  0  2  0  0  0  0  0  0
  193.7220  174.5630  135.5820 C   0  0  0  0  0  2  0  0  0  0  0  0
  195.6630  175.1220  136.9870 N   0  0  0  0  0  0  0  0  0  0  0  0
  196.3930  174.2750  137.9500 C   0  0  0  0  0  2  0  0  0  0  0  0
  195.9370  172.8180  137.9640 C   0  0  0  0  0  1  0  0  0  0  0  0
  196.1990  175.0400  135.6310 C   0  0  0  0  0  2  0  0  0  0  0  0
  198.6310  175.5320  135.4050 O   0  0  0  0  0  0  0  0  0  0  0  0
  197.0990  177.2360  135.4310 O   0  0  0  0  0  1  0  0  0  0  0  0
  197.3260  175.9990  135.4710 C   0  0  0  0  0  0  0  0  0  0  0  0
  187.7910  178.0640  138.0090 C   0  0  0  0  0  2  0  0  0  0  0  0
  186.4980  177.9530  138.6700 N   0  0  0  0  0  0  0  0  0  0  0  0
  185.4930  178.4460  137.7350 C   0  0  0  0  0  1  0  0  0  0  0  0
  186.5270  178.7820  139.8820 C   0  0  2  0  0  3  0  0  0  0  0  0
  185.5070  179.1580  141.8260 C   0  0  0  0  0  2  0  0  0  0  0  0
  187.4850  178.2170  140.9080 C   0  0  0  0  0  2  0  0  0  0  0  0
  185.2540  178.9150  140.4690 O   0  0  0  0  0  0  0  0  0  0  0  0
  186.7860  178.4520  142.2130 C   0  0  0  0  0  2  0  0  0  0  0  0
  190.7760  176.4500  139.5690 C   0  0  0  0  0  2  0  0  0  0  0  0
  191.2160  177.1800  141.8000 O   0  0  0  0  0  1  0  0  0  0  0  0
  191.1330  177.6140  140.4770 C   0  0  0  0  0  2  0  0  0  0  0  0
  2  5  1  0  0  0  0
  4 16  1  0  0  0  0
  5  7  1  0  0  0  0
  5 15  1  0  0  0  0
  6  2  1  0  0  0  0
  6  4  1  0  0  0  0
  6  9  1  0  0  0  0
  7  3  1  0  0  0  0
  8 12  1  0  0  0  0
  8  4  1  0  0  0  0
  9 13  1  0  0  0  0
  9 15  1  0  0  0  0
 10 13  1  0  0  0  0
 11 12  1  0  0  0  0
 13 27  1  0  0  0  0
 14 19  1  0  0  0  0
 14 12  1  0  0  0  0
 14  2  1  0  0  0  0
 15 35  1  0  0  0  0
 16  1  1  0  0  0  0
 16 10  1  0  0  0  0
 17  7  1  0  0  0  0
 18 16  1  0  0  0  0
 18 10  1  0  0  0  0
 19 17  1  0  0  0  0
 20 17  1  0  0  0  0
 20 21  1  0  0  0  0
 21 22  1  0  0  0  0
 23 20  1  0  0  0  0
 24 26  2  0  0  0  0
 25 26  1  0  0  0  0
 26 23  1  0  0  0  0
 27 28  1  0  0  0  0
 28 30  1  0  0  0  0
 29 28  1  0  0  0  0
 30 33  1  0  0  0  0
 30 32  1  0  0  0  0
 31 34  1  0  0  0  0
 32 34  1  0  0  0  0
 33 31  1  0  0  0  0
 35 37  1  0  0  0  0
 37 36  1  0  0  0  0
M  END
>  <MODEL>
9

>  <REMARK>
 VINA RESULT:      -5.7      4.360      7.052
  Name = 
  9 active torsions:
  status: ('A' for Active; 'I' for Inactive)
    1  A    between atoms: N_1  and  C_5
    2  A    between atoms: N_1  and  C_23
    3  A    between atoms: C_2  and  N_6
    4  A    between atoms: N_6  and  C_8
    5  A    between atoms: N_6  and  C_31
    6  A    between atoms: C_8  and  C_19
    7  A    between atoms: C_23  and  C_25
    8  A    between atoms: C_29  and  C_33
    9  A    between atoms: C_33  and  C_36
                            x       y       z     vdW  Elec       q    Type
                         _______ _______ _______ _____ _____    ______ ____

>  <TORSDO>
F 9

$$$$
