=
 OpenBabel10272401053D

 27 31  0  0  1  0  0  0  0  0999 V2000
  186.2720  179.1390  141.2430 C   0  0  0  0  0  2  0  0  0  0  0  0
  185.6830  178.6200  143.6020 C   0  0  0  0  0  0  0  0  0  0  0  0
  187.4610  176.9460  142.9830 C   0  0  0  0  0  2  0  0  0  0  0  0
  186.8020  178.5820  147.5900 N   0  0  0  0  0  2  0  0  0  0  0  0
  188.1520  177.8590  149.2600 O   0  0  0  0  0  0  0  0  0  0  0  0
  185.0120  179.3530  144.5340 N   0  0  0  0  0  0  0  0  0  0  0  0
  188.2350  177.0360  145.8000 C   0  0  0  0  0  3  0  0  0  0  0  0
  190.1280  177.6730  140.5440 C   0  0  2  0  0  3  0  0  0  0  0  0
  188.5830  177.0500  147.1510 C   0  0  0  0  0  3  0  0  0  0  0  0
  191.1800  176.7600  139.9520 C   0  0  0  0  0  1  0  0  0  0  0  0
  187.1590  177.8070  145.3440 C   0  0  0  0  0  0  0  0  0  0  0  0
  185.2850  178.6920  142.2240 N   0  0  0  0  0  0  0  0  0  0  0  0
  187.8480  177.8380  148.0400 C   0  0  0  0  0  0  0  0  0  0  0  0
  186.4440  178.5850  146.2780 C   0  0  0  0  0  0  0  0  0  0  0  0
  187.2430  178.0200  140.8790 C   0  0  1  0  0  3  0  0  0  0  0  0
  186.7740  177.8200  143.9910 C   0  0  0  0  0  0  0  0  0  0  0  0
  189.2650  176.9020  141.5330 C   0  0  0  0  0  2  0  0  0  0  0  0
  185.3640  179.3520  145.8470 C   0  0  0  0  0  3  0  0  0  0  0  0
  189.2790  178.2500  139.4500 C   0  0  0  0  0  3  0  0  0  0  0  0
  187.9650  178.4430  139.6190 C   0  0  0  0  0  3  0  0  0  0  0  0
  188.1700  177.7530  141.9980 N   0  0  2  0  0  0  0  0  0  0  0  0
  181.3150  177.9140  141.0200 N   0  0  0  0  0  0  0  0  0  0  0  0
  183.9280  178.4170  141.8160 C   0  0  0  0  0  0  0  0  0  0  0  0
  183.6620  177.6960  140.6420 C   0  0  0  0  0  3  0  0  0  0  0  0
  182.3420  177.4510  140.2600 C   0  0  0  0  0  3  0  0  0  0  0  0
  181.5380  178.6200  142.1610 C   0  0  0  0  0  3  0  0  0  0  0  0
  182.8450  178.8840  142.5770 C   0  0  0  0  0  3  0  0  0  0  0  0
  1 12  1  0  0  0  0
  2 16  2  0  0  0  0
  2  6  1  0  0  0  0
  3 16  1  0  0  0  0
  4 13  1  0  0  0  0
  6 18  2  0  0  0  0
  7  9  2  0  0  0  0
  8 10  1  6  0  0  0
  8 17  1  0  0  0  0
  9 13  1  0  0  0  0
 11  7  1  0  0  0  0
 11 14  2  0  0  0  0
 12  2  1  0  0  0  0
 13  5  2  0  0  0  0
 14  4  1  0  0  0  0
 15 20  1  6  0  0  0
 15  1  1  0  0  0  0
 15 21  1  0  0  0  0
 16 11  1  0  0  0  0
 18 14  1  0  0  0  0
 19 20  2  0  0  0  0
 19  8  1  0  0  0  0
 21 17  1  6  0  0  0
 21  3  1  0  0  0  0
 22 26  1  0  0  0  0
 23 12  1  0  0  0  0
 23 27  1  0  0  0  0
 24 23  2  0  0  0  0
 25 24  1  0  0  0  0
 25 22  2  0  0  0  0
 26 27  2  0  0  0  0
M  END
>  <MODEL>
1

>  <REMARK>
 VINA RESULT:      -9.0      0.000      0.000
  Name = 
  1 active torsions:
  status: ('A' for Active; 'I' for Inactive)
    1  A    between atoms: C_9  and  N_15
                            x       y       z     vdW  Elec       q    Type
                         _______ _______ _______ _____ _____    ______ ____

>  <TORSDO>
F 1

$$$$
=
 OpenBabel10272401053D

 27 31  0  0  1  0  0  0  0  0999 V2000
  190.0300  178.1890  142.0250 C   0  0  0  0  0  2  0  0  0  0  0  0
  187.6020  178.1850  141.4890 C   0  0  0  0  0  0  0  0  0  0  0  0
  187.8040  176.8970  143.6450 C   0  0  0  0  0  2  0  0  0  0  0  0
  183.7820  179.4820  142.4290 N   0  0  0  0  0  2  0  0  0  0  0  0
  182.0190  179.5810  143.8500 O   0  0  0  0  0  0  0  0  0  0  0  0
  186.8800  178.9520  140.6240 N   0  0  0  0  0  0  0  0  0  0  0  0
  185.1360  177.9170  144.2640 C   0  0  0  0  0  3  0  0  0  0  0  0
  190.4240  177.5830  146.1450 C   0  0  2  0  0  3  0  0  0  0  0  0
  183.8480  178.3730  144.5460 C   0  0  0  0  0  3  0  0  0  0  0  0
  190.7810  176.8320  147.4100 C   0  0  0  0  0  1  0  0  0  0  0  0
  185.7500  178.2510  143.0510 C   0  0  0  0  0  0  0  0  0  0  0  0
  188.9370  177.7900  141.1390 N   0  0  0  0  0  0  0  0  0  0  0  0
  183.1800  179.1630  143.6070 C   0  0  0  0  0  0  0  0  0  0  0  0
  185.0370  179.0490  142.1320 C   0  0  0  0  0  0  0  0  0  0  0  0
  190.1110  177.2870  143.2520 C   0  0  1  0  0  3  0  0  0  0  0  0
  187.0460  177.8100  142.7260 C   0  0  0  0  0  0  0  0  0  0  0  0
  189.2410  176.9140  145.4590 C   0  0  0  0  0  2  0  0  0  0  0  0
  185.6250  179.3850  140.9150 C   0  0  0  0  0  3  0  0  0  0  0  0
  191.6070  177.6220  145.2240 C   0  0  0  0  0  3  0  0  0  0  0  0
  191.4580  177.5250  143.8970 C   0  0  0  0  0  3  0  0  0  0  0  0
  188.9880  177.5620  144.1730 N   0  0  2  0  0  0  0  0  0  0  0  0
  189.7640  175.7760  137.5230 N   0  0  0  0  0  0  0  0  0  0  0  0
  189.2180  177.0930  139.9070 C   0  0  0  0  0  0  0  0  0  0  0  0
  190.4850  176.5390  139.6670 C   0  0  0  0  0  3  0  0  0  0  0  0
  190.7390  175.8780  138.4640 C   0  0  0  0  0  3  0  0  0  0  0  0
  188.5270  176.3070  137.7220 C   0  0  0  0  0  3  0  0  0  0  0  0
  188.2340  176.9730  138.9140 C   0  0  0  0  0  3  0  0  0  0  0  0
  2 16  1  0  0  0  0
  4 13  1  0  0  0  0
  6 18  1  0  0  0  0
  6  2  2  0  0  0  0
  7  9  2  0  0  0  0
  8 10  1  1  0  0  0
 11  7  1  0  0  0  0
 12  2  1  0  0  0  0
 12  1  1  0  0  0  0
 13  5  2  0  0  0  0
 13  9  1  0  0  0  0
 14  4  1  0  0  0  0
 14 11  1  0  0  0  0
 15  1  1  6  0  0  0
 15 20  1  0  0  0  0
 15 21  1  0  0  0  0
 16 11  2  0  0  0  0
 16  3  1  0  0  0  0
 17  8  1  0  0  0  0
 18 14  2  0  0  0  0
 19  8  1  0  0  0  0
 20 19  2  0  0  0  0
 21  3  1  6  0  0  0
 21 17  1  0  0  0  0
 22 26  2  0  0  0  0
 22 25  1  0  0  0  0
 23 12  1  0  0  0  0
 24 23  1  0  0  0  0
 25 24  2  0  0  0  0
 26 27  1  0  0  0  0
 27 23  2  0  0  0  0
M  END
>  <MODEL>
2

>  <REMARK>
 VINA RESULT:      -8.2      2.567      5.659
  Name = 
  1 active torsions:
  status: ('A' for Active; 'I' for Inactive)
    1  A    between atoms: C_9  and  N_15
                            x       y       z     vdW  Elec       q    Type
                         _______ _______ _______ _____ _____    ______ ____

>  <TORSDO>
F 1

$$$$
=
 OpenBabel10272401053D

 27 31  0  0  1  0  0  0  0  0999 V2000
  189.1260  178.3550  145.2680 C   0  0  0  0  0  2  0  0  0  0  0  0
  190.2760  177.4650  143.2510 C   0  0  0  0  0  0  0  0  0  0  0  0
  187.8570  176.8190  142.9710 C   0  0  0  0  0  2  0  0  0  0  0  0
  190.8710  177.6630  139.1580 N   0  0  0  0  0  2  0  0  0  0  0  0
  190.0920  177.5130  137.0340 O   0  0  0  0  0  0  0  0  0  0  0  0
  191.5000  177.7520  142.7260 N   0  0  0  0  0  0  0  0  0  0  0  0
  188.3420  177.0550  140.0980 C   0  0  0  0  0  3  0  0  0  0  0  0
  185.0810  178.8340  144.3180 C   0  0  2  0  0  3  0  0  0  0  0  0
  188.5810  177.1320  138.7250 C   0  0  0  0  0  3  0  0  0  0  0  0
  183.5980  178.5360  144.3680 C   0  0  0  0  0  1  0  0  0  0  0  0
  189.3830  177.2880  141.0060 C   0  0  0  0  0  0  0  0  0  0  0  0
  190.1060  177.4450  144.6780 N   0  0  0  0  0  0  0  0  0  0  0  0
  189.8650  177.4410  138.2690 C   0  0  0  0  0  0  0  0  0  0  0  0
  190.6630  177.5940  140.5000 C   0  0  0  0  0  0  0  0  0  0  0  0
  187.7060  177.8210  145.1160 C   0  0  1  0  0  3  0  0  0  0  0  0
  189.1860  177.2180  142.3970 C   0  0  0  0  0  0  0  0  0  0  0  0
  185.8190  177.6920  143.6360 C   0  0  0  0  0  2  0  0  0  0  0  0
  191.7150  177.8200  141.3850 C   0  0  0  0  0  3  0  0  0  0  0  0
  185.6070  179.0400  145.7070 C   0  0  0  0  0  3  0  0  0  0  0  0
  186.8250  178.6080  146.0590 C   0  0  0  0  0  3  0  0  0  0  0  0
  187.2610  177.9240  143.7100 N   0  0  2  0  0  0  0  0  0  0  0  0
  192.5450  175.0380  147.1420 N   0  0  0  0  0  0  0  0  0  0  0  0
  190.9320  176.6170  145.5230 C   0  0  0  0  0  0  0  0  0  0  0  0
  191.0940  176.9170  146.8850 C   0  0  0  0  0  3  0  0  0  0  0  0
  191.9070  176.1100  147.6820 C   0  0  0  0  0  3  0  0  0  0  0  0
  192.4130  174.7230  145.8250 C   0  0  0  0  0  3  0  0  0  0  0  0
  191.6070  175.5060  144.9960 C   0  0  0  0  0  3  0  0  0  0  0  0
  2 12  1  0  0  0  0
  4 14  1  0  0  0  0
  5 13  2  0  0  0  0
  6  2  1  0  0  0  0
  7 11  1  0  0  0  0
  8 10  1  1  0  0  0
  8 19  1  0  0  0  0
  9  7  2  0  0  0  0
 11 16  1  0  0  0  0
 12  1  1  0  0  0  0
 12 23  1  0  0  0  0
 13  9  1  0  0  0  0
 13  4  1  0  0  0  0
 14 11  2  0  0  0  0
 14 18  1  0  0  0  0
 15  1  1  6  0  0  0
 15 20  1  0  0  0  0
 16  3  1  0  0  0  0
 16  2  2  0  0  0  0
 17 21  1  0  0  0  0
 17  8  1  0  0  0  0
 18  6  2  0  0  0  0
 19 20  2  0  0  0  0
 21  3  1  6  0  0  0
 21 15  1  0  0  0  0
 22 25  1  0  0  0  0
 23 24  1  0  0  0  0
 24 25  2  0  0  0  0
 26 22  2  0  0  0  0
 27 23  2  0  0  0  0
 27 26  1  0  0  0  0
M  END
>  <MODEL>
3

>  <REMARK>
 VINA RESULT:      -8.2      3.489      7.928
  Name = 
  1 active torsions:
  status: ('A' for Active; 'I' for Inactive)
    1  A    between atoms: C_9  and  N_15
                            x       y       z     vdW  Elec       q    Type
                         _______ _______ _______ _____ _____    ______ ____

>  <TORSDO>
F 1

$$$$
=
 OpenBabel10272401053D

 27 31  0  0  1  0  0  0  0  0999 V2000
  188.2540  178.8610  141.9960 C   0  0  0  0  0  2  0  0  0  0  0  0
  188.6530  177.8650  144.2390 C   0  0  0  0  0  0  0  0  0  0  0  0
  189.5330  176.1680  142.5970 C   0  0  0  0  0  2  0  0  0  0  0  0
  191.3630  176.7000  147.1470 N   0  0  0  0  0  2  0  0  0  0  0  0
  193.0970  175.4130  147.8360 O   0  0  0  0  0  0  0  0  0  0  0  0
  188.6520  178.4320  145.4780 N   0  0  0  0  0  0  0  0  0  0  0  0
  191.4600  175.4590  144.6770 C   0  0  0  0  0  3  0  0  0  0  0  0
  190.9490  177.1010  139.3250 C   0  0  2  0  0  3  0  0  0  0  0  0
  192.3570  175.0950  145.6820 C   0  0  0  0  0  3  0  0  0  0  0  0
  191.3890  176.2260  138.1700 C   0  0  0  0  0  1  0  0  0  0  0  0
  190.5070  176.4580  144.9160 C   0  0  0  0  0  0  0  0  0  0  0  0
  187.7210  178.3250  143.2480 N   0  0  0  0  0  0  0  0  0  0  0  0
  192.2930  175.7330  146.9230 C   0  0  0  0  0  0  0  0  0  0  0  0
  190.4780  177.0730  146.1840 C   0  0  0  0  0  0  0  0  0  0  0  0
  188.6740  177.7440  141.0460 C   0  0  1  0  0  3  0  0  0  0  0  0
  189.5830  176.8530  143.9310 C   0  0  0  0  0  0  0  0  0  0  0  0
  190.4520  176.2360  140.4740 C   0  0  0  0  0  2  0  0  0  0  0  0
  189.5320  178.0620  146.4450 C   0  0  0  0  0  3  0  0  0  0  0  0
  189.8680  178.0380  138.8720 C   0  0  0  0  0  3  0  0  0  0  0  0
  188.8470  178.3600  139.6760 C   0  0  0  0  0  3  0  0  0  0  0  0
  189.9060  177.0870  141.5300 N   0  0  2  0  0  0  0  0  0  0  0  0
  183.5680  178.4130  143.9940 N   0  0  0  0  0  0  0  0  0  0  0  0
  186.3010  178.3460  143.5020 C   0  0  0  0  0  0  0  0  0  0  0  0
  185.3810  178.3580  142.4420 C   0  0  0  0  0  3  0  0  0  0  0  0
  184.0110  178.3890  142.7090 C   0  0  0  0  0  3  0  0  0  0  0  0
  184.4330  178.4080  145.0440 C   0  0  0  0  0  3  0  0  0  0  0  0
  185.8100  178.3750  144.8160 C   0  0  0  0  0  3  0  0  0  0  0  0
  1 12  1  0  0  0  0
  2  6  1  0  0  0  0
  3 16  1  0  0  0  0
  6 18  2  0  0  0  0
  7 11  1  0  0  0  0
  7  9  2  0  0  0  0
  8 10  1  6  0  0  0
  8 17  1  0  0  0  0
  9 13  1  0  0  0  0
 11 14  2  0  0  0  0
 12 23  1  0  0  0  0
 12  2  1  0  0  0  0
 13  4  1  0  0  0  0
 13  5  2  0  0  0  0
 14 18  1  0  0  0  0
 14  4  1  0  0  0  0
 15 20  1  6  0  0  0
 15 21  1  0  0  0  0
 15  1  1  0  0  0  0
 16  2  2  0  0  0  0
 16 11  1  0  0  0  0
 19  8  1  0  0  0  0
 19 20  2  0  0  0  0
 21 17  1  6  0  0  0
 21  3  1  0  0  0  0
 22 26  1  0  0  0  0
 23 27  1  0  0  0  0
 24 25  1  0  0  0  0
 24 23  2  0  0  0  0
 25 22  2  0  0  0  0
 27 26  2  0  0  0  0
M  END
>  <MODEL>
4

>  <REMARK>
 VINA RESULT:      -7.7      2.469      3.358
  Name = 
  1 active torsions:
  status: ('A' for Active; 'I' for Inactive)
    1  A    between atoms: C_9  and  N_15
                            x       y       z     vdW  Elec       q    Type
                         _______ _______ _______ _____ _____    ______ ____

>  <TORSDO>
F 1

$$$$
=
 OpenBabel10272401053D

 27 31  0  0  1  0  0  0  0  0999 V2000
  188.6720  178.5230  139.8870 C   0  0  0  0  0  2  0  0  0  0  0  0
  190.8220  177.2760  139.9540 C   0  0  0  0  0  0  0  0  0  0  0  0
  189.3230  175.9260  138.4450 C   0  0  0  0  0  2  0  0  0  0  0  0
  194.2320  176.0200  137.9680 N   0  0  0  0  0  2  0  0  0  0  0  0
  195.2380  174.8430  136.3120 O   0  0  0  0  0  0  0  0  0  0  0  0
  192.0630  177.6630  140.3610 N   0  0  0  0  0  0  0  0  0  0  0  0
  191.7720  175.1480  137.0520 C   0  0  0  0  0  3  0  0  0  0  0  0
  186.6870  177.4470  136.3650 C   0  0  2  0  0  3  0  0  0  0  0  0
  192.9430  174.7470  136.4080 C   0  0  0  0  0  3  0  0  0  0  0  0
  185.6160  176.7920  135.5200 C   0  0  0  0  0  1  0  0  0  0  0  0
  191.8380  175.9960  138.1650 C   0  0  0  0  0  0  0  0  0  0  0  0
  189.6640  177.7660  140.6490 N   0  0  0  0  0  0  0  0  0  0  0  0
  194.1760  175.1980  136.8840 C   0  0  0  0  0  0  0  0  0  0  0  0
  193.1050  176.4240  138.6120 C   0  0  0  0  0  0  0  0  0  0  0  0
  187.7660  177.5990  139.0800 C   0  0  1  0  0  3  0  0  0  0  0  0
  190.6820  176.4220  138.8440 C   0  0  0  0  0  0  0  0  0  0  0  0
  187.5580  176.3840  137.0190 C   0  0  0  0  0  2  0  0  0  0  0  0
  193.1930  177.2600  139.7230 C   0  0  0  0  0  3  0  0  0  0  0  0
  186.0520  178.3160  137.4100 C   0  0  0  0  0  3  0  0  0  0  0  0
  186.5690  178.4130  138.6410 C   0  0  0  0  0  3  0  0  0  0  0  0
  188.5020  177.0180  137.9380 N   0  0  2  0  0  0  0  0  0  0  0  0
  189.2090  177.2990  144.8190 N   0  0  0  0  0  0  0  0  0  0  0  0
  189.5140  177.5990  142.0750 C   0  0  0  0  0  0  0  0  0  0  0  0
  188.5950  176.6760  142.5970 C   0  0  0  0  0  3  0  0  0  0  0  0
  188.4580  176.5380  143.9800 C   0  0  0  0  0  3  0  0  0  0  0  0
  190.1050  178.2060  144.3450 C   0  0  0  0  0  3  0  0  0  0  0  0
  190.2720  178.3710  142.9680 C   0  0  0  0  0  3  0  0  0  0  0  0
  1 12  1  0  0  0  0
  2  6  1  0  0  0  0
  2 12  1  0  0  0  0
  3 16  1  0  0  0  0
  4 14  1  0  0  0  0
  5 13  2  0  0  0  0
  7 11  1  0  0  0  0
  8 10  1  1  0  0  0
  8 17  1  0  0  0  0
  8 19  1  0  0  0  0
  9 13  1  0  0  0  0
  9  7  2  0  0  0  0
 11 14  2  0  0  0  0
 11 16  1  0  0  0  0
 12 23  1  0  0  0  0
 13  4  1  0  0  0  0
 14 18  1  0  0  0  0
 15 20  1  6  0  0  0
 15  1  1  0  0  0  0
 16  2  2  0  0  0  0
 18  6  2  0  0  0  0
 19 20  2  0  0  0  0
 21 17  1  6  0  0  0
 21  3  1  0  0  0  0
 21 15  1  0  0  0  0
 23 24  2  0  0  0  0
 23 27  1  0  0  0  0
 24 25  1  0  0  0  0
 25 22  2  0  0  0  0
 26 22  1  0  0  0  0
 27 26  2  0  0  0  0
M  END
>  <MODEL>
5

>  <REMARK>
 VINA RESULT:      -7.6      4.618      8.050
  Name = 
  1 active torsions:
  status: ('A' for Active; 'I' for Inactive)
    1  A    between atoms: C_9  and  N_15
                            x       y       z     vdW  Elec       q    Type
                         _______ _______ _______ _____ _____    ______ ____

>  <TORSDO>
F 1

$$$$
=
 OpenBabel10272401053D

 27 31  0  0  1  0  0  0  0  0999 V2000
  187.8730  176.5390  142.7970 C   0  0  0  0  0  2  0  0  0  0  0  0
  190.1980  176.3510  143.6570 C   0  0  0  0  0  0  0  0  0  0  0  0
  189.1090  178.1220  145.0800 C   0  0  0  0  0  2  0  0  0  0  0  0
  192.7410  175.2170  146.7230 N   0  0  0  0  0  2  0  0  0  0  0  0
  193.4820  175.4130  148.8560 O   0  0  0  0  0  0  0  0  0  0  0  0
  191.1380  175.3810  143.4770 N   0  0  0  0  0  0  0  0  0  0  0  0
  190.8880  177.2100  147.2130 C   0  0  0  0  0  3  0  0  0  0  0  0
  185.5070  178.1230  145.8620 C   0  0  2  0  0  3  0  0  0  0  0  0
  191.7610  176.8000  148.2210 C   0  0  0  0  0  3  0  0  0  0  0  0
  184.6660  179.1630  146.5710 C   0  0  0  0  0  1  0  0  0  0  0  0
  190.9460  176.6110  145.9480 C   0  0  0  0  0  0  0  0  0  0  0  0
  189.3110  176.6870  142.5790 N   0  0  0  0  0  0  0  0  0  0  0  0
  192.6900  175.7910  147.9550 C   0  0  0  0  0  0  0  0  0  0  0  0
  191.9010  175.5990  145.7240 C   0  0  0  0  0  0  0  0  0  0  0  0
  187.3070  177.7110  143.5940 C   0  0  1  0  0  3  0  0  0  0  0  0
  190.0860  176.9960  144.9030 C   0  0  0  0  0  0  0  0  0  0  0  0
  186.9590  178.5770  145.8060 C   0  0  0  0  0  2  0  0  0  0  0  0
  191.9820  174.9970  144.4700 C   0  0  0  0  0  3  0  0  0  0  0  0
  184.9780  177.8960  144.4770 C   0  0  0  0  0  3  0  0  0  0  0  0
  185.8020  177.6700  143.4470 C   0  0  0  0  0  3  0  0  0  0  0  0
  187.7380  177.6340  145.0050 N   0  0  2  0  0  0  0  0  0  0  0  0
  190.7790  177.7990  138.7820 N   0  0  0  0  0  0  0  0  0  0  0  0
  189.8140  177.0760  141.2830 C   0  0  0  0  0  0  0  0  0  0  0  0
  188.9530  177.6010  140.3070 C   0  0  0  0  0  3  0  0  0  0  0  0
  189.4580  177.9610  139.0560 C   0  0  0  0  0  3  0  0  0  0  0  0
  191.6380  177.2880  139.7040 C   0  0  0  0  0  3  0  0  0  0  0  0
  191.1710  176.9190  140.9670 C   0  0  0  0  0  3  0  0  0  0  0  0
  2 16  1  0  0  0  0
  4 13  1  0  0  0  0
  6  2  2  0  0  0  0
  6 18  1  0  0  0  0
  7  9  2  0  0  0  0
  8 10  1  6  0  0  0
 11  7  1  0  0  0  0
 12  1  1  0  0  0  0
 12  2  1  0  0  0  0
 13  9  1  0  0  0  0
 13  5  2  0  0  0  0
 14 11  1  0  0  0  0
 14  4  1  0  0  0  0
 15  1  1  6  0  0  0
 15 21  1  0  0  0  0
 16  3  1  0  0  0  0
 16 11  2  0  0  0  0
 17  8  1  0  0  0  0
 18 14  2  0  0  0  0
 19  8  1  0  0  0  0
 20 15  1  0  0  0  0
 20 19  2  0  0  0  0
 21  3  1  6  0  0  0
 21 17  1  0  0  0  0
 22 25  2  0  0  0  0
 22 26  1  0  0  0  0
 23 12  1  0  0  0  0
 24 23  2  0  0  0  0
 25 24  1  0  0  0  0
 26 27  2  0  0  0  0
 27 23  1  0  0  0  0
M  END
>  <MODEL>
6

>  <REMARK>
 VINA RESULT:      -7.2      2.919      6.173
  Name = 
  1 active torsions:
  status: ('A' for Active; 'I' for Inactive)
    1  A    between atoms: C_9  and  N_15
                            x       y       z     vdW  Elec       q    Type
                         _______ _______ _______ _____ _____    ______ ____

>  <TORSDO>
F 1

$$$$
=
 OpenBabel10272401053D

 27 31  0  0  1  0  0  0  0  0999 V2000
  182.7630  178.4220  141.3170 C   0  0  0  0  0  2  0  0  0  0  0  0
  184.3470  178.5320  139.4040 C   0  0  0  0  0  0  0  0  0  0  0  0
  185.6110  179.4870  141.3640 C   0  0  0  0  0  2  0  0  0  0  0  0
  187.8230  177.1550  137.6220 N   0  0  0  0  0  2  0  0  0  0  0  0
  190.0710  176.8670  137.6280 O   0  0  0  0  0  0  0  0  0  0  0  0
  184.3240  177.9100  138.1920 N   0  0  0  0  0  0  0  0  0  0  0  0
  188.0060  178.4160  140.0760 C   0  0  0  0  0  3  0  0  0  0  0  0
  185.0190  178.4100  144.8390 C   0  0  2  0  0  3  0  0  0  0  0  0
  189.1550  177.9380  139.4450 C   0  0  0  0  0  3  0  0  0  0  0  0
  185.5720  178.9620  146.1360 C   0  0  0  0  0  1  0  0  0  0  0  0
  186.7540  178.2580  139.4690 C   0  0  0  0  0  0  0  0  0  0  0  0
  183.1140  178.9600  140.0040 N   0  0  0  0  0  0  0  0  0  0  0  0
  189.0430  177.3020  138.2060 C   0  0  0  0  0  0  0  0  0  0  0  0
  186.6890  177.6120  138.2170 C   0  0  0  0  0  0  0  0  0  0  0  0
  183.5230  179.1330  142.4330 C   0  0  1  0  0  3  0  0  0  0  0  0
  185.5720  178.7270  140.0700 C   0  0  0  0  0  0  0  0  0  0  0  0
  185.5860  179.1860  143.6590 C   0  0  0  0  0  2  0  0  0  0  0  0
  185.4540  177.4530  137.5920 C   0  0  0  0  0  3  0  0  0  0  0  0
  183.5220  178.4940  144.8480 C   0  0  0  0  0  3  0  0  0  0  0  0
  182.8360  178.7870  143.7350 C   0  0  0  0  0  3  0  0  0  0  0  0
  184.9470  178.7370  142.4230 N   0  0  2  0  0  0  0  0  0  0  0  0
  180.4240  181.5070  137.9820 N   0  0  0  0  0  0  0  0  0  0  0  0
  182.1980  179.8280  139.3040 C   0  0  0  0  0  0  0  0  0  0  0  0
  182.6200  181.0730  138.8120 C   0  0  0  0  0  3  0  0  0  0  0  0
  181.7140  181.9020  138.1480 C   0  0  0  0  0  3  0  0  0  0  0  0
  179.9820  180.3100  138.4510 C   0  0  0  0  0  3  0  0  0  0  0  0
  180.8590  179.4520  139.1190 C   0  0  0  0  0  3  0  0  0  0  0  0
  2 12  1  0  0  0  0
  2 16  1  0  0  0  0
  4 13  1  0  0  0  0
  4 14  1  0  0  0  0
  5 13  2  0  0  0  0
  6  2  2  0  0  0  0
  8 19  1  0  0  0  0
  8 10  1  1  0  0  0
  9  7  2  0  0  0  0
 11 16  2  0  0  0  0
 11  7  1  0  0  0  0
 12  1  1  0  0  0  0
 13  9  1  0  0  0  0
 14 11  1  0  0  0  0
 15  1  1  6  0  0  0
 15 20  1  0  0  0  0
 16  3  1  0  0  0  0
 17  8  1  0  0  0  0
 18  6  1  0  0  0  0
 18 14  2  0  0  0  0
 20 19  2  0  0  0  0
 21  3  1  6  0  0  0
 21 15  1  0  0  0  0
 21 17  1  0  0  0  0
 22 25  2  0  0  0  0
 22 26  1  0  0  0  0
 23 12  1  0  0  0  0
 24 23  2  0  0  0  0
 25 24  1  0  0  0  0
 26 27  2  0  0  0  0
 27 23  1  0  0  0  0
M  END
>  <MODEL>
7

>  <REMARK>
 VINA RESULT:      -7.1      3.403      6.415
  Name = 
  1 active torsions:
  status: ('A' for Active; 'I' for Inactive)
    1  A    between atoms: C_9  and  N_15
                            x       y       z     vdW  Elec       q    Type
                         _______ _______ _______ _____ _____    ______ ____

>  <TORSDO>
F 1

$$$$
=
 OpenBabel10272401053D

 27 31  0  0  1  0  0  0  0  0999 V2000
  187.9160  176.6390  143.9970 C   0  0  0  0  0  2  0  0  0  0  0  0
  188.7970  177.2020  141.7410 C   0  0  0  0  0  0  0  0  0  0  0  0
  190.4630  178.1750  143.3620 C   0  0  0  0  0  2  0  0  0  0  0  0
  191.7010  176.6240  138.8460 N   0  0  0  0  0  2  0  0  0  0  0  0
  193.8570  176.7330  138.1540 O   0  0  0  0  0  0  0  0  0  0  0  0
  188.4840  176.7010  140.5130 N   0  0  0  0  0  0  0  0  0  0  0  0
  192.4630  177.6630  141.2930 C   0  0  0  0  0  3  0  0  0  0  0  0
  191.1340  176.6920  146.6690 C   0  0  2  0  0  3  0  0  0  0  0  0
  193.4130  177.4530  140.2920 C   0  0  0  0  0  3  0  0  0  0  0  0
  191.9820  177.2080  147.8120 C   0  0  0  0  0  1  0  0  0  0  0  0
  191.1180  177.3460  141.0610 C   0  0  0  0  0  0  0  0  0  0  0  0
  187.7640  177.3510  142.7290 N   0  0  0  0  0  0  0  0  0  0  0  0
  193.0100  176.9270  139.0630 C   0  0  0  0  0  0  0  0  0  0  0  0
  190.7570  176.8190  139.8050 C   0  0  0  0  0  0  0  0  0  0  0  0
  188.8800  177.3640  144.9310 C   0  0  1  0  0  3  0  0  0  0  0  0
  190.1290  177.5440  142.0410 C   0  0  0  0  0  0  0  0  0  0  0  0
  191.1940  177.6610  145.4970 C   0  0  0  0  0  2  0  0  0  0  0  0
  189.4230  176.5060  139.5500 C   0  0  0  0  0  3  0  0  0  0  0  0
  189.7170  176.5120  147.1250 C   0  0  0  0  0  3  0  0  0  0  0  0
  188.6860  176.7840  146.3150 C   0  0  0  0  0  3  0  0  0  0  0  0
  190.2700  177.2260  144.4510 N   0  0  2  0  0  0  0  0  0  0  0  0
  184.2460  179.5390  141.9280 N   0  0  0  0  0  0  0  0  0  0  0  0
  186.5650  178.1070  142.4580 C   0  0  0  0  0  0  0  0  0  0  0  0
  185.6600  178.4100  143.4860 C   0  0  0  0  0  3  0  0  0  0  0  0
  184.5000  179.1330  143.2000 C   0  0  0  0  0  3  0  0  0  0  0  0
  185.1000  179.2560  140.9080 C   0  0  0  0  0  3  0  0  0  0  0  0
  186.2720  178.5370  141.1550 C   0  0  0  0  0  3  0  0  0  0  0  0
  2 16  1  0  0  0  0
  2 12  1  0  0  0  0
  4 13  1  0  0  0  0
  4 14  1  0  0  0  0
  5 13  2  0  0  0  0
  6  2  2  0  0  0  0
  8 19  1  0  0  0  0
  8 10  1  1  0  0  0
  9  7  2  0  0  0  0
 11  7  1  0  0  0  0
 11 16  2  0  0  0  0
 12  1  1  0  0  0  0
 13  9  1  0  0  0  0
 14 11  1  0  0  0  0
 15  1  1  6  0  0  0
 15 20  1  0  0  0  0
 16  3  1  0  0  0  0
 17  8  1  0  0  0  0
 18 14  2  0  0  0  0
 18  6  1  0  0  0  0
 20 19  2  0  0  0  0
 21  3  1  6  0  0  0
 21 15  1  0  0  0  0
 21 17  1  0  0  0  0
 22 25  1  0  0  0  0
 23 12  1  0  0  0  0
 23 24  1  0  0  0  0
 25 24  2  0  0  0  0
 26 27  1  0  0  0  0
 26 22  2  0  0  0  0
 27 23  2  0  0  0  0
M  END
>  <MODEL>
8

>  <REMARK>
 VINA RESULT:      -7.0      3.188      6.328
  Name = 
  1 active torsions:
  status: ('A' for Active; 'I' for Inactive)
    1  A    between atoms: C_9  and  N_15
                            x       y       z     vdW  Elec       q    Type
                         _______ _______ _______ _____ _____    ______ ____

>  <TORSDO>
F 1

$$$$
=
 OpenBabel10272401053D

 27 31  0  0  1  0  0  0  0  0999 V2000
  187.8380  176.6010  143.4200 C   0  0  0  0  0  2  0  0  0  0  0  0
  185.7750  177.9460  143.0750 C   0  0  0  0  0  0  0  0  0  0  0  0
  187.4540  178.8820  141.4450 C   0  0  0  0  0  2  0  0  0  0  0  0
  182.5900  178.9500  140.6260 N   0  0  0  0  0  2  0  0  0  0  0  0
  181.7710  179.8170  138.6980 O   0  0  0  0  0  0  0  0  0  0  0  0
  184.4880  177.7150  143.4550 N   0  0  0  0  0  0  0  0  0  0  0  0
  185.1560  179.4880  139.7440 C   0  0  0  0  0  3  0  0  0  0  0  0
  190.1090  176.8340  139.9150 C   0  0  2  0  0  3  0  0  0  0  0  0
  184.0570  179.8110  138.9470 C   0  0  0  0  0  3  0  0  0  0  0  0
  191.2730  177.2470  139.0400 C   0  0  0  0  0  1  0  0  0  0  0  0
  184.9630  178.8880  140.9950 C   0  0  0  0  0  0  0  0  0  0  0  0
  186.8510  177.5470  143.9390 N   0  0  0  0  0  0  0  0  0  0  0  0
  182.7690  179.5310  139.4080 C   0  0  0  0  0  0  0  0  0  0  0  0
  183.6450  178.6260  141.4210 C   0  0  0  0  0  0  0  0  0  0  0  0
  188.8530  177.2930  142.5160 C   0  0  1  0  0  3  0  0  0  0  0  0
  186.0420  178.5480  141.8310 C   0  0  0  0  0  0  0  0  0  0  0  0
  189.2720  178.0520  140.2770 C   0  0  0  0  0  2  0  0  0  0  0  0
  183.4300  178.0380  142.6660 C   0  0  0  0  0  3  0  0  0  0  0  0
  190.6180  176.1630  141.1560 C   0  0  0  0  0  3  0  0  0  0  0  0
  190.0180  176.3450  142.3400 C   0  0  0  0  0  3  0  0  0  0  0  0
  188.2310  177.6680  141.2290 N   0  0  2  0  0  0  0  0  0  0  0  0
  187.0390  178.8260  147.9560 N   0  0  0  0  0  0  0  0  0  0  0  0
  186.9210  177.9920  145.3100 C   0  0  0  0  0  0  0  0  0  0  0  0
  187.9950  177.6180  146.1330 C   0  0  0  0  0  3  0  0  0  0  0  0
  188.0370  178.0490  147.4600 C   0  0  0  0  0  3  0  0  0  0  0  0
  185.9820  179.2020  147.1870 C   0  0  0  0  0  3  0  0  0  0  0  0
  185.9050  178.7910  145.8540 C   0  0  0  0  0  3  0  0  0  0  0  0
  1 12  1  0  0  0  0
  2  6  1  0  0  0  0
  2 12  1  0  0  0  0
  3 16  1  0  0  0  0
  4 14  1  0  0  0  0
  5 13  2  0  0  0  0
  7 11  1  0  0  0  0
  8 10  1  6  0  0  0
  8 17  1  0  0  0  0
  8 19  1  0  0  0  0
  9 13  1  0  0  0  0
  9  7  2  0  0  0  0
 11 14  2  0  0  0  0
 11 16  1  0  0  0  0
 12 23  1  0  0  0  0
 13  4  1  0  0  0  0
 14 18  1  0  0  0  0
 15 20  1  6  0  0  0
 15  1  1  0  0  0  0
 16  2  2  0  0  0  0
 18  6  2  0  0  0  0
 19 20  2  0  0  0  0
 21 17  1  6  0  0  0
 21  3  1  0  0  0  0
 21 15  1  0  0  0  0
 23 27  2  0  0  0  0
 23 24  1  0  0  0  0
 24 25  2  0  0  0  0
 25 22  1  0  0  0  0
 26 22  2  0  0  0  0
 27 26  1  0  0  0  0
M  END
>  <MODEL>
9

>  <REMARK>
 VINA RESULT:      -6.9      2.734      5.840
  Name = 
  1 active torsions:
  status: ('A' for Active; 'I' for Inactive)
    1  A    between atoms: C_9  and  N_15
                            x       y       z     vdW  Elec       q    Type
                         _______ _______ _______ _____ _____    ______ ____

>  <TORSDO>
F 1

$$$$
