=
 OpenBabel10272414463D

 37 41  0  0  1  0  0  0  0  0999 V2000
  185.3430  176.8790  137.4900 C   0  0  0  0  0  2  0  0  0  0  0  0
  186.7750  178.5890  141.2170 C   0  0  0  0  0  0  0  0  0  0  0  0
  184.9030  178.3720  139.5750 C   0  0  2  0  0  3  0  0  0  0  0  0
  188.2620  178.5270  141.3280 C   0  0  2  0  0  3  0  0  0  0  0  0
  186.3410  178.1960  140.0210 C   0  0  0  0  0  0  0  0  0  0  0  0
  183.9560  178.5060  140.7700 C   0  0  0  0  0  2  0  0  0  0  0  0
  187.4780  177.8800  139.1040 C   0  0  1  0  0  3  0  0  0  0  0  0
  187.9980  179.3870  137.3390 O   0  0  0  0  0  0  0  0  0  0  0  0
  184.5120  179.5150  141.7720 C   0  0  0  0  0  2  0  0  0  0  0  0
  187.2620  178.5000  137.7430 C   0  0  0  0  0  0  0  0  0  0  0  0
  185.8530  179.0280  142.3250 C   0  0  0  0  0  2  0  0  0  0  0  0
  188.7070  178.4060  139.8560 C   0  0  0  0  0  2  0  0  0  0  0  0
  184.4020  177.2610  138.6430 C   0  0  0  0  0  2  0  0  0  0  0  0
  186.1020  178.0630  136.8830 C   0  0  0  0  0  2  0  0  0  0  0  0
  190.4070  177.8350  138.5220 O   0  0  0  0  0  0  0  0  0  0  0  0
  190.8310  177.3300  138.4820 N   0  0  0  0  0  2  0  0  0  0  0  0
  189.9280  177.5680  139.6430 C   0  0  0  0  0  1  0  0  0  0  0  0
  191.8520  176.1100  138.4660 C   0  0  1  0  0  3  0  0  0  0  0  0
  192.3160  174.1060  137.2550 O   0  0  0  0  0  0  0  0  0  0  0  0
  190.4160  173.8260  136.0180 O   0  0  0  0  0  1  0  0  0  0  0  0
  191.7610  175.3930  137.1330 C   0  0  1  0  0  3  0  0  0  0  0  0
  190.9110  174.1910  137.2690 C   0  0  2  0  0  3  0  0  0  0  0  0
  193.2760  176.6030  138.6790 C   0  0  0  0  0  2  0  0  0  0  0  0
  193.4290  177.2030  140.0650 C   0  0  0  0  0  1  0  0  0  0  0  0
  188.7670  177.4070  142.2780 C   0  0  2  0  0  3  0  0  0  0  0  0
  189.8410  179.2640  143.7020 C   0  0  0  0  0  2  0  0  0  0  0  0
  189.3630  177.8740  143.6360 C   0  0  2  0  0  0  0  0  0  0  0  0
  191.2040  178.0170  143.6670 S   0  0  0  0  0  0  0  0  0  0  0  0
  187.2520  177.2720  145.0300 C   0  0  0  0  0  2  0  0  0  0  0  0
  188.7890  177.2480  144.9210 C   0  0  0  0  0  3  0  0  0  0  0  0
  188.9620  177.1850  147.4610 C   0  0  0  0  0  2  0  0  0  0  0  0
  189.5560  177.7160  146.1650 C   0  0  0  0  0  2  0  0  0  0  0  0
  186.6100  178.1030  147.2880 C   0  0  0  0  0  2  0  0  0  0  0  0
  187.9540  178.1880  148.0050 C   0  0  0  0  0  2  0  0  0  0  0  0
  186.7170  178.4640  145.8120 C   0  0  0  0  0  2  0  0  0  0  0  0
  189.6520  176.4280  141.5090 C   0  0  0  0  0  2  0  0  0  0  0  0
  190.3010  175.4410  142.4630 C   0  0  0  0  0  1  0  0  0  0  0  0
  1 13  1  0  0  0  0
  2  4  1  0  0  0  0
  2 11  1  0  0  0  0
  3 13  1  1  0  0  0
  3  5  1  0  0  0  0
  3  6  1  0  0  0  0
  4 25  1  1  0  0  0
  5  2  2  0  0  0  0
  6  9  1  0  0  0  0
  7 12  1  1  0  0  0
  7  5  1  0  0  0  0
  8 10  2  0  0  0  0
  9 11  1  0  0  0  0
 10  7  1  0  0  0  0
 12  4  1  0  0  0  0
 14  1  1  0  0  0  0
 14 10  1  0  0  0  0
 15 17  1  0  0  0  0
 16 15  1  0  0  0  0
 18 16  1  0  0  0  0
 18 23  1  6  0  0  0
 19 22  1  0  0  0  0
 21 19  1  0  0  0  0
 21 22  1  0  0  0  0
 21 18  1  1  0  0  0
 22 20  1  6  0  0  0
 23 24  1  0  0  0  0
 25 36  1  6  0  0  0
 27 25  1  6  0  0  0
 27 28  1  0  0  0  0
 27 26  1  0  0  0  0
 27 30  1  0  0  0  0
 28 26  1  0  0  0  0
 29 35  1  0  0  0  0
 30 29  1  0  0  0  0
 30 32  1  0  0  0  0
 31 34  1  0  0  0  0
 32 31  1  0  0  0  0
 33 34  1  0  0  0  0
 35 33  1  0  0  0  0
 36 37  1  0  0  0  0
M  END
>  <MODEL>
1

>  <REMARK>
 VINA RESULT:      -7.1      0.000      0.000
  Name = 
  8 active torsions:
  status: ('A' for Active; 'I' for Inactive)
    1  A    between atoms: C_6  and  C_31
    2  A    between atoms: C_7  and  C_14
    3  A    between atoms: C_10  and  C_14
    4  A    between atoms: C_11  and  C_26
    5  A    between atoms: C_14  and  C_31
    6  A    between atoms: C_17  and  C_26
    7  A    between atoms: C_26  and  N_33
    8  A    between atoms: C_29  and  C_36
                            x       y       z     vdW  Elec       q    Type
                         _______ _______ _______ _____ _____    ______ ____

>  <TORSDO>
F 8

$$$$
=
 OpenBabel10272414463D

 37 41  0  0  1  0  0  0  0  0999 V2000
  182.3290  177.3020  139.0990 C   0  0  0  0  0  2  0  0  0  0  0  0
  183.6800  178.8100  142.9420 C   0  0  0  0  0  0  0  0  0  0  0  0
  181.7760  178.4660  141.3590 C   0  0  2  0  0  3  0  0  0  0  0  0
  185.1620  178.9830  142.9870 C   0  0  2  0  0  3  0  0  0  0  0  0
  183.2480  178.4830  141.7260 C   0  0  0  0  0  0  0  0  0  0  0  0
  180.8900  178.3110  142.5980 C   0  0  0  0  0  2  0  0  0  0  0  0
  184.3660  178.4600  140.7350 C   0  0  1  0  0  3  0  0  0  0  0  0
  184.5360  180.2160  139.1380 O   0  0  0  0  0  0  0  0  0  0  0  0
  181.3340  179.2830  143.6880 C   0  0  0  0  0  2  0  0  0  0  0  0
  183.9760  179.1810  139.4650 C   0  0  0  0  0  0  0  0  0  0  0  0
  182.7650  178.9670  144.1290 C   0  0  0  0  0  2  0  0  0  0  0  0
  185.5360  179.0980  141.4950 C   0  0  0  0  0  2  0  0  0  0  0  0
  181.4070  177.3960  140.3250 C   0  0  0  0  0  2  0  0  0  0  0  0
  182.8530  178.6540  138.6050 C   0  0  0  0  0  2  0  0  0  0  0  0
  187.1460  178.8290  139.9680 O   0  0  0  0  0  0  0  0  0  0  0  0
  187.6520  178.4130  139.8780 N   0  0  0  0  0  2  0  0  0  0  0  0
  186.8610  178.5010  141.1380 C   0  0  0  0  0  1  0  0  0  0  0  0
  188.8770  177.4080  139.7420 C   0  0  1  0  0  3  0  0  0  0  0  0
  190.0260  176.1370  138.0790 O   0  0  0  0  0  0  0  0  0  0  0  0
  188.6410  176.3220  136.2720 O   0  0  0  0  0  1  0  0  0  0  0  0
  189.3020  177.3260  138.2880 C   0  0  1  0  0  3  0  0  0  0  0  0
  188.6840  176.1410  137.6540 C   0  0  2  0  0  3  0  0  0  0  0  0
  190.0510  177.8820  140.5860 C   0  0  0  0  0  2  0  0  0  0  0  0
  190.5160  176.7780  141.5180 C   0  0  0  0  0  1  0  0  0  0  0  0
  185.8940  177.8660  143.7800 C   0  0  2  0  0  3  0  0  0  0  0  0
  184.7610  178.2400  146.0620 C   0  0  0  0  0  2  0  0  0  0  0  0
  186.0180  178.0800  145.3140 C   0  0  2  0  0  0  0  0  0  0  0  0
  185.7160  179.8110  145.8830 S   0  0  0  0  0  0  0  0  0  0  0  0
  187.0190  177.2110  147.5520 C   0  0  0  0  0  2  0  0  0  0  0  0
  187.2040  177.4110  146.0350 C   0  0  0  0  0  3  0  0  0  0  0  0
  189.7300  177.4400  146.3530 C   0  0  0  0  0  2  0  0  0  0  0  0
  188.5430  178.0190  145.5980 C   0  0  0  0  0  2  0  0  0  0  0  0
  189.0660  177.9970  148.7310 C   0  0  0  0  0  2  0  0  0  0  0  0
  190.0190  178.2970  147.5780 C   0  0  0  0  0  2  0  0  0  0  0  0
  187.6200  178.3300  148.3900 C   0  0  0  0  0  2  0  0  0  0  0  0
  187.2080  177.5080  143.0890 C   0  0  0  0  0  2  0  0  0  0  0  0
  187.5790  176.0640  143.3750 C   0  0  0  0  0  1  0  0  0  0  0  0
  1 13  1  0  0  0  0
  2  4  1  0  0  0  0
  2 11  1  0  0  0  0
  3 13  1  6  0  0  0
  3  5  1  0  0  0  0
  3  6  1  0  0  0  0
  4 25  1  6  0  0  0
  5  2  2  0  0  0  0
  6  9  1  0  0  0  0
  7 12  1  1  0  0  0
  7  5  1  0  0  0  0
  8 10  2  0  0  0  0
  9 11  1  0  0  0  0
 10  7  1  0  0  0  0
 12  4  1  0  0  0  0
 14  1  1  0  0  0  0
 14 10  1  0  0  0  0
 15 17  1  0  0  0  0
 16 15  1  0  0  0  0
 18 16  1  0  0  0  0
 18 23  1  1  0  0  0
 19 21  1  0  0  0  0
 21 18  1  1  0  0  0
 22 20  1  6  0  0  0
 22 19  1  0  0  0  0
 22 21  1  0  0  0  0
 23 24  1  0  0  0  0
 25 36  1  6  0  0  0
 27 25  1  6  0  0  0
 27 28  1  0  0  0  0
 27 30  1  0  0  0  0
 27 26  1  0  0  0  0
 28 26  1  0  0  0  0
 29 35  1  0  0  0  0
 30 29  1  0  0  0  0
 31 34  1  0  0  0  0
 32 30  1  0  0  0  0
 32 31  1  0  0  0  0
 34 33  1  0  0  0  0
 35 33  1  0  0  0  0
 36 37  1  0  0  0  0
M  END
>  <MODEL>
2

>  <REMARK>
 VINA RESULT:      -7.1      2.348      3.482
  Name = 
  8 active torsions:
  status: ('A' for Active; 'I' for Inactive)
    1  A    between atoms: C_6  and  C_31
    2  A    between atoms: C_7  and  C_14
    3  A    between atoms: C_10  and  C_14
    4  A    between atoms: C_11  and  C_26
    5  A    between atoms: C_14  and  C_31
    6  A    between atoms: C_17  and  C_26
    7  A    between atoms: C_26  and  N_33
    8  A    between atoms: C_29  and  C_36
                            x       y       z     vdW  Elec       q    Type
                         _______ _______ _______ _____ _____    ______ ____

>  <TORSDO>
F 8

$$$$
=
 OpenBabel10272414463D

 37 41  0  0  1  0  0  0  0  0999 V2000
  189.8820  175.8510  138.4100 C   0  0  0  0  0  2  0  0  0  0  0  0
  186.2210  177.4330  136.6890 C   0  0  0  0  0  0  0  0  0  0  0  0
  188.5520  176.6140  136.3080 C   0  0  2  0  0  3  0  0  0  0  0  0
  185.3450  178.0650  137.7190 C   0  0  2  0  0  3  0  0  0  0  0  0
  187.4030  177.0730  137.1850 C   0  0  0  0  0  0  0  0  0  0  0  0
  188.0560  176.0980  134.9560 C   0  0  0  0  0  2  0  0  0  0  0  0
  187.5420  177.4780  138.6170 C   0  0  1  0  0  3  0  0  0  0  0  0
  188.9600  179.3060  139.1720 O   0  0  0  0  0  0  0  0  0  0  0  0
  187.0550  177.0800  134.3520 C   0  0  0  0  0  2  0  0  0  0  0  0
  188.8850  178.1260  138.8670 C   0  0  0  0  0  0  0  0  0  0  0  0
  185.8250  177.2050  135.2530 C   0  0  0  0  0  2  0  0  0  0  0  0
  186.3380  178.3990  138.8510 C   0  0  0  0  0  2  0  0  0  0  0  0
  189.4510  175.5590  136.9650 C   0  0  0  0  0  2  0  0  0  0  0  0
  190.1560  177.3310  138.6940 C   0  0  0  0  0  2  0  0  0  0  0  0
  186.0150  179.3350  140.8550 O   0  0  0  0  0  0  0  0  0  0  0  0
  185.8530  179.1220  141.4590 N   0  0  0  0  0  2  0  0  0  0  0  0
  185.7700  178.2820  140.2300 C   0  0  0  0  0  1  0  0  0  0  0  0
  185.4180  178.5510  142.8790 C   0  0  1  0  0  3  0  0  0  0  0  0
  186.3720  177.2940  144.6700 O   0  0  0  0  0  0  0  0  0  0  0  0
  188.4480  176.7840  143.8630 O   0  0  0  0  0  1  0  0  0  0  0  0
  186.6540  178.2910  143.7180 C   0  0  1  0  0  3  0  0  0  0  0  0
  187.0980  176.8920  143.5320 C   0  0  2  0  0  3  0  0  0  0  0  0
  184.5180  179.5450  143.5990 C   0  0  0  0  0  2  0  0  0  0  0  0
  183.3900  178.8210  144.3110 C   0  0  0  0  0  1  0  0  0  0  0  0
  184.1310  177.1850  138.1260 C   0  0  2  0  0  3  0  0  0  0  0  0
  183.0650  177.4730  135.8000 C   0  0  0  0  0  2  0  0  0  0  0  0
  183.2870  176.5970  136.9610 C   0  0  2  0  0  0  0  0  0  0  0  0
  181.5610  177.2440  136.8490 S   0  0  0  0  0  0  0  0  0  0  0  0
  184.2170  174.2950  137.7350 C   0  0  0  0  0  2  0  0  0  0  0  0
  183.3760  175.0790  136.7100 C   0  0  0  0  0  3  0  0  0  0  0  0
  183.8380  173.2830  134.9650 C   0  0  0  0  0  2  0  0  0  0  0  0
  183.6590  174.7690  135.2340 C   0  0  0  0  0  2  0  0  0  0  0  0
  185.7690  172.7730  136.5210 C   0  0  0  0  0  2  0  0  0  0  0  0
  185.3140  172.9220  135.0720 C   0  0  0  0  0  2  0  0  0  0  0  0
  185.6590  174.0770  137.3000 C   0  0  0  0  0  2  0  0  0  0  0  0
  183.3080  177.8930  139.2000 C   0  0  0  0  0  2  0  0  0  0  0  0
  182.7690  176.8870  140.2000 C   0  0  0  0  0  1  0  0  0  0  0  0
  1 14  1  0  0  0  0
  2  5  2  0  0  0  0
  2  4  1  0  0  0  0
  3  6  1  6  0  0  0
  3 13  1  0  0  0  0
  3  5  1  0  0  0  0
  4 25  1  1  0  0  0
  4 12  1  0  0  0  0
  5  7  1  0  0  0  0
  7 12  1  6  0  0  0
  7 10  1  0  0  0  0
  9  6  1  0  0  0  0
  9 11  1  0  0  0  0
 10  8  2  0  0  0  0
 11  2  1  0  0  0  0
 13  1  1  0  0  0  0
 14 10  1  0  0  0  0
 15 16  1  0  0  0  0
 16 18  1  0  0  0  0
 17 15  1  0  0  0  0
 18 23  1  1  0  0  0
 21 18  1  6  0  0  0
 21 19  1  0  0  0  0
 22 21  1  0  0  0  0
 22 20  1  1  0  0  0
 22 19  1  0  0  0  0
 23 24  1  0  0  0  0
 25 36  1  1  0  0  0
 26 28  1  0  0  0  0
 26 27  1  0  0  0  0
 27 25  1  1  0  0  0
 28 27  1  0  0  0  0
 30 27  1  0  0  0  0
 30 29  1  0  0  0  0
 31 34  1  0  0  0  0
 31 32  1  0  0  0  0
 32 30  1  0  0  0  0
 33 35  1  0  0  0  0
 34 33  1  0  0  0  0
 35 29  1  0  0  0  0
 36 37  1  0  0  0  0
M  END
>  <MODEL>
3

>  <REMARK>
 VINA RESULT:      -7.0      3.551      8.219
  Name = 
  8 active torsions:
  status: ('A' for Active; 'I' for Inactive)
    1  A    between atoms: C_6  and  C_31
    2  A    between atoms: C_7  and  C_14
    3  A    between atoms: C_10  and  C_14
    4  A    between atoms: C_11  and  C_26
    5  A    between atoms: C_14  and  C_31
    6  A    between atoms: C_17  and  C_26
    7  A    between atoms: C_26  and  N_33
    8  A    between atoms: C_29  and  C_36
                            x       y       z     vdW  Elec       q    Type
                         _______ _______ _______ _____ _____    ______ ____

>  <TORSDO>
F 8

$$$$
=
 OpenBabel10272414463D

 37 41  0  0  1  0  0  0  0  0999 V2000
  182.7410  177.4400  140.3300 C   0  0  0  0  0  2  0  0  0  0  0  0
  185.6300  178.7450  143.3000 C   0  0  0  0  0  0  0  0  0  0  0  0
  183.2410  178.6710  142.5670 C   0  0  2  0  0  3  0  0  0  0  0  0
  187.0270  178.7080  142.7760 C   0  0  2  0  0  3  0  0  0  0  0  0
  184.7310  178.4810  142.3540 C   0  0  0  0  0  0  0  0  0  0  0  0
  182.8780  178.6430  144.0540 C   0  0  0  0  0  2  0  0  0  0  0  0
  185.3770  178.3020  141.0180 C   0  0  1  0  0  3  0  0  0  0  0  0
  185.1560  180.0150  139.3830 O   0  0  0  0  0  0  0  0  0  0  0  0
  183.8240  179.5430  144.8440 C   0  0  0  0  0  2  0  0  0  0  0  0
  184.6320  179.0690  139.9510 C   0  0  0  0  0  0  0  0  0  0  0  0
  185.2610  179.0300  144.7330 C   0  0  0  0  0  2  0  0  0  0  0  0
  186.8200  178.7690  141.2490 C   0  0  0  0  0  2  0  0  0  0  0  0
  182.3720  177.6630  141.8050 C   0  0  0  0  0  2  0  0  0  0  0  0
  183.2100  178.7050  139.6040 C   0  0  0  0  0  2  0  0  0  0  0  0
  188.1720  178.6770  139.4720 O   0  0  0  0  0  0  0  0  0  0  0  0
  188.4860  178.2010  139.1370 N   0  0  0  0  0  2  0  0  0  0  0  0
  187.8220  177.9920  140.4550 C   0  0  0  0  0  1  0  0  0  0  0  0
  189.2520  177.0170  138.4020 C   0  0  1  0  0  3  0  0  0  0  0  0
  189.3510  175.7860  136.3590 O   0  0  0  0  0  0  0  0  0  0  0  0
  187.1520  175.6570  135.7530 O   0  0  0  0  0  1  0  0  0  0  0  0
  188.7300  176.8830  136.9840 C   0  0  1  0  0  3  0  0  0  0  0  0
  188.0380  175.5860  136.8270 C   0  0  2  0  0  3  0  0  0  0  0  0
  190.7480  177.2910  138.3660 C   0  0  0  0  0  2  0  0  0  0  0  0
  191.3900  176.9130  139.6880 C   0  0  0  0  0  1  0  0  0  0  0  0
  187.8530  177.4990  143.2960 C   0  0  2  0  0  3  0  0  0  0  0  0
  189.6610  179.1680  144.0560 C   0  0  0  0  0  2  0  0  0  0  0  0
  189.0580  177.8350  144.2190 C   0  0  2  0  0  0  0  0  0  0  0  0
  190.7060  177.7990  143.3860 S   0  0  0  0  0  0  0  0  0  0  0  0
  187.7370  177.2250  146.3740 C   0  0  0  0  0  2  0  0  0  0  0  0
  189.0820  177.2010  145.6220 C   0  0  0  0  0  3  0  0  0  0  0  0
  190.3180  177.1200  147.8470 C   0  0  0  0  0  2  0  0  0  0  0  0
  190.3070  177.6600  146.4250 C   0  0  0  0  0  2  0  0  0  0  0  0
  188.1180  178.0410  148.6960 C   0  0  0  0  0  2  0  0  0  0  0  0
  189.6400  178.1200  148.7750 C   0  0  0  0  0  2  0  0  0  0  0  0
  187.5890  178.4120  147.3170 C   0  0  0  0  0  2  0  0  0  0  0  0
  188.1920  176.5600  142.1400 C   0  0  0  0  0  2  0  0  0  0  0  0
  189.1560  175.4830  142.6000 C   0  0  0  0  0  1  0  0  0  0  0  0
  1 13  1  0  0  0  0
  2 11  1  0  0  0  0
  3 13  1  6  0  0  0
  3  6  1  0  0  0  0
  4 25  1  6  0  0  0
  4  2  1  0  0  0  0
  5  3  1  0  0  0  0
  5  2  2  0  0  0  0
  6  9  1  0  0  0  0
  7 12  1  1  0  0  0
  7  5  1  0  0  0  0
  8 10  2  0  0  0  0
 10  7  1  0  0  0  0
 11  9  1  0  0  0  0
 12  4  1  0  0  0  0
 14 10  1  0  0  0  0
 14  1  1  0  0  0  0
 15 17  1  0  0  0  0
 16 15  1  0  0  0  0
 18 23  1  6  0  0  0
 18 16  1  0  0  0  0
 19 22  1  0  0  0  0
 19 21  1  0  0  0  0
 21 18  1  1  0  0  0
 22 20  1  6  0  0  0
 22 21  1  0  0  0  0
 23 24  1  0  0  0  0
 25 36  1  6  0  0  0
 26 27  1  0  0  0  0
 27 25  1  6  0  0  0
 27 30  1  0  0  0  0
 28 26  1  0  0  0  0
 28 27  1  0  0  0  0
 29 35  1  0  0  0  0
 30 29  1  0  0  0  0
 30 32  1  0  0  0  0
 31 34  1  0  0  0  0
 32 31  1  0  0  0  0
 33 34  1  0  0  0  0
 35 33  1  0  0  0  0
 36 37  1  0  0  0  0
M  END
>  <MODEL>
4

>  <REMARK>
 VINA RESULT:      -7.0      1.819      2.600
  Name = 
  8 active torsions:
  status: ('A' for Active; 'I' for Inactive)
    1  A    between atoms: C_6  and  C_31
    2  A    between atoms: C_7  and  C_14
    3  A    between atoms: C_10  and  C_14
    4  A    between atoms: C_11  and  C_26
    5  A    between atoms: C_14  and  C_31
    6  A    between atoms: C_17  and  C_26
    7  A    between atoms: C_26  and  N_33
    8  A    between atoms: C_29  and  C_36
                            x       y       z     vdW  Elec       q    Type
                         _______ _______ _______ _____ _____    ______ ____

>  <TORSDO>
F 8

$$$$
=
 OpenBabel10272414463D

 37 41  0  0  1  0  0  0  0  0999 V2000
  183.0200  177.2630  139.8400 C   0  0  0  0  0  2  0  0  0  0  0  0
  185.8050  178.7260  142.8350 C   0  0  0  0  0  0  0  0  0  0  0  0
  183.4330  178.5400  142.0690 C   0  0  2  0  0  3  0  0  0  0  0  0
  187.2110  178.7440  142.3330 C   0  0  2  0  0  3  0  0  0  0  0  0
  184.9330  178.4130  141.8800 C   0  0  0  0  0  0  0  0  0  0  0  0
  183.0490  178.5140  143.5500 C   0  0  0  0  0  2  0  0  0  0  0  0
  185.6070  178.2460  140.5560 C   0  0  1  0  0  3  0  0  0  0  0  0
  185.3370  179.9300  138.8970 O   0  0  0  0  0  0  0  0  0  0  0  0
  183.9440  179.4630  144.3440 C   0  0  0  0  0  2  0  0  0  0  0  0
  184.8460  178.9680  139.4680 C   0  0  0  0  0  0  0  0  0  0  0  0
  185.4030  179.0110  144.2590 C   0  0  0  0  0  2  0  0  0  0  0  0
  187.0240  178.7780  140.8030 C   0  0  0  0  0  2  0  0  0  0  0  0
  182.6200  177.4870  141.3060 C   0  0  0  0  0  2  0  0  0  0  0  0
  183.4450  178.5390  139.1060 C   0  0  0  0  0  2  0  0  0  0  0  0
  188.5360  178.7930  139.1560 O   0  0  0  0  0  0  0  0  0  0  0  0
  188.8650  178.3380  138.8080 N   0  0  0  0  0  2  0  0  0  0  0  0
  188.0700  178.0350  140.0320 C   0  0  0  0  0  1  0  0  0  0  0  0
  189.6560  177.1950  138.0350 C   0  0  1  0  0  3  0  0  0  0  0  0
  191.2350  175.4580  138.4690 O   0  0  0  0  0  0  0  0  0  0  0  0
  193.1800  176.6220  138.7620 O   0  0  0  0  0  1  0  0  0  0  0  0
  190.8390  176.7470  138.8720 C   0  0  1  0  0  3  0  0  0  0  0  0
  192.0150  176.5340  138.0020 C   0  0  2  0  0  3  0  0  0  0  0  0
  188.7470  176.0050  137.7660 C   0  0  0  0  0  2  0  0  0  0  0  0
  187.6640  176.3770  136.7700 C   0  0  0  0  0  1  0  0  0  0  0  0
  188.0800  177.5780  142.8790 C   0  0  2  0  0  3  0  0  0  0  0  0
  189.6590  179.3280  143.9140 C   0  0  0  0  0  2  0  0  0  0  0  0
  189.1370  177.9530  143.9550 C   0  0  2  0  0  0  0  0  0  0  0  0
  190.8720  178.0620  143.3320 S   0  0  0  0  0  0  0  0  0  0  0  0
  187.6360  177.2880  145.9720 C   0  0  0  0  0  2  0  0  0  0  0  0
  189.0360  177.2630  145.3290 C   0  0  0  0  0  3  0  0  0  0  0  0
  190.0870  177.0640  147.6390 C   0  0  0  0  0  2  0  0  0  0  0  0
  190.2010  177.6600  146.2440 C   0  0  0  0  0  2  0  0  0  0  0  0
  187.8450  178.0010  148.3480 C   0  0  0  0  0  2  0  0  0  0  0  0
  189.3570  178.0410  148.5510 C   0  0  0  0  0  2  0  0  0  0  0  0
  187.4360  178.4390  146.9480 C   0  0  0  0  0  2  0  0  0  0  0  0
  188.6310  176.7480  141.7210 C   0  0  0  0  0  2  0  0  0  0  0  0
  189.6840  175.7770  142.2220 C   0  0  0  0  0  1  0  0  0  0  0  0
  1 13  1  0  0  0  0
  2 11  1  0  0  0  0
  3 13  1  6  0  0  0
  3  6  1  0  0  0  0
  4  2  1  0  0  0  0
  4 25  1  6  0  0  0
  5  3  1  0  0  0  0
  5  2  2  0  0  0  0
  6  9  1  0  0  0  0
  7 12  1  1  0  0  0
  7  5  1  0  0  0  0
  8 10  2  0  0  0  0
 10  7  1  0  0  0  0
 11  9  1  0  0  0  0
 12  4  1  0  0  0  0
 14 10  1  0  0  0  0
 14  1  1  0  0  0  0
 15 17  1  0  0  0  0
 16 15  1  0  0  0  0
 18 23  1  1  0  0  0
 18 16  1  0  0  0  0
 19 21  1  0  0  0  0
 21 18  1  6  0  0  0
 22 19  1  0  0  0  0
 22 20  1  1  0  0  0
 22 21  1  0  0  0  0
 24 23  1  0  0  0  0
 25 36  1  6  0  0  0
 26 27  1  0  0  0  0
 27 25  1  6  0  0  0
 27 30  1  0  0  0  0
 28 26  1  0  0  0  0
 28 27  1  0  0  0  0
 29 35  1  0  0  0  0
 30 29  1  0  0  0  0
 30 32  1  0  0  0  0
 31 34  1  0  0  0  0
 32 31  1  0  0  0  0
 33 34  1  0  0  0  0
 35 33  1  0  0  0  0
 36 37  1  0  0  0  0
M  END
>  <MODEL>
5

>  <REMARK>
 VINA RESULT:      -6.8      1.572      2.550
  Name = 
  8 active torsions:
  status: ('A' for Active; 'I' for Inactive)
    1  A    between atoms: C_6  and  C_31
    2  A    between atoms: C_7  and  C_14
    3  A    between atoms: C_10  and  C_14
    4  A    between atoms: C_11  and  C_26
    5  A    between atoms: C_14  and  C_31
    6  A    between atoms: C_17  and  C_26
    7  A    between atoms: C_26  and  N_33
    8  A    between atoms: C_29  and  C_36
                            x       y       z     vdW  Elec       q    Type
                         _______ _______ _______ _____ _____    ______ ____

>  <TORSDO>
F 8

$$$$
=
 OpenBabel10272414463D

 37 41  0  0  1  0  0  0  0  0999 V2000
  191.0460  174.7860  137.8530 C   0  0  0  0  0  2  0  0  0  0  0  0
  188.0290  177.6970  136.7160 C   0  0  0  0  0  0  0  0  0  0  0  0
  190.0670  176.4040  136.0670 C   0  0  2  0  0  3  0  0  0  0  0  0
  187.3100  178.2520  137.9010 C   0  0  2  0  0  3  0  0  0  0  0  0
  189.0460  176.9120  137.0660 C   0  0  0  0  0  0  0  0  0  0  0  0
  189.5120  176.4150  134.6410 C   0  0  0  0  0  2  0  0  0  0  0  0
  189.2240  176.8750  138.5500 C   0  0  1  0  0  3  0  0  0  0  0  0
  191.0570  178.0360  139.5270 O   0  0  0  0  0  0  0  0  0  0  0  0
  188.8420  177.7550  134.3460 C   0  0  0  0  0  2  0  0  0  0  0  0
  190.6790  177.0440  138.9230 C   0  0  0  0  0  0  0  0  0  0  0  0
  187.6520  177.9700  135.2830 C   0  0  0  0  0  2  0  0  0  0  0  0
  188.3040  177.9950  139.0520 C   0  0  0  0  0  2  0  0  0  0  0  0
  190.6170  175.0110  136.3960 C   0  0  0  0  0  2  0  0  0  0  0  0
  191.6950  176.0070  138.5100 C   0  0  0  0  0  2  0  0  0  0  0  0
  187.7020  178.7000  141.0860 O   0  0  0  0  0  0  0  0  0  0  0  0
  187.5320  178.4150  141.6580 N   0  0  0  0  0  2  0  0  0  0  0  0
  187.6640  177.6800  140.3680 C   0  0  0  0  0  1  0  0  0  0  0  0
  187.0880  177.6690  142.9910 C   0  0  1  0  0  3  0  0  0  0  0  0
  187.7230  177.2920  145.2600 O   0  0  0  0  0  0  0  0  0  0  0  0
  190.0040  177.3670  145.1530 O   0  0  0  0  0  1  0  0  0  0  0  0
  188.0150  178.0670  144.1230 C   0  0  1  0  0  3  0  0  0  0  0  0
  188.8530  176.9120  144.5110 C   0  0  2  0  0  3  0  0  0  0  0  0
  185.6570  178.0370  143.3560 C   0  0  0  0  0  2  0  0  0  0  0  0
  185.3310  179.4410  142.8810 C   0  0  0  0  0  1  0  0  0  0  0  0
  185.8870  177.6610  138.0960 C   0  0  2  0  0  3  0  0  0  0  0  0
  185.3760  177.0270  135.6530 C   0  0  0  0  0  2  0  0  0  0  0  0
  185.4370  176.5940  137.0580 C   0  0  2  0  0  0  0  0  0  0  0  0
  183.7140  176.8030  136.4290 S   0  0  0  0  0  0  0  0  0  0  0  0
  186.8950  174.5320  136.4380 C   0  0  0  0  0  2  0  0  0  0  0  0
  185.7980  175.1240  137.3430 C   0  0  0  0  0  3  0  0  0  0  0  0
  184.8570  172.7880  137.7210 C   0  0  0  0  0  2  0  0  0  0  0  0
  184.5400  174.2620  137.5230 C   0  0  0  0  0  2  0  0  0  0  0  0
  186.1430  172.3140  135.5930 C   0  0  0  0  0  2  0  0  0  0  0  0
  184.8510  172.0820  136.3710 C   0  0  0  0  0  2  0  0  0  0  0  0
  186.3480  173.7790  135.2330 C   0  0  0  0  0  2  0  0  0  0  0  0
  184.8780  178.7860  138.3150 C   0  0  0  0  0  2  0  0  0  0  0  0
  184.1100  178.5630  139.6050 C   0  0  0  0  0  1  0  0  0  0  0  0
  1 14  1  0  0  0  0
  2  5  2  0  0  0  0
  2  4  1  0  0  0  0
  3  6  1  6  0  0  0
  3 13  1  0  0  0  0
  3  5  1  0  0  0  0
  4 25  1  1  0  0  0
  4 12  1  0  0  0  0
  5  7  1  0  0  0  0
  7 10  1  0  0  0  0
  7 12  1  1  0  0  0
  9  6  1  0  0  0  0
  9 11  1  0  0  0  0
 10  8  2  0  0  0  0
 11  2  1  0  0  0  0
 13  1  1  0  0  0  0
 14 10  1  0  0  0  0
 15 16  1  0  0  0  0
 16 18  1  0  0  0  0
 17 15  1  0  0  0  0
 18 23  1  1  0  0  0
 21 18  1  6  0  0  0
 21 22  1  0  0  0  0
 21 19  1  0  0  0  0
 22 20  1  1  0  0  0
 22 19  1  0  0  0  0
 24 23  1  0  0  0  0
 25 36  1  6  0  0  0
 26 28  1  0  0  0  0
 26 27  1  0  0  0  0
 27 30  1  0  0  0  0
 27 25  1  1  0  0  0
 28 27  1  0  0  0  0
 29 30  1  0  0  0  0
 30 32  1  0  0  0  0
 32 31  1  0  0  0  0
 33 34  1  0  0  0  0
 34 31  1  0  0  0  0
 35 33  1  0  0  0  0
 35 29  1  0  0  0  0
 36 37  1  0  0  0  0
M  END
>  <MODEL>
6

>  <REMARK>
 VINA RESULT:      -6.7      3.354      7.879
  Name = 
  8 active torsions:
  status: ('A' for Active; 'I' for Inactive)
    1  A    between atoms: C_6  and  C_31
    2  A    between atoms: C_7  and  C_14
    3  A    between atoms: C_10  and  C_14
    4  A    between atoms: C_11  and  C_26
    5  A    between atoms: C_14  and  C_31
    6  A    between atoms: C_17  and  C_26
    7  A    between atoms: C_26  and  N_33
    8  A    between atoms: C_29  and  C_36
                            x       y       z     vdW  Elec       q    Type
                         _______ _______ _______ _____ _____    ______ ____

>  <TORSDO>
F 8

$$$$
=
 OpenBabel10272414463D

 37 41  0  0  1  0  0  0  0  0999 V2000
  187.7960  176.5400  143.1900 C   0  0  0  0  0  2  0  0  0  0  0  0
  190.4300  177.3760  139.8390 C   0  0  0  0  0  0  0  0  0  0  0  0
  190.1340  177.2770  142.3190 C   0  0  2  0  0  3  0  0  0  0  0  0
  189.6750  177.5670  138.5660 C   0  0  2  0  0  3  0  0  0  0  0  0
  189.6230  177.2590  140.8920 C   0  0  0  0  0  0  0  0  0  0  0  0
  191.6130  176.8900  142.3920 C   0  0  0  0  0  2  0  0  0  0  0  0
  188.1900  177.4330  140.5040 C   0  0  1  0  0  3  0  0  0  0  0  0
  187.0660  179.4450  141.0940 O   0  0  0  0  0  0  0  0  0  0  0  0
  192.4120  177.6630  141.3470 C   0  0  0  0  0  2  0  0  0  0  0  0
  187.4800  178.3580  141.4660 C   0  0  0  0  0  0  0  0  0  0  0  0
  191.9320  177.3030  139.9390 C   0  0  0  0  0  2  0  0  0  0  0  0
  188.2660  177.9500  139.0620 C   0  0  0  0  0  2  0  0  0  0  0  0
  189.3230  176.3990  143.2800 C   0  0  0  0  0  2  0  0  0  0  0  0
  187.3150  177.9680  142.9140 C   0  0  0  0  0  2  0  0  0  0  0  0
  186.3580  178.3940  137.9850 O   0  0  0  0  0  0  0  0  0  0  0  0
  185.8610  178.0400  137.7320 N   0  0  0  0  0  2  0  0  0  0  0  0
  187.1470  177.4520  138.2020 C   0  0  0  0  0  1  0  0  0  0  0  0
  184.7180  177.1280  137.1050 C   0  0  1  0  0  3  0  0  0  0  0  0
  182.4210  176.5420  137.3840 O   0  0  0  0  0  0  0  0  0  0  0  0
  182.0290  177.1100  139.5620 O   0  0  0  0  0  1  0  0  0  0  0  0
  183.3760  177.5300  137.6870 C   0  0  1  0  0  3  0  0  0  0  0  0
  182.9480  176.5310  138.6900 C   0  0  2  0  0  3  0  0  0  0  0  0
  184.6800  177.2880  135.5920 C   0  0  0  0  0  2  0  0  0  0  0  0
  184.9260  175.9550  134.9100 C   0  0  0  0  0  1  0  0  0  0  0  0
  189.7440  176.3430  137.6130 C   0  0  2  0  0  3  0  0  0  0  0  0
  189.5800  177.8730  135.5490 C   0  0  0  0  0  2  0  0  0  0  0  0
  190.1280  176.6400  136.1370 C   0  0  2  0  0  0  0  0  0  0  0  0
  188.7850  176.3320  134.9080 S   0  0  0  0  0  0  0  0  0  0  0  0
  191.4890  174.9040  134.7600 C   0  0  0  0  0  2  0  0  0  0  0  0
  191.5090  176.1630  135.6480 C   0  0  0  0  0  3  0  0  0  0  0  0
  193.8920  175.6160  136.3590 C   0  0  0  0  0  2  0  0  0  0  0  0
  192.5390  176.1630  136.7860 C   0  0  0  0  0  2  0  0  0  0  0  0
  193.2170  173.3070  135.5730 C   0  0  0  0  0  2  0  0  0  0  0  0
  193.9450  174.1200  136.6390 C   0  0  0  0  0  2  0  0  0  0  0  0
  191.7260  173.6130  135.5300 C   0  0  0  0  0  2  0  0  0  0  0  0
  188.4900  175.4840  137.7730 C   0  0  0  0  0  2  0  0  0  0  0  0
  188.7720  174.0550  137.3450 C   0  0  0  0  0  1  0  0  0  0  0  0
  1 13  1  0  0  0  0
  2 11  1  0  0  0  0
  2  5  2  0  0  0  0
  3  6  1  6  0  0  0
  3 13  1  0  0  0  0
  4 25  1  1  0  0  0
  4 12  1  0  0  0  0
  4  2  1  0  0  0  0
  5  3  1  0  0  0  0
  7 12  1  6  0  0  0
  7  5  1  0  0  0  0
  7 10  1  0  0  0  0
  8 10  2  0  0  0  0
  9  6  1  0  0  0  0
 10 14  1  0  0  0  0
 11  9  1  0  0  0  0
 14  1  1  0  0  0  0
 15 17  1  0  0  0  0
 16 15  1  0  0  0  0
 18 23  1  6  0  0  0
 18 16  1  0  0  0  0
 19 21  1  0  0  0  0
 19 22  1  0  0  0  0
 21 18  1  6  0  0  0
 21 22  1  0  0  0  0
 22 20  1  1  0  0  0
 24 23  1  0  0  0  0
 25 36  1  6  0  0  0
 26 27  1  0  0  0  0
 27 25  1  1  0  0  0
 28 26  1  0  0  0  0
 28 27  1  0  0  0  0
 29 35  1  0  0  0  0
 29 30  1  0  0  0  0
 30 27  1  0  0  0  0
 30 32  1  0  0  0  0
 31 34  1  0  0  0  0
 31 32  1  0  0  0  0
 33 34  1  0  0  0  0
 35 33  1  0  0  0  0
 37 36  1  0  0  0  0
M  END
>  <MODEL>
7

>  <REMARK>
 VINA RESULT:      -6.6      3.248      7.947
  Name = 
  8 active torsions:
  status: ('A' for Active; 'I' for Inactive)
    1  A    between atoms: C_6  and  C_31
    2  A    between atoms: C_7  and  C_14
    3  A    between atoms: C_10  and  C_14
    4  A    between atoms: C_11  and  C_26
    5  A    between atoms: C_14  and  C_31
    6  A    between atoms: C_17  and  C_26
    7  A    between atoms: C_26  and  N_33
    8  A    between atoms: C_29  and  C_36
                            x       y       z     vdW  Elec       q    Type
                         _______ _______ _______ _____ _____    ______ ____

>  <TORSDO>
F 8

$$$$
=
 OpenBabel10272414463D

 37 41  0  0  1  0  0  0  0  0999 V2000
  187.0390  176.5890  143.7170 C   0  0  0  0  0  2  0  0  0  0  0  0
  188.7250  177.6800  139.8650 C   0  0  0  0  0  0  0  0  0  0  0  0
  189.1310  177.1430  142.2720 C   0  0  2  0  0  3  0  0  0  0  0  0
  187.6920  178.2210  138.9330 C   0  0  2  0  0  3  0  0  0  0  0  0
  188.2430  177.4760  141.0890 C   0  0  0  0  0  0  0  0  0  0  0  0
  190.4650  176.5440  141.8220 C   0  0  0  0  0  2  0  0  0  0  0  0
  186.8210  177.9240  141.1990 C   0  0  1  0  0  3  0  0  0  0  0  0
  186.3220  179.9210  142.3920 O   0  0  0  0  0  0  0  0  0  0  0  0
  191.0700  177.3850  140.7010 C   0  0  0  0  0  2  0  0  0  0  0  0
  186.6060  178.7340  142.4560 C   0  0  0  0  0  0  0  0  0  0  0  0
  190.1490  177.3780  139.4780 C   0  0  0  0  0  2  0  0  0  0  0  0
  186.5830  178.6960  139.8950 C   0  0  0  0  0  2  0  0  0  0  0  0
  188.4710  176.2180  143.3020 C   0  0  0  0  0  2  0  0  0  0  0  0
  186.7860  178.0970  143.8120 C   0  0  0  0  0  2  0  0  0  0  0  0
  184.5440  179.5720  139.6280 O   0  0  0  0  0  0  0  0  0  0  0  0
  183.9420  179.3410  139.4830 N   0  0  0  0  0  2  0  0  0  0  0  0
  185.1920  178.5380  139.3660 C   0  0  0  0  0  1  0  0  0  0  0  0
  182.5280  178.7280  139.0890 C   0  0  1  0  0  3  0  0  0  0  0  0
  180.2790  178.4950  139.8530 O   0  0  0  0  0  0  0  0  0  0  0  0
  180.5280  178.4860  142.1240 O   0  0  0  0  0  1  0  0  0  0  0  0
  181.4860  179.1760  140.0960 C   0  0  1  0  0  3  0  0  0  0  0  0
  181.0640  178.0250  140.9230 C   0  0  2  0  0  3  0  0  0  0  0  0
  182.1170  179.1900  137.6980 C   0  0  0  0  0  2  0  0  0  0  0  0
  182.0390  178.0090  136.7480 C   0  0  0  0  0  1  0  0  0  0  0  0
  187.2480  177.2080  137.8420 C   0  0  2  0  0  3  0  0  0  0  0  0
  188.8120  178.4170  136.1920 C   0  0  0  0  0  2  0  0  0  0  0  0
  188.1040  177.1760  136.5450 C   0  0  2  0  0  0  0  0  0  0  0  0
  187.3620  178.0590  135.1030 S   0  0  0  0  0  0  0  0  0  0  0  0
  188.2920  175.2450  134.8130 C   0  0  0  0  0  2  0  0  0  0  0  0
  188.7610  175.8370  136.1560 C   0  0  0  0  0  3  0  0  0  0  0  0
  189.3610  173.5010  136.9700 C   0  0  0  0  0  2  0  0  0  0  0  0
  188.7970  174.8640  137.3420 C   0  0  0  0  0  2  0  0  0  0  0  0
  187.7560  172.8350  135.1300 C   0  0  0  0  0  2  0  0  0  0  0  0
  188.2230  172.5760  136.5590 C   0  0  0  0  0  2  0  0  0  0  0  0
  187.1680  174.2290  134.9570 C   0  0  0  0  0  2  0  0  0  0  0  0
  185.7450  177.3260  137.5980 C   0  0  0  0  0  2  0  0  0  0  0  0
  185.1500  175.9620  137.2980 C   0  0  0  0  0  1  0  0  0  0  0  0
  1 14  1  0  0  0  0
  2  5  2  0  0  0  0
  3  6  1  6  0  0  0
  3 13  1  0  0  0  0
  4 25  1  6  0  0  0
  4  2  1  0  0  0  0
  4 12  1  0  0  0  0
  5  7  1  0  0  0  0
  5  3  1  0  0  0  0
  7 12  1  6  0  0  0
  7 10  1  0  0  0  0
  8 10  2  0  0  0  0
  9  6  1  0  0  0  0
 10 14  1  0  0  0  0
 11  2  1  0  0  0  0
 11  9  1  0  0  0  0
 13  1  1  0  0  0  0
 16 15  1  0  0  0  0
 17 15  1  0  0  0  0
 18 23  1  6  0  0  0
 18 16  1  0  0  0  0
 19 21  1  0  0  0  0
 19 22  1  0  0  0  0
 21 18  1  6  0  0  0
 21 22  1  0  0  0  0
 22 20  1  1  0  0  0
 24 23  1  0  0  0  0
 25 36  1  6  0  0  0
 26 27  1  0  0  0  0
 27 25  1  1  0  0  0
 28 26  1  0  0  0  0
 28 27  1  0  0  0  0
 29 35  1  0  0  0  0
 29 30  1  0  0  0  0
 30 27  1  0  0  0  0
 30 32  1  0  0  0  0
 31 32  1  0  0  0  0
 33 34  1  0  0  0  0
 34 31  1  0  0  0  0
 35 33  1  0  0  0  0
 37 36  1  0  0  0  0
M  END
>  <MODEL>
8

>  <REMARK>
 VINA RESULT:      -6.4      3.695      8.388
  Name = 
  8 active torsions:
  status: ('A' for Active; 'I' for Inactive)
    1  A    between atoms: C_6  and  C_31
    2  A    between atoms: C_7  and  C_14
    3  A    between atoms: C_10  and  C_14
    4  A    between atoms: C_11  and  C_26
    5  A    between atoms: C_14  and  C_31
    6  A    between atoms: C_17  and  C_26
    7  A    between atoms: C_26  and  N_33
    8  A    between atoms: C_29  and  C_36
                            x       y       z     vdW  Elec       q    Type
                         _______ _______ _______ _____ _____    ______ ____

>  <TORSDO>
F 8

$$$$
=
 OpenBabel10272414463D

 37 41  0  0  1  0  0  0  0  0999 V2000
  188.4510  174.0200  136.9450 C   0  0  0  0  0  2  0  0  0  0  0  0
  185.5660  177.2650  137.0740 C   0  0  0  0  0  0  0  0  0  0  0  0
  186.6290  175.4350  135.7430 C   0  0  2  0  0  3  0  0  0  0  0  0
  185.8170  178.1930  138.2160 C   0  0  2  0  0  3  0  0  0  0  0  0
  186.5270  176.3510  136.9470 C   0  0  0  0  0  0  0  0  0  0  0  0
  185.2820  175.2910  135.0300 C   0  0  0  0  0  2  0  0  0  0  0  0
  187.6230  176.5680  137.9400 C   0  0  1  0  0  3  0  0  0  0  0  0
  189.7050  177.4450  137.1950 O   0  0  0  0  0  0  0  0  0  0  0  0
  184.6480  176.6640  134.8200 C   0  0  0  0  0  2  0  0  0  0  0  0
  188.9780  176.4670  137.2780 C   0  0  0  0  0  0  0  0  0  0  0  0
  184.3640  177.3280  136.1690 C   0  0  0  0  0  2  0  0  0  0  0  0
  187.3060  177.9460  138.5340 C   0  0  0  0  0  2  0  0  0  0  0  0
  187.1910  174.0450  136.0670 C   0  0  0  0  0  2  0  0  0  0  0  0
  189.4310  175.1640  136.6670 C   0  0  0  0  0  2  0  0  0  0  0  0
  188.8370  178.4510  140.0820 O   0  0  0  0  0  0  0  0  0  0  0  0
  188.9210  178.3280  140.7260 N   0  0  0  0  0  2  0  0  0  0  0  0
  187.6570  178.0540  139.9840 C   0  0  0  0  0  1  0  0  0  0  0  0
  189.0430  178.0350  142.2840 C   0  0  1  0  0  3  0  0  0  0  0  0
  188.1530  176.2890  143.6470 O   0  0  0  0  0  0  0  0  0  0  0  0
  186.3300  177.2850  144.5980 O   0  0  0  0  0  1  0  0  0  0  0  0
  187.7930  177.3220  142.7620 C   0  0  1  0  0  3  0  0  0  0  0  0
  187.6610  177.4730  144.2270 C   0  0  2  0  0  3  0  0  0  0  0  0
  190.2600  177.1680  142.5700 C   0  0  0  0  0  2  0  0  0  0  0  0
  191.4460  178.0290  142.9630 C   0  0  0  0  0  1  0  0  0  0  0  0
  184.8330  177.9960  139.4020 C   0  0  2  0  0  3  0  0  0  0  0  0
  182.8460  178.4650  137.8340 C   0  0  0  0  0  2  0  0  0  0  0  0
  183.3430  177.7640  139.0290 C   0  0  2  0  0  0  0  0  0  0  0  0
  182.2160  179.1740  139.4200 S   0  0  0  0  0  0  0  0  0  0  0  0
  183.1050  175.2500  138.4040 C   0  0  0  0  0  2  0  0  0  0  0  0
  182.7270  176.3930  139.3670 C   0  0  0  0  0  3  0  0  0  0  0  0
  180.5740  175.1700  139.9620 C   0  0  0  0  0  2  0  0  0  0  0  0
  181.2350  176.5160  139.7070 C   0  0  0  0  0  2  0  0  0  0  0  0
  181.0430  174.0120  137.7610 C   0  0  0  0  0  2  0  0  0  0  0  0
  179.9840  174.6390  138.6620 C   0  0  0  0  0  2  0  0  0  0  0  0
  182.0840  175.0230  137.2990 C   0  0  0  0  0  2  0  0  0  0  0  0
  185.0540  179.0840  140.4510 C   0  0  0  0  0  2  0  0  0  0  0  0
  184.5740  178.6110  141.8110 C   0  0  0  0  0  1  0  0  0  0  0  0
  2  4  1  0  0  0  0
  3  6  1  1  0  0  0
  3 13  1  0  0  0  0
  3  5  1  0  0  0  0
  4 12  1  0  0  0  0
  4 25  1  1  0  0  0
  5  2  2  0  0  0  0
  5  7  1  0  0  0  0
  7 12  1  6  0  0  0
  8 10  2  0  0  0  0
  9  6  1  0  0  0  0
  9 11  1  0  0  0  0
 10  7  1  0  0  0  0
 11  2  1  0  0  0  0
 13  1  1  0  0  0  0
 14  1  1  0  0  0  0
 14 10  1  0  0  0  0
 15 16  1  0  0  0  0
 16 18  1  0  0  0  0
 17 15  1  0  0  0  0
 18 23  1  6  0  0  0
 19 22  1  0  0  0  0
 21 18  1  1  0  0  0
 21 19  1  0  0  0  0
 21 22  1  0  0  0  0
 22 20  1  6  0  0  0
 23 24  1  0  0  0  0
 25 36  1  1  0  0  0
 26 27  1  0  0  0  0
 26 28  1  0  0  0  0
 27 30  1  0  0  0  0
 27 25  1  1  0  0  0
 27 28  1  0  0  0  0
 29 30  1  0  0  0  0
 30 32  1  0  0  0  0
 32 31  1  0  0  0  0
 33 34  1  0  0  0  0
 34 31  1  0  0  0  0
 35 33  1  0  0  0  0
 35 29  1  0  0  0  0
 36 37  1  0  0  0  0
M  END
>  <MODEL>
9

>  <REMARK>
 VINA RESULT:      -5.8      3.251      6.968
  Name = 
  8 active torsions:
  status: ('A' for Active; 'I' for Inactive)
    1  A    between atoms: C_6  and  C_31
    2  A    between atoms: C_7  and  C_14
    3  A    between atoms: C_10  and  C_14
    4  A    between atoms: C_11  and  C_26
    5  A    between atoms: C_14  and  C_31
    6  A    between atoms: C_17  and  C_26
    7  A    between atoms: C_26  and  N_33
    8  A    between atoms: C_29  and  C_36
                            x       y       z     vdW  Elec       q    Type
                         _______ _______ _______ _____ _____    ______ ____

>  <TORSDO>
F 8

$$$$
