=
 OpenBabel10272413213D

 32 38  0  0  0  0  0  0  0  0999 V2000
  187.9870  177.9100  136.2610 N   0  0  0  0  0  0  0  0  0  0  0  0
  187.9000  177.9930  141.3680 C   0  0  0  0  0  0  0  0  0  0  0  0
  183.5850  178.7630  143.1840 C   0  0  0  0  0  0  0  0  0  0  0  0
  182.2890  178.9940  143.7210 N   0  0  0  0  0  1  0  0  0  0  0  0
  189.4420  177.5660  143.3180 C   0  0  0  0  0  0  0  0  0  0  0  0
  189.5710  177.4700  144.7020 C   0  0  0  0  0  0  0  0  0  0  0  0
  188.6340  177.9870  139.0450 C   0  0  0  0  0  0  0  0  0  0  0  0
  186.3420  178.4040  139.5680 N   0  0  0  0  0  0  0  0  0  0  0  0
  189.0660  177.4430  146.8590 C   0  0  0  0  0  0  0  0  0  0  0  0
  186.9860  178.4630  137.1830 C   0  0  0  0  0  2  0  0  0  0  0  0
  183.9410  178.7810  141.5350 S   0  0  0  0  0  0  0  0  0  0  0  0
  186.5910  178.2810  140.9000 C   0  0  0  0  0  0  0  0  0  0  0  0
  185.5650  178.4390  141.8240 C   0  0  0  0  0  0  0  0  0  0  0  0
  187.0470  178.0360  143.6900 C   0  0  0  0  0  0  0  0  0  0  0  0
  190.4470  177.1180  146.6900 N   0  0  0  0  0  0  0  0  0  0  0  0
  189.3470  178.2940  136.6660 C   0  0  0  0  0  2  0  0  0  0  0  0
  187.3180  178.2500  138.6360 C   0  0  0  0  0  0  0  0  0  0  0  0
  190.7430  177.1460  145.4490 N   0  0  0  0  0  0  0  0  0  0  0  0
  189.7230  177.7500  138.0480 C   0  0  0  0  0  2  0  0  0  0  0  0
  184.6650  178.5030  143.9550 N   0  0  0  0  0  0  0  0  0  0  0  0
  185.7740  178.3210  143.1870 C   0  0  0  0  0  0  0  0  0  0  0  0
  187.2350  177.9210  145.0810 C   0  0  0  0  0  3  0  0  0  0  0  0
  188.9070  177.8460  140.4050 C   0  0  0  0  0  3  0  0  0  0  0  0
  190.5960  177.3590  142.5060 N   0  0  0  0  0  1  0  0  0  0  0  0
  188.2240  177.1740  148.2330 S   0  0  0  0  0  0  0  0  0  0  0  0
  188.1510  177.8640  142.7740 C   0  0  0  0  0  0  0  0  0  0  0  0
  188.5110  177.6440  145.5390 C   0  0  0  0  0  0  0  0  0  0  0  0
  187.8480  176.4570  136.2010 C   0  0  0  0  0  2  0  0  0  0  0  0
  186.4060  176.0870  135.9100 C   0  0  0  0  0  2  0  0  0  0  0  0
  185.9360  175.1500  136.9130 N   0  0  0  0  0  0  0  0  0  0  0  0
  184.5420  175.5160  137.2060 C   0  0  0  0  0  2  0  0  0  0  0  0
  184.8230  174.4080  136.3030 C   0  0  0  0  0  2  0  0  0  0  0  0
  1 16  1  0  0  0  0
  1 10  1  0  0  0  0
  2 26  1  0  0  0  0
  3  4  1  0  0  0  0
  3 20  2  0  0  0  0
  5  6  1  0  0  0  0
  6 18  1  0  0  0  0
  6 27  2  0  0  0  0
  7 23  1  0  0  0  0
  8 12  2  0  0  0  0
  9 25  2  0  0  0  0
 10 17  1  0  0  0  0
 11 13  1  0  0  0  0
 11  3  1  0  0  0  0
 12  2  1  0  0  0  0
 12 13  1  0  0  0  0
 13 21  2  0  0  0  0
 14 22  2  0  0  0  0
 15  9  1  0  0  0  0
 16 19  1  0  0  0  0
 17  7  2  0  0  0  0
 17  8  1  0  0  0  0
 18 15  2  0  0  0  0
 19  7  1  0  0  0  0
 21 14  1  0  0  0  0
 21 20  1  0  0  0  0
 22 27  1  0  0  0  0
 23  2  2  0  0  0  0
 24  5  1  0  0  0  0
 26  5  2  0  0  0  0
 26 14  1  0  0  0  0
 27  9  1  0  0  0  0
 28  1  1  0  0  0  0
 29 28  1  0  0  0  0
 29 30  1  0  0  0  0
 30 31  1  0  0  0  0
 32 30  1  0  0  0  0
 32 31  1  0  0  0  0
M  END
>  <MODEL>
1

>  <REMARK>
 VINA RESULT:      -9.1      0.000      0.000
  Name = 
  3 active torsions:
  status: ('A' for Active; 'I' for Inactive)
    1  A    between atoms: N_1  and  C_10
    2  A    between atoms: N_2  and  C_24
    3  A    between atoms: C_10  and  C_24
                            x       y       z     vdW  Elec       q    Type
                         _______ _______ _______ _____ _____    ______ ____

>  <TORSDO>
F 3

$$$$
=
 OpenBabel10272413213D

 32 38  0  0  0  0  0  0  0  0999 V2000
  188.0390  177.8570  136.5160 N   0  0  0  0  0  0  0  0  0  0  0  0
  187.8900  178.0040  141.6200 C   0  0  0  0  0  0  0  0  0  0  0  0
  183.5480  178.7650  143.3740 C   0  0  0  0  0  0  0  0  0  0  0  0
  182.2450  178.9950  143.8930 N   0  0  0  0  0  1  0  0  0  0  0  0
  189.4120  177.6120  143.5940 C   0  0  0  0  0  0  0  0  0  0  0  0
  189.5240  177.5340  144.9800 C   0  0  0  0  0  0  0  0  0  0  0  0
  188.6520  177.9730  139.3060 C   0  0  0  0  0  0  0  0  0  0  0  0
  186.3520  178.3810  139.7960 N   0  0  0  0  0  0  0  0  0  0  0  0
  188.9940  177.5310  147.1310 C   0  0  0  0  0  0  0  0  0  0  0  0
  187.0240  178.4140  137.4190 C   0  0  0  0  0  2  0  0  0  0  0  0
  183.9240  178.7660  141.7290 S   0  0  0  0  0  0  0  0  0  0  0  0
  186.5850  178.2760  141.1330 C   0  0  0  0  0  0  0  0  0  0  0  0
  185.5460  178.4380  142.0420 C   0  0  0  0  0  0  0  0  0  0  0  0
  187.0090  178.0700  143.9310 C   0  0  0  0  0  0  0  0  0  0  0  0
  190.3790  177.2140  146.9830 N   0  0  0  0  0  0  0  0  0  0  0  0
  189.3920  178.2550  136.9320 C   0  0  0  0  0  2  0  0  0  0  0  0
  187.3400  178.2220  138.8790 C   0  0  0  0  0  0  0  0  0  0  0  0
  190.6890  177.2280  145.7450 N   0  0  0  0  0  0  0  0  0  0  0  0
  189.7550  177.7310  138.3260 C   0  0  0  0  0  2  0  0  0  0  0  0
  184.6210  178.5230  144.1610 N   0  0  0  0  0  0  0  0  0  0  0  0
  185.7400  178.3400  143.4090 C   0  0  0  0  0  0  0  0  0  0  0  0
  187.1810  177.9730  145.3250 C   0  0  0  0  0  3  0  0  0  0  0  0
  188.9100  177.8510  140.6710 C   0  0  0  0  0  3  0  0  0  0  0  0
  190.5770  177.4030  142.7980 N   0  0  0  0  0  1  0  0  0  0  0  0
  188.1370  177.2740  148.4990 S   0  0  0  0  0  0  0  0  0  0  0  0
  188.1250  177.8940  143.0310 C   0  0  0  0  0  0  0  0  0  0  0  0
  188.4540  177.7110  145.8030 C   0  0  0  0  0  0  0  0  0  0  0  0
  187.9120  176.4020  136.4720 C   0  0  0  0  0  2  0  0  0  0  0  0
  188.7880  175.8390  135.3700 C   0  0  0  0  0  2  0  0  0  0  0  0
  189.0060  174.4230  135.6010 N   0  0  0  0  0  0  0  0  0  0  0  0
  190.4630  174.2160  135.5770 C   0  0  0  0  0  2  0  0  0  0  0  0
  189.7690  174.3180  136.8540 C   0  0  0  0  0  2  0  0  0  0  0  0
  1 16  1  0  0  0  0
  1 10  1  0  0  0  0
  2 26  1  0  0  0  0
  3  4  1  0  0  0  0
  3 20  2  0  0  0  0
  5  6  1  0  0  0  0
  6 18  1  0  0  0  0
  6 27  2  0  0  0  0
  7 23  1  0  0  0  0
  8 12  2  0  0  0  0
  9 25  2  0  0  0  0
 10 17  1  0  0  0  0
 11 13  1  0  0  0  0
 11  3  1  0  0  0  0
 12  2  1  0  0  0  0
 12 13  1  0  0  0  0
 13 21  2  0  0  0  0
 14 22  2  0  0  0  0
 15  9  1  0  0  0  0
 16 19  1  0  0  0  0
 17  7  2  0  0  0  0
 17  8  1  0  0  0  0
 18 15  2  0  0  0  0
 19  7  1  0  0  0  0
 21 14  1  0  0  0  0
 21 20  1  0  0  0  0
 22 27  1  0  0  0  0
 23  2  2  0  0  0  0
 24  5  1  0  0  0  0
 26  5  2  0  0  0  0
 26 14  1  0  0  0  0
 27  9  1  0  0  0  0
 28  1  1  0  0  0  0
 29 30  1  0  0  0  0
 29 28  1  0  0  0  0
 30 32  1  0  0  0  0
 31 30  1  0  0  0  0
 31 32  1  0  0  0  0
M  END
>  <MODEL>
2

>  <REMARK>
 VINA RESULT:      -9.0      1.152      1.618
  Name = 
  3 active torsions:
  status: ('A' for Active; 'I' for Inactive)
    1  A    between atoms: N_1  and  C_10
    2  A    between atoms: N_2  and  C_24
    3  A    between atoms: C_10  and  C_24
                            x       y       z     vdW  Elec       q    Type
                         _______ _______ _______ _____ _____    ______ ____

>  <TORSDO>
F 3

$$$$
=
 OpenBabel10272413213D

 32 38  0  0  0  0  0  0  0  0999 V2000
  182.3510  179.6130  138.6230 N   0  0  0  0  0  0  0  0  0  0  0  0
  185.7930  178.3400  142.1770 C   0  0  0  0  0  0  0  0  0  0  0  0
  190.1480  177.6270  140.4370 C   0  0  0  0  0  0  0  0  0  0  0  0
  191.4510  177.4140  139.9080 N   0  0  0  0  0  1  0  0  0  0  0  0
  185.9700  178.1300  144.6850 C   0  0  0  0  0  0  0  0  0  0  0  0
  186.7980  177.8840  145.7770 C   0  0  0  0  0  0  0  0  0  0  0  0
  183.7080  178.8150  141.0100 C   0  0  0  0  0  0  0  0  0  0  0  0
  185.7280  178.5320  139.7700 N   0  0  0  0  0  0  0  0  0  0  0  0
  188.6060  177.4560  146.9850 C   0  0  0  0  0  0  0  0  0  0  0  0
  183.6640  178.9680  138.4840 C   0  0  0  0  0  2  0  0  0  0  0  0
  188.7890  177.9590  139.4940 S   0  0  0  0  0  0  0  0  0  0  0  0
  186.4350  178.3110  140.9110 C   0  0  0  0  0  0  0  0  0  0  0  0
  187.7990  178.0500  140.8530 C   0  0  0  0  0  0  0  0  0  0  0  0
  187.9630  177.8420  143.2560 C   0  0  0  0  0  0  0  0  0  0  0  0
  187.4910  177.6630  147.8540 N   0  0  0  0  0  0  0  0  0  0  0  0
  181.5760  179.0030  139.7120 C   0  0  0  0  0  2  0  0  0  0  0  0
  184.3960  178.7960  139.7880 C   0  0  0  0  0  0  0  0  0  0  0  0
  186.4460  177.8970  147.1600 N   0  0  0  0  0  0  0  0  0  0  0  0
  182.2550  179.1630  141.0770 C   0  0  0  0  0  2  0  0  0  0  0  0
  189.8750  177.5820  141.7600 N   0  0  0  0  0  0  0  0  0  0  0  0
  188.5560  177.8210  141.9890 C   0  0  0  0  0  0  0  0  0  0  0  0
  188.7540  177.6070  144.3970 C   0  0  0  0  0  3  0  0  0  0  0  0
  184.4160  178.6020  142.1920 C   0  0  0  0  0  3  0  0  0  0  0  0
  184.5890  178.4000  144.9180 N   0  0  0  0  0  1  0  0  0  0  0  0
  190.1650  177.4810  147.4740 S   0  0  0  0  0  0  0  0  0  0  0  0
  186.5480  178.1080  143.3740 C   0  0  0  0  0  0  0  0  0  0  0  0
  188.1290  177.6310  145.6320 C   0  0  0  0  0  0  0  0  0  0  0  0
  182.5300  181.0460  138.8450 C   0  0  0  0  0  2  0  0  0  0  0  0
  181.2080  181.7660  138.6640 C   0  0  0  0  0  2  0  0  0  0  0  0
  181.1060  182.2520  137.3000 N   0  0  0  0  0  0  0  0  0  0  0  0
  180.0200  183.2450  137.2910 C   0  0  0  0  0  2  0  0  0  0  0  0
  181.4060  183.6910  137.3460 C   0  0  0  0  0  2  0  0  0  0  0  0
  1 28  1  0  0  0  0
  1 16  1  0  0  0  0
  2 23  1  0  0  0  0
  2 26  1  0  0  0  0
  3 20  2  0  0  0  0
  4  3  1  0  0  0  0
  5 24  1  0  0  0  0
  5  6  1  0  0  0  0
  6 18  1  0  0  0  0
  7 19  1  0  0  0  0
  7 23  2  0  0  0  0
  8 17  2  0  0  0  0
  8 12  1  0  0  0  0
  9 25  2  0  0  0  0
  9 15  1  0  0  0  0
 10  1  1  0  0  0  0
 10 17  1  0  0  0  0
 11  3  1  0  0  0  0
 11 13  1  0  0  0  0
 12  2  2  0  0  0  0
 13 12  1  0  0  0  0
 13 21  2  0  0  0  0
 14 26  1  0  0  0  0
 14 22  2  0  0  0  0
 16 19  1  0  0  0  0
 17  7  1  0  0  0  0
 18 15  2  0  0  0  0
 20 21  1  0  0  0  0
 21 14  1  0  0  0  0
 22 27  1  0  0  0  0
 26  5  2  0  0  0  0
 27  6  2  0  0  0  0
 27  9  1  0  0  0  0
 29 28  1  0  0  0  0
 30 32  1  0  0  0  0
 30 29  1  0  0  0  0
 31 30  1  0  0  0  0
 31 32  1  0  0  0  0
M  END
>  <MODEL>
3

>  <REMARK>
 VINA RESULT:      -8.7      3.412      5.520
  Name = 
  3 active torsions:
  status: ('A' for Active; 'I' for Inactive)
    1  A    between atoms: N_1  and  C_10
    2  A    between atoms: N_2  and  C_24
    3  A    between atoms: C_10  and  C_24
                            x       y       z     vdW  Elec       q    Type
                         _______ _______ _______ _____ _____    ______ ____

>  <TORSDO>
F 3

$$$$
=
 OpenBabel10272413213D

 32 38  0  0  0  0  0  0  0  0999 V2000
  190.0530  176.6370  136.7600 N   0  0  0  0  0  0  0  0  0  0  0  0
  189.1470  177.3770  141.7320 C   0  0  0  0  0  0  0  0  0  0  0  0
  184.7330  178.8460  142.6630 C   0  0  0  0  0  0  0  0  0  0  0  0
  183.4090  179.2870  142.9350 N   0  0  0  0  0  1  0  0  0  0  0  0
  190.2820  177.0330  143.9590 C   0  0  0  0  0  0  0  0  0  0  0  0
  190.1700  177.1000  145.3460 C   0  0  0  0  0  0  0  0  0  0  0  0
  190.2430  176.9950  139.5900 C   0  0  0  0  0  0  0  0  0  0  0  0
  187.9710  177.7270  139.6520 N   0  0  0  0  0  0  0  0  0  0  0  0
  189.3220  177.4040  147.3700 C   0  0  0  0  0  0  0  0  0  0  0  0
  188.9970  177.4100  137.4260 C   0  0  0  0  0  2  0  0  0  0  0  0
  185.3530  178.6150  141.1110 S   0  0  0  0  0  0  0  0  0  0  0  0
  187.9810  177.7470  141.0120 C   0  0  0  0  0  0  0  0  0  0  0  0
  186.8480  178.1340  141.7170 C   0  0  0  0  0  0  0  0  0  0  0  0
  187.9410  177.8100  143.8490 C   0  0  0  0  0  0  0  0  0  0  0  0
  190.6570  176.9090  147.4840 N   0  0  0  0  0  0  0  0  0  0  0  0
  191.3680  176.9150  137.3560 C   0  0  0  0  0  2  0  0  0  0  0  0
  189.0570  177.3480  138.9290 C   0  0  0  0  0  0  0  0  0  0  0  0
  191.1520  176.7460  146.3190 N   0  0  0  0  0  0  0  0  0  0  0  0
  191.4390  176.5130  138.8330 C   0  0  0  0  0  2  0  0  0  0  0  0
  185.6300  178.5680  143.6360 N   0  0  0  0  0  0  0  0  0  0  0  0
  186.8150  178.1680  143.1010 C   0  0  0  0  0  0  0  0  0  0  0  0
  187.8830  177.8520  145.2550 C   0  0  0  0  0  3  0  0  0  0  0  0
  190.2700  176.9980  140.9840 C   0  0  0  0  0  3  0  0  0  0  0  0
  191.5160  176.5970  143.3910 N   0  0  0  0  0  1  0  0  0  0  0  0
  188.2390  177.4070  148.5940 S   0  0  0  0  0  0  0  0  0  0  0  0
  189.1470  177.4010  143.1670 C   0  0  0  0  0  0  0  0  0  0  0  0
  189.0210  177.4960  145.9590 C   0  0  0  0  0  0  0  0  0  0  0  0
  189.7370  175.2120  136.8310 C   0  0  0  0  0  2  0  0  0  0  0  0
  190.3930  174.4790  135.6760 C   0  0  0  0  0  2  0  0  0  0  0  0
  190.8360  173.1720  136.1230 N   0  0  0  0  0  0  0  0  0  0  0  0
  191.6980  172.6360  135.0580 C   0  0  0  0  0  2  0  0  0  0  0  0
  192.3000  173.2430  136.2380 C   0  0  0  0  0  2  0  0  0  0  0  0
  1 28  1  0  0  0  0
  1 16  1  0  0  0  0
  1 10  1  0  0  0  0
  2 26  1  0  0  0  0
  3  4  1  0  0  0  0
  3 20  2  0  0  0  0
  5  6  1  0  0  0  0
  6 27  2  0  0  0  0
  6 18  1  0  0  0  0
  7 23  1  0  0  0  0
  8 12  2  0  0  0  0
  9 15  1  0  0  0  0
  9 25  2  0  0  0  0
 10 17  1  0  0  0  0
 11 13  1  0  0  0  0
 11  3  1  0  0  0  0
 12 13  1  0  0  0  0
 12  2  1  0  0  0  0
 13 21  2  0  0  0  0
 14 22  2  0  0  0  0
 16 19  1  0  0  0  0
 17  7  2  0  0  0  0
 17  8  1  0  0  0  0
 18 15  2  0  0  0  0
 19  7  1  0  0  0  0
 21 20  1  0  0  0  0
 21 14  1  0  0  0  0
 22 27  1  0  0  0  0
 23  2  2  0  0  0  0
 24  5  1  0  0  0  0
 26 14  1  0  0  0  0
 26  5  2  0  0  0  0
 27  9  1  0  0  0  0
 29 30  1  0  0  0  0
 29 28  1  0  0  0  0
 30 32  1  0  0  0  0
 31 30  1  0  0  0  0
 31 32  1  0  0  0  0
M  END
>  <MODEL>
4

>  <REMARK>
 VINA RESULT:      -8.6      2.165      2.708
  Name = 
  3 active torsions:
  status: ('A' for Active; 'I' for Inactive)
    1  A    between atoms: N_1  and  C_10
    2  A    between atoms: N_2  and  C_24
    3  A    between atoms: C_10  and  C_24
                            x       y       z     vdW  Elec       q    Type
                         _______ _______ _______ _____ _____    ______ ____

>  <TORSDO>
F 3

$$$$
=
 OpenBabel10272413213D

 32 38  0  0  0  0  0  0  0  0999 V2000
  180.9390  179.9870  138.1000 N   0  0  0  0  0  0  0  0  0  0  0  0
  184.2930  178.7340  141.7440 C   0  0  0  0  0  0  0  0  0  0  0  0
  188.6760  177.9500  140.1070 C   0  0  0  0  0  0  0  0  0  0  0  0
  189.9870  177.7160  139.6090 N   0  0  0  0  0  1  0  0  0  0  0  0
  184.4160  178.5610  144.2580 C   0  0  0  0  0  0  0  0  0  0  0  0
  185.2180  178.3230  145.3710 C   0  0  0  0  0  0  0  0  0  0  0  0
  182.2370  179.2120  140.5270 C   0  0  0  0  0  0  0  0  0  0  0  0
  184.2790  178.8900  139.3340 N   0  0  0  0  0  0  0  0  0  0  0  0
  186.9960  177.8950  146.6230 C   0  0  0  0  0  0  0  0  0  0  0  0
  182.2470  179.3270  137.9980 C   0  0  0  0  0  2  0  0  0  0  0  0
  187.3400  178.2820  139.1310 S   0  0  0  0  0  0  0  0  0  0  0  0
  184.9610  178.6800  140.4930 C   0  0  0  0  0  0  0  0  0  0  0  0
  186.3230  178.4040  140.4670 C   0  0  0  0  0  0  0  0  0  0  0  0
  186.4350  178.2310  142.8760 C   0  0  0  0  0  0  0  0  0  0  0  0
  185.8660  178.1270  147.4660 N   0  0  0  0  0  0  0  0  0  0  0  0
  180.1350  179.4020  139.1820 C   0  0  0  0  0  2  0  0  0  0  0  0
  182.9500  179.1680  139.3200 C   0  0  0  0  0  0  0  0  0  0  0  0
  184.8380  178.3600  146.7460 N   0  0  0  0  0  0  0  0  0  0  0  0
  180.7870  179.5760  140.5590 C   0  0  0  0  0  2  0  0  0  0  0  0
  188.3750  177.9280  141.4240 N   0  0  0  0  0  0  0  0  0  0  0  0
  187.0530  178.1840  141.6230 C   0  0  0  0  0  0  0  0  0  0  0  0
  187.1990  178.0050  144.0360 C   0  0  0  0  0  3  0  0  0  0  0  0
  182.9180  179.0100  141.7260 C   0  0  0  0  0  3  0  0  0  0  0  0
  183.0330  178.8470  144.4590 N   0  0  0  0  0  1  0  0  0  0  0  0
  188.5450  177.9120  147.1440 S   0  0  0  0  0  0  0  0  0  0  0  0
  185.0200  178.5120  142.9610 C   0  0  0  0  0  0  0  0  0  0  0  0
  186.5490  178.0540  145.2580 C   0  0  0  0  0  0  0  0  0  0  0  0
  181.1280  181.4210  138.3050 C   0  0  0  0  0  2  0  0  0  0  0  0
  180.4860  182.1950  137.1690 C   0  0  0  0  0  2  0  0  0  0  0  0
  181.0960  183.5080  137.0730 N   0  0  0  0  0  0  0  0  0  0  0  0
  180.9240  183.9470  135.6790 C   0  0  0  0  0  2  0  0  0  0  0  0
  180.0210  184.4420  136.7090 C   0  0  0  0  0  2  0  0  0  0  0  0
  1 28  1  0  0  0  0
  1 16  1  0  0  0  0
  2 26  1  0  0  0  0
  3 20  2  0  0  0  0
  4  3  1  0  0  0  0
  5 24  1  0  0  0  0
  5  6  1  0  0  0  0
  6 18  1  0  0  0  0
  7 19  1  0  0  0  0
  7 23  2  0  0  0  0
  8 12  1  0  0  0  0
  9 25  2  0  0  0  0
  9 15  1  0  0  0  0
 10  1  1  0  0  0  0
 10 17  1  0  0  0  0
 11  3  1  0  0  0  0
 11 13  1  0  0  0  0
 12  2  2  0  0  0  0
 13 12  1  0  0  0  0
 13 21  2  0  0  0  0
 14 26  1  0  0  0  0
 14 22  2  0  0  0  0
 16 19  1  0  0  0  0
 17  8  2  0  0  0  0
 17  7  1  0  0  0  0
 18 15  2  0  0  0  0
 20 21  1  0  0  0  0
 21 14  1  0  0  0  0
 22 27  1  0  0  0  0
 23  2  1  0  0  0  0
 26  5  2  0  0  0  0
 27  6  2  0  0  0  0
 27  9  1  0  0  0  0
 29 28  1  0  0  0  0
 30 29  1  0  0  0  0
 31 32  1  0  0  0  0
 31 30  1  0  0  0  0
 32 30  1  0  0  0  0
M  END
>  <MODEL>
5

>  <REMARK>
 VINA RESULT:      -8.4      3.982      6.105
  Name = 
  3 active torsions:
  status: ('A' for Active; 'I' for Inactive)
    1  A    between atoms: N_1  and  C_10
    2  A    between atoms: N_2  and  C_24
    3  A    between atoms: C_10  and  C_24
                            x       y       z     vdW  Elec       q    Type
                         _______ _______ _______ _____ _____    ______ ____

>  <TORSDO>
F 3

$$$$
=
 OpenBabel10272413213D

 32 38  0  0  0  0  0  0  0  0999 V2000
  189.4000  177.6150  147.3400 N   0  0  0  0  0  0  0  0  0  0  0  0
  185.7180  178.4620  143.9020 C   0  0  0  0  0  0  0  0  0  0  0  0
  187.2570  178.4130  139.4150 C   0  0  0  0  0  0  0  0  0  0  0  0
  187.7260  178.3980  138.0730 N   0  0  0  0  0  1  0  0  0  0  0  0
  183.2120  178.7370  143.8060 C   0  0  0  0  0  0  0  0  0  0  0  0
  182.0870  178.8900  142.9990 C   0  0  0  0  0  0  0  0  0  0  0  0
  186.9730  178.2790  145.9820 C   0  0  0  0  0  0  0  0  0  0  0  0
  188.1180  178.1930  143.8890 N   0  0  0  0  0  0  0  0  0  0  0  0
  180.8030  179.0730  141.2030 C   0  0  0  0  0  0  0  0  0  0  0  0
  189.4930  178.0400  145.9370 C   0  0  0  0  0  2  0  0  0  0  0  0
  188.2570  178.2640  140.7670 S   0  0  0  0  0  0  0  0  0  0  0  0
  186.9500  178.3420  143.2080 C   0  0  0  0  0  0  0  0  0  0  0  0
  186.9470  178.3820  141.8180 C   0  0  0  0  0  0  0  0  0  0  0  0
  184.5460  178.6520  141.7310 C   0  0  0  0  0  0  0  0  0  0  0  0
  179.9850  179.0770  142.3740 N   0  0  0  0  0  0  0  0  0  0  0  0
  188.3700  178.3810  148.0560 C   0  0  0  0  0  2  0  0  0  0  0  0
  188.1590  178.1430  145.2460 C   0  0  0  0  0  0  0  0  0  0  0  0
  180.7240  178.9850  143.4110 N   0  0  0  0  0  0  0  0  0  0  0  0
  186.9690  178.1670  147.4730 C   0  0  0  0  0  2  0  0  0  0  0  0
  185.9520  178.5510  139.7370 N   0  0  0  0  0  0  0  0  0  0  0  0
  185.7820  178.5320  141.0860 C   0  0  0  0  0  0  0  0  0  0  0  0
  183.3750  178.8030  140.9650 C   0  0  0  0  0  3  0  0  0  0  0  0
  185.7640  178.4220  145.3030 C   0  0  0  0  0  3  0  0  0  0  0  0
  183.0400  178.6980  145.2220 N   0  0  0  0  0  1  0  0  0  0  0  0
  180.2360  178.8200  139.6910 S   0  0  0  0  0  0  0  0  0  0  0  0
  184.4920  178.6180  143.1740 C   0  0  0  0  0  0  0  0  0  0  0  0
  182.1730  178.9240  141.6410 C   0  0  0  0  0  0  0  0  0  0  0  0
  189.1260  176.1820  147.4020 C   0  0  0  0  0  2  0  0  0  0  0  0
  190.3850  175.4310  147.7920 C   0  0  0  0  0  2  0  0  0  0  0  0
  191.5480  176.2380  147.4710 N   0  0  0  0  0  0  0  0  0  0  0  0
  192.7210  175.4840  147.9400 C   0  0  0  0  0  2  0  0  0  0  0  0
  192.3560  175.4500  146.5300 C   0  0  0  0  0  2  0  0  0  0  0  0
  1 28  1  0  0  0  0
  1 16  1  0  0  0  0
  2 23  2  0  0  0  0
  3 20  2  0  0  0  0
  3 11  1  0  0  0  0
  4  3  1  0  0  0  0
  5 24  1  0  0  0  0
  6 18  1  0  0  0  0
  6  5  2  0  0  0  0
  7 19  1  0  0  0  0
  8 17  1  0  0  0  0
  9 27  1  0  0  0  0
  9 15  1  0  0  0  0
 10  1  1  0  0  0  0
 11 13  1  0  0  0  0
 12  8  2  0  0  0  0
 12  2  1  0  0  0  0
 13 12  1  0  0  0  0
 14 26  2  0  0  0  0
 15 18  2  0  0  0  0
 17 10  1  0  0  0  0
 17  7  2  0  0  0  0
 19 16  1  0  0  0  0
 20 21  1  0  0  0  0
 21 14  1  0  0  0  0
 21 13  2  0  0  0  0
 22 27  2  0  0  0  0
 22 14  1  0  0  0  0
 23  7  1  0  0  0  0
 25  9  2  0  0  0  0
 26  5  1  0  0  0  0
 26  2  1  0  0  0  0
 27  6  1  0  0  0  0
 28 29  1  0  0  0  0
 30 29  1  0  0  0  0
 30 31  1  0  0  0  0
 32 30  1  0  0  0  0
 32 31  1  0  0  0  0
M  END
>  <MODEL>
6

>  <REMARK>
 VINA RESULT:      -7.9      2.793      8.433
  Name = 
  3 active torsions:
  status: ('A' for Active; 'I' for Inactive)
    1  A    between atoms: N_1  and  C_10
    2  A    between atoms: N_2  and  C_24
    3  A    between atoms: C_10  and  C_24
                            x       y       z     vdW  Elec       q    Type
                         _______ _______ _______ _____ _____    ______ ____

>  <TORSDO>
F 3

$$$$
=
 OpenBabel10272413213D

 32 38  0  0  0  0  0  0  0  0999 V2000
  180.5490  179.1160  138.7170 N   0  0  0  0  0  0  0  0  0  0  0  0
  185.1220  178.6210  140.9400 C   0  0  0  0  0  0  0  0  0  0  0  0
  184.9260  178.4600  145.6770 C   0  0  0  0  0  0  0  0  0  0  0  0
  184.8600  178.4130  147.0970 N   0  0  0  0  0  1  0  0  0  0  0  0
  187.5330  178.2430  140.3000 C   0  0  0  0  0  0  0  0  0  0  0  0
  188.8340  178.0180  140.7440 C   0  0  0  0  0  0  0  0  0  0  0  0
  183.3420  178.9920  139.3190 C   0  0  0  0  0  0  0  0  0  0  0  0
  182.8400  178.9640  141.6520 N   0  0  0  0  0  0  0  0  0  0  0  0
  190.5620  177.6700  142.0860 C   0  0  0  0  0  0  0  0  0  0  0  0
  180.9670  179.3910  140.0980 C   0  0  0  0  0  2  0  0  0  0  0  0
  183.5920  178.7190  144.6770 S   0  0  0  0  0  0  0  0  0  0  0  0
  184.1440  178.7370  141.9630 C   0  0  0  0  0  0  0  0  0  0  0  0
  184.5410  178.6200  143.2900 C   0  0  0  0  0  0  0  0  0  0  0  0
  186.8520  178.2660  142.6730 C   0  0  0  0  0  0  0  0  0  0  0  0
  190.9950  177.5990  140.7260 N   0  0  0  0  0  0  0  0  0  0  0  0
  181.5110  179.6730  137.7540 C   0  0  0  0  0  2  0  0  0  0  0  0
  182.4150  179.0770  140.3670 C   0  0  0  0  0  0  0  0  0  0  0  0
  190.0030  177.8120  139.9520 N   0  0  0  0  0  0  0  0  0  0  0  0
  182.9050  179.0500  137.8900 C   0  0  0  0  0  2  0  0  0  0  0  0
  186.0780  178.3000  144.9890 N   0  0  0  0  0  0  0  0  0  0  0  0
  185.8580  178.3900  143.6490 C   0  0  0  0  0  0  0  0  0  0  0  0
  188.1830  178.0310  143.0640 C   0  0  0  0  0  3  0  0  0  0  0  0
  184.6820  178.7500  139.6150 C   0  0  0  0  0  3  0  0  0  0  0  0
  187.2910  178.3200  138.8970 N   0  0  0  0  0  1  0  0  0  0  0  0
  191.4320  177.1160  143.3540 S   0  0  0  0  0  0  0  0  0  0  0  0
  186.4950  178.3810  141.2780 C   0  0  0  0  0  0  0  0  0  0  0  0
  189.1390  177.9200  142.0670 C   0  0  0  0  0  0  0  0  0  0  0  0
  180.3940  177.6760  138.5290 C   0  0  0  0  0  2  0  0  0  0  0  0
  180.1020  177.0090  139.8600 C   0  0  0  0  0  2  0  0  0  0  0  0
  180.8800  175.7890  139.9700 N   0  0  0  0  0  0  0  0  0  0  0  0
  179.9820  174.7710  140.5370 C   0  0  0  0  0  2  0  0  0  0  0  0
  180.2280  174.7980  139.1020 C   0  0  0  0  0  2  0  0  0  0  0  0
  1 10  1  0  0  0  0
  2 26  2  0  0  0  0
  2 12  1  0  0  0  0
  3  4  1  0  0  0  0
  5  6  2  0  0  0  0
  5 26  1  0  0  0  0
  6 27  1  0  0  0  0
  7 23  2  0  0  0  0
  7 17  1  0  0  0  0
  8 12  1  0  0  0  0
  9 25  2  0  0  0  0
 10 17  1  0  0  0  0
 11  3  1  0  0  0  0
 12 13  2  0  0  0  0
 13 21  1  0  0  0  0
 13 11  1  0  0  0  0
 14 22  1  0  0  0  0
 14 21  2  0  0  0  0
 15  9  1  0  0  0  0
 16 19  1  0  0  0  0
 16  1  1  0  0  0  0
 17  8  2  0  0  0  0
 18 15  2  0  0  0  0
 18  6  1  0  0  0  0
 19  7  1  0  0  0  0
 20  3  2  0  0  0  0
 21 20  1  0  0  0  0
 23  2  1  0  0  0  0
 24  5  1  0  0  0  0
 26 14  1  0  0  0  0
 27  9  1  0  0  0  0
 27 22  2  0  0  0  0
 28  1  1  0  0  0  0
 28 29  1  0  0  0  0
 29 30  1  0  0  0  0
 30 31  1  0  0  0  0
 32 30  1  0  0  0  0
 32 31  1  0  0  0  0
M  END
>  <MODEL>
7

>  <REMARK>
 VINA RESULT:      -7.8      3.239      4.979
  Name = 
  3 active torsions:
  status: ('A' for Active; 'I' for Inactive)
    1  A    between atoms: N_1  and  C_10
    2  A    between atoms: N_2  and  C_24
    3  A    between atoms: C_10  and  C_24
                            x       y       z     vdW  Elec       q    Type
                         _______ _______ _______ _____ _____    ______ ____

>  <TORSDO>
F 3

$$$$
=
 OpenBabel10272413213D

 32 38  0  0  0  0  0  0  0  0999 V2000
  191.3140  176.1740  136.5410 N   0  0  0  0  0  0  0  0  0  0  0  0
  188.6730  177.5110  140.7040 C   0  0  0  0  0  0  0  0  0  0  0  0
  184.3320  179.1710  139.7510 C   0  0  0  0  0  0  0  0  0  0  0  0
  183.0320  179.6680  139.4580 N   0  0  0  0  0  1  0  0  0  0  0  0
  188.8740  177.4070  143.2170 C   0  0  0  0  0  0  0  0  0  0  0  0
  188.2590  177.6380  144.4450 C   0  0  0  0  0  0  0  0  0  0  0  0
  190.4590  176.8580  139.1830 C   0  0  0  0  0  0  0  0  0  0  0  0
  188.3790  177.6390  138.3100 N   0  0  0  0  0  0  0  0  0  0  0  0
  186.7400  178.1950  145.9590 C   0  0  0  0  0  0  0  0  0  0  0  0
  190.1370  177.0420  136.6790 C   0  0  0  0  0  2  0  0  0  0  0  0
  185.4680  178.7470  138.5780 S   0  0  0  0  0  0  0  0  0  0  0  0
  187.8840  177.8180  139.5640 C   0  0  0  0  0  0  0  0  0  0  0  0
  186.5970  178.3090  139.7480 C   0  0  0  0  0  0  0  0  0  0  0  0
  186.7960  178.2140  142.1560 C   0  0  0  0  0  0  0  0  0  0  0  0
  187.9020  177.6890  146.6160 N   0  0  0  0  0  0  0  0  0  0  0  0
  192.3270  176.4930  137.5570 C   0  0  0  0  0  2  0  0  0  0  0  0
  189.6300  177.1560  138.0920 C   0  0  0  0  0  0  0  0  0  0  0  0
  188.7840  177.3800  145.7460 N   0  0  0  0  0  0  0  0  0  0  0  0
  191.8180  176.2660  138.9850 C   0  0  0  0  0  2  0  0  0  0  0  0
  184.7830  178.9900  141.0120 N   0  0  0  0  0  0  0  0  0  0  0  0
  186.0540  178.5060  141.0060 C   0  0  0  0  0  0  0  0  0  0  0  0
  186.2220  178.4220  143.4240 C   0  0  0  0  0  3  0  0  0  0  0  0
  189.9670  177.0240  140.4760 C   0  0  0  0  0  3  0  0  0  0  0  0
  190.2000  176.8820  143.2020 N   0  0  0  0  0  1  0  0  0  0  0  0
  185.2820  178.3640  146.6780 S   0  0  0  0  0  0  0  0  0  0  0  0
  188.1410  177.7030  142.0220 C   0  0  0  0  0  0  0  0  0  0  0  0
  186.9910  178.1270  144.5370 C   0  0  0  0  0  0  0  0  0  0  0  0
  190.9040  174.7750  136.6300 C   0  0  0  0  0  2  0  0  0  0  0  0
  191.7360  173.9310  135.6830 C   0  0  0  0  0  2  0  0  0  0  0  0
  192.5870  173.0410  136.4500 N   0  0  0  0  0  0  0  0  0  0  0  0
  193.2410  172.1500  135.4780 C   0  0  0  0  0  2  0  0  0  0  0  0
  193.9660  173.2980  136.0070 C   0  0  0  0  0  2  0  0  0  0  0  0
  1 28  1  0  0  0  0
  1 10  1  0  0  0  0
  1 16  1  0  0  0  0
  2 26  1  0  0  0  0
  3 20  2  0  0  0  0
  4  3  1  0  0  0  0
  5  6  1  0  0  0  0
  6 27  2  0  0  0  0
  6 18  1  0  0  0  0
  7 23  2  0  0  0  0
  8 12  1  0  0  0  0
  9 15  1  0  0  0  0
  9 25  2  0  0  0  0
 10 17  1  0  0  0  0
 11 13  1  0  0  0  0
 11  3  1  0  0  0  0
 12 13  1  0  0  0  0
 12  2  2  0  0  0  0
 13 21  2  0  0  0  0
 14 22  2  0  0  0  0
 16 19  1  0  0  0  0
 17  8  2  0  0  0  0
 17  7  1  0  0  0  0
 18 15  2  0  0  0  0
 19  7  1  0  0  0  0
 21 20  1  0  0  0  0
 21 14  1  0  0  0  0
 22 27  1  0  0  0  0
 23  2  1  0  0  0  0
 24  5  1  0  0  0  0
 26 14  1  0  0  0  0
 26  5  2  0  0  0  0
 27  9  1  0  0  0  0
 29 30  1  0  0  0  0
 29 28  1  0  0  0  0
 31 32  1  0  0  0  0
 31 30  1  0  0  0  0
 32 30  1  0  0  0  0
M  END
>  <MODEL>
8

>  <REMARK>
 VINA RESULT:      -7.6      2.947      3.734
  Name = 
  3 active torsions:
  status: ('A' for Active; 'I' for Inactive)
    1  A    between atoms: N_1  and  C_10
    2  A    between atoms: N_2  and  C_24
    3  A    between atoms: C_10  and  C_24
                            x       y       z     vdW  Elec       q    Type
                         _______ _______ _______ _____ _____    ______ ____

>  <TORSDO>
F 3

$$$$
=
 OpenBabel10272413213D

 32 38  0  0  0  0  0  0  0  0999 V2000
  191.6370  177.4300  143.9160 N   0  0  0  0  0  0  0  0  0  0  0  0
  187.7320  178.1630  140.7050 C   0  0  0  0  0  0  0  0  0  0  0  0
  188.8070  177.2780  136.1700 C   0  0  0  0  0  0  0  0  0  0  0  0
  189.1370  177.0120  134.8130 N   0  0  0  0  0  1  0  0  0  0  0  0
  185.2680  178.6980  140.7750 C   0  0  0  0  0  0  0  0  0  0  0  0
  184.0890  178.8540  140.0500 C   0  0  0  0  0  0  0  0  0  0  0  0
  189.1630  178.1520  142.6770 C   0  0  0  0  0  0  0  0  0  0  0  0
  190.0810  177.6290  140.5360 N   0  0  0  0  0  0  0  0  0  0  0  0
  182.6570  178.9110  138.3600 C   0  0  0  0  0  0  0  0  0  0  0  0
  191.6310  177.6290  142.4610 C   0  0  0  0  0  2  0  0  0  0  0  0
  189.9160  177.2200  137.4410 S   0  0  0  0  0  0  0  0  0  0  0  0
  188.8720  177.8040  139.9390 C   0  0  0  0  0  0  0  0  0  0  0  0
  188.7350  177.6380  138.5660 C   0  0  0  0  0  0  0  0  0  0  0  0
  186.3750  178.1580  138.6360 C   0  0  0  0  0  0  0  0  0  0  0  0
  181.9630  179.1800  139.5800 N   0  0  0  0  0  0  0  0  0  0  0  0
  190.7620  178.4030  144.5860 C   0  0  0  0  0  2  0  0  0  0  0  0
  190.2510  177.7760  141.8750 C   0  0  0  0  0  0  0  0  0  0  0  0
  182.7890  179.1610  140.5530 N   0  0  0  0  0  0  0  0  0  0  0  0
  189.2960  178.2630  144.1620 C   0  0  0  0  0  2  0  0  0  0  0  0
  187.5590  177.6060  136.5730 N   0  0  0  0  0  0  0  0  0  0  0  0
  187.5230  177.8070  137.9180 C   0  0  0  0  0  0  0  0  0  0  0  0
  185.1540  178.3230  137.9560 C   0  0  0  0  0  3  0  0  0  0  0  0
  187.9130  178.3260  142.0860 C   0  0  0  0  0  3  0  0  0  0  0  0
  185.2340  178.8880  142.1890 N   0  0  0  0  0  1  0  0  0  0  0  0
  181.9210  178.5020  136.9600 S   0  0  0  0  0  0  0  0  0  0  0  0
  186.4610  178.3450  140.0660 C   0  0  0  0  0  0  0  0  0  0  0  0
  184.0420  178.6770  138.7010 C   0  0  0  0  0  0  0  0  0  0  0  0
  191.2320  176.0610  144.2260 C   0  0  0  0  0  2  0  0  0  0  0  0
  192.0290  175.5410  145.4070 C   0  0  0  0  0  2  0  0  0  0  0  0
  192.0520  176.5450  146.4540 N   0  0  0  0  0  0  0  0  0  0  0  0
  191.0430  176.1380  147.4450 C   0  0  0  0  0  2  0  0  0  0  0  0
  192.4500  175.8520  147.6880 C   0  0  0  0  0  2  0  0  0  0  0  0
  1 28  1  0  0  0  0
  1 16  1  0  0  0  0
  2 23  2  0  0  0  0
  3 20  2  0  0  0  0
  3 11  1  0  0  0  0
  4  3  1  0  0  0  0
  5 24  1  0  0  0  0
  6 18  1  0  0  0  0
  6  5  2  0  0  0  0
  7 19  1  0  0  0  0
  8 17  1  0  0  0  0
  9 27  1  0  0  0  0
  9 15  1  0  0  0  0
 10  1  1  0  0  0  0
 11 13  1  0  0  0  0
 12  8  2  0  0  0  0
 12  2  1  0  0  0  0
 13 12  1  0  0  0  0
 14 26  2  0  0  0  0
 15 18  2  0  0  0  0
 17 10  1  0  0  0  0
 17  7  2  0  0  0  0
 19 16  1  0  0  0  0
 20 21  1  0  0  0  0
 21 13  2  0  0  0  0
 21 14  1  0  0  0  0
 22 14  1  0  0  0  0
 22 27  2  0  0  0  0
 23  7  1  0  0  0  0
 25  9  2  0  0  0  0
 26  2  1  0  0  0  0
 26  5  1  0  0  0  0
 27  6  1  0  0  0  0
 28 29  1  0  0  0  0
 29 30  1  0  0  0  0
 30 31  1  0  0  0  0
 30 32  1  0  0  0  0
 31 32  1  0  0  0  0
M  END
>  <MODEL>
9

>  <REMARK>
 VINA RESULT:      -7.4      2.868      8.103
  Name = 
  3 active torsions:
  status: ('A' for Active; 'I' for Inactive)
    1  A    between atoms: N_1  and  C_10
    2  A    between atoms: N_2  and  C_24
    3  A    between atoms: C_10  and  C_24
                            x       y       z     vdW  Elec       q    Type
                         _______ _______ _______ _____ _____    ______ ____

>  <TORSDO>
F 3

$$$$
