=
 OpenBabel10272415173D

 34 39  0  0  1  0  0  0  0  0999 V2000
  187.8680  177.7660  144.9170 C   0  0  0  0  0  0  0  0  0  0  0  0
  191.3760  176.6050  143.7380 C   0  0  0  0  0  2  0  0  0  0  0  0
  191.5100  177.2260  140.2720 C   0  0  0  0  0  0  0  0  0  0  0  0
  190.4060  176.9870  145.9250 C   0  0  0  0  0  3  0  0  0  0  0  0
  185.6340  178.5220  145.5960 C   0  0  0  0  0  0  0  0  0  0  0  0
  186.5640  178.1820  144.5670 C   0  0  0  0  0  3  0  0  0  0  0  0
  187.3100  178.0380  147.2420 C   0  0  0  0  0  0  0  0  0  0  0  0
  187.9730  177.8720  148.4100 N   0  0  0  0  0  0  0  0  0  0  0  0
  192.8930  177.3530  140.2150 O   0  0  0  0  0  1  0  0  0  0  0  0
  186.0080  178.4540  146.9680 C   0  0  0  0  0  3  0  0  0  0  0  0
  189.3060  177.3660  146.7550 N   0  0  0  0  0  0  0  0  0  0  0  0
  188.1510  177.7230  146.2490 C   0  0  0  0  0  0  0  0  0  0  0  0
  189.2060  177.4580  148.0780 N   0  0  0  0  0  0  0  0  0  0  0  0
  191.5970  177.6800  142.7070 C   0  0  0  0  0  2  0  0  0  0  0  0
  190.8730  176.9810  139.2120 O   0  0  0  0  0  0  0  0  0  0  0  0
  190.8190  177.3700  141.5210 N   0  0  0  0  0  0  0  0  0  0  0  0
  189.3860  177.2540  141.5380 C   0  0  0  0  0  3  0  0  0  0  0  0
  190.2220  176.9970  144.5820 C   0  0  0  0  0  0  0  0  0  0  0  0
  188.5770  177.2840  142.6070 C   0  0  0  0  0  3  0  0  0  0  0  0
  188.9270  177.3900  144.0030 N   0  0  0  0  0  0  0  0  0  0  0  0
  184.2620  178.9770  145.2250 C   0  0  0  0  0  2  0  0  0  0  0  0
  184.4740  178.8440  141.3920 C   0  0  0  0  0  2  0  0  0  0  0  0
  182.4410  178.8550  143.5100 C   0  0  0  0  0  2  0  0  0  0  0  0
  181.4380  179.2550  139.4620 C   0  0  2  0  0  3  0  0  0  0  0  0
  182.7120  178.7380  139.7730 O   0  0  0  0  0  0  0  0  0  0  0  0
  183.0130  179.1530  141.0820 C   0  0  1  0  0  3  0  0  0  0  0  0
  180.6460  178.7720  141.7780 C   0  0  0  0  0  2  0  0  0  0  0  0
  182.1000  178.4290  142.0870 C   0  0  2  0  0  3  0  0  0  0  0  0
  180.3580  178.5500  140.2960 C   0  0  0  0  0  2  0  0  0  0  0  0
  183.9070  178.5420  143.8130 C   0  0  1  0  0  3  0  0  0  0  0  0
  184.8110  179.2660  142.8190 C   0  0  0  0  0  2  0  0  0  0  0  0
  181.1790  179.1470  137.9600 C   0  0  1  0  0  3  0  0  0  0  0  0
  181.0600  180.5090  137.2950 C   0  0  0  0  0  1  0  0  0  0  0  0
  182.2270  178.3750  137.3180 N   0  0  0  0  0  1  0  0  0  0  0  0
  1 12  1  0  0  0  0
  2 18  1  0  0  0  0
  3 16  1  0  0  0  0
  4 11  1  0  0  0  0
  5 10  2  0  0  0  0
  6  1  2  0  0  0  0
  6  5  1  0  0  0  0
  7  8  1  0  0  0  0
  9  3  1  0  0  0  0
 10  7  1  0  0  0  0
 11 13  1  0  0  0  0
 12 11  1  0  0  0  0
 12  7  2  0  0  0  0
 13  8  2  0  0  0  0
 14  2  1  0  0  0  0
 15  3  2  0  0  0  0
 16 17  1  0  0  0  0
 16 14  1  0  0  0  0
 17 19  2  0  0  0  0
 18  4  2  0  0  0  0
 19 20  1  0  0  0  0
 20 18  1  0  0  0  0
 20  1  1  0  0  0  0
 21  5  1  0  0  0  0
 22 31  1  0  0  0  0
 23 30  1  0  0  0  0
 24 32  1  6  0  0  0
 24 25  1  0  0  0  0
 24 29  1  0  0  0  0
 25 26  1  0  0  0  0
 26 22  1  1  0  0  0
 26 28  1  0  0  0  0
 28 27  1  6  0  0  0
 28 23  1  0  0  0  0
 29 27  1  0  0  0  0
 30 21  1  1  0  0  0
 31 30  1  0  0  0  0
 32 33  1  6  0  0  0
 34 32  1  0  0  0  0
M  END
>  <MODEL>
1

>  <REMARK>
 VINA RESULT:     -11.2      0.000      0.000
  Name = 
  3 active torsions:
  status: ('A' for Active; 'I' for Inactive)
    1  A    between atoms: C_7  and  C_11
    2  A    between atoms: C_8  and  C_18
    3  A    between atoms: C_18  and  C_30
                            x       y       z     vdW  Elec       q    Type
                         _______ _______ _______ _____ _____    ______ ____

>  <TORSDO>
F 3

$$$$
=
 OpenBabel10272415173D

 34 39  0  0  1  0  0  0  0  0999 V2000
  184.1930  178.7000  141.4800 C   0  0  0  0  0  0  0  0  0  0  0  0
  185.1760  178.4630  137.7350 C   0  0  0  0  0  2  0  0  0  0  0  0
  188.5720  177.5210  137.6620 C   0  0  0  0  0  0  0  0  0  0  0  0
  183.0490  178.6410  138.8820 C   0  0  0  0  0  3  0  0  0  0  0  0
  183.6370  178.8280  143.8660 C   0  0  0  0  0  0  0  0  0  0  0  0
  184.6130  178.7300  142.8280 C   0  0  0  0  0  3  0  0  0  0  0  0
  181.9050  178.8510  142.2090 C   0  0  0  0  0  0  0  0  0  0  0  0
  180.7030  178.8830  141.5860 N   0  0  0  0  0  0  0  0  0  0  0  0
  188.5130  176.9190  136.4100 O   0  0  0  0  0  0  0  0  0  0  0  0
  182.2480  178.8870  143.5600 C   0  0  0  0  0  3  0  0  0  0  0  0
  182.2810  178.7430  140.0830 N   0  0  0  0  0  0  0  0  0  0  0  0
  182.8490  178.7630  141.2640 C   0  0  0  0  0  0  0  0  0  0  0  0
  180.9680  178.8120  140.2720 N   0  0  0  0  0  0  0  0  0  0  0  0
  186.1110  177.2890  137.8570 C   0  0  0  0  0  2  0  0  0  0  0  0
  189.6910  177.8740  138.1220 O   0  0  0  0  0  1  0  0  0  0  0  0
  187.3720  177.7390  138.4190 N   0  0  0  0  0  0  0  0  0  0  0  0
  187.4720  178.3450  139.7190 C   0  0  0  0  0  3  0  0  0  0  0  0
  184.3990  178.5730  138.9930 C   0  0  0  0  0  0  0  0  0  0  0  0
  186.4690  178.6940  140.5380 C   0  0  0  0  0  3  0  0  0  0  0  0
  185.0470  178.6010  140.3140 N   0  0  0  0  0  0  0  0  0  0  0  0
  184.0800  178.8440  145.2920 C   0  0  0  0  0  2  0  0  0  0  0  0
  187.6210  177.5320  144.5880 C   0  0  0  0  0  2  0  0  0  0  0  0
  186.0210  178.5220  146.8410 C   0  0  0  0  0  2  0  0  0  0  0  0
  189.7880  176.7710  147.3870 C   0  0  2  0  0  3  0  0  0  0  0  0
  189.4570  177.2250  146.0940 O   0  0  0  0  0  0  0  0  0  0  0  0
  188.0550  177.2910  146.0300 C   0  0  1  0  0  3  0  0  0  0  0  0
  187.9600  178.1560  148.3690 C   0  0  0  0  0  2  0  0  0  0  0  0
  187.5400  178.4290  146.9290 C   0  0  2  0  0  3  0  0  0  0  0  0
  189.4540  177.8470  148.4310 C   0  0  0  0  0  2  0  0  0  0  0  0
  185.5940  178.7630  145.3930 C   0  0  1  0  0  3  0  0  0  0  0  0
  186.1000  177.6310  144.5040 C   0  0  0  0  0  2  0  0  0  0  0  0
  191.2540  176.3460  147.4370 C   0  0  1  0  0  3  0  0  0  0  0  0
  191.8690  176.2250  146.0520 C   0  0  0  0  0  1  0  0  0  0  0  0
  192.0260  177.2790  148.2390 N   0  0  0  0  0  1  0  0  0  0  0  0
  1  6  1  0  0  0  0
  2 14  1  0  0  0  0
  2 18  1  0  0  0  0
  3 15  1  0  0  0  0
  3 16  1  0  0  0  0
  4 18  2  0  0  0  0
  4 11  1  0  0  0  0
  5 21  1  0  0  0  0
  6  5  2  0  0  0  0
  7 10  2  0  0  0  0
  8  7  1  0  0  0  0
  9  3  2  0  0  0  0
 10  5  1  0  0  0  0
 11 13  1  0  0  0  0
 11 12  1  0  0  0  0
 12  1  2  0  0  0  0
 12  7  1  0  0  0  0
 13  8  2  0  0  0  0
 14 16  1  0  0  0  0
 16 17  1  0  0  0  0
 17 19  2  0  0  0  0
 18 20  1  0  0  0  0
 20 19  1  0  0  0  0
 20  1  1  0  0  0  0
 24 32  1  6  0  0  0
 24 29  1  0  0  0  0
 25 24  1  0  0  0  0
 26 22  1  6  0  0  0
 26 25  1  0  0  0  0
 26 28  1  0  0  0  0
 27 29  1  0  0  0  0
 28 23  1  1  0  0  0
 28 27  1  0  0  0  0
 30 21  1  1  0  0  0
 30 23  1  0  0  0  0
 31 22  1  0  0  0  0
 31 30  1  0  0  0  0
 32 33  1  6  0  0  0
 32 34  1  0  0  0  0
M  END
>  <MODEL>
2

>  <REMARK>
 VINA RESULT:     -11.1      2.668      8.039
  Name = 
  3 active torsions:
  status: ('A' for Active; 'I' for Inactive)
    1  A    between atoms: C_7  and  C_11
    2  A    between atoms: C_8  and  C_18
    3  A    between atoms: C_18  and  C_30
                            x       y       z     vdW  Elec       q    Type
                         _______ _______ _______ _____ _____    ______ ____

>  <TORSDO>
F 3

$$$$
=
 OpenBabel10272415173D

 34 39  0  0  1  0  0  0  0  0999 V2000
  184.4120  178.7170  141.7220 C   0  0  0  0  0  0  0  0  0  0  0  0
  185.5420  178.4040  138.0250 C   0  0  0  0  0  2  0  0  0  0  0  0
  188.9640  177.5640  138.1040 C   0  0  0  0  0  0  0  0  0  0  0  0
  183.3690  178.5500  139.0860 C   0  0  0  0  0  3  0  0  0  0  0  0
  183.7630  178.8950  144.0820 C   0  0  0  0  0  0  0  0  0  0  0  0
  184.7790  178.7970  143.0830 C   0  0  0  0  0  3  0  0  0  0  0  0
  182.0940  178.8180  142.3610 C   0  0  0  0  0  0  0  0  0  0  0  0
  180.9160  178.7960  141.6940 N   0  0  0  0  0  0  0  0  0  0  0  0
  188.9700  176.9250  136.8690 O   0  0  0  0  0  0  0  0  0  0  0  0
  182.3850  178.9030  143.7220 C   0  0  0  0  0  3  0  0  0  0  0  0
  182.5540  178.6620  140.2540 N   0  0  0  0  0  0  0  0  0  0  0  0
  183.0750  178.7330  141.4550 C   0  0  0  0  0  0  0  0  0  0  0  0
  181.2320  178.6970  140.3940 N   0  0  0  0  0  0  0  0  0  0  0  0
  186.5050  177.2630  138.2150 C   0  0  0  0  0  2  0  0  0  0  0  0
  190.0540  177.9630  138.5940 O   0  0  0  0  0  1  0  0  0  0  0  0
  187.7310  177.7670  138.8090 N   0  0  0  0  0  0  0  0  0  0  0  0
  187.7640  178.4110  140.0940 C   0  0  0  0  0  3  0  0  0  0  0  0
  184.7140  178.5260  139.2490 C   0  0  0  0  0  0  0  0  0  0  0  0
  186.7210  178.7530  140.8650 C   0  0  0  0  0  3  0  0  0  0  0  0
  185.3110  178.6100  140.5910 N   0  0  0  0  0  0  0  0  0  0  0  0
  184.1500  178.9640  145.5210 C   0  0  0  0  0  2  0  0  0  0  0  0
  187.2800  177.7230  147.3700 C   0  0  0  0  0  2  0  0  0  0  0  0
  186.3350  178.1320  144.6210 C   0  0  0  0  0  2  0  0  0  0  0  0
  190.3260  177.1950  145.4860 C   0  0  2  0  0  3  0  0  0  0  0  0
  189.3630  176.9410  146.4830 O   0  0  0  0  0  0  0  0  0  0  0  0
  188.2550  177.7580  146.1980 C   0  0  1  0  0  3  0  0  0  0  0  0
  188.5350  177.3350  143.7540 C   0  0  0  0  0  2  0  0  0  0  0  0
  187.5530  177.2660  144.9190 C   0  0  2  0  0  3  0  0  0  0  0  0
  189.8460  176.6500  144.1310 C   0  0  0  0  0  2  0  0  0  0  0  0
  185.3640  178.0920  145.8010 C   0  0  1  0  0  3  0  0  0  0  0  0
  186.0590  178.5860  147.0670 C   0  0  0  0  0  2  0  0  0  0  0  0
  191.6780  176.6160  145.9000 C   0  0  1  0  0  3  0  0  0  0  0  0
  191.6910  176.1600  147.3500 C   0  0  0  0  0  1  0  0  0  0  0  0
  192.0450  175.5120  145.0320 N   0  0  0  0  0  1  0  0  0  0  0  0
  1  6  1  0  0  0  0
  2 14  1  0  0  0  0
  2 18  1  0  0  0  0
  3 15  1  0  0  0  0
  3 16  1  0  0  0  0
  4 18  2  0  0  0  0
  4 11  1  0  0  0  0
  5 21  1  0  0  0  0
  6  5  2  0  0  0  0
  7 10  2  0  0  0  0
  8  7  1  0  0  0  0
  9  3  2  0  0  0  0
 10  5  1  0  0  0  0
 11 13  1  0  0  0  0
 11 12  1  0  0  0  0
 12  1  2  0  0  0  0
 12  7  1  0  0  0  0
 13  8  2  0  0  0  0
 14 16  1  0  0  0  0
 16 17  1  0  0  0  0
 17 19  2  0  0  0  0
 18 20  1  0  0  0  0
 20 19  1  0  0  0  0
 20  1  1  0  0  0  0
 23 28  1  0  0  0  0
 23 30  1  0  0  0  0
 24 32  1  1  0  0  0
 24 25  1  0  0  0  0
 26 25  1  0  0  0  0
 26 22  1  1  0  0  0
 27 29  1  0  0  0  0
 28 27  1  6  0  0  0
 28 26  1  0  0  0  0
 29 24  1  0  0  0  0
 30 21  1  6  0  0  0
 30 31  1  0  0  0  0
 31 22  1  0  0  0  0
 32 33  1  1  0  0  0
 34 32  1  0  0  0  0
M  END
>  <MODEL>
3

>  <REMARK>
 VINA RESULT:     -10.9      2.632      7.654
  Name = 
  3 active torsions:
  status: ('A' for Active; 'I' for Inactive)
    1  A    between atoms: C_7  and  C_11
    2  A    between atoms: C_8  and  C_18
    3  A    between atoms: C_18  and  C_30
                            x       y       z     vdW  Elec       q    Type
                         _______ _______ _______ _____ _____    ______ ____

>  <TORSDO>
F 3

$$$$
=
 OpenBabel10272415173D

 34 39  0  0  1  0  0  0  0  0999 V2000
  188.3800  177.5020  145.2570 C   0  0  0  0  0  0  0  0  0  0  0  0
  191.6170  176.5370  143.3510 C   0  0  0  0  0  2  0  0  0  0  0  0
  190.8540  176.7840  139.9190 C   0  0  0  0  0  0  0  0  0  0  0  0
  191.1560  177.0680  145.6690 C   0  0  0  0  0  3  0  0  0  0  0  0
  186.3010  178.1250  146.4010 C   0  0  0  0  0  0  0  0  0  0  0  0
  186.9920  177.7600  145.2060 C   0  0  0  0  0  3  0  0  0  0  0  0
  188.3620  177.9760  147.6160 C   0  0  0  0  0  0  0  0  0  0  0  0
  189.2980  177.9990  148.5950 N   0  0  0  0  0  0  0  0  0  0  0  0
  192.1610  177.0270  139.5120 O   0  0  0  0  0  1  0  0  0  0  0  0
  186.9940  178.2420  147.6390 C   0  0  0  0  0  3  0  0  0  0  0  0
  190.2490  177.4360  146.7100 N   0  0  0  0  0  0  0  0  0  0  0  0
  188.9740  177.6310  146.4770 C   0  0  0  0  0  0  0  0  0  0  0  0
  190.4550  177.6630  148.0040 N   0  0  0  0  0  0  0  0  0  0  0  0
  191.4640  177.5080  142.2100 C   0  0  0  0  0  2  0  0  0  0  0  0
  190.0160  176.3690  139.0740 O   0  0  0  0  0  0  0  0  0  0  0  0
  190.4670  177.0020  141.2830 N   0  0  0  0  0  0  0  0  0  0  0  0
  189.1020  176.7610  141.6640 C   0  0  0  0  0  3  0  0  0  0  0  0
  190.6590  176.9140  144.4170 C   0  0  0  0  0  0  0  0  0  0  0  0
  188.5710  176.8360  142.8930 C   0  0  0  0  0  3  0  0  0  0  0  0
  189.2280  177.1250  144.1450 N   0  0  0  0  0  0  0  0  0  0  0  0
  184.8380  178.4130  146.3440 C   0  0  0  0  0  2  0  0  0  0  0  0
  182.5600  179.3940  143.4100 C   0  0  0  0  0  2  0  0  0  0  0  0
  185.2870  178.4140  143.8800 C   0  0  0  0  0  2  0  0  0  0  0  0
  183.6270  178.6220  140.0380 C   0  0  2  0  0  3  0  0  0  0  0  0
  183.0130  179.3750  141.0590 O   0  0  0  0  0  0  0  0  0  0  0  0
  183.3860  178.7880  142.2810 C   0  0  1  0  0  3  0  0  0  0  0  0
  185.6930  178.3880  141.4170 C   0  0  0  0  0  2  0  0  0  0  0  0
  184.8840  179.0250  142.5430 C   0  0  2  0  0  3  0  0  0  0  0  0
  185.1490  178.8330  140.0630 C   0  0  0  0  0  2  0  0  0  0  0  0
  184.4540  179.0260  145.0070 C   0  0  1  0  0  3  0  0  0  0  0  0
  182.9690  178.7850  144.7480 C   0  0  0  0  0  2  0  0  0  0  0  0
  183.0130  178.9710  138.6840 C   0  0  1  0  0  3  0  0  0  0  0  0
  181.9510  177.9700  138.2570 C   0  0  0  0  0  1  0  0  0  0  0  0
  182.4470  180.3080  138.7120 N   0  0  0  0  0  1  0  0  0  0  0  0
  1 12  1  0  0  0  0
  2 18  1  0  0  0  0
  3 16  1  0  0  0  0
  4 11  1  0  0  0  0
  5 10  2  0  0  0  0
  6  1  2  0  0  0  0
  6  5  1  0  0  0  0
  7 10  1  0  0  0  0
  7  8  1  0  0  0  0
  9  3  1  0  0  0  0
 11 13  1  0  0  0  0
 12 11  1  0  0  0  0
 12  7  2  0  0  0  0
 13  8  2  0  0  0  0
 14  2  1  0  0  0  0
 15  3  2  0  0  0  0
 16 17  1  0  0  0  0
 16 14  1  0  0  0  0
 17 19  2  0  0  0  0
 18  4  2  0  0  0  0
 19 20  1  0  0  0  0
 20 18  1  0  0  0  0
 20  1  1  0  0  0  0
 21  5  1  0  0  0  0
 22 31  1  0  0  0  0
 23 30  1  0  0  0  0
 24 32  1  6  0  0  0
 24 29  1  0  0  0  0
 24 25  1  0  0  0  0
 25 26  1  0  0  0  0
 26 28  1  0  0  0  0
 26 22  1  1  0  0  0
 28 27  1  6  0  0  0
 28 23  1  0  0  0  0
 29 27  1  0  0  0  0
 30 21  1  1  0  0  0
 31 30  1  0  0  0  0
 32 33  1  1  0  0  0
 32 34  1  0  0  0  0
M  END
>  <MODEL>
4

>  <REMARK>
 VINA RESULT:     -10.9      1.273      1.938
  Name = 
  3 active torsions:
  status: ('A' for Active; 'I' for Inactive)
    1  A    between atoms: C_7  and  C_11
    2  A    between atoms: C_8  and  C_18
    3  A    between atoms: C_18  and  C_30
                            x       y       z     vdW  Elec       q    Type
                         _______ _______ _______ _____ _____    ______ ____

>  <TORSDO>
F 3

$$$$
=
 OpenBabel10272415173D

 34 39  0  0  1  0  0  0  0  0999 V2000
  187.8500  177.6590  143.5910 C   0  0  0  0  0  0  0  0  0  0  0  0
  191.5460  176.5690  143.1430 C   0  0  0  0  0  2  0  0  0  0  0  0
  192.3420  177.1430  139.7580 C   0  0  0  0  0  0  0  0  0  0  0  0
  190.1580  176.9590  145.0910 C   0  0  0  0  0  3  0  0  0  0  0  0
  185.5110  178.3690  143.8060 C   0  0  0  0  0  0  0  0  0  0  0  0
  186.6320  178.0380  142.9860 C   0  0  0  0  0  3  0  0  0  0  0  0
  186.8420  177.9500  145.7570 C   0  0  0  0  0  0  0  0  0  0  0  0
  187.2670  177.8180  147.0360 N   0  0  0  0  0  0  0  0  0  0  0  0
  193.7070  177.3040  139.9710 O   0  0  0  0  0  1  0  0  0  0  0  0
  185.6100  178.3310  145.2260 C   0  0  0  0  0  3  0  0  0  0  0  0
  188.9090  177.3220  145.6830 N   0  0  0  0  0  0  0  0  0  0  0  0
  187.8680  177.6430  144.9540 C   0  0  0  0  0  0  0  0  0  0  0  0
  188.5500  177.4310  146.9580 N   0  0  0  0  0  0  0  0  0  0  0  0
  191.9410  177.6350  142.1550 C   0  0  0  0  0  2  0  0  0  0  0  0
  191.9300  176.8680  138.6000 O   0  0  0  0  0  0  0  0  0  0  0  0
  191.4170  177.2890  140.8450 N   0  0  0  0  0  0  0  0  0  0  0  0
  190.0120  177.1370  140.5850 C   0  0  0  0  0  3  0  0  0  0  0  0
  190.2400  176.9440  143.7370 C   0  0  0  0  0  0  0  0  0  0  0  0
  189.0080  177.1620  141.4740 C   0  0  0  0  0  3  0  0  0  0  0  0
  189.0760  177.2970  142.9090 N   0  0  0  0  0  0  0  0  0  0  0  0
  184.2290  178.7840  143.1670 C   0  0  0  0  0  2  0  0  0  0  0  0
  184.7670  178.6300  139.3660 C   0  0  0  0  0  2  0  0  0  0  0  0
  182.6550  178.1110  141.3380 C   0  0  0  0  0  2  0  0  0  0  0  0
  181.9000  178.1170  137.2170 C   0  0  2  0  0  3  0  0  0  0  0  0
  183.2390  177.9910  137.6370 O   0  0  0  0  0  0  0  0  0  0  0  0
  183.3080  178.5040  138.9440 C   0  0  1  0  0  3  0  0  0  0  0  0
  181.0980  177.4810  139.4920 C   0  0  0  0  0  2  0  0  0  0  0  0
  182.5600  177.5720  139.9150 C   0  0  2  0  0  3  0  0  0  0  0  0
  181.0010  177.1520  138.0050 C   0  0  0  0  0  2  0  0  0  0  0  0
  184.1220  178.2350  141.7530 C   0  0  1  0  0  3  0  0  0  0  0  0
  184.8600  179.1640  140.7930 C   0  0  0  0  0  2  0  0  0  0  0  0
  181.7990  177.9050  135.7070 C   0  0  1  0  0  3  0  0  0  0  0  0
  183.0440  177.2500  135.1310 C   0  0  0  0  0  1  0  0  0  0  0  0
  180.6280  177.1100  135.3830 N   0  0  0  0  0  1  0  0  0  0  0  0
  1 12  1  0  0  0  0
  2 18  1  0  0  0  0
  3  9  1  0  0  0  0
  3 16  1  0  0  0  0
  4 11  1  0  0  0  0
  5 10  2  0  0  0  0
  6  1  2  0  0  0  0
  6  5  1  0  0  0  0
  7  8  1  0  0  0  0
 10  7  1  0  0  0  0
 11 13  1  0  0  0  0
 12 11  1  0  0  0  0
 12  7  2  0  0  0  0
 13  8  2  0  0  0  0
 14  2  1  0  0  0  0
 15  3  2  0  0  0  0
 16 14  1  0  0  0  0
 17 16  1  0  0  0  0
 17 19  2  0  0  0  0
 18  4  2  0  0  0  0
 19 20  1  0  0  0  0
 20  1  1  0  0  0  0
 20 18  1  0  0  0  0
 21  5  1  0  0  0  0
 22 31  1  0  0  0  0
 23 30  1  0  0  0  0
 24 32  1  6  0  0  0
 24 25  1  0  0  0  0
 24 29  1  0  0  0  0
 25 26  1  0  0  0  0
 26 22  1  1  0  0  0
 26 28  1  0  0  0  0
 28 27  1  6  0  0  0
 28 23  1  0  0  0  0
 29 27  1  0  0  0  0
 30 21  1  1  0  0  0
 31 30  1  0  0  0  0
 32 33  1  1  0  0  0
 34 32  1  0  0  0  0
M  END
>  <MODEL>
5

>  <REMARK>
 VINA RESULT:     -10.3      1.531      1.914
  Name = 
  3 active torsions:
  status: ('A' for Active; 'I' for Inactive)
    1  A    between atoms: C_7  and  C_11
    2  A    between atoms: C_8  and  C_18
    3  A    between atoms: C_18  and  C_30
                            x       y       z     vdW  Elec       q    Type
                         _______ _______ _______ _____ _____    ______ ____

>  <TORSDO>
F 3

$$$$
=
 OpenBabel10272415173D

 34 39  0  0  1  0  0  0  0  0999 V2000
  186.7410  178.1040  143.8440 C   0  0  0  0  0  0  0  0  0  0  0  0
  188.1280  177.1840  147.3480 C   0  0  0  0  0  2  0  0  0  0  0  0
  191.5670  176.5490  146.9150 C   0  0  0  0  0  0  0  0  0  0  0  0
  186.0390  178.1540  146.5950 C   0  0  0  0  0  3  0  0  0  0  0  0
  185.9300  178.6800  141.6010 C   0  0  0  0  0  0  0  0  0  0  0  0
  186.9520  178.1530  142.4480 C   0  0  0  0  0  3  0  0  0  0  0  0
  184.5680  179.0880  143.5320 C   0  0  0  0  0  0  0  0  0  0  0  0
  183.5570  179.4560  144.3540 N   0  0  0  0  0  0  0  0  0  0  0  0
  191.9240  176.8700  148.2190 O   0  0  0  0  0  1  0  0  0  0  0  0
  184.7080  179.1640  142.1460 C   0  0  0  0  0  3  0  0  0  0  0  0
  185.1820  178.6200  145.5510 N   0  0  0  0  0  0  0  0  0  0  0  0
  185.5460  178.5820  144.2920 C   0  0  0  0  0  0  0  0  0  0  0  0
  183.9670  179.1570  145.5960 N   0  0  0  0  0  0  0  0  0  0  0  0
  189.4730  177.8450  147.2010 C   0  0  0  0  0  2  0  0  0  0  0  0
  192.3490  175.8460  146.2200 O   0  0  0  0  0  0  0  0  0  0  0  0
  190.3250  177.0130  146.3680 N   0  0  0  0  0  0  0  0  0  0  0  0
  189.9970  176.6810  145.0080 C   0  0  0  0  0  3  0  0  0  0  0  0
  187.2520  177.6570  146.2490 C   0  0  0  0  0  0  0  0  0  0  0  0
  188.8620  176.9570  144.3500 C   0  0  0  0  0  3  0  0  0  0  0  0
  187.6690  177.6050  144.8390 N   0  0  0  0  0  0  0  0  0  0  0  0
  186.1590  178.7460  140.1280 C   0  0  0  0  0  2  0  0  0  0  0  0
  189.8130  177.7000  139.5700 C   0  0  0  0  0  2  0  0  0  0  0  0
  187.2070  177.4830  138.2360 C   0  0  0  0  0  2  0  0  0  0  0  0
  190.7760  176.3820  136.3380 C   0  0  2  0  0  3  0  0  0  0  0  0
  190.7900  176.4990  137.7430 O   0  0  0  0  0  0  0  0  0  0  0  0
  189.7100  177.3270  138.0950 C   0  0  1  0  0  3  0  0  0  0  0  0
  188.2840  176.2590  136.3460 C   0  0  0  0  0  2  0  0  0  0  0  0
  188.3800  176.5990  137.8300 C   0  0  2  0  0  3  0  0  0  0  0  0
  189.5600  175.5600  135.8840 C   0  0  0  0  0  2  0  0  0  0  0  0
  187.3170  177.8530  139.7150 C   0  0  1  0  0  3  0  0  0  0  0  0
  188.6340  178.5800  139.9750 C   0  0  0  0  0  2  0  0  0  0  0  0
  192.0960  175.7900  135.8460 C   0  0  1  0  0  3  0  0  0  0  0  0
  193.2640  176.1530  136.7480 C   0  0  0  0  0  1  0  0  0  0  0  0
  191.9920  174.3460  135.7300 N   0  0  0  0  0  1  0  0  0  0  0  0
  1 12  1  0  0  0  0
  1 20  1  0  0  0  0
  3  9  1  0  0  0  0
  5 10  2  0  0  0  0
  5  6  1  0  0  0  0
  6  1  2  0  0  0  0
  7 12  2  0  0  0  0
  7  8  1  0  0  0  0
  8 13  2  0  0  0  0
 10  7  1  0  0  0  0
 11 13  1  0  0  0  0
 11  4  1  0  0  0  0
 12 11  1  0  0  0  0
 14  2  1  0  0  0  0
 15  3  2  0  0  0  0
 16  3  1  0  0  0  0
 16 14  1  0  0  0  0
 17 16  1  0  0  0  0
 18  4  2  0  0  0  0
 18  2  1  0  0  0  0
 19 20  1  0  0  0  0
 19 17  2  0  0  0  0
 20 18  1  0  0  0  0
 21  5  1  0  0  0  0
 22 31  1  0  0  0  0
 23 30  1  0  0  0  0
 24 32  1  1  0  0  0
 24 25  1  0  0  0  0
 25 26  1  0  0  0  0
 26 22  1  1  0  0  0
 28 27  1  6  0  0  0
 28 26  1  0  0  0  0
 28 23  1  0  0  0  0
 29 24  1  0  0  0  0
 29 27  1  0  0  0  0
 30 31  1  0  0  0  0
 30 21  1  6  0  0  0
 32 33  1  1  0  0  0
 34 32  1  0  0  0  0
M  END
>  <MODEL>
6

>  <REMARK>
 VINA RESULT:     -10.2      3.495      6.758
  Name = 
  3 active torsions:
  status: ('A' for Active; 'I' for Inactive)
    1  A    between atoms: C_7  and  C_11
    2  A    between atoms: C_8  and  C_18
    3  A    between atoms: C_18  and  C_30
                            x       y       z     vdW  Elec       q    Type
                         _______ _______ _______ _____ _____    ______ ____

>  <TORSDO>
F 3

$$$$
=
 OpenBabel10272415173D

 34 39  0  0  1  0  0  0  0  0999 V2000
  185.6410  178.2800  139.6870 C   0  0  0  0  0  0  0  0  0  0  0  0
  188.5300  177.4030  137.2520 C   0  0  0  0  0  2  0  0  0  0  0  0
  191.3870  176.8900  139.2520 C   0  0  0  0  0  0  0  0  0  0  0  0
  186.1260  177.5490  136.9860 C   0  0  0  0  0  3  0  0  0  0  0  0
  183.8580  178.8270  141.2820 C   0  0  0  0  0  0  0  0  0  0  0  0
  185.2440  178.6380  140.9950 C   0  0  0  0  0  3  0  0  0  0  0  0
  183.3340  178.2960  139.0030 C   0  0  0  0  0  0  0  0  0  0  0  0
  182.6780  178.0510  137.8440 N   0  0  0  0  0  0  0  0  0  0  0  0
  192.0240  176.0410  138.3540 O   0  0  0  0  0  0  0  0  0  0  0  0
  182.8720  178.6500  140.2700 C   0  0  0  0  0  3  0  0  0  0  0  0
  184.8230  177.8010  137.5170 N   0  0  0  0  0  0  0  0  0  0  0  0
  184.6420  178.1330  138.7720 C   0  0  0  0  0  0  0  0  0  0  0  0
  183.6250  177.7460  136.9440 N   0  0  0  0  0  0  0  0  0  0  0  0
  189.2270  176.4020  138.1360 C   0  0  0  0  0  2  0  0  0  0  0  0
  192.0680  177.4640  140.1430 O   0  0  0  0  0  1  0  0  0  0  0  0
  189.9720  177.1090  139.1630 N   0  0  0  0  0  0  0  0  0  0  0  0
  189.3420  177.9760  140.1220 C   0  0  0  0  0  3  0  0  0  0  0  0
  187.1880  177.6720  137.8210 C   0  0  0  0  0  0  0  0  0  0  0  0
  188.0580  178.3610  140.1570 C   0  0  0  0  0  3  0  0  0  0  0  0
  186.9960  178.0500  139.2310 N   0  0  0  0  0  0  0  0  0  0  0  0
  183.4380  179.1890  142.6670 C   0  0  0  0  0  2  0  0  0  0  0  0
  184.8510  178.2890  146.1240 C   0  0  0  0  0  2  0  0  0  0  0  0
  185.7120  178.3670  143.3190 C   0  0  0  0  0  2  0  0  0  0  0  0
  188.4080  177.7040  146.4570 C   0  0  2  0  0  3  0  0  0  0  0  0
  187.0370  177.5130  146.7200 O   0  0  0  0  0  0  0  0  0  0  0  0
  186.3280  178.2460  145.7510 C   0  0  1  0  0  3  0  0  0  0  0  0
  187.9810  177.5830  144.0020 C   0  0  0  0  0  2  0  0  0  0  0  0
  186.5010  177.5920  144.3680 C   0  0  2  0  0  3  0  0  0  0  0  0
  188.8030  177.0010  145.1500 C   0  0  0  0  0  2  0  0  0  0  0  0
  184.2320  178.4060  143.7000 C   0  0  1  0  0  3  0  0  0  0  0  0
  184.0630  179.0600  145.0690 C   0  0  0  0  0  2  0  0  0  0  0  0
  189.2430  177.2340  147.6470 C   0  0  1  0  0  3  0  0  0  0  0  0
  190.6740  176.9050  147.2540 C   0  0  0  0  0  1  0  0  0  0  0  0
  189.2380  178.2360  148.6980 N   0  0  0  0  0  1  0  0  0  0  0  0
  1  6  1  0  0  0  0
  2 18  1  0  0  0  0
  2 14  1  0  0  0  0
  3 15  1  0  0  0  0
  4 11  1  0  0  0  0
  4 18  2  0  0  0  0
  5 21  1  0  0  0  0
  6  5  2  0  0  0  0
  7 10  2  0  0  0  0
  8  7  1  0  0  0  0
  9  3  2  0  0  0  0
 10  5  1  0  0  0  0
 11 12  1  0  0  0  0
 12  7  1  0  0  0  0
 12  1  2  0  0  0  0
 13 11  1  0  0  0  0
 13  8  2  0  0  0  0
 14 16  1  0  0  0  0
 16  3  1  0  0  0  0
 16 17  1  0  0  0  0
 17 19  2  0  0  0  0
 18 20  1  0  0  0  0
 20  1  1  0  0  0  0
 20 19  1  0  0  0  0
 23 30  1  0  0  0  0
 24 25  1  0  0  0  0
 24 32  1  1  0  0  0
 26 22  1  1  0  0  0
 26 25  1  0  0  0  0
 27 28  1  0  0  0  0
 27 29  1  0  0  0  0
 28 23  1  6  0  0  0
 28 26  1  0  0  0  0
 29 24  1  0  0  0  0
 30 21  1  6  0  0  0
 30 31  1  0  0  0  0
 31 22  1  0  0  0  0
 32 33  1  6  0  0  0
 32 34  1  0  0  0  0
M  END
>  <MODEL>
7

>  <REMARK>
 VINA RESULT:     -10.2      2.556      7.553
  Name = 
  3 active torsions:
  status: ('A' for Active; 'I' for Inactive)
    1  A    between atoms: C_7  and  C_11
    2  A    between atoms: C_8  and  C_18
    3  A    between atoms: C_18  and  C_30
                            x       y       z     vdW  Elec       q    Type
                         _______ _______ _______ _____ _____    ______ ____

>  <TORSDO>
F 3

$$$$
=
 OpenBabel10272415173D

 34 39  0  0  1  0  0  0  0  0999 V2000
  183.5610  178.4250  140.7790 C   0  0  0  0  0  0  0  0  0  0  0  0
  183.6720  177.2780  137.0760 C   0  0  0  0  0  2  0  0  0  0  0  0
  187.0800  176.9180  136.2540 C   0  0  0  0  0  0  0  0  0  0  0  0
  181.8890  177.4330  138.7090 C   0  0  0  0  0  3  0  0  0  0  0  0
  183.5610  179.1460  143.1250 C   0  0  0  0  0  0  0  0  0  0  0  0
  184.2640  178.9110  141.9040 C   0  0  0  0  0  3  0  0  0  0  0  0
  181.5350  178.4070  142.0780 C   0  0  0  0  0  0  0  0  0  0  0  0
  180.2470  178.0620  141.8370 N   0  0  0  0  0  0  0  0  0  0  0  0
  186.8740  175.9790  135.2500 O   0  0  0  0  0  0  0  0  0  0  0  0
  182.1650  178.8870  143.2250 C   0  0  0  0  0  3  0  0  0  0  0  0
  181.4200  177.7520  140.0210 N   0  0  0  0  0  0  0  0  0  0  0  0
  182.2260  178.2040  140.9500 C   0  0  0  0  0  0  0  0  0  0  0  0
  180.2080  177.6590  140.5580 N   0  0  0  0  0  0  0  0  0  0  0  0
  184.8570  176.3570  137.1970 C   0  0  0  0  0  2  0  0  0  0  0  0
  188.1620  177.5650  136.2760 O   0  0  0  0  0  1  0  0  0  0  0  0
  186.0730  177.1480  137.2500 N   0  0  0  0  0  0  0  0  0  0  0  0
  186.3290  178.1110  138.2860 C   0  0  0  0  0  3  0  0  0  0  0  0
  183.2050  177.6200  138.4410 C   0  0  0  0  0  0  0  0  0  0  0  0
  185.4910  178.5150  139.2520 C   0  0  0  0  0  3  0  0  0  0  0  0
  184.1180  178.1320  139.4750 N   0  0  0  0  0  0  0  0  0  0  0  0
  184.3070  179.6440  144.3170 C   0  0  0  0  0  2  0  0  0  0  0  0
  186.4220  177.7220  146.8850 C   0  0  0  0  0  2  0  0  0  0  0  0
  186.6210  178.7040  144.1260 C   0  0  0  0  0  2  0  0  0  0  0  0
  189.9220  177.1350  146.1740 C   0  0  2  0  0  3  0  0  0  0  0  0
  188.6390  176.8420  146.6780 O   0  0  0  0  0  0  0  0  0  0  0  0
  187.7700  177.8300  146.1820 C   0  0  1  0  0  3  0  0  0  0  0  0
  188.9390  177.7900  143.9760 C   0  0  0  0  0  2  0  0  0  0  0  0
  187.5840  177.6520  144.6640 C   0  0  2  0  0  3  0  0  0  0  0  0
  189.9670  176.8910  144.6570 C   0  0  0  0  0  2  0  0  0  0  0  0
  185.2720  178.5900  144.8360 C   0  0  1  0  0  3  0  0  0  0  0  0
  185.4570  178.7720  146.3400 C   0  0  0  0  0  2  0  0  0  0  0  0
  190.9800  176.3280  146.9250 C   0  0  1  0  0  3  0  0  0  0  0  0
  192.0050  175.7070  145.9900 C   0  0  0  0  0  1  0  0  0  0  0  0
  191.6500  177.1610  147.9080 N   0  0  0  0  0  1  0  0  0  0  0  0
  1 12  2  0  0  0  0
  1  6  1  0  0  0  0
  2 14  1  0  0  0  0
  2 18  1  0  0  0  0
  3 15  1  0  0  0  0
  3 16  1  0  0  0  0
  4 11  1  0  0  0  0
  5 10  1  0  0  0  0
  5 21  1  0  0  0  0
  6  5  2  0  0  0  0
  7 10  2  0  0  0  0
  8  7  1  0  0  0  0
  9  3  2  0  0  0  0
 11 13  1  0  0  0  0
 11 12  1  0  0  0  0
 12  7  1  0  0  0  0
 13  8  2  0  0  0  0
 14 16  1  0  0  0  0
 16 17  1  0  0  0  0
 17 19  2  0  0  0  0
 18  4  2  0  0  0  0
 18 20  1  0  0  0  0
 19 20  1  0  0  0  0
 20  1  1  0  0  0  0
 23 28  1  0  0  0  0
 23 30  1  0  0  0  0
 24 25  1  0  0  0  0
 24 32  1  1  0  0  0
 26 25  1  0  0  0  0
 26 22  1  1  0  0  0
 27 29  1  0  0  0  0
 28 27  1  6  0  0  0
 28 26  1  0  0  0  0
 29 24  1  0  0  0  0
 30 21  1  6  0  0  0
 30 31  1  0  0  0  0
 31 22  1  0  0  0  0
 32 33  1  6  0  0  0
 32 34  1  0  0  0  0
M  END
>  <MODEL>
8

>  <REMARK>
 VINA RESULT:     -10.1      2.970      8.326
  Name = 
  3 active torsions:
  status: ('A' for Active; 'I' for Inactive)
    1  A    between atoms: C_7  and  C_11
    2  A    between atoms: C_8  and  C_18
    3  A    between atoms: C_18  and  C_30
                            x       y       z     vdW  Elec       q    Type
                         _______ _______ _______ _____ _____    ______ ____

>  <TORSDO>
F 3

$$$$
=
 OpenBabel10272415173D

 34 39  0  0  1  0  0  0  0  0999 V2000
  188.8050  176.0160  137.3920 C   0  0  0  0  0  0  0  0  0  0  0  0
  186.7830  174.1710  134.6440 C   0  0  0  0  0  2  0  0  0  0  0  0
  187.0570  170.7300  135.3560 C   0  0  0  0  0  0  0  0  0  0  0  0
  186.9270  176.4940  135.3170 C   0  0  0  0  0  3  0  0  0  0  0  0
  190.0980  177.1200  139.1610 C   0  0  0  0  0  0  0  0  0  0  0  0
  189.7270  175.9330  138.4590 C   0  0  0  0  0  3  0  0  0  0  0  0
  188.6410  178.3910  137.7430 C   0  0  0  0  0  0  0  0  0  0  0  0
  187.9430  179.3970  137.1650 N   0  0  0  0  0  0  0  0  0  0  0  0
  185.8640  170.3740  134.7370 O   0  0  0  0  0  0  0  0  0  0  0  0
  189.5450  178.3820  138.8040 C   0  0  0  0  0  3  0  0  0  0  0  0
  187.4570  177.5210  136.1560 N   0  0  0  0  0  0  0  0  0  0  0  0
  188.3210  177.2580  137.1070 C   0  0  0  0  0  0  0  0  0  0  0  0
  187.2190  178.8290  136.1890 N   0  0  0  0  0  0  0  0  0  0  0  0
  186.2420  173.0670  135.5130 C   0  0  0  0  0  2  0  0  0  0  0  0
  187.9280  169.8450  135.5660 O   0  0  0  0  0  1  0  0  0  0  0  0
  187.2900  172.0900  135.7510 N   0  0  0  0  0  0  0  0  0  0  0  0
  188.5250  172.4190  136.4090 C   0  0  0  0  0  3  0  0  0  0  0  0
  187.3490  175.2220  135.5220 C   0  0  0  0  0  0  0  0  0  0  0  0
  188.9540  173.6340  136.7820 C   0  0  0  0  0  3  0  0  0  0  0  0
  188.3230  174.9150  136.5830 N   0  0  0  0  0  0  0  0  0  0  0  0
  191.0600  177.0300  140.2990 C   0  0  0  0  0  2  0  0  0  0  0  0
  190.9470  178.2180  143.9500 C   0  0  0  0  0  2  0  0  0  0  0  0
  189.2000  176.9300  141.9740 C   0  0  0  0  0  2  0  0  0  0  0  0
  188.1290  177.2600  146.0110 C   0  0  2  0  0  3  0  0  0  0  0  0
  189.1550  178.1000  145.5350 O   0  0  0  0  0  0  0  0  0  0  0  0
  189.6730  177.4970  144.3750 C   0  0  1  0  0  3  0  0  0  0  0  0
  187.3770  176.8100  143.6740 C   0  0  0  0  0  2  0  0  0  0  0  0
  188.6330  177.5590  143.2410 C   0  0  2  0  0  3  0  0  0  0  0  0
  186.9280  177.2900  145.0520 C   0  0  0  0  0  2  0  0  0  0  0  0
  190.4780  177.6580  141.5550 C   0  0  1  0  0  3  0  0  0  0  0  0
  191.5090  177.5900  142.6780 C   0  0  0  0  0  2  0  0  0  0  0  0
  187.7450  177.6530  147.4370 C   0  0  1  0  0  3  0  0  0  0  0  0
  188.9040  178.2810  148.1940 C   0  0  0  0  0  1  0  0  0  0  0  0
  186.6120  178.5610  147.4250 N   0  0  0  0  0  1  0  0  0  0  0  0
  1  6  1  0  0  0  0
  2 14  1  0  0  0  0
  2 18  1  0  0  0  0
  3 15  1  0  0  0  0
  3 16  1  0  0  0  0
  4 18  2  0  0  0  0
  4 11  1  0  0  0  0
  5 21  1  0  0  0  0
  6  5  2  0  0  0  0
  7 10  2  0  0  0  0
  8  7  1  0  0  0  0
  9  3  2  0  0  0  0
 10  5  1  0  0  0  0
 11 13  1  0  0  0  0
 11 12  1  0  0  0  0
 12  1  2  0  0  0  0
 12  7  1  0  0  0  0
 13  8  2  0  0  0  0
 14 16  1  0  0  0  0
 16 17  1  0  0  0  0
 17 19  2  0  0  0  0
 18 20  1  0  0  0  0
 20 19  1  0  0  0  0
 20  1  1  0  0  0  0
 24 32  1  1  0  0  0
 25 24  1  0  0  0  0
 26 22  1  6  0  0  0
 26 25  1  0  0  0  0
 27 29  1  0  0  0  0
 28 23  1  6  0  0  0
 28 27  1  0  0  0  0
 28 26  1  0  0  0  0
 29 24  1  0  0  0  0
 30 21  1  6  0  0  0
 30 23  1  0  0  0  0
 30 31  1  0  0  0  0
 31 22  1  0  0  0  0
 32 33  1  6  0  0  0
 34 32  1  0  0  0  0
M  END
>  <MODEL>
9

>  <REMARK>
 VINA RESULT:      -9.9      5.045      9.197
  Name = 
  3 active torsions:
  status: ('A' for Active; 'I' for Inactive)
    1  A    between atoms: C_7  and  C_11
    2  A    between atoms: C_8  and  C_18
    3  A    between atoms: C_18  and  C_30
                            x       y       z     vdW  Elec       q    Type
                         _______ _______ _______ _____ _____    ______ ____

>  <TORSDO>
F 3

$$$$
