=
 OpenBabel10272400423D

 25 28  0  0  1  0  0  0  0  0999 V2000
  187.3810  177.8980  145.5220 C   0  0  0  0  0  0  0  0  0  0  0  0
  188.6960  177.4010  145.2950 C   0  0  0  0  0  0  0  0  0  0  0  0
  187.8790  177.9370  147.9120 C   0  0  0  0  0  3  0  0  0  0  0  0
  186.4230  178.1590  144.5000 C   0  0  0  0  0  0  0  0  0  0  0  0
  184.2290  178.8090  143.6870 C   0  0  0  0  0  2  0  0  0  0  0  0
  189.1230  177.4610  147.6650 N   0  0  0  0  0  0  0  0  0  0  0  0
  184.7930  178.8830  146.1430 C   0  0  0  0  0  3  0  0  0  0  0  0
  185.1570  178.6240  144.8250 C   0  0  0  0  0  0  0  0  0  0  0  0
  190.8580  176.6900  146.2070 C   0  0  0  0  0  0  0  0  0  0  0  0
  191.7810  176.4510  147.3540 C   0  0  0  0  0  1  0  0  0  0  0  0
  189.1820  177.1080  144.0130 C   0  0  0  0  0  3  0  0  0  0  0  0
  184.8090  178.0000  142.5360 C   0  0  0  0  0  2  0  0  0  0  0  0
  186.9910  178.1630  146.8650 C   0  0  0  0  0  0  0  0  0  0  0  0
  185.7150  178.6540  147.1620 C   0  0  0  0  0  3  0  0  0  0  0  0
  191.3080  176.4080  144.9160 C   0  0  0  0  0  3  0  0  0  0  0  0
  186.6220  177.9280  142.7340 S   0  0  0  0  0  0  0  0  0  0  0  0
  190.4750  176.6230  143.8200 C   0  0  0  0  0  0  0  0  0  0  0  0
  189.5560  177.1870  146.4060 C   0  0  0  0  0  0  0  0  0  0  0  0
  190.9520  176.2960  142.4470 C   0  0  0  0  0  2  0  0  0  0  0  0
  190.6860  177.4110  141.5520 N   0  0  0  0  0  0  0  0  0  0  0  0
  191.8980  177.6270  140.7800 C   0  0  0  0  0  1  0  0  0  0  0  0
  189.6700  176.9630  140.6120 C   0  0  0  0  0  2  0  0  0  0  0  0
  189.3960  177.1120  138.2100 N   0  0  0  0  0  1  0  0  0  0  0  0
  189.6250  177.8910  139.4120 C   0  0  1  0  0  3  0  0  0  0  0  0
  188.5950  178.8180  139.5650 O   0  0  0  0  0  1  0  0  0  0  0  0
  1 13  1  0  0  0  0
  2  1  2  0  0  0  0
  2 18  1  0  0  0  0
  4  8  2  0  0  0  0
  4  1  1  0  0  0  0
  5  8  1  0  0  0  0
  6  3  1  0  0  0  0
  7 14  2  0  0  0  0
  8  7  1  0  0  0  0
  9 18  1  0  0  0  0
  9 10  1  0  0  0  0
 11  2  1  0  0  0  0
 12 16  1  0  0  0  0
 12  5  1  0  0  0  0
 13 14  1  0  0  0  0
 13  3  2  0  0  0  0
 15  9  2  0  0  0  0
 16  4  1  0  0  0  0
 17 11  2  0  0  0  0
 17 15  1  0  0  0  0
 18  6  2  0  0  0  0
 19 17  1  0  0  0  0
 20 19  1  0  0  0  0
 21 20  1  0  0  0  0
 22 20  1  0  0  0  0
 24 23  1  6  0  0  0
 24 25  1  0  0  0  0
 24 22  1  0  0  0  0
M  END
>  <MODEL>
1

>  <REMARK>
 VINA RESULT:      -9.8      0.000      0.000
  Name = 
  4 active torsions:
  status: ('A' for Active; 'I' for Inactive)
    1  A    between atoms: C_6  and  N_15
    2  A    between atoms: C_6  and  C_23
    3  A    between atoms: C_7  and  C_21
    4  A    between atoms: N_15  and  C_21
                            x       y       z     vdW  Elec       q    Type
                         _______ _______ _______ _____ _____    ______ ____

>  <TORSDO>
F 4

$$$$
=
 OpenBabel10272400423D

 25 28  0  0  1  0  0  0  0  0999 V2000
  186.9690  177.8830  144.8460 C   0  0  0  0  0  0  0  0  0  0  0  0
  188.0890  177.4230  144.0970 C   0  0  0  0  0  0  0  0  0  0  0  0
  188.2700  177.5340  146.8820 C   0  0  0  0  0  3  0  0  0  0  0  0
  185.7330  178.3110  144.2810 C   0  0  0  0  0  0  0  0  0  0  0  0
  183.4380  179.0960  144.4030 C   0  0  0  0  0  2  0  0  0  0  0  0
  189.3180  177.0970  146.1430 N   0  0  0  0  0  0  0  0  0  0  0  0
  184.8270  178.7700  146.4810 C   0  0  0  0  0  3  0  0  0  0  0  0
  184.6920  178.7240  145.0970 C   0  0  0  0  0  0  0  0  0  0  0  0
  190.3850  176.5620  144.0680 C   0  0  0  0  0  0  0  0  0  0  0  0
  191.6330  176.1360  144.7640 C   0  0  0  0  0  1  0  0  0  0  0  0
  188.0780  177.3370  142.6970 C   0  0  0  0  0  3  0  0  0  0  0  0
  183.5290  178.4790  143.0150 C   0  0  0  0  0  2  0  0  0  0  0  0
  187.0890  177.9310  146.2630 C   0  0  0  0  0  0  0  0  0  0  0  0
  186.0300  178.3740  147.0620 C   0  0  0  0  0  3  0  0  0  0  0  0
  190.3380  176.4890  142.6750 C   0  0  0  0  0  3  0  0  0  0  0  0
  185.2890  178.3660  142.5450 S   0  0  0  0  0  0  0  0  0  0  0  0
  189.1910  176.8830  141.9890 C   0  0  0  0  0  0  0  0  0  0  0  0
  189.2680  177.0280  144.7860 C   0  0  0  0  0  0  0  0  0  0  0  0
  189.1370  176.7790  140.5040 C   0  0  0  0  0  2  0  0  0  0  0  0
  189.9840  177.7980  139.9050 N   0  0  0  0  0  0  0  0  0  0  0  0
  190.9990  177.1010  139.1350 C   0  0  0  0  0  1  0  0  0  0  0  0
  189.1600  178.5200  138.9480 C   0  0  0  0  0  2  0  0  0  0  0  0
  186.7420  178.6220  138.8350 N   0  0  0  0  0  1  0  0  0  0  0  0
  187.8860  177.7440  138.6680 C   0  0  1  0  0  3  0  0  0  0  0  0
  187.9040  177.2530  137.3630 O   0  0  0  0  0  1  0  0  0  0  0  0
  1 13  1  0  0  0  0
  2 18  1  0  0  0  0
  2  1  1  0  0  0  0
  4  1  2  0  0  0  0
  4  8  1  0  0  0  0
  5  8  1  0  0  0  0
  6  3  2  0  0  0  0
  7 14  1  0  0  0  0
  8  7  2  0  0  0  0
  9 10  1  0  0  0  0
  9 18  2  0  0  0  0
 11  2  2  0  0  0  0
 12  5  1  0  0  0  0
 13  3  1  0  0  0  0
 13 14  2  0  0  0  0
 15  9  1  0  0  0  0
 16 12  1  0  0  0  0
 16  4  1  0  0  0  0
 17 15  2  0  0  0  0
 17 11  1  0  0  0  0
 18  6  1  0  0  0  0
 19 17  1  0  0  0  0
 20 19  1  0  0  0  0
 21 20  1  0  0  0  0
 22 20  1  0  0  0  0
 24 25  1  6  0  0  0
 24 23  1  0  0  0  0
 24 22  1  0  0  0  0
M  END
>  <MODEL>
2

>  <REMARK>
 VINA RESULT:      -9.3      1.359      1.818
  Name = 
  4 active torsions:
  status: ('A' for Active; 'I' for Inactive)
    1  A    between atoms: C_6  and  N_15
    2  A    between atoms: C_6  and  C_23
    3  A    between atoms: C_7  and  C_21
    4  A    between atoms: N_15  and  C_21
                            x       y       z     vdW  Elec       q    Type
                         _______ _______ _______ _____ _____    ______ ____

>  <TORSDO>
F 4

$$$$
=
 OpenBabel10272400423D

 25 28  0  0  1  0  0  0  0  0999 V2000
  186.3290  178.3580  143.1390 C   0  0  0  0  0  0  0  0  0  0  0  0
  187.5540  178.1770  142.4360 C   0  0  0  0  0  0  0  0  0  0  0  0
  185.2460  178.8210  141.0000 C   0  0  0  0  0  3  0  0  0  0  0  0
  186.1730  178.2270  144.5490 C   0  0  0  0  0  0  0  0  0  0  0  0
  184.9090  178.3320  146.6200 C   0  0  0  0  0  2  0  0  0  0  0  0
  186.4270  178.6470  140.3590 N   0  0  0  0  0  0  0  0  0  0  0  0
  183.8130  178.7580  144.3900 C   0  0  0  0  0  3  0  0  0  0  0  0
  184.9400  178.4440  145.1440 C   0  0  0  0  0  0  0  0  0  0  0  0
  188.7720  178.1670  140.3080 C   0  0  0  0  0  0  0  0  0  0  0  0
  188.8210  178.3300  138.8270 C   0  0  0  0  0  1  0  0  0  0  0  0
  188.7550  177.8530  143.0830 C   0  0  0  0  0  3  0  0  0  0  0  0
  186.3540  178.4530  147.0800 C   0  0  0  0  0  2  0  0  0  0  0  0
  185.1690  178.6850  142.3830 C   0  0  0  0  0  0  0  0  0  0  0  0
  183.9310  178.8750  143.0060 C   0  0  0  0  0  3  0  0  0  0  0  0
  189.9490  177.8450  140.9850 C   0  0  0  0  0  3  0  0  0  0  0  0
  187.4390  177.8250  145.7530 S   0  0  0  0  0  0  0  0  0  0  0  0
  189.9410  177.6810  142.3690 C   0  0  0  0  0  0  0  0  0  0  0  0
  187.5710  178.3340  141.0240 C   0  0  0  0  0  0  0  0  0  0  0  0
  191.2050  177.3620  143.0890 C   0  0  0  0  0  2  0  0  0  0  0  0
  190.9190  176.5330  144.2490 N   0  0  0  0  0  0  0  0  0  0  0  0
  191.6590  175.2960  144.0730 C   0  0  0  0  0  1  0  0  0  0  0  0
  191.5000  177.2040  145.4000 C   0  0  0  0  0  2  0  0  0  0  0  0
  192.4310  176.1230  147.3580 N   0  0  0  0  0  1  0  0  0  0  0  0
  191.1930  176.4270  146.6670 C   0  0  1  0  0  3  0  0  0  0  0  0
  190.3710  177.1850  147.5030 O   0  0  0  0  0  1  0  0  0  0  0  0
  1  4  2  0  0  0  0
  2 11  1  0  0  0  0
  2  1  1  0  0  0  0
  3 13  1  0  0  0  0
  4  8  1  0  0  0  0
  4 16  1  0  0  0  0
  5 12  1  0  0  0  0
  6  3  2  0  0  0  0
  6 18  1  0  0  0  0
  7  8  2  0  0  0  0
  8  5  1  0  0  0  0
  9 15  2  0  0  0  0
  9 18  1  0  0  0  0
 10  9  1  0  0  0  0
 13 14  2  0  0  0  0
 13  1  1  0  0  0  0
 14  7  1  0  0  0  0
 15 17  1  0  0  0  0
 16 12  1  0  0  0  0
 17 11  2  0  0  0  0
 17 19  1  0  0  0  0
 18  2  2  0  0  0  0
 19 20  1  0  0  0  0
 20 22  1  0  0  0  0
 21 20  1  0  0  0  0
 22 24  1  0  0  0  0
 24 23  1  1  0  0  0
 24 25  1  0  0  0  0
M  END
>  <MODEL>
3

>  <REMARK>
 VINA RESULT:      -9.2      2.440      5.226
  Name = 
  4 active torsions:
  status: ('A' for Active; 'I' for Inactive)
    1  A    between atoms: C_6  and  N_15
    2  A    between atoms: C_6  and  C_23
    3  A    between atoms: C_7  and  C_21
    4  A    between atoms: N_15  and  C_21
                            x       y       z     vdW  Elec       q    Type
                         _______ _______ _______ _____ _____    ______ ____

>  <TORSDO>
F 4

$$$$
=
 OpenBabel10272400423D

 25 28  0  0  1  0  0  0  0  0999 V2000
  186.9220  178.0150  144.2880 C   0  0  0  0  0  0  0  0  0  0  0  0
  187.9750  177.7850  143.3580 C   0  0  0  0  0  0  0  0  0  0  0  0
  188.4240  177.2860  146.0690 C   0  0  0  0  0  3  0  0  0  0  0  0
  185.6260  178.4990  143.9460 C   0  0  0  0  0  0  0  0  0  0  0  0
  183.3330  179.1270  144.4450 C   0  0  0  0  0  2  0  0  0  0  0  0
  189.4060  177.0730  145.1600 N   0  0  0  0  0  0  0  0  0  0  0  0
  184.9260  178.4150  146.2650 C   0  0  0  0  0  3  0  0  0  0  0  0
  184.6580  178.6710  144.9240 C   0  0  0  0  0  0  0  0  0  0  0  0
  190.2790  177.0620  142.9310 C   0  0  0  0  0  0  0  0  0  0  0  0
  191.5990  176.5520  143.4000 C   0  0  0  0  0  1  0  0  0  0  0  0
  187.8300  178.0110  141.9810 C   0  0  0  0  0  3  0  0  0  0  0  0
  183.3050  178.8380  142.9520 C   0  0  0  0  0  2  0  0  0  0  0  0
  187.1780  177.7530  145.6630 C   0  0  0  0  0  0  0  0  0  0  0  0
  186.1900  177.9580  146.6320 C   0  0  0  0  0  3  0  0  0  0  0  0
  190.0980  177.2970  141.5670 C   0  0  0  0  0  3  0  0  0  0  0  0
  185.0130  178.9160  142.3140 S   0  0  0  0  0  0  0  0  0  0  0  0
  188.8800  177.7780  141.0930 C   0  0  0  0  0  0  0  0  0  0  0  0
  189.2250  177.3030  143.8320 C   0  0  0  0  0  0  0  0  0  0  0  0
  188.6840  178.0030  139.6330 C   0  0  0  0  0  2  0  0  0  0  0  0
  188.9950  176.7870  138.8980 N   0  0  0  0  0  0  0  0  0  0  0  0
  187.8960  176.5630  137.9760 C   0  0  0  0  0  1  0  0  0  0  0  0
  190.1670  177.0740  138.0860 C   0  0  0  0  0  2  0  0  0  0  0  0
  190.9690  174.7890  138.0710 N   0  0  0  0  0  1  0  0  0  0  0  0
  191.3040  176.1440  138.4650 C   0  0  1  0  0  3  0  0  0  0  0  0
  192.4760  176.5370  137.8180 O   0  0  0  0  0  1  0  0  0  0  0  0
  1 13  1  0  0  0  0
  2 18  1  0  0  0  0
  2  1  1  0  0  0  0
  4  1  2  0  0  0  0
  4  8  1  0  0  0  0
  5  8  1  0  0  0  0
  6  3  2  0  0  0  0
  7 14  1  0  0  0  0
  8  7  2  0  0  0  0
  9 10  1  0  0  0  0
  9 18  2  0  0  0  0
 11  2  2  0  0  0  0
 12  5  1  0  0  0  0
 13  3  1  0  0  0  0
 13 14  2  0  0  0  0
 15  9  1  0  0  0  0
 16 12  1  0  0  0  0
 16  4  1  0  0  0  0
 17 15  2  0  0  0  0
 17 11  1  0  0  0  0
 18  6  1  0  0  0  0
 19 17  1  0  0  0  0
 20 19  1  0  0  0  0
 21 20  1  0  0  0  0
 22 24  1  0  0  0  0
 22 20  1  0  0  0  0
 23 24  1  0  0  0  0
 24 25  1  6  0  0  0
M  END
>  <MODEL>
4

>  <REMARK>
 VINA RESULT:      -8.9      1.882      2.760
  Name = 
  4 active torsions:
  status: ('A' for Active; 'I' for Inactive)
    1  A    between atoms: C_6  and  N_15
    2  A    between atoms: C_6  and  C_23
    3  A    between atoms: C_7  and  C_21
    4  A    between atoms: N_15  and  C_21
                            x       y       z     vdW  Elec       q    Type
                         _______ _______ _______ _____ _____    ______ ____

>  <TORSDO>
F 4

$$$$
=
 OpenBabel10272400423D

 25 28  0  0  1  0  0  0  0  0999 V2000
  186.7170  178.0400  144.9880 C   0  0  0  0  0  0  0  0  0  0  0  0
  185.6310  178.2820  144.1000 C   0  0  0  0  0  0  0  0  0  0  0  0
  185.1880  178.4130  146.8550 C   0  0  0  0  0  3  0  0  0  0  0  0
  188.0450  177.7200  144.5820 C   0  0  0  0  0  0  0  0  0  0  0  0
  190.3920  177.2480  144.9860 C   0  0  0  0  0  2  0  0  0  0  0  0
  184.1740  178.6420  145.9850 N   0  0  0  0  0  0  0  0  0  0  0  0
  188.7750  177.5910  146.8900 C   0  0  0  0  0  3  0  0  0  0  0  0
  189.0410  177.5220  145.5250 C   0  0  0  0  0  0  0  0  0  0  0  0
  183.2640  178.8380  143.7800 C   0  0  0  0  0  0  0  0  0  0  0  0
  181.9120  179.1670  144.3150 C   0  0  0  0  0  1  0  0  0  0  0  0
  185.7710  178.2350  142.7060 C   0  0  0  0  0  3  0  0  0  0  0  0
  190.3680  177.7140  143.5380 C   0  0  0  0  0  2  0  0  0  0  0  0
  186.4630  178.1120  146.3870 C   0  0  0  0  0  0  0  0  0  0  0  0
  187.4820  177.8840  147.3180 C   0  0  0  0  0  3  0  0  0  0  0  0
  183.4410  178.7840  142.3960 C   0  0  0  0  0  3  0  0  0  0  0  0
  188.6630  177.5570  142.9070 S   0  0  0  0  0  0  0  0  0  0  0  0
  184.6880  178.4760  141.8590 C   0  0  0  0  0  0  0  0  0  0  0  0
  184.3510  178.5880  144.6380 C   0  0  0  0  0  0  0  0  0  0  0  0
  184.8770  178.4440  140.3820 C   0  0  0  0  0  2  0  0  0  0  0  0
  183.5870  178.5220  139.7160 N   0  0  0  0  0  0  0  0  0  0  0  0
  183.6330  179.6850  138.8470 C   0  0  0  0  0  1  0  0  0  0  0  0
  183.4910  177.3590  138.8480 C   0  0  0  0  0  2  0  0  0  0  0  0
  181.3860  176.9230  139.9670 N   0  0  0  0  0  1  0  0  0  0  0  0
  182.6070  176.3030  139.4870 C   0  0  1  0  0  3  0  0  0  0  0  0
  182.2880  175.3190  138.5510 O   0  0  0  0  0  1  0  0  0  0  0  0
  1 13  1  0  0  0  0
  2 18  1  0  0  0  0
  2  1  1  0  0  0  0
  4  1  2  0  0  0  0
  4  8  1  0  0  0  0
  5  8  1  0  0  0  0
  6  3  2  0  0  0  0
  7 14  1  0  0  0  0
  8  7  2  0  0  0  0
  9 10  1  0  0  0  0
  9 18  2  0  0  0  0
 11  2  2  0  0  0  0
 12  5  1  0  0  0  0
 13  3  1  0  0  0  0
 13 14  2  0  0  0  0
 15  9  1  0  0  0  0
 16 12  1  0  0  0  0
 16  4  1  0  0  0  0
 17 15  2  0  0  0  0
 17 11  1  0  0  0  0
 18  6  1  0  0  0  0
 19 17  1  0  0  0  0
 20 19  1  0  0  0  0
 21 20  1  0  0  0  0
 22 24  1  0  0  0  0
 22 20  1  0  0  0  0
 24 25  1  6  0  0  0
 24 23  1  0  0  0  0
M  END
>  <MODEL>
5

>  <REMARK>
 VINA RESULT:      -8.8      3.262      6.014
  Name = 
  4 active torsions:
  status: ('A' for Active; 'I' for Inactive)
    1  A    between atoms: C_6  and  N_15
    2  A    between atoms: C_6  and  C_23
    3  A    between atoms: C_7  and  C_21
    4  A    between atoms: N_15  and  C_21
                            x       y       z     vdW  Elec       q    Type
                         _______ _______ _______ _____ _____    ______ ____

>  <TORSDO>
F 4

$$$$
=
 OpenBabel10272400423D

 25 28  0  0  1  0  0  0  0  0999 V2000
  187.7550  177.7720  145.8890 C   0  0  0  0  0  0  0  0  0  0  0  0
  187.0080  177.9700  144.6930 C   0  0  0  0  0  0  0  0  0  0  0  0
  185.8120  178.5420  147.1510 C   0  0  0  0  0  3  0  0  0  0  0  0
  189.0930  177.2860  145.9410 C   0  0  0  0  0  0  0  0  0  0  0  0
  191.1490  176.6840  147.0860 C   0  0  0  0  0  2  0  0  0  0  0  0
  185.1280  178.7240  145.9960 N   0  0  0  0  0  0  0  0  0  0  0  0
  189.1080  177.4380  148.3600 C   0  0  0  0  0  3  0  0  0  0  0  0
  189.7440  177.1470  147.1570 C   0  0  0  0  0  0  0  0  0  0  0  0
  184.9200  178.6680  143.6120 C   0  0  0  0  0  0  0  0  0  0  0  0
  183.5230  179.1840  143.6740 C   0  0  0  0  0  1  0  0  0  0  0  0
  187.5350  177.7060  143.4210 C   0  0  0  0  0  3  0  0  0  0  0  0
  191.5990  176.9320  145.6530 C   0  0  0  0  0  2  0  0  0  0  0  0
  187.1210  178.0710  147.1270 C   0  0  0  0  0  0  0  0  0  0  0  0
  187.7940  177.8980  148.3420 C   0  0  0  0  0  3  0  0  0  0  0  0
  185.4790  178.3960  142.3620 C   0  0  0  0  0  3  0  0  0  0  0  0
  190.1410  176.8270  144.5610 S   0  0  0  0  0  0  0  0  0  0  0  0
  186.7800  177.9090  142.2650 C   0  0  0  0  0  0  0  0  0  0  0  0
  185.6760  178.4580  144.7810 C   0  0  0  0  0  0  0  0  0  0  0  0
  187.3800  177.6450  140.9280 C   0  0  0  0  0  2  0  0  0  0  0  0
  188.6360  178.3650  140.7960 N   0  0  0  0  0  0  0  0  0  0  0  0
  189.6980  177.3980  141.0170 C   0  0  0  0  0  1  0  0  0  0  0  0
  188.7380  178.7830  139.4070 C   0  0  0  0  0  2  0  0  0  0  0  0
  187.0590  178.7700  137.6610 N   0  0  0  0  0  1  0  0  0  0  0  0
  187.8450  177.9200  138.5360 C   0  0  1  0  0  3  0  0  0  0  0  0
  188.6230  177.0570  137.7640 O   0  0  0  0  0  1  0  0  0  0  0  0
  1  4  2  0  0  0  0
  1 13  1  0  0  0  0
  2 18  1  0  0  0  0
  2  1  1  0  0  0  0
  4  8  1  0  0  0  0
  5  8  1  0  0  0  0
  6  3  2  0  0  0  0
  8  7  2  0  0  0  0
  9 10  1  0  0  0  0
  9 18  2  0  0  0  0
 11  2  2  0  0  0  0
 12  5  1  0  0  0  0
 13  3  1  0  0  0  0
 13 14  2  0  0  0  0
 14  7  1  0  0  0  0
 15  9  1  0  0  0  0
 16 12  1  0  0  0  0
 16  4  1  0  0  0  0
 17 15  2  0  0  0  0
 17 11  1  0  0  0  0
 18  6  1  0  0  0  0
 19 17  1  0  0  0  0
 20 19  1  0  0  0  0
 20 21  1  0  0  0  0
 22 20  1  0  0  0  0
 24 23  1  6  0  0  0
 24 22  1  0  0  0  0
 25 24  1  0  0  0  0
M  END
>  <MODEL>
6

>  <REMARK>
 VINA RESULT:      -8.6      1.850      4.516
  Name = 
  4 active torsions:
  status: ('A' for Active; 'I' for Inactive)
    1  A    between atoms: C_6  and  N_15
    2  A    between atoms: C_6  and  C_23
    3  A    between atoms: C_7  and  C_21
    4  A    between atoms: N_15  and  C_21
                            x       y       z     vdW  Elec       q    Type
                         _______ _______ _______ _____ _____    ______ ____

>  <TORSDO>
F 4

$$$$
=
 OpenBabel10272400423D

 25 28  0  0  1  0  0  0  0  0999 V2000
  187.5840  177.7930  144.9900 C   0  0  0  0  0  0  0  0  0  0  0  0
  186.5330  178.1540  144.1010 C   0  0  0  0  0  0  0  0  0  0  0  0
  185.9870  177.9360  146.8310 C   0  0  0  0  0  3  0  0  0  0  0  0
  188.9260  177.5180  144.5960 C   0  0  0  0  0  0  0  0  0  0  0  0
  191.2560  176.9810  145.0230 C   0  0  0  0  0  2  0  0  0  0  0  0
  185.0080  178.2810  145.9600 N   0  0  0  0  0  0  0  0  0  0  0  0
  189.5680  177.0900  146.8930 C   0  0  0  0  0  3  0  0  0  0  0  0
  189.8850  177.1940  145.5420 C   0  0  0  0  0  0  0  0  0  0  0  0
  184.1820  178.7630  143.7660 C   0  0  0  0  0  0  0  0  0  0  0  0
  182.8110  179.0310  144.2890 C   0  0  0  0  0  1  0  0  0  0  0  0
  186.7250  178.2840  142.7180 C   0  0  0  0  0  3  0  0  0  0  0  0
  191.2870  177.6270  143.6460 C   0  0  0  0  0  2  0  0  0  0  0  0
  187.2780  177.6880  146.3760 C   0  0  0  0  0  0  0  0  0  0  0  0
  188.2610  177.3360  147.3070 C   0  0  0  0  0  3  0  0  0  0  0  0
  184.4100  178.8850  142.3950 C   0  0  0  0  0  3  0  0  0  0  0  0
  189.6060  177.5650  142.9380 S   0  0  0  0  0  0  0  0  0  0  0  0
  185.6760  178.6380  141.8690 C   0  0  0  0  0  0  0  0  0  0  0  0
  185.2350  178.3980  144.6250 C   0  0  0  0  0  0  0  0  0  0  0  0
  185.9210  178.7940  140.4080 C   0  0  0  0  0  2  0  0  0  0  0  0
  184.7290  178.4190  139.6630 N   0  0  0  0  0  0  0  0  0  0  0  0
  184.0950  179.6550  139.2370 C   0  0  0  0  0  1  0  0  0  0  0  0
  185.1810  177.7470  138.4560 C   0  0  0  0  0  2  0  0  0  0  0  0
  187.3320  176.8190  137.8410 N   0  0  0  0  0  1  0  0  0  0  0  0
  186.6490  178.0440  138.2120 C   0  0  1  0  0  3  0  0  0  0  0  0
  186.7820  178.9770  137.1840 O   0  0  0  0  0  1  0  0  0  0  0  0
  1 13  1  0  0  0  0
  2 18  1  0  0  0  0
  2  1  1  0  0  0  0
  4  1  2  0  0  0  0
  4  8  1  0  0  0  0
  5  8  1  0  0  0  0
  6  3  2  0  0  0  0
  7 14  1  0  0  0  0
  8  7  2  0  0  0  0
  9 10  1  0  0  0  0
  9 18  2  0  0  0  0
 11  2  2  0  0  0  0
 12  5  1  0  0  0  0
 13  3  1  0  0  0  0
 13 14  2  0  0  0  0
 15  9  1  0  0  0  0
 16 12  1  0  0  0  0
 16  4  1  0  0  0  0
 17 15  2  0  0  0  0
 17 11  1  0  0  0  0
 18  6  1  0  0  0  0
 19 17  1  0  0  0  0
 20 19  1  0  0  0  0
 21 20  1  0  0  0  0
 22 20  1  0  0  0  0
 23 24  1  0  0  0  0
 24 25  1  6  0  0  0
 24 22  1  0  0  0  0
M  END
>  <MODEL>
7

>  <REMARK>
 VINA RESULT:      -8.6      2.290      5.189
  Name = 
  4 active torsions:
  status: ('A' for Active; 'I' for Inactive)
    1  A    between atoms: C_6  and  N_15
    2  A    between atoms: C_6  and  C_23
    3  A    between atoms: C_7  and  C_21
    4  A    between atoms: N_15  and  C_21
                            x       y       z     vdW  Elec       q    Type
                         _______ _______ _______ _____ _____    ______ ____

>  <TORSDO>
F 4

$$$$
=
 OpenBabel10272400423D

 25 28  0  0  1  0  0  0  0  0999 V2000
  187.5320  178.0250  142.3470 C   0  0  0  0  0  0  0  0  0  0  0  0
  186.9150  178.0290  143.6300 C   0  0  0  0  0  0  0  0  0  0  0  0
  185.4130  178.7840  141.4000 C   0  0  0  0  0  3  0  0  0  0  0  0
  188.8880  177.6670  142.0970 C   0  0  0  0  0  0  0  0  0  0  0  0
  190.7980  177.2350  140.6600 C   0  0  0  0  0  2  0  0  0  0  0  0
  184.8530  178.7740  142.6330 N   0  0  0  0  0  0  0  0  0  0  0  0
  188.6090  178.0650  139.7220 C   0  0  0  0  0  3  0  0  0  0  0  0
  189.3910  177.6760  140.8050 C   0  0  0  0  0  0  0  0  0  0  0  0
  184.9180  178.4160  144.9990 C   0  0  0  0  0  0  0  0  0  0  0  0
  183.4870  178.8080  145.1460 C   0  0  0  0  0  1  0  0  0  0  0  0
  187.6000  177.6630  144.7980 C   0  0  0  0  0  3  0  0  0  0  0  0
  191.1310  176.4720  141.9330 C   0  0  0  0  0  2  0  0  0  0  0  0
  186.7440  178.4150  141.2280 C   0  0  0  0  0  0  0  0  0  0  0  0
  187.2840  178.4370  139.9380 C   0  0  0  0  0  3  0  0  0  0  0  0
  185.6310  178.0450  146.1400 C   0  0  0  0  0  3  0  0  0  0  0  0
  190.1150  177.1400  143.2930 S   0  0  0  0  0  0  0  0  0  0  0  0
  186.9700  177.6760  146.0430 C   0  0  0  0  0  0  0  0  0  0  0  0
  185.5510  178.4120  143.7420 C   0  0  0  0  0  0  0  0  0  0  0  0
  187.7190  177.2570  147.2610 C   0  0  0  0  0  2  0  0  0  0  0  0
  189.0960  177.7170  147.1790 N   0  0  0  0  0  0  0  0  0  0  0  0
  189.3570  178.4760  148.3900 C   0  0  0  0  0  1  0  0  0  0  0  0
  189.9400  176.5350  147.2400 C   0  0  0  0  0  2  0  0  0  0  0  0
  192.1660  176.6550  148.1880 N   0  0  0  0  0  1  0  0  0  0  0  0
  191.3880  176.9140  146.9910 C   0  0  1  0  0  3  0  0  0  0  0  0
  191.9020  176.1620  145.9340 O   0  0  0  0  0  1  0  0  0  0  0  0
  1  2  2  0  0  0  0
  2 18  1  0  0  0  0
  2 11  1  0  0  0  0
  3  6  1  0  0  0  0
  4  1  1  0  0  0  0
  4 16  1  0  0  0  0
  5  8  1  0  0  0  0
  5 12  1  0  0  0  0
  6 18  2  0  0  0  0
  7 14  2  0  0  0  0
  7  8  1  0  0  0  0
  8  4  2  0  0  0  0
  9 10  1  0  0  0  0
  9 15  2  0  0  0  0
 11 17  2  0  0  0  0
 12 16  1  0  0  0  0
 13  3  2  0  0  0  0
 13  1  1  0  0  0  0
 14 13  1  0  0  0  0
 17 15  1  0  0  0  0
 17 19  1  0  0  0  0
 18  9  1  0  0  0  0
 20 22  1  0  0  0  0
 20 19  1  0  0  0  0
 20 21  1  0  0  0  0
 24 25  1  6  0  0  0
 24 22  1  0  0  0  0
 24 23  1  0  0  0  0
M  END
>  <MODEL>
8

>  <REMARK>
 VINA RESULT:      -8.6      2.678      6.384
  Name = 
  4 active torsions:
  status: ('A' for Active; 'I' for Inactive)
    1  A    between atoms: C_6  and  N_15
    2  A    between atoms: C_6  and  C_23
    3  A    between atoms: C_7  and  C_21
    4  A    between atoms: N_15  and  C_21
                            x       y       z     vdW  Elec       q    Type
                         _______ _______ _______ _____ _____    ______ ____

>  <TORSDO>
F 4

$$$$
=
 OpenBabel10272400423D

 25 28  0  0  1  0  0  0  0  0999 V2000
  188.6300  177.4330  143.4810 C   0  0  0  0  0  0  0  0  0  0  0  0
  187.3040  177.8760  143.7490 C   0  0  0  0  0  0  0  0  0  0  0  0
  188.9320  177.0980  145.8800 C   0  0  0  0  0  3  0  0  0  0  0  0
  189.2120  177.3420  142.1830 C   0  0  0  0  0  0  0  0  0  0  0  0
  191.0360  176.9140  140.6390 C   0  0  0  0  0  2  0  0  0  0  0  0
  187.6670  177.5280  146.1040 N   0  0  0  0  0  0  0  0  0  0  0  0
  191.2970  176.5330  143.1170 C   0  0  0  0  0  3  0  0  0  0  0  0
  190.5220  176.9180  142.0270 C   0  0  0  0  0  0  0  0  0  0  0  0
  185.5400  178.3560  145.3830 C   0  0  0  0  0  0  0  0  0  0  0  0
  185.0330  178.4130  146.7840 C   0  0  0  0  0  1  0  0  0  0  0  0
  186.4250  178.2830  142.7350 C   0  0  0  0  0  3  0  0  0  0  0  0
  190.1010  177.8120  139.8430 C   0  0  0  0  0  2  0  0  0  0  0  0
  189.4380  177.0420  144.5860 C   0  0  0  0  0  0  0  0  0  0  0  0
  190.7500  176.5950  144.3970 C   0  0  0  0  0  3  0  0  0  0  0  0
  184.6930  178.7550  144.3480 C   0  0  0  0  0  3  0  0  0  0  0  0
  188.4490  177.7580  140.6150 S   0  0  0  0  0  0  0  0  0  0  0  0
  185.1300  178.7120  143.0260 C   0  0  0  0  0  0  0  0  0  0  0  0
  186.8450  177.9150  145.0930 C   0  0  0  0  0  0  0  0  0  0  0  0
  184.2300  179.1630  141.9280 C   0  0  0  0  0  2  0  0  0  0  0  0
  183.4360  178.0430  141.4470 N   0  0  0  0  0  0  0  0  0  0  0  0
  182.0420  178.4220  141.5970 C   0  0  0  0  0  1  0  0  0  0  0  0
  183.6850  177.9340  140.0180 C   0  0  0  0  0  2  0  0  0  0  0  0
  185.4660  178.7840  138.6130 N   0  0  0  0  0  1  0  0  0  0  0  0
  184.4020  179.1750  139.5180 C   0  0  1  0  0  3  0  0  0  0  0  0
  183.5040  180.0030  138.8450 O   0  0  0  0  0  1  0  0  0  0  0  0
  1  2  2  0  0  0  0
  1 13  1  0  0  0  0
  2 18  1  0  0  0  0
  3  6  1  0  0  0  0
  4  1  1  0  0  0  0
  5  8  1  0  0  0  0
  7 14  2  0  0  0  0
  8  4  2  0  0  0  0
  8  7  1  0  0  0  0
  9 10  1  0  0  0  0
 11 17  2  0  0  0  0
 11  2  1  0  0  0  0
 12 16  1  0  0  0  0
 12  5  1  0  0  0  0
 13  3  2  0  0  0  0
 14 13  1  0  0  0  0
 15  9  2  0  0  0  0
 16  4  1  0  0  0  0
 17 15  1  0  0  0  0
 18  9  1  0  0  0  0
 18  6  2  0  0  0  0
 19 17  1  0  0  0  0
 20 21  1  0  0  0  0
 20 19  1  0  0  0  0
 22 20  1  0  0  0  0
 24 23  1  6  0  0  0
 24 22  1  0  0  0  0
 25 24  1  0  0  0  0
M  END
>  <MODEL>
9

>  <REMARK>
 VINA RESULT:      -8.5      2.446      5.606
  Name = 
  4 active torsions:
  status: ('A' for Active; 'I' for Inactive)
    1  A    between atoms: C_6  and  N_15
    2  A    between atoms: C_6  and  C_23
    3  A    between atoms: C_7  and  C_21
    4  A    between atoms: N_15  and  C_21
                            x       y       z     vdW  Elec       q    Type
                         _______ _______ _______ _____ _____    ______ ____

>  <TORSDO>
F 4

$$$$
