=
 OpenBabel10272414383D

 43 47  0  0  1  0  0  0  0  0999 V2000
  183.8110  178.7630  141.2900 N   0  0  0  0  0  2  0  0  0  0  0  0
  188.0660  178.0950  147.5850 C   0  0  2  0  0  3  0  0  0  0  0  0
  185.5710  178.7850  143.1330 C   0  0  2  0  0  3  0  0  0  0  0  0
  187.8620  178.1090  142.4250 C   0  0  0  0  0  3  0  0  0  0  0  0
  186.1400  177.9680  145.8940 C   0  0  1  0  0  3  0  0  0  0  0  0
  188.6220  176.9700  146.7200 C   0  0  0  0  0  2  0  0  0  0  0  0
  188.2690  177.8000  148.9320 O   0  0  0  0  0  1  0  0  0  0  0  0
  187.2860  178.1940  144.8880 C   0  0  1  0  0  3  0  0  0  0  0  0
  186.5690  178.3120  147.3270 C   0  0  0  0  0  2  0  0  0  0  0  0
  188.4950  177.3020  145.2280 C   0  0  0  0  0  2  0  0  0  0  0  0
  187.5060  178.2810  141.1440 C   0  0  0  0  0  0  0  0  0  0  0  0
  186.7950  177.9190  143.4630 C   0  0  1  0  0  3  0  0  0  0  0  0
  184.4430  178.4570  144.1050 C   0  0  0  0  0  2  0  0  0  0  0  0
  185.1810  178.5900  141.6860 C   0  0  0  0  0  0  0  0  0  0  0  0
  186.1160  178.4090  140.7950 N   0  0  0  0  0  0  0  0  0  0  0  0
  184.8950  178.7750  145.5280 C   0  0  0  0  0  2  0  0  0  0  0  0
  182.6020  177.1480  138.1200 C   0  0  0  0  0  3  0  0  0  0  0  0
  182.1250  178.2620  137.4230 C   0  0  0  0  0  0  0  0  0  0  0  0
  182.7740  179.6820  139.2850 C   0  0  0  0  0  3  0  0  0  0  0  0
  183.1610  177.2990  139.3920 C   0  0  0  0  0  3  0  0  0  0  0  0
  183.2550  178.5690  139.9820 C   0  0  0  0  0  0  0  0  0  0  0  0
  182.2140  179.5340  138.0130 C   0  0  0  0  0  3  0  0  0  0  0  0
  182.3150  177.5600  135.0590 C   0  0  0  0  0  1  0  0  0  0  0  0
  181.5720  178.0810  136.1530 O   0  0  0  0  0  0  0  0  0  0  0  0
  188.5390  178.3310  140.0590 C   0  0  1  0  0  3  0  0  0  0  0  0
  189.8100  177.6250  140.5000 C   0  0  0  0  0  1  0  0  0  0  0  0
  188.0290  177.7130  138.8440 N   0  0  0  0  0  2  0  0  0  0  0  0
  188.0630  178.3770  137.5780 C   0  0  0  0  0  0  0  0  0  0  0  0
  188.7690  179.4060  137.4140 O   0  0  0  0  0  0  0  0  0  0  0  0
  187.2140  177.8790  136.4590 C   0  0  0  0  0  2  0  0  0  0  0  0
  187.7340  176.6050  135.9620 N   0  0  0  0  0  0  0  0  0  0  0  0
  189.3590  175.4170  134.3630 C   0  0  0  0  0  1  0  0  0  0  0  0
  188.8390  176.6440  135.0330 C   0  0  0  0  0  0  0  0  0  0  0  0
  187.1650  175.3710  136.4620 C   0  0  0  0  0  0  0  0  0  0  0  0
  187.7180  174.2630  136.2340 O   0  0  0  0  0  0  0  0  0  0  0  0
  189.3840  177.7450  134.7490 O   0  0  0  0  0  0  0  0  0  0  0  0
  185.8990  175.3750  137.2620 C   0  0  0  0  0  2  0  0  0  0  0  0
  184.9900  174.2830  136.8140 C   0  0  0  0  0  0  0  0  0  0  0  0
  183.4070  173.3890  135.2100 C   0  0  0  0  0  3  0  0  0  0  0  0
  183.9880  172.1050  137.1800 C   0  0  0  0  0  3  0  0  0  0  0  0
  183.2690  172.2350  135.9880 C   0  0  0  0  0  3  0  0  0  0  0  0
  184.8460  173.1290  137.5940 C   0  0  0  0  0  3  0  0  0  0  0  0
  184.2670  174.4130  135.6230 C   0  0  0  0  0  3  0  0  0  0  0  0
  1 14  1  0  0  0  0
  2  7  1  1  0  0  0
  3 12  1  0  0  0  0
  3 13  1  1  0  0  0
  5 16  1  6  0  0  0
  5  9  1  0  0  0  0
  6  2  1  0  0  0  0
  8 10  1  1  0  0  0
  8  5  1  0  0  0  0
  9  2  1  0  0  0  0
 10  6  1  0  0  0  0
 11  4  2  0  0  0  0
 12  4  1  6  0  0  0
 12  8  1  0  0  0  0
 13 16  1  0  0  0  0
 14  3  1  0  0  0  0
 15 11  1  0  0  0  0
 15 14  2  0  0  0  0
 17 20  1  0  0  0  0
 18 22  1  0  0  0  0
 18 17  2  0  0  0  0
 19 21  1  0  0  0  0
 20 21  2  0  0  0  0
 21  1  1  0  0  0  0
 22 19  2  0  0  0  0
 23 24  1  0  0  0  0
 24 18  1  0  0  0  0
 25 26  1  1  0  0  0
 25 11  1  0  0  0  0
 27 25  1  0  0  0  0
 28 27  1  0  0  0  0
 29 28  2  0  0  0  0
 30 28  1  0  0  0  0
 31 30  1  0  0  0  0
 31 34  1  0  0  0  0
 32 33  1  0  0  0  0
 33 31  1  0  0  0  0
 34 37  1  0  0  0  0
 35 34  2  0  0  0  0
 36 33  2  0  0  0  0
 38 37  1  0  0  0  0
 38 42  1  0  0  0  0
 39 43  1  0  0  0  0
 39 41  2  0  0  0  0
 40 42  2  0  0  0  0
 41 40  1  0  0  0  0
 43 38  2  0  0  0  0
M  END
>  <MODEL>
1

>  <REMARK>
 VINA RESULT:      -9.3      0.000      0.000
  Name = 
  8 active torsions:
  status: ('A' for Active; 'I' for Inactive)
    1  A    between atoms: N_1  and  C_35
    2  A    between atoms: C_2  and  N_6
    3  A    between atoms: C_2  and  C_27
    4  A    between atoms: C_3  and  N_4
    5  A    between atoms: C_3  and  C_12
    6  A    between atoms: C_11  and  C_14
    7  A    between atoms: C_14  and  C_22
    8  A    between atoms: C_19  and  O_37
                            x       y       z     vdW  Elec       q    Type
                         _______ _______ _______ _____ _____    ______ ____

>  <TORSDO>
F 8

$$$$
=
 OpenBabel10272414383D

 43 47  0  0  1  0  0  0  0  0999 V2000
  183.7270  178.7260  141.5110 N   0  0  0  0  0  2  0  0  0  0  0  0
  188.1420  178.1260  147.7020 C   0  0  2  0  0  3  0  0  0  0  0  0
  185.5290  178.7770  143.3120 C   0  0  2  0  0  3  0  0  0  0  0  0
  187.8150  178.1480  142.5480 C   0  0  0  0  0  3  0  0  0  0  0  0
  186.1790  177.9660  146.0560 C   0  0  1  0  0  3  0  0  0  0  0  0
  188.6990  177.0140  146.8210 C   0  0  0  0  0  2  0  0  0  0  0  0
  188.3830  177.8320  149.0430 O   0  0  0  0  0  1  0  0  0  0  0  0
  187.2960  178.2160  145.0240 C   0  0  1  0  0  3  0  0  0  0  0  0
  186.6360  178.3150  147.4790 C   0  0  0  0  0  2  0  0  0  0  0  0
  188.5300  177.3470  145.3330 C   0  0  0  0  0  2  0  0  0  0  0  0
  187.4260  178.3150  141.2760 C   0  0  0  0  0  0  0  0  0  0  0  0
  186.7770  177.9350  143.6110 C   0  0  1  0  0  3  0  0  0  0  0  0
  184.4310  178.4260  144.3090 C   0  0  0  0  0  2  0  0  0  0  0  0
  185.1090  178.5780  141.8740 C   0  0  0  0  0  0  0  0  0  0  0  0
  186.0260  178.4170  140.9600 N   0  0  0  0  0  0  0  0  0  0  0  0
  184.9110  178.7500  145.7220 C   0  0  0  0  0  2  0  0  0  0  0  0
  182.5550  179.2980  137.9870 C   0  0  0  0  0  3  0  0  0  0  0  0
  182.0050  178.0480  137.6870 C   0  0  0  0  0  0  0  0  0  0  0  0
  182.5970  177.2730  139.9130 C   0  0  0  0  0  3  0  0  0  0  0  0
  183.1230  179.5360  139.2420 C   0  0  0  0  0  3  0  0  0  0  0  0
  183.1430  178.5250  140.2160 C   0  0  0  0  0  0  0  0  0  0  0  0
  182.0290  177.0340  138.6590 C   0  0  0  0  0  3  0  0  0  0  0  0
  182.2150  177.4320  135.3000 C   0  0  0  0  0  1  0  0  0  0  0  0
  181.4450  177.8400  136.4240 O   0  0  0  0  0  0  0  0  0  0  0  0
  188.4320  178.3870  140.1670 C   0  0  1  0  0  3  0  0  0  0  0  0
  189.7020  177.6490  140.5510 C   0  0  0  0  0  1  0  0  0  0  0  0
  187.8810  177.8190  138.9450 N   0  0  0  0  0  2  0  0  0  0  0  0
  188.0270  178.4570  137.6740 C   0  0  0  0  0  0  0  0  0  0  0  0
  188.8560  179.3920  137.5180 O   0  0  0  0  0  0  0  0  0  0  0  0
  187.1520  178.0500  136.5380 C   0  0  0  0  0  2  0  0  0  0  0  0
  187.1980  176.5980  136.3630 N   0  0  0  0  0  0  0  0  0  0  0  0
  186.1230  174.3270  136.9070 C   0  0  0  0  0  1  0  0  0  0  0  0
  186.1120  175.8190  136.9110 C   0  0  0  0  0  0  0  0  0  0  0  0
  188.2850  176.0170  135.6050 C   0  0  0  0  0  0  0  0  0  0  0  0
  188.2510  174.8110  135.2450 O   0  0  0  0  0  0  0  0  0  0  0  0
  185.1220  176.3980  137.4340 O   0  0  0  0  0  0  0  0  0  0  0  0
  189.4850  176.8300  135.2310 C   0  0  0  0  0  2  0  0  0  0  0  0
  190.7150  176.2780  135.8670 C   0  0  0  0  0  0  0  0  0  0  0  0
  192.0760  175.9020  137.8370 C   0  0  0  0  0  3  0  0  0  0  0  0
  192.8380  175.1240  135.6730 C   0  0  0  0  0  3  0  0  0  0  0  0
  193.0350  175.2560  137.0510 C   0  0  0  0  0  3  0  0  0  0  0  0
  191.6790  175.6370  135.0810 C   0  0  0  0  0  3  0  0  0  0  0  0
  190.9160  176.4130  137.2450 C   0  0  0  0  0  3  0  0  0  0  0  0
  1 14  1  0  0  0  0
  2  7  1  1  0  0  0
  3 12  1  0  0  0  0
  3 13  1  1  0  0  0
  5 16  1  6  0  0  0
  5  9  1  0  0  0  0
  6  2  1  0  0  0  0
  8 10  1  1  0  0  0
  8  5  1  0  0  0  0
  9  2  1  0  0  0  0
 10  6  1  0  0  0  0
 11  4  2  0  0  0  0
 12  4  1  6  0  0  0
 12  8  1  0  0  0  0
 13 16  1  0  0  0  0
 14  3  1  0  0  0  0
 15 11  1  0  0  0  0
 15 14  2  0  0  0  0
 17 20  1  0  0  0  0
 18 17  2  0  0  0  0
 18 22  1  0  0  0  0
 19 21  1  0  0  0  0
 20 21  2  0  0  0  0
 21  1  1  0  0  0  0
 22 19  2  0  0  0  0
 23 24  1  0  0  0  0
 24 18  1  0  0  0  0
 25 26  1  1  0  0  0
 25 11  1  0  0  0  0
 27 25  1  0  0  0  0
 28 27  1  0  0  0  0
 29 28  2  0  0  0  0
 30 28  1  0  0  0  0
 31 30  1  0  0  0  0
 31 33  1  0  0  0  0
 32 33  1  0  0  0  0
 33 36  2  0  0  0  0
 34 31  1  0  0  0  0
 35 34  2  0  0  0  0
 37 34  1  0  0  0  0
 37 38  1  0  0  0  0
 38 43  1  0  0  0  0
 40 41  2  0  0  0  0
 41 39  1  0  0  0  0
 42 40  1  0  0  0  0
 42 38  2  0  0  0  0
 43 39  2  0  0  0  0
M  END
>  <MODEL>
2

>  <REMARK>
 VINA RESULT:      -9.3      1.446      3.529
  Name = 
  8 active torsions:
  status: ('A' for Active; 'I' for Inactive)
    1  A    between atoms: N_1  and  C_35
    2  A    between atoms: C_2  and  N_6
    3  A    between atoms: C_2  and  C_27
    4  A    between atoms: C_3  and  N_4
    5  A    between atoms: C_3  and  C_12
    6  A    between atoms: C_11  and  C_14
    7  A    between atoms: C_14  and  C_22
    8  A    between atoms: C_19  and  O_37
                            x       y       z     vdW  Elec       q    Type
                         _______ _______ _______ _____ _____    ______ ____

>  <TORSDO>
F 8

$$$$
=
 OpenBabel10272414383D

 43 47  0  0  1  0  0  0  0  0999 V2000
  185.4560  178.4010  142.3030 N   0  0  0  0  0  2  0  0  0  0  0  0
  191.4540  176.8840  146.7650 C   0  0  2  0  0  3  0  0  0  0  0  0
  187.7080  178.1740  143.4740 C   0  0  2  0  0  3  0  0  0  0  0  0
  189.6270  177.6080  141.9890 C   0  0  0  0  0  3  0  0  0  0  0  0
  189.0880  176.9870  145.7760 C   0  0  1  0  0  3  0  0  0  0  0  0
  191.6610  175.8910  145.6270 C   0  0  0  0  0  2  0  0  0  0  0  0
  192.0610  176.4080  147.9250 O   0  0  0  0  0  1  0  0  0  0  0  0
  189.8650  177.3520  144.4950 C   0  0  1  0  0  3  0  0  0  0  0  0
  189.9630  177.1320  147.0290 C   0  0  0  0  0  2  0  0  0  0  0  0
  191.0810  176.4250  144.3120 C   0  0  0  0  0  2  0  0  0  0  0  0
  188.8900  177.9540  140.9230 C   0  0  0  0  0  0  0  0  0  0  0  0
  188.9360  177.2740  143.2790 C   0  0  1  0  0  3  0  0  0  0  0  0
  186.9330  177.7120  144.7030 C   0  0  0  0  0  2  0  0  0  0  0  0
  186.8720  178.1790  142.2150 C   0  0  0  0  0  0  0  0  0  0  0  0
  187.4680  178.1250  141.0560 N   0  0  0  0  0  0  0  0  0  0  0  0
  187.8260  177.8340  145.9360 C   0  0  0  0  0  2  0  0  0  0  0  0
  182.4160  177.6560  140.2250 C   0  0  0  0  0  3  0  0  0  0  0  0
  182.6750  178.4320  139.0920 C   0  0  0  0  0  0  0  0  0  0  0  0
  184.7630  179.1670  140.0960 C   0  0  0  0  0  3  0  0  0  0  0  0
  183.3230  177.6350  141.2880 C   0  0  0  0  0  3  0  0  0  0  0  0
  184.5060  178.3880  141.2280 C   0  0  0  0  0  0  0  0  0  0  0  0
  183.8570  179.1900  139.0320 C   0  0  0  0  0  3  0  0  0  0  0  0
  180.4070  177.9970  138.2070 C   0  0  0  0  0  1  0  0  0  0  0  0
  181.7500  178.4330  138.0440 O   0  0  0  0  0  0  0  0  0  0  0  0
  189.5280  178.1550  139.5810 C   0  0  1  0  0  3  0  0  0  0  0  0
  190.8390  177.3930  139.4940 C   0  0  0  0  0  1  0  0  0  0  0  0
  188.6310  177.7150  138.5220 N   0  0  0  0  0  2  0  0  0  0  0  0
  188.2890  178.5520  137.4150 C   0  0  0  0  0  0  0  0  0  0  0  0
  188.9500  179.5960  137.1740 O   0  0  0  0  0  0  0  0  0  0  0  0
  187.1070  178.2160  136.5720 C   0  0  0  0  0  2  0  0  0  0  0  0
  187.2110  176.8400  136.0860 N   0  0  0  0  0  0  0  0  0  0  0  0
  188.2230  175.2390  134.3470 C   0  0  0  0  0  1  0  0  0  0  0  0
  188.1340  176.5740  135.0060 C   0  0  0  0  0  0  0  0  0  0  0  0
  186.4410  175.8040  136.7400 C   0  0  0  0  0  0  0  0  0  0  0  0
  186.6590  174.5870  136.5040 O   0  0  0  0  0  0  0  0  0  0  0  0
  188.8830  177.4920  134.5780 O   0  0  0  0  0  0  0  0  0  0  0  0
  185.3550  176.1490  137.7120 C   0  0  0  0  0  2  0  0  0  0  0  0
  184.0180  175.8010  137.1540 C   0  0  0  0  0  0  0  0  0  0  0  0
  182.3360  176.0330  135.4240 C   0  0  0  0  0  3  0  0  0  0  0  0
  181.9150  174.6070  137.3370 C   0  0  0  0  0  3  0  0  0  0  0  0
  181.4970  175.1580  136.1220 C   0  0  0  0  0  3  0  0  0  0  0  0
  183.1750  174.9300  137.8540 C   0  0  0  0  0  3  0  0  0  0  0  0
  183.5950  176.3550  135.9400 C   0  0  0  0  0  3  0  0  0  0  0  0
  2  9  1  0  0  0  0
  2  7  1  1  0  0  0
  3 13  1  1  0  0  0
  5 16  1  1  0  0  0
  5  9  1  0  0  0  0
  6  2  1  0  0  0  0
  8 10  1  6  0  0  0
  8  5  1  0  0  0  0
 10  6  1  0  0  0  0
 11 15  1  0  0  0  0
 11  4  2  0  0  0  0
 12  4  1  6  0  0  0
 12  3  1  0  0  0  0
 12  8  1  0  0  0  0
 13 16  1  0  0  0  0
 14  1  1  0  0  0  0
 14  3  1  0  0  0  0
 15 14  2  0  0  0  0
 17 20  1  0  0  0  0
 18 17  2  0  0  0  0
 19 21  1  0  0  0  0
 21 20  2  0  0  0  0
 21  1  1  0  0  0  0
 22 18  1  0  0  0  0
 22 19  2  0  0  0  0
 24 23  1  0  0  0  0
 24 18  1  0  0  0  0
 25 26  1  1  0  0  0
 25 11  1  0  0  0  0
 27 25  1  0  0  0  0
 28 27  1  0  0  0  0
 29 28  2  0  0  0  0
 30 28  1  0  0  0  0
 31 30  1  0  0  0  0
 31 34  1  0  0  0  0
 32 33  1  0  0  0  0
 33 31  1  0  0  0  0
 34 37  1  0  0  0  0
 35 34  2  0  0  0  0
 36 33  2  0  0  0  0
 38 37  1  0  0  0  0
 38 42  1  0  0  0  0
 39 43  1  0  0  0  0
 39 41  2  0  0  0  0
 40 42  2  0  0  0  0
 41 40  1  0  0  0  0
 43 38  2  0  0  0  0
M  END
>  <MODEL>
3

>  <REMARK>
 VINA RESULT:      -9.1      1.679      2.250
  Name = 
  8 active torsions:
  status: ('A' for Active; 'I' for Inactive)
    1  A    between atoms: N_1  and  C_35
    2  A    between atoms: C_2  and  N_6
    3  A    between atoms: C_2  and  C_27
    4  A    between atoms: C_3  and  N_4
    5  A    between atoms: C_3  and  C_12
    6  A    between atoms: C_11  and  C_14
    7  A    between atoms: C_14  and  C_22
    8  A    between atoms: C_19  and  O_37
                            x       y       z     vdW  Elec       q    Type
                         _______ _______ _______ _____ _____    ______ ____

>  <TORSDO>
F 8

$$$$
=
 OpenBabel10272414383D

 43 47  0  0  1  0  0  0  0  0999 V2000
  185.9720  177.6930  144.3690 N   0  0  0  0  0  2  0  0  0  0  0  0
  181.1710  179.6450  138.7730 C   0  0  2  0  0  3  0  0  0  0  0  0
  184.6690  178.0800  142.2140 C   0  0  2  0  0  3  0  0  0  0  0  0
  186.0410  178.7590  140.2480 C   0  0  0  0  0  3  0  0  0  0  0  0
  182.3020  179.3760  141.0610 C   0  0  1  0  0  3  0  0  0  0  0  0
  182.3060  180.6400  138.5620 C   0  0  0  0  0  2  0  0  0  0  0  0
  179.9820  180.1710  138.2720 O   0  0  0  0  0  1  0  0  0  0  0  0
  183.5270  179.0530  140.1840 C   0  0  1  0  0  3  0  0  0  0  0  0
  180.9960  179.3010  140.2580 C   0  0  0  0  0  2  0  0  0  0  0  0
  183.6480  180.0570  139.0220 C   0  0  0  0  0  2  0  0  0  0  0  0
  187.1450  178.3560  140.8920 C   0  0  0  0  0  0  0  0  0  0  0  0
  184.7990  179.0580  141.0380 C   0  0  1  0  0  3  0  0  0  0  0  0
  183.4950  178.5000  143.0920 C   0  0  0  0  0  2  0  0  0  0  0  0
  185.9760  178.0090  142.9680 C   0  0  0  0  0  0  0  0  0  0  0  0
  187.0970  178.0920  142.3050 N   0  0  0  0  0  0  0  0  0  0  0  0
  182.2090  178.4490  142.2720 C   0  0  0  0  0  2  0  0  0  0  0  0
  188.1170  177.8170  147.4510 C   0  0  0  0  0  3  0  0  0  0  0  0
  189.3630  177.4720  146.9190 C   0  0  0  0  0  0  0  0  0  0  0  0
  188.3500  177.2850  144.7180 C   0  0  0  0  0  3  0  0  0  0  0  0
  186.9940  177.8960  146.6240 C   0  0  0  0  0  3  0  0  0  0  0  0
  187.1040  177.6340  145.2490 C   0  0  0  0  0  0  0  0  0  0  0  0
  189.4740  177.2040  145.5450 C   0  0  0  0  0  3  0  0  0  0  0  0
  191.5760  176.5460  147.5220 C   0  0  0  0  0  1  0  0  0  0  0  0
  190.4680  177.4010  147.7710 O   0  0  0  0  0  0  0  0  0  0  0  0
  188.4420  178.1860  140.1600 C   0  0  1  0  0  3  0  0  0  0  0  0
  189.3790  177.2800  140.9380 C   0  0  0  0  0  1  0  0  0  0  0  0
  188.2070  177.6320  138.8340 N   0  0  0  0  0  2  0  0  0  0  0  0
  188.3700  178.4070  137.6440 C   0  0  0  0  0  0  0  0  0  0  0  0
  188.9730  179.5120  137.6760 O   0  0  0  0  0  0  0  0  0  0  0  0
  187.7740  177.9290  136.3640 C   0  0  0  0  0  2  0  0  0  0  0  0
  187.3780  176.5260  136.4870 N   0  0  0  0  0  0  0  0  0  0  0  0
  188.0660  174.0620  136.2320 C   0  0  0  0  0  1  0  0  0  0  0  0
  188.3890  175.5180  136.2630 C   0  0  0  0  0  0  0  0  0  0  0  0
  186.0210  176.2110  136.8820 C   0  0  0  0  0  0  0  0  0  0  0  0
  185.6980  175.0390  137.2090 O   0  0  0  0  0  0  0  0  0  0  0  0
  189.5860  175.8600  136.0660 O   0  0  0  0  0  0  0  0  0  0  0  0
  184.9610  177.2680  136.9060 C   0  0  0  0  0  2  0  0  0  0  0  0
  183.6630  176.7010  137.3700 C   0  0  0  0  0  0  0  0  0  0  0  0
  181.3860  176.0100  136.9100 C   0  0  0  0  0  3  0  0  0  0  0  0
  182.2760  175.8250  139.1550 C   0  0  0  0  0  3  0  0  0  0  0  0
  181.2220  175.6550  138.2530 C   0  0  0  0  0  3  0  0  0  0  0  0
  183.4950  176.3510  138.7150 C   0  0  0  0  0  3  0  0  0  0  0  0
  182.6060  176.5340  136.4690 C   0  0  0  0  0  3  0  0  0  0  0  0
  1 21  1  0  0  0  0
  2  7  1  1  0  0  0
  2  9  1  0  0  0  0
  3 14  1  0  0  0  0
  3 13  1  1  0  0  0
  4 11  2  0  0  0  0
  5  9  1  6  0  0  0
  5 16  1  0  0  0  0
  6  2  1  0  0  0  0
  6 10  1  0  0  0  0
  8 10  1  6  0  0  0
  8 12  1  0  0  0  0
  8  5  1  0  0  0  0
 11 15  1  0  0  0  0
 12  4  1  6  0  0  0
 12  3  1  0  0  0  0
 14  1  1  0  0  0  0
 15 14  2  0  0  0  0
 16 13  1  0  0  0  0
 18 17  1  0  0  0  0
 18 24  1  0  0  0  0
 19 21  2  0  0  0  0
 19 22  1  0  0  0  0
 20 17  2  0  0  0  0
 21 20  1  0  0  0  0
 22 18  2  0  0  0  0
 23 24  1  0  0  0  0
 25 11  1  0  0  0  0
 25 26  1  1  0  0  0
 27 25  1  0  0  0  0
 28 29  2  0  0  0  0
 28 27  1  0  0  0  0
 30 31  1  0  0  0  0
 30 28  1  0  0  0  0
 31 34  1  0  0  0  0
 32 33  1  0  0  0  0
 33 31  1  0  0  0  0
 34 37  1  0  0  0  0
 34 35  2  0  0  0  0
 36 33  2  0  0  0  0
 37 38  1  0  0  0  0
 38 42  1  0  0  0  0
 39 41  2  0  0  0  0
 41 40  1  0  0  0  0
 42 40  2  0  0  0  0
 43 39  1  0  0  0  0
 43 38  2  0  0  0  0
M  END
>  <MODEL>
4

>  <REMARK>
 VINA RESULT:      -9.1      1.942      6.561
  Name = 
  8 active torsions:
  status: ('A' for Active; 'I' for Inactive)
    1  A    between atoms: N_1  and  C_35
    2  A    between atoms: C_2  and  N_6
    3  A    between atoms: C_2  and  C_27
    4  A    between atoms: C_3  and  N_4
    5  A    between atoms: C_3  and  C_12
    6  A    between atoms: C_11  and  C_14
    7  A    between atoms: C_14  and  C_22
    8  A    between atoms: C_19  and  O_37
                            x       y       z     vdW  Elec       q    Type
                         _______ _______ _______ _____ _____    ______ ____

>  <TORSDO>
F 8

$$$$
=
 OpenBabel10272414383D

 43 47  0  0  1  0  0  0  0  0999 V2000
  189.5390  176.8680  139.9940 N   0  0  0  0  0  2  0  0  0  0  0  0
  191.1280  176.6590  147.4510 C   0  0  2  0  0  3  0  0  0  0  0  0
  189.6020  176.6540  142.5330 C   0  0  2  0  0  3  0  0  0  0  0  0
  187.7000  177.7220  143.7370 C   0  0  0  0  0  3  0  0  0  0  0  0
  191.3080  176.9230  144.9050 C   0  0  1  0  0  3  0  0  0  0  0  0
  190.4110  177.9990  147.3300 C   0  0  0  0  0  2  0  0  0  0  0  0
  191.9870  176.6810  148.5480 O   0  0  0  0  0  1  0  0  0  0  0  0
  189.7760  177.0490  145.0190 C   0  0  1  0  0  3  0  0  0  0  0  0
  191.9240  176.3320  146.1810 C   0  0  0  0  0  2  0  0  0  0  0  0
  189.3900  177.9790  146.1850 C   0  0  0  0  0  2  0  0  0  0  0  0
  187.0190  177.7880  142.5840 C   0  0  0  0  0  0  0  0  0  0  0  0
  189.1930  177.5630  143.7000 C   0  0  1  0  0  3  0  0  0  0  0  0
  191.1220  176.6360  142.4140 C   0  0  0  0  0  2  0  0  0  0  0  0
  188.9150  177.1080  141.2650 C   0  0  0  0  0  0  0  0  0  0  0  0
  187.7010  177.5800  141.3340 N   0  0  0  0  0  0  0  0  0  0  0  0
  191.7210  176.0750  143.7020 C   0  0  0  0  0  2  0  0  0  0  0  0
  188.5630  178.9710  137.0380 C   0  0  0  0  0  3  0  0  0  0  0  0
  188.1380  177.9860  136.1420 C   0  0  0  0  0  0  0  0  0  0  0  0
  188.6400  176.2850  137.8040 C   0  0  0  0  0  3  0  0  0  0  0  0
  189.0240  178.6180  138.3090 C   0  0  0  0  0  3  0  0  0  0  0  0
  189.0620  177.2710  138.7020 C   0  0  0  0  0  0  0  0  0  0  0  0
  188.1790  176.6370  136.5330 C   0  0  0  0  0  3  0  0  0  0  0  0
  186.4350  177.9390  134.3490 C   0  0  0  0  0  1  0  0  0  0  0  0
  187.6830  178.3690  134.8780 O   0  0  0  0  0  0  0  0  0  0  0  0
  185.5510  178.0890  142.5750 C   0  0  1  0  0  3  0  0  0  0  0  0
  185.1200  178.6810  143.9050 C   0  0  0  0  0  1  0  0  0  0  0  0
  185.2290  179.0130  141.4970 N   0  0  0  0  0  2  0  0  0  0  0  0
  184.0700  178.8530  140.6750 C   0  0  0  0  0  0  0  0  0  0  0  0
  183.1470  178.0670  141.0160 O   0  0  0  0  0  0  0  0  0  0  0  0
  183.9780  179.5810  139.3780 C   0  0  0  0  0  2  0  0  0  0  0  0
  183.3170  178.7430  138.3770 N   0  0  0  0  0  0  0  0  0  0  0  0
  183.5760  176.9210  136.5810 C   0  0  0  0  0  1  0  0  0  0  0  0
  184.1120  177.7380  137.7090 C   0  0  0  0  0  0  0  0  0  0  0  0
  181.8990  178.9120  138.1450 C   0  0  0  0  0  0  0  0  0  0  0  0
  181.2500  178.0770  137.4610 O   0  0  0  0  0  0  0  0  0  0  0  0
  185.3060  177.5430  138.0600 O   0  0  0  0  0  0  0  0  0  0  0  0
  181.1610  180.0890  138.7060 C   0  0  0  0  0  2  0  0  0  0  0  0
  181.0170  181.1590  137.6790 C   0  0  0  0  0  0  0  0  0  0  0  0
  180.5210  181.8380  135.4050 C   0  0  0  0  0  3  0  0  0  0  0  0
  181.1410  183.4990  137.0560 C   0  0  0  0  0  3  0  0  0  0  0  0
  180.7670  183.1710  135.7500 C   0  0  0  0  0  3  0  0  0  0  0  0
  181.2680  182.4930  138.0200 C   0  0  0  0  0  3  0  0  0  0  0  0
  180.6460  180.8320  136.3690 C   0  0  0  0  0  3  0  0  0  0  0  0
  1 14  1  0  0  0  0
  2  7  1  1  0  0  0
  3 13  1  6  0  0  0
  3 12  1  0  0  0  0
  5 16  1  6  0  0  0
  5  8  1  0  0  0  0
  5  9  1  0  0  0  0
  6  2  1  0  0  0  0
  8 10  1  1  0  0  0
  9  2  1  0  0  0  0
 10  6  1  0  0  0  0
 11  4  2  0  0  0  0
 12  4  1  1  0  0  0
 12  8  1  0  0  0  0
 13 16  1  0  0  0  0
 14 15  2  0  0  0  0
 14  3  1  0  0  0  0
 15 11  1  0  0  0  0
 17 20  1  0  0  0  0
 18 22  1  0  0  0  0
 18 17  2  0  0  0  0
 19 21  1  0  0  0  0
 20 21  2  0  0  0  0
 21  1  1  0  0  0  0
 22 19  2  0  0  0  0
 23 24  1  0  0  0  0
 24 18  1  0  0  0  0
 25 11  1  0  0  0  0
 25 26  1  1  0  0  0
 27 25  1  0  0  0  0
 28 29  2  0  0  0  0
 28 27  1  0  0  0  0
 30 28  1  0  0  0  0
 31 30  1  0  0  0  0
 32 33  1  0  0  0  0
 33 36  2  0  0  0  0
 33 31  1  0  0  0  0
 34 31  1  0  0  0  0
 34 37  1  0  0  0  0
 35 34  2  0  0  0  0
 38 42  1  0  0  0  0
 38 37  1  0  0  0  0
 39 41  2  0  0  0  0
 39 43  1  0  0  0  0
 40 42  2  0  0  0  0
 41 40  1  0  0  0  0
 43 38  2  0  0  0  0
M  END
>  <MODEL>
5

>  <REMARK>
 VINA RESULT:      -8.7      2.425      6.108
  Name = 
  8 active torsions:
  status: ('A' for Active; 'I' for Inactive)
    1  A    between atoms: N_1  and  C_35
    2  A    between atoms: C_2  and  N_6
    3  A    between atoms: C_2  and  C_27
    4  A    between atoms: C_3  and  N_4
    5  A    between atoms: C_3  and  C_12
    6  A    between atoms: C_11  and  C_14
    7  A    between atoms: C_14  and  C_22
    8  A    between atoms: C_19  and  O_37
                            x       y       z     vdW  Elec       q    Type
                         _______ _______ _______ _____ _____    ______ ____

>  <TORSDO>
F 8

$$$$
=
 OpenBabel10272414383D

 43 47  0  0  1  0  0  0  0  0999 V2000
  184.8440  178.3970  143.2750 N   0  0  0  0  0  2  0  0  0  0  0  0
  191.5840  176.8340  146.4850 C   0  0  2  0  0  3  0  0  0  0  0  0
  187.2760  178.1790  144.0060 C   0  0  2  0  0  3  0  0  0  0  0  0
  188.9040  177.7580  142.1680 C   0  0  0  0  0  3  0  0  0  0  0  0
  189.0760  176.9130  145.9460 C   0  0  1  0  0  3  0  0  0  0  0  0
  191.6030  175.9110  145.2720 C   0  0  0  0  0  2  0  0  0  0  0  0
  192.4020  176.3140  147.4860 O   0  0  0  0  0  1  0  0  0  0  0  0
  189.5990  177.3730  144.5710 C   0  0  1  0  0  3  0  0  0  0  0  0
  190.1610  177.0180  147.0270 C   0  0  0  0  0  2  0  0  0  0  0  0
  190.7830  176.4970  144.1160 C   0  0  0  0  0  2  0  0  0  0  0  0
  187.9790  178.1370  141.2740 C   0  0  0  0  0  0  0  0  0  0  0  0
  188.4670  177.3320  143.5400 C   0  0  1  0  0  3  0  0  0  0  0  0
  186.7470  177.6260  145.3250 C   0  0  0  0  0  2  0  0  0  0  0  0
  186.2250  178.2250  142.9200 C   0  0  0  0  0  0  0  0  0  0  0  0
  186.6020  178.2540  141.6720 N   0  0  0  0  0  0  0  0  0  0  0  0
  187.8460  177.7080  146.3810 C   0  0  0  0  0  2  0  0  0  0  0  0
  182.6970  178.0560  140.2110 C   0  0  0  0  0  3  0  0  0  0  0  0
  181.4510  178.4370  140.7190 C   0  0  0  0  0  0  0  0  0  0  0  0
  182.4680  178.7890  142.8980 C   0  0  0  0  0  3  0  0  0  0  0  0
  183.8220  178.0400  141.0400 C   0  0  0  0  0  3  0  0  0  0  0  0
  183.7150  178.4110  142.3900 C   0  0  0  0  0  0  0  0  0  0  0  0
  181.3420  178.8040  142.0700 C   0  0  0  0  0  3  0  0  0  0  0  0
  180.4610  178.6110  138.4590 C   0  0  0  0  0  1  0  0  0  0  0  0
  180.3440  178.4440  139.8660 O   0  0  0  0  0  0  0  0  0  0  0  0
  188.3590  178.4310  139.8550 C   0  0  1  0  0  3  0  0  0  0  0  0
  189.8020  178.0380  139.5950 C   0  0  0  0  0  1  0  0  0  0  0  0
  187.4810  177.7190  138.9370 N   0  0  0  0  0  2  0  0  0  0  0  0
  187.1830  178.2120  137.6280 C   0  0  0  0  0  0  0  0  0  0  0  0
  187.8700  179.1370  137.1210 O   0  0  0  0  0  0  0  0  0  0  0  0
  186.0170  177.6630  136.8800 C   0  0  0  0  0  2  0  0  0  0  0  0
  186.1590  176.2160  136.7170 N   0  0  0  0  0  0  0  0  0  0  0  0
  185.2910  173.8800  137.3510 C   0  0  0  0  0  1  0  0  0  0  0  0
  185.1700  175.3670  137.3400 C   0  0  0  0  0  0  0  0  0  0  0  0
  187.2370  175.7040  135.8980 C   0  0  0  0  0  0  0  0  0  0  0  0
  187.2700  174.4940  135.5530 O   0  0  0  0  0  0  0  0  0  0  0  0
  184.1740  175.8800  137.9180 O   0  0  0  0  0  0  0  0  0  0  0  0
  188.3480  176.5980  135.4400 C   0  0  0  0  0  2  0  0  0  0  0  0
  189.6630  176.0960  135.9300 C   0  0  0  0  0  0  0  0  0  0  0  0
  192.0300  175.7090  135.5780 C   0  0  0  0  0  3  0  0  0  0  0  0
  190.9910  175.0350  137.6600 C   0  0  0  0  0  3  0  0  0  0  0  0
  192.1250  175.1340  136.8490 C   0  0  0  0  0  3  0  0  0  0  0  0
  189.7590  175.5150  137.2000 C   0  0  0  0  0  3  0  0  0  0  0  0
  190.7990  176.1890  135.1180 C   0  0  0  0  0  3  0  0  0  0  0  0
  2  9  1  0  0  0  0
  2  7  1  1  0  0  0
  3 13  1  1  0  0  0
  5 16  1  1  0  0  0
  5  9  1  0  0  0  0
  6  2  1  0  0  0  0
  8 10  1  6  0  0  0
  8  5  1  0  0  0  0
 10  6  1  0  0  0  0
 11 15  1  0  0  0  0
 11  4  2  0  0  0  0
 12  4  1  6  0  0  0
 12  3  1  0  0  0  0
 12  8  1  0  0  0  0
 13 16  1  0  0  0  0
 14  1  1  0  0  0  0
 14  3  1  0  0  0  0
 15 14  2  0  0  0  0
 17 18  2  0  0  0  0
 17 20  1  0  0  0  0
 18 22  1  0  0  0  0
 20 21  2  0  0  0  0
 21 19  1  0  0  0  0
 21  1  1  0  0  0  0
 22 19  2  0  0  0  0
 23 24  1  0  0  0  0
 24 18  1  0  0  0  0
 25 26  1  1  0  0  0
 25 11  1  0  0  0  0
 27 25  1  0  0  0  0
 28 27  1  0  0  0  0
 29 28  2  0  0  0  0
 30 28  1  0  0  0  0
 31 30  1  0  0  0  0
 31 33  1  0  0  0  0
 33 32  1  0  0  0  0
 33 36  2  0  0  0  0
 34 31  1  0  0  0  0
 35 34  2  0  0  0  0
 37 34  1  0  0  0  0
 37 38  1  0  0  0  0
 38 42  1  0  0  0  0
 39 41  2  0  0  0  0
 41 40  1  0  0  0  0
 42 40  2  0  0  0  0
 43 39  1  0  0  0  0
 43 38  2  0  0  0  0
M  END
>  <MODEL>
6

>  <REMARK>
 VINA RESULT:      -8.6      2.060      3.881
  Name = 
  8 active torsions:
  status: ('A' for Active; 'I' for Inactive)
    1  A    between atoms: N_1  and  C_35
    2  A    between atoms: C_2  and  N_6
    3  A    between atoms: C_2  and  C_27
    4  A    between atoms: C_3  and  N_4
    5  A    between atoms: C_3  and  C_12
    6  A    between atoms: C_11  and  C_14
    7  A    between atoms: C_14  and  C_22
    8  A    between atoms: C_19  and  O_37
                            x       y       z     vdW  Elec       q    Type
                         _______ _______ _______ _____ _____    ______ ____

>  <TORSDO>
F 8

$$$$
=
 OpenBabel10272414383D

 43 47  0  0  1  0  0  0  0  0999 V2000
  188.5160  173.6690  136.8280 N   0  0  0  0  0  2  0  0  0  0  0  0
  195.9930  174.6370  135.6680 C   0  0  2  0  0  3  0  0  0  0  0  0
  191.0170  174.1540  136.9050 C   0  0  2  0  0  3  0  0  0  0  0  0
  191.6400  176.3810  137.8320 C   0  0  0  0  0  3  0  0  0  0  0  0
  193.5120  174.0520  135.3640 C   0  0  1  0  0  3  0  0  0  0  0  0
  195.4680  176.0540  135.4720 C   0  0  0  0  0  2  0  0  0  0  0  0
  197.1800  174.4700  134.9570 O   0  0  0  0  0  1  0  0  0  0  0  0
  193.3510  175.0400  136.5370 C   0  0  1  0  0  3  0  0  0  0  0  0
  194.9680  173.5910  135.2090 C   0  0  0  0  0  2  0  0  0  0  0  0
  194.2080  176.3000  136.3110 C   0  0  0  0  0  2  0  0  0  0  0  0
  190.4080  176.5010  138.3460 C   0  0  0  0  0  0  0  0  0  0  0  0
  191.8760  175.4110  136.7110 C   0  0  1  0  0  3  0  0  0  0  0  0
  191.1480  173.2580  135.6780 C   0  0  0  0  0  2  0  0  0  0  0  0
  189.5880  174.5500  137.1980 C   0  0  0  0  0  0  0  0  0  0  0  0
  189.3580  175.6180  137.9110 N   0  0  0  0  0  0  0  0  0  0  0  0
  192.6060  172.8320  135.5200 C   0  0  0  0  0  2  0  0  0  0  0  0
  185.1360  175.3080  136.7770 C   0  0  0  0  0  3  0  0  0  0  0  0
  184.3360  174.2780  137.2790 C   0  0  0  0  0  0  0  0  0  0  0  0
  186.3070  172.8700  137.4780 C   0  0  0  0  0  3  0  0  0  0  0  0
  186.5130  175.1230  136.6250 C   0  0  0  0  0  3  0  0  0  0  0  0
  187.1090  173.9020  136.9800 C   0  0  0  0  0  0  0  0  0  0  0  0
  184.9300  173.0540  137.6300 C   0  0  0  0  0  3  0  0  0  0  0  0
  182.4220  175.4160  138.3550 C   0  0  0  0  0  1  0  0  0  0  0  0
  182.9620  174.4930  137.4190 O   0  0  0  0  0  0  0  0  0  0  0  0
  190.1000  177.5560  139.3650 C   0  0  1  0  0  3  0  0  0  0  0  0
  189.0890  178.5480  138.8180 C   0  0  0  0  0  1  0  0  0  0  0  0
  189.5840  176.9490  140.5840 N   0  0  0  0  0  2  0  0  0  0  0  0
  190.3950  176.7650  141.7470 C   0  0  0  0  0  0  0  0  0  0  0  0
  191.5010  177.3560  141.8560 O   0  0  0  0  0  0  0  0  0  0  0  0
  189.9520  175.8250  142.8150 C   0  0  0  0  0  2  0  0  0  0  0  0
  189.8910  176.5190  144.1020 N   0  0  0  0  0  0  0  0  0  0  0  0
  190.9920  176.9130  146.3920 C   0  0  0  0  0  1  0  0  0  0  0  0
  191.0070  176.3610  145.0060 C   0  0  0  0  0  0  0  0  0  0  0  0
  188.7580  177.3730  144.3870 C   0  0  0  0  0  0  0  0  0  0  0  0
  188.7660  178.1520  145.3760 O   0  0  0  0  0  0  0  0  0  0  0  0
  192.0300  175.7220  144.6390 O   0  0  0  0  0  0  0  0  0  0  0  0
  187.5390  177.3500  143.5180 C   0  0  0  0  0  2  0  0  0  0  0  0
  186.3510  177.8550  144.2630 C   0  0  0  0  0  0  0  0  0  0  0  0
  185.1510  178.1650  146.3460 C   0  0  0  0  0  3  0  0  0  0  0  0
  184.1830  178.9420  144.2650 C   0  0  0  0  0  3  0  0  0  0  0  0
  184.1080  178.7880  145.6530 C   0  0  0  0  0  3  0  0  0  0  0  0
  185.3040  178.4740  143.5700 C   0  0  0  0  0  3  0  0  0  0  0  0
  186.2720  177.6980  145.6510 C   0  0  0  0  0  3  0  0  0  0  0  0
  1 21  1  0  0  0  0
  1 14  1  0  0  0  0
  2  7  1  6  0  0  0
  3 13  1  6  0  0  0
  3 14  1  0  0  0  0
  4 11  2  0  0  0  0
  5  9  1  1  0  0  0
  5 16  1  0  0  0  0
  5  8  1  0  0  0  0
  6  2  1  0  0  0  0
  6 10  1  0  0  0  0
  8 10  1  6  0  0  0
  8 12  1  0  0  0  0
  9  2  1  0  0  0  0
 11 25  1  0  0  0  0
 12  3  1  0  0  0  0
 12  4  1  1  0  0  0
 14 15  2  0  0  0  0
 15 11  1  0  0  0  0
 16 13  1  0  0  0  0
 17 18  1  0  0  0  0
 18 24  1  0  0  0  0
 18 22  2  0  0  0  0
 19 22  1  0  0  0  0
 20 17  2  0  0  0  0
 20 21  1  0  0  0  0
 21 19  2  0  0  0  0
 24 23  1  0  0  0  0
 25 26  1  6  0  0  0
 25 27  1  0  0  0  0
 27 28  1  0  0  0  0
 28 29  2  0  0  0  0
 28 30  1  0  0  0  0
 30 31  1  0  0  0  0
 31 34  1  0  0  0  0
 31 33  1  0  0  0  0
 33 32  1  0  0  0  0
 34 35  2  0  0  0  0
 36 33  2  0  0  0  0
 37 38  1  0  0  0  0
 37 34  1  0  0  0  0
 38 43  1  0  0  0  0
 40 41  2  0  0  0  0
 41 39  1  0  0  0  0
 42 38  2  0  0  0  0
 42 40  1  0  0  0  0
 43 39  2  0  0  0  0
M  END
>  <MODEL>
7

>  <REMARK>
 VINA RESULT:      -8.5      3.508      9.265
  Name = 
  8 active torsions:
  status: ('A' for Active; 'I' for Inactive)
    1  A    between atoms: N_1  and  C_35
    2  A    between atoms: C_2  and  N_6
    3  A    between atoms: C_2  and  C_27
    4  A    between atoms: C_3  and  N_4
    5  A    between atoms: C_3  and  C_12
    6  A    between atoms: C_11  and  C_14
    7  A    between atoms: C_14  and  C_22
    8  A    between atoms: C_19  and  O_37
                            x       y       z     vdW  Elec       q    Type
                         _______ _______ _______ _____ _____    ______ ____

>  <TORSDO>
F 8

$$$$
=
 OpenBabel10272414383D

 43 47  0  0  1  0  0  0  0  0999 V2000
  186.4280  177.5990  144.3170 N   0  0  0  0  0  2  0  0  0  0  0  0
  181.2610  179.6950  139.1120 C   0  0  2  0  0  3  0  0  0  0  0  0
  184.9810  178.0420  142.2660 C   0  0  2  0  0  3  0  0  0  0  0  0
  186.2180  178.7700  140.2300 C   0  0  0  0  0  3  0  0  0  0  0  0
  182.5440  179.3670  141.3100 C   0  0  1  0  0  3  0  0  0  0  0  0
  182.3810  180.6950  138.8500 C   0  0  0  0  0  2  0  0  0  0  0  0
  180.0420  180.2340  138.7070 O   0  0  0  0  0  1  0  0  0  0  0  0
  183.7070  179.0660  140.3440 C   0  0  1  0  0  3  0  0  0  0  0  0
  181.1870  179.3130  140.5960 C   0  0  0  0  0  2  0  0  0  0  0  0
  183.7500  180.1000  139.2020 C   0  0  0  0  0  2  0  0  0  0  0  0
  187.3630  178.3510  140.7870 C   0  0  0  0  0  0  0  0  0  0  0  0
  185.0340  179.0490  141.1090 C   0  0  1  0  0  3  0  0  0  0  0  0
  183.8710  178.4390  143.2330 C   0  0  0  0  0  2  0  0  0  0  0  0
  186.3370  177.9500  142.9270 C   0  0  0  0  0  0  0  0  0  0  0  0
  187.4110  178.0500  142.1930 N   0  0  0  0  0  0  0  0  0  0  0  0
  182.5320  178.4090  142.5010 C   0  0  0  0  0  2  0  0  0  0  0  0
  190.0230  177.2670  145.3570 C   0  0  0  0  0  3  0  0  0  0  0  0
  189.9080  177.3930  146.7450 C   0  0  0  0  0  0  0  0  0  0  0  0
  187.5030  177.6460  146.5040 C   0  0  0  0  0  3  0  0  0  0  0  0
  188.8860  177.3310  144.5470 C   0  0  0  0  0  3  0  0  0  0  0  0
  187.6170  177.5170  145.1160 C   0  0  0  0  0  0  0  0  0  0  0  0
  188.6390  177.5840  147.3160 C   0  0  0  0  0  3  0  0  0  0  0  0
  191.8960  176.1750  147.5700 C   0  0  0  0  0  1  0  0  0  0  0  0
  191.0620  177.3250  147.5300 O   0  0  0  0  0  0  0  0  0  0  0  0
  188.6070  178.1990  139.9640 C   0  0  1  0  0  3  0  0  0  0  0  0
  189.6040  177.2960  140.6660 C   0  0  0  0  0  1  0  0  0  0  0  0
  188.2850  177.6530  138.6530 N   0  0  0  0  0  2  0  0  0  0  0  0
  188.3720  178.4340  137.4590 C   0  0  0  0  0  0  0  0  0  0  0  0
  188.9810  179.5360  137.4580 O   0  0  0  0  0  0  0  0  0  0  0  0
  187.6930  177.9650  136.2180 C   0  0  0  0  0  2  0  0  0  0  0  0
  187.5870  176.5060  136.2230 N   0  0  0  0  0  0  0  0  0  0  0  0
  186.2420  174.4450  136.9670 C   0  0  0  0  0  1  0  0  0  0  0  0
  186.3950  175.9180  136.7900 C   0  0  0  0  0  0  0  0  0  0  0  0
  188.6400  175.7230  135.6120 C   0  0  0  0  0  0  0  0  0  0  0  0
  188.4920  174.4910  135.4000 O   0  0  0  0  0  0  0  0  0  0  0  0
  185.4500  176.6580  137.1740 O   0  0  0  0  0  0  0  0  0  0  0  0
  189.9410  176.3540  135.2210 C   0  0  0  0  0  2  0  0  0  0  0  0
  191.0490  175.8570  136.0840 C   0  0  0  0  0  0  0  0  0  0  0  0
  192.7920  174.2350  136.5430 C   0  0  0  0  0  3  0  0  0  0  0  0
  192.4060  176.0660  138.0830 C   0  0  0  0  0  3  0  0  0  0  0  0
  193.1160  174.9180  137.7210 C   0  0  0  0  0  3  0  0  0  0  0  0
  191.3720  176.5350  137.2660 C   0  0  0  0  0  3  0  0  0  0  0  0
  191.7580  174.7040  135.7260 C   0  0  0  0  0  3  0  0  0  0  0  0
  1 21  1  0  0  0  0
  2  7  1  1  0  0  0
  2  9  1  0  0  0  0
  3 14  1  0  0  0  0
  3 13  1  1  0  0  0
  4 11  2  0  0  0  0
  5  9  1  6  0  0  0
  5 16  1  0  0  0  0
  6  2  1  0  0  0  0
  6 10  1  0  0  0  0
  8 10  1  6  0  0  0
  8 12  1  0  0  0  0
  8  5  1  0  0  0  0
 11 15  1  0  0  0  0
 12  4  1  6  0  0  0
 12  3  1  0  0  0  0
 14  1  1  0  0  0  0
 15 14  2  0  0  0  0
 16 13  1  0  0  0  0
 17 18  1  0  0  0  0
 18 22  2  0  0  0  0
 18 24  1  0  0  0  0
 19 22  1  0  0  0  0
 20 21  1  0  0  0  0
 20 17  2  0  0  0  0
 21 19  2  0  0  0  0
 24 23  1  0  0  0  0
 25 26  1  1  0  0  0
 25 11  1  0  0  0  0
 27 25  1  0  0  0  0
 28 27  1  0  0  0  0
 29 28  2  0  0  0  0
 30 31  1  0  0  0  0
 30 28  1  0  0  0  0
 31 33  1  0  0  0  0
 33 32  1  0  0  0  0
 33 36  2  0  0  0  0
 34 31  1  0  0  0  0
 35 34  2  0  0  0  0
 37 34  1  0  0  0  0
 37 38  1  0  0  0  0
 38 42  1  0  0  0  0
 39 41  2  0  0  0  0
 41 40  1  0  0  0  0
 42 40  2  0  0  0  0
 43 38  2  0  0  0  0
 43 39  1  0  0  0  0
M  END
>  <MODEL>
8

>  <REMARK>
 VINA RESULT:      -8.4      2.087      7.217
  Name = 
  8 active torsions:
  status: ('A' for Active; 'I' for Inactive)
    1  A    between atoms: N_1  and  C_35
    2  A    between atoms: C_2  and  N_6
    3  A    between atoms: C_2  and  C_27
    4  A    between atoms: C_3  and  N_4
    5  A    between atoms: C_3  and  C_12
    6  A    between atoms: C_11  and  C_14
    7  A    between atoms: C_14  and  C_22
    8  A    between atoms: C_19  and  O_37
                            x       y       z     vdW  Elec       q    Type
                         _______ _______ _______ _____ _____    ______ ____

>  <TORSDO>
F 8

$$$$
=
 OpenBabel10272414383D

 43 47  0  0  1  0  0  0  0  0999 V2000
  185.8770  178.4350  144.5330 N   0  0  0  0  0  2  0  0  0  0  0  0
  192.4410  176.4680  147.8840 C   0  0  2  0  0  3  0  0  0  0  0  0
  188.2790  178.0250  145.2830 C   0  0  2  0  0  3  0  0  0  0  0  0
  189.8330  177.2510  143.4960 C   0  0  0  0  0  3  0  0  0  0  0  0
  189.9510  176.7670  147.3390 C   0  0  1  0  0  3  0  0  0  0  0  0
  192.3470  175.4340  146.7680 C   0  0  0  0  0  2  0  0  0  0  0  0
  193.2080  175.9630  148.9320 O   0  0  0  0  0  1  0  0  0  0  0  0
  190.5070  177.0300  145.9260 C   0  0  1  0  0  3  0  0  0  0  0  0
  191.0520  176.8580  148.4050 C   0  0  0  0  0  2  0  0  0  0  0  0
  191.5830  175.9900  145.5590 C   0  0  0  0  0  2  0  0  0  0  0  0
  188.9450  177.6400  142.5690 C   0  0  0  0  0  0  0  0  0  0  0  0
  189.3660  177.0120  144.9030 C   0  0  1  0  0  3  0  0  0  0  0  0
  187.7070  177.6650  146.6490 C   0  0  0  0  0  2  0  0  0  0  0  0
  187.2280  178.0800  144.1980 C   0  0  0  0  0  0  0  0  0  0  0  0
  187.5930  177.9450  142.9520 N   0  0  0  0  0  0  0  0  0  0  0  0
  188.8190  177.7310  147.6930 C   0  0  0  0  0  2  0  0  0  0  0  0
  183.7330  178.2480  141.4540 C   0  0  0  0  0  3  0  0  0  0  0  0
  182.4820  178.5790  141.9840 C   0  0  0  0  0  0  0  0  0  0  0  0
  183.4950  178.8130  144.1800 C   0  0  0  0  0  3  0  0  0  0  0  0
  184.8590  178.1990  142.2810 C   0  0  0  0  0  3  0  0  0  0  0  0
  184.7480  178.4860  143.6500 C   0  0  0  0  0  0  0  0  0  0  0  0
  182.3690  178.8610  143.3550 C   0  0  0  0  0  3  0  0  0  0  0  0
  180.3000  179.5320  141.3160 C   0  0  0  0  0  1  0  0  0  0  0  0
  181.3750  178.6190  141.1330 O   0  0  0  0  0  0  0  0  0  0  0  0
  189.3400  177.7510  141.1270 C   0  0  1  0  0  3  0  0  0  0  0  0
  190.5640  176.9000  140.8420 C   0  0  0  0  0  1  0  0  0  0  0  0
  188.2400  177.3370  140.2670 N   0  0  0  0  0  2  0  0  0  0  0  0
  188.1710  177.7020  138.8870 C   0  0  0  0  0  0  0  0  0  0  0  0
  189.1820  178.1680  138.2970 O   0  0  0  0  0  0  0  0  0  0  0  0
  186.8800  177.5820  138.1540 C   0  0  0  0  0  2  0  0  0  0  0  0
  187.1280  177.2920  136.7410 N   0  0  0  0  0  0  0  0  0  0  0  0
  187.2950  178.2160  134.3480 C   0  0  0  0  0  1  0  0  0  0  0  0
  187.1810  178.4060  135.8230 C   0  0  0  0  0  0  0  0  0  0  0  0
  187.3690  175.9230  136.3370 C   0  0  0  0  0  0  0  0  0  0  0  0
  187.7990  175.6540  135.1850 O   0  0  0  0  0  0  0  0  0  0  0  0
  187.1080  179.5860  136.2600 O   0  0  0  0  0  0  0  0  0  0  0  0
  187.1080  174.7860  137.2760 C   0  0  0  0  0  2  0  0  0  0  0  0
  185.7540  174.2090  137.0410 C   0  0  0  0  0  0  0  0  0  0  0  0
  183.5180  174.3990  136.1260 C   0  0  0  0  0  3  0  0  0  0  0  0
  184.1660  172.4000  137.3310 C   0  0  0  0  0  3  0  0  0  0  0  0
  183.2070  173.1280  136.6220 C   0  0  0  0  0  3  0  0  0  0  0  0
  185.4390  172.9410  137.5430 C   0  0  0  0  0  3  0  0  0  0  0  0
  184.7910  174.9390  136.3360 C   0  0  0  0  0  3  0  0  0  0  0  0
  2  9  1  0  0  0  0
  2  7  1  1  0  0  0
  3 13  1  1  0  0  0
  5 16  1  1  0  0  0
  5  9  1  0  0  0  0
  6  2  1  0  0  0  0
  8 10  1  6  0  0  0
  8  5  1  0  0  0  0
 10  6  1  0  0  0  0
 11 15  1  0  0  0  0
 11  4  2  0  0  0  0
 12  4  1  6  0  0  0
 12  3  1  0  0  0  0
 12  8  1  0  0  0  0
 13 16  1  0  0  0  0
 14  1  1  0  0  0  0
 14  3  1  0  0  0  0
 15 14  2  0  0  0  0
 17 18  2  0  0  0  0
 17 20  1  0  0  0  0
 18 22  1  0  0  0  0
 20 21  2  0  0  0  0
 21 19  1  0  0  0  0
 21  1  1  0  0  0  0
 22 19  2  0  0  0  0
 24 23  1  0  0  0  0
 24 18  1  0  0  0  0
 25 26  1  1  0  0  0
 25 11  1  0  0  0  0
 27 25  1  0  0  0  0
 28 27  1  0  0  0  0
 29 28  2  0  0  0  0
 30 28  1  0  0  0  0
 31 30  1  0  0  0  0
 32 33  1  0  0  0  0
 33 36  2  0  0  0  0
 33 31  1  0  0  0  0
 34 31  1  0  0  0  0
 34 37  1  0  0  0  0
 35 34  2  0  0  0  0
 38 37  1  0  0  0  0
 38 42  1  0  0  0  0
 39 43  1  0  0  0  0
 39 41  2  0  0  0  0
 40 42  2  0  0  0  0
 41 40  1  0  0  0  0
 43 38  2  0  0  0  0
M  END
>  <MODEL>
9

>  <REMARK>
 VINA RESULT:      -8.1      2.201      3.337
  Name = 
  8 active torsions:
  status: ('A' for Active; 'I' for Inactive)
    1  A    between atoms: N_1  and  C_35
    2  A    between atoms: C_2  and  N_6
    3  A    between atoms: C_2  and  C_27
    4  A    between atoms: C_3  and  N_4
    5  A    between atoms: C_3  and  C_12
    6  A    between atoms: C_11  and  C_14
    7  A    between atoms: C_14  and  C_22
    8  A    between atoms: C_19  and  O_37
                            x       y       z     vdW  Elec       q    Type
                         _______ _______ _______ _____ _____    ______ ____

>  <TORSDO>
F 8

$$$$
