=
 OpenBabel10272413403D

 32 37  0  0  1  0  0  0  0  0999 V2000
  192.7930  176.1570  138.2370 C   0  0  0  0  0  0  0  0  0  0  0  0
  189.2350  177.7920  141.6770 C   0  0  1  0  0  3  0  0  0  0  0  0
  190.8940  174.9790  143.8230 C   0  0  0  0  0  1  0  0  0  0  0  0
  186.7980  178.5740  142.0630 C   0  0  0  0  0  0  0  0  0  0  0  0
  185.7140  178.6330  143.0750 C   0  0  0  0  0  0  0  0  0  0  0  0
  190.5000  176.8680  139.7140 C   0  0  0  0  0  0  0  0  0  0  0  0
  192.0220  178.1720  141.3330 C   0  0  0  0  0  2  0  0  0  0  0  0
  183.6710  178.7370  144.9570 C   0  0  0  0  0  3  0  0  0  0  0  0
  192.9160  176.9250  139.3950 C   0  0  0  0  0  3  0  0  0  0  0  0
  191.6700  177.4970  142.6600 C   0  0  2  0  0  3  0  0  0  0  0  0
  190.1810  177.1040  142.6740 C   0  0  2  0  0  0  0  0  0  0  0  0
  188.2300  177.6130  143.7710 C   0  0  2  0  0  3  0  0  0  0  0  0
  183.5730  179.4250  143.7880 N   0  0  0  0  0  0  0  0  0  0  0  0
  191.5210  175.7550  137.8110 C   0  0  0  0  0  3  0  0  0  0  0  0
  191.7910  177.2890  140.1420 C   0  0  0  0  0  0  0  0  0  0  0  0
  184.5580  179.3890  142.8520 C   0  0  0  0  0  3  0  0  0  0  0  0
  190.3890  176.1080  138.5450 C   0  0  0  0  0  3  0  0  0  0  0  0
  189.7610  175.7870  143.2080 C   0  0  2  0  0  3  0  0  0  0  0  0
  189.5490  177.0170  144.0090 N   0  0  1  0  0  0  0  0  0  0  0  0
  187.0720  177.0860  144.6070 C   0  0  0  0  0  2  0  0  0  0  0  0
  189.3090  177.1430  140.4110 O   0  0  0  0  0  0  0  0  0  0  0  0
  186.7620  179.2660  141.0100 O   0  0  0  0  0  0  0  0  0  0  0  0
  184.8070  177.9730  145.2320 C   0  0  0  0  0  3  0  0  0  0  0  0
  187.8860  177.5790  142.3030 C   0  0  2  0  0  3  0  0  0  0  0  0
  185.8420  177.9190  144.2980 C   0  0  0  0  0  0  0  0  0  0  0  0
  191.2090  179.5890  143.7220 O   0  0  0  0  0  1  0  0  0  0  0  0
  192.0070  178.4470  143.8010 C   0  0  0  0  0  2  0  0  0  0  0  0
  193.9470  175.8140  137.5260 O   0  0  0  0  0  0  0  0  0  0  0  0
  194.3960  174.4730  137.3890 C   0  0  0  0  0  2  0  0  0  0  0  0
  195.2740  174.1210  138.5360 C   0  0  0  0  0  0  0  0  0  0  0  0
  195.3630  172.8030  138.9620 O   0  0  0  0  0  0  0  0  0  0  0  0
  195.9050  175.0230  139.1450 O   0  0  0  0  0  1  0  0  0  0  0  0
  1  9  1  0  0  0  0
  2 21  1  6  0  0  0
  2 24  1  0  0  0  0
  2 11  1  0  0  0  0
  4 24  1  0  0  0  0
  4  5  1  0  0  0  0
  5 25  1  0  0  0  0
  6 15  1  0  0  0  0
  6 21  1  0  0  0  0
  7 10  1  0  0  0  0
  8 23  1  0  0  0  0
  9 15  2  0  0  0  0
 10 11  1  0  0  0  0
 10 27  1  1  0  0  0
 11 18  1  0  0  0  0
 11 19  1  0  0  0  0
 12 19  1  0  0  0  0
 12 20  1  0  0  0  0
 13  8  2  0  0  0  0
 14  1  2  0  0  0  0
 14 17  1  0  0  0  0
 15  7  1  0  0  0  0
 16  5  2  0  0  0  0
 16 13  1  0  0  0  0
 17  6  2  0  0  0  0
 18  3  1  0  0  0  0
 18 19  1  0  0  0  0
 22  4  2  0  0  0  0
 24 12  1  0  0  0  0
 25 20  1  0  0  0  0
 25 23  2  0  0  0  0
 26 27  1  0  0  0  0
 28  1  1  0  0  0  0
 29 28  1  0  0  0  0
 29 30  1  0  0  0  0
 30 31  2  0  0  0  0
 30 32  1  0  0  0  0
M  END
>  <MODEL>
1

>  <REMARK>
 VINA RESULT:      -8.4      0.000      0.000
  Name = 
  4 active torsions:
  status: ('A' for Active; 'I' for Inactive)
    1  A    between atoms: C_1  and  C_10
    2  A    between atoms: C_2  and  O_24
    3  A    between atoms: C_10  and  O_24
    4  A    between atoms: C_13  and  C_14
                            x       y       z     vdW  Elec       q    Type
                         _______ _______ _______ _____ _____    ______ ____

>  <TORSDO>
F 4

$$$$
=
 OpenBabel10272413403D

 32 37  0  0  1  0  0  0  0  0999 V2000
  187.4910  177.6120  142.8880 C   0  0  0  0  0  0  0  0  0  0  0  0
  190.6900  176.7780  138.8580 C   0  0  1  0  0  3  0  0  0  0  0  0
  187.4140  175.2840  137.3400 C   0  0  0  0  0  1  0  0  0  0  0  0
  193.0430  176.0310  138.0820 C   0  0  0  0  0  0  0  0  0  0  0  0
  193.7840  175.4170  136.9520 C   0  0  0  0  0  0  0  0  0  0  0  0
  189.4950  176.8300  141.0660 C   0  0  0  0  0  0  0  0  0  0  0  0
  188.6790  178.6800  139.4690 C   0  0  0  0  0  2  0  0  0  0  0  0
  195.1790  174.2560  134.8470 C   0  0  0  0  0  3  0  0  0  0  0  0
  187.6070  178.2550  141.6550 C   0  0  0  0  0  3  0  0  0  0  0  0
  188.3640  177.8570  138.2180 C   0  0  2  0  0  3  0  0  0  0  0  0
  189.3630  176.6940  138.0850 C   0  0  2  0  0  0  0  0  0  0  0  0
  191.0440  175.9580  136.7070 C   0  0  2  0  0  3  0  0  0  0  0  0
  195.8430  174.8270  135.8880 N   0  0  0  0  0  0  0  0  0  0  0  0
  188.3860  176.5850  143.2140 C   0  0  0  0  0  3  0  0  0  0  0  0
  188.5940  177.8830  140.7370 C   0  0  0  0  0  0  0  0  0  0  0  0
  195.1820  175.4010  136.9290 C   0  0  0  0  0  3  0  0  0  0  0  0
  189.3760  176.2010  142.3100 C   0  0  0  0  0  3  0  0  0  0  0  0
  188.8910  175.3440  137.6980 C   0  0  2  0  0  3  0  0  0  0  0  0
  189.5970  176.1980  136.7120 N   0  0  1  0  0  0  0  0  0  0  0  0
  191.5550  174.8290  135.8230 C   0  0  0  0  0  2  0  0  0  0  0  0
  190.4970  176.3500  140.2030 O   0  0  0  0  0  0  0  0  0  0  0  0
  193.6380  176.6350  139.0150 O   0  0  0  0  0  0  0  0  0  0  0  0
  193.7830  174.2510  134.8180 C   0  0  0  0  0  3  0  0  0  0  0  0
  191.5660  175.8110  138.1140 C   0  0  2  0  0  3  0  0  0  0  0  0
  193.0720  174.8380  135.8650 C   0  0  0  0  0  0  0  0  0  0  0  0
  188.9800  179.9970  137.3460 O   0  0  0  0  0  1  0  0  0  0  0  0
  188.4080  178.7720  137.0020 C   0  0  0  0  0  2  0  0  0  0  0  0
  186.4850  178.0160  143.7700 O   0  0  0  0  0  0  0  0  0  0  0  0
  186.6680  178.0530  145.1790 C   0  0  0  0  0  2  0  0  0  0  0  0
  185.4990  178.7140  145.8160 C   0  0  0  0  0  0  0  0  0  0  0  0
  185.6000  179.2020  147.1120 O   0  0  0  0  0  1  0  0  0  0  0  0
  184.4070  178.7980  145.1970 O   0  0  0  0  0  0  0  0  0  0  0  0
  1 14  1  0  0  0  0
  1 28  1  0  0  0  0
  2 21  1  1  0  0  0
  3 18  1  0  0  0  0
  4 24  1  0  0  0  0
  4 22  2  0  0  0  0
  5  4  1  0  0  0  0
  6 17  1  0  0  0  0
  7 15  1  0  0  0  0
  8 13  1  0  0  0  0
  9  1  2  0  0  0  0
 10 27  1  6  0  0  0
 10  7  1  0  0  0  0
 11 10  1  0  0  0  0
 11  2  1  0  0  0  0
 12 19  1  0  0  0  0
 12 24  1  0  0  0  0
 13 16  2  0  0  0  0
 15  6  2  0  0  0  0
 15  9  1  0  0  0  0
 16  5  1  0  0  0  0
 17 14  2  0  0  0  0
 18 11  1  0  0  0  0
 19 18  1  0  0  0  0
 19 11  1  0  0  0  0
 20 25  1  0  0  0  0
 20 12  1  0  0  0  0
 21  6  1  0  0  0  0
 23  8  2  0  0  0  0
 23 25  1  0  0  0  0
 24  2  1  0  0  0  0
 25  5  2  0  0  0  0
 27 26  1  0  0  0  0
 28 29  1  0  0  0  0
 29 30  1  0  0  0  0
 30 31  1  0  0  0  0
 32 30  2  0  0  0  0
M  END
>  <MODEL>
2

>  <REMARK>
 VINA RESULT:      -8.0      3.255      9.164
  Name = 
  4 active torsions:
  status: ('A' for Active; 'I' for Inactive)
    1  A    between atoms: C_1  and  C_10
    2  A    between atoms: C_2  and  O_24
    3  A    between atoms: C_10  and  O_24
    4  A    between atoms: C_13  and  C_14
                            x       y       z     vdW  Elec       q    Type
                         _______ _______ _______ _____ _____    ______ ____

>  <TORSDO>
F 4

$$$$
=
 OpenBabel10272413403D

 32 37  0  0  1  0  0  0  0  0999 V2000
  185.6040  178.5730  144.0340 C   0  0  0  0  0  0  0  0  0  0  0  0
  189.3260  176.8370  140.8230 C   0  0  1  0  0  3  0  0  0  0  0  0
  191.5810  178.7670  143.3650 C   0  0  0  0  0  1  0  0  0  0  0  0
  190.0460  176.4170  138.3730 C   0  0  0  0  0  0  0  0  0  0  0  0
  191.2280  176.3170  137.4810 C   0  0  0  0  0  0  0  0  0  0  0  0
  187.3570  177.9500  141.9160 C   0  0  0  0  0  0  0  0  0  0  0  0
  188.3540  176.0730  143.3740 C   0  0  0  0  0  2  0  0  0  0  0  0
  193.4330  176.1420  135.7980 C   0  0  0  0  0  3  0  0  0  0  0  0
  186.5460  177.5540  144.1800 C   0  0  0  0  0  3  0  0  0  0  0  0
  189.8280  176.4820  143.3930 C   0  0  2  0  0  3  0  0  0  0  0  0
  190.2200  177.1100  142.0430 C   0  0  2  0  0  0  0  0  0  0  0  0
  191.5760  176.7080  140.2350 C   0  0  2  0  0  3  0  0  0  0  0  0
  192.2000  175.7630  135.3670 N   0  0  0  0  0  0  0  0  0  0  0  0
  185.5310  179.2720  142.8230 C   0  0  0  0  0  3  0  0  0  0  0  0
  187.4250  177.2290  143.1410 C   0  0  0  0  0  0  0  0  0  0  0  0
  191.1070  175.8400  136.1720 C   0  0  0  0  0  3  0  0  0  0  0  0
  186.4000  178.9610  141.7770 C   0  0  0  0  0  3  0  0  0  0  0  0
  191.0680  178.3240  142.0030 C   0  0  2  0  0  3  0  0  0  0  0  0
  191.6480  177.0000  141.6700 N   0  0  1  0  0  0  0  0  0  0  0  0
  192.7150  177.2220  139.3670 C   0  0  0  0  0  2  0  0  0  0  0  0
  188.2170  177.7330  140.8240 O   0  0  0  0  0  0  0  0  0  0  0  0
  188.9110  175.9970  138.0200 O   0  0  0  0  0  0  0  0  0  0  0  0
  193.6100  176.6190  137.0990 C   0  0  0  0  0  3  0  0  0  0  0  0
  190.2430  177.1300  139.6700 C   0  0  2  0  0  3  0  0  0  0  0  0
  192.5120  176.7040  137.9550 C   0  0  0  0  0  0  0  0  0  0  0  0
  191.7180  175.6010  144.5630 O   0  0  0  0  0  1  0  0  0  0  0  0
  190.6750  175.2550  143.7040 C   0  0  0  0  0  2  0  0  0  0  0  0
  184.7510  178.8640  145.1020 O   0  0  0  0  0  0  0  0  0  0  0  0
  184.8440  178.2120  146.3610 C   0  0  0  0  0  2  0  0  0  0  0  0
  185.9210  178.8410  147.1700 C   0  0  0  0  0  0  0  0  0  0  0  0
  187.0210  178.0910  147.5620 O   0  0  0  0  0  1  0  0  0  0  0  0
  185.8170  180.0410  147.5320 O   0  0  0  0  0  0  0  0  0  0  0  0
  1  9  1  0  0  0  0
  1 28  1  0  0  0  0
  2 21  1  1  0  0  0
  2 11  1  0  0  0  0
  4 24  1  0  0  0  0
  5 25  1  0  0  0  0
  5  4  1  0  0  0  0
  6 15  1  0  0  0  0
  7 10  1  0  0  0  0
  8 23  1  0  0  0  0
 10 27  1  6  0  0  0
 11 10  1  0  0  0  0
 12 19  1  0  0  0  0
 13  8  2  0  0  0  0
 13 16  1  0  0  0  0
 14  1  2  0  0  0  0
 15  7  1  0  0  0  0
 15  9  2  0  0  0  0
 16  5  2  0  0  0  0
 17  6  2  0  0  0  0
 17 14  1  0  0  0  0
 18 11  1  0  0  0  0
 18  3  1  0  0  0  0
 19 18  1  0  0  0  0
 19 11  1  0  0  0  0
 20 12  1  0  0  0  0
 21  6  1  0  0  0  0
 22  4  2  0  0  0  0
 23 25  2  0  0  0  0
 24 12  1  0  0  0  0
 24  2  1  0  0  0  0
 25 20  1  0  0  0  0
 27 26  1  0  0  0  0
 28 29  1  0  0  0  0
 29 30  1  0  0  0  0
 30 32  2  0  0  0  0
 30 31  1  0  0  0  0
M  END
>  <MODEL>
3

>  <REMARK>
 VINA RESULT:      -7.6      2.893      8.261
  Name = 
  4 active torsions:
  status: ('A' for Active; 'I' for Inactive)
    1  A    between atoms: C_1  and  C_10
    2  A    between atoms: C_2  and  O_24
    3  A    between atoms: C_10  and  O_24
    4  A    between atoms: C_13  and  C_14
                            x       y       z     vdW  Elec       q    Type
                         _______ _______ _______ _____ _____    ______ ____

>  <TORSDO>
F 4

$$$$
=
 OpenBabel10272413403D

 32 37  0  0  1  0  0  0  0  0999 V2000
  193.6690  176.1330  137.8840 C   0  0  0  0  0  0  0  0  0  0  0  0
  189.1420  176.9500  140.3340 C   0  0  1  0  0  3  0  0  0  0  0  0
  188.6460  179.3990  137.3300 C   0  0  0  0  0  1  0  0  0  0  0  0
  187.9370  177.2770  142.6010 C   0  0  0  0  0  0  0  0  0  0  0  0
  186.7530  177.9060  143.2400 C   0  0  0  0  0  0  0  0  0  0  0  0
  191.5440  176.7640  139.6250 C   0  0  0  0  0  0  0  0  0  0  0  0
  189.9580  175.4720  138.0570 C   0  0  0  0  0  2  0  0  0  0  0  0
  184.5480  179.0890  144.4490 C   0  0  0  0  0  3  0  0  0  0  0  0
  192.3710  175.7190  137.5840 C   0  0  0  0  0  3  0  0  0  0  0  0
  188.9350  176.5610  137.7290 C   0  0  2  0  0  3  0  0  0  0  0  0
  188.7220  177.4730  138.9510 C   0  0  2  0  0  0  0  0  0  0  0  0
  187.0930  178.0520  140.4610 C   0  0  2  0  0  3  0  0  0  0  0  0
  185.3200  178.2010  145.1310 N   0  0  0  0  0  0  0  0  0  0  0  0
  193.9060  176.8530  139.0610 C   0  0  0  0  0  3  0  0  0  0  0  0
  191.3030  176.0210  138.4340 C   0  0  0  0  0  0  0  0  0  0  0  0
  186.4040  177.6090  144.5610 C   0  0  0  0  0  3  0  0  0  0  0  0
  192.8510  177.1640  139.9200 C   0  0  0  0  0  3  0  0  0  0  0  0
  188.6350  178.9420  138.7810 C   0  0  2  0  0  3  0  0  0  0  0  0
  187.4080  178.1480  139.0320 N   0  0  1  0  0  0  0  0  0  0  0  0
  186.2680  179.1790  141.0650 C   0  0  0  0  0  2  0  0  0  0  0  0
  190.5380  177.1560  140.5270 O   0  0  0  0  0  0  0  0  0  0  0  0
  188.6170  176.3930  143.1890 O   0  0  0  0  0  0  0  0  0  0  0  0
  184.8500  179.4140  143.1240 C   0  0  0  0  0  3  0  0  0  0  0  0
  188.3440  177.8150  141.2680 C   0  0  2  0  0  3  0  0  0  0  0  0
  185.9500  178.8200  142.5050 C   0  0  0  0  0  0  0  0  0  0  0  0
  187.2420  176.3930  136.0480 O   0  0  0  0  0  1  0  0  0  0  0  0
  187.6340  175.9000  137.2930 C   0  0  0  0  0  2  0  0  0  0  0  0
  194.7040  175.8110  137.0010 O   0  0  0  0  0  0  0  0  0  0  0  0
  195.2240  174.4950  136.8730 C   0  0  0  0  0  2  0  0  0  0  0  0
  196.0180  174.1530  138.0820 C   0  0  0  0  0  0  0  0  0  0  0  0
  195.6370  173.0860  138.8830 O   0  0  0  0  0  1  0  0  0  0  0  0
  197.0130  174.8540  138.4010 O   0  0  0  0  0  0  0  0  0  0  0  0
  1 14  1  0  0  0  0
  2 21  1  1  0  0  0
  2 24  1  0  0  0  0
  3 18  1  0  0  0  0
  4 22  2  0  0  0  0
  4  5  1  0  0  0  0
  5 16  1  0  0  0  0
  6 17  1  0  0  0  0
  6 21  1  0  0  0  0
  7 15  1  0  0  0  0
  8 13  1  0  0  0  0
  9  1  2  0  0  0  0
  9 15  1  0  0  0  0
 10 27  1  1  0  0  0
 10  7  1  0  0  0  0
 10 11  1  0  0  0  0
 11 19  1  0  0  0  0
 11  2  1  0  0  0  0
 12 20  1  0  0  0  0
 12 24  1  0  0  0  0
 14 17  2  0  0  0  0
 15  6  2  0  0  0  0
 16 13  2  0  0  0  0
 18 11  1  0  0  0  0
 18 19  1  0  0  0  0
 19 12  1  0  0  0  0
 20 25  1  0  0  0  0
 23  8  2  0  0  0  0
 24  4  1  0  0  0  0
 25 23  1  0  0  0  0
 25  5  2  0  0  0  0
 26 27  1  0  0  0  0
 28  1  1  0  0  0  0
 29 28  1  0  0  0  0
 29 30  1  0  0  0  0
 30 32  2  0  0  0  0
 30 31  1  0  0  0  0
M  END
>  <MODEL>
4

>  <REMARK>
 VINA RESULT:      -7.4      2.057      3.834
  Name = 
  4 active torsions:
  status: ('A' for Active; 'I' for Inactive)
    1  A    between atoms: C_1  and  C_10
    2  A    between atoms: C_2  and  O_24
    3  A    between atoms: C_10  and  O_24
    4  A    between atoms: C_13  and  C_14
                            x       y       z     vdW  Elec       q    Type
                         _______ _______ _______ _____ _____    ______ ____

>  <TORSDO>
F 4

$$$$
=
 OpenBabel10272413403D

 32 37  0  0  1  0  0  0  0  0999 V2000
  187.8160  178.4020  140.9540 C   0  0  0  0  0  0  0  0  0  0  0  0
  191.3400  176.0280  137.9350 C   0  0  1  0  0  3  0  0  0  0  0  0
  188.1460  174.1200  136.7400 C   0  0  0  0  0  1  0  0  0  0  0  0
  193.7100  175.0000  137.7740 C   0  0  0  0  0  0  0  0  0  0  0  0
  194.5200  173.9850  137.0540 C   0  0  0  0  0  0  0  0  0  0  0  0
  189.9400  176.9460  139.8070 C   0  0  0  0  0  0  0  0  0  0  0  0
  189.3950  178.0520  137.5440 C   0  0  0  0  0  2  0  0  0  0  0  0
  196.0440  172.0810  135.7230 C   0  0  0  0  0  3  0  0  0  0  0  0
  188.0910  178.5180  139.5910 C   0  0  0  0  0  3  0  0  0  0  0  0
  189.1560  176.8160  136.6750 C   0  0  2  0  0  3  0  0  0  0  0  0
  190.0930  175.6750  137.1080 C   0  0  2  0  0  0  0  0  0  0  0  0
  191.8550  174.4370  136.3130 C   0  0  2  0  0  3  0  0  0  0  0  0
  196.6350  172.9970  136.5360 N   0  0  0  0  0  0  0  0  0  0  0  0
  188.6130  177.5650  141.7460 C   0  0  0  0  0  3  0  0  0  0  0  0
  189.1390  177.8050  139.0030 C   0  0  0  0  0  0  0  0  0  0  0  0
  195.9110  173.9380  137.1980 C   0  0  0  0  0  3  0  0  0  0  0  0
  189.6620  176.8460  141.1750 C   0  0  0  0  0  3  0  0  0  0  0  0
  189.5820  174.2880  137.2130 C   0  0  2  0  0  3  0  0  0  0  0  0
  190.4310  174.6840  136.0630 N   0  0  1  0  0  0  0  0  0  0  0  0
  192.3820  173.0460  135.9900 C   0  0  0  0  0  2  0  0  0  0  0  0
  190.9910  176.1530  139.3110 O   0  0  0  0  0  0  0  0  0  0  0  0
  194.2450  175.9060  138.4680 O   0  0  0  0  0  0  0  0  0  0  0  0
  194.6600  172.0890  135.5400 C   0  0  0  0  0  3  0  0  0  0  0  0
  192.2260  174.8340  137.7200 C   0  0  2  0  0  3  0  0  0  0  0  0
  193.8860  173.0450  136.1970 C   0  0  0  0  0  0  0  0  0  0  0  0
  188.1760  177.0750  134.5090 O   0  0  0  0  0  1  0  0  0  0  0  0
  189.3730  177.1920  135.2150 C   0  0  0  0  0  2  0  0  0  0  0  0
  186.7540  179.1310  141.4970 O   0  0  0  0  0  0  0  0  0  0  0  0
  185.4800  178.5570  141.7540 C   0  0  0  0  0  2  0  0  0  0  0  0
  184.5790  178.8030  140.5980 C   0  0  0  0  0  0  0  0  0  0  0  0
  183.5800  177.8890  140.2900 O   0  0  0  0  0  1  0  0  0  0  0  0
  184.7460  179.8180  139.8740 O   0  0  0  0  0  0  0  0  0  0  0  0
  1 28  1  0  0  0  0
  1 14  1  0  0  0  0
  2 21  1  1  0  0  0
  3 18  1  0  0  0  0
  4 22  2  0  0  0  0
  5 16  1  0  0  0  0
  5  4  1  0  0  0  0
  6 17  1  0  0  0  0
  7 15  1  0  0  0  0
  8 13  1  0  0  0  0
  9  1  2  0  0  0  0
 10 27  1  6  0  0  0
 10 11  1  0  0  0  0
 10  7  1  0  0  0  0
 11 18  1  0  0  0  0
 11  2  1  0  0  0  0
 12 24  1  0  0  0  0
 13 16  2  0  0  0  0
 15  9  1  0  0  0  0
 15  6  2  0  0  0  0
 17 14  2  0  0  0  0
 19 12  1  0  0  0  0
 19 11  1  0  0  0  0
 19 18  1  0  0  0  0
 20 25  1  0  0  0  0
 20 12  1  0  0  0  0
 21  6  1  0  0  0  0
 23  8  2  0  0  0  0
 23 25  1  0  0  0  0
 24  4  1  0  0  0  0
 24  2  1  0  0  0  0
 25  5  2  0  0  0  0
 26 27  1  0  0  0  0
 28 29  1  0  0  0  0
 30 29  1  0  0  0  0
 31 30  1  0  0  0  0
 32 30  2  0  0  0  0
M  END
>  <MODEL>
5

>  <REMARK>
 VINA RESULT:      -7.2      3.380      9.485
  Name = 
  4 active torsions:
  status: ('A' for Active; 'I' for Inactive)
    1  A    between atoms: C_1  and  C_10
    2  A    between atoms: C_2  and  O_24
    3  A    between atoms: C_10  and  O_24
    4  A    between atoms: C_13  and  C_14
                            x       y       z     vdW  Elec       q    Type
                         _______ _______ _______ _____ _____    ______ ____

>  <TORSDO>
F 4

$$$$
=
 OpenBabel10272413403D

 32 37  0  0  1  0  0  0  0  0999 V2000
  185.5470  178.5530  143.6630 C   0  0  0  0  0  0  0  0  0  0  0  0
  189.5930  176.8460  140.8540 C   0  0  1  0  0  3  0  0  0  0  0  0
  191.5490  178.9470  143.5050 C   0  0  0  0  0  1  0  0  0  0  0  0
  190.5390  176.3660  138.4940 C   0  0  0  0  0  0  0  0  0  0  0  0
  191.7980  176.2800  137.7120 C   0  0  0  0  0  0  0  0  0  0  0  0
  187.4990  177.9210  141.7300 C   0  0  0  0  0  0  0  0  0  0  0  0
  188.4280  176.1360  143.3390 C   0  0  0  0  0  2  0  0  0  0  0  0
  194.1470  176.1280  136.2340 C   0  0  0  0  0  3  0  0  0  0  0  0
  186.5070  177.5750  143.9290 C   0  0  0  0  0  3  0  0  0  0  0  0
  189.8800  176.6000  143.4700 C   0  0  2  0  0  3  0  0  0  0  0  0
  190.3670  177.1940  142.1360 C   0  0  2  0  0  0  0  0  0  0  0  0
  191.8890  176.7800  140.4680 C   0  0  2  0  0  3  0  0  0  0  0  0
  192.9690  175.6880  135.7130 N   0  0  0  0  0  0  0  0  0  0  0  0
  185.5570  179.2060  142.4250 C   0  0  0  0  0  3  0  0  0  0  0  0
  187.4840  177.2470  142.9840 C   0  0  0  0  0  0  0  0  0  0  0  0
  191.8080  175.7520  136.4160 C   0  0  0  0  0  3  0  0  0  0  0  0
  186.5240  178.8910  141.4700 C   0  0  0  0  0  3  0  0  0  0  0  0
  191.1730  178.4380  142.1220 C   0  0  2  0  0  3  0  0  0  0  0  0
  191.8250  177.1250  141.8920 N   0  0  1  0  0  0  0  0  0  0  0  0
  193.0820  177.3060  139.6820 C   0  0  0  0  0  2  0  0  0  0  0  0
  188.4590  177.6980  140.7250 O   0  0  0  0  0  0  0  0  0  0  0  0
  189.4550  175.8920  138.0610 O   0  0  0  0  0  0  0  0  0  0  0  0
  194.1920  176.6570  137.5250 C   0  0  0  0  0  3  0  0  0  0  0  0
  190.5970  177.1320  139.7750 C   0  0  2  0  0  3  0  0  0  0  0  0
  193.0210  176.7300  138.2800 C   0  0  0  0  0  0  0  0  0  0  0  0
  191.6110  175.8060  144.9160 O   0  0  0  0  0  1  0  0  0  0  0  0
  190.7380  175.4180  143.9000 C   0  0  0  0  0  2  0  0  0  0  0  0
  184.5940  178.8490  144.6420 O   0  0  0  0  0  0  0  0  0  0  0  0
  183.4810  179.6990  144.3980 C   0  0  0  0  0  2  0  0  0  0  0  0
  182.3870  178.9180  143.7620 C   0  0  0  0  0  0  0  0  0  0  0  0
  182.3440  178.7820  142.3820 O   0  0  0  0  0  0  0  0  0  0  0  0
  181.4800  178.4130  144.4720 O   0  0  0  0  0  1  0  0  0  0  0  0
  1  9  1  0  0  0  0
  1 28  1  0  0  0  0
  2 21  1  6  0  0  0
  2 11  1  0  0  0  0
  4 24  1  0  0  0  0
  5 25  1  0  0  0  0
  5  4  1  0  0  0  0
  6 15  1  0  0  0  0
  7 10  1  0  0  0  0
  8 23  1  0  0  0  0
 10 27  1  6  0  0  0
 11 10  1  0  0  0  0
 12 19  1  0  0  0  0
 13  8  2  0  0  0  0
 13 16  1  0  0  0  0
 14  1  2  0  0  0  0
 15  7  1  0  0  0  0
 15  9  2  0  0  0  0
 16  5  2  0  0  0  0
 17  6  2  0  0  0  0
 17 14  1  0  0  0  0
 18 11  1  0  0  0  0
 18  3  1  0  0  0  0
 19 18  1  0  0  0  0
 19 11  1  0  0  0  0
 20 12  1  0  0  0  0
 21  6  1  0  0  0  0
 22  4  2  0  0  0  0
 23 25  2  0  0  0  0
 24 12  1  0  0  0  0
 24  2  1  0  0  0  0
 25 20  1  0  0  0  0
 27 26  1  0  0  0  0
 29 28  1  0  0  0  0
 30 29  1  0  0  0  0
 30 32  1  0  0  0  0
 31 30  2  0  0  0  0
M  END
>  <MODEL>
6

>  <REMARK>
 VINA RESULT:      -6.7      2.792      8.555
  Name = 
  4 active torsions:
  status: ('A' for Active; 'I' for Inactive)
    1  A    between atoms: C_1  and  C_10
    2  A    between atoms: C_2  and  O_24
    3  A    between atoms: C_10  and  O_24
    4  A    between atoms: C_13  and  C_14
                            x       y       z     vdW  Elec       q    Type
                         _______ _______ _______ _____ _____    ______ ____

>  <TORSDO>
F 4

$$$$
=
 OpenBabel10272413403D

 32 37  0  0  1  0  0  0  0  0999 V2000
  186.1610  177.9530  143.4590 C   0  0  0  0  0  0  0  0  0  0  0  0
  182.7330  179.8100  139.9990 C   0  0  1  0  0  3  0  0  0  0  0  0
  182.1280  175.9890  139.4480 C   0  0  0  0  0  1  0  0  0  0  0  0
  182.2490  181.5680  138.1630 C   0  0  0  0  0  0  0  0  0  0  0  0
  181.4560  181.8170  136.9330 C   0  0  0  0  0  0  0  0  0  0  0  0
  184.7600  179.1700  141.3370 C   0  0  0  0  0  0  0  0  0  0  0  0
  182.5650  178.7230  142.6110 C   0  0  0  0  0  2  0  0  0  0  0  0
  179.9850  182.2890  134.6230 C   0  0  0  0  0  3  0  0  0  0  0  0
  184.7680  178.0300  143.4920 C   0  0  0  0  0  3  0  0  0  0  0  0
  181.7950  177.9050  141.5720 C   0  0  2  0  0  3  0  0  0  0  0  0
  182.1250  178.4070  140.1550 C   0  0  2  0  0  0  0  0  0  0  0  0
  181.1190  179.4300  138.3630 C   0  0  2  0  0  3  0  0  0  0  0  0
  180.6580  183.3000  135.2360 N   0  0  0  0  0  0  0  0  0  0  0  0
  186.8540  178.4960  142.3700 C   0  0  0  0  0  3  0  0  0  0  0  0
  184.0540  178.6300  142.4500 C   0  0  0  0  0  0  0  0  0  0  0  0
  181.3840  183.0940  136.3670 C   0  0  0  0  0  3  0  0  0  0  0  0
  186.1570  179.0970  141.3220 C   0  0  0  0  0  3  0  0  0  0  0  0
  182.3660  177.4400  139.0580 C   0  0  2  0  0  3  0  0  0  0  0  0
  181.0830  178.1800  139.1300 N   0  0  1  0  0  0  0  0  0  0  0  0
  180.7770  179.3430  136.8830 C   0  0  0  0  0  2  0  0  0  0  0  0
  184.1400  179.7570  140.2190 O   0  0  0  0  0  0  0  0  0  0  0  0
  182.8140  182.5060  138.7900 O   0  0  0  0  0  0  0  0  0  0  0  0
  180.0190  180.9970  135.1520 C   0  0  0  0  0  3  0  0  0  0  0  0
  182.4330  180.1420  138.5650 C   0  0  2  0  0  3  0  0  0  0  0  0
  180.7470  180.7500  136.3160 C   0  0  0  0  0  0  0  0  0  0  0  0
  179.9830  179.3170  142.2390 O   0  0  0  0  0  1  0  0  0  0  0  0
  180.3050  178.0110  141.8680 C   0  0  0  0  0  2  0  0  0  0  0  0
  186.8300  177.3400  144.5220 O   0  0  0  0  0  0  0  0  0  0  0  0
  186.5330  177.6220  145.8830 C   0  0  0  0  0  2  0  0  0  0  0  0
  187.7890  177.6270  146.6780 C   0  0  0  0  0  0  0  0  0  0  0  0
  187.7470  177.8890  148.0400 O   0  0  0  0  0  1  0  0  0  0  0  0
  188.8940  177.4320  146.1100 O   0  0  0  0  0  0  0  0  0  0  0  0
  1  9  1  0  0  0  0
  1 28  1  0  0  0  0
  2 11  1  0  0  0  0
  2 21  1  6  0  0  0
  4 24  1  0  0  0  0
  4 22  2  0  0  0  0
  5  4  1  0  0  0  0
  6 15  1  0  0  0  0
  8 23  2  0  0  0  0
  8 13  1  0  0  0  0
 10 27  1  1  0  0  0
 10  7  1  0  0  0  0
 11 10  1  0  0  0  0
 12 24  1  0  0  0  0
 12 19  1  0  0  0  0
 13 16  2  0  0  0  0
 14  1  2  0  0  0  0
 15  7  1  0  0  0  0
 15  9  2  0  0  0  0
 16  5  1  0  0  0  0
 17  6  2  0  0  0  0
 17 14  1  0  0  0  0
 18 19  1  0  0  0  0
 18  3  1  0  0  0  0
 18 11  1  0  0  0  0
 19 11  1  0  0  0  0
 20 12  1  0  0  0  0
 21  6  1  0  0  0  0
 23 25  1  0  0  0  0
 24  2  1  0  0  0  0
 25 20  1  0  0  0  0
 25  5  2  0  0  0  0
 27 26  1  0  0  0  0
 28 29  1  0  0  0  0
 29 30  1  0  0  0  0
 30 31  1  0  0  0  0
 32 30  2  0  0  0  0
M  END
>  <MODEL>
7

>  <REMARK>
 VINA RESULT:      -6.0      5.852      9.340
  Name = 
  4 active torsions:
  status: ('A' for Active; 'I' for Inactive)
    1  A    between atoms: C_1  and  C_10
    2  A    between atoms: C_2  and  O_24
    3  A    between atoms: C_10  and  O_24
    4  A    between atoms: C_13  and  C_14
                            x       y       z     vdW  Elec       q    Type
                         _______ _______ _______ _____ _____    ______ ____

>  <TORSDO>
F 4

$$$$
