=
 OpenBabel10272400403D

 25 27  0  0  1  0  0  0  0  0999 V2000
  184.7040  178.2100  143.1510 C   0  0  0  0  0  0  0  0  0  0  0  0
  185.8750  177.8820  143.8650 C   0  0  0  0  0  0  0  0  0  0  0  0
  183.7120  179.0850  145.1920 C   0  0  0  0  0  3  0  0  0  0  0  0
  184.8680  178.7610  145.9010 C   0  0  0  0  0  3  0  0  0  0  0  0
  187.1230  177.8320  145.9660 C   0  0  0  0  0  0  0  0  0  0  0  0
  187.2840  178.1520  147.6870 Cl  0  0  0  0  0  0  0  0  0  0  0  0
  186.9660  177.2810  143.2220 C   0  0  0  0  0  3  0  0  0  0  0  0
  183.6310  178.8120  143.8260 C   0  0  0  0  0  3  0  0  0  0  0  0
  188.1970  177.2340  145.3010 C   0  0  0  0  0  3  0  0  0  0  0  0
  188.1250  176.9570  143.9280 C   0  0  0  0  0  0  0  0  0  0  0  0
  185.9550  178.1600  145.2540 C   0  0  0  0  0  0  0  0  0  0  0  0
  184.5930  177.9310  141.6730 C   0  0  2  0  0  3  0  0  0  0  0  0
  183.6550  178.1300  138.9720 C   0  0  0  0  0  2  0  0  0  0  0  0
  185.0680  179.0880  140.8140 C   0  0  0  0  0  0  0  0  0  0  0  0
  184.4450  179.3460  139.4670 C   0  0  0  0  0  2  0  0  0  0  0  0
  182.7480  177.6070  140.0510 C   0  0  0  0  0  3  0  0  0  0  0  0
  185.9980  179.7890  141.1830 O   0  0  0  0  0  0  0  0  0  0  0  0
  183.1890  177.5110  141.3110 C   0  0  0  0  0  3  0  0  0  0  0  0
  189.1880  176.3590  143.2470 O   0  0  0  0  0  0  0  0  0  0  0  0
  190.1740  177.1110  142.5510 C   0  0  0  0  0  2  0  0  0  0  0  0
  191.5200  176.9610  143.2390 C   0  0  2  0  0  3  0  0  0  0  0  0
  191.6540  175.6190  143.7830 N   0  0  0  0  0  1  0  0  0  0  0  0
  191.6560  177.9690  144.3310 C   0  0  0  0  0  0  0  0  0  0  0  0
  191.7880  177.5440  145.6450 O   0  0  0  0  0  1  0  0  0  0  0  0
  191.6650  179.2020  144.0690 O   0  0  0  0  0  0  0  0  0  0  0  0
  1  8  2  0  0  0  0
  1  2  1  0  0  0  0
  2 11  1  0  0  0  0
  3  4  2  0  0  0  0
  5  6  1  0  0  0  0
  7  2  2  0  0  0  0
  7 10  1  0  0  0  0
  8  3  1  0  0  0  0
  9  5  1  0  0  0  0
 10  9  2  0  0  0  0
 11  4  1  0  0  0  0
 11  5  2  0  0  0  0
 12  1  1  1  0  0  0
 13 15  1  0  0  0  0
 13 16  1  0  0  0  0
 14 17  2  0  0  0  0
 14 12  1  0  0  0  0
 15 14  1  0  0  0  0
 16 18  2  0  0  0  0
 18 12  1  0  0  0  0
 19 10  1  0  0  0  0
 20 21  1  0  0  0  0
 20 19  1  0  0  0  0
 21 22  1  1  0  0  0
 21 23  1  0  0  0  0
 23 24  1  0  0  0  0
 25 23  2  0  0  0  0
M  END
>  <MODEL>
1

>  <REMARK>
 VINA RESULT:      -9.0      0.000      0.000
  Name = 
  5 active torsions:
  status: ('A' for Active; 'I' for Inactive)
    1  A    between atoms: C_1  and  C_5
    2  A    between atoms: C_2  and  C_21
    3  A    between atoms: O_6  and  C_15
    4  A    between atoms: O_6  and  C_23
    5  A    between atoms: C_15  and  C_21
                            x       y       z     vdW  Elec       q    Type
                         _______ _______ _______ _____ _____    ______ ____

>  <TORSDO>
F 5

$$$$
=
 OpenBabel10272400403D

 25 27  0  0  1  0  0  0  0  0999 V2000
  187.7160  177.8600  144.1750 C   0  0  0  0  0  0  0  0  0  0  0  0
  186.5890  178.2230  143.4070 C   0  0  0  0  0  0  0  0  0  0  0  0
  186.3120  177.7120  146.1540 C   0  0  0  0  0  3  0  0  0  0  0  0
  185.1960  178.0730  145.3990 C   0  0  0  0  0  3  0  0  0  0  0  0
  184.1960  178.6950  143.2620 C   0  0  0  0  0  0  0  0  0  0  0  0
  182.5940  178.8440  143.9730 Cl  0  0  0  0  0  0  0  0  0  0  0  0
  186.7070  178.4820  142.0340 C   0  0  0  0  0  3  0  0  0  0  0  0
  187.5630  177.6060  145.5460 C   0  0  0  0  0  3  0  0  0  0  0  0
  184.3390  178.9470  141.8960 C   0  0  0  0  0  3  0  0  0  0  0  0
  185.5920  178.8410  141.2750 C   0  0  0  0  0  0  0  0  0  0  0  0
  185.3180  178.3310  144.0280 C   0  0  0  0  0  0  0  0  0  0  0  0
  189.0780  177.7320  143.5400 C   0  0  2  0  0  3  0  0  0  0  0  0
  191.8570  177.0850  143.2690 C   0  0  0  0  0  2  0  0  0  0  0  0
  189.4740  176.2920  143.2720 C   0  0  0  0  0  0  0  0  0  0  0  0
  190.9210  175.8740  143.3280 C   0  0  0  0  0  2  0  0  0  0  0  0
  191.4180  178.1470  144.2380 C   0  0  0  0  0  3  0  0  0  0  0  0
  188.6300  175.4690  142.9550 O   0  0  0  0  0  0  0  0  0  0  0  0
  190.1210  178.4510  144.3610 C   0  0  0  0  0  3  0  0  0  0  0  0
  185.7550  179.0890  139.9100 O   0  0  0  0  0  0  0  0  0  0  0  0
  185.5100  178.1040  138.9150 C   0  0  0  0  0  2  0  0  0  0  0  0
  186.5910  178.1650  137.8500 C   0  0  2  0  0  3  0  0  0  0  0  0
  186.4210  177.0730  136.9050 N   0  0  0  0  0  1  0  0  0  0  0  0
  187.9410  178.0890  138.4810 C   0  0  0  0  0  0  0  0  0  0  0  0
  188.7820  179.1920  138.4350 O   0  0  0  0  0  0  0  0  0  0  0  0
  188.3190  177.0390  139.0650 O   0  0  0  0  0  1  0  0  0  0  0  0
  1  8  1  0  0  0  0
  2 11  1  0  0  0  0
  2  1  2  0  0  0  0
  4  3  1  0  0  0  0
  5  6  1  0  0  0  0
  5 11  1  0  0  0  0
  7  2  1  0  0  0  0
  8  3  2  0  0  0  0
  9  5  2  0  0  0  0
 10  9  1  0  0  0  0
 10  7  2  0  0  0  0
 11  4  2  0  0  0  0
 12  1  1  1  0  0  0
 12 18  1  0  0  0  0
 13 15  1  0  0  0  0
 13 16  1  0  0  0  0
 14 15  1  0  0  0  0
 14 12  1  0  0  0  0
 16 18  2  0  0  0  0
 17 14  2  0  0  0  0
 19 10  1  0  0  0  0
 20 19  1  0  0  0  0
 21 22  1  6  0  0  0
 21 23  1  0  0  0  0
 21 20  1  0  0  0  0
 23 25  1  0  0  0  0
 24 23  2  0  0  0  0
M  END
>  <MODEL>
2

>  <REMARK>
 VINA RESULT:      -8.9      2.781      5.962
  Name = 
  5 active torsions:
  status: ('A' for Active; 'I' for Inactive)
    1  A    between atoms: C_1  and  C_5
    2  A    between atoms: C_2  and  C_21
    3  A    between atoms: O_6  and  C_15
    4  A    between atoms: O_6  and  C_23
    5  A    between atoms: C_15  and  C_21
                            x       y       z     vdW  Elec       q    Type
                         _______ _______ _______ _____ _____    ______ ____

>  <TORSDO>
F 5

$$$$
=
 OpenBabel10272400403D

 25 27  0  0  1  0  0  0  0  0999 V2000
  187.3450  178.0390  145.7050 C   0  0  0  0  0  0  0  0  0  0  0  0
  188.5710  177.6650  145.1160 C   0  0  0  0  0  0  0  0  0  0  0  0
  188.1420  177.2370  147.8580 C   0  0  0  0  0  3  0  0  0  0  0  0
  189.3550  176.8640  147.2790 C   0  0  0  0  0  3  0  0  0  0  0  0
  190.8060  176.6980  145.3240 C   0  0  0  0  0  0  0  0  0  0  0  0
  192.1000  175.9590  146.2580 Cl  0  0  0  0  0  0  0  0  0  0  0  0
  188.8060  177.8720  143.7500 C   0  0  0  0  0  3  0  0  0  0  0  0
  187.1440  177.8200  147.0760 C   0  0  0  0  0  3  0  0  0  0  0  0
  191.0160  176.9150  143.9600 C   0  0  0  0  0  3  0  0  0  0  0  0
  190.0200  177.5020  143.1670 C   0  0  0  0  0  0  0  0  0  0  0  0
  189.5840  177.0710  145.9130 C   0  0  0  0  0  0  0  0  0  0  0  0
  186.2540  178.6780  144.8840 C   0  0  2  0  0  3  0  0  0  0  0  0
  183.7760  178.9500  143.4700 C   0  0  0  0  0  2  0  0  0  0  0  0
  184.9800  178.9160  145.6730 C   0  0  0  0  0  0  0  0  0  0  0  0
  183.6370  178.8580  144.9930 C   0  0  0  0  0  2  0  0  0  0  0  0
  184.8310  178.0020  142.9720 C   0  0  0  0  0  3  0  0  0  0  0  0
  185.0340  179.2100  146.8570 O   0  0  0  0  0  0  0  0  0  0  0  0
  185.9890  177.8790  143.6310 C   0  0  0  0  0  3  0  0  0  0  0  0
  190.2100  177.7260  141.8010 O   0  0  0  0  0  0  0  0  0  0  0  0
  189.2810  177.2970  140.8150 C   0  0  0  0  0  2  0  0  0  0  0  0
  188.7490  178.4960  140.0500 C   0  0  2  0  0  3  0  0  0  0  0  0
  187.2950  178.5020  140.0810 N   0  0  0  0  0  1  0  0  0  0  0  0
  189.2280  178.4610  138.6380 C   0  0  0  0  0  0  0  0  0  0  0  0
  188.9450  179.5230  137.7900 O   0  0  0  0  0  0  0  0  0  0  0  0
  189.8990  177.4830  138.2110 O   0  0  0  0  0  1  0  0  0  0  0  0
  1  8  1  0  0  0  0
  2  1  2  0  0  0  0
  2 11  1  0  0  0  0
  4  3  1  0  0  0  0
  5 11  1  0  0  0  0
  5  6  1  0  0  0  0
  7  2  1  0  0  0  0
  8  3  2  0  0  0  0
  9  5  2  0  0  0  0
 10  7  2  0  0  0  0
 10  9  1  0  0  0  0
 11  4  2  0  0  0  0
 12 14  1  0  0  0  0
 12  1  1  1  0  0  0
 13 15  1  0  0  0  0
 14 17  2  0  0  0  0
 15 14  1  0  0  0  0
 16 13  1  0  0  0  0
 16 18  2  0  0  0  0
 18 12  1  0  0  0  0
 19 10  1  0  0  0  0
 20 19  1  0  0  0  0
 21 22  1  6  0  0  0
 21 20  1  0  0  0  0
 23 21  1  0  0  0  0
 24 23  2  0  0  0  0
 25 23  1  0  0  0  0
M  END
>  <MODEL>
3

>  <REMARK>
 VINA RESULT:      -8.8      2.901      4.702
  Name = 
  5 active torsions:
  status: ('A' for Active; 'I' for Inactive)
    1  A    between atoms: C_1  and  C_5
    2  A    between atoms: C_2  and  C_21
    3  A    between atoms: O_6  and  C_15
    4  A    between atoms: O_6  and  C_23
    5  A    between atoms: C_15  and  C_21
                            x       y       z     vdW  Elec       q    Type
                         _______ _______ _______ _____ _____    ______ ____

>  <TORSDO>
F 5

$$$$
=
 OpenBabel10272400403D

 25 27  0  0  1  0  0  0  0  0999 V2000
  187.6860  177.8680  144.2480 C   0  0  0  0  0  0  0  0  0  0  0  0
  186.5290  178.2260  143.5250 C   0  0  0  0  0  0  0  0  0  0  0  0
  186.3590  177.7040  146.2790 C   0  0  0  0  0  3  0  0  0  0  0  0
  185.2130  178.0600  145.5680 C   0  0  0  0  0  3  0  0  0  0  0  0
  184.1280  178.6810  143.4720 C   0  0  0  0  0  0  0  0  0  0  0  0
  182.5540  178.8170  144.2440 Cl  0  0  0  0  0  0  0  0  0  0  0  0
  186.5920  178.4890  142.1490 C   0  0  0  0  0  3  0  0  0  0  0  0
  187.5870  177.6090  145.6230 C   0  0  0  0  0  3  0  0  0  0  0  0
  184.2180  178.9380  142.1020 C   0  0  0  0  0  3  0  0  0  0  0  0
  185.4470  178.8430  141.4340 C   0  0  0  0  0  0  0  0  0  0  0  0
  185.2810  178.3230  144.1940 C   0  0  0  0  0  0  0  0  0  0  0  0
  189.0240  177.7520  143.5620 C   0  0  2  0  0  3  0  0  0  0  0  0
  191.7970  177.1310  143.1850 C   0  0  0  0  0  2  0  0  0  0  0  0
  189.4230  176.3150  143.2800 C   0  0  0  0  0  0  0  0  0  0  0  0
  190.8750  175.9110  143.2810 C   0  0  0  0  0  2  0  0  0  0  0  0
  191.3860  178.1900  144.1690 C   0  0  0  0  0  3  0  0  0  0  0  0
  188.5750  175.4840  142.9970 O   0  0  0  0  0  0  0  0  0  0  0  0
  190.0910  178.4820  144.3410 C   0  0  0  0  0  3  0  0  0  0  0  0
  185.5560  179.0970  140.0650 O   0  0  0  0  0  0  0  0  0  0  0  0
  184.7770  178.4130  139.0920 C   0  0  0  0  0  2  0  0  0  0  0  0
  185.6860  177.7870  138.0480 C   0  0  2  0  0  3  0  0  0  0  0  0
  186.6830  178.7520  137.6140 N   0  0  0  0  0  1  0  0  0  0  0  0
  184.8840  177.3210  136.8800 C   0  0  0  0  0  0  0  0  0  0  0  0
  185.4960  177.1750  135.6430 O   0  0  0  0  0  0  0  0  0  0  0  0
  183.6610  177.0460  137.0080 O   0  0  0  0  0  1  0  0  0  0  0  0
  1  8  1  0  0  0  0
  2 11  1  0  0  0  0
  2  1  2  0  0  0  0
  4  3  1  0  0  0  0
  5 11  1  0  0  0  0
  5  6  1  0  0  0  0
  7  2  1  0  0  0  0
  8  3  2  0  0  0  0
  9  5  2  0  0  0  0
 10  9  1  0  0  0  0
 10  7  2  0  0  0  0
 11  4  2  0  0  0  0
 12  1  1  1  0  0  0
 12 18  1  0  0  0  0
 13 15  1  0  0  0  0
 13 16  1  0  0  0  0
 14 15  1  0  0  0  0
 14 12  1  0  0  0  0
 16 18  2  0  0  0  0
 17 14  2  0  0  0  0
 19 10  1  0  0  0  0
 20 19  1  0  0  0  0
 21 22  1  6  0  0  0
 21 20  1  0  0  0  0
 23 25  1  0  0  0  0
 23 21  1  0  0  0  0
 24 23  2  0  0  0  0
M  END
>  <MODEL>
4

>  <REMARK>
 VINA RESULT:      -8.5      2.887      6.626
  Name = 
  5 active torsions:
  status: ('A' for Active; 'I' for Inactive)
    1  A    between atoms: C_1  and  C_5
    2  A    between atoms: C_2  and  C_21
    3  A    between atoms: O_6  and  C_15
    4  A    between atoms: O_6  and  C_23
    5  A    between atoms: C_15  and  C_21
                            x       y       z     vdW  Elec       q    Type
                         _______ _______ _______ _____ _____    ______ ____

>  <TORSDO>
F 5

$$$$
=
 OpenBabel10272400403D

 25 27  0  0  1  0  0  0  0  0999 V2000
  184.8200  178.2410  143.2140 C   0  0  0  0  0  0  0  0  0  0  0  0
  185.9950  177.8130  143.8670 C   0  0  0  0  0  0  0  0  0  0  0  0
  184.0250  179.2140  145.2960 C   0  0  0  0  0  3  0  0  0  0  0  0
  185.1850  178.7910  145.9450 C   0  0  0  0  0  3  0  0  0  0  0  0
  187.3480  177.6640  145.8970 C   0  0  0  0  0  0  0  0  0  0  0  0
  187.6320  177.9790  147.6030 Cl  0  0  0  0  0  0  0  0  0  0  0  0
  186.9910  177.1130  143.1720 C   0  0  0  0  0  3  0  0  0  0  0  0
  183.8440  178.9410  143.9400 C   0  0  0  0  0  3  0  0  0  0  0  0
  188.3260  176.9680  145.1810 C   0  0  0  0  0  3  0  0  0  0  0  0
  188.1540  176.6900  143.8180 C   0  0  0  0  0  0  0  0  0  0  0  0
  186.1770  178.0910  145.2470 C   0  0  0  0  0  0  0  0  0  0  0  0
  184.6030  177.9640  141.7480 C   0  0  2  0  0  3  0  0  0  0  0  0
  183.5160  178.2100  139.1070 C   0  0  0  0  0  2  0  0  0  0  0  0
  185.0940  179.0870  140.8540 C   0  0  0  0  0  0  0  0  0  0  0  0
  184.4060  179.3770  139.5440 C   0  0  0  0  0  2  0  0  0  0  0  0
  182.6470  177.7460  140.2430 C   0  0  0  0  0  3  0  0  0  0  0  0
  186.0840  179.7320  141.1600 O   0  0  0  0  0  0  0  0  0  0  0  0
  183.1570  177.6280  141.4740 C   0  0  0  0  0  3  0  0  0  0  0  0
  189.1200  175.9950  143.0850 O   0  0  0  0  0  0  0  0  0  0  0  0
  190.5120  176.1120  143.3460 C   0  0  0  0  0  2  0  0  0  0  0  0
  191.1410  177.0870  142.3660 C   0  0  2  0  0  3  0  0  0  0  0  0
  191.1480  178.4270  142.9310 N   0  0  0  0  0  1  0  0  0  0  0  0
  190.3890  177.0810  141.0780 C   0  0  0  0  0  0  0  0  0  0  0  0
  189.4530  178.0740  140.8250 O   0  0  0  0  0  1  0  0  0  0  0  0
  190.6030  176.1900  140.2130 O   0  0  0  0  0  0  0  0  0  0  0  0
  1  2  2  0  0  0  0
  1  8  1  0  0  0  0
  2 11  1  0  0  0  0
  3  4  1  0  0  0  0
  5  6  1  0  0  0  0
  7 10  2  0  0  0  0
  7  2  1  0  0  0  0
  8  3  2  0  0  0  0
  9  5  2  0  0  0  0
 10  9  1  0  0  0  0
 11  5  1  0  0  0  0
 11  4  2  0  0  0  0
 12  1  1  1  0  0  0
 13 15  1  0  0  0  0
 13 16  1  0  0  0  0
 14 17  2  0  0  0  0
 14 12  1  0  0  0  0
 15 14  1  0  0  0  0
 16 18  2  0  0  0  0
 18 12  1  0  0  0  0
 19 20  1  0  0  0  0
 19 10  1  0  0  0  0
 21 22  1  1  0  0  0
 21 20  1  0  0  0  0
 23 21  1  0  0  0  0
 24 23  1  0  0  0  0
 25 23  2  0  0  0  0
M  END
>  <MODEL>
5

>  <REMARK>
 VINA RESULT:      -8.5      1.409      1.786
  Name = 
  5 active torsions:
  status: ('A' for Active; 'I' for Inactive)
    1  A    between atoms: C_1  and  C_5
    2  A    between atoms: C_2  and  C_21
    3  A    between atoms: O_6  and  C_15
    4  A    between atoms: O_6  and  C_23
    5  A    between atoms: C_15  and  C_21
                            x       y       z     vdW  Elec       q    Type
                         _______ _______ _______ _____ _____    ______ ____

>  <TORSDO>
F 5

$$$$
=
 OpenBabel10272400403D

 25 27  0  0  1  0  0  0  0  0999 V2000
  187.3540  177.7460  145.6200 C   0  0  0  0  0  0  0  0  0  0  0  0
  186.5660  178.0760  144.4970 C   0  0  0  0  0  0  0  0  0  0  0  0
  185.5230  178.3910  147.0850 C   0  0  0  0  0  3  0  0  0  0  0  0
  184.7420  178.7200  145.9770 C   0  0  0  0  0  3  0  0  0  0  0  0
  184.4640  178.8970  143.5590 C   0  0  0  0  0  0  0  0  0  0  0  0
  182.8240  179.5110  143.7210 Cl  0  0  0  0  0  0  0  0  0  0  0  0
  187.0680  177.9250  143.1960 C   0  0  0  0  0  3  0  0  0  0  0  0
  186.8200  177.9080  146.9070 C   0  0  0  0  0  3  0  0  0  0  0  0
  184.9870  178.7370  142.2740 C   0  0  0  0  0  3  0  0  0  0  0  0
  186.2890  178.2510  142.0850 C   0  0  0  0  0  0  0  0  0  0  0  0
  185.2480  178.5680  144.6800 C   0  0  0  0  0  0  0  0  0  0  0  0
  188.7560  177.2160  145.4550 C   0  0  2  0  0  3  0  0  0  0  0  0
  191.6140  177.0970  145.6350 C   0  0  0  0  0  2  0  0  0  0  0  0
  189.3920  176.8050  146.7690 C   0  0  0  0  0  0  0  0  0  0  0  0
  190.8810  176.9280  146.9690 C   0  0  0  0  0  2  0  0  0  0  0  0
  190.9520  178.1500  144.7910 C   0  0  0  0  0  3  0  0  0  0  0  0
  188.7110  176.3190  147.6590 O   0  0  0  0  0  0  0  0  0  0  0  0
  189.6170  178.2020  144.7050 C   0  0  0  0  0  3  0  0  0  0  0  0
  186.8290  178.0840  140.8080 O   0  0  0  0  0  0  0  0  0  0  0  0
  188.1700  178.4310  140.4900 C   0  0  0  0  0  2  0  0  0  0  0  0
  188.7420  177.4320  139.4990 C   0  0  2  0  0  3  0  0  0  0  0  0
  190.1690  177.6550  139.3340 N   0  0  0  0  0  1  0  0  0  0  0  0
  188.0500  177.5580  138.1830 C   0  0  0  0  0  0  0  0  0  0  0  0
  187.8070  178.8180  137.6540 O   0  0  0  0  0  1  0  0  0  0  0  0
  187.6960  176.5320  137.5420 O   0  0  0  0  0  0  0  0  0  0  0  0
  1  8  1  0  0  0  0
  2 11  1  0  0  0  0
  2  1  2  0  0  0  0
  4  3  1  0  0  0  0
  5  6  1  0  0  0  0
  5 11  1  0  0  0  0
  7  2  1  0  0  0  0
  8  3  2  0  0  0  0
  9  5  2  0  0  0  0
 10  9  1  0  0  0  0
 10  7  2  0  0  0  0
 11  4  2  0  0  0  0
 12  1  1  1  0  0  0
 12 14  1  0  0  0  0
 13 15  1  0  0  0  0
 14 15  1  0  0  0  0
 14 17  2  0  0  0  0
 16 13  1  0  0  0  0
 18 16  2  0  0  0  0
 18 12  1  0  0  0  0
 19 10  1  0  0  0  0
 20 19  1  0  0  0  0
 21 22  1  6  0  0  0
 21 20  1  0  0  0  0
 23 21  1  0  0  0  0
 24 23  1  0  0  0  0
 25 23  2  0  0  0  0
M  END
>  <MODEL>
6

>  <REMARK>
 VINA RESULT:      -8.0      2.788      6.014
  Name = 
  5 active torsions:
  status: ('A' for Active; 'I' for Inactive)
    1  A    between atoms: C_1  and  C_5
    2  A    between atoms: C_2  and  C_21
    3  A    between atoms: O_6  and  C_15
    4  A    between atoms: O_6  and  C_23
    5  A    between atoms: C_15  and  C_21
                            x       y       z     vdW  Elec       q    Type
                         _______ _______ _______ _____ _____    ______ ____

>  <TORSDO>
F 5

$$$$
=
 OpenBabel10272400403D

 25 27  0  0  1  0  0  0  0  0999 V2000
  188.3300  177.3850  143.2810 C   0  0  0  0  0  0  0  0  0  0  0  0
  187.0560  177.7830  143.7370 C   0  0  0  0  0  0  0  0  0  0  0  0
  189.1440  177.3900  145.5720 C   0  0  0  0  0  3  0  0  0  0  0  0
  187.8860  177.7840  146.0270 C   0  0  0  0  0  3  0  0  0  0  0  0
  185.5640  178.3820  145.5770 C   0  0  0  0  0  0  0  0  0  0  0  0
  185.2270  178.6480  147.2830 Cl  0  0  0  0  0  0  0  0  0  0  0  0
  186.0000  177.9830  142.8370 C   0  0  0  0  0  3  0  0  0  0  0  0
  189.3650  177.1910  144.2090 C   0  0  0  0  0  3  0  0  0  0  0  0
  184.5270  178.5750  144.6610 C   0  0  0  0  0  3  0  0  0  0  0  0
  184.7390  178.3770  143.2880 C   0  0  0  0  0  0  0  0  0  0  0  0
  186.8340  177.9850  145.1240 C   0  0  0  0  0  0  0  0  0  0  0  0
  188.5930  177.1570  141.8140 C   0  0  2  0  0  3  0  0  0  0  0  0
  189.7930  177.4570  139.2290 C   0  0  0  0  0  2  0  0  0  0  0  0
  189.9330  176.5000  141.5460 C   0  0  0  0  0  0  0  0  0  0  0  0
  190.6930  176.8010  140.2800 C   0  0  0  0  0  2  0  0  0  0  0  0
  189.0020  178.5850  139.8310 C   0  0  0  0  0  3  0  0  0  0  0  0
  190.3850  175.6790  142.3290 O   0  0  0  0  0  0  0  0  0  0  0  0
  188.4390  178.4420  141.0360 C   0  0  0  0  0  3  0  0  0  0  0  0
  183.7150  178.5650  142.3560 O   0  0  0  0  0  0  0  0  0  0  0  0
  183.6130  177.8000  141.1630 C   0  0  0  0  0  2  0  0  0  0  0  0
  183.1430  178.6840  140.0210 C   0  0  2  0  0  3  0  0  0  0  0  0
  182.4830  177.8790  139.0060 N   0  0  0  0  0  1  0  0  0  0  0  0
  184.3010  179.4100  139.4220 C   0  0  0  0  0  0  0  0  0  0  0  0
  184.1230  180.6950  138.9270 O   0  0  0  0  0  0  0  0  0  0  0  0
  185.4400  178.8740  139.3730 O   0  0  0  0  0  1  0  0  0  0  0  0
  1  2  2  0  0  0  0
  1  8  1  0  0  0  0
  2 11  1  0  0  0  0
  3  4  1  0  0  0  0
  5  6  1  0  0  0  0
  7 10  2  0  0  0  0
  7  2  1  0  0  0  0
  8  3  2  0  0  0  0
  9  5  2  0  0  0  0
 10  9  1  0  0  0  0
 11  5  1  0  0  0  0
 11  4  2  0  0  0  0
 12  1  1  1  0  0  0
 13 16  1  0  0  0  0
 13 15  1  0  0  0  0
 14 12  1  0  0  0  0
 14 17  2  0  0  0  0
 15 14  1  0  0  0  0
 16 18  2  0  0  0  0
 18 12  1  0  0  0  0
 19 10  1  0  0  0  0
 20 19  1  0  0  0  0
 21 22  1  6  0  0  0
 21 20  1  0  0  0  0
 23 21  1  0  0  0  0
 24 23  2  0  0  0  0
 25 23  1  0  0  0  0
M  END
>  <MODEL>
7

>  <REMARK>
 VINA RESULT:      -8.0      2.758      6.009
  Name = 
  5 active torsions:
  status: ('A' for Active; 'I' for Inactive)
    1  A    between atoms: C_1  and  C_5
    2  A    between atoms: C_2  and  C_21
    3  A    between atoms: O_6  and  C_15
    4  A    between atoms: O_6  and  C_23
    5  A    between atoms: C_15  and  C_21
                            x       y       z     vdW  Elec       q    Type
                         _______ _______ _______ _____ _____    ______ ____

>  <TORSDO>
F 5

$$$$
=
 OpenBabel10272400403D

 25 27  0  0  1  0  0  0  0  0999 V2000
  189.1840  177.1680  144.3010 C   0  0  0  0  0  0  0  0  0  0  0  0
  188.1910  177.5380  145.2310 C   0  0  0  0  0  0  0  0  0  0  0  0
  190.7930  176.9590  146.1120 C   0  0  0  0  0  3  0  0  0  0  0  0
  189.8140  177.3270  147.0340 C   0  0  0  0  0  3  0  0  0  0  0  0
  187.5200  177.9900  147.5370 C   0  0  0  0  0  0  0  0  0  0  0  0
  187.8550  178.1070  149.2600 Cl  0  0  0  0  0  0  0  0  0  0  0  0
  186.8850  177.8300  144.8120 C   0  0  0  0  0  3  0  0  0  0  0  0
  190.4800  176.8800  144.7550 C   0  0  0  0  0  3  0  0  0  0  0  0
  186.2260  178.2750  147.0940 C   0  0  0  0  0  3  0  0  0  0  0  0
  185.9020  178.1970  145.7320 C   0  0  0  0  0  0  0  0  0  0  0  0
  188.5110  177.6190  146.6110 C   0  0  0  0  0  0  0  0  0  0  0  0
  188.8700  177.0680  142.8290 C   0  0  2  0  0  3  0  0  0  0  0  0
  189.0770  177.5310  140.0080 C   0  0  0  0  0  2  0  0  0  0  0  0
  189.9430  176.3390  142.0420 C   0  0  0  0  0  0  0  0  0  0  0  0
  190.2200  176.7050  140.6070 C   0  0  0  0  0  2  0  0  0  0  0  0
  188.6860  178.6500  140.9320 C   0  0  0  0  0  3  0  0  0  0  0  0
  190.5560  175.4110  142.5470 O   0  0  0  0  0  0  0  0  0  0  0  0
  188.5860  178.4320  142.2480 C   0  0  0  0  0  3  0  0  0  0  0  0
  184.6140  178.4790  145.2700 O   0  0  0  0  0  0  0  0  0  0  0  0
  184.3580  179.4220  144.2380 C   0  0  0  0  0  2  0  0  0  0  0  0
  184.1350  178.6990  142.9210 C   0  0  2  0  0  3  0  0  0  0  0  0
  184.9790  179.2760  141.8870 N   0  0  0  0  0  1  0  0  0  0  0  0
  182.7010  178.7910  142.5190 C   0  0  0  0  0  0  0  0  0  0  0  0
  182.3330  178.4870  141.2160 O   0  0  0  0  0  0  0  0  0  0  0  0
  181.8200  179.1280  143.3540 O   0  0  0  0  0  1  0  0  0  0  0  0
  1  8  2  0  0  0  0
  1  2  1  0  0  0  0
  2 11  1  0  0  0  0
  3  4  2  0  0  0  0
  5  6  1  0  0  0  0
  7  2  2  0  0  0  0
  7 10  1  0  0  0  0
  8  3  1  0  0  0  0
  9  5  1  0  0  0  0
 10  9  2  0  0  0  0
 11  4  1  0  0  0  0
 11  5  2  0  0  0  0
 12  1  1  1  0  0  0
 13 15  1  0  0  0  0
 13 16  1  0  0  0  0
 14 17  2  0  0  0  0
 14 12  1  0  0  0  0
 15 14  1  0  0  0  0
 16 18  2  0  0  0  0
 18 12  1  0  0  0  0
 19 10  1  0  0  0  0
 20 19  1  0  0  0  0
 21 22  1  6  0  0  0
 21 20  1  0  0  0  0
 23 21  1  0  0  0  0
 23 25  1  0  0  0  0
 24 23  2  0  0  0  0
M  END
>  <MODEL>
8

>  <REMARK>
 VINA RESULT:      -7.9      2.688      6.057
  Name = 
  5 active torsions:
  status: ('A' for Active; 'I' for Inactive)
    1  A    between atoms: C_1  and  C_5
    2  A    between atoms: C_2  and  C_21
    3  A    between atoms: O_6  and  C_15
    4  A    between atoms: O_6  and  C_23
    5  A    between atoms: C_15  and  C_21
                            x       y       z     vdW  Elec       q    Type
                         _______ _______ _______ _____ _____    ______ ____

>  <TORSDO>
F 5

$$$$
=
 OpenBabel10272400403D

 25 27  0  0  1  0  0  0  0  0999 V2000
  183.8650  178.2210  142.1280 C   0  0  0  0  0  0  0  0  0  0  0  0
  184.8560  178.1170  143.1260 C   0  0  0  0  0  0  0  0  0  0  0  0
  182.3100  179.1060  143.7740 C   0  0  0  0  0  3  0  0  0  0  0  0
  183.2860  179.0040  144.7640 C   0  0  0  0  0  3  0  0  0  0  0  0
  185.5500  178.4080  145.4520 C   0  0  0  0  0  0  0  0  0  0  0  0
  185.2460  178.8820  147.1180 Cl  0  0  0  0  0  0  0  0  0  0  0  0
  186.1350  177.6270  142.8240 C   0  0  0  0  0  3  0  0  0  0  0  0
  182.5970  178.7180  142.4650 C   0  0  0  0  0  3  0  0  0  0  0  0
  186.8170  177.9170  145.1250 C   0  0  0  0  0  3  0  0  0  0  0  0
  187.1160  177.5250  143.8120 C   0  0  0  0  0  0  0  0  0  0  0  0
  184.5620  178.5130  144.4570 C   0  0  0  0  0  0  0  0  0  0  0  0
  184.1530  177.8140  140.7050 C   0  0  2  0  0  3  0  0  0  0  0  0
  183.8260  177.5810  137.8670 C   0  0  0  0  0  2  0  0  0  0  0  0
  184.5480  178.9830  139.8220 C   0  0  0  0  0  0  0  0  0  0  0  0
  184.2030  178.9840  138.3550 C   0  0  0  0  0  2  0  0  0  0  0  0
  182.8360  176.9400  138.7970 C   0  0  0  0  0  3  0  0  0  0  0  0
  185.1970  179.9100  140.2800 O   0  0  0  0  0  0  0  0  0  0  0  0
  182.9910  177.0460  140.1220 C   0  0  0  0  0  3  0  0  0  0  0  0
  188.3760  177.0310  143.4650 O   0  0  0  0  0  0  0  0  0  0  0  0
  189.4440  177.8730  143.0540 C   0  0  0  0  0  2  0  0  0  0  0  0
  190.3410  178.1870  144.2390 C   0  0  2  0  0  3  0  0  0  0  0  0
  191.1050  179.3960  143.9800 N   0  0  0  0  0  1  0  0  0  0  0  0
  191.2660  177.0460  144.5010 C   0  0  0  0  0  0  0  0  0  0  0  0
  191.6040  176.1850  143.4660 O   0  0  0  0  0  0  0  0  0  0  0  0
  191.7530  176.8640  145.6490 O   0  0  0  0  0  1  0  0  0  0  0  0
  1  8  2  0  0  0  0
  1  2  1  0  0  0  0
  2 11  1  0  0  0  0
  3  4  2  0  0  0  0
  5  6  1  0  0  0  0
  7  2  2  0  0  0  0
  7 10  1  0  0  0  0
  8  3  1  0  0  0  0
  9  5  1  0  0  0  0
 10  9  2  0  0  0  0
 11  4  1  0  0  0  0
 11  5  2  0  0  0  0
 12  1  1  1  0  0  0
 13 15  1  0  0  0  0
 13 16  1  0  0  0  0
 14 17  2  0  0  0  0
 14 12  1  0  0  0  0
 15 14  1  0  0  0  0
 16 18  2  0  0  0  0
 18 12  1  0  0  0  0
 19 10  1  0  0  0  0
 20 19  1  0  0  0  0
 20 21  1  0  0  0  0
 21 22  1  6  0  0  0
 21 23  1  0  0  0  0
 23 25  1  0  0  0  0
 24 23  2  0  0  0  0
M  END
>  <MODEL>
9

>  <REMARK>
 VINA RESULT:      -7.9      1.406      1.754
  Name = 
  5 active torsions:
  status: ('A' for Active; 'I' for Inactive)
    1  A    between atoms: C_1  and  C_5
    2  A    between atoms: C_2  and  C_21
    3  A    between atoms: O_6  and  C_15
    4  A    between atoms: O_6  and  C_23
    5  A    between atoms: C_15  and  C_21
                            x       y       z     vdW  Elec       q    Type
                         _______ _______ _______ _____ _____    ______ ____

>  <TORSDO>
F 5

$$$$
