=
 OpenBabel10272401293D

 55 58  0  0  1  0  0  0  0  0999 V2000
  191.7480  175.4620  137.7680 C   0  0  0  0  0  0  0  0  0  0  0  0
  193.4670  176.8900  138.8910 C   0  0  0  0  0  1  0  0  0  0  0  0
  192.1400  176.2990  138.8670 N   0  0  0  0  0  0  0  0  0  0  0  0
  192.6040  175.0930  136.9180 O   0  0  0  0  0  0  0  0  0  0  0  0
  190.3320  175.0160  137.6070 C   0  0  0  0  0  2  0  0  0  0  0  0
  190.2470  173.9390  136.5430 C   0  0  0  0  0  2  0  0  0  0  0  0
  189.6100  174.4790  135.2730 C   0  0  0  0  0  2  0  0  0  0  0  0
  188.7380  173.4160  134.6280 C   0  0  0  0  0  2  0  0  0  0  0  0
  187.2870  173.8730  134.6080 C   0  0  0  0  0  2  0  0  0  0  0  0
  187.2010  175.3880  134.6830 C   0  0  0  0  0  2  0  0  0  0  0  0
  186.1030  175.8030  135.5470 N   0  0  0  0  0  0  0  0  0  0  0  0
  187.8480  177.5840  138.1990 O   0  0  0  0  0  1  0  0  0  0  0  0
  186.6250  176.1800  136.8050 N   0  0  0  0  0  2  0  0  0  0  0  0
  187.3510  177.3930  137.0630 C   0  0  0  0  0  0  0  0  0  0  0  0
  187.5130  178.3630  136.0730 O   0  0  0  0  0  0  0  0  0  0  0  0
  185.2060  174.6630  135.7320 C   0  0  0  0  0  2  0  0  0  0  0  0
  184.1400  172.0710  137.0330 N   0  0  0  0  0  0  0  0  0  0  0  0
  183.0210  176.0220  136.7300 F   0  0  0  0  0  0  0  0  0  0  0  0
  184.8240  174.4980  137.2040 C   0  0  1  0  0  3  0  0  0  0  0  0
  180.4910  172.0640  135.9640 C   0  0  0  0  0  2  0  0  0  0  0  0
  183.3710  175.3810  138.8490 F   0  0  0  0  0  0  0  0  0  0  0  0
  183.3850  174.9470  137.5350 C   0  0  0  0  0  0  0  0  0  0  0  0
  184.8420  171.4950  135.8940 C   0  0  0  0  0  1  0  0  0  0  0  0
  179.9870  173.1450  136.9100 C   0  0  0  0  0  2  0  0  0  0  0  0
  180.9870  174.2920  136.9620 C   0  0  0  0  0  2  0  0  0  0  0  0
  182.8750  172.6390  136.5300 C   0  0  2  0  0  3  0  0  0  0  0  0
  182.3660  173.7930  137.4160 C   0  0  1  0  0  3  0  0  0  0  0  0
  181.8260  171.5250  136.4630 C   0  0  0  0  0  2  0  0  0  0  0  0
  185.0550  173.0500  137.6530 C   0  0  0  0  0  2  0  0  0  0  0  0
  191.2160  176.6380  139.9390 C   0  0  0  0  0  2  0  0  0  0  0  0
  191.7170  177.8600  140.6910 C   0  0  0  0  0  2  0  0  0  0  0  0
  191.9800  177.5390  142.1500 C   0  0  0  0  0  2  0  0  0  0  0  0
  191.0090  178.2980  143.0500 C   0  0  0  0  0  2  0  0  0  0  0  0
  191.2710  176.4110  146.3900 C   0  0  0  0  0  3  0  0  0  0  0  0
  189.1130  177.5030  146.3170 C   0  0  1  0  0  3  0  0  0  0  0  0
  191.6310  176.8330  144.9840 C   0  0  0  0  0  2  0  0  0  0  0  0
  189.6290  178.3270  145.1320 C   0  0  0  0  0  2  0  0  0  0  0  0
  190.1720  176.7590  146.9720 N   0  0  0  0  0  0  0  0  0  0  0  0
  190.4630  177.4450  144.2000 C   0  0  1  0  0  0  0  0  0  0  0  0
  188.3280  178.3310  147.3320 C   0  0  1  0  0  3  0  0  0  0  0  0
  186.8970  178.1310  147.1750 N   0  0  0  0  0  1  0  0  0  0  0  0
  188.7480  177.9940  148.7520 C   0  0  0  0  0  1  0  0  0  0  0  0
  189.3870  176.1080  143.5280 S   0  0  0  0  0  0  0  0  0  0  0  0
  186.1850  178.8520  141.7150 C   0  0  0  0  0  3  0  0  0  0  0  0
  187.4610  178.7960  141.1570 C   0  0  0  0  0  3  0  0  0  0  0  0
  186.5290  176.4700  144.4800 F   0  0  0  0  0  0  0  0  0  0  0  0
  188.1080  177.1400  142.8080 C   0  0  0  0  0  0  0  0  0  0  0  0
  188.4210  177.9400  141.7050 C   0  0  0  0  0  3  0  0  0  0  0  0
  186.8270  177.2070  143.3790 C   0  0  0  0  0  0  0  0  0  0  0  0
  185.8560  178.0550  142.8260 C   0  0  0  0  0  0  0  0  0  0  0  0
  184.5740  178.0810  143.3990 O   0  0  0  0  0  0  0  0  0  0  0  0
  182.5900  179.2970  143.9770 C   0  0  0  0  0  1  0  0  0  0  0  0
  184.7100  180.3210  143.9460 F   0  0  0  0  0  0  0  0  0  0  0  0
  184.2710  178.7760  145.6940 C   0  0  0  0  0  1  0  0  0  0  0  0
  184.0720  179.1280  144.2330 C   0  0  0  0  0  0  0  0  0  0  0  0
  1  3  1  0  0  0  0
  3  2  1  0  0  0  0
  3 30  1  0  0  0  0
  4  1  2  0  0  0  0
  5  1  1  0  0  0  0
  6  5  1  0  0  0  0
  7  6  1  0  0  0  0
  8  7  1  0  0  0  0
  9  8  1  0  0  0  0
  9 10  1  0  0  0  0
 10 11  1  0  0  0  0
 11 16  1  0  0  0  0
 11 13  1  0  0  0  0
 13 14  1  0  0  0  0
 14 12  1  0  0  0  0
 15 14  2  0  0  0  0
 17 29  1  0  0  0  0
 18 22  1  0  0  0  0
 19 16  1  6  0  0  0
 19 22  1  0  0  0  0
 19 29  1  0  0  0  0
 20 28  1  0  0  0  0
 20 24  1  0  0  0  0
 22 21  1  0  0  0  0
 23 17  1  0  0  0  0
 24 25  1  0  0  0  0
 26 28  1  1  0  0  0
 26 17  1  0  0  0  0
 26 27  1  0  0  0  0
 27 25  1  6  0  0  0
 27 22  1  0  0  0  0
 30 31  1  0  0  0  0
 31 32  1  0  0  0  0
 32 33  1  0  0  0  0
 34 38  2  0  0  0  0
 35 38  1  0  0  0  0
 35 40  1  1  0  0  0
 36 34  1  0  0  0  0
 37 35  1  0  0  0  0
 39 33  1  6  0  0  0
 39 36  1  0  0  0  0
 39 37  1  0  0  0  0
 40 42  1  1  0  0  0
 41 40  1  0  0  0  0
 43 39  1  0  0  0  0
 44 50  1  0  0  0  0
 45 48  1  0  0  0  0
 45 44  2  0  0  0  0
 47 49  1  0  0  0  0
 47 43  1  0  0  0  0
 48 47  2  0  0  0  0
 49 46  1  0  0  0  0
 50 49  2  0  0  0  0
 50 51  1  0  0  0  0
 51 55  1  0  0  0  0
 52 55  1  0  0  0  0
 53 55  1  0  0  0  0
 55 54  1  0  0  0  0
M  END
>  <MODEL>
1

>  <REMARK>
 VINA RESULT:      -7.2      0.000      0.000
  Name = 
  20 active torsions:
  status: ('A' for Active; 'I' for Inactive)
    1  A    between atoms: C_2  and  C_28
    2  A    between atoms: C_2  and  N_44
    3  A    between atoms: C_6  and  C_46
    4  A    between atoms: N_8  and  N_22
    5  A    between atoms: C_10  and  C_32
    6  A    between atoms: C_17  and  S_36
    7  A    between atoms: O_19  and  C_40
    8  A    between atoms: O_19  and  C_45
    9  A    between atoms: N_22  and  C_35
   10  A    between atoms: N_22  and  C_46
   11  A    between atoms: C_24  and  C_31
   12  A    between atoms: C_27  and  C_31
   13  A    between atoms: C_27  and  C_54
   14  A    between atoms: C_28  and  C_49
   15  A    between atoms: C_33  and  C_49
   16  A    between atoms: C_33  and  C_52
   17  A    between atoms: C_35  and  C_43
   18  A    between atoms: S_36  and  C_52
   19  A    between atoms: C_43  and  C_51
   20  A    between atoms: C_51  and  C_54
                            x       y       z     vdW  Elec       q    Type
                         _______ _______ _______ _____ _____    ______ ____

>  <TORSDO>
F 20

$$$$
=
 OpenBabel10272401293D

 55 58  0  0  1  0  0  0  0  0999 V2000
  188.1230  177.3250  144.2160 C   0  0  0  0  0  0  0  0  0  0  0  0
  185.8660  177.9020  145.1260 C   0  0  0  0  0  1  0  0  0  0  0  0
  186.7750  177.7720  144.0000 N   0  0  0  0  0  0  0  0  0  0  0  0
  188.4670  176.8760  145.3430 O   0  0  0  0  0  0  0  0  0  0  0  0
  189.1380  177.3840  143.1210 C   0  0  0  0  0  2  0  0  0  0  0  0
  190.0860  176.2060  143.2330 C   0  0  0  0  0  2  0  0  0  0  0  0
  191.4900  176.5960  142.7970 C   0  0  0  0  0  2  0  0  0  0  0  0
  191.4300  177.6600  141.7150 C   0  0  0  0  0  2  0  0  0  0  0  0
  191.5240  177.0130  140.3410 C   0  0  0  0  0  2  0  0  0  0  0  0
  190.1790  177.0550  139.6370 C   0  0  0  0  0  2  0  0  0  0  0  0
  190.3530  177.1330  138.1910 N   0  0  0  0  0  0  0  0  0  0  0  0
  187.1820  178.2630  136.8050 O   0  0  0  0  0  0  0  0  0  0  0  0
  189.0800  177.1620  137.5770 N   0  0  0  0  0  2  0  0  0  0  0  0
  188.3440  178.3570  137.2690 C   0  0  0  0  0  0  0  0  0  0  0  0
  188.8980  179.6210  137.4780 O   0  0  0  0  0  1  0  0  0  0  0  0
  191.0630  175.9340  137.7470 C   0  0  0  0  0  2  0  0  0  0  0  0
  191.4710  174.3850  135.1050 N   0  0  0  0  0  0  0  0  0  0  0  0
  193.7540  175.6470  138.2920 F   0  0  0  0  0  0  0  0  0  0  0  0
  192.0910  176.2740  136.6670 C   0  0  1  0  0  3  0  0  0  0  0  0
  193.4840  171.3640  136.2350 C   0  0  0  0  0  2  0  0  0  0  0  0
  194.4200  176.5340  136.3440 F   0  0  0  0  0  0  0  0  0  0  0  0
  193.4940  175.6850  136.9250 C   0  0  0  0  0  0  0  0  0  0  0  0
  190.0920  174.0150  135.3870 C   0  0  0  0  0  1  0  0  0  0  0  0
  194.8260  172.0580  136.4270 C   0  0  0  0  0  2  0  0  0  0  0  0
  194.6180  173.4030  137.1090 C   0  0  0  0  0  2  0  0  0  0  0  0
  192.3330  173.5900  135.9990 C   0  0  2  0  0  3  0  0  0  0  0  0
  193.6750  174.2920  136.2860 C   0  0  1  0  0  3  0  0  0  0  0  0
  192.5820  172.2220  135.3570 C   0  0  0  0  0  2  0  0  0  0  0  0
  191.5720  175.8470  135.2880 C   0  0  0  0  0  2  0  0  0  0  0  0
  186.3020  178.1710  142.6840 C   0  0  0  0  0  2  0  0  0  0  0  0
  184.7830  178.2020  142.6630 C   0  0  0  0  0  2  0  0  0  0  0  0
  184.2620  178.7820  141.3630 C   0  0  0  0  0  2  0  0  0  0  0  0
  183.3160  177.8000  140.6770 C   0  0  0  0  0  2  0  0  0  0  0  0
  180.1380  179.8160  141.4650 C   0  0  0  0  0  3  0  0  0  0  0  0
  180.8040  180.3300  139.1960 C   0  0  1  0  0  3  0  0  0  0  0  0
  181.2220  178.7770  141.6420 C   0  0  0  0  0  2  0  0  0  0  0  0
  182.1550  179.6730  139.5000 C   0  0  0  0  0  2  0  0  0  0  0  0
  180.0040  180.5200  140.3910 N   0  0  0  0  0  0  0  0  0  0  0  0
  181.9520  178.4120  140.3420 C   0  0  1  0  0  0  0  0  0  0  0  0
  180.9280  181.6360  138.4160 C   0  0  1  0  0  3  0  0  0  0  0  0
  182.2670  182.1900  138.5340 N   0  0  0  0  0  1  0  0  0  0  0  0
  180.5760  181.4330  136.9530 C   0  0  0  0  0  1  0  0  0  0  0  0
  180.9480  177.2070  139.3750 S   0  0  0  0  0  0  0  0  0  0  0  0
  183.6340  176.7470  135.6810 C   0  0  0  0  0  3  0  0  0  0  0  0
  182.6230  177.7060  135.7010 C   0  0  0  0  0  3  0  0  0  0  0  0
  183.2260  175.2390  138.9970 F   0  0  0  0  0  0  0  0  0  0  0  0
  182.0370  177.0400  137.9590 C   0  0  0  0  0  0  0  0  0  0  0  0
  181.8260  177.8520  136.8400 C   0  0  0  0  0  3  0  0  0  0  0  0
  183.0460  176.0640  137.9330 C   0  0  0  0  0  0  0  0  0  0  0  0
  183.8570  175.9220  136.7970 C   0  0  0  0  0  0  0  0  0  0  0  0
  184.8770  174.9560  136.8110 O   0  0  0  0  0  0  0  0  0  0  0  0
  185.3330  173.5810  134.9000 C   0  0  0  0  0  1  0  0  0  0  0  0
  183.4210  173.2570  136.2360 F   0  0  0  0  0  0  0  0  0  0  0  0
  185.5190  172.6540  137.1710 C   0  0  0  0  0  1  0  0  0  0  0  0
  184.7520  173.6280  136.2970 C   0  0  0  0  0  0  0  0  0  0  0  0
  1  4  2  0  0  0  0
  3  1  1  0  0  0  0
  3  2  1  0  0  0  0
  5  6  1  0  0  0  0
  5  1  1  0  0  0  0
  7  6  1  0  0  0  0
  8  7  1  0  0  0  0
  9  8  1  0  0  0  0
 10  9  1  0  0  0  0
 11 10  1  0  0  0  0
 12 14  2  0  0  0  0
 13 11  1  0  0  0  0
 14 15  1  0  0  0  0
 14 13  1  0  0  0  0
 16 11  1  0  0  0  0
 17 29  1  0  0  0  0
 17 23  1  0  0  0  0
 17 26  1  0  0  0  0
 19 22  1  0  0  0  0
 19 16  1  1  0  0  0
 20 24  1  0  0  0  0
 21 22  1  0  0  0  0
 22 18  1  0  0  0  0
 24 25  1  0  0  0  0
 26 28  1  6  0  0  0
 26 27  1  0  0  0  0
 27 22  1  0  0  0  0
 27 25  1  1  0  0  0
 28 20  1  0  0  0  0
 29 19  1  0  0  0  0
 30  3  1  0  0  0  0
 31 30  1  0  0  0  0
 32 31  1  0  0  0  0
 33 32  1  0  0  0  0
 34 36  1  0  0  0  0
 35 40  1  1  0  0  0
 35 37  1  0  0  0  0
 35 38  1  0  0  0  0
 37 39  1  0  0  0  0
 38 34  2  0  0  0  0
 39 33  1  1  0  0  0
 39 36  1  0  0  0  0
 40 42  1  6  0  0  0
 40 41  1  0  0  0  0
 43 39  1  0  0  0  0
 44 45  2  0  0  0  0
 44 50  1  0  0  0  0
 45 48  1  0  0  0  0
 47 43  1  0  0  0  0
 48 47  2  0  0  0  0
 49 47  1  0  0  0  0
 49 46  1  0  0  0  0
 50 51  1  0  0  0  0
 50 49  2  0  0  0  0
 52 55  1  0  0  0  0
 53 55  1  0  0  0  0
 55 51  1  0  0  0  0
 55 54  1  0  0  0  0
M  END
>  <MODEL>
2

>  <REMARK>
 VINA RESULT:      -6.6      3.975      9.115
  Name = 
  20 active torsions:
  status: ('A' for Active; 'I' for Inactive)
    1  A    between atoms: C_2  and  C_28
    2  A    between atoms: C_2  and  N_44
    3  A    between atoms: C_6  and  C_46
    4  A    between atoms: N_8  and  N_22
    5  A    between atoms: C_10  and  C_32
    6  A    between atoms: C_17  and  S_36
    7  A    between atoms: O_19  and  C_40
    8  A    between atoms: O_19  and  C_45
    9  A    between atoms: N_22  and  C_35
   10  A    between atoms: N_22  and  C_46
   11  A    between atoms: C_24  and  C_31
   12  A    between atoms: C_27  and  C_31
   13  A    between atoms: C_27  and  C_54
   14  A    between atoms: C_28  and  C_49
   15  A    between atoms: C_33  and  C_49
   16  A    between atoms: C_33  and  C_52
   17  A    between atoms: C_35  and  C_43
   18  A    between atoms: S_36  and  C_52
   19  A    between atoms: C_43  and  C_51
   20  A    between atoms: C_51  and  C_54
                            x       y       z     vdW  Elec       q    Type
                         _______ _______ _______ _____ _____    ______ ____

>  <TORSDO>
F 20

$$$$
=
 OpenBabel10272401293D

 55 58  0  0  1  0  0  0  0  0999 V2000
  181.7200  178.7990  142.1470 C   0  0  0  0  0  0  0  0  0  0  0  0
  183.3200  179.2950  144.0050 C   0  0  0  0  0  1  0  0  0  0  0  0
  183.0480  178.7370  142.6910 N   0  0  0  0  0  0  0  0  0  0  0  0
  180.8330  179.4890  142.7210 O   0  0  0  0  0  0  0  0  0  0  0  0
  181.3620  178.0520  140.9040 C   0  0  0  0  0  2  0  0  0  0  0  0
  181.3140  179.0050  139.7260 C   0  0  0  0  0  2  0  0  0  0  0  0
  181.1050  178.2490  138.4230 C   0  0  0  0  0  2  0  0  0  0  0  0
  181.2970  176.7580  138.6420 C   0  0  0  0  0  2  0  0  0  0  0  0
  180.7670  175.9820  137.4450 C   0  0  0  0  0  2  0  0  0  0  0  0
  181.6060  174.7390  137.1990 C   0  0  0  0  0  2  0  0  0  0  0  0
  181.9510  174.6190  135.7870 N   0  0  0  0  0  0  0  0  0  0  0  0
  180.9240  171.1410  135.4740 O   0  0  0  0  0  0  0  0  0  0  0  0
  181.4280  173.4030  135.2890 N   0  0  0  0  0  2  0  0  0  0  0  0
  181.3200  172.1860  136.0440 C   0  0  0  0  0  0  0  0  0  0  0  0
  181.6480  172.1440  137.4000 O   0  0  0  0  0  1  0  0  0  0  0  0
  183.4080  174.5880  135.6710 C   0  0  0  0  0  2  0  0  0  0  0  0
  185.9240  176.1280  136.5890 N   0  0  0  0  0  0  0  0  0  0  0  0
  184.6280  172.2240  136.4070 F   0  0  0  0  0  0  0  0  0  0  0  0
  184.0670  174.4760  137.0470 C   0  0  1  0  0  3  0  0  0  0  0  0
  188.7310  174.1510  134.9560 C   0  0  0  0  0  2  0  0  0  0  0  0
  185.0600  172.8970  138.5010 F   0  0  0  0  0  0  0  0  0  0  0  0
  185.0580  173.3000  137.1770 C   0  0  0  0  0  0  0  0  0  0  0  0
  185.4670  177.0250  135.5360 C   0  0  0  0  0  1  0  0  0  0  0  0
  188.7180  172.9470  135.8880 C   0  0  0  0  0  2  0  0  0  0  0  0
  187.2800  172.5400  136.1840 C   0  0  0  0  0  2  0  0  0  0  0  0
  186.5630  174.9710  135.9350 C   0  0  2  0  0  3  0  0  0  0  0  0
  186.5030  173.7040  136.8120 C   0  0  1  0  0  3  0  0  0  0  0  0
  188.0190  175.3220  135.6190 C   0  0  0  0  0  2  0  0  0  0  0  0
  184.7480  175.8000  137.4180 C   0  0  0  0  0  2  0  0  0  0  0  0
  184.1310  178.0630  141.9930 C   0  0  0  0  0  2  0  0  0  0  0  0
  184.9000  179.0580  141.1400 C   0  0  0  0  0  2  0  0  0  0  0  0
  186.3710  178.6970  141.0650 C   0  0  0  0  0  2  0  0  0  0  0  0
  186.8320  178.0430  142.3650 C   0  0  0  0  0  2  0  0  0  0  0  0
  189.7750  175.5800  142.5940 C   0  0  0  0  0  3  0  0  0  0  0  0
  190.2910  177.2000  140.8720 C   0  0  1  0  0  3  0  0  0  0  0  0
  188.4920  176.2750  142.9890 C   0  0  0  0  0  2  0  0  0  0  0  0
  188.8190  177.6290  140.9090 C   0  0  0  0  0  2  0  0  0  0  0  0
  190.5270  175.9830  141.6250 N   0  0  0  0  0  0  0  0  0  0  0  0
  188.3160  177.6610  142.3540 C   0  0  1  0  0  0  0  0  0  0  0  0
  190.8480  177.0750  139.4560 C   0  0  1  0  0  3  0  0  0  0  0  0
  190.9410  175.6820  139.0520 N   0  0  0  0  0  1  0  0  0  0  0  0
  189.9970  177.8490  138.4650 C   0  0  0  0  0  1  0  0  0  0  0  0
  189.2890  178.9120  143.2950 S   0  0  0  0  0  0  0  0  0  0  0  0
  188.9250  177.1030  147.4970 C   0  0  0  0  0  3  0  0  0  0  0  0
  187.7810  177.4140  146.7640 C   0  0  0  0  0  3  0  0  0  0  0  0
  191.5530  178.1180  145.1520 F   0  0  0  0  0  0  0  0  0  0  0  0
  189.1700  178.1640  144.9210 C   0  0  0  0  0  0  0  0  0  0  0  0
  187.9050  177.9440  145.4770 C   0  0  0  0  0  3  0  0  0  0  0  0
  190.3220  177.8630  145.6650 C   0  0  0  0  0  0  0  0  0  0  0  0
  190.2030  177.3190  146.9530 C   0  0  0  0  0  0  0  0  0  0  0  0
  191.3730  177.0020  147.6630 O   0  0  0  0  0  0  0  0  0  0  0  0
  192.4120  175.3370  146.2860 C   0  0  0  0  0  1  0  0  0  0  0  0
  191.0980  174.7610  148.1530 F   0  0  0  0  0  0  0  0  0  0  0  0
  193.2210  175.7380  148.5740 C   0  0  0  0  0  1  0  0  0  0  0  0
  191.9890  175.7120  147.6890 C   0  0  0  0  0  0  0  0  0  0  0  0
  1  3  1  0  0  0  0
  1  4  2  0  0  0  0
  3  2  1  0  0  0  0
  5  1  1  0  0  0  0
  6  5  1  0  0  0  0
  7  8  1  0  0  0  0
  7  6  1  0  0  0  0
  9  8  1  0  0  0  0
 10  9  1  0  0  0  0
 11 10  1  0  0  0  0
 12 14  2  0  0  0  0
 13 11  1  0  0  0  0
 13 14  1  0  0  0  0
 14 15  1  0  0  0  0
 16 11  1  0  0  0  0
 17 29  1  0  0  0  0
 18 22  1  0  0  0  0
 19 16  1  6  0  0  0
 19 22  1  0  0  0  0
 19 29  1  0  0  0  0
 20 28  1  0  0  0  0
 20 24  1  0  0  0  0
 22 21  1  0  0  0  0
 23 17  1  0  0  0  0
 24 25  1  0  0  0  0
 26 28  1  1  0  0  0
 26 17  1  0  0  0  0
 26 27  1  0  0  0  0
 27 25  1  6  0  0  0
 27 22  1  0  0  0  0
 30  3  1  0  0  0  0
 31 30  1  0  0  0  0
 32 31  1  0  0  0  0
 32 33  1  0  0  0  0
 34 36  1  0  0  0  0
 35 40  1  6  0  0  0
 35 37  1  0  0  0  0
 35 38  1  0  0  0  0
 37 39  1  0  0  0  0
 38 34  2  0  0  0  0
 39 33  1  1  0  0  0
 39 36  1  0  0  0  0
 39 43  1  0  0  0  0
 40 42  1  6  0  0  0
 41 40  1  0  0  0  0
 43 47  1  0  0  0  0
 45 44  2  0  0  0  0
 46 49  1  0  0  0  0
 47 48  2  0  0  0  0
 47 49  1  0  0  0  0
 48 45  1  0  0  0  0
 49 50  2  0  0  0  0
 50 44  1  0  0  0  0
 50 51  1  0  0  0  0
 51 55  1  0  0  0  0
 52 55  1  0  0  0  0
 55 53  1  0  0  0  0
 55 54  1  0  0  0  0
M  END
>  <MODEL>
3

>  <REMARK>
 VINA RESULT:      -6.5      3.221      7.269
  Name = 
  20 active torsions:
  status: ('A' for Active; 'I' for Inactive)
    1  A    between atoms: C_2  and  C_28
    2  A    between atoms: C_2  and  N_44
    3  A    between atoms: C_6  and  C_46
    4  A    between atoms: N_8  and  N_22
    5  A    between atoms: C_10  and  C_32
    6  A    between atoms: C_17  and  S_36
    7  A    between atoms: O_19  and  C_40
    8  A    between atoms: O_19  and  C_45
    9  A    between atoms: N_22  and  C_35
   10  A    between atoms: N_22  and  C_46
   11  A    between atoms: C_24  and  C_31
   12  A    between atoms: C_27  and  C_31
   13  A    between atoms: C_27  and  C_54
   14  A    between atoms: C_28  and  C_49
   15  A    between atoms: C_33  and  C_49
   16  A    between atoms: C_33  and  C_52
   17  A    between atoms: C_35  and  C_43
   18  A    between atoms: S_36  and  C_52
   19  A    between atoms: C_43  and  C_51
   20  A    between atoms: C_51  and  C_54
                            x       y       z     vdW  Elec       q    Type
                         _______ _______ _______ _____ _____    ______ ____

>  <TORSDO>
F 20

$$$$
=
 OpenBabel10272401293D

 55 58  0  0  1  0  0  0  0  0999 V2000
  189.1310  176.7640  137.3810 C   0  0  0  0  0  0  0  0  0  0  0  0
  189.3500  178.8190  138.7900 C   0  0  0  0  0  1  0  0  0  0  0  0
  189.6670  177.4230  138.5390 N   0  0  0  0  0  0  0  0  0  0  0  0
  188.5370  177.4320  136.4910 O   0  0  0  0  0  0  0  0  0  0  0  0
  189.2610  175.2860  137.2090 C   0  0  0  0  0  2  0  0  0  0  0  0
  189.9160  174.9780  135.8770 C   0  0  0  0  0  2  0  0  0  0  0  0
  188.9000  174.4340  134.8850 C   0  0  0  0  0  2  0  0  0  0  0  0
  187.5470  174.2660  135.5530 C   0  0  0  0  0  2  0  0  0  0  0  0
  186.5560  175.2730  134.9860 C   0  0  0  0  0  2  0  0  0  0  0  0
  185.1770  174.6500  134.8510 C   0  0  0  0  0  2  0  0  0  0  0  0
  184.4300  174.7720  136.0970 N   0  0  0  0  0  0  0  0  0  0  0  0
  183.3700  171.4800  137.2330 O   0  0  0  0  0  0  0  0  0  0  0  0
  183.6850  173.5880  136.3030 N   0  0  0  0  0  2  0  0  0  0  0  0
  184.0610  172.5260  137.1950 C   0  0  0  0  0  0  0  0  0  0  0  0
  185.1810  172.6380  138.0210 O   0  0  0  0  0  1  0  0  0  0  0  0
  183.5030  175.8960  135.9690 C   0  0  0  0  0  2  0  0  0  0  0  0
  180.9870  177.6880  135.9180 N   0  0  0  0  0  0  0  0  0  0  0  0
  183.4620  175.9760  138.7290 F   0  0  0  0  0  0  0  0  0  0  0  0
  182.1950  175.6150  136.7120 C   0  0  1  0  0  3  0  0  0  0  0  0
  181.9110  180.4600  138.3510 C   0  0  0  0  0  2  0  0  0  0  0  0
  181.3430  175.2640  138.8910 F   0  0  0  0  0  0  0  0  0  0  0  0
  182.1890  176.0960  138.1790 C   0  0  0  0  0  0  0  0  0  0  0  0
  181.5990  178.1020  134.6630 C   0  0  0  0  0  1  0  0  0  0  0  0
  181.7380  179.6780  139.6450 C   0  0  0  0  0  2  0  0  0  0  0  0
  182.3250  178.2810  139.4870 C   0  0  0  0  0  2  0  0  0  0  0  0
  181.7360  178.3370  137.0100 C   0  0  2  0  0  3  0  0  0  0  0  0
  181.6540  177.5370  138.3250 C   0  0  1  0  0  3  0  0  0  0  0  0
  181.1810  179.7490  137.2190 C   0  0  0  0  0  2  0  0  0  0  0  0
  181.0090  176.2120  135.9440 C   0  0  0  0  0  2  0  0  0  0  0  0
  190.4710  176.7140  139.5210 C   0  0  0  0  0  2  0  0  0  0  0  0
  191.3700  177.6900  140.2620 C   0  0  0  0  0  2  0  0  0  0  0  0
  191.6450  177.2200  141.6770 C   0  0  0  0  0  2  0  0  0  0  0  0
  190.8970  178.0880  142.6860 C   0  0  0  0  0  2  0  0  0  0  0  0
  191.3920  176.3620  146.0860 C   0  0  0  0  0  3  0  0  0  0  0  0
  189.2610  177.5080  146.1350 C   0  0  1  0  0  3  0  0  0  0  0  0
  191.6440  176.7050  144.6350 C   0  0  0  0  0  2  0  0  0  0  0  0
  189.6960  178.2580  144.8690 C   0  0  0  0  0  2  0  0  0  0  0  0
  190.3540  176.7690  146.7380 N   0  0  0  0  0  0  0  0  0  0  0  0
  190.4280  177.3080  143.9190 C   0  0  1  0  0  0  0  0  0  0  0  0
  188.5830  178.4070  147.1660 C   0  0  1  0  0  3  0  0  0  0  0  0
  187.2290  178.7400  146.7590 N   0  0  0  0  0  1  0  0  0  0  0  0
  188.5680  177.7490  148.5350 C   0  0  0  0  0  1  0  0  0  0  0  0
  189.2700  175.9690  143.4080 S   0  0  0  0  0  0  0  0  0  0  0  0
  185.7750  178.7010  142.2280 C   0  0  0  0  0  3  0  0  0  0  0  0
  186.9310  178.6620  141.4500 C   0  0  0  0  0  3  0  0  0  0  0  0
  186.6270  176.2960  144.8600 F   0  0  0  0  0  0  0  0  0  0  0  0
  187.8750  176.9970  142.9410 C   0  0  0  0  0  0  0  0  0  0  0  0
  187.9800  177.8090  141.8070 C   0  0  0  0  0  3  0  0  0  0  0  0
  186.7160  177.0470  143.7320 C   0  0  0  0  0  0  0  0  0  0  0  0
  185.6560  177.8910  143.3710 C   0  0  0  0  0  0  0  0  0  0  0  0
  184.4980  177.8990  144.1650 O   0  0  0  0  0  0  0  0  0  0  0  0
  184.5540  180.2960  144.2110 C   0  0  0  0  0  1  0  0  0  0  0  0
  183.3230  179.0520  145.7860 F   0  0  0  0  0  0  0  0  0  0  0  0
  182.4980  179.1140  143.5600 C   0  0  0  0  0  1  0  0  0  0  0  0
  183.7170  179.0600  144.4610 C   0  0  0  0  0  0  0  0  0  0  0  0
  1  3  1  0  0  0  0
  3  2  1  0  0  0  0
  3 30  1  0  0  0  0
  4  1  2  0  0  0  0
  5  1  1  0  0  0  0
  6  5  1  0  0  0  0
  7  8  1  0  0  0  0
  7  6  1  0  0  0  0
  9  8  1  0  0  0  0
 10  9  1  0  0  0  0
 10 11  1  0  0  0  0
 11 13  1  0  0  0  0
 13 14  1  0  0  0  0
 14 12  2  0  0  0  0
 14 15  1  0  0  0  0
 16 11  1  0  0  0  0
 17 29  1  0  0  0  0
 17 26  1  0  0  0  0
 19 16  1  6  0  0  0
 19 22  1  0  0  0  0
 20 24  1  0  0  0  0
 22 27  1  0  0  0  0
 22 18  1  0  0  0  0
 22 21  1  0  0  0  0
 23 17  1  0  0  0  0
 25 24  1  0  0  0  0
 26 28  1  1  0  0  0
 26 27  1  0  0  0  0
 27 25  1  1  0  0  0
 28 20  1  0  0  0  0
 29 19  1  0  0  0  0
 30 31  1  0  0  0  0
 31 32  1  0  0  0  0
 32 33  1  0  0  0  0
 34 38  2  0  0  0  0
 35 38  1  0  0  0  0
 35 40  1  1  0  0  0
 36 34  1  0  0  0  0
 37 35  1  0  0  0  0
 39 33  1  6  0  0  0
 39 36  1  0  0  0  0
 39 37  1  0  0  0  0
 40 42  1  1  0  0  0
 41 40  1  0  0  0  0
 43 39  1  0  0  0  0
 44 50  1  0  0  0  0
 45 48  1  0  0  0  0
 45 44  2  0  0  0  0
 47 43  1  0  0  0  0
 47 49  1  0  0  0  0
 48 47  2  0  0  0  0
 49 46  1  0  0  0  0
 50 49  2  0  0  0  0
 50 51  1  0  0  0  0
 51 55  1  0  0  0  0
 52 55  1  0  0  0  0
 54 55  1  0  0  0  0
 55 53  1  0  0  0  0
M  END
>  <MODEL>
4

>  <REMARK>
 VINA RESULT:      -6.4      2.448      3.513
  Name = 
  20 active torsions:
  status: ('A' for Active; 'I' for Inactive)
    1  A    between atoms: C_2  and  C_28
    2  A    between atoms: C_2  and  N_44
    3  A    between atoms: C_6  and  C_46
    4  A    between atoms: N_8  and  N_22
    5  A    between atoms: C_10  and  C_32
    6  A    between atoms: C_17  and  S_36
    7  A    between atoms: O_19  and  C_40
    8  A    between atoms: O_19  and  C_45
    9  A    between atoms: N_22  and  C_35
   10  A    between atoms: N_22  and  C_46
   11  A    between atoms: C_24  and  C_31
   12  A    between atoms: C_27  and  C_31
   13  A    between atoms: C_27  and  C_54
   14  A    between atoms: C_28  and  C_49
   15  A    between atoms: C_33  and  C_49
   16  A    between atoms: C_33  and  C_52
   17  A    between atoms: C_35  and  C_43
   18  A    between atoms: S_36  and  C_52
   19  A    between atoms: C_43  and  C_51
   20  A    between atoms: C_51  and  C_54
                            x       y       z     vdW  Elec       q    Type
                         _______ _______ _______ _____ _____    ______ ____

>  <TORSDO>
F 20

$$$$
=
 OpenBabel10272401293D

 55 58  0  0  1  0  0  0  0  0999 V2000
  192.0030  175.5010  137.8640 C   0  0  0  0  0  0  0  0  0  0  0  0
  193.2010  177.1200  139.3480 C   0  0  0  0  0  1  0  0  0  0  0  0
  191.9640  176.5280  138.8670 N   0  0  0  0  0  0  0  0  0  0  0  0
  193.1040  174.9860  137.5300 O   0  0  0  0  0  0  0  0  0  0  0  0
  190.7520  175.0270  137.2000 C   0  0  0  0  0  2  0  0  0  0  0  0
  191.0170  173.7250  136.4690 C   0  0  0  0  0  2  0  0  0  0  0  0
  190.9810  173.9310  134.9630 C   0  0  0  0  0  2  0  0  0  0  0  0
  189.8570  173.1160  134.3460 C   0  0  0  0  0  2  0  0  0  0  0  0
  188.5090  173.6910  134.7560 C   0  0  0  0  0  2  0  0  0  0  0  0
  188.4440  175.1760  134.4450 C   0  0  0  0  0  2  0  0  0  0  0  0
  187.1240  175.7130  134.7550 N   0  0  0  0  0  0  0  0  0  0  0  0
  188.3060  178.2630  137.0680 O   0  0  0  0  0  1  0  0  0  0  0  0
  187.2330  176.5930  135.8560 N   0  0  0  0  0  2  0  0  0  0  0  0
  188.2510  177.5970  136.0070 C   0  0  0  0  0  0  0  0  0  0  0  0
  189.1790  177.8430  134.9940 O   0  0  0  0  0  0  0  0  0  0  0  0
  186.2500  174.6010  135.1260 C   0  0  0  0  0  2  0  0  0  0  0  0
  185.1640  172.3390  136.9290 N   0  0  0  0  0  0  0  0  0  0  0  0
  183.9060  176.0010  135.5290 F   0  0  0  0  0  0  0  0  0  0  0  0
  185.7120  174.7760  136.5470 C   0  0  1  0  0  3  0  0  0  0  0  0
  181.6640  171.8030  135.5440 C   0  0  0  0  0  2  0  0  0  0  0  0
  184.0430  175.9290  137.7650 F   0  0  0  0  0  0  0  0  0  0  0  0
  184.2250  175.1870  136.6110 C   0  0  0  0  0  0  0  0  0  0  0  0
  186.0160  171.5520  136.0470 C   0  0  0  0  0  1  0  0  0  0  0  0
  181.0060  173.0440  136.1320 C   0  0  0  0  0  2  0  0  0  0  0  0
  181.9410  174.2380  135.9910 C   0  0  0  0  0  2  0  0  0  0  0  0
  183.9390  172.6720  136.1770 C   0  0  2  0  0  3  0  0  0  0  0  0
  183.2810  173.9680  136.6880 C   0  0  1  0  0  3  0  0  0  0  0  0
  182.9570  171.5030  136.2910 C   0  0  0  0  0  2  0  0  0  0  0  0
  185.9570  173.5040  137.3690 C   0  0  0  0  0  2  0  0  0  0  0  0
  190.7070  177.0550  139.3760 C   0  0  0  0  0  2  0  0  0  0  0  0
  190.9630  177.9330  140.5890 C   0  0  0  0  0  2  0  0  0  0  0  0
  190.6930  177.1820  141.8790 C   0  0  0  0  0  2  0  0  0  0  0  0
  190.0530  178.1040  142.9130 C   0  0  0  0  0  2  0  0  0  0  0  0
  190.5630  176.2350  146.2340 C   0  0  0  0  0  3  0  0  0  0  0  0
  188.6220  177.6600  146.4720 C   0  0  1  0  0  3  0  0  0  0  0  0
  190.7480  176.5790  144.7740 C   0  0  0  0  0  2  0  0  0  0  0  0
  189.0580  178.3770  145.1880 C   0  0  0  0  0  2  0  0  0  0  0  0
  189.6450  176.7610  146.9730 N   0  0  0  0  0  0  0  0  0  0  0  0
  189.5760  177.3630  144.1670 C   0  0  1  0  0  0  0  0  0  0  0  0
  188.1570  178.6140  147.5690 C   0  0  1  0  0  3  0  0  0  0  0  0
  186.7130  178.7790  147.5400 N   0  0  0  0  0  1  0  0  0  0  0  0
  188.5980  178.1270  148.9370 C   0  0  0  0  0  1  0  0  0  0  0  0
  188.2080  176.2090  143.7280 S   0  0  0  0  0  0  0  0  0  0  0  0
  184.7970  179.2290  143.1660 C   0  0  0  0  0  3  0  0  0  0  0  0
  185.0220  178.6460  144.4120 C   0  0  0  0  0  3  0  0  0  0  0  0
  187.4440  177.6600  141.1740 F   0  0  0  0  0  0  0  0  0  0  0  0
  186.9080  177.4250  143.4970 C   0  0  0  0  0  0  0  0  0  0  0  0
  186.0780  177.7440  144.5760 C   0  0  0  0  0  3  0  0  0  0  0  0
  186.6720  178.0020  142.2380 C   0  0  0  0  0  0  0  0  0  0  0  0
  185.6220  178.9160  142.0720 C   0  0  0  0  0  0  0  0  0  0  0  0
  185.4280  179.4990  140.8090 O   0  0  0  0  0  0  0  0  0  0  0  0
  183.6540  177.9530  140.3460 C   0  0  0  0  0  1  0  0  0  0  0  0
  185.4680  178.2410  138.8720 F   0  0  0  0  0  0  0  0  0  0  0  0
  183.8880  180.0080  139.0160 C   0  0  0  0  0  1  0  0  0  0  0  0
  184.6510  178.9250  139.7540 C   0  0  0  0  0  0  0  0  0  0  0  0
  1  3  1  0  0  0  0
  3  2  1  0  0  0  0
  3 30  1  0  0  0  0
  4  1  2  0  0  0  0
  5  1  1  0  0  0  0
  6  5  1  0  0  0  0
  7  6  1  0  0  0  0
  8  9  1  0  0  0  0
  8  7  1  0  0  0  0
 10 11  1  0  0  0  0
 10  9  1  0  0  0  0
 11 16  1  0  0  0  0
 11 13  1  0  0  0  0
 13 14  1  0  0  0  0
 14 12  1  0  0  0  0
 15 14  2  0  0  0  0
 17 29  1  0  0  0  0
 18 22  1  0  0  0  0
 19 16  1  6  0  0  0
 19 22  1  0  0  0  0
 19 29  1  0  0  0  0
 20 24  1  0  0  0  0
 20 28  1  0  0  0  0
 22 27  1  0  0  0  0
 22 21  1  0  0  0  0
 23 17  1  0  0  0  0
 25 24  1  0  0  0  0
 26 28  1  1  0  0  0
 26 27  1  0  0  0  0
 26 17  1  0  0  0  0
 27 25  1  6  0  0  0
 30 31  1  0  0  0  0
 31 32  1  0  0  0  0
 32 33  1  0  0  0  0
 34 38  2  0  0  0  0
 35 38  1  0  0  0  0
 35 40  1  1  0  0  0
 36 34  1  0  0  0  0
 37 35  1  0  0  0  0
 39 33  1  6  0  0  0
 39 36  1  0  0  0  0
 39 37  1  0  0  0  0
 40 42  1  1  0  0  0
 41 40  1  0  0  0  0
 43 39  1  0  0  0  0
 44 45  1  0  0  0  0
 45 48  2  0  0  0  0
 46 49  1  0  0  0  0
 47 43  1  0  0  0  0
 47 48  1  0  0  0  0
 49 47  2  0  0  0  0
 50 49  1  0  0  0  0
 50 44  2  0  0  0  0
 51 50  1  0  0  0  0
 53 55  1  0  0  0  0
 54 55  1  0  0  0  0
 55 52  1  0  0  0  0
 55 51  1  0  0  0  0
M  END
>  <MODEL>
5

>  <REMARK>
 VINA RESULT:      -6.1      1.468      2.032
  Name = 
  20 active torsions:
  status: ('A' for Active; 'I' for Inactive)
    1  A    between atoms: C_2  and  C_28
    2  A    between atoms: C_2  and  N_44
    3  A    between atoms: C_6  and  C_46
    4  A    between atoms: N_8  and  N_22
    5  A    between atoms: C_10  and  C_32
    6  A    between atoms: C_17  and  S_36
    7  A    between atoms: O_19  and  C_40
    8  A    between atoms: O_19  and  C_45
    9  A    between atoms: N_22  and  C_35
   10  A    between atoms: N_22  and  C_46
   11  A    between atoms: C_24  and  C_31
   12  A    between atoms: C_27  and  C_31
   13  A    between atoms: C_27  and  C_54
   14  A    between atoms: C_28  and  C_49
   15  A    between atoms: C_33  and  C_49
   16  A    between atoms: C_33  and  C_52
   17  A    between atoms: C_35  and  C_43
   18  A    between atoms: S_36  and  C_52
   19  A    between atoms: C_43  and  C_51
   20  A    between atoms: C_51  and  C_54
                            x       y       z     vdW  Elec       q    Type
                         _______ _______ _______ _____ _____    ______ ____

>  <TORSDO>
F 20

$$$$
=
 OpenBabel10272401293D

 55 58  0  0  1  0  0  0  0  0999 V2000
  189.7490  177.5990  144.2020 C   0  0  0  0  0  0  0  0  0  0  0  0
  191.8190  178.6070  143.2250 C   0  0  0  0  0  1  0  0  0  0  0  0
  190.6790  177.7120  143.1140 N   0  0  0  0  0  0  0  0  0  0  0  0
  189.8130  178.3980  145.1750 O   0  0  0  0  0  0  0  0  0  0  0  0
  188.6950  176.5390  144.2050 C   0  0  0  0  0  2  0  0  0  0  0  0
  187.8060  176.6920  142.9880 C   0  0  0  0  0  2  0  0  0  0  0  0
  186.9150  177.9170  143.1160 C   0  0  0  0  0  2  0  0  0  0  0  0
  186.7350  178.5830  141.7630 C   0  0  0  0  0  2  0  0  0  0  0  0
  185.3580  179.2250  141.6750 C   0  0  0  0  0  2  0  0  0  0  0  0
  184.6470  178.7970  140.4030 C   0  0  0  0  0  2  0  0  0  0  0  0
  183.2040  178.7540  140.6050 N   0  0  0  0  0  0  0  0  0  0  0  0
  181.5940  178.7970  143.8690 O   0  0  0  0  0  1  0  0  0  0  0  0
  182.9380  178.5860  141.9830 N   0  0  0  0  0  2  0  0  0  0  0  0
  181.6900  178.9010  142.6230 C   0  0  0  0  0  0  0  0  0  0  0  0
  180.5840  179.3190  141.8830 O   0  0  0  0  0  0  0  0  0  0  0  0
  182.6710  177.6010  139.8790 C   0  0  0  0  0  2  0  0  0  0  0  0
  180.4080  175.8950  138.6500 N   0  0  0  0  0  0  0  0  0  0  0  0
  183.6820  178.0250  137.3450 F   0  0  0  0  0  0  0  0  0  0  0  0
  181.7310  178.0460  138.7570 C   0  0  1  0  0  3  0  0  0  0  0  0
  182.3100  173.5880  136.3010 C   0  0  0  0  0  2  0  0  0  0  0  0
  181.7520  178.8090  136.5180 F   0  0  0  0  0  0  0  0  0  0  0  0
  182.3030  177.8400  137.3380 C   0  0  0  0  0  0  0  0  0  0  0  0
  180.5180  175.2440  139.9480 C   0  0  0  0  0  1  0  0  0  0  0  0
  182.6040  174.5970  135.1990 C   0  0  0  0  0  2  0  0  0  0  0  0
  183.0230  175.9260  135.8150 C   0  0  0  0  0  2  0  0  0  0  0  0
  181.5440  175.4360  137.8290 C   0  0  2  0  0  3  0  0  0  0  0  0
  181.9290  176.4640  136.7460 C   0  0  1  0  0  3  0  0  0  0  0  0
  181.1740  174.1000  137.1770 C   0  0  0  0  0  2  0  0  0  0  0  0
  180.3710  177.3500  138.8980 C   0  0  0  0  0  2  0  0  0  0  0  0
  190.5580  176.8990  141.9140 C   0  0  0  0  0  2  0  0  0  0  0  0
  191.6190  177.3020  140.9030 C   0  0  0  0  0  2  0  0  0  0  0  0
  191.0550  177.3280  139.4950 C   0  0  0  0  0  2  0  0  0  0  0  0
  190.8000  175.9090  138.9920 C   0  0  0  0  0  2  0  0  0  0  0  0
  188.3730  174.4080  136.4160 C   0  0  0  0  0  3  0  0  0  0  0  0
  188.1270  176.8140  136.3570 C   0  0  1  0  0  3  0  0  0  0  0  0
  189.5110  174.4590  137.4080 C   0  0  0  0  0  2  0  0  0  0  0  0
  188.9080  176.8730  137.6750 C   0  0  0  0  0  2  0  0  0  0  0  0
  187.7480  175.4600  136.0030 N   0  0  0  0  0  0  0  0  0  0  0  0
  190.0640  175.8710  137.6480 C   0  0  1  0  0  0  0  0  0  0  0  0
  186.9120  177.7390  136.3330 C   0  0  1  0  0  3  0  0  0  0  0  0
  187.0320  178.7860  137.3340 N   0  0  0  0  0  1  0  0  0  0  0  0
  186.7210  178.3520  134.9580 C   0  0  0  0  0  1  0  0  0  0  0  0
  191.2210  176.3330  136.2900 S   0  0  0  0  0  0  0  0  0  0  0  0
  194.1770  172.8740  136.8950 C   0  0  0  0  0  3  0  0  0  0  0  0
  192.9810  172.6660  136.2100 C   0  0  0  0  0  3  0  0  0  0  0  0
  193.8950  176.4350  137.7200 F   0  0  0  0  0  0  0  0  0  0  0  0
  192.4100  175.0060  136.4990 C   0  0  0  0  0  0  0  0  0  0  0  0
  192.0990  173.7320  136.0120 C   0  0  0  0  0  3  0  0  0  0  0  0
  193.6080  175.2120  137.2020 C   0  0  0  0  0  0  0  0  0  0  0  0
  194.5020  174.1480  137.3920 C   0  0  0  0  0  0  0  0  0  0  0  0
  195.7060  174.3910  138.0740 O   0  0  0  0  0  0  0  0  0  0  0  0
  197.0780  175.2710  136.3140 C   0  0  0  0  0  1  0  0  0  0  0  0
  197.2590  173.0350  137.0310 F   0  0  0  0  0  0  0  0  0  0  0  0
  198.0630  174.7190  138.4990 C   0  0  0  0  0  1  0  0  0  0  0  0
  197.0080  174.3160  137.4870 C   0  0  0  0  0  0  0  0  0  0  0  0
  1  5  1  0  0  0  0
  1  4  2  0  0  0  0
  3  2  1  0  0  0  0
  3  1  1  0  0  0  0
  6  7  1  0  0  0  0
  6  5  1  0  0  0  0
  8  7  1  0  0  0  0
  9  8  1  0  0  0  0
 10 11  1  0  0  0  0
 10  9  1  0  0  0  0
 11 13  1  0  0  0  0
 13 14  1  0  0  0  0
 14 12  1  0  0  0  0
 15 14  2  0  0  0  0
 16 11  1  0  0  0  0
 17 29  1  0  0  0  0
 17 23  1  0  0  0  0
 19 29  1  0  0  0  0
 19 16  1  1  0  0  0
 20 28  1  0  0  0  0
 21 22  1  0  0  0  0
 22 18  1  0  0  0  0
 22 19  1  0  0  0  0
 24 25  1  0  0  0  0
 24 20  1  0  0  0  0
 26 28  1  6  0  0  0
 26 17  1  0  0  0  0
 27 25  1  1  0  0  0
 27 22  1  0  0  0  0
 27 26  1  0  0  0  0
 30  3  1  0  0  0  0
 31 30  1  0  0  0  0
 32 31  1  0  0  0  0
 33 32  1  0  0  0  0
 34 36  1  0  0  0  0
 35 40  1  1  0  0  0
 35 37  1  0  0  0  0
 36 39  1  0  0  0  0
 38 35  1  0  0  0  0
 38 34  2  0  0  0  0
 39 37  1  0  0  0  0
 39 33  1  1  0  0  0
 40 42  1  6  0  0  0
 40 41  1  0  0  0  0
 43 47  1  0  0  0  0
 43 39  1  0  0  0  0
 44 50  1  0  0  0  0
 45 44  2  0  0  0  0
 47 49  1  0  0  0  0
 48 45  1  0  0  0  0
 48 47  2  0  0  0  0
 49 50  2  0  0  0  0
 49 46  1  0  0  0  0
 50 51  1  0  0  0  0
 52 55  1  0  0  0  0
 53 55  1  0  0  0  0
 55 51  1  0  0  0  0
 55 54  1  0  0  0  0
M  END
>  <MODEL>
6

>  <REMARK>
 VINA RESULT:      -6.0      3.766      8.558
  Name = 
  20 active torsions:
  status: ('A' for Active; 'I' for Inactive)
    1  A    between atoms: C_2  and  C_28
    2  A    between atoms: C_2  and  N_44
    3  A    between atoms: C_6  and  C_46
    4  A    between atoms: N_8  and  N_22
    5  A    between atoms: C_10  and  C_32
    6  A    between atoms: C_17  and  S_36
    7  A    between atoms: O_19  and  C_40
    8  A    between atoms: O_19  and  C_45
    9  A    between atoms: N_22  and  C_35
   10  A    between atoms: N_22  and  C_46
   11  A    between atoms: C_24  and  C_31
   12  A    between atoms: C_27  and  C_31
   13  A    between atoms: C_27  and  C_54
   14  A    between atoms: C_28  and  C_49
   15  A    between atoms: C_33  and  C_49
   16  A    between atoms: C_33  and  C_52
   17  A    between atoms: C_35  and  C_43
   18  A    between atoms: S_36  and  C_52
   19  A    between atoms: C_43  and  C_51
   20  A    between atoms: C_51  and  C_54
                            x       y       z     vdW  Elec       q    Type
                         _______ _______ _______ _____ _____    ______ ____

>  <TORSDO>
F 20

$$$$
=
 OpenBabel10272401293D

 55 58  0  0  1  0  0  0  0  0999 V2000
  181.6720  179.1640  140.9860 C   0  0  0  0  0  0  0  0  0  0  0  0
  180.1950  179.4710  138.9910 C   0  0  0  0  0  1  0  0  0  0  0  0
  181.2570  178.7520  139.6750 N   0  0  0  0  0  0  0  0  0  0  0  0
  181.0040  180.0280  141.6180 O   0  0  0  0  0  0  0  0  0  0  0  0
  182.8930  178.5870  141.6240 C   0  0  0  0  0  2  0  0  0  0  0  0
  184.1350  179.1360  140.9500 C   0  0  0  0  0  2  0  0  0  0  0  0
  185.2220  178.0750  140.8660 C   0  0  0  0  0  2  0  0  0  0  0  0
  186.2500  178.4550  139.8150 C   0  0  0  0  0  2  0  0  0  0  0  0
  187.5580  178.8520  140.4830 C   0  0  0  0  0  2  0  0  0  0  0  0
  188.6040  177.7650  140.3000 C   0  0  0  0  0  2  0  0  0  0  0  0
  189.8600  178.1410  140.9380 N   0  0  0  0  0  0  0  0  0  0  0  0
  192.0050  176.0500  138.8690 O   0  0  0  0  0  1  0  0  0  0  0  0
  190.8770  177.2600  140.5040 N   0  0  0  0  0  2  0  0  0  0  0  0
  191.1340  176.9140  139.1330 C   0  0  0  0  0  0  0  0  0  0  0  0
  190.4320  177.5200  138.0900 O   0  0  0  0  0  0  0  0  0  0  0  0
  189.7020  178.0030  142.3850 C   0  0  0  0  0  2  0  0  0  0  0  0
  188.0300  176.6310  144.5910 N   0  0  0  0  0  0  0  0  0  0  0  0
  192.0050  177.1410  143.6400 F   0  0  0  0  0  0  0  0  0  0  0  0
  189.8240  176.5400  142.8130 C   0  0  1  0  0  3  0  0  0  0  0  0
  189.7410  177.8250  147.7700 C   0  0  0  0  0  2  0  0  0  0  0  0
  191.3900  174.9860  143.6670 F   0  0  0  0  0  0  0  0  0  0  0  0
  190.9330  176.2790  143.8540 C   0  0  0  0  0  0  0  0  0  0  0  0
  187.1250  177.7190  144.2490 C   0  0  0  0  0  1  0  0  0  0  0  0
  190.9800  176.9440  147.6930 C   0  0  0  0  0  2  0  0  0  0  0  0
  191.4970  176.9060  146.2610 C   0  0  0  0  0  2  0  0  0  0  0  0
  189.1140  177.2020  145.4140 C   0  0  2  0  0  3  0  0  0  0  0  0
  190.4160  176.3840  145.3050 C   0  0  1  0  0  3  0  0  0  0  0  0
  188.6490  177.2580  146.8720 C   0  0  0  0  0  2  0  0  0  0  0  0
  188.4730  176.0210  143.3210 C   0  0  0  0  0  2  0  0  0  0  0  0
  181.9190  177.6670  138.9670 C   0  0  0  0  0  2  0  0  0  0  0  0
  181.0620  176.4130  139.0170 C   0  0  0  0  0  2  0  0  0  0  0  0
  181.8090  175.2130  138.4680 C   0  0  0  0  0  2  0  0  0  0  0  0
  182.1920  175.4410  137.0080 C   0  0  0  0  0  2  0  0  0  0  0  0
  184.7020  172.5330  137.1580 C   0  0  0  0  0  3  0  0  0  0  0  0
  182.8980  171.8840  135.6820 C   0  0  1  0  0  3  0  0  0  0  0  0
  184.1570  173.9280  137.3580 C   0  0  0  0  0  2  0  0  0  0  0  0
  182.0930  173.0680  136.2320 C   0  0  0  0  0  2  0  0  0  0  0  0
  184.1030  171.6340  136.4500 N   0  0  0  0  0  0  0  0  0  0  0  0
  183.0030  174.2860  136.4110 C   0  0  1  0  0  0  0  0  0  0  0  0
  182.0730  170.6070  135.5410 C   0  0  1  0  0  3  0  0  0  0  0  0
  180.8350  170.8610  134.8220 N   0  0  0  0  0  1  0  0  0  0  0  0
  182.8680  169.5200  134.8410 C   0  0  0  0  0  1  0  0  0  0  0  0
  183.6700  174.7770  134.7650 S   0  0  0  0  0  0  0  0  0  0  0  0
  187.5750  176.7880  136.0990 C   0  0  0  0  0  3  0  0  0  0  0  0
  186.3550  177.4430  136.2620 C   0  0  0  0  0  3  0  0  0  0  0  0
  186.4780  173.6460  134.5630 F   0  0  0  0  0  0  0  0  0  0  0  0
  185.2030  175.5270  135.3200 C   0  0  0  0  0  0  0  0  0  0  0  0
  185.1700  176.8110  135.8720 C   0  0  0  0  0  3  0  0  0  0  0  0
  186.4330  174.8730  135.1430 C   0  0  0  0  0  0  0  0  0  0  0  0
  187.6240  175.4980  135.5440 C   0  0  0  0  0  0  0  0  0  0  0  0
  188.8370  174.8090  135.3810 O   0  0  0  0  0  0  0  0  0  0  0  0
  189.2500  172.4470  135.4460 C   0  0  0  0  0  1  0  0  0  0  0  0
  188.4780  173.6260  137.3330 F   0  0  0  0  0  0  0  0  0  0  0  0
  190.7240  174.0000  136.6560 C   0  0  0  0  0  1  0  0  0  0  0  0
  189.2930  173.7460  136.2220 C   0  0  0  0  0  0  0  0  0  0  0  0
  1  4  2  0  0  0  0
  1  5  1  0  0  0  0
  2  3  1  0  0  0  0
  3  1  1  0  0  0  0
  6  5  1  0  0  0  0
  7  6  1  0  0  0  0
  8  9  1  0  0  0  0
  8  7  1  0  0  0  0
 10  9  1  0  0  0  0
 10 11  1  0  0  0  0
 11 16  1  0  0  0  0
 12 14  1  0  0  0  0
 13 11  1  0  0  0  0
 14 13  1  0  0  0  0
 15 14  2  0  0  0  0
 17 26  1  0  0  0  0
 18 22  1  0  0  0  0
 19 16  1  1  0  0  0
 19 29  1  0  0  0  0
 19 22  1  0  0  0  0
 21 22  1  0  0  0  0
 22 27  1  0  0  0  0
 23 17  1  0  0  0  0
 24 20  1  0  0  0  0
 25 24  1  0  0  0  0
 26 28  1  1  0  0  0
 27 26  1  0  0  0  0
 27 25  1  1  0  0  0
 28 20  1  0  0  0  0
 29 17  1  0  0  0  0
 30 31  1  0  0  0  0
 30  3  1  0  0  0  0
 32 31  1  0  0  0  0
 33 32  1  0  0  0  0
 34 36  1  0  0  0  0
 35 40  1  1  0  0  0
 35 37  1  0  0  0  0
 35 38  1  0  0  0  0
 37 39  1  0  0  0  0
 38 34  2  0  0  0  0
 39 33  1  1  0  0  0
 39 36  1  0  0  0  0
 40 42  1  6  0  0  0
 41 40  1  0  0  0  0
 43 47  1  0  0  0  0
 43 39  1  0  0  0  0
 44 45  1  0  0  0  0
 46 49  1  0  0  0  0
 47 48  1  0  0  0  0
 48 45  2  0  0  0  0
 49 47  2  0  0  0  0
 49 50  1  0  0  0  0
 50 44  2  0  0  0  0
 51 50  1  0  0  0  0
 51 55  1  0  0  0  0
 52 55  1  0  0  0  0
 55 54  1  0  0  0  0
 55 53  1  0  0  0  0
M  END
>  <MODEL>
7

>  <REMARK>
 VINA RESULT:      -5.8      2.986     10.724
  Name = 
  20 active torsions:
  status: ('A' for Active; 'I' for Inactive)
    1  A    between atoms: C_2  and  C_28
    2  A    between atoms: C_2  and  N_44
    3  A    between atoms: C_6  and  C_46
    4  A    between atoms: N_8  and  N_22
    5  A    between atoms: C_10  and  C_32
    6  A    between atoms: C_17  and  S_36
    7  A    between atoms: O_19  and  C_40
    8  A    between atoms: O_19  and  C_45
    9  A    between atoms: N_22  and  C_35
   10  A    between atoms: N_22  and  C_46
   11  A    between atoms: C_24  and  C_31
   12  A    between atoms: C_27  and  C_31
   13  A    between atoms: C_27  and  C_54
   14  A    between atoms: C_28  and  C_49
   15  A    between atoms: C_33  and  C_49
   16  A    between atoms: C_33  and  C_52
   17  A    between atoms: C_35  and  C_43
   18  A    between atoms: S_36  and  C_52
   19  A    between atoms: C_43  and  C_51
   20  A    between atoms: C_51  and  C_54
                            x       y       z     vdW  Elec       q    Type
                         _______ _______ _______ _____ _____    ______ ____

>  <TORSDO>
F 20

$$$$
=
 OpenBabel10272401293D

 55 58  0  0  1  0  0  0  0  0999 V2000
  181.5350  178.9210  140.6400 C   0  0  0  0  0  0  0  0  0  0  0  0
  180.0290  179.6310  138.7740 C   0  0  0  0  0  1  0  0  0  0  0  0
  181.1460  178.8390  139.2600 N   0  0  0  0  0  0  0  0  0  0  0  0
  180.8070  179.5340  141.4670 O   0  0  0  0  0  0  0  0  0  0  0  0
  182.8010  178.2900  141.1210 C   0  0  0  0  0  2  0  0  0  0  0  0
  183.9700  179.2220  140.8690 C   0  0  0  0  0  2  0  0  0  0  0  0
  185.2270  178.4380  140.5290 C   0  0  0  0  0  2  0  0  0  0  0  0
  186.4490  179.1170  141.1220 C   0  0  0  0  0  2  0  0  0  0  0  0
  187.0160  178.2760  142.2570 C   0  0  0  0  0  2  0  0  0  0  0  0
  186.1240  178.3620  143.4840 C   0  0  0  0  0  2  0  0  0  0  0  0
  186.4350  177.2940  144.4270 N   0  0  0  0  0  0  0  0  0  0  0  0
  185.1330  179.1560  147.2710 O   0  0  0  0  0  1  0  0  0  0  0  0
  186.1770  177.7500  145.7390 N   0  0  0  0  0  2  0  0  0  0  0  0
  185.2160  178.7630  146.0820 C   0  0  0  0  0  0  0  0  0  0  0  0
  184.3750  179.3180  145.1170 O   0  0  0  0  0  0  0  0  0  0  0  0
  187.8580  176.9760  144.3100 C   0  0  0  0  0  2  0  0  0  0  0  0
  190.8580  177.5150  143.8030 N   0  0  0  0  0  0  0  0  0  0  0  0
  188.4090  176.6240  146.9920 F   0  0  0  0  0  0  0  0  0  0  0  0
  188.7130  178.0090  145.0460 C   0  0  1  0  0  3  0  0  0  0  0  0
  192.5260  174.6440  145.6550 C   0  0  0  0  0  2  0  0  0  0  0  0
  189.4400  178.6010  147.2180 F   0  0  0  0  0  0  0  0  0  0  0  0
  189.2960  177.5070  146.3830 C   0  0  0  0  0  0  0  0  0  0  0  0
  190.4980  176.9410  142.5140 C   0  0  0  0  0  1  0  0  0  0  0  0
  192.3280  175.1590  147.0740 C   0  0  0  0  0  2  0  0  0  0  0  0
  190.9260  175.7350  147.2240 C   0  0  0  0  0  2  0  0  0  0  0  0
  190.9610  176.4040  144.7670 C   0  0  2  0  0  3  0  0  0  0  0  0
  190.6900  176.8650  146.2130 C   0  0  1  0  0  3  0  0  0  0  0  0
  192.3600  175.7890  144.6650 C   0  0  0  0  0  2  0  0  0  0  0  0
  189.8300  178.5240  144.1290 C   0  0  0  0  0  2  0  0  0  0  0  0
  181.8870  178.0330  138.3010 C   0  0  0  0  0  2  0  0  0  0  0  0
  181.4360  176.5840  138.3810 C   0  0  0  0  0  2  0  0  0  0  0  0
  182.6210  175.6380  138.3770 C   0  0  0  0  0  2  0  0  0  0  0  0
  183.5820  175.9850  137.2430 C   0  0  0  0  0  2  0  0  0  0  0  0
  185.1100  172.4580  137.2480 C   0  0  0  0  0  3  0  0  0  0  0  0
  183.7050  172.6580  135.2880 C   0  0  1  0  0  3  0  0  0  0  0  0
  184.9060  173.9000  137.6520 C   0  0  0  0  0  2  0  0  0  0  0  0
  183.1070  173.9250  135.9120 C   0  0  0  0  0  2  0  0  0  0  0  0
  184.5320  171.9220  136.2260 N   0  0  0  0  0  0  0  0  0  0  0  0
  184.2070  174.7510  136.5840 C   0  0  1  0  0  0  0  0  0  0  0  0
  182.6580  171.7440  134.6580 C   0  0  1  0  0  3  0  0  0  0  0  0
  183.1990  170.4160  134.4200 N   0  0  0  0  0  1  0  0  0  0  0  0
  181.4180  171.6530  135.5290 C   0  0  0  0  0  1  0  0  0  0  0  0
  185.4230  175.2770  135.3020 S   0  0  0  0  0  0  0  0  0  0  0  0
  188.3070  177.6930  137.9310 C   0  0  0  0  0  3  0  0  0  0  0  0
  187.1130  178.2620  137.4900 C   0  0  0  0  0  3  0  0  0  0  0  0
  188.0840  174.3560  136.4310 F   0  0  0  0  0  0  0  0  0  0  0  0
  186.5440  176.1880  136.3660 C   0  0  0  0  0  0  0  0  0  0  0  0
  186.2330  177.5080  136.7080 C   0  0  0  0  0  3  0  0  0  0  0  0
  187.7530  175.6210  136.7990 C   0  0  0  0  0  0  0  0  0  0  0  0
  188.6340  176.3680  137.5940 C   0  0  0  0  0  0  0  0  0  0  0  0
  189.8230  175.7650  138.0360 O   0  0  0  0  0  0  0  0  0  0  0  0
  191.8810  174.5820  137.6950 C   0  0  0  0  0  1  0  0  0  0  0  0
  191.7870  176.9350  137.7050 F   0  0  0  0  0  0  0  0  0  0  0  0
  190.8340  175.8140  135.8410 C   0  0  0  0  0  1  0  0  0  0  0  0
  191.0710  175.8100  137.3390 C   0  0  0  0  0  0  0  0  0  0  0  0
  1  5  1  0  0  0  0
  1  4  2  0  0  0  0
  2  3  1  0  0  0  0
  3  1  1  0  0  0  0
  6  5  1  0  0  0  0
  7  6  1  0  0  0  0
  7  8  1  0  0  0  0
  8  9  1  0  0  0  0
  9 10  1  0  0  0  0
 10 11  1  0  0  0  0
 11 13  1  0  0  0  0
 13 14  1  0  0  0  0
 14 12  1  0  0  0  0
 15 14  2  0  0  0  0
 16 11  1  0  0  0  0
 17 29  1  0  0  0  0
 17 26  1  0  0  0  0
 19 16  1  6  0  0  0
 19 22  1  0  0  0  0
 20 24  1  0  0  0  0
 22 18  1  0  0  0  0
 22 21  1  0  0  0  0
 23 17  1  0  0  0  0
 24 25  1  0  0  0  0
 26 28  1  1  0  0  0
 26 27  1  0  0  0  0
 27 22  1  0  0  0  0
 27 25  1  1  0  0  0
 28 20  1  0  0  0  0
 29 19  1  0  0  0  0
 30 31  1  0  0  0  0
 30  3  1  0  0  0  0
 32 31  1  0  0  0  0
 33 32  1  0  0  0  0
 34 36  1  0  0  0  0
 35 40  1  1  0  0  0
 35 37  1  0  0  0  0
 35 38  1  0  0  0  0
 37 39  1  0  0  0  0
 38 34  2  0  0  0  0
 39 33  1  1  0  0  0
 39 36  1  0  0  0  0
 40 42  1  1  0  0  0
 41 40  1  0  0  0  0
 43 47  1  0  0  0  0
 43 39  1  0  0  0  0
 45 44  2  0  0  0  0
 46 49  1  0  0  0  0
 47 48  2  0  0  0  0
 47 49  1  0  0  0  0
 48 45  1  0  0  0  0
 49 50  2  0  0  0  0
 50 44  1  0  0  0  0
 50 51  1  0  0  0  0
 54 55  1  0  0  0  0
 55 52  1  0  0  0  0
 55 53  1  0  0  0  0
 55 51  1  0  0  0  0
M  END
>  <MODEL>
8

>  <REMARK>
 VINA RESULT:      -5.6      2.951     10.879
  Name = 
  20 active torsions:
  status: ('A' for Active; 'I' for Inactive)
    1  A    between atoms: C_2  and  C_28
    2  A    between atoms: C_2  and  N_44
    3  A    between atoms: C_6  and  C_46
    4  A    between atoms: N_8  and  N_22
    5  A    between atoms: C_10  and  C_32
    6  A    between atoms: C_17  and  S_36
    7  A    between atoms: O_19  and  C_40
    8  A    between atoms: O_19  and  C_45
    9  A    between atoms: N_22  and  C_35
   10  A    between atoms: N_22  and  C_46
   11  A    between atoms: C_24  and  C_31
   12  A    between atoms: C_27  and  C_31
   13  A    between atoms: C_27  and  C_54
   14  A    between atoms: C_28  and  C_49
   15  A    between atoms: C_33  and  C_49
   16  A    between atoms: C_33  and  C_52
   17  A    between atoms: C_35  and  C_43
   18  A    between atoms: S_36  and  C_52
   19  A    between atoms: C_43  and  C_51
   20  A    between atoms: C_51  and  C_54
                            x       y       z     vdW  Elec       q    Type
                         _______ _______ _______ _____ _____    ______ ____

>  <TORSDO>
F 20

$$$$
=
 OpenBabel10272401293D

 55 58  0  0  1  0  0  0  0  0999 V2000
  182.0540  178.8050  142.1780 C   0  0  0  0  0  0  0  0  0  0  0  0
  183.3530  179.1700  144.2840 C   0  0  0  0  0  1  0  0  0  0  0  0
  183.2890  178.7130  142.9060 N   0  0  0  0  0  0  0  0  0  0  0  0
  181.0790  179.4400  142.6640 O   0  0  0  0  0  0  0  0  0  0  0  0
  181.8980  178.1540  140.8420 C   0  0  0  0  0  2  0  0  0  0  0  0
  181.8010  179.2110  139.7610 C   0  0  0  0  0  2  0  0  0  0  0  0
  181.6770  178.5730  138.3860 C   0  0  0  0  0  2  0  0  0  0  0  0
  181.9340  177.0790  138.4730 C   0  0  0  0  0  2  0  0  0  0  0  0
  181.3210  176.3730  137.2720 C   0  0  0  0  0  2  0  0  0  0  0  0
  182.0390  175.0630  136.9970 C   0  0  0  0  0  2  0  0  0  0  0  0
  182.5000  175.0060  135.6140 N   0  0  0  0  0  0  0  0  0  0  0  0
  181.2820  171.6310  134.9970 O   0  0  0  0  0  0  0  0  0  0  0  0
  181.9520  173.8580  134.9960 N   0  0  0  0  0  2  0  0  0  0  0  0
  181.6850  172.6140  135.6640 C   0  0  0  0  0  0  0  0  0  0  0  0
  181.8650  172.4790  137.0410 O   0  0  0  0  0  1  0  0  0  0  0  0
  183.9570  174.8890  135.6190 C   0  0  0  0  0  2  0  0  0  0  0  0
  186.4990  176.1570  136.8340 N   0  0  0  0  0  0  0  0  0  0  0  0
  184.9190  172.3920  136.2990 F   0  0  0  0  0  0  0  0  0  0  0  0
  184.4840  174.6440  137.0330 C   0  0  1  0  0  3  0  0  0  0  0  0
  189.2710  174.0470  135.3110 C   0  0  0  0  0  2  0  0  0  0  0  0
  185.2210  172.9050  138.4590 F   0  0  0  0  0  0  0  0  0  0  0  0
  185.3640  173.3830  137.1680 C   0  0  0  0  0  0  0  0  0  0  0  0
  186.2060  177.1480  135.8080 C   0  0  0  0  0  1  0  0  0  0  0  0
  189.0820  172.7970  136.1600 C   0  0  0  0  0  2  0  0  0  0  0  0
  187.5970  172.4960  136.3120 C   0  0  0  0  0  2  0  0  0  0  0  0
  187.0970  174.9890  136.1620 C   0  0  2  0  0  3  0  0  0  0  0  0
  186.8620  173.6840  136.9480 C   0  0  1  0  0  3  0  0  0  0  0  0
  188.5990  175.2350  135.9880 C   0  0  0  0  0  2  0  0  0  0  0  0
  185.2330  175.8820  137.5430 C   0  0  0  0  0  2  0  0  0  0  0  0
  184.4770  178.1050  142.3260 C   0  0  0  0  0  2  0  0  0  0  0  0
  185.3180  179.1640  141.6340 C   0  0  0  0  0  2  0  0  0  0  0  0
  186.7780  179.0540  142.0320 C   0  0  0  0  0  2  0  0  0  0  0  0
  186.9860  177.8880  142.9950 C   0  0  0  0  0  2  0  0  0  0  0  0
  190.5950  179.0610  143.6090 C   0  0  0  0  0  3  0  0  0  0  0  0
  190.0250  177.4670  145.3380 C   0  0  1  0  0  3  0  0  0  0  0  0
  189.2860  178.8720  142.8780 C   0  0  0  0  0  2  0  0  0  0  0  0
  188.5580  177.6160  144.9170 C   0  0  0  0  0  2  0  0  0  0  0  0
  190.8780  178.4630  144.7180 N   0  0  0  0  0  0  0  0  0  0  0  0
  188.4520  177.6900  143.3920 C   0  0  1  0  0  0  0  0  0  0  0  0
  190.2200  177.4570  146.8530 C   0  0  1  0  0  3  0  0  0  0  0  0
  189.1250  176.7690  147.5160 N   0  0  0  0  0  1  0  0  0  0  0  0
  191.5430  176.8120  147.2270 C   0  0  0  0  0  1  0  0  0  0  0  0
  189.0850  176.1150  142.6750 S   0  0  0  0  0  0  0  0  0  0  0  0
  190.1090  177.5900  138.4510 C   0  0  0  0  0  3  0  0  0  0  0  0
  188.7960  177.6420  138.9150 C   0  0  0  0  0  3  0  0  0  0  0  0
  191.8180  176.1490  141.3560 F   0  0  0  0  0  0  0  0  0  0  0  0
  189.5150  176.7270  141.0440 C   0  0  0  0  0  0  0  0  0  0  0  0
  188.5000  177.2100  140.2110 C   0  0  0  0  0  3  0  0  0  0  0  0
  190.8350  176.6620  140.5710 C   0  0  0  0  0  0  0  0  0  0  0  0
  191.1390  177.1050  139.2750 C   0  0  0  0  0  0  0  0  0  0  0  0
  192.4730  177.0550  138.8390 O   0  0  0  0  0  0  0  0  0  0  0  0
  193.4320  176.5540  136.6990 C   0  0  0  0  0  1  0  0  0  0  0  0
  192.1130  174.9910  137.8660 F   0  0  0  0  0  0  0  0  0  0  0  0
  194.2770  175.4500  138.7270 C   0  0  0  0  0  1  0  0  0  0  0  0
  193.0370  176.0030  138.0520 C   0  0  0  0  0  0  0  0  0  0  0  0
  1  4  2  0  0  0  0
  1  3  1  0  0  0  0
  3  2  1  0  0  0  0
  5  1  1  0  0  0  0
  6  5  1  0  0  0  0
  7  8  1  0  0  0  0
  7  6  1  0  0  0  0
  9  8  1  0  0  0  0
 10  9  1  0  0  0  0
 11 16  1  0  0  0  0
 11 10  1  0  0  0  0
 12 14  2  0  0  0  0
 13 11  1  0  0  0  0
 13 14  1  0  0  0  0
 14 15  1  0  0  0  0
 17 29  1  0  0  0  0
 18 22  1  0  0  0  0
 19 16  1  6  0  0  0
 19 22  1  0  0  0  0
 19 29  1  0  0  0  0
 20 28  1  0  0  0  0
 20 24  1  0  0  0  0
 22 21  1  0  0  0  0
 23 17  1  0  0  0  0
 24 25  1  0  0  0  0
 26 28  1  1  0  0  0
 26 17  1  0  0  0  0
 26 27  1  0  0  0  0
 27 25  1  6  0  0  0
 27 22  1  0  0  0  0
 30  3  1  0  0  0  0
 31 32  1  0  0  0  0
 31 30  1  0  0  0  0
 32 33  1  0  0  0  0
 34 38  2  0  0  0  0
 35 40  1  1  0  0  0
 36 39  1  0  0  0  0
 36 34  1  0  0  0  0
 37 35  1  0  0  0  0
 38 35  1  0  0  0  0
 39 33  1  6  0  0  0
 39 37  1  0  0  0  0
 40 42  1  6  0  0  0
 40 41  1  0  0  0  0
 43 39  1  0  0  0  0
 44 45  2  0  0  0  0
 44 50  1  0  0  0  0
 45 48  1  0  0  0  0
 47 43  1  0  0  0  0
 48 47  2  0  0  0  0
 49 47  1  0  0  0  0
 49 46  1  0  0  0  0
 50 49  2  0  0  0  0
 51 50  1  0  0  0  0
 52 55  1  0  0  0  0
 53 55  1  0  0  0  0
 55 54  1  0  0  0  0
 55 51  1  0  0  0  0
M  END
>  <MODEL>
9

>  <REMARK>
 VINA RESULT:      -5.6      3.048      7.000
  Name = 
  20 active torsions:
  status: ('A' for Active; 'I' for Inactive)
    1  A    between atoms: C_2  and  C_28
    2  A    between atoms: C_2  and  N_44
    3  A    between atoms: C_6  and  C_46
    4  A    between atoms: N_8  and  N_22
    5  A    between atoms: C_10  and  C_32
    6  A    between atoms: C_17  and  S_36
    7  A    between atoms: O_19  and  C_40
    8  A    between atoms: O_19  and  C_45
    9  A    between atoms: N_22  and  C_35
   10  A    between atoms: N_22  and  C_46
   11  A    between atoms: C_24  and  C_31
   12  A    between atoms: C_27  and  C_31
   13  A    between atoms: C_27  and  C_54
   14  A    between atoms: C_28  and  C_49
   15  A    between atoms: C_33  and  C_49
   16  A    between atoms: C_33  and  C_52
   17  A    between atoms: C_35  and  C_43
   18  A    between atoms: S_36  and  C_52
   19  A    between atoms: C_43  and  C_51
   20  A    between atoms: C_51  and  C_54
                            x       y       z     vdW  Elec       q    Type
                         _______ _______ _______ _____ _____    ______ ____

>  <TORSDO>
F 20

$$$$
