=
 OpenBabel10272400313D

 31 35  0  0  1  0  0  0  0  0999 V2000
  189.7280  177.4040  147.1370 C   0  0  0  0  0  0  0  0  0  0  0  0
  187.9760  177.6520  143.7490 C   0  0  0  0  0  0  0  0  0  0  0  0
  186.5850  177.8180  144.0130 C   0  0  0  0  0  0  0  0  0  0  0  0
  185.3790  178.6780  145.9940 C   0  0  0  0  0  3  0  0  0  0  0  0
  188.9900  177.3630  144.8140 C   0  0  0  0  0  0  0  0  0  0  0  0
  190.9780  176.9110  146.7590 C   0  0  0  0  0  3  0  0  0  0  0  0
  186.0110  177.4870  145.3570 C   0  0  0  0  0  2  0  0  0  0  0  0
  189.9080  177.6020  142.0930 C   0  0  2  0  0  3  0  0  0  0  0  0
  189.4520  177.6680  148.5080 N   0  0  0  0  0  1  0  0  0  0  0  0
  186.1940  178.2750  141.6600 C   0  0  0  0  0  3  0  0  0  0  0  0
  184.2990  179.2700  145.4910 C   0  0  0  0  0  3  0  0  0  0  0  0
  190.5680  176.5780  143.0130 C   0  0  0  0  0  2  0  0  0  0  0  0
  188.4340  177.7440  142.4090 C   0  0  0  0  0  0  0  0  0  0  0  0
  188.7470  177.6360  146.1710 C   0  0  0  0  0  3  0  0  0  0  0  0
  183.6490  178.8910  144.2230 C   0  0  0  0  0  3  0  0  0  0  0  0
  190.2680  176.8890  144.4440 C   0  0  0  0  0  0  0  0  0  0  0  0
  191.2470  176.6540  145.4130 C   0  0  0  0  0  3  0  0  0  0  0  0
  187.5400  178.0730  141.3870 C   0  0  0  0  0  3  0  0  0  0  0  0
  185.7040  178.1570  142.9580 C   0  0  0  0  0  0  0  0  0  0  0  0
  184.2570  178.4060  143.1350 C   0  0  0  0  0  3  0  0  0  0  0  0
  192.4050  177.6650  140.7420 O   0  0  0  0  0  0  0  0  0  0  0  0
  191.4110  177.2470  140.0870 C   0  0  0  0  0  0  0  0  0  0  0  0
  190.1210  177.2050  140.7050 N   0  0  0  0  0  2  0  0  0  0  0  0
  191.7680  175.9580  136.0090 C   0  0  0  0  0  0  0  0  0  0  0  0
  190.4320  176.7430  137.8630 C   0  0  0  0  0  3  0  0  0  0  0  0
  193.9810  176.4830  138.9070 O   0  0  0  0  0  1  0  0  0  0  0  0
  191.8680  175.5250  134.6570 N   0  0  0  0  0  1  0  0  0  0  0  0
  190.5290  176.3240  136.5340 C   0  0  0  0  0  3  0  0  0  0  0  0
  192.8200  176.4290  138.1440 C   0  0  0  0  0  0  0  0  0  0  0  0
  191.5670  176.7960  138.6850 C   0  0  0  0  0  0  0  0  0  0  0  0
  192.9110  176.0120  136.8110 C   0  0  0  0  0  3  0  0  0  0  0  0
  1  9  1  0  0  0  0
  2  3  1  0  0  0  0
  2  5  1  0  0  0  0
  3  7  1  0  0  0  0
  5 14  1  0  0  0  0
  6  1  1  0  0  0  0
  7  4  1  0  0  0  0
  8 23  1  6  0  0  0
  8 13  1  0  0  0  0
  8 12  1  0  0  0  0
 10 19  1  0  0  0  0
 11  4  2  0  0  0  0
 12 16  1  0  0  0  0
 13  2  2  0  0  0  0
 14  1  2  0  0  0  0
 15 11  1  0  0  0  0
 16  5  2  0  0  0  0
 16 17  1  0  0  0  0
 17  6  2  0  0  0  0
 18 10  2  0  0  0  0
 18 13  1  0  0  0  0
 19 20  1  0  0  0  0
 19  3  2  0  0  0  0
 20 15  2  0  0  0  0
 22 23  1  0  0  0  0
 22 21  2  0  0  0  0
 24 28  2  0  0  0  0
 24 31  1  0  0  0  0
 25 30  2  0  0  0  0
 27 24  1  0  0  0  0
 28 25  1  0  0  0  0
 29 30  1  0  0  0  0
 29 26  1  0  0  0  0
 30 22  1  0  0  0  0
 31 29  2  0  0  0  0
M  END
>  <MODEL>
1

>  <REMARK>
 VINA RESULT:     -11.9      0.000      0.000
  Name = 
  2 active torsions:
  status: ('A' for Active; 'I' for Inactive)
    1  A    between atoms: C_9  and  C_22
    2  A    between atoms: C_15  and  N_23
                            x       y       z     vdW  Elec       q    Type
                         _______ _______ _______ _____ _____    ______ ____

>  <TORSDO>
F 2

$$$$
=
 OpenBabel10272400313D

 31 35  0  0  1  0  0  0  0  0999 V2000
  190.1070  177.3020  146.9920 C   0  0  0  0  0  0  0  0  0  0  0  0
  188.1820  177.5410  143.6980 C   0  0  0  0  0  0  0  0  0  0  0  0
  186.8130  177.7560  144.0330 C   0  0  0  0  0  0  0  0  0  0  0  0
  185.7430  178.6900  146.0570 C   0  0  0  0  0  3  0  0  0  0  0  0
  189.2430  177.2410  144.7140 C   0  0  0  0  0  0  0  0  0  0  0  0
  191.3190  176.7630  146.5590 C   0  0  0  0  0  3  0  0  0  0  0  0
  186.3030  177.4680  145.4130 C   0  0  0  0  0  2  0  0  0  0  0  0
  190.0200  177.4000  141.9430 C   0  0  2  0  0  3  0  0  0  0  0  0
  189.9130  177.6010  148.3700 N   0  0  0  0  0  1  0  0  0  0  0  0
  186.3100  178.1810  141.6950 C   0  0  0  0  0  3  0  0  0  0  0  0
  184.6550  179.3060  145.6010 C   0  0  0  0  0  3  0  0  0  0  0  0
  190.6980  176.3730  142.8470 C   0  0  0  0  0  2  0  0  0  0  0  0
  188.5700  177.5940  142.3350 C   0  0  0  0  0  0  0  0  0  0  0  0
  189.0820  177.5470  146.0750 C   0  0  0  0  0  3  0  0  0  0  0  0
  183.9270  178.9250  144.3780 C   0  0  0  0  0  3  0  0  0  0  0  0
  190.4850  176.7210  144.2850 C   0  0  0  0  0  0  0  0  0  0  0  0
  191.5070  176.4730  145.2060 C   0  0  0  0  0  3  0  0  0  0  0  0
  187.6330  177.9310  141.3550 C   0  0  0  0  0  3  0  0  0  0  0  0
  185.8880  178.1030  143.0200 C   0  0  0  0  0  0  0  0  0  0  0  0
  184.4600  178.4000  143.2680 C   0  0  0  0  0  3  0  0  0  0  0  0
  192.3410  177.7230  140.3380 O   0  0  0  0  0  0  0  0  0  0  0  0
  191.3510  177.1500  139.8040 C   0  0  0  0  0  0  0  0  0  0  0  0
  190.1450  176.9700  140.5540 N   0  0  0  0  0  2  0  0  0  0  0  0
  191.6500  175.6730  135.7860 C   0  0  0  0  0  0  0  0  0  0  0  0
  192.5010  175.8350  138.0420 C   0  0  0  0  0  3  0  0  0  0  0  0
  189.3530  177.7750  137.7550 O   0  0  0  0  0  1  0  0  0  0  0  0
  191.7680  175.1810  134.4560 N   0  0  0  0  0  1  0  0  0  0  0  0
  192.6150  175.3460  136.7390 C   0  0  0  0  0  3  0  0  0  0  0  0
  190.4490  176.9800  137.4410 C   0  0  0  0  0  0  0  0  0  0  0  0
  191.4270  176.6590  138.4090 C   0  0  0  0  0  0  0  0  0  0  0  0
  190.5690  176.4860  136.1370 C   0  0  0  0  0  3  0  0  0  0  0  0
  1  9  1  0  0  0  0
  2  3  1  0  0  0  0
  2  5  1  0  0  0  0
  3  7  1  0  0  0  0
  5 14  1  0  0  0  0
  6  1  1  0  0  0  0
  7  4  1  0  0  0  0
  8 23  1  6  0  0  0
  8 13  1  0  0  0  0
  8 12  1  0  0  0  0
 10 19  1  0  0  0  0
 11  4  2  0  0  0  0
 12 16  1  0  0  0  0
 13  2  2  0  0  0  0
 14  1  2  0  0  0  0
 15 11  1  0  0  0  0
 16  5  2  0  0  0  0
 16 17  1  0  0  0  0
 17  6  2  0  0  0  0
 18 10  2  0  0  0  0
 18 13  1  0  0  0  0
 19 20  1  0  0  0  0
 19  3  2  0  0  0  0
 20 15  2  0  0  0  0
 22 21  2  0  0  0  0
 22 23  1  0  0  0  0
 24 31  2  0  0  0  0
 24 28  1  0  0  0  0
 25 30  1  0  0  0  0
 27 24  1  0  0  0  0
 28 25  2  0  0  0  0
 29 26  1  0  0  0  0
 29 30  2  0  0  0  0
 30 22  1  0  0  0  0
 31 29  1  0  0  0  0
M  END
>  <MODEL>
2

>  <REMARK>
 VINA RESULT:     -11.9      0.851      1.273
  Name = 
  2 active torsions:
  status: ('A' for Active; 'I' for Inactive)
    1  A    between atoms: C_9  and  C_22
    2  A    between atoms: C_15  and  N_23
                            x       y       z     vdW  Elec       q    Type
                         _______ _______ _______ _____ _____    ______ ____

>  <TORSDO>
F 2

$$$$
=
 OpenBabel10272400313D

 31 35  0  0  1  0  0  0  0  0999 V2000
  191.2290  176.7130  146.4450 C   0  0  0  0  0  0  0  0  0  0  0  0
  188.1690  177.3990  144.2600 C   0  0  0  0  0  0  0  0  0  0  0  0
  187.0810  177.6670  145.1410 C   0  0  0  0  0  0  0  0  0  0  0  0
  187.0220  178.4640  147.4820 C   0  0  0  0  0  3  0  0  0  0  0  0
  189.5150  176.9330  144.7260 C   0  0  0  0  0  0  0  0  0  0  0  0
  192.1020  176.1430  145.5170 C   0  0  0  0  0  3  0  0  0  0  0  0
  187.1490  177.2780  146.5870 C   0  0  0  0  0  2  0  0  0  0  0  0
  189.1150  177.3130  141.8980 C   0  0  2  0  0  3  0  0  0  0  0  0
  191.6410  176.8860  147.7970 N   0  0  0  0  0  1  0  0  0  0  0  0
  185.7190  178.3520  143.2510 C   0  0  0  0  0  3  0  0  0  0  0  0
  185.9100  179.1910  147.5540 C   0  0  0  0  0  3  0  0  0  0  0  0
  189.9950  176.1610  142.3750 C   0  0  0  0  0  2  0  0  0  0  0  0
  187.9750  177.5600  142.8630 C   0  0  0  0  0  0  0  0  0  0  0  0
  189.9510  177.1130  146.0500 C   0  0  0  0  0  3  0  0  0  0  0  0
  184.7140  178.9800  146.7190 C   0  0  0  0  0  3  0  0  0  0  0  0
  190.4180  176.3780  143.7920 C   0  0  0  0  0  0  0  0  0  0  0  0
  191.6960  175.9750  144.1920 C   0  0  0  0  0  3  0  0  0  0  0  0
  186.7590  178.0520  142.3810 C   0  0  0  0  0  3  0  0  0  0  0  0
  185.8640  178.1710  144.6240 C   0  0  0  0  0  0  0  0  0  0  0  0
  184.6970  178.5340  145.4570 C   0  0  0  0  0  3  0  0  0  0  0  0
  188.9910  179.1730  139.7550 O   0  0  0  0  0  0  0  0  0  0  0  0
  188.6010  177.9970  139.5150 C   0  0  0  0  0  0  0  0  0  0  0  0
  188.6230  177.0150  140.5570 N   0  0  0  0  0  2  0  0  0  0  0  0
  187.1270  176.9330  135.6280 C   0  0  0  0  0  0  0  0  0  0  0  0
  186.7460  177.6510  137.9030 C   0  0  0  0  0  3  0  0  0  0  0  0
  190.3840  177.2230  137.3230 O   0  0  0  0  0  1  0  0  0  0  0  0
  186.6210  176.5740  134.3470 N   0  0  0  0  0  1  0  0  0  0  0  0
  186.2490  177.3060  136.6450 C   0  0  0  0  0  3  0  0  0  0  0  0
  189.0080  177.2490  137.1270 C   0  0  0  0  0  0  0  0  0  0  0  0
  188.1240  177.6220  138.1640 C   0  0  0  0  0  0  0  0  0  0  0  0
  188.5030  176.9060  135.8680 C   0  0  0  0  0  3  0  0  0  0  0  0
  1  9  1  0  0  0  0
  2  5  1  0  0  0  0
  2  3  1  0  0  0  0
  3  7  1  0  0  0  0
  4 11  2  0  0  0  0
  5 14  2  0  0  0  0
  6  1  2  0  0  0  0
  7  4  1  0  0  0  0
  8 23  1  6  0  0  0
  8 12  1  0  0  0  0
  8 13  1  0  0  0  0
 10 19  1  0  0  0  0
 12 16  1  0  0  0  0
 13  2  2  0  0  0  0
 14  1  1  0  0  0  0
 15 11  1  0  0  0  0
 16 17  2  0  0  0  0
 16  5  1  0  0  0  0
 17  6  1  0  0  0  0
 18 13  1  0  0  0  0
 18 10  2  0  0  0  0
 19  3  2  0  0  0  0
 19 20  1  0  0  0  0
 20 15  2  0  0  0  0
 22 21  2  0  0  0  0
 22 23  1  0  0  0  0
 24 31  2  0  0  0  0
 24 28  1  0  0  0  0
 25 30  1  0  0  0  0
 27 24  1  0  0  0  0
 28 25  2  0  0  0  0
 29 26  1  0  0  0  0
 29 30  2  0  0  0  0
 30 22  1  0  0  0  0
 31 29  1  0  0  0  0
M  END
>  <MODEL>
3

>  <REMARK>
 VINA RESULT:     -11.5      2.239      2.745
  Name = 
  2 active torsions:
  status: ('A' for Active; 'I' for Inactive)
    1  A    between atoms: C_9  and  C_22
    2  A    between atoms: C_15  and  N_23
                            x       y       z     vdW  Elec       q    Type
                         _______ _______ _______ _____ _____    ______ ____

>  <TORSDO>
F 2

$$$$
=
 OpenBabel10272400313D

 31 35  0  0  1  0  0  0  0  0999 V2000
  185.3930  178.5460  143.1140 C   0  0  0  0  0  0  0  0  0  0  0  0
  189.0800  177.5770  142.8290 C   0  0  0  0  0  0  0  0  0  0  0  0
  189.6100  177.5710  144.1520 C   0  0  0  0  0  0  0  0  0  0  0  0
  188.5230  177.3100  146.3580 C   0  0  0  0  0  3  0  0  0  0  0  0
  187.6990  178.0550  142.4950 C   0  0  0  0  0  0  0  0  0  0  0  0
  185.0900  178.8480  141.7860 C   0  0  0  0  0  3  0  0  0  0  0  0
  188.8930  178.2620  145.2720 C   0  0  0  0  0  2  0  0  0  0  0  0
  189.3590  177.0890  140.3460 C   0  0  2  0  0  3  0  0  0  0  0  0
  184.3870  178.6490  144.1150 N   0  0  0  0  0  1  0  0  0  0  0  0
  191.6610  176.5690  143.3240 C   0  0  0  0  0  3  0  0  0  0  0  0
  189.4300  176.6820  147.1010 C   0  0  0  0  0  3  0  0  0  0  0  0
  188.4200  178.2640  140.0880 C   0  0  0  0  0  2  0  0  0  0  0  0
  189.8980  177.1250  141.7610 C   0  0  0  0  0  0  0  0  0  0  0  0
  186.6840  178.1440  143.4620 C   0  0  0  0  0  3  0  0  0  0  0  0
  190.8880  176.7740  146.9000 C   0  0  0  0  0  3  0  0  0  0  0  0
  187.3700  178.3390  141.1500 C   0  0  0  0  0  0  0  0  0  0  0  0
  186.0780  178.7450  140.8050 C   0  0  0  0  0  3  0  0  0  0  0  0
  191.1690  176.6100  142.0260 C   0  0  0  0  0  3  0  0  0  0  0  0
  190.8990  177.0370  144.3910 C   0  0  0  0  0  0  0  0  0  0  0  0
  191.5180  176.9340  145.7300 C   0  0  0  0  0  3  0  0  0  0  0  0
  189.8230  175.0910  138.3810 O   0  0  0  0  0  0  0  0  0  0  0  0
  190.6070  176.0800  138.3880 C   0  0  0  0  0  0  0  0  0  0  0  0
  190.4370  177.1140  139.3630 N   0  0  0  0  0  2  0  0  0  0  0  0
  193.7080  176.3610  135.4360 C   0  0  0  0  0  0  0  0  0  0  0  0
  191.4030  175.9590  136.0410 C   0  0  0  0  0  3  0  0  0  0  0  0
  193.3710  176.7600  139.0820 O   0  0  0  0  0  1  0  0  0  0  0  0
  194.7260  176.4430  134.4450 N   0  0  0  0  0  1  0  0  0  0  0  0
  192.4010  176.0450  135.0670 C   0  0  0  0  0  3  0  0  0  0  0  0
  193.0250  176.5080  137.7590 C   0  0  0  0  0  0  0  0  0  0  0  0
  191.7000  176.1820  137.3950 C   0  0  0  0  0  0  0  0  0  0  0  0
  194.0190  176.5940  136.7770 C   0  0  0  0  0  3  0  0  0  0  0  0
  1 14  1  0  0  0  0
  1  9  1  0  0  0  0
  2  3  1  0  0  0  0
  3 19  2  0  0  0  0
  3  7  1  0  0  0  0
  4 11  2  0  0  0  0
  5  2  1  0  0  0  0
  5 14  2  0  0  0  0
  6  1  2  0  0  0  0
  7  4  1  0  0  0  0
  8 23  1  6  0  0  0
  8 13  1  0  0  0  0
 10 19  1  0  0  0  0
 12  8  1  0  0  0  0
 12 16  1  0  0  0  0
 13 18  1  0  0  0  0
 13  2  2  0  0  0  0
 15 11  1  0  0  0  0
 16  5  1  0  0  0  0
 17 16  2  0  0  0  0
 17  6  1  0  0  0  0
 18 10  2  0  0  0  0
 19 20  1  0  0  0  0
 20 15  2  0  0  0  0
 21 22  2  0  0  0  0
 22 23  1  0  0  0  0
 24 31  1  0  0  0  0
 25 30  2  0  0  0  0
 27 24  1  0  0  0  0
 28 24  2  0  0  0  0
 28 25  1  0  0  0  0
 29 26  1  0  0  0  0
 30 29  1  0  0  0  0
 30 22  1  0  0  0  0
 31 29  2  0  0  0  0
M  END
>  <MODEL>
4

>  <REMARK>
 VINA RESULT:     -10.6      1.841      4.362
  Name = 
  2 active torsions:
  status: ('A' for Active; 'I' for Inactive)
    1  A    between atoms: C_9  and  C_22
    2  A    between atoms: C_15  and  N_23
                            x       y       z     vdW  Elec       q    Type
                         _______ _______ _______ _____ _____    ______ ____

>  <TORSDO>
F 2

$$$$
=
 OpenBabel10272400313D

 31 35  0  0  1  0  0  0  0  0999 V2000
  187.4110  177.6390  147.3490 C   0  0  0  0  0  0  0  0  0  0  0  0
  187.3770  178.1700  143.5640 C   0  0  0  0  0  0  0  0  0  0  0  0
  188.7190  178.0080  143.1100 C   0  0  0  0  0  0  0  0  0  0  0  0
  190.6490  176.8050  144.0830 C   0  0  0  0  0  3  0  0  0  0  0  0
  186.9910  178.1900  145.0120 C   0  0  0  0  0  0  0  0  0  0  0  0
  186.1620  178.1500  147.7050 C   0  0  0  0  0  3  0  0  0  0  0  0
  189.8690  178.0760  144.0690 C   0  0  0  0  0  2  0  0  0  0  0  0
  184.9050  178.4850  143.0460 C   0  0  2  0  0  3  0  0  0  0  0  0
  188.2730  177.1080  148.3490 N   0  0  0  0  0  1  0  0  0  0  0  0
  187.9470  178.0650  140.8090 C   0  0  0  0  0  3  0  0  0  0  0  0
  191.3340  176.3740  143.0280 C   0  0  0  0  0  3  0  0  0  0  0  0
  184.8110  179.2690  144.3520 C   0  0  0  0  0  2  0  0  0  0  0  0
  186.3460  178.3390  142.6040 C   0  0  0  0  0  0  0  0  0  0  0  0
  187.8170  177.6520  146.0130 C   0  0  0  0  0  3  0  0  0  0  0  0
  191.3460  177.0320  141.7090 C   0  0  0  0  0  3  0  0  0  0  0  0
  185.7190  178.6790  145.3830 C   0  0  0  0  0  0  0  0  0  0  0  0
  185.3170  178.6700  146.7220 C   0  0  0  0  0  3  0  0  0  0  0  0
  186.6430  178.2660  141.2410 C   0  0  0  0  0  3  0  0  0  0  0  0
  188.9890  177.9310  141.7230 C   0  0  0  0  0  0  0  0  0  0  0  0
  190.3350  177.7080  141.1520 C   0  0  0  0  0  3  0  0  0  0  0  0
  183.3340  177.1650  141.0830 O   0  0  0  0  0  0  0  0  0  0  0  0
  183.3170  178.4270  141.0750 C   0  0  0  0  0  0  0  0  0  0  0  0
  184.0990  179.1520  142.0290 N   0  0  0  0  0  2  0  0  0  0  0  0
  180.8430  180.5320  138.2710 C   0  0  0  0  0  0  0  0  0  0  0  0
  181.0950  179.0570  140.1690 C   0  0  0  0  0  3  0  0  0  0  0  0
  184.4370  180.1380  138.9780 O   0  0  0  0  0  1  0  0  0  0  0  0
  180.0090  181.2170  137.3440 N   0  0  0  0  0  1  0  0  0  0  0  0
  180.2740  179.7340  139.2640 C   0  0  0  0  0  3  0  0  0  0  0  0
  183.0600  179.9790  139.0880 C   0  0  0  0  0  0  0  0  0  0  0  0
  182.4920  179.1630  140.0910 C   0  0  0  0  0  0  0  0  0  0  0  0
  182.2320  180.6560  138.1850 C   0  0  0  0  0  3  0  0  0  0  0  0
  1  6  1  0  0  0  0
  1  9  1  0  0  0  0
  2  5  1  0  0  0  0
  3  2  1  0  0  0  0
  3  7  1  0  0  0  0
  5 16  2  0  0  0  0
  5 14  1  0  0  0  0
  7  4  1  0  0  0  0
  8 23  1  6  0  0  0
  8 12  1  0  0  0  0
 10 18  2  0  0  0  0
 10 19  1  0  0  0  0
 11  4  2  0  0  0  0
 12 16  1  0  0  0  0
 13  8  1  0  0  0  0
 13  2  2  0  0  0  0
 14  1  2  0  0  0  0
 15 11  1  0  0  0  0
 16 17  1  0  0  0  0
 17  6  2  0  0  0  0
 18 13  1  0  0  0  0
 19  3  2  0  0  0  0
 20 15  2  0  0  0  0
 20 19  1  0  0  0  0
 22 21  2  0  0  0  0
 22 23  1  0  0  0  0
 24 28  1  0  0  0  0
 26 29  1  0  0  0  0
 27 24  1  0  0  0  0
 28 25  2  0  0  0  0
 29 30  2  0  0  0  0
 30 25  1  0  0  0  0
 30 22  1  0  0  0  0
 31 24  2  0  0  0  0
 31 29  1  0  0  0  0
M  END
>  <MODEL>
5

>  <REMARK>
 VINA RESULT:     -10.0      4.068      7.202
  Name = 
  2 active torsions:
  status: ('A' for Active; 'I' for Inactive)
    1  A    between atoms: C_9  and  C_22
    2  A    between atoms: C_15  and  N_23
                            x       y       z     vdW  Elec       q    Type
                         _______ _______ _______ _____ _____    ______ ____

>  <TORSDO>
F 2

$$$$
=
 OpenBabel10272400313D

 31 35  0  0  1  0  0  0  0  0999 V2000
  184.2800  178.7180  143.9930 C   0  0  0  0  0  0  0  0  0  0  0  0
  187.9640  177.7340  144.2550 C   0  0  0  0  0  0  0  0  0  0  0  0
  188.3500  177.9300  145.6130 C   0  0  0  0  0  0  0  0  0  0  0  0
  187.0300  178.0010  147.7030 C   0  0  0  0  0  3  0  0  0  0  0  0
  186.6320  178.1500  143.7060 C   0  0  0  0  0  0  0  0  0  0  0  0
  184.1240  178.8150  142.6090 C   0  0  0  0  0  3  0  0  0  0  0  0
  187.5260  178.7800  146.5320 C   0  0  0  0  0  2  0  0  0  0  0  0
  188.5010  176.8770  141.9180 C   0  0  2  0  0  3  0  0  0  0  0  0
  183.1740  178.9670  144.8530 N   0  0  0  0  0  1  0  0  0  0  0  0
  190.4660  176.8240  145.1700 C   0  0  0  0  0  3  0  0  0  0  0  0
  187.8460  177.4970  148.6250 C   0  0  0  0  0  3  0  0  0  0  0  0
  187.6090  177.9960  141.3870 C   0  0  0  0  0  2  0  0  0  0  0  0
  188.8860  177.1290  143.3610 C   0  0  0  0  0  0  0  0  0  0  0  0
  185.5220  178.3790  144.5340 C   0  0  0  0  0  3  0  0  0  0  0  0
  189.3170  177.5640  148.5700 C   0  0  0  0  0  3  0  0  0  0  0  0
  186.4530  178.2250  142.3070 C   0  0  0  0  0  0  0  0  0  0  0  0
  185.2100  178.5690  141.7670 C   0  0  0  0  0  3  0  0  0  0  0  0
  190.1160  176.6660  143.8360 C   0  0  0  0  0  3  0  0  0  0  0  0
  189.6000  177.4450  146.0660 C   0  0  0  0  0  0  0  0  0  0  0  0
  190.0710  177.5470  147.4640 C   0  0  0  0  0  3  0  0  0  0  0  0
  188.4610  176.8400  139.0790 O   0  0  0  0  0  0  0  0  0  0  0  0
  189.5900  176.7600  139.6360 C   0  0  0  0  0  0  0  0  0  0  0  0
  189.6780  176.7580  141.0650 N   0  0  0  0  0  2  0  0  0  0  0  0
  193.2250  176.5300  137.3670 C   0  0  0  0  0  0  0  0  0  0  0  0
  192.0520  176.9910  139.4290 C   0  0  0  0  0  3  0  0  0  0  0  0
  189.6320  175.9220  136.8290 O   0  0  0  0  0  1  0  0  0  0  0  0
  194.4390  176.4670  136.6270 N   0  0  0  0  0  1  0  0  0  0  0  0
  193.2450  176.9230  138.7050 C   0  0  0  0  0  3  0  0  0  0  0  0
  190.8150  176.2690  137.4720 C   0  0  0  0  0  0  0  0  0  0  0  0
  190.8260  176.6730  138.8250 C   0  0  0  0  0  0  0  0  0  0  0  0
  192.0140  176.2020  136.7530 C   0  0  0  0  0  3  0  0  0  0  0  0
  1 14  1  0  0  0  0
  1  9  1  0  0  0  0
  2  3  1  0  0  0  0
  3 19  2  0  0  0  0
  3  7  1  0  0  0  0
  4 11  2  0  0  0  0
  5  2  1  0  0  0  0
  5 14  2  0  0  0  0
  6  1  2  0  0  0  0
  7  4  1  0  0  0  0
  8 23  1  6  0  0  0
  8 13  1  0  0  0  0
 10 19  1  0  0  0  0
 12  8  1  0  0  0  0
 12 16  1  0  0  0  0
 13 18  1  0  0  0  0
 13  2  2  0  0  0  0
 15 11  1  0  0  0  0
 16  5  1  0  0  0  0
 17 16  2  0  0  0  0
 17  6  1  0  0  0  0
 18 10  2  0  0  0  0
 19 20  1  0  0  0  0
 20 15  2  0  0  0  0
 21 22  2  0  0  0  0
 22 23  1  0  0  0  0
 24 28  1  0  0  0  0
 26 29  1  0  0  0  0
 27 24  1  0  0  0  0
 28 25  2  0  0  0  0
 29 30  2  0  0  0  0
 30 25  1  0  0  0  0
 30 22  1  0  0  0  0
 31 24  2  0  0  0  0
 31 29  1  0  0  0  0
M  END
>  <MODEL>
6

>  <REMARK>
 VINA RESULT:      -9.8      2.145      4.340
  Name = 
  2 active torsions:
  status: ('A' for Active; 'I' for Inactive)
    1  A    between atoms: C_9  and  C_22
    2  A    between atoms: C_15  and  N_23
                            x       y       z     vdW  Elec       q    Type
                         _______ _______ _______ _____ _____    ______ ____

>  <TORSDO>
F 2

$$$$
=
 OpenBabel10272400313D

 31 35  0  0  1  0  0  0  0  0999 V2000
  185.3740  178.3910  145.8460 C   0  0  0  0  0  0  0  0  0  0  0  0
  184.4690  178.5820  142.1380 C   0  0  0  0  0  0  0  0  0  0  0  0
  183.0480  178.6670  142.0610 C   0  0  0  0  0  0  0  0  0  0  0  0
  181.3570  179.4320  143.6960 C   0  0  0  0  0  3  0  0  0  0  0  0
  185.2150  178.3380  143.4150 C   0  0  0  0  0  0  0  0  0  0  0  0
  186.7050  177.9730  145.7780 C   0  0  0  0  0  3  0  0  0  0  0  0
  182.1900  178.2870  143.2310 C   0  0  0  0  0  2  0  0  0  0  0  0
  186.7400  178.6620  140.9910 C   0  0  2  0  0  3  0  0  0  0  0  0
  184.7650  178.6220  147.1110 N   0  0  0  0  0  1  0  0  0  0  0  0
  183.2030  179.1300  139.6830 C   0  0  0  0  0  3  0  0  0  0  0  0
  180.3960  179.9680  142.9500 C   0  0  0  0  0  3  0  0  0  0  0  0
  187.2200  177.6660  142.0430 C   0  0  0  0  0  2  0  0  0  0  0  0
  185.2270  178.7170  140.9460 C   0  0  0  0  0  0  0  0  0  0  0  0
  184.6400  178.5800  144.6740 C   0  0  0  0  0  3  0  0  0  0  0  0
  180.0890  179.5700  141.5640 C   0  0  0  0  0  3  0  0  0  0  0  0
  186.5700  177.9410  143.3600 C   0  0  0  0  0  0  0  0  0  0  0  0
  187.3010  177.7490  144.5360 C   0  0  0  0  0  3  0  0  0  0  0  0
  184.5850  179.0080  139.7400 C   0  0  0  0  0  3  0  0  0  0  0  0
  182.4260  178.9690  140.8270 C   0  0  0  0  0  0  0  0  0  0  0  0
  180.9670  179.1340  140.6530 C   0  0  0  0  0  3  0  0  0  0  0  0
  189.4900  178.1650  140.4820 O   0  0  0  0  0  0  0  0  0  0  0  0
  188.6970  178.0440  139.5080 C   0  0  0  0  0  0  0  0  0  0  0  0
  187.3000  178.2950  139.6940 N   0  0  0  0  0  2  0  0  0  0  0  0
  190.1920  176.7940  135.6850 C   0  0  0  0  0  0  0  0  0  0  0  0
  190.0690  176.5440  138.0860 C   0  0  0  0  0  3  0  0  0  0  0  0
  187.9400  179.3860  137.0170 O   0  0  0  0  0  1  0  0  0  0  0  0
  190.7040  176.3710  134.4260 N   0  0  0  0  0  1  0  0  0  0  0  0
  190.5670  176.1240  136.8500 C   0  0  0  0  0  3  0  0  0  0  0  0
  188.8170  178.3080  136.9900 C   0  0  0  0  0  0  0  0  0  0  0  0
  189.1970  177.6390  138.1750 C   0  0  0  0  0  0  0  0  0  0  0  0
  189.3190  177.8810  135.7550 C   0  0  0  0  0  3  0  0  0  0  0  0
  1  9  1  0  0  0  0
  2  5  1  0  0  0  0
  3  2  1  0  0  0  0
  3  7  1  0  0  0  0
  5 14  1  0  0  0  0
  6  1  1  0  0  0  0
  7  4  1  0  0  0  0
  8 23  1  6  0  0  0
  8 12  1  0  0  0  0
 10 18  2  0  0  0  0
 10 19  1  0  0  0  0
 11  4  2  0  0  0  0
 12 16  1  0  0  0  0
 13  8  1  0  0  0  0
 13  2  2  0  0  0  0
 14  1  2  0  0  0  0
 15 11  1  0  0  0  0
 16  5  2  0  0  0  0
 16 17  1  0  0  0  0
 17  6  2  0  0  0  0
 18 13  1  0  0  0  0
 19  3  2  0  0  0  0
 20 19  1  0  0  0  0
 20 15  2  0  0  0  0
 22 23  1  0  0  0  0
 22 21  2  0  0  0  0
 24 31  2  0  0  0  0
 24 28  1  0  0  0  0
 25 30  1  0  0  0  0
 27 24  1  0  0  0  0
 28 25  2  0  0  0  0
 29 26  1  0  0  0  0
 29 30  2  0  0  0  0
 30 22  1  0  0  0  0
 31 29  1  0  0  0  0
M  END
>  <MODEL>
7

>  <REMARK>
 VINA RESULT:      -9.6      2.555      3.933
  Name = 
  2 active torsions:
  status: ('A' for Active; 'I' for Inactive)
    1  A    between atoms: C_9  and  C_22
    2  A    between atoms: C_15  and  N_23
                            x       y       z     vdW  Elec       q    Type
                         _______ _______ _______ _____ _____    ______ ____

>  <TORSDO>
F 2

$$$$
=
 OpenBabel10272400313D

 31 35  0  0  1  0  0  0  0  0999 V2000
  187.3520  178.3860  136.5460 C   0  0  0  0  0  0  0  0  0  0  0  0
  186.3430  178.4090  140.2330 C   0  0  0  0  0  0  0  0  0  0  0  0
  184.9700  178.7890  140.2840 C   0  0  0  0  0  0  0  0  0  0  0  0
  183.1630  178.6530  138.6010 C   0  0  0  0  0  3  0  0  0  0  0  0
  187.1590  178.4290  138.9750 C   0  0  0  0  0  0  0  0  0  0  0  0
  188.7440  178.3470  136.6470 C   0  0  0  0  0  3  0  0  0  0  0  0
  184.3110  179.4550  139.1150 C   0  0  0  0  0  2  0  0  0  0  0  0
  188.4370  177.5680  141.4100 C   0  0  2  0  0  3  0  0  0  0  0  0
  186.7320  178.3970  135.2650 N   0  0  0  0  0  1  0  0  0  0  0  0
  184.9090  178.2420  142.6490 C   0  0  0  0  0  3  0  0  0  0  0  0
  182.0620  178.4400  139.3160 C   0  0  0  0  0  3  0  0  0  0  0  0
  189.2400  178.3800  140.3970 C   0  0  0  0  0  2  0  0  0  0  0  0
  186.9880  178.0060  141.4310 C   0  0  0  0  0  0  0  0  0  0  0  0
  186.5680  178.4170  137.7010 C   0  0  0  0  0  3  0  0  0  0  0  0
  181.8680  178.8820  140.7090 C   0  0  0  0  0  3  0  0  0  0  0  0
  188.5680  178.3630  139.0620 C   0  0  0  0  0  0  0  0  0  0  0  0
  189.3510  178.3360  137.9050 C   0  0  0  0  0  3  0  0  0  0  0  0
  186.2570  177.9100  142.6170 C   0  0  0  0  0  3  0  0  0  0  0  0
  184.2540  178.6750  141.4990 C   0  0  0  0  0  0  0  0  0  0  0  0
  182.8160  178.9880  141.6460 C   0  0  0  0  0  3  0  0  0  0  0  0
  188.7970  175.4490  143.2670 O   0  0  0  0  0  0  0  0  0  0  0  0
  189.2190  176.5880  143.6100 C   0  0  0  0  0  0  0  0  0  0  0  0
  189.0540  177.7010  142.7260 N   0  0  0  0  0  2  0  0  0  0  0  0
  191.2390  177.1240  147.3580 C   0  0  0  0  0  0  0  0  0  0  0  0
  191.2450  176.4560  145.0350 C   0  0  0  0  0  3  0  0  0  0  0  0
  187.8650  177.6560  145.9780 O   0  0  0  0  0  1  0  0  0  0  0  0
  191.9210  177.2880  148.5960 N   0  0  0  0  0  1  0  0  0  0  0  0
  191.9190  176.6230  146.2480 C   0  0  0  0  0  3  0  0  0  0  0  0
  189.2060  177.2960  146.0440 C   0  0  0  0  0  0  0  0  0  0  0  0
  189.8860  176.7820  144.9170 C   0  0  0  0  0  0  0  0  0  0  0  0
  189.8870  177.4620  147.2560 C   0  0  0  0  0  3  0  0  0  0  0  0
  1  6  2  0  0  0  0
  1 14  1  0  0  0  0
  2  3  2  0  0  0  0
  2 13  1  0  0  0  0
  3 19  1  0  0  0  0
  4  7  1  0  0  0  0
  4 11  2  0  0  0  0
  5 16  1  0  0  0  0
  5  2  1  0  0  0  0
  6 17  1  0  0  0  0
  7  3  1  0  0  0  0
  8 13  1  0  0  0  0
  8 23  1  1  0  0  0
  9  1  1  0  0  0  0
 11 15  1  0  0  0  0
 12  8  1  0  0  0  0
 13 18  2  0  0  0  0
 14  5  2  0  0  0  0
 15 20  2  0  0  0  0
 16 12  1  0  0  0  0
 17 16  2  0  0  0  0
 18 10  1  0  0  0  0
 19 20  1  0  0  0  0
 19 10  2  0  0  0  0
 21 22  2  0  0  0  0
 22 30  1  0  0  0  0
 23 22  1  0  0  0  0
 24 27  1  0  0  0  0
 25 28  1  0  0  0  0
 26 29  1  0  0  0  0
 28 24  2  0  0  0  0
 29 31  2  0  0  0  0
 30 25  2  0  0  0  0
 30 29  1  0  0  0  0
 31 24  1  0  0  0  0
M  END
>  <MODEL>
8

>  <REMARK>
 VINA RESULT:      -9.4      2.875      7.416
  Name = 
  2 active torsions:
  status: ('A' for Active; 'I' for Inactive)
    1  A    between atoms: C_9  and  C_22
    2  A    between atoms: C_15  and  N_23
                            x       y       z     vdW  Elec       q    Type
                         _______ _______ _______ _____ _____    ______ ____

>  <TORSDO>
F 2

$$$$
=
 OpenBabel10272400313D

 31 35  0  0  1  0  0  0  0  0999 V2000
  183.6090  178.8910  138.9710 C   0  0  0  0  0  0  0  0  0  0  0  0
  187.2960  178.0140  139.4680 C   0  0  0  0  0  0  0  0  0  0  0  0
  187.7640  177.4760  138.2340 C   0  0  0  0  0  0  0  0  0  0  0  0
  186.9480  177.7360  135.9130 C   0  0  0  0  0  3  0  0  0  0  0  0
  185.8570  178.3410  139.7340 C   0  0  0  0  0  0  0  0  0  0  0  0
  183.1930  179.0700  140.2920 C   0  0  0  0  0  3  0  0  0  0  0  0
  186.8020  176.9860  137.1930 C   0  0  0  0  0  2  0  0  0  0  0  0
  187.7730  178.8390  141.8280 C   0  0  2  0  0  3  0  0  0  0  0  0
  182.6830  179.0660  137.9050 N   0  0  0  0  0  1  0  0  0  0  0  0
  190.0410  177.5280  139.0750 C   0  0  0  0  0  3  0  0  0  0  0  0
  188.0490  177.6730  135.1680 C   0  0  0  0  0  3  0  0  0  0  0  0
  186.3790  178.3440  142.2000 C   0  0  0  0  0  2  0  0  0  0  0  0
  188.2280  178.2410  140.5130 C   0  0  0  0  0  0  0  0  0  0  0  0
  184.9320  178.5390  138.6960 C   0  0  0  0  0  3  0  0  0  0  0  0
  189.2730  176.9410  135.5400 C   0  0  0  0  0  3  0  0  0  0  0  0
  185.4290  178.5510  141.0640 C   0  0  0  0  0  0  0  0  0  0  0  0
  184.1040  178.9000  141.3370 C   0  0  0  0  0  3  0  0  0  0  0  0
  189.5890  178.0120  140.2950 C   0  0  0  0  0  3  0  0  0  0  0  0
  189.1490  177.2610  138.0400 C   0  0  0  0  0  0  0  0  0  0  0  0
  189.7420  176.7600  136.7810 C   0  0  0  0  0  3  0  0  0  0  0  0
  187.7410  176.4370  143.3430 O   0  0  0  0  0  0  0  0  0  0  0  0
  188.6370  177.2790  143.6250 C   0  0  0  0  0  0  0  0  0  0  0  0
  188.6990  178.5170  142.9090 N   0  0  0  0  0  2  0  0  0  0  0  0
  191.4420  176.4780  146.7730 C   0  0  0  0  0  0  0  0  0  0  0  0
  189.2510  177.1730  146.0270 C   0  0  0  0  0  3  0  0  0  0  0  0
  191.3580  176.3310  143.0930 O   0  0  0  0  0  1  0  0  0  0  0  0
  192.3620  176.2250  147.8280 N   0  0  0  0  0  1  0  0  0  0  0  0
  190.1510  176.9180  147.0650 C   0  0  0  0  0  3  0  0  0  0  0  0
  190.9360  176.5430  144.4010 C   0  0  0  0  0  0  0  0  0  0  0  0
  189.6290  176.9960  144.6880 C   0  0  0  0  0  0  0  0  0  0  0  0
  191.8320  176.2890  145.4450 C   0  0  0  0  0  3  0  0  0  0  0  0
  1  6  1  0  0  0  0
  2  5  1  0  0  0  0
  2 13  1  0  0  0  0
  3  2  2  0  0  0  0
  4  7  1  0  0  0  0
  5 16  2  0  0  0  0
  6 17  2  0  0  0  0
  7  3  1  0  0  0  0
  8 12  1  0  0  0  0
  8 23  1  1  0  0  0
  9  1  1  0  0  0  0
 10 18  1  0  0  0  0
 11 15  1  0  0  0  0
 11  4  2  0  0  0  0
 13  8  1  0  0  0  0
 14  1  2  0  0  0  0
 14  5  1  0  0  0  0
 15 20  2  0  0  0  0
 16 17  1  0  0  0  0
 16 12  1  0  0  0  0
 18 13  2  0  0  0  0
 19  3  1  0  0  0  0
 19 10  2  0  0  0  0
 20 19  1  0  0  0  0
 21 22  2  0  0  0  0
 22 30  1  0  0  0  0
 23 22  1  0  0  0  0
 24 28  1  0  0  0  0
 24 27  1  0  0  0  0
 25 28  2  0  0  0  0
 26 29  1  0  0  0  0
 29 30  2  0  0  0  0
 29 31  1  0  0  0  0
 30 25  1  0  0  0  0
 31 24  2  0  0  0  0
M  END
>  <MODEL>
9

>  <REMARK>
 VINA RESULT:      -9.1      2.805      7.896
  Name = 
  2 active torsions:
  status: ('A' for Active; 'I' for Inactive)
    1  A    between atoms: C_9  and  C_22
    2  A    between atoms: C_15  and  N_23
                            x       y       z     vdW  Elec       q    Type
                         _______ _______ _______ _____ _____    ______ ____

>  <TORSDO>
F 2

$$$$
