=
 OpenBabel10272414093D

 43 48  0  0  1  0  0  0  0  0999 V2000
  191.0470  176.4910  146.6690 C   0  0  0  0  0  0  0  0  0  0  0  0
  187.0950  178.2540  143.9210 C   0  0  2  0  0  3  0  0  0  0  0  0
  187.6950  177.8980  141.1220 C   0  0  1  0  0  3  0  0  0  0  0  0
  188.9540  177.4190  145.9850 C   0  0  0  0  0  0  0  0  0  0  0  0
  191.6110  176.5150  145.2790 C   0  0  0  0  0  2  0  0  0  0  0  0
  191.7360  176.0270  147.6150 O   0  0  0  0  0  0  0  0  0  0  0  0
  189.3330  177.2330  144.5560 C   0  0  0  0  0  0  0  0  0  0  0  0
  189.7590  177.0560  146.9380 N   0  0  0  0  0  0  0  0  0  0  0  0
  190.5400  176.7350  144.2500 C   0  0  0  0  0  3  0  0  0  0  0  0
  188.8240  177.8460  142.1470 C   0  0  0  0  0  2  0  0  0  0  0  0
  188.2700  177.3530  143.4850 C   0  0  2  0  0  3  0  0  0  0  0  0
  186.5830  177.7650  145.2790 C   0  0  0  0  0  2  0  0  0  0  0  0
  186.0330  178.2270  142.9000 N   0  0  0  0  0  0  0  0  0  0  0  0
  186.5690  178.7790  141.6540 C   0  0  0  0  0  2  0  0  0  0  0  0
  187.6370  178.0380  146.3480 C   0  0  0  0  0  2  0  0  0  0  0  0
  188.1820  178.4060  139.8000 C   0  0  0  0  0  0  0  0  0  0  0  0
  187.3230  178.3990  138.6540 N   0  0  0  0  0  2  0  0  0  0  0  0
  189.3530  178.8620  139.6890 O   0  0  0  0  0  0  0  0  0  0  0  0
  185.9190  178.0240  138.7270 C   0  0  0  0  0  2  0  0  0  0  0  0
  185.4200  177.6330  137.3500 C   0  0  0  0  0  2  0  0  0  0  0  0
  186.5420  177.7740  136.3430 C   0  0  0  0  0  2  0  0  0  0  0  0
  186.7870  176.4440  135.6430 C   0  0  2  0  0  3  0  0  0  0  0  0
  187.9510  174.7030  136.8630 C   0  0  0  0  0  2  0  0  0  0  0  0
  189.3190  176.3550  135.5050 C   0  0  0  0  0  0  0  0  0  0  0  0
  185.7570  175.4310  136.1060 C   0  0  0  0  0  2  0  0  0  0  0  0
  188.0720  175.9010  136.0540 N   0  0  0  0  0  0  0  0  0  0  0  0
  189.3330  176.8780  134.3560 O   0  0  0  0  0  0  0  0  0  0  0  0
  186.4640  174.5010  137.0860 C   0  0  0  0  0  2  0  0  0  0  0  0
  190.5850  176.2570  136.2670 C   0  0  0  0  0  0  0  0  0  0  0  0
  192.9910  175.8930  136.3010 C   0  0  0  0  0  3  0  0  0  0  0  0
  191.8320  176.4780  138.3440 C   0  0  0  0  0  3  0  0  0  0  0  0
  193.0160  176.1570  137.6740 C   0  0  0  0  0  3  0  0  0  0  0  0
  190.6220  176.5310  137.6420 C   0  0  0  0  0  3  0  0  0  0  0  0
  191.7830  175.9470  135.6000 C   0  0  0  0  0  3  0  0  0  0  0  0
  184.9630  179.1380  143.3040 C   0  0  0  0  0  2  0  0  0  0  0  0
  181.8280  178.2100  141.2410 C   0  0  0  0  0  2  0  0  0  0  0  0
  180.7500  178.7030  142.2150 C   0  0  1  0  0  3  0  0  0  0  0  0
  182.5320  179.0760  143.9680 C   0  0  0  0  0  2  0  0  0  0  0  0
  183.1850  178.8400  141.5480 C   0  0  0  0  0  2  0  0  0  0  0  0
  183.5880  178.5480  142.9940 C   0  0  1  0  0  3  0  0  0  0  0  0
  181.1710  178.4520  143.6660 C   0  0  0  0  0  2  0  0  0  0  0  0
  180.0060  180.2600  140.6280 C   0  0  0  0  0  1  0  0  0  0  0  0
  180.4690  180.1170  142.0010 N   0  0  0  0  0  2  0  0  0  0  0  0
  1  8  1  0  0  0  0
  1  6  2  0  0  0  0
  2 12  1  1  0  0  0
  3 16  1  6  0  0  0
  3 14  1  0  0  0  0
  3 10  1  0  0  0  0
  4 15  1  0  0  0  0
  4  8  2  0  0  0  0
  5  1  1  0  0  0  0
  7  4  1  0  0  0  0
  9  7  2  0  0  0  0
  9  5  1  0  0  0  0
 11 10  1  6  0  0  0
 11  2  1  0  0  0  0
 11  7  1  0  0  0  0
 12 15  1  0  0  0  0
 13 35  1  0  0  0  0
 13  2  1  0  0  0  0
 14 13  1  0  0  0  0
 17 19  1  0  0  0  0
 17 16  1  0  0  0  0
 18 16  2  0  0  0  0
 20 19  1  0  0  0  0
 21 20  1  0  0  0  0
 22 26  1  0  0  0  0
 22 25  1  0  0  0  0
 22 21  1  1  0  0  0
 23 28  1  0  0  0  0
 24 26  1  0  0  0  0
 24 29  1  0  0  0  0
 25 28  1  0  0  0  0
 26 23  1  0  0  0  0
 27 24  2  0  0  0  0
 29 33  1  0  0  0  0
 30 32  2  0  0  0  0
 32 31  1  0  0  0  0
 33 31  2  0  0  0  0
 34 29  2  0  0  0  0
 34 30  1  0  0  0  0
 36 39  1  0  0  0  0
 36 37  1  0  0  0  0
 37 43  1  1  0  0  0
 37 41  1  0  0  0  0
 39 40  1  0  0  0  0
 40 35  1  1  0  0  0
 40 38  1  0  0  0  0
 41 38  1  0  0  0  0
 42 43  1  0  0  0  0
M  END
>  <MODEL>
1

>  <REMARK>
 VINA RESULT:      -9.4      0.000      0.000
  Name = 
  9 active torsions:
  status: ('A' for Active; 'I' for Inactive)
    1  A    between atoms: C_1  and  N_34
    2  A    between atoms: C_1  and  C_35
    3  A    between atoms: C_2  and  C_13
    4  A    between atoms: C_3  and  C_4
    5  A    between atoms: C_3  and  C_12
    6  A    between atoms: N_6  and  C_17
    7  A    between atoms: C_11  and  C_14
    8  A    between atoms: C_12  and  C_17
    9  A    between atoms: C_19  and  N_37
                            x       y       z     vdW  Elec       q    Type
                         _______ _______ _______ _____ _____    ______ ____

>  <TORSDO>
F 9

$$$$
=
 OpenBabel10272414093D

 43 48  0  0  1  0  0  0  0  0999 V2000
  191.5840  176.5610  147.2840 C   0  0  0  0  0  0  0  0  0  0  0  0
  189.4430  177.1370  142.6620 C   0  0  2  0  0  3  0  0  0  0  0  0
  186.8760  178.4100  142.9950 C   0  0  1  0  0  3  0  0  0  0  0  0
  191.1540  176.5640  144.9340 C   0  0  0  0  0  0  0  0  0  0  0  0
  190.1770  176.9470  147.6310 C   0  0  0  0  0  2  0  0  0  0  0  0
  192.4350  176.4120  148.2000 O   0  0  0  0  0  0  0  0  0  0  0  0
  189.8260  177.1980  145.1730 C   0  0  0  0  0  0  0  0  0  0  0  0
  191.9480  176.2920  145.9250 N   0  0  0  0  0  0  0  0  0  0  0  0
  189.4260  177.4430  146.4290 C   0  0  0  0  0  3  0  0  0  0  0  0
  187.5520  177.7520  144.1950 C   0  0  0  0  0  2  0  0  0  0  0  0
  189.0700  177.7970  144.0070 C   0  0  2  0  0  3  0  0  0  0  0  0
  190.9680  177.1600  142.5150 C   0  0  0  0  0  2  0  0  0  0  0  0
  188.7810  177.8450  141.5520 N   0  0  0  0  0  0  0  0  0  0  0  0
  187.3320  177.7170  141.7150 C   0  0  0  0  0  2  0  0  0  0  0  0
  191.5910  176.2180  143.5410 C   0  0  0  0  0  2  0  0  0  0  0  0
  185.3830  178.3630  143.1170 C   0  0  0  0  0  0  0  0  0  0  0  0
  184.5500  178.7540  142.0200 N   0  0  0  0  0  2  0  0  0  0  0  0
  184.8480  177.9610  144.1850 O   0  0  0  0  0  0  0  0  0  0  0  0
  185.0830  179.0940  140.7090 C   0  0  0  0  0  2  0  0  0  0  0  0
  184.0580  178.7710  139.6390 C   0  0  0  0  0  2  0  0  0  0  0  0
  183.2160  177.5920  140.0810 C   0  0  0  0  0  2  0  0  0  0  0  0
  182.0200  177.4270  139.1530 C   0  0  2  0  0  3  0  0  0  0  0  0
  181.0170  175.2300  138.9530 C   0  0  0  0  0  2  0  0  0  0  0  0
  182.9140  175.8470  137.3810 C   0  0  0  0  0  0  0  0  0  0  0  0
  180.7410  177.4210  139.9710 C   0  0  0  0  0  2  0  0  0  0  0  0
  182.0710  176.1240  138.5110 N   0  0  0  0  0  0  0  0  0  0  0  0
  183.2710  176.7970  136.6310 O   0  0  0  0  0  0  0  0  0  0  0  0
  180.2760  175.9720  140.0490 C   0  0  0  0  0  2  0  0  0  0  0  0
  183.4030  174.4790  137.0940 C   0  0  0  0  0  0  0  0  0  0  0  0
  183.2510  172.4260  135.7960 C   0  0  0  0  0  3  0  0  0  0  0  0
  185.0090  172.6850  137.4410 C   0  0  0  0  0  3  0  0  0  0  0  0
  184.3690  171.9150  136.4640 C   0  0  0  0  0  3  0  0  0  0  0  0
  184.5300  173.9630  137.7510 C   0  0  0  0  0  3  0  0  0  0  0  0
  182.7740  173.7020  136.1060 C   0  0  0  0  0  3  0  0  0  0  0  0
  189.0980  177.1630  140.2990 C   0  0  0  0  0  2  0  0  0  0  0  0
  186.8990  177.6400  137.1550 C   0  0  0  0  0  2  0  0  0  0  0  0
  187.9400  178.2910  136.2350 C   0  0  1  0  0  3  0  0  0  0  0  0
  189.5200  178.4890  138.1970 C   0  0  0  0  0  2  0  0  0  0  0  0
  187.5650  176.9090  138.3190 C   0  0  0  0  0  2  0  0  0  0  0  0
  188.4560  177.8700  139.1060 C   0  0  1  0  0  3  0  0  0  0  0  0
  188.8620  179.2210  137.0290 C   0  0  0  0  0  2  0  0  0  0  0  0
  187.9240  176.8400  134.3940 C   0  0  0  0  0  1  0  0  0  0  0  0
  188.7170  177.2760  135.5340 N   0  0  0  0  0  2  0  0  0  0  0  0
  1  5  1  0  0  0  0
  1  6  2  0  0  0  0
  2 12  1  6  0  0  0
  2 11  1  0  0  0  0
  3 16  1  1  0  0  0
  3 10  1  0  0  0  0
  4  7  1  0  0  0  0
  4  8  2  0  0  0  0
  7  9  2  0  0  0  0
  8  1  1  0  0  0  0
  9  5  1  0  0  0  0
 11 10  1  1  0  0  0
 11  7  1  0  0  0  0
 12 15  1  0  0  0  0
 13 14  1  0  0  0  0
 13  2  1  0  0  0  0
 14  3  1  0  0  0  0
 15  4  1  0  0  0  0
 16 18  2  0  0  0  0
 17 16  1  0  0  0  0
 19 17  1  0  0  0  0
 20 21  1  0  0  0  0
 20 19  1  0  0  0  0
 22 25  1  0  0  0  0
 22 21  1  1  0  0  0
 23 28  1  0  0  0  0
 24 26  1  0  0  0  0
 25 28  1  0  0  0  0
 26 23  1  0  0  0  0
 26 22  1  0  0  0  0
 27 24  2  0  0  0  0
 29 24  1  0  0  0  0
 29 33  1  0  0  0  0
 30 34  1  0  0  0  0
 30 32  2  0  0  0  0
 31 33  2  0  0  0  0
 32 31  1  0  0  0  0
 34 29  2  0  0  0  0
 35 13  1  0  0  0  0
 36 39  1  0  0  0  0
 37 43  1  1  0  0  0
 37 41  1  0  0  0  0
 37 36  1  0  0  0  0
 38 40  1  0  0  0  0
 39 40  1  0  0  0  0
 40 35  1  1  0  0  0
 41 38  1  0  0  0  0
 42 43  1  0  0  0  0
M  END
>  <MODEL>
2

>  <REMARK>
 VINA RESULT:      -9.2      2.661      6.182
  Name = 
  9 active torsions:
  status: ('A' for Active; 'I' for Inactive)
    1  A    between atoms: C_1  and  N_34
    2  A    between atoms: C_1  and  C_35
    3  A    between atoms: C_2  and  C_13
    4  A    between atoms: C_3  and  C_4
    5  A    between atoms: C_3  and  C_12
    6  A    between atoms: N_6  and  C_17
    7  A    between atoms: C_11  and  C_14
    8  A    between atoms: C_12  and  C_17
    9  A    between atoms: C_19  and  N_37
                            x       y       z     vdW  Elec       q    Type
                         _______ _______ _______ _____ _____    ______ ____

>  <TORSDO>
F 9

$$$$
=
 OpenBabel10272414093D

 43 48  0  0  1  0  0  0  0  0999 V2000
  194.2670  175.6300  137.1520 C   0  0  0  0  0  0  0  0  0  0  0  0
  190.2620  177.6170  139.6620 C   0  0  2  0  0  3  0  0  0  0  0  0
  187.9870  177.6290  137.8910 C   0  0  1  0  0  3  0  0  0  0  0  0
  192.8350  176.5800  138.8130 C   0  0  0  0  0  0  0  0  0  0  0  0
  193.2720  175.8420  136.0490 C   0  0  0  0  0  2  0  0  0  0  0  0
  195.3660  175.0690  136.9040 O   0  0  0  0  0  0  0  0  0  0  0  0
  191.7040  176.5840  137.8420 C   0  0  0  0  0  0  0  0  0  0  0  0
  194.0020  176.1230  138.4710 N   0  0  0  0  0  0  0  0  0  0  0  0
  191.9070  176.1600  136.5870 C   0  0  0  0  0  3  0  0  0  0  0  0
  189.3910  177.4790  137.3120 C   0  0  0  0  0  2  0  0  0  0  0  0
  190.2950  176.8090  138.3480 C   0  0  2  0  0  3  0  0  0  0  0  0
  191.2040  176.9490  140.6690 C   0  0  0  0  0  2  0  0  0  0  0  0
  188.8830  177.6900  140.1760 N   0  0  0  0  0  0  0  0  0  0  0  0
  188.0590  178.4070  139.2010 C   0  0  0  0  0  2  0  0  0  0  0  0
  192.6470  177.1140  140.2020 C   0  0  0  0  0  2  0  0  0  0  0  0
  187.0680  178.3110  136.9230 C   0  0  0  0  0  0  0  0  0  0  0  0
  185.8630  177.6720  136.4870 N   0  0  0  0  0  2  0  0  0  0  0  0
  187.3420  179.4660  136.4970 O   0  0  0  0  0  0  0  0  0  0  0  0
  185.4020  176.4050  137.0360 C   0  0  0  0  0  2  0  0  0  0  0  0
  183.9150  176.4810  137.3220 C   0  0  0  0  0  2  0  0  0  0  0  0
  183.4910  177.9310  137.4330 C   0  0  0  0  0  2  0  0  0  0  0  0
  182.0220  178.0190  137.8240 C   0  0  2  0  0  3  0  0  0  0  0  0
  181.3130  179.8730  139.2130 C   0  0  0  0  0  2  0  0  0  0  0  0
  182.1080  177.7440  140.3450 C   0  0  0  0  0  0  0  0  0  0  0  0
  181.3200  179.0270  136.9330 C   0  0  0  0  0  2  0  0  0  0  0  0
  181.9030  178.5480  139.1730 N   0  0  0  0  0  0  0  0  0  0  0  0
  181.9390  176.4950  140.2730 O   0  0  0  0  0  0  0  0  0  0  0  0
  181.1240  180.2880  137.7660 C   0  0  0  0  0  2  0  0  0  0  0  0
  182.5480  178.3380  141.6280 C   0  0  0  0  0  0  0  0  0  0  0  0
  182.0080  179.1640  143.8530 C   0  0  0  0  0  3  0  0  0  0  0  0
  184.3170  179.0730  143.1290 C   0  0  0  0  0  3  0  0  0  0  0  0
  183.3660  179.3820  144.1070 C   0  0  0  0  0  3  0  0  0  0  0  0
  183.9090  178.5500  141.8960 C   0  0  0  0  0  3  0  0  0  0  0  0
  181.6020  178.6410  142.6220 C   0  0  0  0  0  3  0  0  0  0  0  0
  188.8700  178.5140  141.3830 C   0  0  0  0  0  2  0  0  0  0  0  0
  187.1760  176.6290  144.3020 C   0  0  0  0  0  2  0  0  0  0  0  0
  188.0370  177.1570  145.4560 C   0  0  1  0  0  3  0  0  0  0  0  0
  189.6000  178.2190  143.7770 C   0  0  0  0  0  2  0  0  0  0  0  0
  187.2860  177.5250  143.0700 C   0  0  0  0  0  2  0  0  0  0  0  0
  188.7470  177.6530  142.6390 C   0  0  1  0  0  3  0  0  0  0  0  0
  189.4940  177.3280  145.0140 C   0  0  0  0  0  2  0  0  0  0  0  0
  186.1520  178.1520  146.4340 C   0  0  0  0  0  1  0  0  0  0  0  0
  187.5050  178.4160  145.9640 N   0  0  0  0  0  2  0  0  0  0  0  0
  1  8  1  0  0  0  0
  2 13  1  0  0  0  0
  2 12  1  1  0  0  0
  3 16  1  6  0  0  0
  3 14  1  0  0  0  0
  4 15  1  0  0  0  0
  5  9  1  0  0  0  0
  5  1  1  0  0  0  0
  6  1  2  0  0  0  0
  7 11  1  0  0  0  0
  7  4  1  0  0  0  0
  8  4  2  0  0  0  0
  9  7  2  0  0  0  0
 10  3  1  0  0  0  0
 11 10  1  6  0  0  0
 11  2  1  0  0  0  0
 13 35  1  0  0  0  0
 14 13  1  0  0  0  0
 15 12  1  0  0  0  0
 17 16  1  0  0  0  0
 17 19  1  0  0  0  0
 18 16  2  0  0  0  0
 19 20  1  0  0  0  0
 20 21  1  0  0  0  0
 22 21  1  6  0  0  0
 22 26  1  0  0  0  0
 24 29  1  0  0  0  0
 25 28  1  0  0  0  0
 25 22  1  0  0  0  0
 26 23  1  0  0  0  0
 26 24  1  0  0  0  0
 27 24  2  0  0  0  0
 28 23  1  0  0  0  0
 29 33  2  0  0  0  0
 29 34  1  0  0  0  0
 30 32  1  0  0  0  0
 31 32  2  0  0  0  0
 33 31  1  0  0  0  0
 34 30  2  0  0  0  0
 36 37  1  0  0  0  0
 37 43  1  6  0  0  0
 38 41  1  0  0  0  0
 39 36  1  0  0  0  0
 40 35  1  6  0  0  0
 40 39  1  0  0  0  0
 40 38  1  0  0  0  0
 41 37  1  0  0  0  0
 43 42  1  0  0  0  0
M  END
>  <MODEL>
3

>  <REMARK>
 VINA RESULT:      -9.1      2.599      7.587
  Name = 
  9 active torsions:
  status: ('A' for Active; 'I' for Inactive)
    1  A    between atoms: C_1  and  N_34
    2  A    between atoms: C_1  and  C_35
    3  A    between atoms: C_2  and  C_13
    4  A    between atoms: C_3  and  C_4
    5  A    between atoms: C_3  and  C_12
    6  A    between atoms: N_6  and  C_17
    7  A    between atoms: C_11  and  C_14
    8  A    between atoms: C_12  and  C_17
    9  A    between atoms: C_19  and  N_37
                            x       y       z     vdW  Elec       q    Type
                         _______ _______ _______ _____ _____    ______ ____

>  <TORSDO>
F 9

$$$$
=
 OpenBabel10272414093D

 43 48  0  0  1  0  0  0  0  0999 V2000
  187.9010  177.6470  148.0560 C   0  0  0  0  0  0  0  0  0  0  0  0
  186.5610  178.4980  143.1810 C   0  0  2  0  0  3  0  0  0  0  0  0
  188.6070  177.4070  141.4660 C   0  0  1  0  0  3  0  0  0  0  0  0
  186.7450  178.3020  146.0700 C   0  0  0  0  0  0  0  0  0  0  0  0
  189.1600  177.3050  147.3150 C   0  0  0  0  0  2  0  0  0  0  0  0
  187.8420  177.4750  149.3020 O   0  0  0  0  0  0  0  0  0  0  0  0
  187.8480  177.7430  145.2380 C   0  0  0  0  0  0  0  0  0  0  0  0
  186.7910  178.2320  147.3660 N   0  0  0  0  0  0  0  0  0  0  0  0
  188.9230  177.2100  145.8350 C   0  0  0  0  0  3  0  0  0  0  0  0
  188.9160  177.6640  142.9380 C   0  0  0  0  0  2  0  0  0  0  0  0
  187.6280  177.5410  143.7540 C   0  0  2  0  0  3  0  0  0  0  0  0
  185.2950  178.3840  144.0370 C   0  0  0  0  0  2  0  0  0  0  0  0
  186.2920  178.1670  141.7700 N   0  0  0  0  0  0  0  0  0  0  0  0
  187.5210  178.3720  141.0010 C   0  0  0  0  0  2  0  0  0  0  0  0
  185.5650  178.9640  145.4220 C   0  0  0  0  0  2  0  0  0  0  0  0
  189.8350  177.5480  140.6180 C   0  0  0  0  0  0  0  0  0  0  0  0
  189.7290  177.6600  139.1950 N   0  0  0  0  0  2  0  0  0  0  0  0
  190.9750  177.5870  141.1570 O   0  0  0  0  0  0  0  0  0  0  0  0
  188.4510  177.7670  138.5070 C   0  0  0  0  0  2  0  0  0  0  0  0
  188.1370  176.4620  137.8020 C   0  0  0  0  0  2  0  0  0  0  0  0
  186.7160  176.4950  137.2790 C   0  0  0  0  0  2  0  0  0  0  0  0
  186.7050  176.2550  135.7760 C   0  0  2  0  0  3  0  0  0  0  0  0
  184.6540  175.4680  134.7540 C   0  0  0  0  0  2  0  0  0  0  0  0
  186.3130  173.7530  135.6230 C   0  0  0  0  0  0  0  0  0  0  0  0
  186.0500  177.4330  135.0790 C   0  0  0  0  0  2  0  0  0  0  0  0
  185.8660  175.1090  135.4660 N   0  0  0  0  0  0  0  0  0  0  0  0
  187.5500  173.5020  135.5800 O   0  0  0  0  0  0  0  0  0  0  0  0
  184.6490  176.9830  134.6800 C   0  0  0  0  0  2  0  0  0  0  0  0
  185.3620  172.6450  135.8680 C   0  0  0  0  0  0  0  0  0  0  0  0
  183.5370  171.6950  137.1680 C   0  0  0  0  0  3  0  0  0  0  0  0
  184.3620  170.5250  135.2150 C   0  0  0  0  0  3  0  0  0  0  0  0
  183.4840  170.5980  136.3020 C   0  0  0  0  0  3  0  0  0  0  0  0
  185.2940  171.5460  134.9980 C   0  0  0  0  0  3  0  0  0  0  0  0
  184.4680  172.7150  136.9500 C   0  0  0  0  0  3  0  0  0  0  0  0
  185.3290  179.1270  141.2340 C   0  0  0  0  0  2  0  0  0  0  0  0
  183.1620  178.3700  138.1230 C   0  0  0  0  0  2  0  0  0  0  0  0
  181.7870  178.3180  138.8000 C   0  0  1  0  0  3  0  0  0  0  0  0
  182.9170  178.4170  141.0580 C   0  0  0  0  0  2  0  0  0  0  0  0
  184.1840  179.1000  138.9930 C   0  0  0  0  0  2  0  0  0  0  0  0
  184.2810  178.4320  140.3650 C   0  0  1  0  0  3  0  0  0  0  0  0
  181.8890  177.6890  140.1930 C   0  0  0  0  0  2  0  0  0  0  0  0
  181.1300  180.1710  137.5230 C   0  0  0  0  0  1  0  0  0  0  0  0
  181.2000  179.6490  138.8810 N   0  0  0  0  0  2  0  0  0  0  0  0
  1  6  2  0  0  0  0
  2 11  1  0  0  0  0
  2 12  1  1  0  0  0
  3 16  1  6  0  0  0
  3 10  1  0  0  0  0
  4  8  2  0  0  0  0
  5  1  1  0  0  0  0
  7  9  2  0  0  0  0
  7  4  1  0  0  0  0
  8  1  1  0  0  0  0
  9  5  1  0  0  0  0
 11 10  1  6  0  0  0
 11  7  1  0  0  0  0
 12 15  1  0  0  0  0
 13  2  1  0  0  0  0
 14  3  1  0  0  0  0
 14 13  1  0  0  0  0
 15  4  1  0  0  0  0
 16 18  2  0  0  0  0
 17 16  1  0  0  0  0
 19 17  1  0  0  0  0
 20 19  1  0  0  0  0
 21 20  1  0  0  0  0
 22 21  1  1  0  0  0
 23 26  1  0  0  0  0
 24 29  1  0  0  0  0
 25 22  1  0  0  0  0
 26 24  1  0  0  0  0
 26 22  1  0  0  0  0
 27 24  2  0  0  0  0
 28 23  1  0  0  0  0
 28 25  1  0  0  0  0
 29 34  1  0  0  0  0
 31 32  2  0  0  0  0
 32 30  1  0  0  0  0
 33 31  1  0  0  0  0
 33 29  2  0  0  0  0
 34 30  2  0  0  0  0
 35 13  1  0  0  0  0
 36 37  1  0  0  0  0
 36 39  1  0  0  0  0
 37 43  1  1  0  0  0
 37 41  1  0  0  0  0
 39 40  1  0  0  0  0
 40 38  1  0  0  0  0
 40 35  1  1  0  0  0
 41 38  1  0  0  0  0
 42 43  1  0  0  0  0
M  END
>  <MODEL>
4

>  <REMARK>
 VINA RESULT:      -9.0      2.461      4.258
  Name = 
  9 active torsions:
  status: ('A' for Active; 'I' for Inactive)
    1  A    between atoms: C_1  and  N_34
    2  A    between atoms: C_1  and  C_35
    3  A    between atoms: C_2  and  C_13
    4  A    between atoms: C_3  and  C_4
    5  A    between atoms: C_3  and  C_12
    6  A    between atoms: N_6  and  C_17
    7  A    between atoms: C_11  and  C_14
    8  A    between atoms: C_12  and  C_17
    9  A    between atoms: C_19  and  N_37
                            x       y       z     vdW  Elec       q    Type
                         _______ _______ _______ _____ _____    ______ ____

>  <TORSDO>
F 9

$$$$
=
 OpenBabel10272414093D

 43 48  0  0  1  0  0  0  0  0999 V2000
  190.8290  176.6570  146.4880 C   0  0  0  0  0  0  0  0  0  0  0  0
  187.3440  178.0520  142.9960 C   0  0  2  0  0  3  0  0  0  0  0  0
  188.4760  177.6730  140.3710 C   0  0  1  0  0  3  0  0  0  0  0  0
  188.8410  177.4080  145.3970 C   0  0  0  0  0  0  0  0  0  0  0  0
  191.6380  176.6890  145.2250 C   0  0  0  0  0  2  0  0  0  0  0  0
  191.3610  176.2690  147.5610 O   0  0  0  0  0  0  0  0  0  0  0  0
  189.4910  177.2160  144.0690 C   0  0  0  0  0  0  0  0  0  0  0  0
  189.4780  177.1310  146.4950 N   0  0  0  0  0  0  0  0  0  0  0  0
  190.7640  176.8030  144.0090 C   0  0  0  0  0  3  0  0  0  0  0  0
  189.3960  177.7300  141.5870 C   0  0  0  0  0  2  0  0  0  0  0  0
  188.6390  177.2300  142.8180 C   0  0  2  0  0  3  0  0  0  0  0  0
  186.6240  177.5590  144.2550 C   0  0  0  0  0  2  0  0  0  0  0  0
  186.4940  177.9200  141.8000 N   0  0  0  0  0  0  0  0  0  0  0  0
  187.2130  178.4790  140.6530 C   0  0  0  0  0  2  0  0  0  0  0  0
  187.4400  177.9360  145.4880 C   0  0  0  0  0  2  0  0  0  0  0  0
  189.1640  178.1830  139.1420 C   0  0  0  0  0  0  0  0  0  0  0  0
  190.0120  177.3250  138.3710 N   0  0  0  0  0  2  0  0  0  0  0  0
  188.9860  179.3740  138.7660 O   0  0  0  0  0  0  0  0  0  0  0  0
  190.1580  175.9050  138.6530 C   0  0  0  0  0  2  0  0  0  0  0  0
  191.0880  175.2720  137.6350 C   0  0  0  0  0  2  0  0  0  0  0  0
  190.5170  173.9460  137.1790 C   0  0  0  0  0  2  0  0  0  0  0  0
  190.1340  174.0200  135.7070 C   0  0  2  0  0  3  0  0  0  0  0  0
  188.0500  175.1080  135.1180 C   0  0  0  0  0  2  0  0  0  0  0  0
  188.0200  172.6190  135.6200 C   0  0  0  0  0  0  0  0  0  0  0  0
  190.4640  175.3990  135.1660 C   0  0  0  0  0  2  0  0  0  0  0  0
  188.6920  173.8870  135.5660 N   0  0  0  0  0  0  0  0  0  0  0  0
  188.6570  171.5700  135.3250 O   0  0  0  0  0  0  0  0  0  0  0  0
  189.1460  176.1550  135.0560 C   0  0  0  0  0  2  0  0  0  0  0  0
  186.6060  172.5070  136.0450 C   0  0  0  0  0  0  0  0  0  0  0  0
  184.3320  171.7650  135.5960 C   0  0  0  0  0  3  0  0  0  0  0  0
  184.8700  172.7790  137.7280 C   0  0  0  0  0  3  0  0  0  0  0  0
  183.9350  172.1980  136.8660 C   0  0  0  0  0  3  0  0  0  0  0  0
  186.2010  172.9290  137.3200 C   0  0  0  0  0  3  0  0  0  0  0  0
  185.6610  171.9140  135.1900 C   0  0  0  0  0  3  0  0  0  0  0  0
  185.3070  178.7570  141.9670 C   0  0  0  0  0  2  0  0  0  0  0  0
  183.1860  178.6910  138.7350 C   0  0  0  0  0  2  0  0  0  0  0  0
  181.7930  178.8130  139.3650 C   0  0  1  0  0  3  0  0  0  0  0  0
  182.8200  178.4970  141.6520 C   0  0  0  0  0  2  0  0  0  0  0  0
  184.2770  179.1450  139.7040 C   0  0  0  0  0  2  0  0  0  0  0  0
  184.1970  178.3420  141.0020 C   0  0  1  0  0  3  0  0  0  0  0  0
  181.7240  178.0450  140.6880 C   0  0  0  0  0  2  0  0  0  0  0  0
  181.3540  180.8280  138.2490 C   0  0  0  0  0  1  0  0  0  0  0  0
  181.4380  180.2120  139.5660 N   0  0  0  0  0  2  0  0  0  0  0  0
  1  8  1  0  0  0  0
  1  6  2  0  0  0  0
  2 12  1  1  0  0  0
  3 16  1  6  0  0  0
  3 14  1  0  0  0  0
  3 10  1  0  0  0  0
  4 15  1  0  0  0  0
  4  8  2  0  0  0  0
  5  1  1  0  0  0  0
  7  4  1  0  0  0  0
  9  7  2  0  0  0  0
  9  5  1  0  0  0  0
 11 10  1  6  0  0  0
 11  2  1  0  0  0  0
 11  7  1  0  0  0  0
 12 15  1  0  0  0  0
 13 35  1  0  0  0  0
 13  2  1  0  0  0  0
 14 13  1  0  0  0  0
 17 19  1  0  0  0  0
 17 16  1  0  0  0  0
 18 16  2  0  0  0  0
 20 19  1  0  0  0  0
 21 20  1  0  0  0  0
 22 21  1  1  0  0  0
 23 26  1  0  0  0  0
 24 29  1  0  0  0  0
 25 22  1  0  0  0  0
 26 24  1  0  0  0  0
 26 22  1  0  0  0  0
 27 24  2  0  0  0  0
 28 23  1  0  0  0  0
 28 25  1  0  0  0  0
 29 33  1  0  0  0  0
 30 32  2  0  0  0  0
 32 31  1  0  0  0  0
 33 31  2  0  0  0  0
 34 30  1  0  0  0  0
 34 29  2  0  0  0  0
 36 37  1  0  0  0  0
 36 39  1  0  0  0  0
 37 43  1  1  0  0  0
 37 41  1  0  0  0  0
 39 40  1  0  0  0  0
 40 38  1  0  0  0  0
 40 35  1  1  0  0  0
 41 38  1  0  0  0  0
 42 43  1  0  0  0  0
M  END
>  <MODEL>
5

>  <REMARK>
 VINA RESULT:      -8.9      1.964      3.883
  Name = 
  9 active torsions:
  status: ('A' for Active; 'I' for Inactive)
    1  A    between atoms: C_1  and  N_34
    2  A    between atoms: C_1  and  C_35
    3  A    between atoms: C_2  and  C_13
    4  A    between atoms: C_3  and  C_4
    5  A    between atoms: C_3  and  C_12
    6  A    between atoms: N_6  and  C_17
    7  A    between atoms: C_11  and  C_14
    8  A    between atoms: C_12  and  C_17
    9  A    between atoms: C_19  and  N_37
                            x       y       z     vdW  Elec       q    Type
                         _______ _______ _______ _____ _____    ______ ____

>  <TORSDO>
F 9

$$$$
=
 OpenBabel10272414093D

 43 48  0  0  1  0  0  0  0  0999 V2000
  182.2420  179.6010  139.8560 C   0  0  0  0  0  0  0  0  0  0  0  0
  186.2450  177.9840  142.6200 C   0  0  2  0  0  3  0  0  0  0  0  0
  188.6010  178.0770  140.9590 C   0  0  1  0  0  3  0  0  0  0  0  0
  183.6520  178.8090  141.6140 C   0  0  0  0  0  0  0  0  0  0  0  0
  183.3020  179.4250  138.8090 C   0  0  0  0  0  2  0  0  0  0  0  0
  181.1200  180.0740  139.5360 O   0  0  0  0  0  0  0  0  0  0  0  0
  184.8270  178.8540  140.6990 C   0  0  0  0  0  0  0  0  0  0  0  0
  182.4740  179.1710  141.2010 N   0  0  0  0  0  0  0  0  0  0  0  0
  184.6580  179.2210  139.4210 C   0  0  0  0  0  3  0  0  0  0  0  0
  187.2210  178.1080  140.3100 C   0  0  0  0  0  2  0  0  0  0  0  0
  186.2220  178.7460  141.2770 C   0  0  2  0  0  3  0  0  0  0  0  0
  185.2110  178.6160  143.5570 C   0  0  0  0  0  2  0  0  0  0  0  0
  187.5990  178.0260  143.2000 N   0  0  0  0  0  0  0  0  0  0  0  0
  188.5180  177.3390  142.2910 C   0  0  0  0  0  2  0  0  0  0  0  0
  183.8080  178.3340  143.0290 C   0  0  0  0  0  2  0  0  0  0  0  0
  189.6120  177.4310  140.0610 C   0  0  0  0  0  0  0  0  0  0  0  0
  189.5940  177.6740  138.6500 N   0  0  0  0  0  2  0  0  0  0  0  0
  190.5000  176.6780  140.5460 O   0  0  0  0  0  0  0  0  0  0  0  0
  188.6960  178.6360  138.0290 C   0  0  0  0  0  2  0  0  0  0  0  0
  187.9910  177.9940  136.8500 C   0  0  0  0  0  2  0  0  0  0  0  0
  186.9580  177.0060  137.3510 C   0  0  0  0  0  2  0  0  0  0  0  0
  186.4370  176.1630  136.1960 C   0  0  2  0  0  3  0  0  0  0  0  0
  184.1850  176.5730  135.4010 C   0  0  0  0  0  2  0  0  0  0  0  0
  184.5240  174.8860  137.2680 C   0  0  0  0  0  0  0  0  0  0  0  0
  186.5350  176.9550  134.9050 C   0  0  0  0  0  2  0  0  0  0  0  0
  185.0180  175.9000  136.3790 N   0  0  0  0  0  0  0  0  0  0  0  0
  185.2630  173.9040  137.5550 O   0  0  0  0  0  0  0  0  0  0  0  0
  185.1250  177.4270  134.5710 C   0  0  0  0  0  2  0  0  0  0  0  0
  183.1810  174.9820  137.8850 C   0  0  0  0  0  0  0  0  0  0  0  0
  181.7110  175.9330  139.5750 C   0  0  0  0  0  3  0  0  0  0  0  0
  180.8080  174.4440  137.8920 C   0  0  0  0  0  3  0  0  0  0  0  0
  180.6230  175.2530  139.0180 C   0  0  0  0  0  3  0  0  0  0  0  0
  182.0810  174.3120  137.3270 C   0  0  0  0  0  3  0  0  0  0  0  0
  182.9820  175.8020  139.0090 C   0  0  0  0  0  3  0  0  0  0  0  0
  187.6100  177.2450  144.4350 C   0  0  0  0  0  2  0  0  0  0  0  0
  191.2130  177.5630  145.8000 C   0  0  0  0  0  2  0  0  0  0  0  0
  190.9420  177.2110  147.2680 C   0  0  1  0  0  3  0  0  0  0  0  0
  188.4580  177.2950  146.8090 C   0  0  0  0  0  2  0  0  0  0  0  0
  190.0790  177.0860  144.8940 C   0  0  0  0  0  2  0  0  0  0  0  0
  188.7490  177.6810  145.3560 C   0  0  1  0  0  3  0  0  0  0  0  0
  189.5880  177.7680  147.7210 C   0  0  0  0  0  2  0  0  0  0  0  0
  192.3940  175.4140  147.6660 C   0  0  0  0  0  1  0  0  0  0  0  0
  190.9950  175.7690  147.4720 N   0  0  0  0  0  2  0  0  0  0  0  0
  1  8  1  0  0  0  0
  2 13  1  0  0  0  0
  2 12  1  1  0  0  0
  3 16  1  6  0  0  0
  3 14  1  0  0  0  0
  4 15  1  0  0  0  0
  5  9  1  0  0  0  0
  5  1  1  0  0  0  0
  6  1  2  0  0  0  0
  7 11  1  0  0  0  0
  7  4  1  0  0  0  0
  8  4  2  0  0  0  0
  9  7  2  0  0  0  0
 10  3  1  0  0  0  0
 11 10  1  6  0  0  0
 11  2  1  0  0  0  0
 13 35  1  0  0  0  0
 14 13  1  0  0  0  0
 15 12  1  0  0  0  0
 16 18  2  0  0  0  0
 17 16  1  0  0  0  0
 19 17  1  0  0  0  0
 20 21  1  0  0  0  0
 20 19  1  0  0  0  0
 22 26  1  0  0  0  0
 22 21  1  1  0  0  0
 23 26  1  0  0  0  0
 24 27  2  0  0  0  0
 24 29  1  0  0  0  0
 25 22  1  0  0  0  0
 26 24  1  0  0  0  0
 28 25  1  0  0  0  0
 28 23  1  0  0  0  0
 29 34  1  0  0  0  0
 31 32  2  0  0  0  0
 32 30  1  0  0  0  0
 33 29  2  0  0  0  0
 33 31  1  0  0  0  0
 34 30  2  0  0  0  0
 36 37  1  0  0  0  0
 37 43  1  6  0  0  0
 37 41  1  0  0  0  0
 38 41  1  0  0  0  0
 39 40  1  0  0  0  0
 39 36  1  0  0  0  0
 40 35  1  6  0  0  0
 40 38  1  0  0  0  0
 43 42  1  0  0  0  0
M  END
>  <MODEL>
6

>  <REMARK>
 VINA RESULT:      -8.9      2.587      7.488
  Name = 
  9 active torsions:
  status: ('A' for Active; 'I' for Inactive)
    1  A    between atoms: C_1  and  N_34
    2  A    between atoms: C_1  and  C_35
    3  A    between atoms: C_2  and  C_13
    4  A    between atoms: C_3  and  C_4
    5  A    between atoms: C_3  and  C_12
    6  A    between atoms: N_6  and  C_17
    7  A    between atoms: C_11  and  C_14
    8  A    between atoms: C_12  and  C_17
    9  A    between atoms: C_19  and  N_37
                            x       y       z     vdW  Elec       q    Type
                         _______ _______ _______ _____ _____    ______ ____

>  <TORSDO>
F 9

$$$$
=
 OpenBabel10272414093D

 43 48  0  0  1  0  0  0  0  0999 V2000
  190.8900  176.4230  146.5100 C   0  0  0  0  0  0  0  0  0  0  0  0
  187.1090  178.2710  143.5820 C   0  0  2  0  0  3  0  0  0  0  0  0
  187.8140  177.8700  140.8150 C   0  0  1  0  0  3  0  0  0  0  0  0
  188.8550  177.4030  145.7300 C   0  0  0  0  0  0  0  0  0  0  0  0
  191.5120  176.4170  145.1450 C   0  0  0  0  0  2  0  0  0  0  0  0
  191.5250  175.9490  147.4880 O   0  0  0  0  0  0  0  0  0  0  0  0
  189.2880  177.1920  144.3200 C   0  0  0  0  0  0  0  0  0  0  0  0
  189.6090  177.0280  146.7200 N   0  0  0  0  0  0  0  0  0  0  0  0
  190.4910  176.6570  144.0700 C   0  0  0  0  0  3  0  0  0  0  0  0
  188.8980  177.7950  141.8870 C   0  0  0  0  0  2  0  0  0  0  0  0
  188.2740  177.3320  143.2050 C   0  0  2  0  0  3  0  0  0  0  0  0
  186.5260  177.8100  144.9220 C   0  0  0  0  0  2  0  0  0  0  0  0
  186.0900  178.2640  142.5180 N   0  0  0  0  0  0  0  0  0  0  0  0
  186.6930  178.7880  141.2900 C   0  0  0  0  0  2  0  0  0  0  0  0
  187.5420  178.0640  146.0320 C   0  0  0  0  0  2  0  0  0  0  0  0
  188.3710  178.3500  139.5090 C   0  0  0  0  0  0  0  0  0  0  0  0
  187.7860  177.9350  138.2700 N   0  0  0  0  0  2  0  0  0  0  0  0
  189.3530  179.1420  139.4930 O   0  0  0  0  0  0  0  0  0  0  0  0
  186.5680  177.1410  138.2020 C   0  0  0  0  0  2  0  0  0  0  0  0
  185.4590  177.9550  137.5660 C   0  0  0  0  0  2  0  0  0  0  0  0
  184.1240  177.5380  138.1480 C   0  0  0  0  0  2  0  0  0  0  0  0
  183.0500  177.5680  137.0690 C   0  0  2  0  0  3  0  0  0  0  0  0
  181.2260  175.9800  137.2230 C   0  0  0  0  0  2  0  0  0  0  0  0
  183.3240  175.3010  135.9630 C   0  0  0  0  0  0  0  0  0  0  0  0
  181.8310  178.3070  137.5870 C   0  0  0  0  0  2  0  0  0  0  0  0
  182.5920  176.2150  136.7940 N   0  0  0  0  0  0  0  0  0  0  0  0
  184.1110  175.7570  135.0880 O   0  0  0  0  0  0  0  0  0  0  0  0
  180.7870  177.2500  137.9270 C   0  0  0  0  0  2  0  0  0  0  0  0
  183.2030  173.8340  136.1290 C   0  0  0  0  0  0  0  0  0  0  0  0
  182.0730  171.7470  135.5920 C   0  0  0  0  0  3  0  0  0  0  0  0
  184.0450  171.7220  136.9960 C   0  0  0  0  0  3  0  0  0  0  0  0
  183.0080  171.0390  136.3530 C   0  0  0  0  0  3  0  0  0  0  0  0
  184.1430  173.1140  136.8820 C   0  0  0  0  0  3  0  0  0  0  0  0
  182.1730  173.1360  135.4770 C   0  0  0  0  0  3  0  0  0  0  0  0
  185.0310  179.2090  142.8690 C   0  0  0  0  0  2  0  0  0  0  0  0
  181.6820  178.0140  141.3500 C   0  0  0  0  0  2  0  0  0  0  0  0
  180.7310  178.5390  142.4330 C   0  0  1  0  0  3  0  0  0  0  0  0
  182.7240  179.1080  143.8790 C   0  0  0  0  0  2  0  0  0  0  0  0
  183.0380  178.7150  141.4130 C   0  0  0  0  0  2  0  0  0  0  0  0
  183.6550  178.5470  142.8020 C   0  0  1  0  0  3  0  0  0  0  0  0
  181.3650  178.4130  143.8220 C   0  0  0  0  0  2  0  0  0  0  0  0
  179.9840  180.0010  140.7590 C   0  0  0  0  0  1  0  0  0  0  0  0
  180.3560  179.9220  142.1650 N   0  0  0  0  0  2  0  0  0  0  0  0
  1  8  1  0  0  0  0
  1  6  2  0  0  0  0
  2 12  1  1  0  0  0
  3 16  1  6  0  0  0
  3 14  1  0  0  0  0
  3 10  1  0  0  0  0
  4 15  1  0  0  0  0
  4  8  2  0  0  0  0
  5  1  1  0  0  0  0
  7  4  1  0  0  0  0
  9  7  2  0  0  0  0
  9  5  1  0  0  0  0
 11 10  1  6  0  0  0
 11  2  1  0  0  0  0
 11  7  1  0  0  0  0
 12 15  1  0  0  0  0
 13 35  1  0  0  0  0
 13  2  1  0  0  0  0
 14 13  1  0  0  0  0
 17 16  1  0  0  0  0
 18 16  2  0  0  0  0
 19 17  1  0  0  0  0
 20 21  1  0  0  0  0
 20 19  1  0  0  0  0
 22 25  1  0  0  0  0
 22 21  1  1  0  0  0
 23 28  1  0  0  0  0
 24 29  1  0  0  0  0
 24 26  1  0  0  0  0
 25 28  1  0  0  0  0
 26 22  1  0  0  0  0
 26 23  1  0  0  0  0
 27 24  2  0  0  0  0
 29 33  1  0  0  0  0
 30 32  2  0  0  0  0
 32 31  1  0  0  0  0
 33 31  2  0  0  0  0
 34 30  1  0  0  0  0
 34 29  2  0  0  0  0
 36 39  1  0  0  0  0
 36 37  1  0  0  0  0
 37 43  1  6  0  0  0
 37 41  1  0  0  0  0
 39 40  1  0  0  0  0
 40 35  1  6  0  0  0
 40 38  1  0  0  0  0
 41 38  1  0  0  0  0
 42 43  1  0  0  0  0
M  END
>  <MODEL>
7

>  <REMARK>
 VINA RESULT:      -8.8      2.360      4.330
  Name = 
  9 active torsions:
  status: ('A' for Active; 'I' for Inactive)
    1  A    between atoms: C_1  and  N_34
    2  A    between atoms: C_1  and  C_35
    3  A    between atoms: C_2  and  C_13
    4  A    between atoms: C_3  and  C_4
    5  A    between atoms: C_3  and  C_12
    6  A    between atoms: N_6  and  C_17
    7  A    between atoms: C_11  and  C_14
    8  A    between atoms: C_12  and  C_17
    9  A    between atoms: C_19  and  N_37
                            x       y       z     vdW  Elec       q    Type
                         _______ _______ _______ _____ _____    ______ ____

>  <TORSDO>
F 9

$$$$
=
 OpenBabel10272414093D

 43 48  0  0  1  0  0  0  0  0999 V2000
  191.0270  176.4750  146.7330 C   0  0  0  0  0  0  0  0  0  0  0  0
  187.0700  178.2010  143.9680 C   0  0  2  0  0  3  0  0  0  0  0  0
  187.6370  177.7460  141.1770 C   0  0  1  0  0  3  0  0  0  0  0  0
  188.9390  177.4080  146.0400 C   0  0  0  0  0  0  0  0  0  0  0  0
  191.5770  176.4460  145.3380 C   0  0  0  0  0  2  0  0  0  0  0  0
  191.7190  176.0330  147.6870 O   0  0  0  0  0  0  0  0  0  0  0  0
  189.3010  177.1710  144.6140 C   0  0  0  0  0  0  0  0  0  0  0  0
  189.7490  177.0660  146.9970 N   0  0  0  0  0  0  0  0  0  0  0  0
  190.4980  176.6470  144.3130 C   0  0  0  0  0  3  0  0  0  0  0  0
  188.7760  177.7120  142.1920 C   0  0  0  0  0  2  0  0  0  0  0  0
  188.2290  177.2700  143.5510 C   0  0  2  0  0  3  0  0  0  0  0  0
  186.5660  177.7630  145.3460 C   0  0  0  0  0  2  0  0  0  0  0  0
  185.9970  178.1550  142.9590 N   0  0  0  0  0  0  0  0  0  0  0  0
  186.5280  178.6590  141.6900 C   0  0  0  0  0  2  0  0  0  0  0  0
  187.6340  178.0570  146.3950 C   0  0  0  0  0  2  0  0  0  0  0  0
  188.1170  178.2050  139.8340 C   0  0  0  0  0  0  0  0  0  0  0  0
  189.4620  177.9500  139.4140 N   0  0  0  0  0  2  0  0  0  0  0  0
  187.3300  178.8060  139.0520 O   0  0  0  0  0  0  0  0  0  0  0  0
  190.3890  177.1420  140.1930 C   0  0  0  0  0  2  0  0  0  0  0  0
  191.5740  176.7490  139.3330 C   0  0  0  0  0  2  0  0  0  0  0  0
  191.1650  175.6490  138.3750 C   0  0  0  0  0  2  0  0  0  0  0  0
  191.4710  176.0630  136.9420 C   0  0  2  0  0  3  0  0  0  0  0  0
  192.2880  174.3730  135.4090 C   0  0  0  0  0  2  0  0  0  0  0  0
  193.9750  175.6820  136.7840 C   0  0  0  0  0  0  0  0  0  0  0  0
  190.3210  175.6560  136.0400 C   0  0  0  0  0  2  0  0  0  0  0  0
  192.6240  175.3240  136.4520 N   0  0  0  0  0  0  0  0  0  0  0  0
  194.2360  176.8740  137.1060 O   0  0  0  0  0  0  0  0  0  0  0  0
  190.7780  174.4190  135.2760 C   0  0  0  0  0  2  0  0  0  0  0  0
  195.0640  174.6790  136.7920 C   0  0  0  0  0  0  0  0  0  0  0  0
  197.3640  174.0750  136.2730 C   0  0  0  0  0  3  0  0  0  0  0  0
  195.9400  172.5050  137.4430 C   0  0  0  0  0  3  0  0  0  0  0  0
  197.1770  172.8270  136.8760 C   0  0  0  0  0  3  0  0  0  0  0  0
  194.8900  173.4290  137.4040 C   0  0  0  0  0  3  0  0  0  0  0  0
  196.3150  174.9980  136.2350 C   0  0  0  0  0  3  0  0  0  0  0  0
  184.9440  179.0920  143.3440 C   0  0  0  0  0  2  0  0  0  0  0  0
  181.6840  178.2330  141.4520 C   0  0  0  0  0  2  0  0  0  0  0  0
  180.6700  178.6520  142.5240 C   0  0  1  0  0  3  0  0  0  0  0  0
  182.5660  178.9540  144.1690 C   0  0  0  0  0  2  0  0  0  0  0  0
  183.0520  178.8660  141.7000 C   0  0  0  0  0  2  0  0  0  0  0  0
  183.5580  178.4990  143.0960 C   0  0  1  0  0  3  0  0  0  0  0  0
  181.1950  178.3260  143.9260 C   0  0  0  0  0  2  0  0  0  0  0  0
  179.9860  180.3210  141.0270 C   0  0  0  0  0  1  0  0  0  0  0  0
  180.3570  180.0710  142.4130 N   0  0  0  0  0  2  0  0  0  0  0  0
  1  8  1  0  0  0  0
  1  6  2  0  0  0  0
  2 12  1  1  0  0  0
  3 16  1  6  0  0  0
  3 14  1  0  0  0  0
  3 10  1  0  0  0  0
  4 15  1  0  0  0  0
  4  8  2  0  0  0  0
  5  1  1  0  0  0  0
  7  4  1  0  0  0  0
  9  7  2  0  0  0  0
  9  5  1  0  0  0  0
 11 10  1  6  0  0  0
 11  2  1  0  0  0  0
 11  7  1  0  0  0  0
 12 15  1  0  0  0  0
 13 35  1  0  0  0  0
 13  2  1  0  0  0  0
 14 13  1  0  0  0  0
 17 16  1  0  0  0  0
 17 19  1  0  0  0  0
 18 16  2  0  0  0  0
 20 19  1  0  0  0  0
 21 20  1  0  0  0  0
 22 21  1  1  0  0  0
 23 26  1  0  0  0  0
 24 29  1  0  0  0  0
 24 27  2  0  0  0  0
 25 22  1  0  0  0  0
 26 24  1  0  0  0  0
 26 22  1  0  0  0  0
 28 23  1  0  0  0  0
 28 25  1  0  0  0  0
 29 33  1  0  0  0  0
 30 32  2  0  0  0  0
 32 31  1  0  0  0  0
 33 31  2  0  0  0  0
 34 30  1  0  0  0  0
 34 29  2  0  0  0  0
 36 39  1  0  0  0  0
 36 37  1  0  0  0  0
 37 43  1  1  0  0  0
 37 41  1  0  0  0  0
 39 40  1  0  0  0  0
 40 35  1  1  0  0  0
 40 38  1  0  0  0  0
 41 38  1  0  0  0  0
 42 43  1  0  0  0  0
M  END
>  <MODEL>
8

>  <REMARK>
 VINA RESULT:      -8.8      2.051      3.155
  Name = 
  9 active torsions:
  status: ('A' for Active; 'I' for Inactive)
    1  A    between atoms: C_1  and  N_34
    2  A    between atoms: C_1  and  C_35
    3  A    between atoms: C_2  and  C_13
    4  A    between atoms: C_3  and  C_4
    5  A    between atoms: C_3  and  C_12
    6  A    between atoms: N_6  and  C_17
    7  A    between atoms: C_11  and  C_14
    8  A    between atoms: C_12  and  C_17
    9  A    between atoms: C_19  and  N_37
                            x       y       z     vdW  Elec       q    Type
                         _______ _______ _______ _____ _____    ______ ____

>  <TORSDO>
F 9

$$$$
=
 OpenBabel10272414093D

 43 48  0  0  1  0  0  0  0  0999 V2000
  188.0170  177.5010  147.0950 C   0  0  0  0  0  0  0  0  0  0  0  0
  185.3760  178.6260  142.8470 C   0  0  2  0  0  3  0  0  0  0  0  0
  187.0090  177.9850  140.5580 C   0  0  1  0  0  3  0  0  0  0  0  0
  186.3240  178.1830  145.5540 C   0  0  0  0  0  0  0  0  0  0  0  0
  189.0680  177.4010  146.0310 C   0  0  0  0  0  2  0  0  0  0  0  0
  188.3020  177.2050  148.2850 O   0  0  0  0  0  0  0  0  0  0  0  0
  187.2250  177.8560  144.4120 C   0  0  0  0  0  0  0  0  0  0  0  0
  186.7110  177.9970  146.7800 N   0  0  0  0  0  0  0  0  0  0  0  0
  188.4670  177.4170  144.6550 C   0  0  0  0  0  3  0  0  0  0  0  0
  187.6610  178.1390  141.9290 C   0  0  0  0  0  2  0  0  0  0  0  0
  186.6490  177.7690  143.0150 C   0  0  2  0  0  3  0  0  0  0  0  0
  184.3950  178.2650  143.9670 C   0  0  0  0  0  2  0  0  0  0  0  0
  184.7860  178.3990  141.5160 N   0  0  0  0  0  0  0  0  0  0  0  0
  185.7450  178.8370  140.5000 C   0  0  0  0  0  2  0  0  0  0  0  0
  184.9540  178.7420  145.3050 C   0  0  0  0  0  2  0  0  0  0  0  0
  187.9530  178.3670  139.4590 C   0  0  0  0  0  0  0  0  0  0  0  0
  187.5390  178.3120  138.0900 N   0  0  0  0  0  2  0  0  0  0  0  0
  189.1200  178.7580  139.7350 O   0  0  0  0  0  0  0  0  0  0  0  0
  186.1710  178.0100  137.6940 C   0  0  0  0  0  2  0  0  0  0  0  0
  186.1730  176.9370  136.6220 C   0  0  0  0  0  2  0  0  0  0  0  0
  186.5750  175.6100  137.2310 C   0  0  0  0  0  2  0  0  0  0  0  0
  187.2550  174.7390  136.1830 C   0  0  2  0  0  3  0  0  0  0  0  0
  189.1310  173.3690  136.8720 C   0  0  0  0  0  2  0  0  0  0  0  0
  189.5850  175.7350  136.0680 C   0  0  0  0  0  0  0  0  0  0  0  0
  186.7640  173.3090  136.3180 C   0  0  0  0  0  2  0  0  0  0  0  0
  188.6840  174.6810  136.4430 N   0  0  0  0  0  0  0  0  0  0  0  0
  189.2730  176.5050  135.1180 O   0  0  0  0  0  0  0  0  0  0  0  0
  187.8780  172.5250  137.0010 C   0  0  0  0  0  2  0  0  0  0  0  0
  190.8570  175.9630  136.7920 C   0  0  0  0  0  0  0  0  0  0  0  0
  193.2840  176.1410  136.7650 C   0  0  0  0  0  3  0  0  0  0  0  0
  192.0670  176.5710  138.8130 C   0  0  0  0  0  3  0  0  0  0  0  0
  193.2790  176.4820  138.1210 C   0  0  0  0  0  3  0  0  0  0  0  0
  190.8610  176.3160  138.1500 C   0  0  0  0  0  3  0  0  0  0  0  0
  192.0790  175.8880  136.1030 C   0  0  0  0  0  3  0  0  0  0  0  0
  183.6220  179.2690  141.3590 C   0  0  0  0  0  2  0  0  0  0  0  0
  181.7610  176.4490  139.4800 C   0  0  0  0  0  2  0  0  0  0  0  0
  181.4990  177.1800  138.1570 C   0  0  1  0  0  3  0  0  0  0  0  0
  182.3120  179.3300  139.2070 C   0  0  0  0  0  2  0  0  0  0  0  0
  182.8770  177.1230  140.2770 C   0  0  0  0  0  2  0  0  0  0  0  0
  182.5340  178.5910  140.5280 C   0  0  1  0  0  3  0  0  0  0  0  0
  181.1980  178.6610  138.4040 C   0  0  0  0  0  2  0  0  0  0  0  0
  182.7230  175.6190  136.9070 C   0  0  0  0  0  1  0  0  0  0  0  0
  182.6310  177.0310  137.2520 N   0  0  0  0  0  2  0  0  0  0  0  0
  1  6  2  0  0  0  0
  2 11  1  0  0  0  0
  2 12  1  1  0  0  0
  3 16  1  6  0  0  0
  3 10  1  0  0  0  0
  4  8  2  0  0  0  0
  5  1  1  0  0  0  0
  7  9  2  0  0  0  0
  7  4  1  0  0  0  0
  8  1  1  0  0  0  0
  9  5  1  0  0  0  0
 11 10  1  6  0  0  0
 11  7  1  0  0  0  0
 12 15  1  0  0  0  0
 13  2  1  0  0  0  0
 14  3  1  0  0  0  0
 14 13  1  0  0  0  0
 15  4  1  0  0  0  0
 16 18  2  0  0  0  0
 17 16  1  0  0  0  0
 19 17  1  0  0  0  0
 20 21  1  0  0  0  0
 20 19  1  0  0  0  0
 22 25  1  0  0  0  0
 22 26  1  0  0  0  0
 22 21  1  1  0  0  0
 23 28  1  0  0  0  0
 24 26  1  0  0  0  0
 24 29  1  0  0  0  0
 25 28  1  0  0  0  0
 26 23  1  0  0  0  0
 27 24  2  0  0  0  0
 29 33  1  0  0  0  0
 30 32  2  0  0  0  0
 32 31  1  0  0  0  0
 33 31  2  0  0  0  0
 34 30  1  0  0  0  0
 34 29  2  0  0  0  0
 35 13  1  0  0  0  0
 36 39  1  0  0  0  0
 37 43  1  6  0  0  0
 37 41  1  0  0  0  0
 37 36  1  0  0  0  0
 38 40  1  0  0  0  0
 39 40  1  0  0  0  0
 40 35  1  6  0  0  0
 41 38  1  0  0  0  0
 42 43  1  0  0  0  0
M  END
>  <MODEL>
9

>  <REMARK>
 VINA RESULT:      -8.8      1.755      2.622
  Name = 
  9 active torsions:
  status: ('A' for Active; 'I' for Inactive)
    1  A    between atoms: C_1  and  N_34
    2  A    between atoms: C_1  and  C_35
    3  A    between atoms: C_2  and  C_13
    4  A    between atoms: C_3  and  C_4
    5  A    between atoms: C_3  and  C_12
    6  A    between atoms: N_6  and  C_17
    7  A    between atoms: C_11  and  C_14
    8  A    between atoms: C_12  and  C_17
    9  A    between atoms: C_19  and  N_37
                            x       y       z     vdW  Elec       q    Type
                         _______ _______ _______ _____ _____    ______ ____

>  <TORSDO>
F 9

$$$$
