=
 OpenBabel10272400503D

 25 28  0  0  1  0  0  0  0  0999 V2000
  189.2640  176.9520  144.4930 C   0  0  0  0  0  0  0  0  0  0  0  0
  188.3230  177.3820  145.4470 C   0  0  0  0  0  0  0  0  0  0  0  0
  190.9520  176.8240  146.2100 C   0  0  0  0  0  3  0  0  0  0  0  0
  189.0040  176.7250  143.0370 C   0  0  2  0  0  3  0  0  0  0  0  0
  189.8030  177.5730  140.3510 C   0  0  0  0  0  2  0  0  0  0  0  0
  190.0480  177.2790  147.1190 N   0  0  0  0  0  0  0  0  0  0  0  0
  190.3760  176.5010  142.4580 C   0  0  0  0  0  0  0  0  0  0  0  0
  190.7040  176.8940  141.2710 N   0  0  0  0  0  0  0  0  0  0  0  0
  187.8000  178.0210  147.7800 C   0  0  0  0  0  0  0  0  0  0  0  0
  188.1590  178.1910  148.9740 O   0  0  0  0  0  0  0  0  0  0  0  0
  186.8860  177.6400  145.0610 C   0  0  0  0  0  2  0  0  0  0  0  0
  188.3610  177.6650  140.8640 C   0  0  0  0  0  2  0  0  0  0  0  0
  190.5610  176.6470  144.8860 C   0  0  0  0  0  0  0  0  0  0  0  0
  191.6260  175.9700  143.6240 S   0  0  0  0  0  0  0  0  0  0  0  0
  186.4490  178.2910  147.4000 N   0  0  0  0  0  0  0  0  0  0  0  0
  188.3570  177.9260  142.3600 C   0  0  0  0  0  2  0  0  0  0  0  0
  186.0070  178.1240  146.1870 C   0  0  0  0  0  0  0  0  0  0  0  0
  188.7560  177.5510  146.7740 C   0  0  0  0  0  0  0  0  0  0  0  0
  184.5850  178.4460  145.8780 C   0  0  0  0  0  2  0  0  0  0  0  0
  184.5100  179.5860  144.8790 C   0  0  0  0  0  2  0  0  0  0  0  0
  184.0930  179.0550  143.5540 C   0  0  0  0  0  3  0  0  0  0  0  0
  184.8590  179.2530  142.4900 C   0  0  0  0  0  3  0  0  0  0  0  0
  184.4880  178.7480  141.1640 C   0  0  0  0  0  0  0  0  0  0  0  0
  184.9690  179.4150  140.0030 N   0  0  0  0  0  1  0  0  0  0  0  0
  183.7510  177.7340  141.0410 O   0  0  0  0  0  0  0  0  0  0  0  0
  1 13  2  0  0  0  0
  1  2  1  0  0  0  0
  2 18  2  0  0  0  0
  3  6  2  0  0  0  0
  4 16  1  6  0  0  0
  4  1  1  0  0  0  0
  5 12  1  0  0  0  0
  5  8  1  0  0  0  0
  7  4  1  0  0  0  0
  7 14  1  0  0  0  0
  8  7  2  0  0  0  0
  9 10  2  0  0  0  0
 11  2  1  0  0  0  0
 11 17  1  0  0  0  0
 12 16  1  0  0  0  0
 13  3  1  0  0  0  0
 14 13  1  0  0  0  0
 15  9  1  0  0  0  0
 17 15  2  0  0  0  0
 18  6  1  0  0  0  0
 18  9  1  0  0  0  0
 19 17  1  0  0  0  0
 20 19  1  0  0  0  0
 21 20  1  0  0  0  0
 22 21  2  0  0  0  0
 23 22  1  0  0  0  0
 24 23  1  0  0  0  0
 25 23  2  0  0  0  0
M  END
>  <MODEL>
1

>  <REMARK>
 VINA RESULT:      -9.5      0.000      0.000
  Name = 
  4 active torsions:
  status: ('A' for Active; 'I' for Inactive)
    1  A    between atoms: C_2  and  C_25
    2  A    between atoms: C_6  and  C_15
    3  A    between atoms: C_6  and  C_23
    4  A    between atoms: C_15  and  C_21
                            x       y       z     vdW  Elec       q    Type
                         _______ _______ _______ _____ _____    ______ ____

>  <TORSDO>
F 4

$$$$
=
 OpenBabel10272400503D

 25 28  0  0  1  0  0  0  0  0999 V2000
  186.1400  178.1470  143.1680 C   0  0  0  0  0  0  0  0  0  0  0  0
  187.2260  177.9130  142.3050 C   0  0  0  0  0  0  0  0  0  0  0  0
  184.9490  179.2430  141.3800 C   0  0  0  0  0  3  0  0  0  0  0  0
  186.0450  177.7270  144.6010 C   0  0  2  0  0  3  0  0  0  0  0  0
  185.7170  178.7440  147.3280 C   0  0  0  0  0  2  0  0  0  0  0  0
  186.0180  179.0480  140.5620 N   0  0  0  0  0  0  0  0  0  0  0  0
  184.8030  178.4190  145.0970 C   0  0  0  0  0  0  0  0  0  0  0  0
  184.6890  178.8660  146.3040 N   0  0  0  0  0  0  0  0  0  0  0  0
  188.2670  178.1830  140.0760 C   0  0  0  0  0  0  0  0  0  0  0  0
  188.2230  178.6100  138.8920 O   0  0  0  0  0  0  0  0  0  0  0  0
  188.4430  177.1520  142.7740 C   0  0  0  0  0  2  0  0  0  0  0  0
  186.9210  177.9030  146.8870 C   0  0  0  0  0  2  0  0  0  0  0  0
  185.0000  178.7820  142.6920 C   0  0  0  0  0  0  0  0  0  0  0  0
  183.6290  178.8940  143.8310 S   0  0  0  0  0  0  0  0  0  0  0  0
  189.4270  177.4870  140.5360 N   0  0  0  0  0  0  0  0  0  0  0  0
  187.2410  178.1790  145.4280 C   0  0  0  0  0  2  0  0  0  0  0  0
  189.5340  177.0070  141.7420 C   0  0  0  0  0  0  0  0  0  0  0  0
  187.1390  178.3950  140.9860 C   0  0  0  0  0  0  0  0  0  0  0  0
  190.7880  176.3090  142.1410 C   0  0  0  0  0  2  0  0  0  0  0  0
  191.5850  177.1690  143.1040 C   0  0  0  0  0  2  0  0  0  0  0  0
  191.5730  176.5440  144.4520 C   0  0  0  0  0  3  0  0  0  0  0  0
  191.1490  177.2370  145.5000 C   0  0  0  0  0  3  0  0  0  0  0  0
  191.1190  176.6620  146.8490 C   0  0  0  0  0  0  0  0  0  0  0  0
  192.3210  176.1590  147.4210 N   0  0  0  0  0  1  0  0  0  0  0  0
  190.0450  176.6070  147.5050 O   0  0  0  0  0  0  0  0  0  0  0  0
  1  4  1  0  0  0  0
  2 11  1  0  0  0  0
  2  1  2  0  0  0  0
  3 13  2  0  0  0  0
  4  7  1  0  0  0  0
  4 16  1  1  0  0  0
  6 18  2  0  0  0  0
  6  3  1  0  0  0  0
  7  8  2  0  0  0  0
  8  5  1  0  0  0  0
  9 15  1  0  0  0  0
  9 18  1  0  0  0  0
 10  9  2  0  0  0  0
 12  5  1  0  0  0  0
 13  1  1  0  0  0  0
 13 14  1  0  0  0  0
 14  7  1  0  0  0  0
 15 17  2  0  0  0  0
 16 12  1  0  0  0  0
 17 19  1  0  0  0  0
 17 11  1  0  0  0  0
 18  2  1  0  0  0  0
 19 20  1  0  0  0  0
 20 21  1  0  0  0  0
 21 22  2  0  0  0  0
 22 23  1  0  0  0  0
 23 24  1  0  0  0  0
 23 25  2  0  0  0  0
M  END
>  <MODEL>
2

>  <REMARK>
 VINA RESULT:      -9.4      2.407      7.241
  Name = 
  4 active torsions:
  status: ('A' for Active; 'I' for Inactive)
    1  A    between atoms: C_2  and  C_25
    2  A    between atoms: C_6  and  C_15
    3  A    between atoms: C_6  and  C_23
    4  A    between atoms: C_15  and  C_21
                            x       y       z     vdW  Elec       q    Type
                         _______ _______ _______ _____ _____    ______ ____

>  <TORSDO>
F 4

$$$$
=
 OpenBabel10272400503D

 25 28  0  0  1  0  0  0  0  0999 V2000
  187.6510  178.0600  145.5390 C   0  0  0  0  0  0  0  0  0  0  0  0
  188.9650  177.6510  145.2460 C   0  0  0  0  0  0  0  0  0  0  0  0
  187.9530  177.4030  147.8390 C   0  0  0  0  0  3  0  0  0  0  0  0
  186.6810  178.6660  144.5740 C   0  0  2  0  0  3  0  0  0  0  0  0
  184.0480  178.2920  143.3470 C   0  0  0  0  0  2  0  0  0  0  0  0
  189.2090  176.9730  147.5410 N   0  0  0  0  0  0  0  0  0  0  0  0
  185.3840  178.6950  145.3390 C   0  0  0  0  0  0  0  0  0  0  0  0
  184.2360  178.5180  144.7740 N   0  0  0  0  0  0  0  0  0  0  0  0
  191.0930  176.6350  145.9990 C   0  0  0  0  0  0  0  0  0  0  0  0
  191.7990  176.1200  146.9050 O   0  0  0  0  0  0  0  0  0  0  0  0
  189.5450  177.8240  143.8630 C   0  0  0  0  0  2  0  0  0  0  0  0
  185.3410  178.4180  142.5330 C   0  0  0  0  0  2  0  0  0  0  0  0
  187.1660  177.9620  146.8360 C   0  0  0  0  0  0  0  0  0  0  0  0
  185.5420  178.6460  147.1220 S   0  0  0  0  0  0  0  0  0  0  0  0
  191.6240  176.7760  144.6790 N   0  0  0  0  0  0  0  0  0  0  0  0
  186.5050  177.8320  143.3120 C   0  0  0  0  0  2  0  0  0  0  0  0
  190.9540  177.3120  143.7000 C   0  0  0  0  0  0  0  0  0  0  0  0
  189.7300  177.0900  146.2850 C   0  0  0  0  0  0  0  0  0  0  0  0
  191.5820  177.4030  142.3510 C   0  0  0  0  0  2  0  0  0  0  0  0
  190.8170  176.5500  141.3560 C   0  0  0  0  0  2  0  0  0  0  0  0
  190.1790  177.4280  140.3400 C   0  0  0  0  0  3  0  0  0  0  0  0
  188.8570  177.5190  140.2780 C   0  0  0  0  0  3  0  0  0  0  0  0
  188.1850  178.3720  139.2930 C   0  0  0  0  0  0  0  0  0  0  0  0
  188.9620  179.0850  138.3390 N   0  0  0  0  0  1  0  0  0  0  0  0
  186.9290  178.4800  139.2810 O   0  0  0  0  0  0  0  0  0  0  0  0
  1 13  1  0  0  0  0
  2  1  2  0  0  0  0
  2 18  1  0  0  0  0
  4 16  1  6  0  0  0
  4  7  1  0  0  0  0
  4  1  1  0  0  0  0
  5  8  1  0  0  0  0
  6  3  1  0  0  0  0
  7 14  1  0  0  0  0
  8  7  2  0  0  0  0
  9 18  1  0  0  0  0
  9 10  2  0  0  0  0
 11  2  1  0  0  0  0
 12 16  1  0  0  0  0
 12  5  1  0  0  0  0
 13 14  1  0  0  0  0
 13  3  2  0  0  0  0
 15  9  1  0  0  0  0
 17 11  1  0  0  0  0
 17 15  2  0  0  0  0
 18  6  2  0  0  0  0
 19 17  1  0  0  0  0
 20 19  1  0  0  0  0
 21 20  1  0  0  0  0
 22 21  2  0  0  0  0
 23 22  1  0  0  0  0
 24 23  1  0  0  0  0
 25 23  2  0  0  0  0
M  END
>  <MODEL>
3

>  <REMARK>
 VINA RESULT:      -8.8      2.500      4.983
  Name = 
  4 active torsions:
  status: ('A' for Active; 'I' for Inactive)
    1  A    between atoms: C_2  and  C_25
    2  A    between atoms: C_6  and  C_15
    3  A    between atoms: C_6  and  C_23
    4  A    between atoms: C_15  and  C_21
                            x       y       z     vdW  Elec       q    Type
                         _______ _______ _______ _____ _____    ______ ____

>  <TORSDO>
F 4

$$$$
=
 OpenBabel10272400503D

 25 28  0  0  1  0  0  0  0  0999 V2000
  186.4950  178.0810  144.3640 C   0  0  0  0  0  0  0  0  0  0  0  0
  186.6200  178.2210  142.9700 C   0  0  0  0  0  0  0  0  0  0  0  0
  184.3720  179.2220  144.2940 C   0  0  0  0  0  3  0  0  0  0  0  0
  187.4710  177.4030  145.2740 C   0  0  2  0  0  3  0  0  0  0  0  0
  189.2130  177.8350  147.5870 C   0  0  0  0  0  2  0  0  0  0  0  0
  184.5180  179.3890  142.9520 N   0  0  0  0  0  0  0  0  0  0  0  0
  186.9700  177.7390  146.6540 C   0  0  0  0  0  0  0  0  0  0  0  0
  187.7620  177.9340  147.6560 N   0  0  0  0  0  0  0  0  0  0  0  0
  185.7210  179.0810  140.8300 C   0  0  0  0  0  0  0  0  0  0  0  0
  184.8310  179.6950  140.1850 O   0  0  0  0  0  0  0  0  0  0  0  0
  187.8030  177.6420  142.2330 C   0  0  0  0  0  2  0  0  0  0  0  0
  189.7290  177.3390  146.2320 C   0  0  0  0  0  2  0  0  0  0  0  0
  185.3600  178.5550  145.0110 C   0  0  0  0  0  0  0  0  0  0  0  0
  185.2400  178.1920  146.7540 S   0  0  0  0  0  0  0  0  0  0  0  0
  186.8590  178.5550  140.1440 N   0  0  0  0  0  0  0  0  0  0  0  0
  188.8910  177.9260  145.1100 C   0  0  0  0  0  2  0  0  0  0  0  0
  187.8090  177.8990  140.7460 C   0  0  0  0  0  0  0  0  0  0  0  0
  185.6020  178.9030  142.2800 C   0  0  0  0  0  0  0  0  0  0  0  0
  188.9670  177.4000  139.9530 C   0  0  0  0  0  2  0  0  0  0  0  0
  190.1710  177.1920  140.8530 C   0  0  0  0  0  2  0  0  0  0  0  0
  191.4080  177.1830  140.0290 C   0  0  0  0  0  3  0  0  0  0  0  0
  191.4480  176.4900  138.8990 C   0  0  0  0  0  3  0  0  0  0  0  0
  192.6460  176.4520  138.0550 C   0  0  0  0  0  0  0  0  0  0  0  0
  192.5220  176.1150  136.6780 N   0  0  0  0  0  1  0  0  0  0  0  0
  193.7820  176.7130  138.5330 O   0  0  0  0  0  0  0  0  0  0  0  0
  1 13  1  0  0  0  0
  1  4  1  0  0  0  0
  2  1  2  0  0  0  0
  3 13  2  0  0  0  0
  4 16  1  1  0  0  0
  4  7  1  0  0  0  0
  5  8  1  0  0  0  0
  6  3  1  0  0  0  0
  7 14  1  0  0  0  0
  7  8  2  0  0  0  0
  9 18  1  0  0  0  0
 10  9  2  0  0  0  0
 11  2  1  0  0  0  0
 12  5  1  0  0  0  0
 13 14  1  0  0  0  0
 15 17  2  0  0  0  0
 15  9  1  0  0  0  0
 16 12  1  0  0  0  0
 17 11  1  0  0  0  0
 18  6  2  0  0  0  0
 18  2  1  0  0  0  0
 19 17  1  0  0  0  0
 19 20  1  0  0  0  0
 21 20  1  0  0  0  0
 22 21  2  0  0  0  0
 23 25  2  0  0  0  0
 23 22  1  0  0  0  0
 24 23  1  0  0  0  0
M  END
>  <MODEL>
4

>  <REMARK>
 VINA RESULT:      -8.6      3.152      6.849
  Name = 
  4 active torsions:
  status: ('A' for Active; 'I' for Inactive)
    1  A    between atoms: C_2  and  C_25
    2  A    between atoms: C_6  and  C_15
    3  A    between atoms: C_6  and  C_23
    4  A    between atoms: C_15  and  C_21
                            x       y       z     vdW  Elec       q    Type
                         _______ _______ _______ _____ _____    ______ ____

>  <TORSDO>
F 4

$$$$
=
 OpenBabel10272400503D

 25 28  0  0  1  0  0  0  0  0999 V2000
  189.5620  177.6810  143.7980 C   0  0  0  0  0  0  0  0  0  0  0  0
  188.9330  177.8660  142.5530 C   0  0  0  0  0  0  0  0  0  0  0  0
  191.5070  176.7870  142.6890 C   0  0  0  0  0  3  0  0  0  0  0  0
  188.9900  178.0320  145.1350 C   0  0  2  0  0  3  0  0  0  0  0  0
  188.2180  176.9060  147.7260 C   0  0  0  0  0  2  0  0  0  0  0  0
  190.8790  176.9320  141.4910 N   0  0  0  0  0  0  0  0  0  0  0  0
  189.9620  177.4250  146.1120 C   0  0  0  0  0  0  0  0  0  0  0  0
  189.5920  176.9260  147.2460 N   0  0  0  0  0  0  0  0  0  0  0  0
  188.9810  177.6240  140.0900 C   0  0  0  0  0  0  0  0  0  0  0  0
  189.5710  177.2640  139.0370 O   0  0  0  0  0  0  0  0  0  0  0  0
  187.5640  178.4930  142.4580 C   0  0  0  0  0  2  0  0  0  0  0  0
  187.2410  177.6610  146.8170 C   0  0  0  0  0  2  0  0  0  0  0  0
  190.8530  177.1730  143.8550 C   0  0  0  0  0  0  0  0  0  0  0  0
  191.6060  177.1200  145.4730 S   0  0  0  0  0  0  0  0  0  0  0  0
  187.6730  178.1920  140.0120 N   0  0  0  0  0  0  0  0  0  0  0  0
  187.6070  177.4360  145.3600 C   0  0  0  0  0  2  0  0  0  0  0  0
  187.0120  178.5980  141.0570 C   0  0  0  0  0  0  0  0  0  0  0  0
  189.6250  177.4630  141.3960 C   0  0  0  0  0  0  0  0  0  0  0  0
  185.6440  179.1620  140.8830 C   0  0  0  0  0  2  0  0  0  0  0  0
  184.5970  178.0970  141.1490 C   0  0  0  0  0  2  0  0  0  0  0  0
  183.7590  178.5050  142.3060 C   0  0  0  0  0  3  0  0  0  0  0  0
  184.2410  178.4150  143.5390 C   0  0  0  0  0  3  0  0  0  0  0  0
  183.4510  178.8060  144.7110 C   0  0  0  0  0  0  0  0  0  0  0  0
  184.0880  178.9170  145.9770 N   0  0  0  0  0  1  0  0  0  0  0  0
  182.2180  179.0430  144.6090 O   0  0  0  0  0  0  0  0  0  0  0  0
  1 13  1  0  0  0  0
  1  4  1  0  0  0  0
  2  1  2  0  0  0  0
  3 13  2  0  0  0  0
  4 16  1  6  0  0  0
  4  7  1  0  0  0  0
  6  3  1  0  0  0  0
  7  8  2  0  0  0  0
  8  5  1  0  0  0  0
  9 18  1  0  0  0  0
 10  9  2  0  0  0  0
 11  2  1  0  0  0  0
 12  5  1  0  0  0  0
 13 14  1  0  0  0  0
 14  7  1  0  0  0  0
 15  9  1  0  0  0  0
 15 17  2  0  0  0  0
 16 12  1  0  0  0  0
 17 11  1  0  0  0  0
 18  6  2  0  0  0  0
 18  2  1  0  0  0  0
 19 17  1  0  0  0  0
 19 20  1  0  0  0  0
 20 21  1  0  0  0  0
 21 22  2  0  0  0  0
 22 23  1  0  0  0  0
 23 24  1  0  0  0  0
 25 23  2  0  0  0  0
M  END
>  <MODEL>
5

>  <REMARK>
 VINA RESULT:      -8.5      2.157      4.981
  Name = 
  4 active torsions:
  status: ('A' for Active; 'I' for Inactive)
    1  A    between atoms: C_2  and  C_25
    2  A    between atoms: C_6  and  C_15
    3  A    between atoms: C_6  and  C_23
    4  A    between atoms: C_15  and  C_21
                            x       y       z     vdW  Elec       q    Type
                         _______ _______ _______ _____ _____    ______ ____

>  <TORSDO>
F 4

$$$$
=
 OpenBabel10272400503D

 25 28  0  0  1  0  0  0  0  0999 V2000
  187.7210  177.5770  144.9460 C   0  0  0  0  0  0  0  0  0  0  0  0
  186.4320  177.8960  144.4830 C   0  0  0  0  0  0  0  0  0  0  0  0
  187.0540  178.1250  147.1970 C   0  0  0  0  0  3  0  0  0  0  0  0
  188.8610  177.0820  144.1120 C   0  0  2  0  0  3  0  0  0  0  0  0
  191.5990  177.6990  143.2770 C   0  0  0  0  0  2  0  0  0  0  0  0
  185.8210  178.4690  146.7370 N   0  0  0  0  0  0  0  0  0  0  0  0
  190.0380  177.1230  145.0510 C   0  0  0  0  0  0  0  0  0  0  0  0
  191.2350  177.4070  144.6560 N   0  0  0  0  0  0  0  0  0  0  0  0
  184.1460  178.7200  144.9550 C   0  0  0  0  0  0  0  0  0  0  0  0
  183.2830  179.1470  145.7660 O   0  0  0  0  0  0  0  0  0  0  0  0
  186.0640  177.7310  143.0280 C   0  0  0  0  0  2  0  0  0  0  0  0
  190.4450  177.5060  142.2860 C   0  0  0  0  0  2  0  0  0  0  0  0
  188.0140  177.6640  146.3010 C   0  0  0  0  0  0  0  0  0  0  0  0
  189.6320  177.0950  146.7940 S   0  0  0  0  0  0  0  0  0  0  0  0
  183.8160  178.5880  143.5710 N   0  0  0  0  0  0  0  0  0  0  0  0
  189.1420  177.9730  142.9090 C   0  0  0  0  0  2  0  0  0  0  0  0
  184.6540  178.1410  142.6810 C   0  0  0  0  0  0  0  0  0  0  0  0
  185.4890  178.3600  145.4180 C   0  0  0  0  0  0  0  0  0  0  0  0
  184.2280  178.0520  141.2570 C   0  0  0  0  0  2  0  0  0  0  0  0
  184.8680  179.1640  140.4460 C   0  0  0  0  0  2  0  0  0  0  0  0
  185.7570  178.5720  139.4110 C   0  0  0  0  0  3  0  0  0  0  0  0
  187.0490  178.4070  139.6620 C   0  0  0  0  0  3  0  0  0  0  0  0
  187.9630  177.8280  138.6720 C   0  0  0  0  0  0  0  0  0  0  0  0
  189.3610  178.0620  138.7910 N   0  0  0  0  0  1  0  0  0  0  0  0
  187.5260  177.1290  137.7200 O   0  0  0  0  0  0  0  0  0  0  0  0
  1 13  1  0  0  0  0
  2  1  2  0  0  0  0
  2 18  1  0  0  0  0
  4 16  1  6  0  0  0
  4  1  1  0  0  0  0
  4  7  1  0  0  0  0
  5  8  1  0  0  0  0
  6  3  1  0  0  0  0
  7 14  1  0  0  0  0
  8  7  2  0  0  0  0
  9 18  1  0  0  0  0
  9 10  2  0  0  0  0
 11  2  1  0  0  0  0
 12 16  1  0  0  0  0
 12  5  1  0  0  0  0
 13 14  1  0  0  0  0
 13  3  2  0  0  0  0
 15  9  1  0  0  0  0
 17 11  1  0  0  0  0
 17 15  2  0  0  0  0
 18  6  2  0  0  0  0
 19 17  1  0  0  0  0
 20 19  1  0  0  0  0
 21 22  2  0  0  0  0
 21 20  1  0  0  0  0
 23 24  1  0  0  0  0
 23 22  1  0  0  0  0
 25 23  2  0  0  0  0
M  END
>  <MODEL>
6

>  <REMARK>
 VINA RESULT:      -8.4      2.290      3.809
  Name = 
  4 active torsions:
  status: ('A' for Active; 'I' for Inactive)
    1  A    between atoms: C_2  and  C_25
    2  A    between atoms: C_6  and  C_15
    3  A    between atoms: C_6  and  C_23
    4  A    between atoms: C_15  and  C_21
                            x       y       z     vdW  Elec       q    Type
                         _______ _______ _______ _____ _____    ______ ____

>  <TORSDO>
F 4

$$$$
=
 OpenBabel10272400503D

 25 28  0  0  1  0  0  0  0  0999 V2000
  188.8420  177.3040  144.7460 C   0  0  0  0  0  0  0  0  0  0  0  0
  187.5130  177.7410  144.8940 C   0  0  0  0  0  0  0  0  0  0  0  0
  189.2120  177.6130  147.1080 C   0  0  0  0  0  3  0  0  0  0  0  0
  189.4860  176.8530  143.4730 C   0  0  2  0  0  3  0  0  0  0  0  0
  191.6860  177.4240  141.6260 C   0  0  0  0  0  2  0  0  0  0  0  0
  187.9380  178.0720  147.2380 N   0  0  0  0  0  0  0  0  0  0  0  0
  190.9420  176.7220  143.8330 C   0  0  0  0  0  0  0  0  0  0  0  0
  191.8940  176.9890  143.0010 N   0  0  0  0  0  0  0  0  0  0  0  0
  185.7130  178.6190  146.3480 C   0  0  0  0  0  0  0  0  0  0  0  0
  185.3040  178.9900  147.4790 O   0  0  0  0  0  0  0  0  0  0  0  0
  186.5670  177.7690  143.7180 C   0  0  0  0  0  2  0  0  0  0  0  0
  190.2150  177.4090  141.1960 C   0  0  0  0  0  2  0  0  0  0  0  0
  189.6710  177.2140  145.8570 C   0  0  0  0  0  0  0  0  0  0  0  0
  191.2860  176.5070  145.5770 S   0  0  0  0  0  0  0  0  0  0  0  0
  184.8330  178.6700  145.2230 N   0  0  0  0  0  0  0  0  0  0  0  0
  189.3330  177.8650  142.3450 C   0  0  0  0  0  2  0  0  0  0  0  0
  185.1860  178.2890  144.0300 C   0  0  0  0  0  0  0  0  0  0  0  0
  187.0860  178.1380  146.1740 C   0  0  0  0  0  0  0  0  0  0  0  0
  184.2070  178.3930  142.9120 C   0  0  0  0  0  2  0  0  0  0  0  0
  184.8450  179.0690  141.7130 C   0  0  0  0  0  2  0  0  0  0  0  0
  184.3780  178.4100  140.4660 C   0  0  0  0  0  3  0  0  0  0  0  0
  183.3190  177.6120  140.4940 C   0  0  0  0  0  3  0  0  0  0  0  0
  182.8220  176.9410  139.2880 C   0  0  0  0  0  0  0  0  0  0  0  0
  182.3570  177.7220  138.1950 N   0  0  0  0  0  1  0  0  0  0  0  0
  182.8030  175.6830  139.2100 O   0  0  0  0  0  0  0  0  0  0  0  0
  1  2  2  0  0  0  0
  1 13  1  0  0  0  0
  2 18  1  0  0  0  0
  3  6  1  0  0  0  0
  4 16  1  6  0  0  0
  4  7  1  0  0  0  0
  4  1  1  0  0  0  0
  5  8  1  0  0  0  0
  7 14  1  0  0  0  0
  8  7  2  0  0  0  0
  9 10  2  0  0  0  0
 11 17  1  0  0  0  0
 11  2  1  0  0  0  0
 12  5  1  0  0  0  0
 12 16  1  0  0  0  0
 13  3  2  0  0  0  0
 14 13  1  0  0  0  0
 15  9  1  0  0  0  0
 17 15  2  0  0  0  0
 18  9  1  0  0  0  0
 18  6  2  0  0  0  0
 19 17  1  0  0  0  0
 20 19  1  0  0  0  0
 21 22  2  0  0  0  0
 21 20  1  0  0  0  0
 23 22  1  0  0  0  0
 24 23  1  0  0  0  0
 25 23  2  0  0  0  0
M  END
>  <MODEL>
7

>  <REMARK>
 VINA RESULT:      -8.3      1.797      2.363
  Name = 
  4 active torsions:
  status: ('A' for Active; 'I' for Inactive)
    1  A    between atoms: C_2  and  C_25
    2  A    between atoms: C_6  and  C_15
    3  A    between atoms: C_6  and  C_23
    4  A    between atoms: C_15  and  C_21
                            x       y       z     vdW  Elec       q    Type
                         _______ _______ _______ _____ _____    ______ ____

>  <TORSDO>
F 4

$$$$
=
 OpenBabel10272400503D

 25 28  0  0  1  0  0  0  0  0999 V2000
  189.4500  177.8770  140.9080 C   0  0  0  0  0  0  0  0  0  0  0  0
  188.1260  178.1740  140.5400 C   0  0  0  0  0  0  0  0  0  0  0  0
  189.9940  177.4220  138.6040 C   0  0  0  0  0  3  0  0  0  0  0  0
  190.0160  177.9370  142.2920 C   0  0  2  0  0  3  0  0  0  0  0  0
  191.3010  176.3290  144.3740 C   0  0  0  0  0  2  0  0  0  0  0  0
  188.7020  177.6730  138.2600 N   0  0  0  0  0  0  0  0  0  0  0  0
  191.3790  177.3110  142.1510 C   0  0  0  0  0  0  0  0  0  0  0  0
  191.9190  176.5980  143.0840 N   0  0  0  0  0  0  0  0  0  0  0  0
  186.3920  178.3320  138.7810 C   0  0  0  0  0  0  0  0  0  0  0  0
  186.0420  178.2210  137.5760 O   0  0  0  0  0  0  0  0  0  0  0  0
  187.1160  178.6300  141.5660 C   0  0  0  0  0  2  0  0  0  0  0  0
  189.9880  177.0880  144.5940 C   0  0  0  0  0  2  0  0  0  0  0  0
  190.3810  177.5330  139.9350 C   0  0  0  0  0  0  0  0  0  0  0  0
  192.0620  177.3210  140.4960 S   0  0  0  0  0  0  0  0  0  0  0  0
  185.4360  178.7350  139.7630 N   0  0  0  0  0  0  0  0  0  0  0  0
  189.1960  177.1430  143.3000 C   0  0  0  0  0  2  0  0  0  0  0  0
  185.7320  178.8840  141.0220 C   0  0  0  0  0  0  0  0  0  0  0  0
  187.7720  178.0490  139.1840 C   0  0  0  0  0  0  0  0  0  0  0  0
  184.6660  179.2920  141.9790 C   0  0  0  0  0  2  0  0  0  0  0  0
  184.4120  178.1860  142.9870 C   0  0  0  0  0  2  0  0  0  0  0  0
  184.8530  178.6330  144.3340 C   0  0  0  0  0  3  0  0  0  0  0  0
  185.8240  177.9850  144.9630 C   0  0  0  0  0  3  0  0  0  0  0  0
  186.2920  178.3900  146.2920 C   0  0  0  0  0  0  0  0  0  0  0  0
  185.5440  179.3450  147.0350 N   0  0  0  0  0  1  0  0  0  0  0  0
  187.3450  177.9030  146.7840 O   0  0  0  0  0  0  0  0  0  0  0  0
  1  4  1  0  0  0  0
  2  1  1  0  0  0  0
  2 11  1  0  0  0  0
  3 13  1  0  0  0  0
  4 16  1  1  0  0  0
  5 12  1  0  0  0  0
  6  3  2  0  0  0  0
  6 18  1  0  0  0  0
  7  4  1  0  0  0  0
  7  8  2  0  0  0  0
  8  5  1  0  0  0  0
  9 18  1  0  0  0  0
  9 15  1  0  0  0  0
 10  9  2  0  0  0  0
 13 14  1  0  0  0  0
 13  1  2  0  0  0  0
 14  7  1  0  0  0  0
 15 17  2  0  0  0  0
 16 12  1  0  0  0  0
 17 11  1  0  0  0  0
 17 19  1  0  0  0  0
 18  2  2  0  0  0  0
 19 20  1  0  0  0  0
 20 21  1  0  0  0  0
 21 22  2  0  0  0  0
 22 23  1  0  0  0  0
 23 25  2  0  0  0  0
 23 24  1  0  0  0  0
M  END
>  <MODEL>
8

>  <REMARK>
 VINA RESULT:      -8.1      1.950      5.647
  Name = 
  4 active torsions:
  status: ('A' for Active; 'I' for Inactive)
    1  A    between atoms: C_2  and  C_25
    2  A    between atoms: C_6  and  C_15
    3  A    between atoms: C_6  and  C_23
    4  A    between atoms: C_15  and  C_21
                            x       y       z     vdW  Elec       q    Type
                         _______ _______ _______ _____ _____    ______ ____

>  <TORSDO>
F 4

$$$$
=
 OpenBabel10272400503D

 25 28  0  0  1  0  0  0  0  0999 V2000
  187.4620  177.6600  145.6610 C   0  0  0  0  0  0  0  0  0  0  0  0
  186.6650  178.1360  144.6040 C   0  0  0  0  0  0  0  0  0  0  0  0
  185.8260  178.4400  147.2510 C   0  0  0  0  0  3  0  0  0  0  0  0
  188.7730  176.9520  145.5280 C   0  0  2  0  0  3  0  0  0  0  0  0
  191.6070  177.1050  146.2500 C   0  0  0  0  0  2  0  0  0  0  0  0
  185.0790  178.9320  146.2260 N   0  0  0  0  0  0  0  0  0  0  0  0
  189.2860  176.8770  146.9420 C   0  0  0  0  0  0  0  0  0  0  0  0
  190.5430  176.9570  147.2330 N   0  0  0  0  0  0  0  0  0  0  0  0
  184.6280  179.3160  143.8400 C   0  0  0  0  0  0  0  0  0  0  0  0
  183.5500  179.9150  144.0960 O   0  0  0  0  0  0  0  0  0  0  0  0
  187.0800  177.9360  143.1660 C   0  0  0  0  0  2  0  0  0  0  0  0
  191.1160  177.0220  144.8000 C   0  0  0  0  0  2  0  0  0  0  0  0
  187.0230  177.7880  146.9730 C   0  0  0  0  0  0  0  0  0  0  0  0
  188.0410  177.0180  148.2210 S   0  0  0  0  0  0  0  0  0  0  0  0
  185.0420  179.1470  142.4830 N   0  0  0  0  0  0  0  0  0  0  0  0
  189.7700  177.7150  144.6670 C   0  0  0  0  0  2  0  0  0  0  0  0
  186.1360  178.5270  142.1480 C   0  0  0  0  0  0  0  0  0  0  0  0
  185.4620  178.7910  144.9240 C   0  0  0  0  0  0  0  0  0  0  0  0
  186.4980  178.4140  140.7070 C   0  0  0  0  0  2  0  0  0  0  0  0
  188.0060  178.4130  140.5420 C   0  0  0  0  0  2  0  0  0  0  0  0
  188.3580  177.8420  139.2150 C   0  0  0  0  0  3  0  0  0  0  0  0
  189.6310  177.6960  138.8730 C   0  0  0  0  0  3  0  0  0  0  0  0
  190.0250  177.1380  137.5750 C   0  0  0  0  0  0  0  0  0  0  0  0
  191.3070  176.5380  137.4320 N   0  0  0  0  0  1  0  0  0  0  0  0
  189.2440  177.1840  136.5870 O   0  0  0  0  0  0  0  0  0  0  0  0
  1 13  1  0  0  0  0
  2 18  1  0  0  0  0
  2  1  2  0  0  0  0
  4 16  1  6  0  0  0
  4  1  1  0  0  0  0
  4  7  1  0  0  0  0
  5  8  1  0  0  0  0
  6  3  1  0  0  0  0
  7  8  2  0  0  0  0
  7 14  1  0  0  0  0
  9 10  2  0  0  0  0
  9 18  1  0  0  0  0
 11  2  1  0  0  0  0
 12  5  1  0  0  0  0
 13  3  2  0  0  0  0
 13 14  1  0  0  0  0
 15  9  1  0  0  0  0
 16 12  1  0  0  0  0
 17 15  2  0  0  0  0
 17 11  1  0  0  0  0
 18  6  2  0  0  0  0
 19 17  1  0  0  0  0
 20 19  1  0  0  0  0
 21 20  1  0  0  0  0
 22 21  2  0  0  0  0
 23 22  1  0  0  0  0
 24 23  1  0  0  0  0
 25 23  2  0  0  0  0
M  END
>  <MODEL>
9

>  <REMARK>
 VINA RESULT:      -8.1      2.498      5.224
  Name = 
  4 active torsions:
  status: ('A' for Active; 'I' for Inactive)
    1  A    between atoms: C_2  and  C_25
    2  A    between atoms: C_6  and  C_15
    3  A    between atoms: C_6  and  C_23
    4  A    between atoms: C_15  and  C_21
                            x       y       z     vdW  Elec       q    Type
                         _______ _______ _______ _____ _____    ______ ____

>  <TORSDO>
F 4

$$$$
