=
 OpenBabel10272414293D

 43 48  0  0  1  0  0  0  0  0999 V2000
  186.3780  179.5450  141.7830 C   0  0  0  0  0  2  0  0  0  0  0  0
  183.1720  177.7140  138.2240 C   0  0  0  0  0  0  0  0  0  0  0  0
  184.1570  179.1580  142.9780 C   0  0  0  0  0  0  0  0  0  0  0  0
  182.9940  178.2730  140.5740 C   0  0  0  0  0  0  0  0  0  0  0  0
  184.5180  178.0880  138.2320 C   0  0  0  0  0  3  0  0  0  0  0  0
  182.5460  177.2280  136.9670 C   0  0  0  0  0  1  0  0  0  0  0  0
  184.3590  178.6440  140.5960 C   0  0  0  0  0  0  0  0  0  0  0  0
  182.4110  177.8070  139.3930 C   0  0  0  0  0  3  0  0  0  0  0  0
  185.1080  178.5490  139.4100 C   0  0  0  0  0  3  0  0  0  0  0  0
  184.9480  179.0910  141.7970 C   0  0  0  0  0  0  0  0  0  0  0  0
  182.8060  178.8080  142.9210 C   0  0  0  0  0  3  0  0  0  0  0  0
  182.2260  178.3690  141.7310 C   0  0  0  0  0  3  0  0  0  0  0  0
  185.2100  178.7610  145.1620 C   0  0  0  0  0  0  0  0  0  0  0  0
  185.7360  177.9300  146.0210 C   0  0  0  0  0  3  0  0  0  0  0  0
  184.6620  179.5740  144.3030 C   0  0  0  0  0  3  0  0  0  0  0  0
  189.0950  177.9230  147.9300 C   0  0  0  0  0  2  0  0  0  0  0  0
  189.2650  177.1230  144.9290 C   0  0  0  0  0  3  0  0  0  0  0  0
  190.3290  177.1580  145.9810 C   0  0  0  0  0  2  0  0  0  0  0  0
  187.6700  177.9620  147.5010 C   0  0  0  0  0  3  0  0  0  0  0  0
  187.1840  177.7960  146.2570 C   0  0  0  0  0  0  0  0  0  0  0  0
  189.8200  176.7400  147.3400 C   0  0  0  0  0  2  0  0  0  0  0  0
  187.9670  177.4160  145.0600 C   0  0  0  0  0  3  0  0  0  0  0  0
  187.2530  178.4120  142.0450 N   0  0  0  0  0  2  0  0  0  0  0  0
  188.4230  178.5630  141.1960 C   0  0  0  0  0  2  0  0  0  0  0  0
  188.7470  177.2480  140.4940 C   0  0  1  0  0  3  0  0  0  0  0  0
  190.9890  175.0580  138.3850 F   0  0  0  0  0  0  0  0  0  0  0  0
  191.2280  176.3810  138.0390 C   0  0  2  0  0  0  0  0  0  0  0  0
  189.2150  177.5020  139.1330 N   0  0  2  0  0  0  0  0  0  0  0  0
  189.8490  176.5340  141.2520 C   0  0  0  0  0  2  0  0  0  0  0  0
  188.5240  176.5430  138.2680 C   0  0  0  0  0  2  0  0  0  0  0  0
  190.6850  177.3180  139.1390 C   0  0  1  0  0  3  0  0  0  0  0  0
  190.5250  176.6930  136.7150 C   0  0  0  0  0  2  0  0  0  0  0  0
  191.1210  176.8850  140.5310 C   0  0  0  0  0  2  0  0  0  0  0  0
  188.9980  176.6830  136.8250 C   0  0  0  0  0  2  0  0  0  0  0  0
  192.7320  176.6160  137.8750 C   0  0  0  0  0  2  0  0  0  0  0  0
  193.3520  175.7680  136.7670 C   0  0  1  0  0  3  0  0  0  0  0  0
  194.3030  176.6210  135.9450 C   0  0  0  0  0  1  0  0  0  0  0  0
  194.0670  174.5720  137.3100 C   0  0  0  0  0  0  0  0  0  0  0  0
  194.6670  172.2730  137.1110 N   0  0  0  0  0  0  0  0  0  0  0  0
  195.4930  173.5340  138.9210 N   0  0  0  0  0  0  0  0  0  0  0  0
  195.4090  172.3560  138.2470 C   0  0  0  0  0  3  0  0  0  0  0  0
  194.8440  174.6390  138.4740 C   0  0  0  0  0  3  0  0  0  0  0  0
  194.0020  173.3560  136.6320 C   0  0  0  0  0  3  0  0  0  0  0  0
  1 10  1  0  0  0  0
  1 23  1  0  0  0  0
  2  5  2  0  0  0  0
  2  8  1  0  0  0  0
  3 15  1  0  0  0  0
  4  7  1  0  0  0  0
  4 12  1  0  0  0  0
  5  9  1  0  0  0  0
  6  2  1  0  0  0  0
  7 10  1  0  0  0  0
  8  4  2  0  0  0  0
  9  7  2  0  0  0  0
 10  3  2  0  0  0  0
 11  3  1  0  0  0  0
 12 11  2  0  0  0  0
 13 14  2  0  0  0  0
 14 20  1  0  0  0  0
 15 13  2  0  0  0  0
 17 22  2  0  0  0  0
 17 18  1  0  0  0  0
 18 21  1  0  0  0  0
 19 16  1  0  0  0  0
 20 19  2  0  0  0  0
 21 16  1  0  0  0  0
 22 20  1  0  0  0  0
 24 23  1  0  0  0  0
 25 24  1  1  0  0  0
 25 29  1  0  0  0  0
 27 26  1  1  0  0  0
 27 31  1  0  0  0  0
 28 30  1  6  0  0  0
 28 31  1  0  0  0  0
 28 25  1  0  0  0  0
 31 33  1  1  0  0  0
 32 34  1  0  0  0  0
 32 27  1  0  0  0  0
 33 29  1  0  0  0  0
 34 30  1  0  0  0  0
 35 27  1  0  0  0  0
 36 37  1  1  0  0  0
 36 38  1  0  0  0  0
 36 35  1  0  0  0  0
 38 42  1  0  0  0  0
 39 41  2  0  0  0  0
 41 40  1  0  0  0  0
 42 40  2  0  0  0  0
 43 39  1  0  0  0  0
 43 38  2  0  0  0  0
M  END
>  <MODEL>
1

>  <REMARK>
 VINA RESULT:     -10.1      0.000      0.000
  Name = 
  9 active torsions:
  status: ('A' for Active; 'I' for Inactive)
    1  A    between atoms: C_2  and  C_13
    2  A    between atoms: C_4  and  C_22
    3  A    between atoms: C_8  and  C_34
    4  A    between atoms: C_11  and  C_14
    5  A    between atoms: C_13  and  N_38
    6  A    between atoms: C_14  and  C_22
    7  A    between atoms: C_27  and  C_30
    8  A    between atoms: C_27  and  N_38
    9  A    between atoms: C_28  and  C_35
                            x       y       z     vdW  Elec       q    Type
                         _______ _______ _______ _____ _____    ______ ____

>  <TORSDO>
F 9

$$$$
=
 OpenBabel10272414293D

 43 48  0  0  1  0  0  0  0  0999 V2000
  186.0120  178.3200  142.3960 C   0  0  0  0  0  2  0  0  0  0  0  0
  181.4730  177.8130  140.0650 C   0  0  0  0  0  0  0  0  0  0  0  0
  184.2650  179.0540  144.1050 C   0  0  0  0  0  0  0  0  0  0  0  0
  182.2120  178.5820  142.2390 C   0  0  0  0  0  0  0  0  0  0  0  0
  182.7970  177.5510  139.7020 C   0  0  0  0  0  3  0  0  0  0  0  0
  180.3740  177.5530  139.0980 C   0  0  0  0  0  1  0  0  0  0  0  0
  183.5550  178.3110  141.8860 C   0  0  0  0  0  0  0  0  0  0  0  0
  181.1810  178.3280  141.3310 C   0  0  0  0  0  3  0  0  0  0  0  0
  183.8300  177.7980  140.6060 C   0  0  0  0  0  3  0  0  0  0  0  0
  184.5900  178.5480  142.8150 C   0  0  0  0  0  0  0  0  0  0  0  0
  182.9330  179.3350  144.4170 C   0  0  0  0  0  3  0  0  0  0  0  0
  181.9130  179.1030  143.4950 C   0  0  0  0  0  3  0  0  0  0  0  0
  186.0110  178.3930  145.7000 C   0  0  0  0  0  0  0  0  0  0  0  0
  186.7530  177.4570  146.2300 C   0  0  0  0  0  3  0  0  0  0  0  0
  185.2490  179.3110  145.1760 C   0  0  0  0  0  3  0  0  0  0  0  0
  189.9380  177.0750  144.0760 C   0  0  0  0  0  2  0  0  0  0  0  0
  190.3790  176.9040  147.1500 C   0  0  0  0  0  3  0  0  0  0  0  0
  191.3690  176.8760  146.0300 C   0  0  0  0  0  2  0  0  0  0  0  0
  188.5700  177.3130  144.6160 C   0  0  0  0  0  3  0  0  0  0  0  0
  188.1730  177.2450  145.8990 C   0  0  0  0  0  0  0  0  0  0  0  0
  190.9870  177.7900  144.8890 C   0  0  0  0  0  2  0  0  0  0  0  0
  189.0500  177.0340  147.0720 C   0  0  0  0  0  3  0  0  0  0  0  0
  186.5420  179.5300  141.7870 N   0  0  0  0  0  2  0  0  0  0  0  0
  187.8310  179.1930  141.2030 C   0  0  0  0  0  2  0  0  0  0  0  0
  187.7020  177.9790  140.2890 C   0  0  1  0  0  3  0  0  0  0  0  0
  188.8050  175.8970  137.3370 F   0  0  0  0  0  0  0  0  0  0  0  0
  189.1500  177.2180  137.0860 C   0  0  2  0  0  0  0  0  0  0  0  0
  187.7770  178.3900  138.8880 N   0  0  2  0  0  0  0  0  0  0  0  0
  188.8420  177.0200  140.5670 C   0  0  0  0  0  2  0  0  0  0  0  0
  186.7070  177.6780  138.1860 C   0  0  0  0  0  2  0  0  0  0  0  0
  189.1280  178.0250  138.4020 C   0  0  1  0  0  3  0  0  0  0  0  0
  188.1470  177.8260  136.1020 C   0  0  0  0  0  2  0  0  0  0  0  0
  189.8800  177.3220  139.5220 C   0  0  0  0  0  2  0  0  0  0  0  0
  186.7440  177.9890  136.6930 C   0  0  0  0  0  2  0  0  0  0  0  0
  190.5530  177.2870  136.4780 C   0  0  0  0  0  2  0  0  0  0  0  0
  191.0680  175.9270  136.0080 C   0  0  1  0  0  3  0  0  0  0  0  0
  191.3810  175.9870  134.5230 C   0  0  0  0  0  1  0  0  0  0  0  0
  192.2760  175.4910  136.7750 C   0  0  0  0  0  0  0  0  0  0  0  0
  193.8390  173.7830  137.3460 N   0  0  0  0  0  0  0  0  0  0  0  0
  194.1050  175.9450  138.2420 N   0  0  0  0  0  0  0  0  0  0  0  0
  194.5250  174.6560  138.1290 C   0  0  0  0  0  3  0  0  0  0  0  0
  193.0020  176.3780  137.5800 C   0  0  0  0  0  3  0  0  0  0  0  0
  192.7290  174.1770  136.6680 C   0  0  0  0  0  3  0  0  0  0  0  0
  1 10  1  0  0  0  0
  2  8  1  0  0  0  0
  3 11  1  0  0  0  0
  3 15  1  0  0  0  0
  4 12  1  0  0  0  0
  5  2  2  0  0  0  0
  5  9  1  0  0  0  0
  6  2  1  0  0  0  0
  7  4  1  0  0  0  0
  7 10  1  0  0  0  0
  8  4  2  0  0  0  0
  9  7  2  0  0  0  0
 10  3  2  0  0  0  0
 12 11  2  0  0  0  0
 13 14  2  0  0  0  0
 15 13  2  0  0  0  0
 16 19  1  0  0  0  0
 16 21  1  0  0  0  0
 18 17  1  0  0  0  0
 19 20  2  0  0  0  0
 20 14  1  0  0  0  0
 20 22  1  0  0  0  0
 21 18  1  0  0  0  0
 22 17  2  0  0  0  0
 23  1  1  0  0  0  0
 24 23  1  0  0  0  0
 25 29  1  0  0  0  0
 25 24  1  1  0  0  0
 27 26  1  1  0  0  0
 27 31  1  0  0  0  0
 28 30  1  6  0  0  0
 28 25  1  0  0  0  0
 31 28  1  0  0  0  0
 31 33  1  1  0  0  0
 32 34  1  0  0  0  0
 32 27  1  0  0  0  0
 33 29  1  0  0  0  0
 34 30  1  0  0  0  0
 35 27  1  0  0  0  0
 36 37  1  6  0  0  0
 36 35  1  0  0  0  0
 36 38  1  0  0  0  0
 38 42  1  0  0  0  0
 39 41  2  0  0  0  0
 41 40  1  0  0  0  0
 42 40  2  0  0  0  0
 43 38  2  0  0  0  0
 43 39  1  0  0  0  0
M  END
>  <MODEL>
2

>  <REMARK>
 VINA RESULT:      -9.9      1.380      2.160
  Name = 
  9 active torsions:
  status: ('A' for Active; 'I' for Inactive)
    1  A    between atoms: C_2  and  C_13
    2  A    between atoms: C_4  and  C_22
    3  A    between atoms: C_8  and  C_34
    4  A    between atoms: C_11  and  C_14
    5  A    between atoms: C_13  and  N_38
    6  A    between atoms: C_14  and  C_22
    7  A    between atoms: C_27  and  C_30
    8  A    between atoms: C_27  and  N_38
    9  A    between atoms: C_28  and  C_35
                            x       y       z     vdW  Elec       q    Type
                         _______ _______ _______ _____ _____    ______ ____

>  <TORSDO>
F 9

$$$$
=
 OpenBabel10272414293D

 43 48  0  0  1  0  0  0  0  0999 V2000
  187.5910  177.5980  142.7350 C   0  0  0  0  0  2  0  0  0  0  0  0
  190.8020  176.6570  146.6210 C   0  0  0  0  0  0  0  0  0  0  0  0
  186.2710  178.0850  144.8640 C   0  0  0  0  0  0  0  0  0  0  0  0
  188.4910  177.3580  146.4320 C   0  0  0  0  0  0  0  0  0  0  0  0
  190.9110  176.6220  145.2290 C   0  0  0  0  0  3  0  0  0  0  0  0
  191.9710  176.2940  147.4650 C   0  0  0  0  0  1  0  0  0  0  0  0
  188.5940  177.3360  145.0210 C   0  0  0  0  0  0  0  0  0  0  0  0
  189.5940  177.0240  147.2210 C   0  0  0  0  0  3  0  0  0  0  0  0
  189.8140  176.9590  144.4340 C   0  0  0  0  0  3  0  0  0  0  0  0
  187.4840  177.6960  144.2280 C   0  0  0  0  0  0  0  0  0  0  0  0
  186.1920  178.0740  146.2580 C   0  0  0  0  0  3  0  0  0  0  0  0
  187.2910  177.7150  147.0390 C   0  0  0  0  0  3  0  0  0  0  0  0
  185.0340  178.8940  142.9020 C   0  0  0  0  0  0  0  0  0  0  0  0
  185.0350  179.2900  141.6570 C   0  0  0  0  0  3  0  0  0  0  0  0
  185.0520  178.5170  144.1500 C   0  0  0  0  0  3  0  0  0  0  0  0
  182.9030  176.7680  139.6530 C   0  0  0  0  0  2  0  0  0  0  0  0
  185.2590  178.0620  138.0880 C   0  0  0  0  0  3  0  0  0  0  0  0
  184.1970  177.1160  137.6260 C   0  0  0  0  0  2  0  0  0  0  0  0
  183.4790  177.7110  140.6520 C   0  0  0  0  0  3  0  0  0  0  0  0
  184.5920  178.4570  140.5270 C   0  0  0  0  0  0  0  0  0  0  0  0
  182.8580  177.3780  138.2750 C   0  0  0  0  0  2  0  0  0  0  0  0
  185.4190  178.5880  139.3070 C   0  0  0  0  0  3  0  0  0  0  0  0
  188.6680  178.4580  142.2660 N   0  0  0  0  0  2  0  0  0  0  0  0
  188.5790  178.5120  140.8160 C   0  0  0  0  0  2  0  0  0  0  0  0
  188.9460  177.1610  140.2080 C   0  0  1  0  0  3  0  0  0  0  0  0
  191.1090  174.9660  138.0230 F   0  0  0  0  0  0  0  0  0  0  0  0
  191.1560  176.2580  137.5170 C   0  0  2  0  0  0  0  0  0  0  0  0
  189.1980  177.3030  138.7750 N   0  0  2  0  0  0  0  0  0  0  0  0
  190.2090  176.6430  140.8650 C   0  0  0  0  0  2  0  0  0  0  0  0
  188.5050  176.1940  138.1170 C   0  0  0  0  0  2  0  0  0  0  0  0
  190.6660  177.2590  138.5860 C   0  0  1  0  0  3  0  0  0  0  0  0
  190.2530  176.3530  136.2850 C   0  0  0  0  0  2  0  0  0  0  0  0
  191.3280  177.0270  139.9370 C   0  0  0  0  0  2  0  0  0  0  0  0
  188.7640  176.2130  136.6140 C   0  0  0  0  0  2  0  0  0  0  0  0
  192.5900  176.6120  137.1170 C   0  0  0  0  0  2  0  0  0  0  0  0
  193.2870  175.4940  136.3430 C   0  0  1  0  0  3  0  0  0  0  0  0
  193.5960  175.9670  134.9330 C   0  0  0  0  0  1  0  0  0  0  0  0
  194.5400  175.0400  137.0230 C   0  0  0  0  0  0  0  0  0  0  0  0
  196.9170  174.8510  137.0350 N   0  0  0  0  0  0  0  0  0  0  0  0
  195.6830  174.0650  138.8810 N   0  0  0  0  0  0  0  0  0  0  0  0
  196.8760  174.2660  138.2610 C   0  0  0  0  0  3  0  0  0  0  0  0
  194.5200  174.4440  138.2910 C   0  0  0  0  0  3  0  0  0  0  0  0
  195.7760  175.2420  136.4100 C   0  0  0  0  0  3  0  0  0  0  0  0
  1 10  1  0  0  0  0
  2  8  1  0  0  0  0
  2  6  1  0  0  0  0
  3 11  1  0  0  0  0
  4 12  1  0  0  0  0
  4  8  2  0  0  0  0
  5  2  2  0  0  0  0
  7  4  1  0  0  0  0
  9  7  2  0  0  0  0
  9  5  1  0  0  0  0
 10  3  2  0  0  0  0
 10  7  1  0  0  0  0
 11 12  2  0  0  0  0
 13 15  2  0  0  0  0
 14 13  2  0  0  0  0
 15  3  1  0  0  0  0
 16 19  1  0  0  0  0
 17 22  2  0  0  0  0
 18 17  1  0  0  0  0
 18 21  1  0  0  0  0
 20 19  2  0  0  0  0
 20 14  1  0  0  0  0
 21 16  1  0  0  0  0
 22 20  1  0  0  0  0
 23  1  1  0  0  0  0
 24 23  1  0  0  0  0
 25 24  1  1  0  0  0
 25 29  1  0  0  0  0
 27 26  1  1  0  0  0
 27 31  1  0  0  0  0
 28 30  1  6  0  0  0
 28 25  1  0  0  0  0
 31 28  1  0  0  0  0
 31 33  1  1  0  0  0
 32 34  1  0  0  0  0
 32 27  1  0  0  0  0
 33 29  1  0  0  0  0
 34 30  1  0  0  0  0
 35 27  1  0  0  0  0
 36 37  1  6  0  0  0
 36 38  1  0  0  0  0
 36 35  1  0  0  0  0
 38 42  1  0  0  0  0
 39 41  2  0  0  0  0
 41 40  1  0  0  0  0
 42 40  2  0  0  0  0
 43 38  2  0  0  0  0
 43 39  1  0  0  0  0
M  END
>  <MODEL>
3

>  <REMARK>
 VINA RESULT:      -9.6      1.058      5.733
  Name = 
  9 active torsions:
  status: ('A' for Active; 'I' for Inactive)
    1  A    between atoms: C_2  and  C_13
    2  A    between atoms: C_4  and  C_22
    3  A    between atoms: C_8  and  C_34
    4  A    between atoms: C_11  and  C_14
    5  A    between atoms: C_13  and  N_38
    6  A    between atoms: C_14  and  C_22
    7  A    between atoms: C_27  and  C_30
    8  A    between atoms: C_27  and  N_38
    9  A    between atoms: C_28  and  C_35
                            x       y       z     vdW  Elec       q    Type
                         _______ _______ _______ _____ _____    ______ ____

>  <TORSDO>
F 9

$$$$
=
 OpenBabel10272414293D

 43 48  0  0  1  0  0  0  0  0999 V2000
  189.2870  178.4020  136.9850 C   0  0  0  0  0  2  0  0  0  0  0  0
  192.7810  174.6830  137.4940 C   0  0  0  0  0  0  0  0  0  0  0  0
  188.1840  176.2810  136.0920 C   0  0  0  0  0  0  0  0  0  0  0  0
  190.5280  174.8160  136.6140 C   0  0  0  0  0  0  0  0  0  0  0  0
  192.7400  176.0410  137.8190 C   0  0  0  0  0  3  0  0  0  0  0  0
  194.0060  173.8890  137.7790 C   0  0  0  0  0  1  0  0  0  0  0  0
  190.4730  176.1900  136.9490 C   0  0  0  0  0  0  0  0  0  0  0  0
  191.6780  174.0720  136.8920 C   0  0  0  0  0  3  0  0  0  0  0  0
  191.5940  176.7890  137.5480 C   0  0  0  0  0  3  0  0  0  0  0  0
  189.3010  176.9310  136.6870 C   0  0  0  0  0  0  0  0  0  0  0  0
  188.2770  174.9300  135.7500 C   0  0  0  0  0  3  0  0  0  0  0  0
  189.4370  174.2010  136.0080 C   0  0  0  0  0  3  0  0  0  0  0  0
  185.7700  176.6260  136.3880 C   0  0  0  0  0  0  0  0  0  0  0  0
  184.6500  176.2900  136.9710 C   0  0  0  0  0  3  0  0  0  0  0  0
  186.8920  176.9350  135.8000 C   0  0  0  0  0  3  0  0  0  0  0  0
  182.1180  177.2260  139.7350 C   0  0  0  0  0  2  0  0  0  0  0  0
  184.5340  179.1610  139.4290 C   0  0  0  0  0  3  0  0  0  0  0  0
  183.4150  179.1620  140.4220 C   0  0  0  0  0  2  0  0  0  0  0  0
  182.9210  176.5790  138.6600 C   0  0  0  0  0  3  0  0  0  0  0  0
  184.0270  177.0570  138.0630 C   0  0  0  0  0  0  0  0  0  0  0  0
  182.9970  177.7700  140.8320 C   0  0  0  0  0  2  0  0  0  0  0  0
  184.7560  178.2890  138.4400 C   0  0  0  0  0  3  0  0  0  0  0  0
  188.4630  178.6540  138.1580 N   0  0  0  0  0  2  0  0  0  0  0  0
  189.3530  178.7240  139.3060 C   0  0  0  0  0  2  0  0  0  0  0  0
  189.0820  177.5670  140.2630 C   0  0  1  0  0  3  0  0  0  0  0  0
  188.4320  176.1820  143.7170 F   0  0  0  0  0  0  0  0  0  0  0  0
  189.1720  177.3480  143.8520 C   0  0  2  0  0  0  0  0  0  0  0  0
  189.9400  177.6740  141.4420 N   0  0  2  0  0  0  0  0  0  0  0  0
  187.6380  177.6230  140.7190 C   0  0  0  0  0  2  0  0  0  0  0  0
  190.4750  176.3340  141.6930 C   0  0  0  0  0  2  0  0  0  0  0  0
  189.0940  178.1740  142.5500 C   0  0  1  0  0  3  0  0  0  0  0  0
  190.6320  176.9910  144.1380 C   0  0  0  0  0  2  0  0  0  0  0  0
  187.6650  178.3240  142.0480 C   0  0  0  0  0  2  0  0  0  0  0  0
  191.3350  176.3250  142.9520 C   0  0  0  0  0  2  0  0  0  0  0  0
  188.6240  178.1850  145.0120 C   0  0  0  0  0  2  0  0  0  0  0  0
  187.5670  177.4480  145.8320 C   0  0  1  0  0  3  0  0  0  0  0  0
  187.9030  177.5560  147.3090 C   0  0  0  0  0  1  0  0  0  0  0  0
  186.1910  177.9750  145.5740 C   0  0  0  0  0  0  0  0  0  0  0  0
  184.4550  178.5140  144.0300 N   0  0  0  0  0  0  0  0  0  0  0  0
  184.0890  178.8150  146.3370 N   0  0  0  0  0  0  0  0  0  0  0  0
  183.6460  178.8920  145.0540 C   0  0  0  0  0  3  0  0  0  0  0  0
  185.3380  178.3610  146.6160 C   0  0  0  0  0  3  0  0  0  0  0  0
  185.7120  178.0560  144.2670 C   0  0  0  0  0  3  0  0  0  0  0  0
  1 23  1  0  0  0  0
  2  6  1  0  0  0  0
  2  5  1  0  0  0  0
  3 10  1  0  0  0  0
  4  8  1  0  0  0  0
  4  7  1  0  0  0  0
  7  9  1  0  0  0  0
  8  2  2  0  0  0  0
  9  5  2  0  0  0  0
 10  7  2  0  0  0  0
 10  1  1  0  0  0  0
 11 12  1  0  0  0  0
 11  3  2  0  0  0  0
 12  4  2  0  0  0  0
 13 14  2  0  0  0  0
 14 20  1  0  0  0  0
 15  3  1  0  0  0  0
 15 13  2  0  0  0  0
 16 21  1  0  0  0  0
 17 18  1  0  0  0  0
 18 21  1  0  0  0  0
 19 16  1  0  0  0  0
 20 22  1  0  0  0  0
 20 19  2  0  0  0  0
 22 17  2  0  0  0  0
 23 24  1  0  0  0  0
 25 24  1  6  0  0  0
 25 29  1  0  0  0  0
 25 28  1  0  0  0  0
 27 26  1  6  0  0  0
 27 32  1  0  0  0  0
 27 35  1  0  0  0  0
 28 30  1  1  0  0  0
 28 31  1  0  0  0  0
 29 33  1  0  0  0  0
 30 34  1  0  0  0  0
 31 33  1  6  0  0  0
 31 27  1  0  0  0  0
 34 32  1  0  0  0  0
 35 36  1  0  0  0  0
 36 37  1  1  0  0  0
 38 36  1  0  0  0  0
 38 42  1  0  0  0  0
 39 43  1  0  0  0  0
 39 41  2  0  0  0  0
 40 42  2  0  0  0  0
 41 40  1  0  0  0  0
 43 38  2  0  0  0  0
M  END
>  <MODEL>
4

>  <REMARK>
 VINA RESULT:      -9.4      2.382      9.029
  Name = 
  9 active torsions:
  status: ('A' for Active; 'I' for Inactive)
    1  A    between atoms: C_2  and  C_13
    2  A    between atoms: C_4  and  C_22
    3  A    between atoms: C_8  and  C_34
    4  A    between atoms: C_11  and  C_14
    5  A    between atoms: C_13  and  N_38
    6  A    between atoms: C_14  and  C_22
    7  A    between atoms: C_27  and  C_30
    8  A    between atoms: C_27  and  N_38
    9  A    between atoms: C_28  and  C_35
                            x       y       z     vdW  Elec       q    Type
                         _______ _______ _______ _____ _____    ______ ____

>  <TORSDO>
F 9

$$$$
=
 OpenBabel10272414293D

 43 48  0  0  1  0  0  0  0  0999 V2000
  187.1410  177.2480  144.1850 C   0  0  0  0  0  2  0  0  0  0  0  0
  191.3780  176.4040  146.9480 C   0  0  0  0  0  0  0  0  0  0  0  0
  186.6010  178.0420  146.5490 C   0  0  0  0  0  0  0  0  0  0  0  0
  189.1670  177.2790  147.4140 C   0  0  0  0  0  0  0  0  0  0  0  0
  191.0310  176.2300  145.6060 C   0  0  0  0  0  3  0  0  0  0  0  0
  192.7350  176.0230  147.4190 C   0  0  0  0  0  1  0  0  0  0  0  0
  188.8100  177.1160  146.0550 C   0  0  0  0  0  0  0  0  0  0  0  0
  190.4470  176.9270  147.8500 C   0  0  0  0  0  3  0  0  0  0  0  0
  189.7560  176.5830  145.1620 C   0  0  0  0  0  3  0  0  0  0  0  0
  187.5240  177.4940  145.6150 C   0  0  0  0  0  0  0  0  0  0  0  0
  186.9740  178.1690  147.8890 C   0  0  0  0  0  3  0  0  0  0  0  0
  188.2450  177.7920  148.3210 C   0  0  0  0  0  3  0  0  0  0  0  0
  184.9540  179.2020  145.1430 C   0  0  0  0  0  0  0  0  0  0  0  0
  184.6860  179.9150  144.0820 C   0  0  0  0  0  3  0  0  0  0  0  0
  185.2410  178.5080  146.2090 C   0  0  0  0  0  3  0  0  0  0  0  0
  184.4320  178.6290  140.4480 C   0  0  0  0  0  2  0  0  0  0  0  0
  181.7940  178.5140  142.0910 C   0  0  0  0  0  3  0  0  0  0  0  0
  182.0880  178.0410  140.7020 C   0  0  0  0  0  2  0  0  0  0  0  0
  184.8590  179.1220  141.7870 C   0  0  0  0  0  3  0  0  0  0  0  0
  184.0800  179.3710  142.8550 C   0  0  0  0  0  0  0  0  0  0  0  0
  183.4790  177.4670  140.5630 C   0  0  0  0  0  2  0  0  0  0  0  0
  182.6320  179.0870  142.9610 C   0  0  0  0  0  3  0  0  0  0  0  0
  188.0460  177.9730  143.3060 N   0  0  0  0  0  2  0  0  0  0  0  0
  188.4660  177.0520  142.2620 C   0  0  0  0  0  2  0  0  0  0  0  0
  189.1680  177.8050  141.1360 C   0  0  1  0  0  3  0  0  0  0  0  0
  189.7190  178.5750  137.4790 F   0  0  0  0  0  0  0  0  0  0  0  0
  189.2600  177.2700  137.5800 C   0  0  2  0  0  0  0  0  0  0  0  0
  189.5720  176.8760  140.0810 N   0  0  2  0  0  0  0  0  0  0  0  0
  188.2110  178.8170  140.5390 C   0  0  0  0  0  2  0  0  0  0  0  0
  190.9440  177.2330  139.7140 C   0  0  0  0  0  2  0  0  0  0  0  0
  188.6130  177.0460  138.9640 C   0  0  1  0  0  3  0  0  0  0  0  0
  190.4340  176.3040  137.4080 C   0  0  0  0  0  2  0  0  0  0  0  0
  187.6290  178.1490  139.3250 C   0  0  0  0  0  2  0  0  0  0  0  0
  191.4370  176.3600  138.5650 C   0  0  0  0  0  2  0  0  0  0  0  0
  188.2210  176.9940  136.4900 C   0  0  0  0  0  2  0  0  0  0  0  0
  187.1400  176.0080  136.9310 C   0  0  1  0  0  3  0  0  0  0  0  0
  185.7710  176.5640  136.5800 C   0  0  0  0  0  1  0  0  0  0  0  0
  187.3260  174.6600  136.3110 C   0  0  0  0  0  0  0  0  0  0  0  0
  188.2440  173.3070  134.5760 N   0  0  0  0  0  0  0  0  0  0  0  0
  187.0290  172.2890  136.3180 N   0  0  0  0  0  0  0  0  0  0  0  0
  187.7360  172.1900  135.1610 C   0  0  0  0  0  3  0  0  0  0  0  0
  186.8190  173.4960  136.9030 C   0  0  0  0  0  3  0  0  0  0  0  0
  188.0550  174.5330  135.1290 C   0  0  0  0  0  3  0  0  0  0  0  0
  1 10  1  0  0  0  0
  2  6  1  0  0  0  0
  2  8  1  0  0  0  0
  3 11  1  0  0  0  0
  4  8  2  0  0  0  0
  4 12  1  0  0  0  0
  5  2  2  0  0  0  0
  7  4  1  0  0  0  0
  9  5  1  0  0  0  0
  9  7  2  0  0  0  0
 10  7  1  0  0  0  0
 10  3  2  0  0  0  0
 11 12  2  0  0  0  0
 13 15  2  0  0  0  0
 14 13  2  0  0  0  0
 15  3  1  0  0  0  0
 16 21  1  0  0  0  0
 16 19  1  0  0  0  0
 17 22  2  0  0  0  0
 18 17  1  0  0  0  0
 19 20  2  0  0  0  0
 20 22  1  0  0  0  0
 20 14  1  0  0  0  0
 21 18  1  0  0  0  0
 23  1  1  0  0  0  0
 24 23  1  0  0  0  0
 25 24  1  1  0  0  0
 27 26  1  6  0  0  0
 27 31  1  0  0  0  0
 28 30  1  6  0  0  0
 28 25  1  0  0  0  0
 29 25  1  0  0  0  0
 31 33  1  1  0  0  0
 31 28  1  0  0  0  0
 32 27  1  0  0  0  0
 32 34  1  0  0  0  0
 33 29  1  0  0  0  0
 34 30  1  0  0  0  0
 35 36  1  0  0  0  0
 35 27  1  0  0  0  0
 36 37  1  6  0  0  0
 38 42  1  0  0  0  0
 38 36  1  0  0  0  0
 39 43  1  0  0  0  0
 39 41  2  0  0  0  0
 40 42  2  0  0  0  0
 41 40  1  0  0  0  0
 43 38  2  0  0  0  0
M  END
>  <MODEL>
5

>  <REMARK>
 VINA RESULT:      -9.1      2.457      6.773
  Name = 
  9 active torsions:
  status: ('A' for Active; 'I' for Inactive)
    1  A    between atoms: C_2  and  C_13
    2  A    between atoms: C_4  and  C_22
    3  A    between atoms: C_8  and  C_34
    4  A    between atoms: C_11  and  C_14
    5  A    between atoms: C_13  and  N_38
    6  A    between atoms: C_14  and  C_22
    7  A    between atoms: C_27  and  C_30
    8  A    between atoms: C_27  and  N_38
    9  A    between atoms: C_28  and  C_35
                            x       y       z     vdW  Elec       q    Type
                         _______ _______ _______ _____ _____    ______ ____

>  <TORSDO>
F 9

$$$$
=
 OpenBabel10272414293D

 43 48  0  0  1  0  0  0  0  0999 V2000
  186.8160  178.1470  136.8280 C   0  0  0  0  0  2  0  0  0  0  0  0
  188.0640  173.2590  135.9100 C   0  0  0  0  0  0  0  0  0  0  0  0
  184.8010  176.7640  137.5600 C   0  0  0  0  0  0  0  0  0  0  0  0
  186.1100  174.4020  136.7730 C   0  0  0  0  0  0  0  0  0  0  0  0
  188.7240  174.4820  135.7700 C   0  0  0  0  0  3  0  0  0  0  0  0
  188.7470  171.9990  135.5150 C   0  0  0  0  0  1  0  0  0  0  0  0
  186.7740  175.6450  136.6460 C   0  0  0  0  0  0  0  0  0  0  0  0
  186.7590  173.2190  136.4100 C   0  0  0  0  0  3  0  0  0  0  0  0
  188.0830  175.6670  136.1360 C   0  0  0  0  0  3  0  0  0  0  0  0
  186.1220  176.8340  137.0360 C   0  0  0  0  0  0  0  0  0  0  0  0
  184.1630  175.5250  137.6520 C   0  0  0  0  0  3  0  0  0  0  0  0
  184.8080  174.3520  137.2630 C   0  0  0  0  0  3  0  0  0  0  0  0
  183.2850  177.9210  139.1080 C   0  0  0  0  0  0  0  0  0  0  0  0
  182.5290  177.8910  140.1740 C   0  0  0  0  0  3  0  0  0  0  0  0
  184.0260  177.9280  138.0360 C   0  0  0  0  0  3  0  0  0  0  0  0
  182.1410  179.4230  143.6990 C   0  0  0  0  0  2  0  0  0  0  0  0
  185.0700  178.9520  142.7650 C   0  0  0  0  0  3  0  0  0  0  0  0
  184.5420  179.4480  144.0730 C   0  0  0  0  0  2  0  0  0  0  0  0
  181.9600  178.7860  142.3650 C   0  0  0  0  0  3  0  0  0  0  0  0
  182.9150  178.4660  141.4740 C   0  0  0  0  0  0  0  0  0  0  0  0
  183.2550  178.7700  144.4790 C   0  0  0  0  0  2  0  0  0  0  0  0
  184.3760  178.5710  141.6880 C   0  0  0  0  0  3  0  0  0  0  0  0
  187.0940  178.7620  138.1170 N   0  0  0  0  0  2  0  0  0  0  0  0
  188.5390  178.8070  138.2730 C   0  0  0  0  0  2  0  0  0  0  0  0
  189.0210  177.6350  139.1220 C   0  0  1  0  0  3  0  0  0  0  0  0
  190.1620  176.1390  142.3980 F   0  0  0  0  0  0  0  0  0  0  0  0
  190.4880  177.4880  142.4040 C   0  0  2  0  0  0  0  0  0  0  0  0
  190.1700  178.0360  139.9320 N   0  0  2  0  0  0  0  0  0  0  0  0
  187.9080  177.2010  140.0550 C   0  0  0  0  0  2  0  0  0  0  0  0
  191.1560  176.9580  139.8220 C   0  0  0  0  0  2  0  0  0  0  0  0
  189.6790  178.2280  141.3170 C   0  0  1  0  0  3  0  0  0  0  0  0
  191.9830  177.6490  142.1190 C   0  0  0  0  0  2  0  0  0  0  0  0
  188.1980  177.8810  141.3650 C   0  0  0  0  0  2  0  0  0  0  0  0
  192.3730  177.2510  140.6930 C   0  0  0  0  0  2  0  0  0  0  0  0
  190.1690  178.0980  143.7710 C   0  0  0  0  0  2  0  0  0  0  0  0
  190.0730  177.0550  144.8830 C   0  0  1  0  0  3  0  0  0  0  0  0
  191.4190  176.9220  145.5730 C   0  0  0  0  0  1  0  0  0  0  0  0
  189.0110  177.3960  145.8790 C   0  0  0  0  0  0  0  0  0  0  0  0
  188.3730  177.8090  148.1400 N   0  0  0  0  0  0  0  0  0  0  0  0
  186.7660  178.0030  146.4290 N   0  0  0  0  0  0  0  0  0  0  0  0
  187.0990  178.0700  147.7450 C   0  0  0  0  0  3  0  0  0  0  0  0
  187.6940  177.6770  145.4920 C   0  0  0  0  0  3  0  0  0  0  0  0
  189.3300  177.4790  147.2340 C   0  0  0  0  0  3  0  0  0  0  0  0
  1 10  1  0  0  0  0
  1 23  1  0  0  0  0
  2  8  1  0  0  0  0
  3 11  1  0  0  0  0
  3 15  1  0  0  0  0
  4 12  1  0  0  0  0
  5  2  2  0  0  0  0
  5  9  1  0  0  0  0
  6  2  1  0  0  0  0
  7  4  1  0  0  0  0
  7 10  1  0  0  0  0
  8  4  2  0  0  0  0
  9  7  2  0  0  0  0
 10  3  2  0  0  0  0
 12 11  2  0  0  0  0
 13 14  2  0  0  0  0
 14 20  1  0  0  0  0
 15 13  2  0  0  0  0
 16 21  1  0  0  0  0
 17 18  1  0  0  0  0
 18 21  1  0  0  0  0
 19 16  1  0  0  0  0
 20 22  1  0  0  0  0
 20 19  2  0  0  0  0
 22 17  2  0  0  0  0
 23 24  1  0  0  0  0
 25 24  1  1  0  0  0
 25 28  1  0  0  0  0
 25 29  1  0  0  0  0
 27 26  1  6  0  0  0
 27 35  1  0  0  0  0
 28 30  1  1  0  0  0
 28 31  1  0  0  0  0
 29 33  1  0  0  0  0
 30 34  1  0  0  0  0
 31 33  1  6  0  0  0
 31 27  1  0  0  0  0
 32 27  1  0  0  0  0
 34 32  1  0  0  0  0
 35 36  1  0  0  0  0
 36 37  1  1  0  0  0
 36 38  1  0  0  0  0
 38 43  1  0  0  0  0
 40 41  2  0  0  0  0
 41 39  1  0  0  0  0
 42 38  2  0  0  0  0
 42 40  1  0  0  0  0
 43 39  2  0  0  0  0
M  END
>  <MODEL>
6

>  <REMARK>
 VINA RESULT:      -9.1      2.842      7.163
  Name = 
  9 active torsions:
  status: ('A' for Active; 'I' for Inactive)
    1  A    between atoms: C_2  and  C_13
    2  A    between atoms: C_4  and  C_22
    3  A    between atoms: C_8  and  C_34
    4  A    between atoms: C_11  and  C_14
    5  A    between atoms: C_13  and  N_38
    6  A    between atoms: C_14  and  C_22
    7  A    between atoms: C_27  and  C_30
    8  A    between atoms: C_27  and  N_38
    9  A    between atoms: C_28  and  C_35
                            x       y       z     vdW  Elec       q    Type
                         _______ _______ _______ _____ _____    ______ ____

>  <TORSDO>
F 9

$$$$
=
 OpenBabel10272414293D

 43 48  0  0  1  0  0  0  0  0999 V2000
  192.7860  177.2860  138.5860 C   0  0  0  0  0  2  0  0  0  0  0  0
  193.7820  172.6860  136.5500 C   0  0  0  0  0  0  0  0  0  0  0  0
  190.6150  176.5270  137.4810 C   0  0  0  0  0  0  0  0  0  0  0  0
  191.8570  174.1550  136.6200 C   0  0  0  0  0  0  0  0  0  0  0  0
  194.5170  173.6050  137.3040 C   0  0  0  0  0  3  0  0  0  0  0  0
  194.4180  171.4200  136.1010 C   0  0  0  0  0  1  0  0  0  0  0  0
  192.5890  175.0870  137.3930 C   0  0  0  0  0  0  0  0  0  0  0  0
  192.4550  172.9620  136.2080 C   0  0  0  0  0  3  0  0  0  0  0  0
  193.9240  174.7960  137.7230 C   0  0  0  0  0  3  0  0  0  0  0  0
  191.9730  176.2800  137.8260 C   0  0  0  0  0  0  0  0  0  0  0  0
  189.9250  175.6010  136.6960 C   0  0  0  0  0  3  0  0  0  0  0  0
  190.5380  174.4240  136.2680 C   0  0  0  0  0  3  0  0  0  0  0  0
  188.6570  178.0110  137.4580 C   0  0  0  0  0  0  0  0  0  0  0  0
  187.4730  178.3020  136.9870 C   0  0  0  0  0  3  0  0  0  0  0  0
  189.8470  177.7180  137.9010 C   0  0  0  0  0  3  0  0  0  0  0  0
  184.8590  178.4790  139.8260 C   0  0  0  0  0  2  0  0  0  0  0  0
  183.9760  176.8980  137.2960 C   0  0  0  0  0  3  0  0  0  0  0  0
  183.2150  177.2340  138.5400 C   0  0  0  0  0  2  0  0  0  0  0  0
  186.0270  178.6400  138.9160 C   0  0  0  0  0  3  0  0  0  0  0  0
  186.2160  178.0640  137.7150 C   0  0  0  0  0  0  0  0  0  0  0  0
  183.5540  178.6030  139.0800 C   0  0  0  0  0  2  0  0  0  0  0  0
  185.2330  177.2330  136.9850 C   0  0  0  0  0  3  0  0  0  0  0  0
  192.8420  176.9090  139.9900 N   0  0  0  0  0  2  0  0  0  0  0  0
  191.8120  177.6650  140.6840 C   0  0  0  0  0  2  0  0  0  0  0  0
  191.0010  176.7510  141.5970 C   0  0  1  0  0  3  0  0  0  0  0  0
  188.6730  176.1670  144.5140 F   0  0  0  0  0  0  0  0  0  0  0  0
  189.3900  177.3300  144.7600 C   0  0  2  0  0  0  0  0  0  0  0  0
  191.2200  177.1110  142.9970 N   0  0  2  0  0  0  0  0  0  0  0  0
  189.5270  176.9140  141.2870 C   0  0  0  0  0  2  0  0  0  0  0  0
  191.4260  175.8570  143.7240 C   0  0  0  0  0  2  0  0  0  0  0  0
  190.0170  177.8480  143.4480 C   0  0  1  0  0  3  0  0  0  0  0  0
  190.5010  177.0370  145.7700 C   0  0  0  0  0  2  0  0  0  0  0  0
  189.0110  177.8920  142.3070 C   0  0  0  0  0  2  0  0  0  0  0  0
  191.5960  176.1210  145.2160 C   0  0  0  0  0  2  0  0  0  0  0  0
  188.4630  178.4060  145.3320 C   0  0  0  0  0  2  0  0  0  0  0  0
  187.2570  177.8240  146.0700 C   0  0  1  0  0  3  0  0  0  0  0  0
  187.2980  178.2500  147.5270 C   0  0  0  0  0  1  0  0  0  0  0  0
  185.9640  178.2410  145.4440 C   0  0  0  0  0  0  0  0  0  0  0  0
  184.5790  178.4110  143.5100 N   0  0  0  0  0  0  0  0  0  0  0  0
  183.7530  179.1340  145.5940 N   0  0  0  0  0  0  0  0  0  0  0  0
  183.5800  178.9480  144.2590 C   0  0  0  0  0  3  0  0  0  0  0  0
  184.9190  178.7880  146.1990 C   0  0  0  0  0  3  0  0  0  0  0  0
  185.7610  178.0530  144.0780 C   0  0  0  0  0  3  0  0  0  0  0  0
  1 23  1  0  0  0  0
  2  5  1  0  0  0  0
  3 10  1  0  0  0  0
  3 15  1  0  0  0  0
  4  7  1  0  0  0  0
  5  9  2  0  0  0  0
  6  2  1  0  0  0  0
  7  9  1  0  0  0  0
  7 10  2  0  0  0  0
  8  2  2  0  0  0  0
  8  4  1  0  0  0  0
 10  1  1  0  0  0  0
 11  3  2  0  0  0  0
 12  4  2  0  0  0  0
 12 11  1  0  0  0  0
 13 15  2  0  0  0  0
 14 13  2  0  0  0  0
 14 20  1  0  0  0  0
 17 18  1  0  0  0  0
 18 21  1  0  0  0  0
 19 16  1  0  0  0  0
 20 19  2  0  0  0  0
 21 16  1  0  0  0  0
 22 17  2  0  0  0  0
 22 20  1  0  0  0  0
 23 24  1  0  0  0  0
 25 24  1  6  0  0  0
 25 28  1  0  0  0  0
 27 26  1  6  0  0  0
 27 35  1  0  0  0  0
 27 32  1  0  0  0  0
 28 31  1  0  0  0  0
 28 30  1  1  0  0  0
 29 25  1  0  0  0  0
 29 33  1  0  0  0  0
 30 34  1  0  0  0  0
 31 33  1  6  0  0  0
 31 27  1  0  0  0  0
 34 32  1  0  0  0  0
 35 36  1  0  0  0  0
 36 37  1  1  0  0  0
 38 36  1  0  0  0  0
 38 42  1  0  0  0  0
 39 43  1  0  0  0  0
 39 41  2  0  0  0  0
 40 42  2  0  0  0  0
 41 40  1  0  0  0  0
 43 38  2  0  0  0  0
M  END
>  <MODEL>
7

>  <REMARK>
 VINA RESULT:      -9.0      2.121      9.639
  Name = 
  9 active torsions:
  status: ('A' for Active; 'I' for Inactive)
    1  A    between atoms: C_2  and  C_13
    2  A    between atoms: C_4  and  C_22
    3  A    between atoms: C_8  and  C_34
    4  A    between atoms: C_11  and  C_14
    5  A    between atoms: C_13  and  N_38
    6  A    between atoms: C_14  and  C_22
    7  A    between atoms: C_27  and  C_30
    8  A    between atoms: C_27  and  N_38
    9  A    between atoms: C_28  and  C_35
                            x       y       z     vdW  Elec       q    Type
                         _______ _______ _______ _____ _____    ______ ____

>  <TORSDO>
F 9

$$$$
=
 OpenBabel10272414293D

 43 48  0  0  1  0  0  0  0  0999 V2000
  188.5670  176.5000  138.3630 C   0  0  0  0  0  2  0  0  0  0  0  0
  193.4890  175.8120  137.0990 C   0  0  0  0  0  0  0  0  0  0  0  0
  189.9250  177.4370  140.3110 C   0  0  0  0  0  0  0  0  0  0  0  0
  192.3170  176.7190  139.0150 C   0  0  0  0  0  0  0  0  0  0  0  0
  192.2690  175.5580  136.4670 C   0  0  0  0  0  3  0  0  0  0  0  0
  194.7630  175.4550  136.4220 C   0  0  0  0  0  1  0  0  0  0  0  0
  191.0770  176.4760  138.3790 C   0  0  0  0  0  0  0  0  0  0  0  0
  193.5120  176.3910  138.3710 C   0  0  0  0  0  3  0  0  0  0  0  0
  191.0720  175.8880  137.1020 C   0  0  0  0  0  3  0  0  0  0  0  0
  189.8730  176.8300  139.0240 C   0  0  0  0  0  0  0  0  0  0  0  0
  191.1630  177.6420  140.9240 C   0  0  0  0  0  3  0  0  0  0  0  0
  192.3500  177.2880  140.2850 C   0  0  0  0  0  3  0  0  0  0  0  0
  188.3000  177.2920  142.1470 C   0  0  0  0  0  0  0  0  0  0  0  0
  187.8560  176.6740  143.2090 C   0  0  0  0  0  3  0  0  0  0  0  0
  188.7420  177.8850  141.0740 C   0  0  0  0  0  3  0  0  0  0  0  0
  187.0670  178.0410  146.7350 C   0  0  0  0  0  2  0  0  0  0  0  0
  190.0530  177.3420  146.2130 C   0  0  0  0  0  3  0  0  0  0  0  0
  189.3750  177.8150  147.4610 C   0  0  0  0  0  2  0  0  0  0  0  0
  187.0380  177.4980  145.3490 C   0  0  0  0  0  3  0  0  0  0  0  0
  188.0870  177.1370  144.5880 C   0  0  0  0  0  0  0  0  0  0  0  0
  187.9870  177.2420  147.6240 C   0  0  0  0  0  2  0  0  0  0  0  0
  189.5010  177.0900  145.0220 C   0  0  0  0  0  3  0  0  0  0  0  0
  188.2110  177.5590  137.4300 N   0  0  0  0  0  2  0  0  0  0  0  0
  187.3770  176.9640  136.3980 C   0  0  0  0  0  2  0  0  0  0  0  0
  186.0180  177.6550  136.3460 C   0  0  1  0  0  3  0  0  0  0  0  0
  182.5860  178.3700  137.7530 F   0  0  0  0  0  0  0  0  0  0  0  0
  182.9710  177.1060  138.1780 C   0  0  2  0  0  0  0  0  0  0  0  0
  184.9510  176.6950  136.6220 N   0  0  2  0  0  0  0  0  0  0  0  0
  185.9680  178.7410  137.4030 C   0  0  0  0  0  2  0  0  0  0  0  0
  183.9020  176.9380  135.6290 C   0  0  0  0  0  2  0  0  0  0  0  0
  184.4970  176.9390  138.0110 C   0  0  1  0  0  3  0  0  0  0  0  0
  182.2520  176.0480  137.3380 C   0  0  0  0  0  2  0  0  0  0  0  0
  185.2710  178.1190  138.5810 C   0  0  0  0  0  2  0  0  0  0  0  0
  182.7060  176.0260  135.8750 C   0  0  0  0  0  2  0  0  0  0  0  0
  182.6020  176.9130  139.6510 C   0  0  0  0  0  2  0  0  0  0  0  0
  182.0490  178.1810  140.2990 C   0  0  1  0  0  3  0  0  0  0  0  0
  180.5360  178.0890  140.3870 C   0  0  0  0  0  1  0  0  0  0  0  0
  182.6330  178.4170  141.6550 C   0  0  0  0  0  0  0  0  0  0  0  0
  182.3310  178.9910  143.9500 N   0  0  0  0  0  0  0  0  0  0  0  0
  184.4830  178.4380  143.1680 N   0  0  0  0  0  0  0  0  0  0  0  0
  183.6590  178.8140  144.1810 C   0  0  0  0  0  3  0  0  0  0  0  0
  183.9970  178.2320  141.9160 C   0  0  0  0  0  3  0  0  0  0  0  0
  181.8060  178.7960  142.7120 C   0  0  0  0  0  3  0  0  0  0  0  0
  1 10  1  0  0  0  0
  2  8  1  0  0  0  0
  3 11  1  0  0  0  0
  3 15  1  0  0  0  0
  4 12  1  0  0  0  0
  5  2  2  0  0  0  0
  5  9  1  0  0  0  0
  6  2  1  0  0  0  0
  7  4  1  0  0  0  0
  7 10  1  0  0  0  0
  8  4  2  0  0  0  0
  9  7  2  0  0  0  0
 10  3  2  0  0  0  0
 12 11  2  0  0  0  0
 13 14  2  0  0  0  0
 14 20  1  0  0  0  0
 15 13  2  0  0  0  0
 16 21  1  0  0  0  0
 17 18  1  0  0  0  0
 18 21  1  0  0  0  0
 19 16  1  0  0  0  0
 20 22  1  0  0  0  0
 20 19  2  0  0  0  0
 22 17  2  0  0  0  0
 23  1  1  0  0  0  0
 24 23  1  0  0  0  0
 25 24  1  1  0  0  0
 25 28  1  0  0  0  0
 25 29  1  0  0  0  0
 27 26  1  6  0  0  0
 27 35  1  0  0  0  0
 28 30  1  6  0  0  0
 28 31  1  0  0  0  0
 29 33  1  0  0  0  0
 30 34  1  0  0  0  0
 31 27  1  0  0  0  0
 31 33  1  6  0  0  0
 32 27  1  0  0  0  0
 34 32  1  0  0  0  0
 35 36  1  0  0  0  0
 36 37  1  1  0  0  0
 36 38  1  0  0  0  0
 38 42  2  0  0  0  0
 38 43  1  0  0  0  0
 39 41  1  0  0  0  0
 40 41  2  0  0  0  0
 42 40  1  0  0  0  0
 43 39  2  0  0  0  0
M  END
>  <MODEL>
8

>  <REMARK>
 VINA RESULT:      -8.9      2.653      8.550
  Name = 
  9 active torsions:
  status: ('A' for Active; 'I' for Inactive)
    1  A    between atoms: C_2  and  C_13
    2  A    between atoms: C_4  and  C_22
    3  A    between atoms: C_8  and  C_34
    4  A    between atoms: C_11  and  C_14
    5  A    between atoms: C_13  and  N_38
    6  A    between atoms: C_14  and  C_22
    7  A    between atoms: C_27  and  C_30
    8  A    between atoms: C_27  and  N_38
    9  A    between atoms: C_28  and  C_35
                            x       y       z     vdW  Elec       q    Type
                         _______ _______ _______ _____ _____    ______ ____

>  <TORSDO>
F 9

$$$$
=
 OpenBabel10272414293D

 43 48  0  0  1  0  0  0  0  0999 V2000
  187.8190  177.7210  139.4680 C   0  0  0  0  0  2  0  0  0  0  0  0
  184.3070  176.9450  135.8120 C   0  0  0  0  0  0  0  0  0  0  0  0
  185.6580  178.7590  140.3440 C   0  0  0  0  0  0  0  0  0  0  0  0
  184.3260  178.0380  137.9740 C   0  0  0  0  0  0  0  0  0  0  0  0
  185.6520  176.6000  135.9700 C   0  0  0  0  0  3  0  0  0  0  0  0
  183.5820  176.5570  134.5740 C   0  0  0  0  0  1  0  0  0  0  0  0
  185.6840  177.6840  138.1480 C   0  0  0  0  0  0  0  0  0  0  0  0
  183.6450  177.6630  136.8120 C   0  0  0  0  0  3  0  0  0  0  0  0
  186.3350  176.9660  137.1290 C   0  0  0  0  0  3  0  0  0  0  0  0
  186.3600  178.0450  139.3330 C   0  0  0  0  0  0  0  0  0  0  0  0
  184.3240  179.1160  140.1340 C   0  0  0  0  0  3  0  0  0  0  0  0
  183.6600  178.7600  138.9610 C   0  0  0  0  0  3  0  0  0  0  0  0
  186.5780  178.3250  142.5800 C   0  0  0  0  0  0  0  0  0  0  0  0
  186.8920  177.4750  143.5210 C   0  0  0  0  0  3  0  0  0  0  0  0
  186.2390  179.1630  141.6410 C   0  0  0  0  0  3  0  0  0  0  0  0
  190.3240  175.7880  142.9710 C   0  0  0  0  0  2  0  0  0  0  0  0
  189.9940  177.2910  145.6740 C   0  0  0  0  0  3  0  0  0  0  0  0
  191.1860  176.5970  145.0940 C   0  0  0  0  0  2  0  0  0  0  0  0
  188.9550  176.3650  142.8590 C   0  0  0  0  0  3  0  0  0  0  0  0
  188.2670  177.0300  143.8040 C   0  0  0  0  0  0  0  0  0  0  0  0
  191.2880  176.7650  143.5960 C   0  0  0  0  0  2  0  0  0  0  0  0
  188.7810  177.4380  145.1310 C   0  0  0  0  0  3  0  0  0  0  0  0
  188.6120  178.8880  139.1110 N   0  0  0  0  0  2  0  0  0  0  0  0
  189.6190  178.4510  138.1560 C   0  0  0  0  0  2  0  0  0  0  0  0
  189.9570  176.9800  138.3730 C   0  0  1  0  0  3  0  0  0  0  0  0
  192.0660  173.9140  137.7210 F   0  0  0  0  0  0  0  0  0  0  0  0
  192.1310  174.7280  136.5990 C   0  0  2  0  0  0  0  0  0  0  0  0
  190.2010  176.3230  137.0900 N   0  0  2  0  0  0  0  0  0  0  0  0
  191.2160  176.8730  139.2090 C   0  0  0  0  0  2  0  0  0  0  0  0
  189.4840  175.0460  137.1310 C   0  0  0  0  0  2  0  0  0  0  0  0
  191.6670  176.1560  136.9600 C   0  0  1  0  0  3  0  0  0  0  0  0
  191.2210  174.1610  135.5070 C   0  0  0  0  0  2  0  0  0  0  0  0
  192.3350  176.6770  138.2240 C   0  0  0  0  0  2  0  0  0  0  0  0
  189.7320  174.2490  135.8550 C   0  0  0  0  0  2  0  0  0  0  0  0
  193.5690  174.7840  136.0750 C   0  0  0  0  0  2  0  0  0  0  0  0
  194.4350  173.6340  136.5850 C   0  0  1  0  0  3  0  0  0  0  0  0
  194.9660  172.8360  135.4060 C   0  0  0  0  0  1  0  0  0  0  0  0
  195.5660  174.1190  137.4340 C   0  0  0  0  0  0  0  0  0  0  0  0
  196.5190  174.4410  139.5960 N   0  0  0  0  0  0  0  0  0  0  0  0
  197.7520  175.0510  137.6840 N   0  0  0  0  0  0  0  0  0  0  0  0
  197.6460  174.9530  139.0360 C   0  0  0  0  0  3  0  0  0  0  0  0
  196.7400  174.6410  136.8770 C   0  0  0  0  0  3  0  0  0  0  0  0
  195.4840  174.0210  138.8230 C   0  0  0  0  0  3  0  0  0  0  0  0
  2  5  2  0  0  0  0
  2  8  1  0  0  0  0
  3 15  1  0  0  0  0
  4  7  1  0  0  0  0
  4 12  1  0  0  0  0
  5  9  1  0  0  0  0
  6  2  1  0  0  0  0
  7 10  1  0  0  0  0
  8  4  2  0  0  0  0
  9  7  2  0  0  0  0
 10  1  1  0  0  0  0
 10  3  2  0  0  0  0
 11  3  1  0  0  0  0
 12 11  2  0  0  0  0
 13 14  2  0  0  0  0
 14 20  1  0  0  0  0
 15 13  2  0  0  0  0
 16 21  1  0  0  0  0
 18 17  1  0  0  0  0
 19 16  1  0  0  0  0
 19 20  2  0  0  0  0
 20 22  1  0  0  0  0
 21 18  1  0  0  0  0
 22 17  2  0  0  0  0
 23  1  1  0  0  0  0
 24 23  1  0  0  0  0
 25 24  1  6  0  0  0
 25 29  1  0  0  0  0
 27 31  1  0  0  0  0
 27 26  1  1  0  0  0
 28 30  1  1  0  0  0
 28 25  1  0  0  0  0
 31 28  1  0  0  0  0
 31 33  1  1  0  0  0
 32 34  1  0  0  0  0
 32 27  1  0  0  0  0
 33 29  1  0  0  0  0
 34 30  1  0  0  0  0
 35 36  1  0  0  0  0
 35 27  1  0  0  0  0
 36 37  1  6  0  0  0
 36 38  1  0  0  0  0
 38 43  1  0  0  0  0
 40 41  2  0  0  0  0
 41 39  1  0  0  0  0
 42 38  2  0  0  0  0
 42 40  1  0  0  0  0
 43 39  2  0  0  0  0
M  END
>  <MODEL>
9

>  <REMARK>
 VINA RESULT:      -8.7      1.835      2.974
  Name = 
  9 active torsions:
  status: ('A' for Active; 'I' for Inactive)
    1  A    between atoms: C_2  and  C_13
    2  A    between atoms: C_4  and  C_22
    3  A    between atoms: C_8  and  C_34
    4  A    between atoms: C_11  and  C_14
    5  A    between atoms: C_13  and  N_38
    6  A    between atoms: C_14  and  C_22
    7  A    between atoms: C_27  and  C_30
    8  A    between atoms: C_27  and  N_38
    9  A    between atoms: C_28  and  C_35
                            x       y       z     vdW  Elec       q    Type
                         _______ _______ _______ _____ _____    ______ ____

>  <TORSDO>
F 9

$$$$
