=
 OpenBabel10272415183D

 34 39  0  0  0  0  0  0  0  0999 V2000
  188.7160  177.7600  144.0550 C   0  0  0  0  0  0  0  0  0  0  0  0
  191.8770  177.0960  142.3980 C   0  0  0  0  0  2  0  0  0  0  0  0
  190.7270  176.9260  144.6010 C   0  0  0  0  0  0  0  0  0  0  0  0
  186.9810  178.1370  145.7520 N   0  0  0  0  0  0  0  0  0  0  0  0
  187.2940  178.1760  144.3080 C   0  0  0  0  0  2  0  0  0  0  0  0
  189.1440  177.2690  146.3640 C   0  0  0  0  0  0  0  0  0  0  0  0
  190.0740  176.8080  147.2490 N   0  0  0  0  0  0  0  0  0  0  0  0
  187.9240  177.6610  146.7410 C   0  0  0  0  0  3  0  0  0  0  0  0
  191.6650  176.4690  145.5210 C   0  0  0  0  0  3  0  0  0  0  0  0
  189.4960  177.3310  145.0300 C   0  0  0  0  0  0  0  0  0  0  0  0
  191.2940  176.4230  146.8380 N   0  0  0  0  0  0  0  0  0  0  0  0
  191.8900  177.6470  141.0080 C   0  0  0  0  0  2  0  0  0  0  0  0
  190.8530  177.0620  140.0980 C   0  0  0  0  0  0  0  0  0  0  0  0
  189.5360  177.1450  140.3370 C   0  0  0  0  0  3  0  0  0  0  0  0
  190.7870  177.1320  143.1570 C   0  0  0  0  0  0  0  0  0  0  0  0
  188.8760  177.5900  141.5810 C   0  0  0  0  0  2  0  0  0  0  0  0
  189.4460  177.6180  142.7890 C   0  0  0  0  0  0  0  0  0  0  0  0
  191.3280  176.5250  138.7860 C   0  0  0  0  0  3  0  0  0  0  0  0
  192.7190  176.5930  138.7100 O   0  0  0  0  0  1  0  0  0  0  0  0
  190.9090  175.2040  138.6170 O   0  0  0  0  0  1  0  0  0  0  0  0
  185.6870  178.6230  146.1990 C   0  0  0  0  0  2  0  0  0  0  0  0
  182.4680  178.8210  144.2080 C   0  0  0  0  0  3  0  0  0  0  0  0
  185.2290  178.6560  143.7380 C   0  0  0  0  0  3  0  0  0  0  0  0
  182.5460  178.7860  140.5030 C   0  0  0  0  0  0  0  0  0  0  0  0
  182.0630  178.8260  141.8180 C   0  0  0  0  0  3  0  0  0  0  0  0
  182.9510  178.7840  142.8970 C   0  0  0  0  0  0  0  0  0  0  0  0
  184.8230  178.6590  141.3500 C   0  0  0  0  0  3  0  0  0  0  0  0
  184.3420  178.7000  142.6600 C   0  0  0  0  0  0  0  0  0  0  0  0
  183.9280  178.7020  140.2760 C   0  0  0  0  0  3  0  0  0  0  0  0
  184.7410  178.7010  145.0490 C   0  0  0  0  0  0  0  0  0  0  0  0
  183.3620  178.7770  145.2820 C   0  0  0  0  0  3  0  0  0  0  0  0
  181.6060  178.8310  139.3720 C   0  0  0  0  0  0  0  0  0  0  0  0
  180.3620  178.8350  139.5760 O   0  0  0  0  0  1  0  0  0  0  0  0
  182.0810  178.8680  138.0660 O   0  0  0  0  0  0  0  0  0  0  0  0
  1  5  1  0  0  0  0
  1 10  2  0  0  0  0
  2 15  1  0  0  0  0
  3 10  1  0  0  0  0
  3  9  2  0  0  0  0
  4 21  1  0  0  0  0
  4  8  1  0  0  0  0
  5  4  1  0  0  0  0
  6  8  2  0  0  0  0
  6  7  1  0  0  0  0
  9 11  1  0  0  0  0
 10  6  1  0  0  0  0
 11  7  2  0  0  0  0
 12  2  1  0  0  0  0
 13 14  2  0  0  0  0
 13 12  1  0  0  0  0
 14 16  1  0  0  0  0
 15  3  1  0  0  0  0
 16 17  1  0  0  0  0
 17 15  2  0  0  0  0
 17  1  1  0  0  0  0
 18 13  1  0  0  0  0
 19 18  1  0  0  0  0
 20 18  1  0  0  0  0
 22 31  1  0  0  0  0
 23 30  1  0  0  0  0
 24 25  2  0  0  0  0
 25 26  1  0  0  0  0
 26 22  2  0  0  0  0
 27 28  1  0  0  0  0
 28 26  1  0  0  0  0
 28 23  2  0  0  0  0
 29 24  1  0  0  0  0
 29 27  2  0  0  0  0
 30 31  2  0  0  0  0
 30 21  1  0  0  0  0
 32 33  1  0  0  0  0
 32 24  1  0  0  0  0
 34 32  2  0  0  0  0
M  END
>  <MODEL>
1

>  <REMARK>
 VINA RESULT:     -11.4      0.000      0.000
  Name = 
  4 active torsions:
  status: ('A' for Active; 'I' for Inactive)
    1  A    between atoms: C_3  and  C_25
    2  A    between atoms: C_7  and  C_11
    3  A    between atoms: N_8  and  C_18
    4  A    between atoms: C_18  and  C_30
                            x       y       z     vdW  Elec       q    Type
                         _______ _______ _______ _____ _____    ______ ____

>  <TORSDO>
F 4

$$$$
=
 OpenBabel10272415183D

 34 39  0  0  0  0  0  0  0  0999 V2000
  187.5700  178.0460  144.1260 C   0  0  0  0  0  0  0  0  0  0  0  0
  188.7370  177.7240  147.5480 C   0  0  0  0  0  2  0  0  0  0  0  0
  186.6780  178.0440  146.1860 C   0  0  0  0  0  0  0  0  0  0  0  0
  186.2050  178.5140  142.1390 N   0  0  0  0  0  0  0  0  0  0  0  0
  187.5440  178.1200  142.6250 C   0  0  0  0  0  2  0  0  0  0  0  0
  185.2330  178.5470  144.3440 C   0  0  0  0  0  0  0  0  0  0  0  0
  184.2070  178.7040  145.2280 N   0  0  0  0  0  0  0  0  0  0  0  0
  185.0760  178.6990  143.0260 C   0  0  0  0  0  3  0  0  0  0  0  0
  185.6200  178.2200  147.0720 C   0  0  0  0  0  3  0  0  0  0  0  0
  186.4780  178.2220  144.8470 C   0  0  0  0  0  0  0  0  0  0  0  0
  184.3980  178.5470  146.5490 N   0  0  0  0  0  0  0  0  0  0  0  0
  190.2310  177.7240  147.6160 C   0  0  0  0  0  2  0  0  0  0  0  0
  190.8870  176.5950  146.8830 C   0  0  0  0  0  0  0  0  0  0  0  0
  190.7450  176.3940  145.5640 C   0  0  0  0  0  3  0  0  0  0  0  0
  188.0880  177.7300  146.3880 C   0  0  0  0  0  0  0  0  0  0  0  0
  189.7870  177.0550  144.6550 C   0  0  0  0  0  2  0  0  0  0  0  0
  188.6610  177.6670  145.0330 C   0  0  0  0  0  0  0  0  0  0  0  0
  191.8800  175.7760  147.6450 C   0  0  0  0  0  3  0  0  0  0  0  0
  192.6820  175.0480  146.7670 O   0  0  0  0  0  1  0  0  0  0  0  0
  192.6770  176.5950  148.4460 O   0  0  0  0  0  1  0  0  0  0  0  0
  186.0220  178.7550  140.7170 C   0  0  0  0  0  2  0  0  0  0  0  0
  188.1800  177.4380  137.8940 C   0  0  0  0  0  3  0  0  0  0  0  0
  188.4410  178.1210  140.6020 C   0  0  0  0  0  3  0  0  0  0  0  0
  191.7590  176.6650  138.4680 C   0  0  0  0  0  0  0  0  0  0  0  0
  190.5200  176.8110  137.8270 C   0  0  0  0  0  3  0  0  0  0  0  0
  189.4150  177.2960  138.5320 C   0  0  0  0  0  0  0  0  0  0  0  0
  190.7790  177.4920  140.5350 C   0  0  0  0  0  3  0  0  0  0  0  0
  189.5460  177.6390  139.8970 C   0  0  0  0  0  0  0  0  0  0  0  0
  191.8810  177.0070  139.8230 C   0  0  0  0  0  3  0  0  0  0  0  0
  187.2080  178.2690  139.9560 C   0  0  0  0  0  0  0  0  0  0  0  0
  187.0780  177.9220  138.6050 C   0  0  0  0  0  3  0  0  0  0  0  0
  192.9190  176.1540  137.7200 C   0  0  0  0  0  0  0  0  0  0  0  0
  193.8650  176.9250  137.4050 O   0  0  0  0  0  1  0  0  0  0  0  0
  192.9810  174.8150  137.3510 O   0  0  0  0  0  0  0  0  0  0  0  0
  1 10  2  0  0  0  0
  1 17  1  0  0  0  0
  2 12  1  0  0  0  0
  3 15  1  0  0  0  0
  3  9  2  0  0  0  0
  4  5  1  0  0  0  0
  4  8  1  0  0  0  0
  5  1  1  0  0  0  0
  6 10  1  0  0  0  0
  6  7  1  0  0  0  0
  7 11  2  0  0  0  0
  8  6  2  0  0  0  0
 10  3  1  0  0  0  0
 11  9  1  0  0  0  0
 13 12  1  0  0  0  0
 13 18  1  0  0  0  0
 14 13  2  0  0  0  0
 15  2  1  0  0  0  0
 16 17  1  0  0  0  0
 16 14  1  0  0  0  0
 17 15  2  0  0  0  0
 18 20  1  0  0  0  0
 19 18  1  0  0  0  0
 21  4  1  0  0  0  0
 22 26  2  0  0  0  0
 22 31  1  0  0  0  0
 24 29  1  0  0  0  0
 25 24  2  0  0  0  0
 25 26  1  0  0  0  0
 26 28  1  0  0  0  0
 28 27  1  0  0  0  0
 28 23  2  0  0  0  0
 29 27  2  0  0  0  0
 30 23  1  0  0  0  0
 30 21  1  0  0  0  0
 31 30  2  0  0  0  0
 32 24  1  0  0  0  0
 33 32  1  0  0  0  0
 34 32  2  0  0  0  0
M  END
>  <MODEL>
2

>  <REMARK>
 VINA RESULT:     -11.4      3.877      7.150
  Name = 
  4 active torsions:
  status: ('A' for Active; 'I' for Inactive)
    1  A    between atoms: C_3  and  C_25
    2  A    between atoms: C_7  and  C_11
    3  A    between atoms: N_8  and  C_18
    4  A    between atoms: C_18  and  C_30
                            x       y       z     vdW  Elec       q    Type
                         _______ _______ _______ _____ _____    ______ ____

>  <TORSDO>
F 4

$$$$
=
 OpenBabel10272415183D

 34 39  0  0  0  0  0  0  0  0999 V2000
  188.9370  177.8590  143.0430 C   0  0  0  0  0  0  0  0  0  0  0  0
  188.9340  177.4970  146.6540 C   0  0  0  0  0  2  0  0  0  0  0  0
  187.4190  177.6780  144.6860 C   0  0  0  0  0  0  0  0  0  0  0  0
  188.2640  178.2820  140.7180 N   0  0  0  0  0  0  0  0  0  0  0  0
  189.4010  177.9980  141.6190 C   0  0  0  0  0  2  0  0  0  0  0  0
  186.6210  178.1220  142.4730 C   0  0  0  0  0  0  0  0  0  0  0  0
  185.3490  178.1390  142.9660 N   0  0  0  0  0  0  0  0  0  0  0  0
  186.8940  178.3170  141.1800 C   0  0  0  0  0  3  0  0  0  0  0  0
  186.1150  177.7100  145.1710 C   0  0  0  0  0  3  0  0  0  0  0  0
  187.6560  177.8960  143.3590 C   0  0  0  0  0  0  0  0  0  0  0  0
  185.1080  177.9420  144.2730 N   0  0  0  0  0  0  0  0  0  0  0  0
  190.3120  177.6390  147.2170 C   0  0  0  0  0  2  0  0  0  0  0  0
  191.2900  176.6120  146.7330 C   0  0  0  0  0  0  0  0  0  0  0  0
  191.6130  176.4580  145.4400 C   0  0  0  0  0  3  0  0  0  0  0  0
  188.7080  177.4930  145.3440 C   0  0  0  0  0  0  0  0  0  0  0  0
  190.9460  177.0640  144.2710 C   0  0  0  0  0  2  0  0  0  0  0  0
  189.7000  177.5470  144.2570 C   0  0  0  0  0  0  0  0  0  0  0  0
  192.0550  175.8600  147.7740 C   0  0  0  0  0  3  0  0  0  0  0  0
  193.0390  175.0710  147.1760 O   0  0  0  0  0  1  0  0  0  0  0  0
  192.6430  176.7410  148.6820 O   0  0  0  0  0  1  0  0  0  0  0  0
  188.5380  178.5690  139.3200 C   0  0  0  0  0  2  0  0  0  0  0  0
  189.2590  175.3120  137.5220 C   0  0  0  0  0  3  0  0  0  0  0  0
  190.6750  177.3890  138.7650 C   0  0  0  0  0  3  0  0  0  0  0  0
  192.7470  174.1390  137.0840 C   0  0  0  0  0  0  0  0  0  0  0  0
  191.3470  174.1870  137.0230 C   0  0  0  0  0  3  0  0  0  0  0  0
  190.6540  175.2660  137.5790 C   0  0  0  0  0  0  0  0  0  0  0  0
  192.7620  176.2630  138.2690 C   0  0  0  0  0  3  0  0  0  0  0  0
  191.3680  176.3120  138.2070 C   0  0  0  0  0  0  0  0  0  0  0  0
  193.4490  175.1810  137.7090 C   0  0  0  0  0  3  0  0  0  0  0  0
  189.2780  177.4340  138.6970 C   0  0  0  0  0  0  0  0  0  0  0  0
  188.5720  176.3930  138.0810 C   0  0  0  0  0  3  0  0  0  0  0  0
  193.4700  173.0000  136.4960 C   0  0  0  0  0  0  0  0  0  0  0  0
  192.8400  171.9990  136.0620 O   0  0  0  0  0  0  0  0  0  0  0  0
  194.8580  173.0180  136.4140 O   0  0  0  0  0  1  0  0  0  0  0  0
  1 10  2  0  0  0  0
  1 17  1  0  0  0  0
  2 12  1  0  0  0  0
  3  9  2  0  0  0  0
  3 15  1  0  0  0  0
  4  8  1  0  0  0  0
  4  5  1  0  0  0  0
  5  1  1  0  0  0  0
  6  7  1  0  0  0  0
  6 10  1  0  0  0  0
  7 11  2  0  0  0  0
  8  6  2  0  0  0  0
 10  3  1  0  0  0  0
 11  9  1  0  0  0  0
 13 12  1  0  0  0  0
 13 18  1  0  0  0  0
 14 13  2  0  0  0  0
 15  2  1  0  0  0  0
 16 14  1  0  0  0  0
 17 16  1  0  0  0  0
 17 15  2  0  0  0  0
 18 20  1  0  0  0  0
 19 18  1  0  0  0  0
 21  4  1  0  0  0  0
 22 26  2  0  0  0  0
 22 31  1  0  0  0  0
 24 29  1  0  0  0  0
 25 24  2  0  0  0  0
 25 26  1  0  0  0  0
 26 28  1  0  0  0  0
 28 27  1  0  0  0  0
 28 23  2  0  0  0  0
 29 27  2  0  0  0  0
 30 23  1  0  0  0  0
 30 21  1  0  0  0  0
 31 30  2  0  0  0  0
 32 24  1  0  0  0  0
 33 32  2  0  0  0  0
 34 32  1  0  0  0  0
M  END
>  <MODEL>
3

>  <REMARK>
 VINA RESULT:     -11.2      4.450      8.143
  Name = 
  4 active torsions:
  status: ('A' for Active; 'I' for Inactive)
    1  A    between atoms: C_3  and  C_25
    2  A    between atoms: C_7  and  C_11
    3  A    between atoms: N_8  and  C_18
    4  A    between atoms: C_18  and  C_30
                            x       y       z     vdW  Elec       q    Type
                         _______ _______ _______ _____ _____    ______ ____

>  <TORSDO>
F 4

$$$$
=
 OpenBabel10272415183D

 34 39  0  0  0  0  0  0  0  0999 V2000
  188.1880  177.7280  141.3760 C   0  0  0  0  0  0  0  0  0  0  0  0
  188.0990  177.2210  144.9690 C   0  0  0  0  0  2  0  0  0  0  0  0
  189.6640  177.4860  143.0490 C   0  0  0  0  0  0  0  0  0  0  0  0
  188.9170  177.8570  139.0330 N   0  0  0  0  0  0  0  0  0  0  0  0
  187.7600  177.9400  139.9490 C   0  0  0  0  0  2  0  0  0  0  0  0
  190.5150  177.5670  140.8130 C   0  0  0  0  0  0  0  0  0  0  0  0
  191.7730  177.4100  141.3170 N   0  0  0  0  0  0  0  0  0  0  0  0
  190.2750  177.6890  139.5050 C   0  0  0  0  0  3  0  0  0  0  0  0
  190.9540  177.3160  143.5420 C   0  0  0  0  0  3  0  0  0  0  0  0
  189.4600  177.5930  141.7040 C   0  0  0  0  0  0  0  0  0  0  0  0
  191.9820  177.2870  142.6390 N   0  0  0  0  0  0  0  0  0  0  0  0
  186.7040  176.9750  145.4490 C   0  0  0  0  0  2  0  0  0  0  0  0
  185.7530  178.1050  145.2010 C   0  0  0  0  0  0  0  0  0  0  0  0
  185.4650  178.5670  143.9750 C   0  0  0  0  0  3  0  0  0  0  0  0
  188.3600  177.5330  143.7030 C   0  0  0  0  0  0  0  0  0  0  0  0
  186.1570  178.2440  142.7110 C   0  0  0  0  0  2  0  0  0  0  0  0
  187.3970  177.7570  142.6120 C   0  0  0  0  0  0  0  0  0  0  0  0
  184.9690  178.6010  146.3730 C   0  0  0  0  0  3  0  0  0  0  0  0
  185.7080  179.5490  147.0830 O   0  0  0  0  0  1  0  0  0  0  0  0
  183.7620  179.1620  145.9530 O   0  0  0  0  0  1  0  0  0  0  0  0
  188.6780  177.9160  137.6010 C   0  0  0  0  0  2  0  0  0  0  0  0
  185.2550  176.7290  136.4890 C   0  0  0  0  0  3  0  0  0  0  0  0
  187.6900  175.6300  137.3440 C   0  0  0  0  0  3  0  0  0  0  0  0
  184.4640  173.1100  136.3820 C   0  0  0  0  0  0  0  0  0  0  0  0
  184.3250  174.5010  136.2750 C   0  0  0  0  0  3  0  0  0  0  0  0
  185.3950  175.3430  136.5920 C   0  0  0  0  0  0  0  0  0  0  0  0
  186.7590  173.4040  137.1330 C   0  0  0  0  0  3  0  0  0  0  0  0
  186.6220  174.7890  137.0240 C   0  0  0  0  0  0  0  0  0  0  0  0
  185.6850  172.5680  136.8120 C   0  0  0  0  0  3  0  0  0  0  0  0
  187.5470  177.0180  137.2300 C   0  0  0  0  0  0  0  0  0  0  0  0
  186.3290  177.5650  136.8090 C   0  0  0  0  0  3  0  0  0  0  0  0
  183.3340  172.2300  136.0460 C   0  0  0  0  0  0  0  0  0  0  0  0
  182.7750  172.3110  134.9190 O   0  0  0  0  0  0  0  0  0  0  0  0
  182.8700  171.3010  136.9700 O   0  0  0  0  0  1  0  0  0  0  0  0
  1 10  2  0  0  0  0
  1 17  1  0  0  0  0
  2 12  1  0  0  0  0
  3  9  2  0  0  0  0
  3 15  1  0  0  0  0
  4  8  1  0  0  0  0
  4  5  1  0  0  0  0
  5  1  1  0  0  0  0
  6  7  1  0  0  0  0
  6 10  1  0  0  0  0
  7 11  2  0  0  0  0
  8  6  2  0  0  0  0
 10  3  1  0  0  0  0
 11  9  1  0  0  0  0
 13 12  1  0  0  0  0
 13 18  1  0  0  0  0
 14 13  2  0  0  0  0
 15  2  1  0  0  0  0
 16 14  1  0  0  0  0
 17 16  1  0  0  0  0
 17 15  2  0  0  0  0
 18 19  1  0  0  0  0
 20 18  1  0  0  0  0
 21  4  1  0  0  0  0
 22 26  2  0  0  0  0
 22 31  1  0  0  0  0
 24 29  1  0  0  0  0
 25 24  2  0  0  0  0
 25 26  1  0  0  0  0
 26 28  1  0  0  0  0
 28 27  1  0  0  0  0
 28 23  2  0  0  0  0
 29 27  2  0  0  0  0
 30 23  1  0  0  0  0
 30 21  1  0  0  0  0
 31 30  2  0  0  0  0
 32 24  1  0  0  0  0
 32 34  1  0  0  0  0
 33 32  2  0  0  0  0
M  END
>  <MODEL>
4

>  <REMARK>
 VINA RESULT:     -11.1      4.587      6.942
  Name = 
  4 active torsions:
  status: ('A' for Active; 'I' for Inactive)
    1  A    between atoms: C_3  and  C_25
    2  A    between atoms: C_7  and  C_11
    3  A    between atoms: N_8  and  C_18
    4  A    between atoms: C_18  and  C_30
                            x       y       z     vdW  Elec       q    Type
                         _______ _______ _______ _____ _____    ______ ____

>  <TORSDO>
F 4

$$$$
=
 OpenBabel10272415183D

 34 39  0  0  0  0  0  0  0  0999 V2000
  186.2120  178.2770  143.0180 C   0  0  0  0  0  0  0  0  0  0  0  0
  188.7460  177.8600  145.5840 C   0  0  0  0  0  2  0  0  0  0  0  0
  186.2980  178.1810  145.2590 C   0  0  0  0  0  0  0  0  0  0  0  0
  184.1190  178.7850  141.8370 N   0  0  0  0  0  0  0  0  0  0  0  0
  185.5390  178.4050  141.6800 C   0  0  0  0  0  2  0  0  0  0  0  0
  184.1970  178.7170  144.2440 C   0  0  0  0  0  0  0  0  0  0  0  0
  183.6530  178.8200  145.4910 N   0  0  0  0  0  0  0  0  0  0  0  0
  183.4850  178.9130  143.1310 C   0  0  0  0  0  3  0  0  0  0  0  0
  185.7270  178.3010  146.5220 C   0  0  0  0  0  3  0  0  0  0  0  0
  185.5380  178.4030  144.1460 C   0  0  0  0  0  0  0  0  0  0  0  0
  184.3970  178.6200  146.5920 N   0  0  0  0  0  0  0  0  0  0  0  0
  190.1220  177.8910  145.0000 C   0  0  0  0  0  2  0  0  0  0  0  0
  190.4020  176.8030  144.0080 C   0  0  0  0  0  0  0  0  0  0  0  0
  189.7040  176.6470  142.8730 C   0  0  0  0  0  3  0  0  0  0  0  0
  187.6590  177.8920  144.8190 C   0  0  0  0  0  0  0  0  0  0  0  0
  188.4440  177.3180  142.4960 C   0  0  0  0  0  2  0  0  0  0  0  0
  187.5890  177.8910  143.3480 C   0  0  0  0  0  0  0  0  0  0  0  0
  191.6300  175.9810  144.2320 C   0  0  0  0  0  3  0  0  0  0  0  0
  191.9500  175.9480  145.5900 O   0  0  0  0  0  1  0  0  0  0  0  0
  191.4420  174.6810  143.7600 O   0  0  0  0  0  1  0  0  0  0  0  0
  183.3390  179.0730  140.6450 C   0  0  0  0  0  2  0  0  0  0  0  0
  182.8060  175.6680  139.0690 C   0  0  0  0  0  3  0  0  0  0  0  0
  184.2360  178.0260  138.5560 C   0  0  0  0  0  3  0  0  0  0  0  0
  184.5260  174.7680  135.9120 C   0  0  0  0  0  0  0  0  0  0  0  0
  183.7140  174.6780  137.0520 C   0  0  0  0  0  3  0  0  0  0  0  0
  183.6130  175.7590  137.9320 C   0  0  0  0  0  0  0  0  0  0  0  0
  185.1450  177.0350  136.5410 C   0  0  0  0  0  3  0  0  0  0  0  0
  184.3350  176.9460  137.6740 C   0  0  0  0  0  0  0  0  0  0  0  0
  185.2400  175.9500  135.6630 C   0  0  0  0  0  3  0  0  0  0  0  0
  183.4190  177.9320  139.6890 C   0  0  0  0  0  0  0  0  0  0  0  0
  182.7110  176.7520  139.9470 C   0  0  0  0  0  3  0  0  0  0  0  0
  184.6270  173.6260  134.9890 C   0  0  0  0  0  0  0  0  0  0  0  0
  183.6120  172.9280  134.7250 O   0  0  0  0  0  1  0  0  0  0  0  0
  185.8450  173.3060  134.4010 O   0  0  0  0  0  0  0  0  0  0  0  0
  1 17  1  0  0  0  0
  1 10  2  0  0  0  0
  3  9  2  0  0  0  0
  4  8  1  0  0  0  0
  5  4  1  0  0  0  0
  5  1  1  0  0  0  0
  6  7  1  0  0  0  0
  7 11  2  0  0  0  0
  8  6  2  0  0  0  0
  9 11  1  0  0  0  0
 10  6  1  0  0  0  0
 10  3  1  0  0  0  0
 12  2  1  0  0  0  0
 13 18  1  0  0  0  0
 13 12  1  0  0  0  0
 14 13  2  0  0  0  0
 15  3  1  0  0  0  0
 15  2  1  0  0  0  0
 16 14  1  0  0  0  0
 16 17  1  0  0  0  0
 17 15  2  0  0  0  0
 18 19  1  0  0  0  0
 20 18  1  0  0  0  0
 21  4  1  0  0  0  0
 22 31  1  0  0  0  0
 23 30  1  0  0  0  0
 24 25  2  0  0  0  0
 25 26  1  0  0  0  0
 26 22  2  0  0  0  0
 27 28  1  0  0  0  0
 28 26  1  0  0  0  0
 28 23  2  0  0  0  0
 29 24  1  0  0  0  0
 29 27  2  0  0  0  0
 30 31  2  0  0  0  0
 30 21  1  0  0  0  0
 32 24  1  0  0  0  0
 33 32  1  0  0  0  0
 34 32  2  0  0  0  0
M  END
>  <MODEL>
5

>  <REMARK>
 VINA RESULT:     -11.1      3.589      5.484
  Name = 
  4 active torsions:
  status: ('A' for Active; 'I' for Inactive)
    1  A    between atoms: C_3  and  C_25
    2  A    between atoms: C_7  and  C_11
    3  A    between atoms: N_8  and  C_18
    4  A    between atoms: C_18  and  C_30
                            x       y       z     vdW  Elec       q    Type
                         _______ _______ _______ _____ _____    ______ ____

>  <TORSDO>
F 4

$$$$
=
 OpenBabel10272415183D

 34 39  0  0  0  0  0  0  0  0999 V2000
  184.8760  178.6250  142.2600 C   0  0  0  0  0  0  0  0  0  0  0  0
  184.6410  178.7780  145.8790 C   0  0  0  0  0  2  0  0  0  0  0  0
  183.2560  178.6660  143.8120 C   0  0  0  0  0  0  0  0  0  0  0  0
  184.3540  178.7100  139.8610 N   0  0  0  0  0  0  0  0  0  0  0  0
  185.4300  178.5650  140.8630 C   0  0  0  0  0  2  0  0  0  0  0  0
  182.6010  178.7850  141.5120 C   0  0  0  0  0  0  0  0  0  0  0  0
  181.3010  178.8610  141.9160 N   0  0  0  0  0  0  0  0  0  0  0  0
  182.9560  178.7980  140.2250 C   0  0  0  0  0  3  0  0  0  0  0  0
  181.9230  178.7550  144.2040 C   0  0  0  0  0  3  0  0  0  0  0  0
  183.5770  178.6960  142.4860 C   0  0  0  0  0  0  0  0  0  0  0  0
  180.9760  178.8490  143.2200 N   0  0  0  0  0  0  0  0  0  0  0  0
  185.9810  179.0090  146.5020 C   0  0  0  0  0  2  0  0  0  0  0  0
  186.9860  177.9330  146.2320 C   0  0  0  0  0  0  0  0  0  0  0  0
  187.3920  177.6000  144.9970 C   0  0  0  0  0  3  0  0  0  0  0  0
  184.4990  178.5860  144.5710 C   0  0  0  0  0  0  0  0  0  0  0  0
  186.8010  178.0290  143.7130 C   0  0  0  0  0  2  0  0  0  0  0  0
  185.5590  178.4940  143.5520 C   0  0  0  0  0  0  0  0  0  0  0  0
  187.6830  177.3420  147.4150 C   0  0  0  0  0  3  0  0  0  0  0  0
  188.9530  176.8920  147.0540 O   0  0  0  0  0  1  0  0  0  0  0  0
  187.7880  178.2820  148.4410 O   0  0  0  0  0  1  0  0  0  0  0  0
  184.7170  178.7980  138.4560 C   0  0  0  0  0  2  0  0  0  0  0  0
  187.1120  176.1800  137.1250 C   0  0  0  0  0  3  0  0  0  0  0  0
  187.1580  178.3980  138.8410 C   0  0  0  0  0  3  0  0  0  0  0  0
  190.6660  176.1760  138.1780 C   0  0  0  0  0  0  0  0  0  0  0  0
  189.4710  175.8100  137.5420 C   0  0  0  0  0  3  0  0  0  0  0  0
  188.3030  176.5470  137.7580 C   0  0  0  0  0  0  0  0  0  0  0  0
  189.5150  178.0260  139.2590 C   0  0  0  0  0  3  0  0  0  0  0  0
  188.3260  177.6640  138.6240 C   0  0  0  0  0  0  0  0  0  0  0  0
  190.6800  177.2850  139.0370 C   0  0  0  0  0  3  0  0  0  0  0  0
  185.9690  178.0310  138.1990 C   0  0  0  0  0  0  0  0  0  0  0  0
  185.9470  176.9200  137.3470 C   0  0  0  0  0  3  0  0  0  0  0  0
  191.8920  175.3960  137.9460 C   0  0  0  0  0  0  0  0  0  0  0  0
  191.8230  174.1820  137.6150 O   0  0  0  0  0  0  0  0  0  0  0  0
  193.1400  175.9920  138.0910 O   0  0  0  0  0  1  0  0  0  0  0  0
  1 10  2  0  0  0  0
  1 17  1  0  0  0  0
  2 12  1  0  0  0  0
  3  9  2  0  0  0  0
  3 15  1  0  0  0  0
  4  8  1  0  0  0  0
  4  5  1  0  0  0  0
  5  1  1  0  0  0  0
  6  7  1  0  0  0  0
  6 10  1  0  0  0  0
  7 11  2  0  0  0  0
  8  6  2  0  0  0  0
 10  3  1  0  0  0  0
 11  9  1  0  0  0  0
 13 12  1  0  0  0  0
 13 18  1  0  0  0  0
 14 13  2  0  0  0  0
 15  2  1  0  0  0  0
 16 14  1  0  0  0  0
 17 16  1  0  0  0  0
 17 15  2  0  0  0  0
 18 20  1  0  0  0  0
 19 18  1  0  0  0  0
 21  4  1  0  0  0  0
 22 31  2  0  0  0  0
 22 26  1  0  0  0  0
 24 29  1  0  0  0  0
 25 26  1  0  0  0  0
 25 24  2  0  0  0  0
 26 28  2  0  0  0  0
 28 23  1  0  0  0  0
 28 27  1  0  0  0  0
 29 27  2  0  0  0  0
 30 21  1  0  0  0  0
 30 23  2  0  0  0  0
 31 30  1  0  0  0  0
 32 34  1  0  0  0  0
 32 24  1  0  0  0  0
 33 32  2  0  0  0  0
M  END
>  <MODEL>
6

>  <REMARK>
 VINA RESULT:     -11.1      4.175      8.136
  Name = 
  4 active torsions:
  status: ('A' for Active; 'I' for Inactive)
    1  A    between atoms: C_3  and  C_25
    2  A    between atoms: C_7  and  C_11
    3  A    between atoms: N_8  and  C_18
    4  A    between atoms: C_18  and  C_30
                            x       y       z     vdW  Elec       q    Type
                         _______ _______ _______ _____ _____    ______ ____

>  <TORSDO>
F 4

$$$$
=
 OpenBabel10272415183D

 34 39  0  0  0  0  0  0  0  0999 V2000
  185.1750  178.5080  141.7760 C   0  0  0  0  0  0  0  0  0  0  0  0
  185.7610  178.0380  138.2250 C   0  0  0  0  0  2  0  0  0  0  0  0
  184.0200  178.7320  139.8650 C   0  0  0  0  0  0  0  0  0  0  0  0
  184.1030  178.8200  143.9650 N   0  0  0  0  0  0  0  0  0  0  0  0
  185.3800  178.5670  143.2650 C   0  0  0  0  0  2  0  0  0  0  0  0
  182.8390  179.0360  141.9250 C   0  0  0  0  0  0  0  0  0  0  0  0
  181.7020  179.2640  141.2060 N   0  0  0  0  0  0  0  0  0  0  0  0
  182.8640  179.0660  143.2600 C   0  0  0  0  0  3  0  0  0  0  0  0
  182.8480  178.9570  139.1510 C   0  0  0  0  0  3  0  0  0  0  0  0
  184.0000  178.7590  141.2300 C   0  0  0  0  0  0  0  0  0  0  0  0
  181.7090  179.2230  139.8630 N   0  0  0  0  0  0  0  0  0  0  0  0
  187.0880  177.3950  137.9730 C   0  0  0  0  0  2  0  0  0  0  0  0
  188.2650  178.1900  138.4500 C   0  0  0  0  0  0  0  0  0  0  0  0
  188.4470  178.5320  139.7350 C   0  0  0  0  0  3  0  0  0  0  0  0
  185.3770  178.3980  139.4460 C   0  0  0  0  0  0  0  0  0  0  0  0
  187.4750  178.4140  140.8400 C   0  0  0  0  0  2  0  0  0  0  0  0
  186.1510  178.3140  140.6960 C   0  0  0  0  0  0  0  0  0  0  0  0
  189.3570  178.4460  137.4620 C   0  0  0  0  0  3  0  0  0  0  0  0
  190.4460  177.6120  137.7180 O   0  0  0  0  0  1  0  0  0  0  0  0
  188.8980  178.2380  136.1610 O   0  0  0  0  0  1  0  0  0  0  0  0
  184.0860  178.7890  145.4180 C   0  0  0  0  0  2  0  0  0  0  0  0
  187.0220  178.3380  147.7720 C   0  0  0  0  0  3  0  0  0  0  0  0
  186.3900  177.8680  145.0790 C   0  0  0  0  0  3  0  0  0  0  0  0
  190.2130  176.9070  146.5440 C   0  0  0  0  0  0  0  0  0  0  0  0
  189.2510  177.4620  147.4000 C   0  0  0  0  0  3  0  0  0  0  0  0
  187.9790  177.7820  146.9180 C   0  0  0  0  0  0  0  0  0  0  0  0
  188.6190  176.9960  144.7080 C   0  0  0  0  0  3  0  0  0  0  0  0
  187.6610  177.5470  145.5620 C   0  0  0  0  0  0  0  0  0  0  0  0
  189.8900  176.6770  145.1980 C   0  0  0  0  0  3  0  0  0  0  0  0
  185.4320  178.4180  145.9400 C   0  0  0  0  0  0  0  0  0  0  0  0
  185.7520  178.6570  147.2830 C   0  0  0  0  0  3  0  0  0  0  0  0
  191.5500  176.5720  147.0580 C   0  0  0  0  0  0  0  0  0  0  0  0
  191.9970  177.1390  148.0910 O   0  0  0  0  0  1  0  0  0  0  0  0
  192.3360  175.6280  146.4070 O   0  0  0  0  0  0  0  0  0  0  0  0
  1  5  1  0  0  0  0
  2 15  1  0  0  0  0
  3 10  1  0  0  0  0
  4 21  1  0  0  0  0
  5  4  1  0  0  0  0
  6  8  2  0  0  0  0
  7  6  1  0  0  0  0
  8  4  1  0  0  0  0
  9 11  1  0  0  0  0
  9  3  2  0  0  0  0
 10  1  2  0  0  0  0
 10  6  1  0  0  0  0
 11  7  2  0  0  0  0
 12  2  1  0  0  0  0
 12 13  1  0  0  0  0
 13 14  2  0  0  0  0
 14 16  1  0  0  0  0
 15  3  1  0  0  0  0
 15 17  2  0  0  0  0
 17 16  1  0  0  0  0
 17  1  1  0  0  0  0
 18 19  1  0  0  0  0
 18 13  1  0  0  0  0
 20 18  1  0  0  0  0
 21 30  1  0  0  0  0
 23 28  2  0  0  0  0
 23 30  1  0  0  0  0
 24 32  1  0  0  0  0
 24 25  2  0  0  0  0
 26 25  1  0  0  0  0
 26 22  2  0  0  0  0
 27 29  2  0  0  0  0
 27 28  1  0  0  0  0
 28 26  1  0  0  0  0
 29 24  1  0  0  0  0
 30 31  2  0  0  0  0
 31 22  1  0  0  0  0
 32 33  1  0  0  0  0
 34 32  2  0  0  0  0
M  END
>  <MODEL>
7

>  <REMARK>
 VINA RESULT:     -11.0      3.278      7.259
  Name = 
  4 active torsions:
  status: ('A' for Active; 'I' for Inactive)
    1  A    between atoms: C_3  and  C_25
    2  A    between atoms: C_7  and  C_11
    3  A    between atoms: N_8  and  C_18
    4  A    between atoms: C_18  and  C_30
                            x       y       z     vdW  Elec       q    Type
                         _______ _______ _______ _____ _____    ______ ____

>  <TORSDO>
F 4

$$$$
=
 OpenBabel10272415183D

 34 39  0  0  0  0  0  0  0  0999 V2000
  186.2390  178.2730  143.1080 C   0  0  0  0  0  0  0  0  0  0  0  0
  188.7930  177.6790  145.6190 C   0  0  0  0  0  2  0  0  0  0  0  0
  186.3510  178.0840  145.3420 C   0  0  0  0  0  0  0  0  0  0  0  0
  184.1470  178.8880  141.9780 N   0  0  0  0  0  0  0  0  0  0  0  0
  185.5530  178.4740  141.7860 C   0  0  0  0  0  2  0  0  0  0  0  0
  184.2540  178.7210  144.3790 C   0  0  0  0  0  0  0  0  0  0  0  0
  183.7300  178.7880  145.6370 N   0  0  0  0  0  0  0  0  0  0  0  0
  183.5340  178.9820  143.2850 C   0  0  0  0  0  3  0  0  0  0  0  0
  185.8000  178.1690  146.6170 C   0  0  0  0  0  3  0  0  0  0  0  0
  185.5840  178.3720  144.2500 C   0  0  0  0  0  0  0  0  0  0  0  0
  184.4810  178.5230  146.7180 N   0  0  0  0  0  0  0  0  0  0  0  0
  190.1620  177.6950  145.0180 C   0  0  0  0  0  2  0  0  0  0  0  0
  190.3970  176.6410  143.9800 C   0  0  0  0  0  0  0  0  0  0  0  0
  189.6800  176.5500  142.8490 C   0  0  0  0  0  3  0  0  0  0  0  0
  187.6970  177.7740  144.8720 C   0  0  0  0  0  0  0  0  0  0  0  0
  188.4360  177.2730  142.5170 C   0  0  0  0  0  2  0  0  0  0  0  0
  187.6090  177.8340  143.4030 C   0  0  0  0  0  0  0  0  0  0  0  0
  191.6030  175.7750  144.1530 C   0  0  0  0  0  3  0  0  0  0  0  0
  191.9830  175.7360  145.4950 O   0  0  0  0  0  1  0  0  0  0  0  0
  191.3470  174.4810  143.6970 O   0  0  0  0  0  1  0  0  0  0  0  0
  183.3600  179.2470  140.8090 C   0  0  0  0  0  2  0  0  0  0  0  0
  183.4980  176.4900  138.2130 C   0  0  0  0  0  3  0  0  0  0  0  0
  181.8470  177.3110  140.3270 C   0  0  0  0  0  3  0  0  0  0  0  0
  180.8330  173.9180  138.0580 C   0  0  0  0  0  0  0  0  0  0  0  0
  181.9970  174.6410  137.7600 C   0  0  0  0  0  3  0  0  0  0  0  0
  182.3390  175.7680  138.5120 C   0  0  0  0  0  0  0  0  0  0  0  0
  180.3470  175.4650  139.8720 C   0  0  0  0  0  3  0  0  0  0  0  0
  181.5070  176.1830  139.5770 C   0  0  0  0  0  0  0  0  0  0  0  0
  180.0110  174.3370  139.1160 C   0  0  0  0  0  3  0  0  0  0  0  0
  183.0140  178.0250  140.0280 C   0  0  0  0  0  0  0  0  0  0  0  0
  183.8340  177.6170  138.9680 C   0  0  0  0  0  3  0  0  0  0  0  0
  180.4790  172.7320  137.2630 C   0  0  0  0  0  0  0  0  0  0  0  0
  180.6250  171.5760  137.7420 O   0  0  0  0  0  1  0  0  0  0  0  0
  179.9820  172.8770  135.9720 O   0  0  0  0  0  0  0  0  0  0  0  0
  1 17  1  0  0  0  0
  1 10  2  0  0  0  0
  3  9  2  0  0  0  0
  4  8  1  0  0  0  0
  5  4  1  0  0  0  0
  5  1  1  0  0  0  0
  6  7  1  0  0  0  0
  7 11  2  0  0  0  0
  8  6  2  0  0  0  0
  9 11  1  0  0  0  0
 10  6  1  0  0  0  0
 10  3  1  0  0  0  0
 12  2  1  0  0  0  0
 13 18  1  0  0  0  0
 13 12  1  0  0  0  0
 14 13  2  0  0  0  0
 15  3  1  0  0  0  0
 15  2  1  0  0  0  0
 16 14  1  0  0  0  0
 16 17  1  0  0  0  0
 17 15  2  0  0  0  0
 18 19  1  0  0  0  0
 20 18  1  0  0  0  0
 21  4  1  0  0  0  0
 22 26  2  0  0  0  0
 22 31  1  0  0  0  0
 24 29  1  0  0  0  0
 25 24  2  0  0  0  0
 25 26  1  0  0  0  0
 26 28  1  0  0  0  0
 28 27  1  0  0  0  0
 28 23  2  0  0  0  0
 29 27  2  0  0  0  0
 30 23  1  0  0  0  0
 30 21  1  0  0  0  0
 31 30  2  0  0  0  0
 32 33  1  0  0  0  0
 32 24  1  0  0  0  0
 34 32  2  0  0  0  0
M  END
>  <MODEL>
8

>  <REMARK>
 VINA RESULT:     -11.0      3.385      5.321
  Name = 
  4 active torsions:
  status: ('A' for Active; 'I' for Inactive)
    1  A    between atoms: C_3  and  C_25
    2  A    between atoms: C_7  and  C_11
    3  A    between atoms: N_8  and  C_18
    4  A    between atoms: C_18  and  C_30
                            x       y       z     vdW  Elec       q    Type
                         _______ _______ _______ _____ _____    ______ ____

>  <TORSDO>
F 4

$$$$
=
 OpenBabel10272415183D

 34 39  0  0  0  0  0  0  0  0999 V2000
  187.7620  177.7480  140.9190 C   0  0  0  0  0  0  0  0  0  0  0  0
  189.2170  176.9770  137.6840 C   0  0  0  0  0  2  0  0  0  0  0  0
  187.2840  178.1230  138.7580 C   0  0  0  0  0  0  0  0  0  0  0  0
  186.2090  178.4020  142.7070 N   0  0  0  0  0  0  0  0  0  0  0  0
  187.5410  177.8360  142.4040 C   0  0  0  0  0  2  0  0  0  0  0  0
  185.6640  178.7860  140.3910 C   0  0  0  0  0  0  0  0  0  0  0  0
  184.8630  179.2230  139.3770 N   0  0  0  0  0  0  0  0  0  0  0  0
  185.3130  178.8800  141.6770 C   0  0  0  0  0  3  0  0  0  0  0  0
  186.4480  178.5650  137.7380 C   0  0  0  0  0  3  0  0  0  0  0  0
  186.8810  178.2240  140.0590 C   0  0  0  0  0  0  0  0  0  0  0  0
  185.2450  179.1120  138.0940 N   0  0  0  0  0  0  0  0  0  0  0  0
  190.3790  176.0440  137.8170 C   0  0  0  0  0  2  0  0  0  0  0  0
  191.5180  176.5820  138.6280 C   0  0  0  0  0  0  0  0  0  0  0  0
  191.3970  176.9420  139.9150 C   0  0  0  0  0  3  0  0  0  0  0  0
  188.5920  177.4760  138.7460 C   0  0  0  0  0  0  0  0  0  0  0  0
  190.1500  177.0990  140.6890 C   0  0  0  0  0  2  0  0  0  0  0  0
  188.9350  177.2880  140.1660 C   0  0  0  0  0  0  0  0  0  0  0  0
  192.8750  176.5390  138.0030 C   0  0  0  0  0  3  0  0  0  0  0  0
  193.8490  176.8940  138.9370 O   0  0  0  0  0  1  0  0  0  0  0  0
  193.1430  175.2640  137.5020 O   0  0  0  0  0  1  0  0  0  0  0  0
  185.7710  178.4500  144.0920 C   0  0  0  0  0  2  0  0  0  0  0  0
  187.7290  177.6620  147.2390 C   0  0  0  0  0  3  0  0  0  0  0  0
  188.1190  177.6610  144.4610 C   0  0  0  0  0  3  0  0  0  0  0  0
  191.2590  176.5510  147.0280 C   0  0  0  0  0  0  0  0  0  0  0  0
  190.0150  176.9210  147.5590 C   0  0  0  0  0  3  0  0  0  0  0  0
  188.9680  177.2900  146.7100 C   0  0  0  0  0  0  0  0  0  0  0  0
  190.4030  176.9240  144.7820 C   0  0  0  0  0  3  0  0  0  0  0  0
  189.1640  177.2910  145.3100 C   0  0  0  0  0  0  0  0  0  0  0  0
  191.4460  176.5550  145.6380 C   0  0  0  0  0  3  0  0  0  0  0  0
  186.8770  178.0250  144.9970 C   0  0  0  0  0  0  0  0  0  0  0  0
  186.6870  178.0310  146.3840 C   0  0  0  0  0  3  0  0  0  0  0  0
  192.3570  176.1630  147.9280 C   0  0  0  0  0  0  0  0  0  0  0  0
  192.9620  175.0700  147.7630 O   0  0  0  0  0  0  0  0  0  0  0  0
  192.7360  177.0000  148.9710 O   0  0  0  0  0  1  0  0  0  0  0  0
  1  5  1  0  0  0  0
  2 12  1  0  0  0  0
  2 15  1  0  0  0  0
  3 10  1  0  0  0  0
  4 21  1  0  0  0  0
  5  4  1  0  0  0  0
  6  8  2  0  0  0  0
  7  6  1  0  0  0  0
  8  4  1  0  0  0  0
  9 11  1  0  0  0  0
  9  3  2  0  0  0  0
 10  6  1  0  0  0  0
 10  1  2  0  0  0  0
 11  7  2  0  0  0  0
 12 13  1  0  0  0  0
 13 14  2  0  0  0  0
 14 16  1  0  0  0  0
 15  3  1  0  0  0  0
 15 17  2  0  0  0  0
 17 16  1  0  0  0  0
 17  1  1  0  0  0  0
 18 13  1  0  0  0  0
 18 19  1  0  0  0  0
 20 18  1  0  0  0  0
 21 30  1  0  0  0  0
 23 30  2  0  0  0  0
 23 28  1  0  0  0  0
 24 25  1  0  0  0  0
 24 32  1  0  0  0  0
 26 22  1  0  0  0  0
 26 25  2  0  0  0  0
 27 28  2  0  0  0  0
 27 29  1  0  0  0  0
 28 26  1  0  0  0  0
 29 24  2  0  0  0  0
 30 31  1  0  0  0  0
 31 22  2  0  0  0  0
 32 34  1  0  0  0  0
 33 32  2  0  0  0  0
M  END
>  <MODEL>
9

>  <REMARK>
 VINA RESULT:     -10.9      3.871      7.232
  Name = 
  4 active torsions:
  status: ('A' for Active; 'I' for Inactive)
    1  A    between atoms: C_3  and  C_25
    2  A    between atoms: C_7  and  C_11
    3  A    between atoms: N_8  and  C_18
    4  A    between atoms: C_18  and  C_30
                            x       y       z     vdW  Elec       q    Type
                         _______ _______ _______ _____ _____    ______ ____

>  <TORSDO>
F 4

$$$$
