=
 OpenBabel10272415133D

 34 38  0  0  1  0  0  0  0  0999 V2000
  188.8770  178.0040  143.1210 O   0  0  0  0  0  0  0  0  0  0  0  0
  187.6700  177.5470  147.8230 C   0  0  0  0  0  2  0  0  0  0  0  0
  185.9390  177.6840  145.9340 C   0  0  0  0  0  2  0  0  0  0  0  0
  188.0060  178.0900  144.0280 C   0  0  0  0  0  0  0  0  0  0  0  0
  184.5380  178.1020  142.7230 C   0  0  0  0  0  2  0  0  0  0  0  0
  184.3450  178.2770  144.1660 N   0  0  0  0  0  0  0  0  0  0  0  0
  186.0290  178.0570  142.4340 C   0  0  2  0  0  3  0  0  0  0  0  0
  185.6520  178.5900  144.7360 C   0  0  2  0  0  3  0  0  0  0  0  0
  186.6390  178.3660  143.7010 N   0  0  0  0  0  0  0  0  0  0  0  0
  183.5130  179.4550  144.3390 C   0  0  0  0  0  1  0  0  0  0  0  0
  189.0860  177.9540  148.2260 C   0  0  0  0  0  2  0  0  0  0  0  0
  190.1130  177.4120  147.2340 C   0  0  2  0  0  3  0  0  0  0  0  0
  187.3800  177.7930  146.3680 C   0  0  0  0  0  0  0  0  0  0  0  0
  189.8250  177.9560  145.8370 C   0  0  0  0  0  2  0  0  0  0  0  0
  188.3680  177.8970  145.4460 C   0  0  0  0  0  0  0  0  0  0  0  0
  186.4000  179.1180  141.4070 C   0  0  0  0  0  2  0  0  0  0  0  0
  188.8080  178.1630  140.2220 F   0  0  0  0  0  0  0  0  0  0  0  0
  185.3120  177.9430  137.9760 C   0  0  0  0  0  3  0  0  0  0  0  0
  188.8000  176.1580  136.4990 N   0  0  0  0  0  0  0  0  0  0  0  0
  189.0070  177.1240  137.5860 C   0  0  0  0  0  2  0  0  0  0  0  0
  187.6990  177.5480  138.1950 C   0  0  0  0  0  0  0  0  0  0  0  0
  186.4520  178.5370  140.0320 C   0  0  0  0  0  0  0  0  0  0  0  0
  186.5120  176.8910  136.0530 C   0  0  0  0  0  2  0  0  0  0  0  0
  186.5170  177.4980  137.4260 C   0  0  0  0  0  0  0  0  0  0  0  0
  187.9280  176.7660  135.4950 C   0  0  0  0  0  2  0  0  0  0  0  0
  185.2800  178.4650  139.2710 C   0  0  0  0  0  3  0  0  0  0  0  0
  187.6650  178.0840  139.4920 C   0  0  0  0  0  0  0  0  0  0  0  0
  191.2460  176.2490  136.7220 C   0  0  0  0  0  1  0  0  0  0  0  0
  190.0750  175.8290  135.8510 C   0  0  2  0  0  3  0  0  0  0  0  0
  190.1820  176.4150  134.5840 O   0  0  0  0  0  1  0  0  0  0  0  0
  190.1560  175.8890  147.2220 C   0  0  0  0  0  2  0  0  0  0  0  0
  191.3960  175.4200  147.8210 N   0  0  0  0  0  2  0  0  0  0  0  0
  192.4560  175.6710  146.8590 C   0  0  0  0  0  2  0  0  0  0  0  0
  192.2090  174.8650  145.5990 C   0  0  0  0  0  1  0  0  0  0  0  0
  1  4  2  0  0  0  0
  2 11  1  0  0  0  0
  3 13  1  0  0  0  0
  4 15  1  0  0  0  0
  5  6  1  0  0  0  0
  6 10  1  0  0  0  0
  6  8  1  0  0  0  0
  7 16  1  6  0  0  0
  7  5  1  0  0  0  0
  7  9  1  0  0  0  0
  8  3  1  1  0  0  0
  9  4  1  0  0  0  0
  9  8  1  0  0  0  0
 12 31  1  6  0  0  0
 12 11  1  0  0  0  0
 13  2  1  0  0  0  0
 14 12  1  0  0  0  0
 15 14  1  0  0  0  0
 15 13  2  0  0  0  0
 18 26  1  0  0  0  0
 19 20  1  0  0  0  0
 20 21  1  0  0  0  0
 21 27  2  0  0  0  0
 22 16  1  0  0  0  0
 23 24  1  0  0  0  0
 24 18  2  0  0  0  0
 24 21  1  0  0  0  0
 25 23  1  0  0  0  0
 25 19  1  0  0  0  0
 26 22  2  0  0  0  0
 27 22  1  0  0  0  0
 27 17  1  0  0  0  0
 29 19  1  0  0  0  0
 29 28  1  1  0  0  0
 30 29  1  0  0  0  0
 31 32  1  0  0  0  0
 33 32  1  0  0  0  0
 34 33  1  0  0  0  0
M  END
>  <MODEL>
1

>  <REMARK>
 VINA RESULT:      -7.8      0.000      0.000
  Name = 
  6 active torsions:
  status: ('A' for Active; 'I' for Inactive)
    1  A    between atoms: C_3  and  N_24
    2  A    between atoms: N_7  and  C_15
    3  A    between atoms: C_8  and  C_17
    4  A    between atoms: C_8  and  C_18
    5  A    between atoms: N_24  and  C_25
    6  A    between atoms: C_25  and  C_27
                            x       y       z     vdW  Elec       q    Type
                         _______ _______ _______ _____ _____    ______ ____

>  <TORSDO>
F 6

$$$$
=
 OpenBabel10272415133D

 34 38  0  0  1  0  0  0  0  0999 V2000
  185.5070  179.0210  140.2170 O   0  0  0  0  0  0  0  0  0  0  0  0
  182.2640  177.9860  136.7260 C   0  0  0  0  0  2  0  0  0  0  0  0
  184.6430  177.0260  136.7650 C   0  0  0  0  0  2  0  0  0  0  0  0
  185.2640  178.5740  139.0630 C   0  0  0  0  0  0  0  0  0  0  0  0
  187.9970  176.4710  137.7070 C   0  0  0  0  0  2  0  0  0  0  0  0
  187.0360  176.5120  136.6010 N   0  0  0  0  0  0  0  0  0  0  0  0
  187.4690  177.3330  138.8420 C   0  0  2  0  0  3  0  0  0  0  0  0
  186.0690  177.5590  136.9150 C   0  0  2  0  0  3  0  0  0  0  0  0
  186.3000  177.9630  138.2860 N   0  0  0  0  0  0  0  0  0  0  0  0
  187.7680  176.9500  135.4260 C   0  0  0  0  0  1  0  0  0  0  0  0
  181.4090  179.1710  137.1700 C   0  0  0  0  0  2  0  0  0  0  0  0
  181.4650  179.3480  138.6860 C   0  0  2  0  0  3  0  0  0  0  0  0
  183.6360  177.9890  137.3430 C   0  0  0  0  0  0  0  0  0  0  0  0
  182.9060  179.5900  139.1290 C   0  0  0  0  0  2  0  0  0  0  0  0
  183.9060  178.6570  138.4900 C   0  0  0  0  0  0  0  0  0  0  0  0
  188.4970  178.3900  139.2250 C   0  0  0  0  0  2  0  0  0  0  0  0
  187.4020  178.4360  141.8550 F   0  0  0  0  0  0  0  0  0  0  0  0
  191.3420  177.1740  141.4080 C   0  0  0  0  0  3  0  0  0  0  0  0
  189.5090  176.8480  145.1590 N   0  0  0  0  0  0  0  0  0  0  0  0
  188.8290  177.7390  144.2090 C   0  0  0  0  0  2  0  0  0  0  0  0
  189.4280  177.6270  142.8340 C   0  0  0  0  0  0  0  0  0  0  0  0
  189.2700  177.9710  140.4330 C   0  0  0  0  0  0  0  0  0  0  0  0
  191.5790  176.7620  143.8610 C   0  0  0  0  0  2  0  0  0  0  0  0
  190.7720  177.2250  142.6820 C   0  0  0  0  0  0  0  0  0  0  0  0
  190.9320  177.1860  145.1790 C   0  0  0  0  0  2  0  0  0  0  0  0
  190.5960  177.5500  140.2890 C   0  0  0  0  0  3  0  0  0  0  0  0
  188.6850  178.0160  141.7080 C   0  0  0  0  0  0  0  0  0  0  0  0
  187.6690  177.8020  146.4790 C   0  0  0  0  0  1  0  0  0  0  0  0
  188.9820  177.0390  146.5150 C   0  0  2  0  0  3  0  0  0  0  0  0
  189.8990  177.6950  147.3440 O   0  0  0  0  0  1  0  0  0  0  0  0
  180.8630  178.1600  139.4280 C   0  0  0  0  0  2  0  0  0  0  0  0
  181.3900  178.0990  140.7820 N   0  0  0  0  0  2  0  0  0  0  0  0
  180.3690  178.6440  141.6620 C   0  0  0  0  0  2  0  0  0  0  0  0
  181.0120  179.1750  142.9280 C   0  0  0  0  0  1  0  0  0  0  0  0
  2 11  1  0  0  0  0
  2 13  1  0  0  0  0
  3 13  1  0  0  0  0
  4  1  2  0  0  0  0
  5  7  1  0  0  0  0
  6  8  1  0  0  0  0
  6  5  1  0  0  0  0
  7 16  1  6  0  0  0
  8  3  1  1  0  0  0
  8  9  1  0  0  0  0
  9  7  1  0  0  0  0
  9  4  1  0  0  0  0
 10  6  1  0  0  0  0
 11 12  1  0  0  0  0
 12 14  1  0  0  0  0
 12 31  1  1  0  0  0
 13 15  2  0  0  0  0
 15  4  1  0  0  0  0
 15 14  1  0  0  0  0
 16 22  1  0  0  0  0
 18 24  1  0  0  0  0
 19 25  1  0  0  0  0
 19 29  1  0  0  0  0
 20 19  1  0  0  0  0
 21 20  1  0  0  0  0
 22 27  2  0  0  0  0
 23 25  1  0  0  0  0
 24 21  2  0  0  0  0
 24 23  1  0  0  0  0
 26 22  1  0  0  0  0
 26 18  2  0  0  0  0
 27 17  1  0  0  0  0
 27 21  1  0  0  0  0
 29 28  1  6  0  0  0
 29 30  1  0  0  0  0
 31 32  1  0  0  0  0
 32 33  1  0  0  0  0
 33 34  1  0  0  0  0
M  END
>  <MODEL>
2

>  <REMARK>
 VINA RESULT:      -7.6      2.790      8.954
  Name = 
  6 active torsions:
  status: ('A' for Active; 'I' for Inactive)
    1  A    between atoms: C_3  and  N_24
    2  A    between atoms: N_7  and  C_15
    3  A    between atoms: C_8  and  C_17
    4  A    between atoms: C_8  and  C_18
    5  A    between atoms: N_24  and  C_25
    6  A    between atoms: C_25  and  C_27
                            x       y       z     vdW  Elec       q    Type
                         _______ _______ _______ _____ _____    ______ ____

>  <TORSDO>
F 6

$$$$
=
 OpenBabel10272415133D

 34 38  0  0  1  0  0  0  0  0999 V2000
  189.0200  177.9120  143.1130 O   0  0  0  0  0  0  0  0  0  0  0  0
  187.6440  177.5470  147.7770 C   0  0  0  0  0  2  0  0  0  0  0  0
  185.9820  177.7050  145.8280 C   0  0  0  0  0  2  0  0  0  0  0  0
  188.1220  178.0330  143.9890 C   0  0  0  0  0  0  0  0  0  0  0  0
  184.7010  178.1180  142.5670 C   0  0  0  0  0  2  0  0  0  0  0  0
  184.4640  178.3160  144.0010 N   0  0  0  0  0  0  0  0  0  0  0  0
  186.1990  178.0310  142.3290 C   0  0  2  0  0  3  0  0  0  0  0  0
  185.7590  178.6030  144.6100 C   0  0  2  0  0  3  0  0  0  0  0  0
  186.7740  178.3390  143.6130 N   0  0  0  0  0  0  0  0  0  0  0  0
  183.6590  179.5180  144.1300 C   0  0  0  0  0  1  0  0  0  0  0  0
  189.0560  177.9220  148.2220 C   0  0  0  0  0  2  0  0  0  0  0  0
  190.1010  177.3410  147.2720 C   0  0  2  0  0  3  0  0  0  0  0  0
  187.4090  177.7820  146.3090 C   0  0  0  0  0  0  0  0  0  0  0  0
  189.8750  177.8740  145.8590 C   0  0  0  0  0  2  0  0  0  0  0  0
  188.4310  177.8480  145.4210 C   0  0  0  0  0  0  0  0  0  0  0  0
  186.6320  179.0690  141.3020 C   0  0  0  0  0  2  0  0  0  0  0  0
  184.8760  178.4950  139.1340 F   0  0  0  0  0  0  0  0  0  0  0  0
  188.8740  177.4120  138.7410 C   0  0  0  0  0  3  0  0  0  0  0  0
  186.3220  177.0220  135.4440 N   0  0  0  0  0  0  0  0  0  0  0  0
  185.6470  177.1770  136.7390 C   0  0  0  0  0  2  0  0  0  0  0  0
  186.6270  177.5250  137.8260 C   0  0  0  0  0  0  0  0  0  0  0  0
  187.0900  178.4140  140.0400 C   0  0  0  0  0  0  0  0  0  0  0  0
  188.4920  176.5060  136.4440 C   0  0  0  0  0  2  0  0  0  0  0  0
  187.9780  177.1360  137.7060 C   0  0  0  0  0  0  0  0  0  0  0  0
  187.3480  175.9870  135.5740 C   0  0  0  0  0  2  0  0  0  0  0  0
  188.4320  178.0440  139.9050 C   0  0  0  0  0  3  0  0  0  0  0  0
  186.1830  178.1490  139.0020 C   0  0  0  0  0  0  0  0  0  0  0  0
  184.0350  177.2860  134.5870 C   0  0  0  0  0  1  0  0  0  0  0  0
  185.3720  176.5870  134.4140 C   0  0  2  0  0  3  0  0  0  0  0  0
  185.1940  175.1980  134.4220 O   0  0  0  0  0  1  0  0  0  0  0  0
  190.1040  175.8170  147.2800 C   0  0  0  0  0  2  0  0  0  0  0  0
  191.4720  175.3200  147.2690 N   0  0  0  0  0  2  0  0  0  0  0  0
  192.3130  176.3780  147.8030 C   0  0  0  0  0  2  0  0  0  0  0  0
  193.1160  175.8530  148.9770 C   0  0  0  0  0  1  0  0  0  0  0  0
  1  4  2  0  0  0  0
  2 11  1  0  0  0  0
  3 13  1  0  0  0  0
  4 15  1  0  0  0  0
  5  6  1  0  0  0  0
  6 10  1  0  0  0  0
  6  8  1  0  0  0  0
  7 16  1  6  0  0  0
  7  5  1  0  0  0  0
  7  9  1  0  0  0  0
  8  3  1  1  0  0  0
  9  4  1  0  0  0  0
  9  8  1  0  0  0  0
 12 31  1  6  0  0  0
 12 11  1  0  0  0  0
 13  2  1  0  0  0  0
 14 12  1  0  0  0  0
 15 14  1  0  0  0  0
 15 13  2  0  0  0  0
 18 26  1  0  0  0  0
 19 25  1  0  0  0  0
 19 20  1  0  0  0  0
 20 21  1  0  0  0  0
 21 27  2  0  0  0  0
 22 16  1  0  0  0  0
 23 24  1  0  0  0  0
 24 21  1  0  0  0  0
 24 18  2  0  0  0  0
 25 23  1  0  0  0  0
 26 22  2  0  0  0  0
 27 17  1  0  0  0  0
 27 22  1  0  0  0  0
 29 30  1  0  0  0  0
 29 28  1  1  0  0  0
 29 19  1  0  0  0  0
 32 31  1  0  0  0  0
 32 33  1  0  0  0  0
 33 34  1  0  0  0  0
M  END
>  <MODEL>
3

>  <REMARK>
 VINA RESULT:      -7.4      1.529      2.405
  Name = 
  6 active torsions:
  status: ('A' for Active; 'I' for Inactive)
    1  A    between atoms: C_3  and  N_24
    2  A    between atoms: N_7  and  C_15
    3  A    between atoms: C_8  and  C_17
    4  A    between atoms: C_8  and  C_18
    5  A    between atoms: N_24  and  C_25
    6  A    between atoms: C_25  and  C_27
                            x       y       z     vdW  Elec       q    Type
                         _______ _______ _______ _____ _____    ______ ____

>  <TORSDO>
F 6

$$$$
=
 OpenBabel10272415133D

 34 38  0  0  1  0  0  0  0  0999 V2000
  190.7420  175.3780  139.1860 O   0  0  0  0  0  0  0  0  0  0  0  0
  191.1350  174.9380  134.3460 C   0  0  0  0  0  2  0  0  0  0  0  0
  190.1770  177.0220  135.4960 C   0  0  0  0  0  2  0  0  0  0  0  0
  190.4140  175.7700  138.0340 C   0  0  0  0  0  0  0  0  0  0  0  0
  188.9630  179.1790  138.0100 C   0  0  0  0  0  2  0  0  0  0  0  0
  188.8620  178.7700  136.6050 N   0  0  0  0  0  0  0  0  0  0  0  0
  189.5460  178.0260  138.8110 C   0  0  2  0  0  3  0  0  0  0  0  0
  189.1230  177.3350  136.5590 C   0  0  2  0  0  3  0  0  0  0  0  0
  189.6100  176.9430  137.8640 N   0  0  0  0  0  0  0  0  0  0  0  0
  187.4770  178.9620  136.2120 C   0  0  0  0  0  1  0  0  0  0  0  0
  191.3370  173.4320  134.5000 C   0  0  0  0  0  2  0  0  0  0  0  0
  192.1360  173.1140  135.7630 C   0  0  2  0  0  3  0  0  0  0  0  0
  190.6640  175.6000  135.6130 C   0  0  0  0  0  0  0  0  0  0  0  0
  191.3970  173.6370  136.9920 C   0  0  0  0  0  2  0  0  0  0  0  0
  190.8600  175.0390  136.8310 C   0  0  0  0  0  0  0  0  0  0  0  0
  188.6150  177.6580  139.9590 C   0  0  0  0  0  2  0  0  0  0  0  0
  187.3210  177.5460  142.4940 F   0  0  0  0  0  0  0  0  0  0  0  0
  191.4820  177.5220  142.4290 C   0  0  0  0  0  3  0  0  0  0  0  0
  189.4950  176.9070  146.0640 N   0  0  0  0  0  0  0  0  0  0  0  0
  188.6700  177.4810  144.9930 C   0  0  0  0  0  2  0  0  0  0  0  0
  189.3980  177.4640  143.6760 C   0  0  0  0  0  0  0  0  0  0  0  0
  189.3650  177.5790  141.2490 C   0  0  0  0  0  0  0  0  0  0  0  0
  191.6060  177.3690  144.9200 C   0  0  0  0  0  2  0  0  0  0  0  0
  190.8090  177.4820  143.6520 C   0  0  0  0  0  0  0  0  0  0  0  0
  190.7440  177.6640  146.1470 C   0  0  0  0  0  2  0  0  0  0  0  0
  190.7630  177.5750  141.2330 C   0  0  0  0  0  3  0  0  0  0  0  0
  188.6790  177.5300  142.4730 C   0  0  0  0  0  0  0  0  0  0  0  0
  187.4490  177.6650  147.1930 C   0  0  0  0  0  1  0  0  0  0  0  0
  188.8130  177.0190  147.3580 C   0  0  2  0  0  3  0  0  0  0  0  0
  189.5760  177.7340  148.2900 O   0  0  0  0  0  1  0  0  0  0  0  0
  193.5530  173.6720  135.7060 C   0  0  0  0  0  2  0  0  0  0  0  0
  194.0530  173.9010  137.0520 N   0  0  0  0  0  2  0  0  0  0  0  0
  194.9240  175.0630  136.9910 C   0  0  0  0  0  2  0  0  0  0  0  0
  194.4070  176.0390  135.9520 C   0  0  0  0  0  1  0  0  0  0  0  0
  2 11  1  0  0  0  0
  2 13  1  0  0  0  0
  3 13  1  0  0  0  0
  4  1  2  0  0  0  0
  5  7  1  0  0  0  0
  6  5  1  0  0  0  0
  7 16  1  1  0  0  0
  8  3  1  6  0  0  0
  8  6  1  0  0  0  0
  8  9  1  0  0  0  0
  9  4  1  0  0  0  0
  9  7  1  0  0  0  0
 10  6  1  0  0  0  0
 11 12  1  0  0  0  0
 12 31  1  6  0  0  0
 12 14  1  0  0  0  0
 13 15  2  0  0  0  0
 15 14  1  0  0  0  0
 15  4  1  0  0  0  0
 16 22  1  0  0  0  0
 18 24  1  0  0  0  0
 19 25  1  0  0  0  0
 19 29  1  0  0  0  0
 20 19  1  0  0  0  0
 21 20  1  0  0  0  0
 22 27  2  0  0  0  0
 23 25  1  0  0  0  0
 24 21  2  0  0  0  0
 24 23  1  0  0  0  0
 26 22  1  0  0  0  0
 26 18  2  0  0  0  0
 27 17  1  0  0  0  0
 27 21  1  0  0  0  0
 29 28  1  6  0  0  0
 29 30  1  0  0  0  0
 31 32  1  0  0  0  0
 33 32  1  0  0  0  0
 34 33  1  0  0  0  0
M  END
>  <MODEL>
4

>  <REMARK>
 VINA RESULT:      -7.4      2.785      9.340
  Name = 
  6 active torsions:
  status: ('A' for Active; 'I' for Inactive)
    1  A    between atoms: C_3  and  N_24
    2  A    between atoms: N_7  and  C_15
    3  A    between atoms: C_8  and  C_17
    4  A    between atoms: C_8  and  C_18
    5  A    between atoms: N_24  and  C_25
    6  A    between atoms: C_25  and  C_27
                            x       y       z     vdW  Elec       q    Type
                         _______ _______ _______ _____ _____    ______ ____

>  <TORSDO>
F 6

$$$$
=
 OpenBabel10272415133D

 34 38  0  0  1  0  0  0  0  0999 V2000
  187.3490  177.8950  138.1380 O   0  0  0  0  0  0  0  0  0  0  0  0
  191.2970  175.6790  136.3260 C   0  0  0  0  0  2  0  0  0  0  0  0
  190.8650  175.9490  138.8410 C   0  0  0  0  0  2  0  0  0  0  0  0
  188.5200  177.4600  138.3080 C   0  0  0  0  0  0  0  0  0  0  0  0
  189.3930  176.9790  141.8770 C   0  0  0  0  0  2  0  0  0  0  0  0
  190.6390  176.6320  141.1860 N   0  0  0  0  0  0  0  0  0  0  0  0
  188.3690  177.4170  140.8430 C   0  0  2  0  0  3  0  0  0  0  0  0
  190.4980  177.0790  139.8040 C   0  0  2  0  0  3  0  0  0  0  0  0
  189.1140  177.4580  139.6110 N   0  0  0  0  0  0  0  0  0  0  0  0
  191.6890  177.4360  141.7870 C   0  0  0  0  0  1  0  0  0  0  0  0
  191.0110  176.2920  134.9570 C   0  0  0  0  0  2  0  0  0  0  0  0
  189.5080  176.3790  134.6990 C   0  0  2  0  0  3  0  0  0  0  0  0
  190.4690  176.2870  137.4260 C   0  0  0  0  0  0  0  0  0  0  0  0
  188.8450  177.2410  135.7700 C   0  0  0  0  0  2  0  0  0  0  0  0
  189.3030  176.9310  137.1740 C   0  0  0  0  0  0  0  0  0  0  0  0
  187.8430  178.8070  141.1780 C   0  0  0  0  0  2  0  0  0  0  0  0
  185.3650  179.1720  139.8220 F   0  0  0  0  0  0  0  0  0  0  0  0
  185.2530  178.4170  143.9120 C   0  0  0  0  0  3  0  0  0  0  0  0
  181.6630  178.5190  141.7590 N   0  0  0  0  0  0  0  0  0  0  0  0
  182.8160  179.1190  141.0750 C   0  0  0  0  0  2  0  0  0  0  0  0
  184.0940  178.8470  141.8220 C   0  0  0  0  0  0  0  0  0  0  0  0
  186.5210  178.7250  141.8690 C   0  0  0  0  0  0  0  0  0  0  0  0
  182.7550  178.4910  143.9450 C   0  0  0  0  0  2  0  0  0  0  0  0
  184.0600  178.6160  143.2130 C   0  0  0  0  0  0  0  0  0  0  0  0
  181.5980  179.0520  143.1200 C   0  0  0  0  0  2  0  0  0  0  0  0
  186.4780  178.4760  143.2450 C   0  0  0  0  0  3  0  0  0  0  0  0
  185.3270  178.9180  141.1560 C   0  0  0  0  0  0  0  0  0  0  0  0
  179.9840  177.7680  140.1290 C   0  0  0  0  0  1  0  0  0  0  0  0
  180.4150  178.8750  141.0750 C   0  0  2  0  0  3  0  0  0  0  0  0
  180.5270  180.0860  140.3820 O   0  0  0  0  0  1  0  0  0  0  0  0
  188.8540  175.0040  134.6300 C   0  0  0  0  0  2  0  0  0  0  0  0
  187.4150  175.1270  134.7990 N   0  0  0  0  0  2  0  0  0  0  0  0
  186.9920  174.0350  135.6610 C   0  0  0  0  0  2  0  0  0  0  0  0
  188.1970  173.4310  136.3550 C   0  0  0  0  0  1  0  0  0  0  0  0
  1  4  2  0  0  0  0
  2 13  1  0  0  0  0
  4  9  1  0  0  0  0
  6 10  1  0  0  0  0
  6  5  1  0  0  0  0
  7 16  1  1  0  0  0
  7  5  1  0  0  0  0
  8  3  1  6  0  0  0
  8  6  1  0  0  0  0
  9  8  1  0  0  0  0
  9  7  1  0  0  0  0
 11  2  1  0  0  0  0
 12 31  1  1  0  0  0
 12 11  1  0  0  0  0
 12 14  1  0  0  0  0
 13  3  1  0  0  0  0
 14 15  1  0  0  0  0
 15 13  2  0  0  0  0
 15  4  1  0  0  0  0
 16 22  1  0  0  0  0
 17 27  1  0  0  0  0
 19 25  1  0  0  0  0
 20 19  1  0  0  0  0
 20 21  1  0  0  0  0
 21 24  1  0  0  0  0
 22 26  2  0  0  0  0
 24 18  2  0  0  0  0
 24 23  1  0  0  0  0
 25 23  1  0  0  0  0
 26 18  1  0  0  0  0
 27 21  2  0  0  0  0
 27 22  1  0  0  0  0
 29 28  1  6  0  0  0
 29 19  1  0  0  0  0
 30 29  1  0  0  0  0
 31 32  1  0  0  0  0
 32 33  1  0  0  0  0
 33 34  1  0  0  0  0
M  END
>  <MODEL>
5

>  <REMARK>
 VINA RESULT:      -7.4      3.429      8.775
  Name = 
  6 active torsions:
  status: ('A' for Active; 'I' for Inactive)
    1  A    between atoms: C_3  and  N_24
    2  A    between atoms: N_7  and  C_15
    3  A    between atoms: C_8  and  C_17
    4  A    between atoms: C_8  and  C_18
    5  A    between atoms: N_24  and  C_25
    6  A    between atoms: C_25  and  C_27
                            x       y       z     vdW  Elec       q    Type
                         _______ _______ _______ _____ _____    ______ ____

>  <TORSDO>
F 6

$$$$
=
 OpenBabel10272415133D

 34 38  0  0  1  0  0  0  0  0999 V2000
  189.6240  177.7100  143.2060 O   0  0  0  0  0  0  0  0  0  0  0  0
  187.8090  177.5890  147.7290 C   0  0  0  0  0  2  0  0  0  0  0  0
  186.3410  177.6830  145.6270 C   0  0  0  0  0  2  0  0  0  0  0  0
  188.6500  177.8870  143.9860 C   0  0  0  0  0  0  0  0  0  0  0  0
  185.3800  177.9640  142.2440 C   0  0  0  0  0  2  0  0  0  0  0  0
  185.0150  178.2330  143.6380 N   0  0  0  0  0  0  0  0  0  0  0  0
  186.8920  177.8390  142.1530 C   0  0  2  0  0  3  0  0  0  0  0  0
  186.2520  178.5260  144.3540 C   0  0  2  0  0  3  0  0  0  0  0  0
  187.3500  178.1980  143.4700 N   0  0  0  0  0  0  0  0  0  0  0  0
  184.2260  179.4530  143.6360 C   0  0  0  0  0  1  0  0  0  0  0  0
  189.1800  177.9610  148.2890 C   0  0  0  0  0  2  0  0  0  0  0  0
  190.2970  177.3180  147.4700 C   0  0  2  0  0  3  0  0  0  0  0  0
  187.7180  177.7590  146.2370 C   0  0  0  0  0  0  0  0  0  0  0  0
  190.2160  177.7870  146.0190 C   0  0  0  0  0  2  0  0  0  0  0  0
  188.8190  177.7660  145.4470 C   0  0  0  0  0  0  0  0  0  0  0  0
  187.4420  178.8200  141.1260 C   0  0  0  0  0  2  0  0  0  0  0  0
  189.9940  177.5920  140.8210 F   0  0  0  0  0  0  0  0  0  0  0  0
  187.3500  177.4110  137.6130 C   0  0  0  0  0  3  0  0  0  0  0  0
  190.9360  175.2560  137.4250 N   0  0  0  0  0  0  0  0  0  0  0  0
  190.8910  176.3020  138.4550 C   0  0  0  0  0  2  0  0  0  0  0  0
  189.5050  176.8710  138.5940 C   0  0  0  0  0  0  0  0  0  0  0  0
  187.8560  178.1110  139.8780 C   0  0  0  0  0  0  0  0  0  0  0  0
  188.9750  176.1030  136.2360 C   0  0  0  0  0  2  0  0  0  0  0  0
  188.6170  176.8340  137.4990 C   0  0  0  0  0  0  0  0  0  0  0  0
  190.4760  175.8280  136.1600 C   0  0  0  0  0  2  0  0  0  0  0  0
  186.9730  178.0510  138.7950 C   0  0  0  0  0  3  0  0  0  0  0  0
  189.1280  177.5260  139.7770 C   0  0  0  0  0  0  0  0  0  0  0  0
  193.1240  175.7930  136.4460 C   0  0  0  0  0  1  0  0  0  0  0  0
  192.3090  174.7790  137.2310 C   0  0  2  0  0  3  0  0  0  0  0  0
  192.3450  173.5340  136.5930 O   0  0  0  0  0  1  0  0  0  0  0  0
  190.2670  175.7960  147.5470 C   0  0  0  0  0  2  0  0  0  0  0  0
  191.5970  175.2850  147.8390 N   0  0  0  0  0  2  0  0  0  0  0  0
  192.4600  175.6900  146.7430 C   0  0  0  0  0  2  0  0  0  0  0  0
  192.3510  174.6930  145.6060 C   0  0  0  0  0  1  0  0  0  0  0  0
  1  4  2  0  0  0  0
  2 11  1  0  0  0  0
  3 13  1  0  0  0  0
  4 15  1  0  0  0  0
  5  6  1  0  0  0  0
  6  8  1  0  0  0  0
  7 16  1  6  0  0  0
  7  5  1  0  0  0  0
  7  9  1  0  0  0  0
  8  3  1  1  0  0  0
  9  4  1  0  0  0  0
  9  8  1  0  0  0  0
 10  6  1  0  0  0  0
 12 31  1  6  0  0  0
 12 11  1  0  0  0  0
 13  2  1  0  0  0  0
 14 12  1  0  0  0  0
 15 14  1  0  0  0  0
 15 13  2  0  0  0  0
 18 26  1  0  0  0  0
 19 20  1  0  0  0  0
 20 21  1  0  0  0  0
 21 27  2  0  0  0  0
 22 16  1  0  0  0  0
 23 24  1  0  0  0  0
 24 18  2  0  0  0  0
 24 21  1  0  0  0  0
 25 23  1  0  0  0  0
 25 19  1  0  0  0  0
 26 22  2  0  0  0  0
 27 22  1  0  0  0  0
 27 17  1  0  0  0  0
 29 28  1  6  0  0  0
 29 19  1  0  0  0  0
 30 29  1  0  0  0  0
 31 32  1  0  0  0  0
 33 32  1  0  0  0  0
 34 33  1  0  0  0  0
M  END
>  <MODEL>
6

>  <REMARK>
 VINA RESULT:      -7.2      1.225      1.592
  Name = 
  6 active torsions:
  status: ('A' for Active; 'I' for Inactive)
    1  A    between atoms: C_3  and  N_24
    2  A    between atoms: N_7  and  C_15
    3  A    between atoms: C_8  and  C_17
    4  A    between atoms: C_8  and  C_18
    5  A    between atoms: N_24  and  C_25
    6  A    between atoms: C_25  and  C_27
                            x       y       z     vdW  Elec       q    Type
                         _______ _______ _______ _____ _____    ______ ____

>  <TORSDO>
F 6

$$$$
=
 OpenBabel10272415133D

 34 38  0  0  1  0  0  0  0  0999 V2000
  187.1230  178.5060  140.4980 O   0  0  0  0  0  0  0  0  0  0  0  0
  191.4680  176.4270  139.7450 C   0  0  0  0  0  2  0  0  0  0  0  0
  190.2710  176.4010  142.0150 C   0  0  0  0  0  2  0  0  0  0  0  0
  188.1880  178.0250  140.9690 C   0  0  0  0  0  0  0  0  0  0  0  0
  187.9120  177.0920  144.5450 C   0  0  0  0  0  2  0  0  0  0  0  0
  189.3160  176.8010  144.2380 N   0  0  0  0  0  0  0  0  0  0  0  0
  187.2550  177.6790  143.3060 C   0  0  2  0  0  3  0  0  0  0  0  0
  189.6060  177.4150  142.9470 C   0  0  2  0  0  3  0  0  0  0  0  0
  188.3460  177.8500  142.3820 N   0  0  0  0  0  0  0  0  0  0  0  0
  190.1150  177.4990  145.2300 C   0  0  0  0  0  1  0  0  0  0  0  0
  191.6150  177.2080  138.4410 C   0  0  0  0  0  2  0  0  0  0  0  0
  190.2670  177.3640  137.7420 C   0  0  2  0  0  3  0  0  0  0  0  0
  190.3310  176.9180  140.5990 C   0  0  0  0  0  0  0  0  0  0  0  0
  189.2910  178.1060  138.6510 C   0  0  0  0  0  2  0  0  0  0  0  0
  189.2930  177.6170  140.0790 C   0  0  0  0  0  0  0  0  0  0  0  0
  186.6320  179.0310  143.6290 C   0  0  0  0  0  2  0  0  0  0  0  0
  184.9810  178.9080  141.3110 F   0  0  0  0  0  0  0  0  0  0  0  0
  183.1200  178.8370  145.0320 C   0  0  0  0  0  3  0  0  0  0  0  0
  180.8200  178.2080  141.5900 N   0  0  0  0  0  0  0  0  0  0  0  0
  182.1430  178.8020  141.3550 C   0  0  0  0  0  2  0  0  0  0  0  0
  182.9750  178.7910  142.6080 C   0  0  0  0  0  0  0  0  0  0  0  0
  185.1430  178.9300  143.6980 C   0  0  0  0  0  0  0  0  0  0  0  0
  180.8550  178.6580  143.9920 C   0  0  0  0  0  2  0  0  0  0  0  0
  182.3460  178.7930  143.8700 C   0  0  0  0  0  0  0  0  0  0  0  0
  180.1600  178.9510  142.6640 C   0  0  0  0  0  2  0  0  0  0  0  0
  184.5120  178.9100  144.9470 C   0  0  0  0  0  3  0  0  0  0  0  0
  184.3740  178.8760  142.5250 C   0  0  0  0  0  0  0  0  0  0  0  0
  180.2740  177.1740  139.4290 C   0  0  0  0  0  1  0  0  0  0  0  0
  179.9850  178.3160  140.3880 C   0  0  2  0  0  3  0  0  0  0  0  0
  180.1580  179.5450  139.7400 O   0  0  0  0  0  1  0  0  0  0  0  0
  189.6860  176.0240  137.3050 C   0  0  0  0  0  2  0  0  0  0  0  0
  189.4420  176.0300  135.8710 N   0  0  0  0  0  2  0  0  0  0  0  0
  188.1880  175.3300  135.6480 C   0  0  0  0  0  2  0  0  0  0  0  0
  187.1270  175.8640  136.5910 C   0  0  0  0  0  1  0  0  0  0  0  0
  1  4  2  0  0  0  0
  2 13  1  0  0  0  0
  4  9  1  0  0  0  0
  6  5  1  0  0  0  0
  6 10  1  0  0  0  0
  7 16  1  1  0  0  0
  7  5  1  0  0  0  0
  8  3  1  6  0  0  0
  8  6  1  0  0  0  0
  9  8  1  0  0  0  0
  9  7  1  0  0  0  0
 11  2  1  0  0  0  0
 12 31  1  1  0  0  0
 12 11  1  0  0  0  0
 12 14  1  0  0  0  0
 13  3  1  0  0  0  0
 14 15  1  0  0  0  0
 15 13  2  0  0  0  0
 15  4  1  0  0  0  0
 16 22  1  0  0  0  0
 17 27  1  0  0  0  0
 19 25  1  0  0  0  0
 20 19  1  0  0  0  0
 20 21  1  0  0  0  0
 21 24  1  0  0  0  0
 22 26  2  0  0  0  0
 24 23  1  0  0  0  0
 24 18  2  0  0  0  0
 25 23  1  0  0  0  0
 26 18  1  0  0  0  0
 27 21  2  0  0  0  0
 27 22  1  0  0  0  0
 29 28  1  6  0  0  0
 29 19  1  0  0  0  0
 30 29  1  0  0  0  0
 32 31  1  0  0  0  0
 33 32  1  0  0  0  0
 33 34  1  0  0  0  0
M  END
>  <MODEL>
7

>  <REMARK>
 VINA RESULT:      -7.2      2.989      7.832
  Name = 
  6 active torsions:
  status: ('A' for Active; 'I' for Inactive)
    1  A    between atoms: C_3  and  N_24
    2  A    between atoms: N_7  and  C_15
    3  A    between atoms: C_8  and  C_17
    4  A    between atoms: C_8  and  C_18
    5  A    between atoms: N_24  and  C_25
    6  A    between atoms: C_25  and  C_27
                            x       y       z     vdW  Elec       q    Type
                         _______ _______ _______ _____ _____    ______ ____

>  <TORSDO>
F 6

$$$$
=
 OpenBabel10272415133D

 34 38  0  0  1  0  0  0  0  0999 V2000
  192.0970  176.5650  140.1140 O   0  0  0  0  0  0  0  0  0  0  0  0
  189.1990  178.4760  143.5380 C   0  0  0  0  0  2  0  0  0  0  0  0
  188.3390  177.6610  141.2620 C   0  0  0  0  0  2  0  0  0  0  0  0
  190.9930  177.0840  140.4310 C   0  0  0  0  0  0  0  0  0  0  0  0
  188.3140  176.4430  137.9520 C   0  0  0  0  0  2  0  0  0  0  0  0
  187.6500  177.3040  138.9350 N   0  0  0  0  0  0  0  0  0  0  0  0
  189.7670  176.2650  138.3630 C   0  0  2  0  0  3  0  0  0  0  0  0
  188.6950  177.8600  139.7890 C   0  0  2  0  0  3  0  0  0  0  0  0
  189.9230  177.1590  139.4810 N   0  0  0  0  0  0  0  0  0  0  0  0
  187.0690  178.4120  138.1980 C   0  0  0  0  0  1  0  0  0  0  0  0
  190.4230  179.0320  144.2630 C   0  0  0  0  0  2  0  0  0  0  0  0
  191.6080  178.0750  144.1480 C   0  0  2  0  0  3  0  0  0  0  0  0
  189.5130  177.9740  142.1550 C   0  0  0  0  0  0  0  0  0  0  0  0
  191.9630  177.8610  142.6790 C   0  0  0  0  0  2  0  0  0  0  0  0
  190.7680  177.6140  141.7900 C   0  0  0  0  0  0  0  0  0  0  0  0
  190.6910  176.6850  137.2280 C   0  0  0  0  0  2  0  0  0  0  0  0
  193.5120  177.0830  137.2760 F   0  0  0  0  0  0  0  0  0  0  0  0
  192.0940  173.3150  136.2210 C   0  0  0  0  0  3  0  0  0  0  0  0
  196.2100  173.8690  136.7580 N   0  0  0  0  0  0  0  0  0  0  0  0
  195.4320  175.1040  136.5950 C   0  0  0  0  0  2  0  0  0  0  0  0
  193.9540  174.8240  136.6260 C   0  0  0  0  0  0  0  0  0  0  0  0
  191.6690  175.6020  136.9060 C   0  0  0  0  0  0  0  0  0  0  0  0
  194.4130  172.4260  135.9440 C   0  0  0  0  0  2  0  0  0  0  0  0
  193.4700  173.5560  136.2440 C   0  0  0  0  0  0  0  0  0  0  0  0
  195.8310  172.9360  135.6970 C   0  0  0  0  0  2  0  0  0  0  0  0
  191.1970  174.3350  136.5460 C   0  0  0  0  0  3  0  0  0  0  0  0
  193.0500  175.8510  136.9400 C   0  0  0  0  0  0  0  0  0  0  0  0
  198.4630  173.0800  137.3420 C   0  0  0  0  0  1  0  0  0  0  0  0
  197.6460  174.1420  136.6270 C   0  0  2  0  0  3  0  0  0  0  0  0
  197.9810  175.4130  137.1070 O   0  0  0  0  0  1  0  0  0  0  0  0
  191.3430  176.7430  144.8390 C   0  0  0  0  0  2  0  0  0  0  0  0
  191.9780  176.7260  146.1480 N   0  0  0  0  0  2  0  0  0  0  0  0
  191.0370  176.1130  147.0700 C   0  0  0  0  0  2  0  0  0  0  0  0
  189.7510  176.9160  147.1030 C   0  0  0  0  0  1  0  0  0  0  0  0
  1  4  2  0  0  0  0
  2 11  1  0  0  0  0
  3 13  1  0  0  0  0
  4 15  1  0  0  0  0
  5  7  1  0  0  0  0
  5  6  1  0  0  0  0
  6  8  1  0  0  0  0
  7 16  1  6  0  0  0
  7  9  1  0  0  0  0
  8  3  1  1  0  0  0
  9  8  1  0  0  0  0
  9  4  1  0  0  0  0
 10  6  1  0  0  0  0
 12 11  1  0  0  0  0
 12 31  1  6  0  0  0
 13  2  1  0  0  0  0
 14 12  1  0  0  0  0
 15 13  2  0  0  0  0
 15 14  1  0  0  0  0
 18 24  2  0  0  0  0
 18 26  1  0  0  0  0
 20 21  1  0  0  0  0
 20 19  1  0  0  0  0
 21 27  2  0  0  0  0
 22 27  1  0  0  0  0
 22 16  1  0  0  0  0
 23 24  1  0  0  0  0
 24 21  1  0  0  0  0
 25 23  1  0  0  0  0
 25 19  1  0  0  0  0
 26 22  2  0  0  0  0
 27 17  1  0  0  0  0
 29 19  1  0  0  0  0
 29 30  1  0  0  0  0
 29 28  1  1  0  0  0
 31 32  1  0  0  0  0
 32 33  1  0  0  0  0
 33 34  1  0  0  0  0
M  END
>  <MODEL>
8

>  <REMARK>
 VINA RESULT:      -7.2      3.849      6.179
  Name = 
  6 active torsions:
  status: ('A' for Active; 'I' for Inactive)
    1  A    between atoms: C_3  and  N_24
    2  A    between atoms: N_7  and  C_15
    3  A    between atoms: C_8  and  C_17
    4  A    between atoms: C_8  and  C_18
    5  A    between atoms: N_24  and  C_25
    6  A    between atoms: C_25  and  C_27
                            x       y       z     vdW  Elec       q    Type
                         _______ _______ _______ _____ _____    ______ ____

>  <TORSDO>
F 6

$$$$
=
 OpenBabel10272415133D

 34 38  0  0  1  0  0  0  0  0999 V2000
  182.4510  175.8260  140.0990 O   0  0  0  0  0  0  0  0  0  0  0  0
  181.7220  175.7910  135.2780 C   0  0  0  0  0  2  0  0  0  0  0  0
  182.2120  177.9280  136.6110 C   0  0  0  0  0  2  0  0  0  0  0  0
  182.1870  176.4560  139.0400 C   0  0  0  0  0  0  0  0  0  0  0  0
  182.7600  180.1060  139.3310 C   0  0  0  0  0  2  0  0  0  0  0  0
  182.2210  179.9660  137.9750 N   0  0  0  0  0  0  0  0  0  0  0  0
  182.7780  178.7360  139.9900 C   0  0  2  0  0  3  0  0  0  0  0  0
  181.6790  178.6160  137.8680 C   0  0  2  0  0  3  0  0  0  0  0  0
  182.1030  177.8860  139.0440 N   0  0  0  0  0  0  0  0  0  0  0  0
  181.1000  180.8840  137.8730 C   0  0  0  0  0  1  0  0  0  0  0  0
  181.1270  174.3880  135.3790 C   0  0  0  0  0  2  0  0  0  0  0  0
  181.8410  173.5670  136.4510 C   0  0  2  0  0  3  0  0  0  0  0  0
  181.8930  176.4540  136.6180 C   0  0  0  0  0  0  0  0  0  0  0  0
  181.7100  174.2540  137.8070 C   0  0  0  0  0  2  0  0  0  0  0  0
  181.9700  175.7400  137.7670 C   0  0  0  0  0  0  0  0  0  0  0  0
  182.0060  178.7710  141.3020 C   0  0  0  0  0  2  0  0  0  0  0  0
  184.6650  177.7660  141.1210 F   0  0  0  0  0  0  0  0  0  0  0  0
  183.3370  179.1050  144.8310 C   0  0  0  0  0  3  0  0  0  0  0  0
  187.3600  178.0360  144.3680 N   0  0  0  0  0  0  0  0  0  0  0  0
  186.4620  177.5540  143.3110 C   0  0  0  0  0  2  0  0  0  0  0  0
  185.0910  178.1610  143.4410 C   0  0  0  0  0  0  0  0  0  0  0  0
  182.9340  178.7200  142.4710 C   0  0  0  0  0  0  0  0  0  0  0  0
  185.5370  178.5920  145.8990 C   0  0  0  0  0  2  0  0  0  0  0  0
  184.6300  178.5920  144.7020 C   0  0  0  0  0  0  0  0  0  0  0  0
  186.7660  177.7150  145.6660 C   0  0  0  0  0  2  0  0  0  0  0  0
  182.4910  179.1650  143.7210 C   0  0  0  0  0  3  0  0  0  0  0  0
  184.2350  178.2110  142.3300 C   0  0  0  0  0  0  0  0  0  0  0  0
  188.5930  176.1740  143.3460 C   0  0  0  0  0  1  0  0  0  0  0  0
  188.6600  177.3620  144.2890 C   0  0  2  0  0  3  0  0  0  0  0  0
  189.1140  176.9540  145.5480 O   0  0  0  0  0  1  0  0  0  0  0  0
  183.3060  173.3220  136.1090 C   0  0  0  0  0  2  0  0  0  0  0  0
  183.8550  172.2890  136.9740 N   0  0  0  0  0  2  0  0  0  0  0  0
  185.0390  172.8470  137.6060 C   0  0  0  0  0  2  0  0  0  0  0  0
  185.3770  174.1840  136.9760 C   0  0  0  0  0  1  0  0  0  0  0  0
  2 11  1  0  0  0  0
  2 13  1  0  0  0  0
  3 13  1  0  0  0  0
  4  9  1  0  0  0  0
  4  1  2  0  0  0  0
  5  7  1  0  0  0  0
  6  5  1  0  0  0  0
  7 16  1  1  0  0  0
  8  3  1  6  0  0  0
  8  6  1  0  0  0  0
  8  9  1  0  0  0  0
  9  7  1  0  0  0  0
 10  6  1  0  0  0  0
 11 12  1  0  0  0  0
 12 31  1  6  0  0  0
 12 14  1  0  0  0  0
 13 15  2  0  0  0  0
 15 14  1  0  0  0  0
 15  4  1  0  0  0  0
 16 22  1  0  0  0  0
 17 27  1  0  0  0  0
 19 25  1  0  0  0  0
 20 21  1  0  0  0  0
 20 19  1  0  0  0  0
 21 24  2  0  0  0  0
 22 26  1  0  0  0  0
 24 18  1  0  0  0  0
 24 23  1  0  0  0  0
 25 23  1  0  0  0  0
 26 18  2  0  0  0  0
 27 22  2  0  0  0  0
 27 21  1  0  0  0  0
 29 28  1  6  0  0  0
 29 19  1  0  0  0  0
 29 30  1  0  0  0  0
 31 32  1  0  0  0  0
 32 33  1  0  0  0  0
 34 33  1  0  0  0  0
M  END
>  <MODEL>
9

>  <REMARK>
 VINA RESULT:      -7.1      3.863      9.247
  Name = 
  6 active torsions:
  status: ('A' for Active; 'I' for Inactive)
    1  A    between atoms: C_3  and  N_24
    2  A    between atoms: N_7  and  C_15
    3  A    between atoms: C_8  and  C_17
    4  A    between atoms: C_8  and  C_18
    5  A    between atoms: N_24  and  C_25
    6  A    between atoms: C_25  and  C_27
                            x       y       z     vdW  Elec       q    Type
                         _______ _______ _______ _____ _____    ______ ____

>  <TORSDO>
F 6

$$$$
