=
 OpenBabel10272413523D

 30 33  0  0  1  0  0  0  0  0999 V2000
  187.5430  177.1310  144.7800 N   0  0  0  0  0  0  0  0  0  0  0  0
  187.1020  178.0590  146.8840 C   0  0  0  0  0  0  0  0  0  0  0  0
  188.3790  176.6130  143.6960 C   0  0  2  0  0  3  0  0  0  0  0  0
  187.5710  178.4840  148.1290 C   0  0  0  0  0  3  0  0  0  0  0  0
  185.6560  178.2510  146.5680 C   0  0  0  0  0  1  0  0  0  0  0  0
  190.2020  176.7140  145.4380 C   0  0  0  0  0  0  0  0  0  0  0  0
  188.9160  178.3400  148.4620 C   0  0  0  0  0  3  0  0  0  0  0  0
  187.9900  177.4870  145.9510 C   0  0  0  0  0  0  0  0  0  0  0  0
  189.7050  176.2260  144.1790 N   0  0  0  0  0  0  0  0  0  0  0  0
  190.5060  175.3260  143.3610 C   0  0  0  0  0  1  0  0  0  0  0  0
  189.8000  177.7580  147.5540 C   0  0  0  0  0  3  0  0  0  0  0  0
  189.3550  177.3180  146.2950 C   0  0  0  0  0  0  0  0  0  0  0  0
  188.4580  177.6360  142.5420 C   0  0  1  0  0  0  0  0  0  0  0  0
  187.5540  177.3520  141.3600 C   0  0  0  0  0  2  0  0  0  0  0  0
  187.2290  178.5110  142.2920 C   0  0  1  0  0  3  0  0  0  0  0  0
  190.3360  178.9020  143.3420 O   0  0  0  0  0  1  0  0  0  0  0  0
  189.7690  178.3540  142.1890 C   0  0  1  0  0  3  0  0  0  0  0  0
  190.4450  177.2900  140.0170 C   0  0  0  0  0  2  0  0  0  0  0  0
  192.0720  177.9760  141.5810 O   0  0  0  0  0  0  0  0  0  0  0  0
  190.7770  177.4450  141.4860 C   0  0  1  0  0  3  0  0  0  0  0  0
  191.7880  177.2450  139.3530 C   0  0  0  0  0  2  0  0  0  0  0  0
  192.7640  177.4290  140.4910 C   0  0  0  0  0  2  0  0  0  0  0  0
  186.0230  178.1450  143.1450 C   0  0  0  0  0  2  0  0  0  0  0  0
  184.8270  178.1450  142.3200 N   0  0  0  0  0  2  0  0  0  0  0  0
  183.5570  179.3700  143.8500 O   0  0  0  0  0  0  0  0  0  0  0  0
  183.6130  178.7630  142.7490 C   0  0  0  0  0  0  0  0  0  0  0  0
  182.4070  178.6920  141.8830 C   0  0  0  0  0  1  0  0  0  0  0  0
  191.6450  176.4930  145.7990 C   0  0  0  0  0  2  0  0  0  0  0  0
  191.7750  175.3070  146.5210 O   0  0  0  0  0  0  0  0  0  0  0  0
  192.5590  175.6540  147.6210 C   0  0  0  0  0  1  0  0  0  0  0  0
  1  8  2  0  0  0  0
  2  4  2  0  0  0  0
  3  9  1  0  0  0  0
  3  1  1  1  0  0  0
  4  7  1  0  0  0  0
  5  2  1  0  0  0  0
  6 28  1  0  0  0  0
  6 12  2  0  0  0  0
  8 12  1  0  0  0  0
  8  2  1  0  0  0  0
  9  6  1  0  0  0  0
 10  9  1  0  0  0  0
 11  7  2  0  0  0  0
 12 11  1  0  0  0  0
 13 17  1  6  0  0  0
 13  3  1  0  0  0  0
 14 15  1  0  0  0  0
 14 13  1  0  0  0  0
 15 13  1  0  0  0  0
 15 23  1  1  0  0  0
 17 16  1  1  0  0  0
 18 20  1  0  0  0  0
 20 19  1  0  0  0  0
 20 17  1  6  0  0  0
 21 18  1  0  0  0  0
 21 22  1  0  0  0  0
 22 19  1  0  0  0  0
 24 26  1  0  0  0  0
 24 23  1  0  0  0  0
 26 25  2  0  0  0  0
 27 26  1  0  0  0  0
 28 29  1  0  0  0  0
 29 30  1  0  0  0  0
M  END
>  <MODEL>
1

>  <REMARK>
 VINA RESULT:      -7.6      0.000      0.000
  Name = 
  7 active torsions:
  status: ('A' for Active; 'I' for Inactive)
    1  A    between atoms: C_3  and  O_11
    2  A    between atoms: C_3  and  C_19
    3  A    between atoms: C_4  and  C_13
    4  A    between atoms: N_7  and  C_16
    5  A    between atoms: C_8  and  C_12
    6  A    between atoms: C_8  and  C_13
    7  A    between atoms: C_16  and  C_30
                            x       y       z     vdW  Elec       q    Type
                         _______ _______ _______ _____ _____    ______ ____

>  <TORSDO>
F 7

$$$$
=
 OpenBabel10272413523D

 30 33  0  0  1  0  0  0  0  0999 V2000
  187.7780  178.5290  140.4030 N   0  0  0  0  0  0  0  0  0  0  0  0
  188.2080  177.3860  138.4050 C   0  0  0  0  0  0  0  0  0  0  0  0
  187.9730  178.8820  141.8100 C   0  0  2  0  0  3  0  0  0  0  0  0
  189.0000  176.4910  137.6830 C   0  0  0  0  0  3  0  0  0  0  0  0
  186.9900  177.9460  137.7480 C   0  0  0  0  0  1  0  0  0  0  0  0
  190.0920  177.5350  141.5570 C   0  0  0  0  0  0  0  0  0  0  0  0
  190.1360  175.9300  138.2610 C   0  0  0  0  0  3  0  0  0  0  0  0
  188.5490  177.7220  139.7300 C   0  0  0  0  0  0  0  0  0  0  0  0
  189.3060  178.4990  142.2800 N   0  0  0  0  0  0  0  0  0  0  0  0
  189.8220  179.1270  143.4880 C   0  0  0  0  0  1  0  0  0  0  0  0
  190.4940  176.2710  139.5650 C   0  0  0  0  0  3  0  0  0  0  0  0
  189.7170  177.1720  140.3140 C   0  0  0  0  0  0  0  0  0  0  0  0
  186.8540  178.2680  142.6780 C   0  0  1  0  0  0  0  0  0  0  0  0
  185.7630  179.2280  143.1040 C   0  0  0  0  0  2  0  0  0  0  0  0
  185.4600  178.1640  142.0600 C   0  0  1  0  0  3  0  0  0  0  0  0
  187.8820  176.1300  143.0550 O   0  0  0  0  0  1  0  0  0  0  0  0
  187.1370  177.1350  143.6770 C   0  0  1  0  0  3  0  0  0  0  0  0
  186.8810  177.7680  146.0930 C   0  0  0  0  0  2  0  0  0  0  0  0
  188.8410  176.7020  145.3270 O   0  0  0  0  0  0  0  0  0  0  0  0
  187.8500  177.6160  144.9400 C   0  0  1  0  0  3  0  0  0  0  0  0
  187.6770  177.3280  147.2850 C   0  0  0  0  0  2  0  0  0  0  0  0
  189.0080  176.9170  146.7020 C   0  0  0  0  0  2  0  0  0  0  0  0
  185.3370  178.8240  140.6930 C   0  0  0  0  0  2  0  0  0  0  0  0
  183.9780  178.6720  140.2020 N   0  0  0  0  0  2  0  0  0  0  0  0
  184.0490  180.6020  138.8890 O   0  0  0  0  0  0  0  0  0  0  0  0
  183.3860  179.6180  139.3120 C   0  0  0  0  0  0  0  0  0  0  0  0
  181.9750  179.4370  138.8790 C   0  0  0  0  0  1  0  0  0  0  0  0
  191.3470  176.9890  142.1800 C   0  0  0  0  0  2  0  0  0  0  0  0
  191.0500  175.8410  142.9140 O   0  0  0  0  0  0  0  0  0  0  0  0
  191.7970  175.9720  144.0830 C   0  0  0  0  0  1  0  0  0  0  0  0
  2  8  1  0  0  0  0
  3  1  1  6  0  0  0
  3  9  1  0  0  0  0
  3 13  1  0  0  0  0
  4  7  1  0  0  0  0
  4  2  2  0  0  0  0
  5  2  1  0  0  0  0
  6 28  1  0  0  0  0
  6  9  1  0  0  0  0
  7 11  2  0  0  0  0
  8 12  1  0  0  0  0
  8  1  2  0  0  0  0
  9 10  1  0  0  0  0
 11 12  1  0  0  0  0
 12  6  2  0  0  0  0
 13 14  1  0  0  0  0
 13 17  1  1  0  0  0
 15 23  1  6  0  0  0
 15 13  1  0  0  0  0
 15 14  1  0  0  0  0
 17 16  1  6  0  0  0
 18 21  1  0  0  0  0
 19 22  1  0  0  0  0
 20 17  1  6  0  0  0
 20 19  1  0  0  0  0
 20 18  1  0  0  0  0
 22 21  1  0  0  0  0
 24 23  1  0  0  0  0
 25 26  2  0  0  0  0
 26 24  1  0  0  0  0
 27 26  1  0  0  0  0
 28 29  1  0  0  0  0
 29 30  1  0  0  0  0
M  END
>  <MODEL>
2

>  <REMARK>
 VINA RESULT:      -7.6      2.350      5.664
  Name = 
  7 active torsions:
  status: ('A' for Active; 'I' for Inactive)
    1  A    between atoms: C_3  and  O_11
    2  A    between atoms: C_3  and  C_19
    3  A    between atoms: C_4  and  C_13
    4  A    between atoms: N_7  and  C_16
    5  A    between atoms: C_8  and  C_12
    6  A    between atoms: C_8  and  C_13
    7  A    between atoms: C_16  and  C_30
                            x       y       z     vdW  Elec       q    Type
                         _______ _______ _______ _____ _____    ______ ____

>  <TORSDO>
F 7

$$$$
=
 OpenBabel10272413523D

 30 33  0  0  1  0  0  0  0  0999 V2000
  185.3170  178.7390  139.9270 N   0  0  0  0  0  0  0  0  0  0  0  0
  186.0880  178.5450  142.1290 C   0  0  0  0  0  0  0  0  0  0  0  0
  184.3140  178.8200  138.8640 C   0  0  2  0  0  3  0  0  0  0  0  0
  185.8090  178.4790  143.4960 C   0  0  0  0  0  3  0  0  0  0  0  0
  187.5070  178.4000  141.6880 C   0  0  0  0  0  1  0  0  0  0  0  0
  182.7080  179.0890  140.7920 C   0  0  0  0  0  0  0  0  0  0  0  0
  184.4970  178.5930  143.9530 C   0  0  0  0  0  3  0  0  0  0  0  0
  185.0430  178.7180  141.2010 C   0  0  0  0  0  0  0  0  0  0  0  0
  183.0050  179.2120  139.3890 N   0  0  0  0  0  0  0  0  0  0  0  0
  182.0150  179.7400  138.4610 C   0  0  0  0  0  1  0  0  0  0  0  0
  183.4570  178.7840  143.0450 C   0  0  0  0  0  3  0  0  0  0  0  0
  183.7100  178.8570  141.6630 C   0  0  0  0  0  0  0  0  0  0  0  0
  184.2510  177.4910  138.0820 C   0  0  1  0  0  0  0  0  0  0  0  0
  184.3310  177.6210  136.5740 C   0  0  0  0  0  2  0  0  0  0  0  0
  185.5140  177.0480  137.3420 C   0  0  1  0  0  3  0  0  0  0  0  0
  183.1230  176.4610  139.9360 O   0  0  0  0  0  1  0  0  0  0  0  0
  183.4170  176.3010  138.5790 C   0  0  1  0  0  3  0  0  0  0  0  0
  182.0520  174.6970  137.2110 C   0  0  0  0  0  2  0  0  0  0  0  0
  181.0050  176.2940  138.5960 O   0  0  0  0  0  0  0  0  0  0  0  0
  182.1300  176.0980  137.7800 C   0  0  1  0  0  3  0  0  0  0  0  0
  180.5970  174.3530  137.3140 C   0  0  0  0  0  2  0  0  0  0  0  0
  179.9820  175.5630  137.9760 C   0  0  0  0  0  2  0  0  0  0  0  0
  186.6390  178.0730  137.3670 C   0  0  0  0  0  2  0  0  0  0  0  0
  187.8020  177.5010  138.0240 N   0  0  0  0  0  2  0  0  0  0  0  0
  188.9850  179.5140  138.0740 O   0  0  0  0  0  0  0  0  0  0  0  0
  188.9570  178.2810  138.3300 C   0  0  0  0  0  0  0  0  0  0  0  0
  190.1370  177.6320  138.9610 C   0  0  0  0  0  1  0  0  0  0  0  0
  181.2940  179.2750  141.2670 C   0  0  0  0  0  2  0  0  0  0  0  0
  180.6710  178.0330  141.3940 O   0  0  0  0  0  0  0  0  0  0  0  0
  179.9820  178.1120  142.6030 C   0  0  0  0  0  1  0  0  0  0  0  0
  1  8  2  0  0  0  0
  2  4  2  0  0  0  0
  3  9  1  0  0  0  0
  3  1  1  1  0  0  0
  4  7  1  0  0  0  0
  5  2  1  0  0  0  0
  6 28  1  0  0  0  0
  6 12  2  0  0  0  0
  8 12  1  0  0  0  0
  8  2  1  0  0  0  0
  9  6  1  0  0  0  0
 10  9  1  0  0  0  0
 11  7  2  0  0  0  0
 12 11  1  0  0  0  0
 13 17  1  1  0  0  0
 13  3  1  0  0  0  0
 14 15  1  0  0  0  0
 14 13  1  0  0  0  0
 15 23  1  1  0  0  0
 15 13  1  0  0  0  0
 17 16  1  1  0  0  0
 18 21  1  0  0  0  0
 18 20  1  0  0  0  0
 20 17  1  1  0  0  0
 20 19  1  0  0  0  0
 21 22  1  0  0  0  0
 22 19  1  0  0  0  0
 23 24  1  0  0  0  0
 24 26  1  0  0  0  0
 25 26  2  0  0  0  0
 26 27  1  0  0  0  0
 28 29  1  0  0  0  0
 29 30  1  0  0  0  0
M  END
>  <MODEL>
3

>  <REMARK>
 VINA RESULT:      -7.5      4.418      8.543
  Name = 
  7 active torsions:
  status: ('A' for Active; 'I' for Inactive)
    1  A    between atoms: C_3  and  O_11
    2  A    between atoms: C_3  and  C_19
    3  A    between atoms: C_4  and  C_13
    4  A    between atoms: N_7  and  C_16
    5  A    between atoms: C_8  and  C_12
    6  A    between atoms: C_8  and  C_13
    7  A    between atoms: C_16  and  C_30
                            x       y       z     vdW  Elec       q    Type
                         _______ _______ _______ _____ _____    ______ ____

>  <TORSDO>
F 7

$$$$
=
 OpenBabel10272413523D

 30 33  0  0  1  0  0  0  0  0999 V2000
  187.5550  177.0660  144.3110 N   0  0  0  0  0  0  0  0  0  0  0  0
  186.7450  177.7050  146.4130 C   0  0  0  0  0  0  0  0  0  0  0  0
  188.5760  176.8040  143.2940 C   0  0  2  0  0  3  0  0  0  0  0  0
  187.0020  178.0900  147.7300 C   0  0  0  0  0  3  0  0  0  0  0  0
  185.3270  177.6690  145.9480 C   0  0  0  0  0  1  0  0  0  0  0  0
  190.1670  177.0620  145.2360 C   0  0  0  0  0  0  0  0  0  0  0  0
  188.3110  178.1530  148.2030 C   0  0  0  0  0  3  0  0  0  0  0  0
  187.8110  177.3860  145.5480 C   0  0  0  0  0  0  0  0  0  0  0  0
  189.8960  176.6130  143.8960 N   0  0  0  0  0  0  0  0  0  0  0  0
  190.9260  175.9460  143.1120 C   0  0  0  0  0  1  0  0  0  0  0  0
  189.3720  177.8220  147.3630 C   0  0  0  0  0  3  0  0  0  0  0  0
  189.1420  177.4280  146.0320 C   0  0  0  0  0  0  0  0  0  0  0  0
  188.5790  177.9270  142.2340 C   0  0  1  0  0  0  0  0  0  0  0  0
  189.9400  178.5100  141.9120 C   0  0  0  0  0  2  0  0  0  0  0  0
  189.2430  177.6230  140.8910 C   0  0  1  0  0  3  0  0  0  0  0  0
  187.8250  180.0460  141.3930 O   0  0  0  0  0  1  0  0  0  0  0  0
  187.4110  178.9140  142.1000 C   0  0  1  0  0  3  0  0  0  0  0  0
  184.9850  178.3220  142.3630 C   0  0  0  0  0  2  0  0  0  0  0  0
  185.8390  179.0050  140.2730 O   0  0  0  0  0  0  0  0  0  0  0  0
  186.1810  178.2970  141.4350 C   0  0  1  0  0  3  0  0  0  0  0  0
  183.8310  178.5940  141.4470 C   0  0  0  0  0  2  0  0  0  0  0  0
  184.4720  178.7510  140.0890 C   0  0  0  0  0  2  0  0  0  0  0  0
  189.9440  176.2730  140.8360 C   0  0  0  0  0  2  0  0  0  0  0  0
  190.4940  176.0660  139.5070 N   0  0  0  0  0  2  0  0  0  0  0  0
  192.4460  177.2760  139.9330 O   0  0  0  0  0  0  0  0  0  0  0  0
  191.7500  176.6190  139.1140 C   0  0  0  0  0  0  0  0  0  0  0  0
  192.2420  176.4140  137.7260 C   0  0  0  0  0  1  0  0  0  0  0  0
  191.5830  177.0650  145.7430 C   0  0  0  0  0  2  0  0  0  0  0  0
  191.9720  175.7660  146.0670 O   0  0  0  0  0  0  0  0  0  0  0  0
  192.3080  175.8310  147.4180 C   0  0  0  0  0  1  0  0  0  0  0  0
  1  8  2  0  0  0  0
  2  4  2  0  0  0  0
  3  9  1  0  0  0  0
  3  1  1  1  0  0  0
  4  7  1  0  0  0  0
  5  2  1  0  0  0  0
  6 28  1  0  0  0  0
  6 12  2  0  0  0  0
  8 12  1  0  0  0  0
  8  2  1  0  0  0  0
  9  6  1  0  0  0  0
 10  9  1  0  0  0  0
 11  7  2  0  0  0  0
 12 11  1  0  0  0  0
 13 17  1  6  0  0  0
 13  3  1  0  0  0  0
 14 13  1  0  0  0  0
 15 23  1  1  0  0  0
 15 14  1  0  0  0  0
 15 13  1  0  0  0  0
 17 16  1  6  0  0  0
 19 20  1  0  0  0  0
 20 17  1  1  0  0  0
 20 18  1  0  0  0  0
 21 18  1  0  0  0  0
 22 19  1  0  0  0  0
 22 21  1  0  0  0  0
 24 23  1  0  0  0  0
 26 24  1  0  0  0  0
 26 25  2  0  0  0  0
 27 26  1  0  0  0  0
 28 29  1  0  0  0  0
 29 30  1  0  0  0  0
M  END
>  <MODEL>
4

>  <REMARK>
 VINA RESULT:      -7.4      1.658      4.646
  Name = 
  7 active torsions:
  status: ('A' for Active; 'I' for Inactive)
    1  A    between atoms: C_3  and  O_11
    2  A    between atoms: C_3  and  C_19
    3  A    between atoms: C_4  and  C_13
    4  A    between atoms: N_7  and  C_16
    5  A    between atoms: C_8  and  C_12
    6  A    between atoms: C_8  and  C_13
    7  A    between atoms: C_16  and  C_30
                            x       y       z     vdW  Elec       q    Type
                         _______ _______ _______ _____ _____    ______ ____

>  <TORSDO>
F 7

$$$$
=
 OpenBabel10272413523D

 30 33  0  0  1  0  0  0  0  0999 V2000
  187.1440  175.3400  136.7870 N   0  0  0  0  0  0  0  0  0  0  0  0
  186.8570  173.0180  136.8790 C   0  0  0  0  0  0  0  0  0  0  0  0
  187.8440  176.5900  136.4860 C   0  0  2  0  0  3  0  0  0  0  0  0
  187.3220  171.7390  136.5650 C   0  0  0  0  0  3  0  0  0  0  0  0
  185.6120  173.1400  137.6930 C   0  0  0  0  0  1  0  0  0  0  0  0
  189.4040  175.0730  135.2070 C   0  0  0  0  0  0  0  0  0  0  0  0
  188.4890  171.5770  135.8220 C   0  0  0  0  0  3  0  0  0  0  0  0
  187.5710  174.1550  136.4530 C   0  0  0  0  0  0  0  0  0  0  0  0
  188.8930  176.3890  135.4850 N   0  0  0  0  0  0  0  0  0  0  0  0
  189.3980  177.5520  134.7680 C   0  0  0  0  0  1  0  0  0  0  0  0
  189.1940  172.6950  135.3790 C   0  0  0  0  0  3  0  0  0  0  0  0
  188.7470  173.9950  135.6780 C   0  0  0  0  0  0  0  0  0  0  0  0
  188.3930  177.2250  137.7810 C   0  0  1  0  0  0  0  0  0  0  0  0
  188.6130  178.7230  137.7260 C   0  0  0  0  0  2  0  0  0  0  0  0
  187.4650  178.1640  138.5530 C   0  0  1  0  0  3  0  0  0  0  0  0
  190.3870  175.8970  137.9510 O   0  0  0  0  0  1  0  0  0  0  0  0
  189.3590  176.4680  138.7050 C   0  0  1  0  0  3  0  0  0  0  0  0
  189.4460  176.9150  141.1750 C   0  0  0  0  0  2  0  0  0  0  0  0
  191.3420  177.2730  139.8170 O   0  0  0  0  0  0  0  0  0  0  0  0
  189.9410  177.3480  139.8110 C   0  0  1  0  0  3  0  0  0  0  0  0
  190.6330  177.1260  142.0650 C   0  0  0  0  0  2  0  0  0  0  0  0
  191.7120  177.6110  141.1270 C   0  0  0  0  0  2  0  0  0  0  0  0
  186.1490  178.4550  137.8450 C   0  0  0  0  0  2  0  0  0  0  0  0
  185.0410  178.0800  138.7060 N   0  0  0  0  0  2  0  0  0  0  0  0
  184.4610  180.2830  139.2190 O   0  0  0  0  0  0  0  0  0  0  0  0
  184.2470  179.0530  139.3850 C   0  0  0  0  0  0  0  0  0  0  0  0
  183.1550  178.6090  140.2910 C   0  0  0  0  0  1  0  0  0  0  0  0
  190.6330  174.9230  134.3530 C   0  0  0  0  0  2  0  0  0  0  0  0
  191.7710  174.9170  135.1580 O   0  0  0  0  0  0  0  0  0  0  0  0
  192.6580  175.7780  134.5140 C   0  0  0  0  0  1  0  0  0  0  0  0
  2  5  1  0  0  0  0
  3  1  1  1  0  0  0
  3 13  1  0  0  0  0
  4  2  2  0  0  0  0
  6  9  1  0  0  0  0
  6 12  2  0  0  0  0
  7  4  1  0  0  0  0
  8  1  2  0  0  0  0
  8  2  1  0  0  0  0
  9  3  1  0  0  0  0
 10  9  1  0  0  0  0
 11 12  1  0  0  0  0
 11  7  2  0  0  0  0
 12  8  1  0  0  0  0
 13 15  1  0  0  0  0
 13 17  1  1  0  0  0
 14 13  1  0  0  0  0
 14 15  1  0  0  0  0
 15 23  1  6  0  0  0
 17 16  1  6  0  0  0
 18 21  1  0  0  0  0
 19 22  1  0  0  0  0
 20 17  1  6  0  0  0
 20 19  1  0  0  0  0
 20 18  1  0  0  0  0
 22 21  1  0  0  0  0
 23 24  1  0  0  0  0
 24 26  1  0  0  0  0
 25 26  2  0  0  0  0
 26 27  1  0  0  0  0
 28 29  1  0  0  0  0
 28  6  1  0  0  0  0
 30 29  1  0  0  0  0
M  END
>  <MODEL>
5

>  <REMARK>
 VINA RESULT:      -7.1      4.850      8.249
  Name = 
  7 active torsions:
  status: ('A' for Active; 'I' for Inactive)
    1  A    between atoms: C_3  and  O_11
    2  A    between atoms: C_3  and  C_19
    3  A    between atoms: C_4  and  C_13
    4  A    between atoms: N_7  and  C_16
    5  A    between atoms: C_8  and  C_12
    6  A    between atoms: C_8  and  C_13
    7  A    between atoms: C_16  and  C_30
                            x       y       z     vdW  Elec       q    Type
                         _______ _______ _______ _____ _____    ______ ____

>  <TORSDO>
F 7

$$$$
=
 OpenBabel10272413523D

 30 33  0  0  1  0  0  0  0  0999 V2000
  191.4830  176.9240  137.6460 N   0  0  0  0  0  0  0  0  0  0  0  0
  191.5990  177.2410  139.9630 C   0  0  0  0  0  0  0  0  0  0  0  0
  190.8270  176.6740  136.3620 C   0  0  2  0  0  3  0  0  0  0  0  0
  190.9430  177.3900  141.1870 C   0  0  0  0  0  3  0  0  0  0  0  0
  193.0910  177.2090  139.9580 C   0  0  0  0  0  1  0  0  0  0  0  0
  188.7170  177.0730  137.6890 C   0  0  0  0  0  0  0  0  0  0  0  0
  189.5510  177.4080  141.2430 C   0  0  0  0  0  3  0  0  0  0  0  0
  190.8560  177.1000  138.7750 C   0  0  0  0  0  0  0  0  0  0  0  0
  189.3950  176.9760  136.4240 N   0  0  0  0  0  0  0  0  0  0  0  0
  188.6770  177.1880  135.1750 C   0  0  0  0  0  1  0  0  0  0  0  0
  188.8060  177.2890  140.0710 C   0  0  0  0  0  3  0  0  0  0  0  0
  189.4400  177.1410  138.8240 C   0  0  0  0  0  0  0  0  0  0  0  0
  191.0940  175.2270  135.8940 C   0  0  1  0  0  0  0  0  0  0  0  0
  191.2440  175.0480  134.3970 C   0  0  0  0  0  2  0  0  0  0  0  0
  192.4670  174.9250  135.2930 C   0  0  1  0  0  3  0  0  0  0  0  0
  190.5570  174.2240  138.0090 O   0  0  0  0  0  1  0  0  0  0  0  0
  190.4970  174.0180  136.6280 C   0  0  1  0  0  3  0  0  0  0  0  0
  188.9680  172.3540  135.5330 C   0  0  0  0  0  2  0  0  0  0  0  0
  188.2070  173.7000  137.3140 O   0  0  0  0  0  0  0  0  0  0  0  0
  189.0620  173.7080  136.2020 C   0  0  1  0  0  3  0  0  0  0  0  0
  187.6480  171.8190  135.9990 C   0  0  0  0  0  2  0  0  0  0  0  0
  187.1290  172.8890  136.9300 C   0  0  0  0  0  2  0  0  0  0  0  0
  193.3480  176.1520  135.1100 C   0  0  0  0  0  2  0  0  0  0  0  0
  194.7280  175.7350  134.9230 N   0  0  0  0  0  2  0  0  0  0  0  0
  195.6190  177.8240  135.4710 O   0  0  0  0  0  0  0  0  0  0  0  0
  195.8210  176.6370  135.1010 C   0  0  0  0  0  0  0  0  0  0  0  0
  197.2090  176.1670  134.8500 C   0  0  0  0  0  1  0  0  0  0  0  0
  187.2150  177.1510  137.7180 C   0  0  0  0  0  2  0  0  0  0  0  0
  186.8130  178.4820  137.8190 O   0  0  0  0  0  0  0  0  0  0  0  0
  185.4670  178.4130  138.1740 C   0  0  0  0  0  1  0  0  0  0  0  0
  1  8  2  0  0  0  0
  2  4  2  0  0  0  0
  3  9  1  0  0  0  0
  3  1  1  1  0  0  0
  4  7  1  0  0  0  0
  5  2  1  0  0  0  0
  6 28  1  0  0  0  0
  6 12  2  0  0  0  0
  8 12  1  0  0  0  0
  8  2  1  0  0  0  0
  9  6  1  0  0  0  0
 10  9  1  0  0  0  0
 11  7  2  0  0  0  0
 12 11  1  0  0  0  0
 13  3  1  0  0  0  0
 13 17  1  1  0  0  0
 14 15  1  0  0  0  0
 14 13  1  0  0  0  0
 15 23  1  6  0  0  0
 15 13  1  0  0  0  0
 17 16  1  1  0  0  0
 18 21  1  0  0  0  0
 18 20  1  0  0  0  0
 20 17  1  1  0  0  0
 20 19  1  0  0  0  0
 21 22  1  0  0  0  0
 22 19  1  0  0  0  0
 24 26  1  0  0  0  0
 24 23  1  0  0  0  0
 26 25  2  0  0  0  0
 27 26  1  0  0  0  0
 28 29  1  0  0  0  0
 29 30  1  0  0  0  0
M  END
>  <MODEL>
6

>  <REMARK>
 VINA RESULT:      -7.0      5.275      9.466
  Name = 
  7 active torsions:
  status: ('A' for Active; 'I' for Inactive)
    1  A    between atoms: C_3  and  O_11
    2  A    between atoms: C_3  and  C_19
    3  A    between atoms: C_4  and  C_13
    4  A    between atoms: N_7  and  C_16
    5  A    between atoms: C_8  and  C_12
    6  A    between atoms: C_8  and  C_13
    7  A    between atoms: C_16  and  C_30
                            x       y       z     vdW  Elec       q    Type
                         _______ _______ _______ _____ _____    ______ ____

>  <TORSDO>
F 7

$$$$
=
 OpenBabel10272413523D

 30 33  0  0  1  0  0  0  0  0999 V2000
  183.6970  175.5350  138.1570 N   0  0  0  0  0  0  0  0  0  0  0  0
  183.7940  173.6610  136.7560 C   0  0  0  0  0  0  0  0  0  0  0  0
  183.3730  176.9140  138.5250 C   0  0  2  0  0  3  0  0  0  0  0  0
  183.4590  173.0500  135.5460 C   0  0  0  0  0  3  0  0  0  0  0  0
  184.6550  172.9080  137.7160 C   0  0  0  0  0  1  0  0  0  0  0  0
  182.0310  176.8650  136.3870 C   0  0  0  0  0  0  0  0  0  0  0  0
  182.6710  173.7220  134.6130 C   0  0  0  0  0  3  0  0  0  0  0  0
  183.3430  174.9660  137.0390 C   0  0  0  0  0  0  0  0  0  0  0  0
  182.3320  177.4700  137.6580 N   0  0  0  0  0  0  0  0  0  0  0  0
  181.5990  178.6410  138.1180 C   0  0  0  0  0  1  0  0  0  0  0  0
  182.2040  175.0050  134.8900 C   0  0  0  0  0  3  0  0  0  0  0  0
  182.5230  175.6430  136.1020 C   0  0  0  0  0  0  0  0  0  0  0  0
  184.6480  177.7840  138.5290 C   0  0  1  0  0  0  0  0  0  0  0  0
  184.4180  179.2710  138.7020 C   0  0  0  0  0  2  0  0  0  0  0  0
  185.0280  178.4690  139.8420 C   0  0  1  0  0  3  0  0  0  0  0  0
  185.6130  177.6650  136.3330 O   0  0  0  0  0  1  0  0  0  0  0  0
  185.8770  177.4200  137.6820 C   0  0  1  0  0  3  0  0  0  0  0  0
  188.2570  177.1920  138.4500 C   0  0  0  0  0  2  0  0  0  0  0  0
  187.5970  179.0040  137.0920 O   0  0  0  0  0  0  0  0  0  0  0  0
  187.1420  178.1600  138.1160 C   0  0  1  0  0  3  0  0  0  0  0  0
  189.4890  177.8880  137.9580 C   0  0  0  0  0  2  0  0  0  0  0  0
  188.9670  179.1640  137.3430 C   0  0  0  0  0  2  0  0  0  0  0  0
  183.9950  178.3050  140.9490 C   0  0  0  0  0  2  0  0  0  0  0  0
  184.6550  178.3740  142.2410 N   0  0  0  0  0  2  0  0  0  0  0  0
  182.7350  179.0530  143.3830 O   0  0  0  0  0  0  0  0  0  0  0  0
  183.9630  178.7810  143.4220 C   0  0  0  0  0  0  0  0  0  0  0  0
  184.7010  178.8780  144.7100 C   0  0  0  0  0  1  0  0  0  0  0  0
  181.1300  177.5840  135.4220 C   0  0  0  0  0  2  0  0  0  0  0  0
  181.8840  178.4370  134.6170 O   0  0  0  0  0  0  0  0  0  0  0  0
  181.0670  179.5490  134.4250 C   0  0  0  0  0  1  0  0  0  0  0  0
  2  8  1  0  0  0  0
  2  5  1  0  0  0  0
  3  1  1  6  0  0  0
  3 13  1  0  0  0  0
  4  2  2  0  0  0  0
  6  9  1  0  0  0  0
  7 11  2  0  0  0  0
  7  4  1  0  0  0  0
  8  1  2  0  0  0  0
  9 10  1  0  0  0  0
  9  3  1  0  0  0  0
 11 12  1  0  0  0  0
 12  6  2  0  0  0  0
 12  8  1  0  0  0  0
 13 17  1  6  0  0  0
 13 14  1  0  0  0  0
 13 15  1  0  0  0  0
 14 15  1  0  0  0  0
 15 23  1  1  0  0  0
 17 16  1  6  0  0  0
 19 22  1  0  0  0  0
 19 20  1  0  0  0  0
 20 17  1  6  0  0  0
 20 18  1  0  0  0  0
 21 18  1  0  0  0  0
 22 21  1  0  0  0  0
 23 24  1  0  0  0  0
 24 26  1  0  0  0  0
 25 26  2  0  0  0  0
 26 27  1  0  0  0  0
 28  6  1  0  0  0  0
 29 28  1  0  0  0  0
 30 29  1  0  0  0  0
M  END
>  <MODEL>
7

>  <REMARK>
 VINA RESULT:      -6.9      5.475      9.585
  Name = 
  7 active torsions:
  status: ('A' for Active; 'I' for Inactive)
    1  A    between atoms: C_3  and  O_11
    2  A    between atoms: C_3  and  C_19
    3  A    between atoms: C_4  and  C_13
    4  A    between atoms: N_7  and  C_16
    5  A    between atoms: C_8  and  C_12
    6  A    between atoms: C_8  and  C_13
    7  A    between atoms: C_16  and  C_30
                            x       y       z     vdW  Elec       q    Type
                         _______ _______ _______ _____ _____    ______ ____

>  <TORSDO>
F 7

$$$$
=
 OpenBabel10272413523D

 30 33  0  0  1  0  0  0  0  0999 V2000
  188.0490  178.4100  141.3560 N   0  0  0  0  0  0  0  0  0  0  0  0
  187.7400  177.6160  139.1750 C   0  0  0  0  0  0  0  0  0  0  0  0
  188.7640  178.6110  142.6170 C   0  0  2  0  0  3  0  0  0  0  0  0
  188.2550  176.9660  138.0520 C   0  0  0  0  0  3  0  0  0  0  0  0
  186.3090  178.0400  139.1550 C   0  0  0  0  0  1  0  0  0  0  0  0
  190.7220  177.6840  141.3220 C   0  0  0  0  0  0  0  0  0  0  0  0
  189.5810  176.5380  138.0320 C   0  0  0  0  0  3  0  0  0  0  0  0
  188.5560  177.8360  140.3020 C   0  0  0  0  0  0  0  0  0  0  0  0
  190.2050  178.4030  142.4560 N   0  0  0  0  0  0  0  0  0  0  0  0
  191.1020  178.9520  143.4630 C   0  0  0  0  0  1  0  0  0  0  0  0
  190.4030  176.7670  139.1340 C   0  0  0  0  0  3  0  0  0  0  0  0
  189.9120  177.4220  140.2770 C   0  0  0  0  0  0  0  0  0  0  0  0
  188.1700  177.7120  143.7230 C   0  0  1  0  0  0  0  0  0  0  0  0
  187.2710  178.4160  144.7180 C   0  0  0  0  0  2  0  0  0  0  0  0
  186.6610  177.4680  143.6950 C   0  0  1  0  0  3  0  0  0  0  0  0
  189.3950  175.7000  143.2520 O   0  0  0  0  0  1  0  0  0  0  0  0
  188.9450  176.5150  144.2940 C   0  0  1  0  0  3  0  0  0  0  0  0
  189.7300  176.9140  146.6460 C   0  0  0  0  0  2  0  0  0  0  0  0
  191.2020  176.0590  145.0130 O   0  0  0  0  0  0  0  0  0  0  0  0
  190.1170  176.9320  145.1820 C   0  0  1  0  0  3  0  0  0  0  0  0
  190.9700  176.4270  147.3340 C   0  0  0  0  0  2  0  0  0  0  0  0
  191.9350  176.1640  146.2030 C   0  0  0  0  0  2  0  0  0  0  0  0
  185.9210  178.2780  142.6400 C   0  0  0  0  0  2  0  0  0  0  0  0
  184.4880  178.1170  142.8220 N   0  0  0  0  0  2  0  0  0  0  0  0
  184.2600  180.0370  144.1310 O   0  0  0  0  0  0  0  0  0  0  0  0
  183.7180  179.0290  143.6050 C   0  0  0  0  0  0  0  0  0  0  0  0
  182.2640  178.7890  143.7950 C   0  0  0  0  0  1  0  0  0  0  0  0
  192.1720  177.2850  141.2990 C   0  0  0  0  0  2  0  0  0  0  0  0
  192.8550  178.0380  140.3450 O   0  0  0  0  0  0  0  0  0  0  0  0
  193.8610  177.1890  139.8870 C   0  0  0  0  0  1  0  0  0  0  0  0
  2  8  1  0  0  0  0
  3  1  1  6  0  0  0
  3 13  1  0  0  0  0
  4  2  2  0  0  0  0
  5  2  1  0  0  0  0
  6  9  1  0  0  0  0
  7  4  1  0  0  0  0
  7 11  2  0  0  0  0
  8  1  2  0  0  0  0
  9  3  1  0  0  0  0
  9 10  1  0  0  0  0
 11 12  1  0  0  0  0
 12  8  1  0  0  0  0
 12  6  2  0  0  0  0
 13 17  1  1  0  0  0
 13 14  1  0  0  0  0
 15 23  1  6  0  0  0
 15 13  1  0  0  0  0
 15 14  1  0  0  0  0
 17 16  1  6  0  0  0
 18 21  1  0  0  0  0
 19 20  1  0  0  0  0
 19 22  1  0  0  0  0
 20 17  1  6  0  0  0
 20 18  1  0  0  0  0
 22 21  1  0  0  0  0
 23 24  1  0  0  0  0
 24 26  1  0  0  0  0
 26 27  1  0  0  0  0
 26 25  2  0  0  0  0
 28  6  1  0  0  0  0
 29 28  1  0  0  0  0
 30 29  1  0  0  0  0
M  END
>  <MODEL>
8

>  <REMARK>
 VINA RESULT:      -6.7      1.771      5.422
  Name = 
  7 active torsions:
  status: ('A' for Active; 'I' for Inactive)
    1  A    between atoms: C_3  and  O_11
    2  A    between atoms: C_3  and  C_19
    3  A    between atoms: C_4  and  C_13
    4  A    between atoms: N_7  and  C_16
    5  A    between atoms: C_8  and  C_12
    6  A    between atoms: C_8  and  C_13
    7  A    between atoms: C_16  and  C_30
                            x       y       z     vdW  Elec       q    Type
                         _______ _______ _______ _____ _____    ______ ____

>  <TORSDO>
F 7

$$$$
=
 OpenBabel10272413523D

 30 33  0  0  1  0  0  0  0  0999 V2000
  187.4780  175.0070  137.4040 N   0  0  0  0  0  0  0  0  0  0  0  0
  186.8240  173.0630  136.2760 C   0  0  0  0  0  0  0  0  0  0  0  0
  187.4920  176.4410  137.7000 C   0  0  2  0  0  3  0  0  0  0  0  0
  186.0070  172.4450  135.3260 C   0  0  0  0  0  3  0  0  0  0  0  0
  187.8560  172.2360  136.9680 C   0  0  0  0  0  1  0  0  0  0  0  0
  185.4930  176.4870  136.1600 C   0  0  0  0  0  0  0  0  0  0  0  0
  185.0400  173.1800  134.6440 C   0  0  0  0  0  3  0  0  0  0  0  0
  186.6820  174.4390  136.5430 C   0  0  0  0  0  0  0  0  0  0  0  0
  186.2980  177.1080  137.1780 N   0  0  0  0  0  0  0  0  0  0  0  0
  185.9380  178.4100  137.7210 C   0  0  0  0  0  1  0  0  0  0  0  0
  184.8770  174.5380  134.9140 C   0  0  0  0  0  3  0  0  0  0  0  0
  185.6840  175.1850  135.8670 C   0  0  0  0  0  0  0  0  0  0  0  0
  188.7930  177.0860  137.1760 C   0  0  1  0  0  0  0  0  0  0  0  0
  188.8110  178.6010  137.1760 C   0  0  0  0  0  2  0  0  0  0  0  0
  189.6610  177.8390  138.1840 C   0  0  1  0  0  3  0  0  0  0  0  0
  189.7330  177.3110  134.9770 O   0  0  0  0  0  1  0  0  0  0  0  0
  189.6240  176.4350  136.0600 C   0  0  1  0  0  3  0  0  0  0  0  0
  190.9880  174.5840  137.0700 C   0  0  0  0  0  2  0  0  0  0  0  0
  191.9260  176.0350  135.4640 O   0  0  0  0  0  0  0  0  0  0  0  0
  191.0120  175.9970  136.5270 C   0  0  1  0  0  3  0  0  0  0  0  0
  192.2990  174.0110  136.6230 C   0  0  0  0  0  2  0  0  0  0  0  0
  192.9310  175.1250  135.8240 C   0  0  0  0  0  2  0  0  0  0  0  0
  189.0350  177.9690  139.5660 C   0  0  0  0  0  2  0  0  0  0  0  0
  189.7850  177.1630  140.5150 N   0  0  0  0  0  2  0  0  0  0  0  0
  188.2160  177.4030  142.2280 O   0  0  0  0  0  0  0  0  0  0  0  0
  189.3230  176.9380  141.8470 C   0  0  0  0  0  0  0  0  0  0  0  0
  190.1550  176.1440  142.7890 C   0  0  0  0  0  1  0  0  0  0  0  0
  184.4160  177.2860  135.4790 C   0  0  0  0  0  2  0  0  0  0  0  0
  183.2320  177.2040  136.2110 O   0  0  0  0  0  0  0  0  0  0  0  0
  182.2450  177.6260  135.3230 C   0  0  0  0  0  1  0  0  0  0  0  0
  2  8  1  0  0  0  0
  2  5  1  0  0  0  0
  3  1  1  6  0  0  0
  4  2  2  0  0  0  0
  6  9  1  0  0  0  0
  7 11  2  0  0  0  0
  7  4  1  0  0  0  0
  8  1  2  0  0  0  0
  9  3  1  0  0  0  0
  9 10  1  0  0  0  0
 11 12  1  0  0  0  0
 12  6  2  0  0  0  0
 12  8  1  0  0  0  0
 13 17  1  6  0  0  0
 13  3  1  0  0  0  0
 13 15  1  0  0  0  0
 14 13  1  0  0  0  0
 14 15  1  0  0  0  0
 15 23  1  1  0  0  0
 17 16  1  6  0  0  0
 19 22  1  0  0  0  0
 19 20  1  0  0  0  0
 20 17  1  6  0  0  0
 20 18  1  0  0  0  0
 21 18  1  0  0  0  0
 22 21  1  0  0  0  0
 23 24  1  0  0  0  0
 24 26  1  0  0  0  0
 26 25  2  0  0  0  0
 26 27  1  0  0  0  0
 28  6  1  0  0  0  0
 28 29  1  0  0  0  0
 30 29  1  0  0  0  0
M  END
>  <MODEL>
9

>  <REMARK>
 VINA RESULT:      -6.6      5.332      9.234
  Name = 
  7 active torsions:
  status: ('A' for Active; 'I' for Inactive)
    1  A    between atoms: C_3  and  O_11
    2  A    between atoms: C_3  and  C_19
    3  A    between atoms: C_4  and  C_13
    4  A    between atoms: N_7  and  C_16
    5  A    between atoms: C_8  and  C_12
    6  A    between atoms: C_8  and  C_13
    7  A    between atoms: C_16  and  C_30
                            x       y       z     vdW  Elec       q    Type
                         _______ _______ _______ _____ _____    ______ ____

>  <TORSDO>
F 7

$$$$
