=
 OpenBabel10272400223D

 31 36  0  0  1  0  0  0  0  0999 V2000
  183.6120  178.4210  143.6930 C   0  0  0  0  0  0  0  0  0  0  0  0
  187.2950  177.7210  143.9930 C   0  0  0  0  0  0  0  0  0  0  0  0
  187.5380  177.5230  145.3820 C   0  0  0  0  0  0  0  0  0  0  0  0
  186.7240  178.7620  147.3630 C   0  0  0  0  0  3  0  0  0  0  0  0
  185.9690  178.1530  143.4470 C   0  0  0  0  0  0  0  0  0  0  0  0
  183.5030  178.9120  142.3920 C   0  0  0  0  0  3  0  0  0  0  0  0
  186.4390  177.6700  146.3900 C   0  0  0  0  0  2  0  0  0  0  0  0
  188.1070  177.6530  141.5820 C   0  0  2  0  0  3  0  0  0  0  0  0
  182.5070  178.3090  144.4670 F   0  0  0  0  0  0  0  0  0  0  0  0
  189.8150  176.8390  144.8790 C   0  0  0  0  0  3  0  0  0  0  0  0
  187.7320  178.7010  148.2310 C   0  0  0  0  0  3  0  0  0  0  0  0
  187.1190  178.7830  141.2940 C   0  0  0  0  0  2  0  0  0  0  0  0
  188.3500  177.5070  143.0700 C   0  0  0  0  0  0  0  0  0  0  0  0
  184.8260  178.0560  144.1840 N   0  0  0  0  0  0  0  0  0  0  0  0
  188.7250  177.6120  148.2830 C   0  0  0  0  0  3  0  0  0  0  0  0
  185.8860  178.6260  142.1230 C   0  0  0  0  0  0  0  0  0  0  0  0
  184.6500  179.0160  141.6060 C   0  0  0  0  0  3  0  0  0  0  0  0
  189.5840  177.0320  143.5240 C   0  0  0  0  0  3  0  0  0  0  0  0
  188.8190  177.1060  145.8170 C   0  0  0  0  0  0  0  0  0  0  0  0
  189.1880  176.9180  147.2370 C   0  0  0  0  0  3  0  0  0  0  0  0
  189.3510  177.9060  140.8660 N   0  0  0  0  0  2  0  0  0  0  0  0
  193.2050  176.2900  137.7910 C   0  0  0  0  0  0  0  0  0  0  0  0
  192.1180  177.2370  139.8020 C   0  0  0  0  0  3  0  0  0  0  0  0
  189.4550  176.4380  137.4400 C   0  0  0  0  0  3  0  0  0  0  0  0
  188.5940  176.9800  138.5510 C   0  0  0  0  0  2  0  0  0  0  0  0
  194.2930  175.9690  137.2480 O   0  0  0  0  0  0  0  0  0  0  0  0
  189.6220  177.3430  139.5800 C   0  0  0  0  0  0  0  0  0  0  0  0
  193.2320  176.8720  139.1580 C   0  0  0  0  0  3  0  0  0  0  0  0
  190.7240  176.5000  137.8170 C   0  0  0  0  0  0  0  0  0  0  0  0
  190.8280  177.0560  139.1370 C   0  0  0  0  0  0  0  0  0  0  0  0
  191.9170  176.0670  137.0250 C   0  0  0  0  0  2  0  0  0  0  0  0
  1 14  1  0  0  0  0
  1  9  1  0  0  0  0
  2  3  1  0  0  0  0
  3 19  2  0  0  0  0
  3  7  1  0  0  0  0
  4 11  2  0  0  0  0
  5  2  1  0  0  0  0
  5 14  2  0  0  0  0
  6  1  2  0  0  0  0
  7  4  1  0  0  0  0
  8 21  1  6  0  0  0
  8 13  1  0  0  0  0
 10 19  1  0  0  0  0
 11 15  1  0  0  0  0
 12  8  1  0  0  0  0
 12 16  1  0  0  0  0
 13 18  1  0  0  0  0
 13  2  2  0  0  0  0
 16  5  1  0  0  0  0
 17 16  2  0  0  0  0
 17  6  1  0  0  0  0
 18 10  2  0  0  0  0
 19 20  1  0  0  0  0
 20 15  2  0  0  0  0
 22 28  1  0  0  0  0
 24 29  2  0  0  0  0
 24 25  1  0  0  0  0
 25 27  1  0  0  0  0
 26 22  2  0  0  0  0
 27 21  1  0  0  0  0
 28 23  2  0  0  0  0
 29 30  1  0  0  0  0
 30 27  2  0  0  0  0
 30 23  1  0  0  0  0
 31 22  1  0  0  0  0
 31 29  1  0  0  0  0
M  END
>  <MODEL>
1

>  <REMARK>
 VINA RESULT:     -11.7      0.000      0.000
  Name = 
  2 active torsions:
  status: ('A' for Active; 'I' for Inactive)
    1  A    between atoms: C_9  and  N_23
    2  A    between atoms: C_15  and  N_23
                            x       y       z     vdW  Elec       q    Type
                         _______ _______ _______ _____ _____    ______ ____

>  <TORSDO>
F 2

$$$$
=
 OpenBabel10272400223D

 31 36  0  0  1  0  0  0  0  0999 V2000
  183.7300  178.4070  143.6630 C   0  0  0  0  0  0  0  0  0  0  0  0
  187.4260  177.7630  143.9270 C   0  0  0  0  0  0  0  0  0  0  0  0
  187.6780  177.5200  145.3070 C   0  0  0  0  0  0  0  0  0  0  0  0
  186.8500  178.6730  147.3340 C   0  0  0  0  0  3  0  0  0  0  0  0
  186.0910  178.1900  143.4010 C   0  0  0  0  0  0  0  0  0  0  0  0
  183.6080  178.9410  142.3810 C   0  0  0  0  0  3  0  0  0  0  0  0
  186.5800  177.6110  146.3230 C   0  0  0  0  0  2  0  0  0  0  0  0
  188.2300  177.7950  141.5130 C   0  0  2  0  0  3  0  0  0  0  0  0
  182.6300  178.2470  144.4370 F   0  0  0  0  0  0  0  0  0  0  0  0
  189.9650  176.8950  144.7740 C   0  0  0  0  0  3  0  0  0  0  0  0
  187.8610  178.5990  148.1960 C   0  0  0  0  0  3  0  0  0  0  0  0
  187.2210  178.9160  141.2680 C   0  0  0  0  0  2  0  0  0  0  0  0
  188.4810  177.6000  142.9940 C   0  0  0  0  0  0  0  0  0  0  0  0
  184.9520  178.0460  144.1380 N   0  0  0  0  0  0  0  0  0  0  0  0
  188.8740  177.5270  148.2060 C   0  0  0  0  0  3  0  0  0  0  0  0
  185.9940  178.7080  142.0940 C   0  0  0  0  0  0  0  0  0  0  0  0
  184.7500  179.0940  141.5960 C   0  0  0  0  0  3  0  0  0  0  0  0
  189.7250  177.1320  143.4270 C   0  0  0  0  0  3  0  0  0  0  0  0
  188.9680  177.1100  145.7240 C   0  0  0  0  0  0  0  0  0  0  0  0
  189.3450  176.8790  147.1340 C   0  0  0  0  0  3  0  0  0  0  0  0
  189.4670  178.0960  140.8020 N   0  0  0  0  0  2  0  0  0  0  0  0
  188.7280  177.5950  135.6910 C   0  0  0  0  0  0  0  0  0  0  0  0
  188.4190  178.4900  137.9780 C   0  0  0  0  0  3  0  0  0  0  0  0
  190.9520  175.8750  138.2010 C   0  0  0  0  0  3  0  0  0  0  0  0
  190.9260  176.2670  139.6560 C   0  0  0  0  0  2  0  0  0  0  0  0
  188.3750  177.6690  134.4860 O   0  0  0  0  0  0  0  0  0  0  0  0
  189.8920  177.3520  139.6570 C   0  0  0  0  0  0  0  0  0  0  0  0
  188.0960  178.5080  136.6790 C   0  0  0  0  0  3  0  0  0  0  0  0
  190.0820  176.6260  137.5430 C   0  0  0  0  0  0  0  0  0  0  0  0
  189.4280  177.5390  138.4400 C   0  0  0  0  0  0  0  0  0  0  0  0
  189.7810  176.5780  136.0780 C   0  0  0  0  0  2  0  0  0  0  0  0
  1 14  1  0  0  0  0
  1  9  1  0  0  0  0
  2  3  1  0  0  0  0
  3 19  2  0  0  0  0
  3  7  1  0  0  0  0
  4 11  2  0  0  0  0
  5  2  1  0  0  0  0
  5 14  2  0  0  0  0
  6  1  2  0  0  0  0
  7  4  1  0  0  0  0
  8 21  1  6  0  0  0
  8 13  1  0  0  0  0
 10 19  1  0  0  0  0
 11 15  1  0  0  0  0
 12  8  1  0  0  0  0
 12 16  1  0  0  0  0
 13 18  1  0  0  0  0
 13  2  2  0  0  0  0
 16  5  1  0  0  0  0
 17 16  2  0  0  0  0
 17  6  1  0  0  0  0
 18 10  2  0  0  0  0
 19 20  1  0  0  0  0
 20 15  2  0  0  0  0
 22 31  1  0  0  0  0
 22 28  1  0  0  0  0
 23 30  1  0  0  0  0
 24 25  1  0  0  0  0
 25 27  1  0  0  0  0
 26 22  2  0  0  0  0
 27 21  1  0  0  0  0
 28 23  2  0  0  0  0
 29 24  2  0  0  0  0
 29 30  1  0  0  0  0
 30 27  2  0  0  0  0
 31 29  1  0  0  0  0
M  END
>  <MODEL>
2

>  <REMARK>
 VINA RESULT:     -11.4      1.450      2.165
  Name = 
  2 active torsions:
  status: ('A' for Active; 'I' for Inactive)
    1  A    between atoms: C_9  and  N_23
    2  A    between atoms: C_15  and  N_23
                            x       y       z     vdW  Elec       q    Type
                         _______ _______ _______ _____ _____    ______ ____

>  <TORSDO>
F 2

$$$$
=
 OpenBabel10272400223D

 31 36  0  0  1  0  0  0  0  0999 V2000
  184.6400  178.2370  145.8810 C   0  0  0  0  0  0  0  0  0  0  0  0
  188.0340  177.6120  144.3870 C   0  0  0  0  0  0  0  0  0  0  0  0
  188.8650  177.2090  145.4710 C   0  0  0  0  0  0  0  0  0  0  0  0
  189.0780  178.1020  147.7680 C   0  0  0  0  0  3  0  0  0  0  0  0
  186.6240  178.0820  144.5660 C   0  0  0  0  0  0  0  0  0  0  0  0
  183.9810  178.9190  144.8580 C   0  0  0  0  0  3  0  0  0  0  0  0
  188.3410  177.1650  146.8730 C   0  0  0  0  0  2  0  0  0  0  0  0
  187.6770  177.9420  141.8890 C   0  0  2  0  0  3  0  0  0  0  0  0
  183.9950  177.9730  147.0420 F   0  0  0  0  0  0  0  0  0  0  0  0
  190.6450  176.6810  143.9030 C   0  0  0  0  0  3  0  0  0  0  0  0
  190.3630  177.9380  148.0710 C   0  0  0  0  0  3  0  0  0  0  0  0
  186.7140  179.0710  142.2500 C   0  0  0  0  0  2  0  0  0  0  0  0
  188.5540  177.5750  143.0680 C   0  0  0  0  0  0  0  0  0  0  0  0
  185.9290  177.8380  145.7140 N   0  0  0  0  0  0  0  0  0  0  0  0
  191.2280  176.8860  147.5070 C   0  0  0  0  0  3  0  0  0  0  0  0
  185.9770  178.7510  143.5090 C   0  0  0  0  0  0  0  0  0  0  0  0
  184.6580  179.1790  143.6670 C   0  0  0  0  0  3  0  0  0  0  0  0
  189.8390  177.0730  142.8420 C   0  0  0  0  0  3  0  0  0  0  0  0
  190.1860  176.7690  145.2160 C   0  0  0  0  0  0  0  0  0  0  0  0
  191.1430  176.3750  146.2720 C   0  0  0  0  0  3  0  0  0  0  0  0
  188.4790  178.3400  140.7380 N   0  0  0  0  0  2  0  0  0  0  0  0
  190.6470  175.4210  137.0370 C   0  0  0  0  0  0  0  0  0  0  0  0
  190.4410  176.6020  139.2020 C   0  0  0  0  0  3  0  0  0  0  0  0
  187.3550  177.2270  137.3610 C   0  0  0  0  0  3  0  0  0  0  0  0
  187.0200  178.0100  138.6040 C   0  0  0  0  0  2  0  0  0  0  0  0
  191.3730  174.6950  136.3110 O   0  0  0  0  0  0  0  0  0  0  0  0
  188.2550  177.8090  139.4290 C   0  0  0  0  0  0  0  0  0  0  0  0
  191.1540  175.8310  138.3720 C   0  0  0  0  0  3  0  0  0  0  0  0
  188.5610  176.6980  137.5050 C   0  0  0  0  0  0  0  0  0  0  0  0
  189.1170  177.0550  138.7800 C   0  0  0  0  0  0  0  0  0  0  0  0
  189.2890  175.8430  136.5160 C   0  0  0  0  0  2  0  0  0  0  0  0
  1  9  1  0  0  0  0
  2  5  1  0  0  0  0
  2  3  1  0  0  0  0
  3  7  1  0  0  0  0
  4 11  2  0  0  0  0
  5 14  2  0  0  0  0
  6  1  2  0  0  0  0
  7  4  1  0  0  0  0
  8 21  1  6  0  0  0
  8 12  1  0  0  0  0
  8 13  1  0  0  0  0
 10 19  1  0  0  0  0
 12 16  1  0  0  0  0
 13  2  2  0  0  0  0
 14  1  1  0  0  0  0
 15 11  1  0  0  0  0
 16 17  2  0  0  0  0
 16  5  1  0  0  0  0
 17  6  1  0  0  0  0
 18 13  1  0  0  0  0
 18 10  2  0  0  0  0
 19  3  2  0  0  0  0
 19 20  1  0  0  0  0
 20 15  2  0  0  0  0
 22 28  1  0  0  0  0
 24 29  2  0  0  0  0
 24 25  1  0  0  0  0
 25 27  1  0  0  0  0
 26 22  2  0  0  0  0
 27 21  1  0  0  0  0
 28 23  2  0  0  0  0
 29 30  1  0  0  0  0
 30 23  1  0  0  0  0
 30 27  2  0  0  0  0
 31 22  1  0  0  0  0
 31 29  1  0  0  0  0
M  END
>  <MODEL>
3

>  <REMARK>
 VINA RESULT:     -10.6      1.524      2.023
  Name = 
  2 active torsions:
  status: ('A' for Active; 'I' for Inactive)
    1  A    between atoms: C_9  and  N_23
    2  A    between atoms: C_15  and  N_23
                            x       y       z     vdW  Elec       q    Type
                         _______ _______ _______ _____ _____    ______ ____

>  <TORSDO>
F 2

$$$$
=
 OpenBabel10272400223D

 31 36  0  0  1  0  0  0  0  0999 V2000
  189.1640  176.6560  147.2800 C   0  0  0  0  0  0  0  0  0  0  0  0
  188.0370  177.5930  143.8170 C   0  0  0  0  0  0  0  0  0  0  0  0
  189.1190  177.2560  142.9550 C   0  0  0  0  0  0  0  0  0  0  0  0
  191.5570  177.6020  143.2000 C   0  0  0  0  0  3  0  0  0  0  0  0
  188.1190  177.4990  145.3090 C   0  0  0  0  0  0  0  0  0  0  0  0
  188.2210  177.2920  148.0870 C   0  0  0  0  0  3  0  0  0  0  0  0
  190.4020  176.7080  143.5000 C   0  0  0  0  0  2  0  0  0  0  0  0
  185.6320  178.3580  144.1380 C   0  0  2  0  0  3  0  0  0  0  0  0
  190.1530  175.9230  147.8460 F   0  0  0  0  0  0  0  0  0  0  0  0
  187.7270  177.7490  141.0250 C   0  0  0  0  0  3  0  0  0  0  0  0
  191.9880  177.8200  141.9600 C   0  0  0  0  0  3  0  0  0  0  0  0
  186.0810  178.9740  145.4620 C   0  0  0  0  0  2  0  0  0  0  0  0
  186.8190  178.0460  143.2510 C   0  0  0  0  0  0  0  0  0  0  0  0
  189.0920  176.7710  145.9280 N   0  0  0  0  0  0  0  0  0  0  0  0
  191.3440  177.2880  140.7450 C   0  0  0  0  0  3  0  0  0  0  0  0
  187.1410  178.1360  146.0990 C   0  0  0  0  0  0  0  0  0  0  0  0
  187.2060  178.0390  147.4890 C   0  0  0  0  0  3  0  0  0  0  0  0
  186.6690  178.0810  141.8610 C   0  0  0  0  0  3  0  0  0  0  0  0
  188.9590  177.3650  141.5520 C   0  0  0  0  0  0  0  0  0  0  0  0
  190.0320  177.0850  140.5740 C   0  0  0  0  0  3  0  0  0  0  0  0
  184.7010  179.2640  143.4760 N   0  0  0  0  0  2  0  0  0  0  0  0
  181.0110  178.2510  139.9730 C   0  0  0  0  0  0  0  0  0  0  0  0
  183.2650  178.7880  140.8410 C   0  0  0  0  0  3  0  0  0  0  0  0
  181.0580  178.5130  143.7320 C   0  0  0  0  0  3  0  0  0  0  0  0
  182.3310  178.8310  144.4710 C   0  0  0  0  0  2  0  0  0  0  0  0
  180.3130  178.0330  138.9490 O   0  0  0  0  0  0  0  0  0  0  0  0
  183.3080  178.9670  143.3420 C   0  0  0  0  0  0  0  0  0  0  0  0
  182.4570  178.5470  139.8020 C   0  0  0  0  0  3  0  0  0  0  0  0
  181.3160  178.4820  142.4330 C   0  0  0  0  0  0  0  0  0  0  0  0
  182.7040  178.7610  142.1910 C   0  0  0  0  0  0  0  0  0  0  0  0
  180.3430  178.2020  141.3320 C   0  0  0  0  0  2  0  0  0  0  0  0
  1  9  1  0  0  0  0
  1  6  1  0  0  0  0
  2  5  1  0  0  0  0
  3  7  1  0  0  0  0
  3  2  2  0  0  0  0
  4  7  1  0  0  0  0
  5 14  1  0  0  0  0
  5 16  2  0  0  0  0
  8 21  1  6  0  0  0
  8 12  1  0  0  0  0
 10 19  2  0  0  0  0
 10 18  1  0  0  0  0
 11  4  2  0  0  0  0
 12 16  1  0  0  0  0
 13  2  1  0  0  0  0
 13  8  1  0  0  0  0
 14  1  2  0  0  0  0
 15 11  1  0  0  0  0
 16 17  1  0  0  0  0
 17  6  2  0  0  0  0
 18 13  2  0  0  0  0
 19  3  1  0  0  0  0
 20 15  2  0  0  0  0
 20 19  1  0  0  0  0
 22 31  1  0  0  0  0
 23 30  1  0  0  0  0
 24 25  1  0  0  0  0
 26 22  2  0  0  0  0
 27 21  1  0  0  0  0
 27 25  1  0  0  0  0
 28 22  1  0  0  0  0
 28 23  2  0  0  0  0
 29 24  2  0  0  0  0
 30 29  1  0  0  0  0
 30 27  2  0  0  0  0
 31 29  1  0  0  0  0
M  END
>  <MODEL>
4

>  <REMARK>
 VINA RESULT:     -10.4      3.539      7.595
  Name = 
  2 active torsions:
  status: ('A' for Active; 'I' for Inactive)
    1  A    between atoms: C_9  and  N_23
    2  A    between atoms: C_15  and  N_23
                            x       y       z     vdW  Elec       q    Type
                         _______ _______ _______ _____ _____    ______ ____

>  <TORSDO>
F 2

$$$$
=
 OpenBabel10272400223D

 31 36  0  0  1  0  0  0  0  0999 V2000
  186.0950  177.7540  146.4870 C   0  0  0  0  0  0  0  0  0  0  0  0
  187.3830  178.1090  142.9720 C   0  0  0  0  0  0  0  0  0  0  0  0
  188.7600  177.7480  143.0260 C   0  0  0  0  0  0  0  0  0  0  0  0
  190.5240  178.3270  144.6620 C   0  0  0  0  0  3  0  0  0  0  0  0
  186.5180  178.2280  144.1880 C   0  0  0  0  0  0  0  0  0  0  0  0
  184.8680  178.4130  146.4270 C   0  0  0  0  0  3  0  0  0  0  0  0
  189.4150  177.3890  144.3250 C   0  0  0  0  0  2  0  0  0  0  0  0
  185.3150  178.7070  141.6160 C   0  0  2  0  0  3  0  0  0  0  0  0
  186.5040  177.1910  147.6490 F   0  0  0  0  0  0  0  0  0  0  0  0
  188.8780  177.8530  140.6020 C   0  0  0  0  0  3  0  0  0  0  0  0
  191.6370  178.4070  143.9360 C   0  0  0  0  0  3  0  0  0  0  0  0
  184.8560  179.5340  142.8160 C   0  0  0  0  0  2  0  0  0  0  0  0
  186.7900  178.3770  141.7120 C   0  0  0  0  0  0  0  0  0  0  0  0
  186.8820  177.6750  145.3810 N   0  0  0  0  0  0  0  0  0  0  0  0
  191.8760  177.6620  142.6870 C   0  0  0  0  0  3  0  0  0  0  0  0
  185.2750  178.8830  144.0940 C   0  0  0  0  0  0  0  0  0  0  0  0
  184.4600  178.9830  145.2210 C   0  0  0  0  0  3  0  0  0  0  0  0
  187.5360  178.2070  140.5430 C   0  0  0  0  0  3  0  0  0  0  0  0
  189.5080  177.6490  141.8280 C   0  0  0  0  0  0  0  0  0  0  0  0
  190.9500  177.3280  141.7800 C   0  0  0  0  0  3  0  0  0  0  0  0
  185.0150  179.4330  140.3870 N   0  0  0  0  0  2  0  0  0  0  0  0
  184.3960  176.9150  135.8940 C   0  0  0  0  0  0  0  0  0  0  0  0
  185.5870  177.9210  137.8150 C   0  0  0  0  0  3  0  0  0  0  0  0
  182.0280  178.5100  138.3540 C   0  0  0  0  0  3  0  0  0  0  0  0
  182.5430  179.1810  139.6010 C   0  0  0  0  0  2  0  0  0  0  0  0
  184.5090  176.2850  134.8110 O   0  0  0  0  0  0  0  0  0  0  0  0
  184.0230  178.9870  139.4580 C   0  0  0  0  0  0  0  0  0  0  0  0
  185.6260  177.2540  136.6550 C   0  0  0  0  0  3  0  0  0  0  0  0
  183.0590  178.0380  137.6690 C   0  0  0  0  0  0  0  0  0  0  0  0
  184.2900  178.3310  138.3490 C   0  0  0  0  0  0  0  0  0  0  0  0
  183.0090  177.2990  136.3690 C   0  0  0  0  0  2  0  0  0  0  0  0
  1  9  1  0  0  0  0
  2  3  1  0  0  0  0
  2  5  1  0  0  0  0
  3  7  1  0  0  0  0
  5 14  1  0  0  0  0
  6  1  1  0  0  0  0
  7  4  1  0  0  0  0
  8 21  1  6  0  0  0
  8 13  1  0  0  0  0
  8 12  1  0  0  0  0
 10 19  1  0  0  0  0
 11  4  2  0  0  0  0
 12 16  1  0  0  0  0
 13  2  2  0  0  0  0
 14  1  2  0  0  0  0
 15 11  1  0  0  0  0
 16  5  2  0  0  0  0
 16 17  1  0  0  0  0
 17  6  2  0  0  0  0
 18 10  2  0  0  0  0
 18 13  1  0  0  0  0
 19  3  2  0  0  0  0
 20 19  1  0  0  0  0
 20 15  2  0  0  0  0
 22 31  1  0  0  0  0
 22 28  1  0  0  0  0
 23 30  1  0  0  0  0
 24 25  1  0  0  0  0
 26 22  2  0  0  0  0
 27 25  1  0  0  0  0
 27 21  1  0  0  0  0
 28 23  2  0  0  0  0
 29 30  1  0  0  0  0
 29 24  2  0  0  0  0
 30 27  2  0  0  0  0
 31 29  1  0  0  0  0
M  END
>  <MODEL>
5

>  <REMARK>
 VINA RESULT:     -10.3      3.274      5.534
  Name = 
  2 active torsions:
  status: ('A' for Active; 'I' for Inactive)
    1  A    between atoms: C_9  and  N_23
    2  A    between atoms: C_15  and  N_23
                            x       y       z     vdW  Elec       q    Type
                         _______ _______ _______ _____ _____    ______ ____

>  <TORSDO>
F 2

$$$$
=
 OpenBabel10272400223D

 31 36  0  0  1  0  0  0  0  0999 V2000
  189.3570  177.7530  147.7020 C   0  0  0  0  0  0  0  0  0  0  0  0
  187.7320  178.0730  144.3260 C   0  0  0  0  0  0  0  0  0  0  0  0
  186.4330  178.6040  144.5710 C   0  0  0  0  0  0  0  0  0  0  0  0
  184.7510  178.0390  146.2950 C   0  0  0  0  0  3  0  0  0  0  0  0
  188.6720  177.6700  145.4190 C   0  0  0  0  0  0  0  0  0  0  0  0
  190.4650  176.9510  147.4290 C   0  0  0  0  0  3  0  0  0  0  0  0
  185.9510  178.8590  145.9660 C   0  0  0  0  0  2  0  0  0  0  0  0
  189.5660  177.4040  142.6940 C   0  0  2  0  0  3  0  0  0  0  0  0
  189.1360  178.1950  148.9640 F   0  0  0  0  0  0  0  0  0  0  0  0
  186.0920  178.8590  142.1790 C   0  0  0  0  0  3  0  0  0  0  0  0
  183.5800  178.2100  145.6870 C   0  0  0  0  0  3  0  0  0  0  0  0
  190.0010  176.3620  143.7230 C   0  0  0  0  0  2  0  0  0  0  0  0
  188.1690  177.9110  142.9870 C   0  0  0  0  0  0  0  0  0  0  0  0
  188.4970  178.0910  146.7040 N   0  0  0  0  0  0  0  0  0  0  0  0
  183.3450  179.1500  144.5750 C   0  0  0  0  0  3  0  0  0  0  0  0
  189.7930  176.8750  145.1110 C   0  0  0  0  0  0  0  0  0  0  0  0
  190.6790  176.5080  146.1250 C   0  0  0  0  0  3  0  0  0  0  0  0
  187.3570  178.3420  141.9340 C   0  0  0  0  0  3  0  0  0  0  0  0
  185.6070  178.9690  143.4810 C   0  0  0  0  0  0  0  0  0  0  0  0
  184.2280  179.4830  143.6260 C   0  0  0  0  0  3  0  0  0  0  0  0
  189.6500  176.8260  141.3580 N   0  0  0  0  0  2  0  0  0  0  0  0
  191.4700  176.0090  136.5690 C   0  0  0  0  0  0  0  0  0  0  0  0
  189.8300  176.0720  138.4200 C   0  0  0  0  0  3  0  0  0  0  0  0
  192.9930  177.2850  139.7720 C   0  0  0  0  0  3  0  0  0  0  0  0
  192.1690  177.4070  141.0270 C   0  0  0  0  0  2  0  0  0  0  0  0
  191.6640  175.7330  135.3570 O   0  0  0  0  0  0  0  0  0  0  0  0
  190.8310  176.9170  140.5580 C   0  0  0  0  0  0  0  0  0  0  0  0
  190.1140  175.8010  137.1410 C   0  0  0  0  0  3  0  0  0  0  0  0
  192.2240  176.8140  138.8020 C   0  0  0  0  0  0  0  0  0  0  0  0
  190.8900  176.5880  139.2840 C   0  0  0  0  0  0  0  0  0  0  0  0
  192.6290  176.5380  137.3880 C   0  0  0  0  0  2  0  0  0  0  0  0
  1  9  1  0  0  0  0
  2  3  1  0  0  0  0
  2  5  1  0  0  0  0
  3  7  1  0  0  0  0
  5 14  1  0  0  0  0
  6  1  1  0  0  0  0
  7  4  1  0  0  0  0
  8 21  1  6  0  0  0
  8 13  1  0  0  0  0
  8 12  1  0  0  0  0
 10 19  1  0  0  0  0
 11  4  2  0  0  0  0
 12 16  1  0  0  0  0
 13  2  2  0  0  0  0
 14  1  2  0  0  0  0
 15 11  1  0  0  0  0
 16  5  2  0  0  0  0
 16 17  1  0  0  0  0
 17  6  2  0  0  0  0
 18 10  2  0  0  0  0
 18 13  1  0  0  0  0
 19 20  1  0  0  0  0
 19  3  2  0  0  0  0
 20 15  2  0  0  0  0
 22 28  1  0  0  0  0
 22 31  1  0  0  0  0
 23 30  1  0  0  0  0
 24 25  1  0  0  0  0
 26 22  2  0  0  0  0
 27 25  1  0  0  0  0
 27 21  1  0  0  0  0
 28 23  2  0  0  0  0
 29 30  1  0  0  0  0
 29 24  2  0  0  0  0
 30 27  2  0  0  0  0
 31 29  1  0  0  0  0
M  END
>  <MODEL>
6

>  <REMARK>
 VINA RESULT:     -10.1      2.028      4.397
  Name = 
  2 active torsions:
  status: ('A' for Active; 'I' for Inactive)
    1  A    between atoms: C_9  and  N_23
    2  A    between atoms: C_15  and  N_23
                            x       y       z     vdW  Elec       q    Type
                         _______ _______ _______ _____ _____    ______ ____

>  <TORSDO>
F 2

$$$$
=
 OpenBabel10272400223D

 31 36  0  0  1  0  0  0  0  0999 V2000
  184.9040  178.3340  145.8280 C   0  0  0  0  0  0  0  0  0  0  0  0
  187.7120  177.6970  143.4090 C   0  0  0  0  0  0  0  0  0  0  0  0
  188.7740  177.1520  144.1850 C   0  0  0  0  0  0  0  0  0  0  0  0
  189.6660  177.8080  146.3990 C   0  0  0  0  0  3  0  0  0  0  0  0
  186.4400  178.2130  144.0080 C   0  0  0  0  0  0  0  0  0  0  0  0
  184.0430  179.1410  145.0860 C   0  0  0  0  0  3  0  0  0  0  0  0
  188.6490  176.9970  145.6700 C   0  0  0  0  0  2  0  0  0  0  0  0
  186.7160  178.2830  141.1420 C   0  0  2  0  0  3  0  0  0  0  0  0
  184.5810  177.9890  147.0980 F   0  0  0  0  0  0  0  0  0  0  0  0
  190.0200  176.6950  142.1500 C   0  0  0  0  0  3  0  0  0  0  0  0
  190.9700  177.5550  146.3210 C   0  0  0  0  0  3  0  0  0  0  0  0
  185.9700  179.4160  141.8440 C   0  0  0  0  0  2  0  0  0  0  0  0
  187.8510  177.7630  142.0000 C   0  0  0  0  0  0  0  0  0  0  0  0
  186.0670  177.8920  145.2800 N   0  0  0  0  0  0  0  0  0  0  0  0
  191.5710  176.5230  145.4570 C   0  0  0  0  0  3  0  0  0  0  0  0
  185.5810  179.0110  143.2280 C   0  0  0  0  0  0  0  0  0  0  0  0
  184.3890  179.4830  143.7790 C   0  0  0  0  0  3  0  0  0  0  0  0
  188.9870  177.2250  141.3880 C   0  0  0  0  0  3  0  0  0  0  0  0
  189.9420  176.6770  143.5410 C   0  0  0  0  0  0  0  0  0  0  0  0
  191.1190  176.1390  144.2570 C   0  0  0  0  0  3  0  0  0  0  0  0
  187.2020  178.7520  139.8500 N   0  0  0  0  0  2  0  0  0  0  0  0
  183.4330  177.2950  136.5970 C   0  0  0  0  0  0  0  0  0  0  0  0
  184.4720  178.3540  138.5770 C   0  0  0  0  0  3  0  0  0  0  0  0
  187.1700  176.8120  136.6670 C   0  0  0  0  0  3  0  0  0  0  0  0
  188.0040  177.3790  137.7860 C   0  0  0  0  0  2  0  0  0  0  0  0
  182.3620  177.0690  135.9770 O   0  0  0  0  0  0  0  0  0  0  0  0
  186.9590  178.0380  138.6350 C   0  0  0  0  0  0  0  0  0  0  0  0
  183.3770  178.0730  137.8610 C   0  0  0  0  0  3  0  0  0  0  0  0
  185.9000  177.1210  136.8830 C   0  0  0  0  0  0  0  0  0  0  0  0
  185.7690  177.8780  138.0970 C   0  0  0  0  0  0  0  0  0  0  0  0
  184.7300  176.7610  136.0240 C   0  0  0  0  0  2  0  0  0  0  0  0
  1  9  1  0  0  0  0
  2  5  1  0  0  0  0
  2  3  1  0  0  0  0
  3  7  1  0  0  0  0
  5 14  2  0  0  0  0
  6  1  2  0  0  0  0
  7  4  1  0  0  0  0
  8 21  1  6  0  0  0
  8 12  1  0  0  0  0
  8 13  1  0  0  0  0
 10 19  1  0  0  0  0
 11  4  2  0  0  0  0
 12 16  1  0  0  0  0
 13  2  2  0  0  0  0
 14  1  1  0  0  0  0
 15 11  1  0  0  0  0
 16 17  2  0  0  0  0
 16  5  1  0  0  0  0
 17  6  1  0  0  0  0
 18 13  1  0  0  0  0
 18 10  2  0  0  0  0
 19  3  2  0  0  0  0
 19 20  1  0  0  0  0
 20 15  2  0  0  0  0
 22 28  1  0  0  0  0
 24 29  2  0  0  0  0
 24 25  1  0  0  0  0
 25 27  1  0  0  0  0
 26 22  2  0  0  0  0
 27 21  1  0  0  0  0
 28 23  2  0  0  0  0
 29 30  1  0  0  0  0
 30 23  1  0  0  0  0
 30 27  2  0  0  0  0
 31 22  1  0  0  0  0
 31 29  1  0  0  0  0
M  END
>  <MODEL>
7

>  <REMARK>
 VINA RESULT:     -10.1      3.121      4.605
  Name = 
  2 active torsions:
  status: ('A' for Active; 'I' for Inactive)
    1  A    between atoms: C_9  and  N_23
    2  A    between atoms: C_15  and  N_23
                            x       y       z     vdW  Elec       q    Type
                         _______ _______ _______ _____ _____    ______ ____

>  <TORSDO>
F 2

$$$$
=
 OpenBabel10272400223D

 31 36  0  0  1  0  0  0  0  0999 V2000
  186.2990  177.7070  146.3800 C   0  0  0  0  0  0  0  0  0  0  0  0
  187.3670  178.0860  142.7950 C   0  0  0  0  0  0  0  0  0  0  0  0
  188.7420  177.7190  142.7600 C   0  0  0  0  0  0  0  0  0  0  0  0
  190.6080  178.2780  144.2870 C   0  0  0  0  0  3  0  0  0  0  0  0
  186.5800  178.1980  144.0640 C   0  0  0  0  0  0  0  0  0  0  0  0
  185.0730  178.3720  146.4020 C   0  0  0  0  0  3  0  0  0  0  0  0
  189.4760  177.3470  144.0120 C   0  0  0  0  0  2  0  0  0  0  0  0
  185.2200  178.7040  141.5750 C   0  0  2  0  0  3  0  0  0  0  0  0
  186.7770  177.1330  147.5100 F   0  0  0  0  0  0  0  0  0  0  0  0
  188.7090  177.8440  140.3340 C   0  0  0  0  0  3  0  0  0  0  0  0
  191.6730  178.3600  143.4940 C   0  0  0  0  0  3  0  0  0  0  0  0
  184.8410  179.5230  142.8080 C   0  0  0  0  0  2  0  0  0  0  0  0
  186.6970  178.3670  141.5760 C   0  0  0  0  0  0  0  0  0  0  0  0
  187.0150  177.6340  145.2270 N   0  0  0  0  0  0  0  0  0  0  0  0
  191.8310  177.6240  142.2260 C   0  0  0  0  0  3  0  0  0  0  0  0
  185.3360  178.8590  144.0520 C   0  0  0  0  0  0  0  0  0  0  0  0
  184.5940  178.9540  145.2290 C   0  0  0  0  0  3  0  0  0  0  0  0
  187.3680  178.2040  140.3610 C   0  0  0  0  0  3  0  0  0  0  0  0
  189.4130  177.6280  141.5170 C   0  0  0  0  0  0  0  0  0  0  0  0
  190.8480  177.3010  141.3760 C   0  0  0  0  0  3  0  0  0  0  0  0
  184.8470  179.4400  140.3730 N   0  0  0  0  0  2  0  0  0  0  0  0
  180.9210  180.5660  137.1750 C   0  0  0  0  0  0  0  0  0  0  0  0
  182.6300  180.9310  138.9270 C   0  0  0  0  0  3  0  0  0  0  0  0
  182.9800  177.4740  137.8140 C   0  0  0  0  0  3  0  0  0  0  0  0
  184.0810  177.4760  138.8430 C   0  0  0  0  0  2  0  0  0  0  0  0
  179.9830  181.0780  136.5100 O   0  0  0  0  0  0  0  0  0  0  0  0
  184.0050  178.8800  139.3630 C   0  0  0  0  0  0  0  0  0  0  0  0
  181.6240  181.4030  138.1810 C   0  0  0  0  0  3  0  0  0  0  0  0
  182.4180  178.6740  137.7910 C   0  0  0  0  0  0  0  0  0  0  0  0
  183.0510  179.5430  138.7440 C   0  0  0  0  0  0  0  0  0  0  0  0
  181.2870  179.1180  136.9180 C   0  0  0  0  0  2  0  0  0  0  0  0
  1  6  1  0  0  0  0
  1  9  1  0  0  0  0
  2  5  1  0  0  0  0
  3  2  1  0  0  0  0
  3  7  1  0  0  0  0
  5 14  1  0  0  0  0
  7  4  1  0  0  0  0
  8 21  1  6  0  0  0
  8 13  1  0  0  0  0
  8 12  1  0  0  0  0
 10 18  2  0  0  0  0
 10 19  1  0  0  0  0
 11  4  2  0  0  0  0
 12 16  1  0  0  0  0
 13  2  2  0  0  0  0
 14  1  2  0  0  0  0
 15 11  1  0  0  0  0
 16  5  2  0  0  0  0
 16 17  1  0  0  0  0
 17  6  2  0  0  0  0
 18 13  1  0  0  0  0
 19  3  2  0  0  0  0
 20 19  1  0  0  0  0
 20 15  2  0  0  0  0
 22 28  1  0  0  0  0
 24 25  1  0  0  0  0
 25 27  1  0  0  0  0
 26 22  2  0  0  0  0
 27 21  1  0  0  0  0
 28 23  2  0  0  0  0
 29 24  2  0  0  0  0
 29 30  1  0  0  0  0
 30 23  1  0  0  0  0
 30 27  2  0  0  0  0
 31 22  1  0  0  0  0
 31 29  1  0  0  0  0
M  END
>  <MODEL>
8

>  <REMARK>
 VINA RESULT:     -10.0      4.001      6.684
  Name = 
  2 active torsions:
  status: ('A' for Active; 'I' for Inactive)
    1  A    between atoms: C_9  and  N_23
    2  A    between atoms: C_15  and  N_23
                            x       y       z     vdW  Elec       q    Type
                         _______ _______ _______ _____ _____    ______ ____

>  <TORSDO>
F 2

$$$$
=
 OpenBabel10272400223D

 31 36  0  0  1  0  0  0  0  0999 V2000
  182.7850  179.6130  138.8310 C   0  0  0  0  0  0  0  0  0  0  0  0
  186.1840  178.4720  139.9650 C   0  0  0  0  0  0  0  0  0  0  0  0
  186.9830  178.4090  138.7880 C   0  0  0  0  0  0  0  0  0  0  0  0
  186.4780  177.5270  136.5320 C   0  0  0  0  0  3  0  0  0  0  0  0
  184.7160  178.7640  139.9440 C   0  0  0  0  0  0  0  0  0  0  0  0
  181.9900  179.3490  139.9460 C   0  0  0  0  0  3  0  0  0  0  0  0
  186.4010  178.7070  137.4400 C   0  0  0  0  0  2  0  0  0  0  0  0
  185.9830  178.3650  142.5000 C   0  0  2  0  0  3  0  0  0  0  0  0
  182.2340  180.1620  137.7220 F   0  0  0  0  0  0  0  0  0  0  0  0
  188.9490  177.9850  140.1520 C   0  0  0  0  0  3  0  0  0  0  0  0
  187.6360  177.0310  136.1020 C   0  0  0  0  0  3  0  0  0  0  0  0
  184.5550  177.8620  142.2920 C   0  0  0  0  0  2  0  0  0  0  0  0
  186.7940  178.2470  141.2260 C   0  0  0  0  0  0  0  0  0  0  0  0
  184.1130  179.3200  138.8550 N   0  0  0  0  0  0  0  0  0  0  0  0
  188.9630  177.5160  136.5260 C   0  0  0  0  0  3  0  0  0  0  0  0
  183.9410  178.5050  141.0920 C   0  0  0  0  0  0  0  0  0  0  0  0
  182.5750  178.7880  141.0800 C   0  0  0  0  0  3  0  0  0  0  0  0
  188.1750  178.0450  141.3030 C   0  0  0  0  0  3  0  0  0  0  0  0
  188.3680  178.1350  138.8940 C   0  0  0  0  0  0  0  0  0  0  0  0
  189.2740  178.0010  137.7330 C   0  0  0  0  0  3  0  0  0  0  0  0
  186.6020  177.6210  143.5910 N   0  0  0  0  0  2  0  0  0  0  0  0
  189.1360  178.0580  148.0970 C   0  0  0  0  0  0  0  0  0  0  0  0
  188.7910  177.5620  145.6970 C   0  0  0  0  0  3  0  0  0  0  0  0
  185.5870  178.7100  147.0090 C   0  0  0  0  0  3  0  0  0  0  0  0
  185.1580  178.4770  145.5840 C   0  0  0  0  0  3  0  0  0  0  0  0
  189.9570  178.0780  149.0500 O   0  0  0  0  0  0  0  0  0  0  0  0
  186.4330  177.9910  144.9610 C   0  0  0  0  0  0  0  0  0  0  0  0
  189.6040  177.6110  146.7590 C   0  0  0  0  0  3  0  0  0  0  0  0
  186.8700  178.4040  147.1220 C   0  0  0  0  0  0  0  0  0  0  0  0
  187.3940  177.9620  145.8600 C   0  0  0  0  0  0  0  0  0  0  0  0
  187.7070  178.4890  148.3600 C   0  0  0  0  0  3  0  0  0  0  0  0
  1 14  2  0  0  0  0
  1  6  1  0  0  0  0
  2 13  1  0  0  0  0
  3 19  1  0  0  0  0
  3  2  2  0  0  0  0
  4  7  1  0  0  0  0
  5  2  1  0  0  0  0
  5 16  2  0  0  0  0
  6 17  2  0  0  0  0
  7  3  1  0  0  0  0
  8 21  1  1  0  0  0
  9  1  1  0  0  0  0
 10 18  1  0  0  0  0
 11 15  1  0  0  0  0
 11  4  2  0  0  0  0
 12  8  1  0  0  0  0
 13 18  2  0  0  0  0
 13  8  1  0  0  0  0
 14  5  1  0  0  0  0
 15 20  2  0  0  0  0
 16 12  1  0  0  0  0
 17 16  1  0  0  0  0
 19 10  2  0  0  0  0
 20 19  1  0  0  0  0
 21 27  1  0  0  0  0
 22 31  1  0  0  0  0
 22 26  2  0  0  0  0
 23 30  1  0  0  0  0
 23 28  2  0  0  0  0
 24 29  1  0  0  0  0
 25 24  2  0  0  0  0
 27 25  1  0  0  0  0
 27 30  2  0  0  0  0
 28 22  1  0  0  0  0
 29 31  2  0  0  0  0
 30 29  1  0  0  0  0
M  END
>  <MODEL>
9

>  <REMARK>
 VINA RESULT:      -9.9      3.256      7.689
  Name = 
  2 active torsions:
  status: ('A' for Active; 'I' for Inactive)
    1  A    between atoms: C_9  and  N_23
    2  A    between atoms: C_15  and  N_23
                            x       y       z     vdW  Elec       q    Type
                         _______ _______ _______ _____ _____    ______ ____

>  <TORSDO>
F 2

$$$$
