=
 OpenBabel10272401503D

 28 31  0  0  1  0  0  0  0  0999 V2000
  188.2580  178.0100  139.5760 C   0  0  1  0  0  3  0  0  0  0  0  0
  184.8220  178.9280  139.8170 C   0  0  0  0  0  3  0  0  0  0  0  0
  186.8310  178.2700  139.4140 N   0  0  0  0  0  0  0  0  0  0  0  0
  184.8300  178.4490  138.5150 C   0  0  0  0  0  3  0  0  0  0  0  0
  186.0570  178.8110  140.3370 N   0  0  0  0  0  0  0  0  0  0  0  0
  186.1330  178.0420  138.2910 C   0  0  0  0  0  3  0  0  0  0  0  0
  188.9740  179.7170  138.0590 O   0  0  0  0  0  0  0  0  0  0  0  0
  189.8940  177.6230  137.6620 N   0  0  0  0  0  2  0  0  0  0  0  0
  189.0370  178.5040  138.3930 C   0  0  0  0  0  0  0  0  0  0  0  0
  190.0660  176.2180  138.0030 C   0  0  2  0  0  3  0  0  0  0  0  0
  191.6270  173.9560  137.2270 C   0  0  0  0  0  2  0  0  0  0  0  0
  191.5550  175.9420  138.2590 C   0  0  0  0  0  2  0  0  0  0  0  0
  188.0020  175.2060  136.9810 C   0  0  0  0  0  1  0  0  0  0  0  0
  189.5090  175.3270  136.8810 C   0  0  2  0  0  3  0  0  0  0  0  0
  190.1300  173.9260  136.8810 C   0  0  0  0  0  2  0  0  0  0  0  0
  192.1400  175.2640  137.1770 O   0  0  0  0  0  0  0  0  0  0  0  0
  188.7910  178.6240  140.8720 C   0  0  0  0  0  2  0  0  0  0  0  0
  187.4200  177.1550  143.3710 C   0  0  0  0  0  3  0  0  0  0  0  0
  189.5050  178.0480  144.1950 C   0  0  0  0  0  0  0  0  0  0  0  0
  189.4020  177.5900  141.8250 C   0  0  2  0  0  3  0  0  0  0  0  0
  187.6880  177.6590  145.7320 C   0  0  0  0  0  0  0  0  0  0  0  0
  188.7280  177.5950  143.1500 C   0  0  0  0  0  0  0  0  0  0  0  0
  191.6620  176.5440  141.9280 C   0  0  0  0  0  1  0  0  0  0  0  0
  189.0020  178.0840  145.4980 C   0  0  0  0  0  3  0  0  0  0  0  0
  191.1560  178.5260  143.7560 S   0  0  0  0  0  0  0  0  0  0  0  0
  187.1310  177.6970  147.1090 C   0  0  0  0  0  1  0  0  0  0  0  0
  186.8990  177.1910  144.6700 C   0  0  0  0  0  3  0  0  0  0  0  0
  190.8960  177.8440  142.0690 C   0  0  2  0  0  3  0  0  0  0  0  0
  1 17  1  1  0  0  0
  2  5  2  0  0  0  0
  3  1  1  0  0  0  0
  3  5  1  0  0  0  0
  4  2  1  0  0  0  0
  6  4  2  0  0  0  0
  6  3  1  0  0  0  0
  7  9  2  0  0  0  0
  8  9  1  0  0  0  0
  9  1  1  0  0  0  0
 10  8  1  6  0  0  0
 10 12  1  0  0  0  0
 14 15  1  0  0  0  0
 14 13  1  1  0  0  0
 14 10  1  0  0  0  0
 15 11  1  0  0  0  0
 16 11  1  0  0  0  0
 16 12  1  0  0  0  0
 18 27  1  0  0  0  0
 19 24  2  0  0  0  0
 20 17  1  6  0  0  0
 20 28  1  0  0  0  0
 20 22  1  0  0  0  0
 21 26  1  0  0  0  0
 22 18  2  0  0  0  0
 22 19  1  0  0  0  0
 24 21  1  0  0  0  0
 25 19  1  0  0  0  0
 27 21  2  0  0  0  0
 28 23  1  1  0  0  0
 28 25  1  0  0  0  0
M  END
>  <MODEL>
1

>  <REMARK>
 VINA RESULT:      -7.8      0.000      0.000
  Name = 
  5 active torsions:
  status: ('A' for Active; 'I' for Inactive)
    1  A    between atoms: N_2  and  C_3
    2  A    between atoms: C_10  and  C_17
    3  A    between atoms: N_16  and  C_27
    4  A    between atoms: C_17  and  C_27
    5  A    between atoms: C_26  and  C_27
                            x       y       z     vdW  Elec       q    Type
                         _______ _______ _______ _____ _____    ______ ____

>  <TORSDO>
F 5

$$$$
=
 OpenBabel10272401503D

 28 31  0  0  1  0  0  0  0  0999 V2000
  185.9880  178.3690  141.0110 C   0  0  1  0  0  3  0  0  0  0  0  0
  183.8640  179.4960  143.6430 C   0  0  0  0  0  3  0  0  0  0  0  0
  184.9410  178.6260  141.9960 N   0  0  0  0  0  0  0  0  0  0  0  0
  183.0180  178.5620  143.0650 C   0  0  0  0  0  3  0  0  0  0  0  0
  185.0270  179.5160  142.9670 N   0  0  0  0  0  0  0  0  0  0  0  0
  183.7390  178.0300  142.0110 C   0  0  0  0  0  3  0  0  0  0  0  0
  184.7820  179.9190  139.6440 O   0  0  0  0  0  0  0  0  0  0  0  0
  186.4130  178.7070  138.5220 N   0  0  0  0  0  2  0  0  0  0  0  0
  185.6750  179.0320  139.7020 C   0  0  0  0  0  0  0  0  0  0  0  0
  187.4930  177.7300  138.5050 C   0  0  2  0  0  3  0  0  0  0  0  0
  189.8840  177.1410  137.0590 C   0  0  0  0  0  2  0  0  0  0  0  0
  188.8390  178.4690  138.5280 C   0  0  0  0  0  2  0  0  0  0  0  0
  186.3360  175.7340  137.5010 C   0  0  0  0  0  1  0  0  0  0  0  0
  187.3680  176.8210  137.2720 C   0  0  2  0  0  3  0  0  0  0  0  0
  188.7020  176.1770  136.8780 C   0  0  0  0  0  2  0  0  0  0  0  0
  189.4460  178.4610  137.2610 O   0  0  0  0  0  0  0  0  0  0  0  0
  187.3580  178.8070  141.5290 C   0  0  0  0  0  2  0  0  0  0  0  0
  186.8830  177.2710  144.3030 C   0  0  0  0  0  3  0  0  0  0  0  0
  189.2050  177.9260  144.3030 C   0  0  0  0  0  0  0  0  0  0  0  0
  188.1720  177.6580  142.1360 C   0  0  2  0  0  3  0  0  0  0  0  0
  188.0700  177.5720  146.4010 C   0  0  0  0  0  0  0  0  0  0  0  0
  188.0500  177.6180  143.6170 C   0  0  0  0  0  0  0  0  0  0  0  0
  190.1820  176.4260  141.3290 C   0  0  0  0  0  1  0  0  0  0  0  0
  189.2360  177.9050  145.6990 C   0  0  0  0  0  3  0  0  0  0  0  0
  190.6100  178.3000  143.2860 S   0  0  0  0  0  0  0  0  0  0  0  0
  188.0780  177.5530  147.8870 C   0  0  0  0  0  1  0  0  0  0  0  0
  186.8960  177.2510  145.7030 C   0  0  0  0  0  3  0  0  0  0  0  0
  189.6650  177.7700  141.8010 C   0  0  2  0  0  3  0  0  0  0  0  0
  1 17  1  1  0  0  0
  1  3  1  0  0  0  0
  3  6  1  0  0  0  0
  3  5  1  0  0  0  0
  4  2  1  0  0  0  0
  5  2  2  0  0  0  0
  6  4  2  0  0  0  0
  7  9  2  0  0  0  0
  8  9  1  0  0  0  0
  9  1  1  0  0  0  0
 10  8  1  6  0  0  0
 10 12  1  0  0  0  0
 11 16  1  0  0  0  0
 14 13  1  1  0  0  0
 14 10  1  0  0  0  0
 15 11  1  0  0  0  0
 15 14  1  0  0  0  0
 16 12  1  0  0  0  0
 18 27  1  0  0  0  0
 19 24  2  0  0  0  0
 20 17  1  1  0  0  0
 20 22  1  0  0  0  0
 21 26  1  0  0  0  0
 22 18  2  0  0  0  0
 22 19  1  0  0  0  0
 24 21  1  0  0  0  0
 25 19  1  0  0  0  0
 27 21  2  0  0  0  0
 28 23  1  1  0  0  0
 28 20  1  0  0  0  0
 28 25  1  0  0  0  0
M  END
>  <MODEL>
2

>  <REMARK>
 VINA RESULT:      -7.4      1.876      2.792
  Name = 
  5 active torsions:
  status: ('A' for Active; 'I' for Inactive)
    1  A    between atoms: N_2  and  C_3
    2  A    between atoms: C_10  and  C_17
    3  A    between atoms: N_16  and  C_27
    4  A    between atoms: C_17  and  C_27
    5  A    between atoms: C_26  and  C_27
                            x       y       z     vdW  Elec       q    Type
                         _______ _______ _______ _____ _____    ______ ____

>  <TORSDO>
F 5

$$$$
=
 OpenBabel10272401503D

 28 31  0  0  1  0  0  0  0  0999 V2000
  189.4260  177.9480  143.2450 C   0  0  1  0  0  3  0  0  0  0  0  0
  190.7690  177.0500  140.0670 C   0  0  0  0  0  3  0  0  0  0  0  0
  189.7150  177.6460  141.8460 N   0  0  0  0  0  0  0  0  0  0  0  0
  189.4540  177.2760  139.6930 C   0  0  0  0  0  3  0  0  0  0  0  0
  190.8970  177.2780  141.3870 N   0  0  0  0  0  0  0  0  0  0  0  0
  188.8080  177.6490  140.8580 C   0  0  0  0  0  3  0  0  0  0  0  0
  190.7870  179.9120  143.3770 O   0  0  0  0  0  0  0  0  0  0  0  0
  191.2210  178.3230  145.0130 N   0  0  0  0  0  2  0  0  0  0  0  0
  190.5150  178.7790  143.8560 C   0  0  0  0  0  0  0  0  0  0  0  0
  190.9430  177.0500  145.6630 C   0  0  2  0  0  3  0  0  0  0  0  0
  191.9180  175.4290  147.8020 C   0  0  0  0  0  2  0  0  0  0  0  0
  190.8160  177.2760  147.1770 C   0  0  0  0  0  2  0  0  0  0  0  0
  191.8300  175.4230  143.9610 C   0  0  0  0  0  1  0  0  0  0  0  0
  192.0460  176.0320  145.3320 C   0  0  2  0  0  3  0  0  0  0  0  0
  192.1430  174.9120  146.3740 C   0  0  0  0  0  2  0  0  0  0  0  0
  191.9650  176.8330  147.8540 O   0  0  0  0  0  0  0  0  0  0  0  0
  188.0680  178.6350  143.3950 C   0  0  0  0  0  2  0  0  0  0  0  0
  185.0430  177.8670  142.6620 C   0  0  0  0  0  3  0  0  0  0  0  0
  184.9630  178.8080  144.8830 C   0  0  0  0  0  0  0  0  0  0  0  0
  187.0640  177.8190  144.2180 C   0  0  2  0  0  3  0  0  0  0  0  0
  182.9990  178.8900  143.4870 C   0  0  0  0  0  0  0  0  0  0  0  0
  185.6600  178.1690  143.8800 C   0  0  0  0  0  0  0  0  0  0  0  0
  187.2410  176.7000  146.4380 C   0  0  0  0  0  1  0  0  0  0  0  0
  183.6270  179.1740  144.7060 C   0  0  0  0  0  3  0  0  0  0  0  0
  185.8750  179.0780  146.3810 S   0  0  0  0  0  0  0  0  0  0  0  0
  181.5810  179.2790  143.2740 C   0  0  0  0  0  1  0  0  0  0  0  0
  183.7050  178.2330  142.4670 C   0  0  0  0  0  3  0  0  0  0  0  0
  187.2420  178.0380  145.7260 C   0  0  2  0  0  3  0  0  0  0  0  0
  1 17  1  6  0  0  0
  1  9  1  0  0  0  0
  2  5  2  0  0  0  0
  3  1  1  0  0  0  0
  4  2  1  0  0  0  0
  4  6  2  0  0  0  0
  5  3  1  0  0  0  0
  6  3  1  0  0  0  0
  7  9  2  0  0  0  0
  9  8  1  0  0  0  0
 10  8  1  6  0  0  0
 10 12  1  0  0  0  0
 11 16  1  0  0  0  0
 12 16  1  0  0  0  0
 14 13  1  6  0  0  0
 14 10  1  0  0  0  0
 14 15  1  0  0  0  0
 15 11  1  0  0  0  0
 18 22  1  0  0  0  0
 19 25  1  0  0  0  0
 20 17  1  6  0  0  0
 20 28  1  0  0  0  0
 21 24  2  0  0  0  0
 22 20  1  0  0  0  0
 22 19  2  0  0  0  0
 24 19  1  0  0  0  0
 26 21  1  0  0  0  0
 27 18  2  0  0  0  0
 27 21  1  0  0  0  0
 28 25  1  0  0  0  0
 28 23  1  1  0  0  0
M  END
>  <MODEL>
3

>  <REMARK>
 VINA RESULT:      -7.2      3.880      6.394
  Name = 
  5 active torsions:
  status: ('A' for Active; 'I' for Inactive)
    1  A    between atoms: N_2  and  C_3
    2  A    between atoms: C_10  and  C_17
    3  A    between atoms: N_16  and  C_27
    4  A    between atoms: C_17  and  C_27
    5  A    between atoms: C_26  and  C_27
                            x       y       z     vdW  Elec       q    Type
                         _______ _______ _______ _____ _____    ______ ____

>  <TORSDO>
F 5

$$$$
=
 OpenBabel10272401503D

 28 31  0  0  1  0  0  0  0  0999 V2000
  187.5740  177.9190  138.5990 C   0  0  1  0  0  3  0  0  0  0  0  0
  184.7030  179.1660  140.3060 C   0  0  0  0  0  3  0  0  0  0  0  0
  186.2610  178.3660  139.0550 N   0  0  0  0  0  0  0  0  0  0  0  0
  184.1350  178.9360  139.0620 C   0  0  0  0  0  3  0  0  0  0  0  0
  186.0010  178.8140  140.2700 N   0  0  0  0  0  0  0  0  0  0  0  0
  185.1630  178.4300  138.2860 C   0  0  0  0  0  3  0  0  0  0  0  0
  188.3850  179.6890  137.2070 O   0  0  0  0  0  0  0  0  0  0  0  0
  187.7730  177.7630  136.0650 N   0  0  0  0  0  2  0  0  0  0  0  0
  187.9190  178.5200  137.2690 C   0  0  0  0  0  0  0  0  0  0  0  0
  187.2880  176.3900  136.0430 C   0  0  2  0  0  3  0  0  0  0  0  0
  187.6470  173.9680  134.5740 C   0  0  0  0  0  2  0  0  0  0  0  0
  188.4890  175.4330  136.0440 C   0  0  0  0  0  2  0  0  0  0  0  0
  184.9880  176.6960  135.0700 C   0  0  0  0  0  1  0  0  0  0  0  0
  186.3850  176.1660  134.8190 C   0  0  2  0  0  3  0  0  0  0  0  0
  186.3000  174.6900  134.4150 C   0  0  0  0  0  2  0  0  0  0  0  0
  188.6990  174.8800  134.7700 O   0  0  0  0  0  0  0  0  0  0  0  0
  188.6560  178.2300  139.6340 C   0  0  0  0  0  2  0  0  0  0  0  0
  188.9890  176.6690  142.4150 C   0  0  0  0  0  3  0  0  0  0  0  0
  191.2280  177.1970  141.6840 C   0  0  0  0  0  0  0  0  0  0  0  0
  189.5520  177.0260  139.9530 C   0  0  2  0  0  3  0  0  0  0  0  0
  190.7920  176.8650  144.0320 C   0  0  0  0  0  0  0  0  0  0  0  0
  189.9000  176.9650  141.3960 C   0  0  0  0  0  0  0  0  0  0  0  0
  191.1320  175.7030  138.5520 C   0  0  0  0  0  1  0  0  0  0  0  0
  191.6950  177.1470  142.9990 C   0  0  0  0  0  3  0  0  0  0  0  0
  192.2610  177.5120  140.2760 S   0  0  0  0  0  0  0  0  0  0  0  0
  191.2660  176.8160  145.4400 C   0  0  0  0  0  1  0  0  0  0  0  0
  189.4410  176.6220  143.7400 C   0  0  0  0  0  3  0  0  0  0  0  0
  190.8680  177.0640  139.1640 C   0  0  2  0  0  3  0  0  0  0  0  0
  1  3  1  0  0  0  0
  1 17  1  1  0  0  0
  3  5  1  0  0  0  0
  4  2  1  0  0  0  0
  5  2  2  0  0  0  0
  6  3  1  0  0  0  0
  6  4  2  0  0  0  0
  7  9  2  0  0  0  0
  8  9  1  0  0  0  0
  9  1  1  0  0  0  0
 10 12  1  0  0  0  0
 10  8  1  6  0  0  0
 11 16  1  0  0  0  0
 14 13  1  1  0  0  0
 14 10  1  0  0  0  0
 15 11  1  0  0  0  0
 15 14  1  0  0  0  0
 16 12  1  0  0  0  0
 18 27  1  0  0  0  0
 19 24  2  0  0  0  0
 20 17  1  1  0  0  0
 20 22  1  0  0  0  0
 21 26  1  0  0  0  0
 22 19  1  0  0  0  0
 22 18  2  0  0  0  0
 24 21  1  0  0  0  0
 25 19  1  0  0  0  0
 27 21  2  0  0  0  0
 28 23  1  1  0  0  0
 28 20  1  0  0  0  0
 28 25  1  0  0  0  0
M  END
>  <MODEL>
4

>  <REMARK>
 VINA RESULT:      -6.7      1.985      2.979
  Name = 
  5 active torsions:
  status: ('A' for Active; 'I' for Inactive)
    1  A    between atoms: N_2  and  C_3
    2  A    between atoms: C_10  and  C_17
    3  A    between atoms: N_16  and  C_27
    4  A    between atoms: C_17  and  C_27
    5  A    between atoms: C_26  and  C_27
                            x       y       z     vdW  Elec       q    Type
                         _______ _______ _______ _____ _____    ______ ____

>  <TORSDO>
F 5

$$$$
=
 OpenBabel10272401503D

 28 31  0  0  1  0  0  0  0  0999 V2000
  189.4800  177.6320  143.4250 C   0  0  1  0  0  3  0  0  0  0  0  0
  191.5340  176.9130  146.2490 C   0  0  0  0  0  3  0  0  0  0  0  0
  190.4410  177.1430  144.4100 N   0  0  0  0  0  0  0  0  0  0  0  0
  191.9820  175.9180  145.3940 C   0  0  0  0  0  3  0  0  0  0  0  0
  190.5910  177.6410  145.6230 N   0  0  0  0  0  0  0  0  0  0  0  0
  191.2560  176.0920  144.2290 C   0  0  0  0  0  3  0  0  0  0  0  0
  188.3730  175.5120  143.3460 O   0  0  0  0  0  0  0  0  0  0  0  0
  188.6480  176.5370  141.2810 N   0  0  0  0  0  2  0  0  0  0  0  0
  188.8220  176.4970  142.7000 C   0  0  0  0  0  0  0  0  0  0  0  0
  189.0910  177.6540  140.4580 C   0  0  2  0  0  3  0  0  0  0  0  0
  188.6250  178.7890  137.8800 C   0  0  0  0  0  2  0  0  0  0  0  0
  187.8620  178.4250  139.9540 C   0  0  0  0  0  2  0  0  0  0  0  0
  191.3760  176.8720  139.7540 C   0  0  0  0  0  1  0  0  0  0  0  0
  189.9580  177.1460  139.2950 C   0  0  2  0  0  3  0  0  0  0  0  0
  189.9890  178.1230  138.1150 C   0  0  0  0  0  2  0  0  0  0  0  0
  187.6060  178.1430  138.6020 O   0  0  0  0  0  0  0  0  0  0  0  0
  188.4360  178.5430  144.0730 C   0  0  0  0  0  2  0  0  0  0  0  0
  185.4870  177.7250  143.1160 C   0  0  0  0  0  3  0  0  0  0  0  0
  185.2100  178.7960  145.2600 C   0  0  0  0  0  0  0  0  0  0  0  0
  187.3590  177.7740  144.8480 C   0  0  2  0  0  3  0  0  0  0  0  0
  183.3800  178.7900  143.6900 C   0  0  0  0  0  0  0  0  0  0  0  0
  185.9920  178.1000  144.3640 C   0  0  0  0  0  0  0  0  0  0  0  0
  187.3320  176.7890  147.1370 C   0  0  0  0  0  1  0  0  0  0  0  0
  183.8960  179.1480  144.9420 C   0  0  0  0  0  3  0  0  0  0  0  0
  185.9830  179.1560  146.8170 S   0  0  0  0  0  0  0  0  0  0  0  0
  181.9880  179.1630  143.3270 C   0  0  0  0  0  1  0  0  0  0  0  0
  184.1740  178.0760  142.7790 C   0  0  0  0  0  3  0  0  0  0  0  0
  187.4010  178.0830  146.3510 C   0  0  2  0  0  3  0  0  0  0  0  0
  1 17  1  1  0  0  0
  1  3  1  0  0  0  0
  3  5  1  0  0  0  0
  4  2  1  0  0  0  0
  5  2  2  0  0  0  0
  6  3  1  0  0  0  0
  6  4  2  0  0  0  0
  8  9  1  0  0  0  0
  9  7  2  0  0  0  0
  9  1  1  0  0  0  0
 10  8  1  6  0  0  0
 11 15  1  0  0  0  0
 11 16  1  0  0  0  0
 12 10  1  0  0  0  0
 14 13  1  1  0  0  0
 14 10  1  0  0  0  0
 15 14  1  0  0  0  0
 16 12  1  0  0  0  0
 18 22  1  0  0  0  0
 19 25  1  0  0  0  0
 20 17  1  6  0  0  0
 20 28  1  0  0  0  0
 21 24  2  0  0  0  0
 22 20  1  0  0  0  0
 22 19  2  0  0  0  0
 24 19  1  0  0  0  0
 26 21  1  0  0  0  0
 27 18  2  0  0  0  0
 27 21  1  0  0  0  0
 28 25  1  0  0  0  0
 28 23  1  1  0  0  0
M  END
>  <MODEL>
5

>  <REMARK>
 VINA RESULT:      -6.5      3.256      5.584
  Name = 
  5 active torsions:
  status: ('A' for Active; 'I' for Inactive)
    1  A    between atoms: N_2  and  C_3
    2  A    between atoms: C_10  and  C_17
    3  A    between atoms: N_16  and  C_27
    4  A    between atoms: C_17  and  C_27
    5  A    between atoms: C_26  and  C_27
                            x       y       z     vdW  Elec       q    Type
                         _______ _______ _______ _____ _____    ______ ____

>  <TORSDO>
F 5

$$$$
=
 OpenBabel10272401503D

 28 31  0  0  1  0  0  0  0  0999 V2000
  187.0960  178.1670  143.3370 C   0  0  1  0  0  3  0  0  0  0  0  0
  183.9350  179.4720  144.3460 C   0  0  0  0  0  3  0  0  0  0  0  0
  185.6980  178.5360  143.5410 N   0  0  0  0  0  0  0  0  0  0  0  0
  183.5260  178.7350  143.2450 C   0  0  0  0  0  3  0  0  0  0  0  0
  185.2650  179.3350  144.4980 N   0  0  0  0  0  0  0  0  0  0  0  0
  184.6810  178.1550  142.7520 C   0  0  0  0  0  3  0  0  0  0  0  0
  187.2250  175.7820  143.1960 O   0  0  0  0  0  0  0  0  0  0  0  0
  187.8960  176.6680  145.2340 N   0  0  0  0  0  2  0  0  0  0  0  0
  187.3870  176.8100  143.9060 C   0  0  0  0  0  0  0  0  0  0  0  0
  188.1590  177.8020  146.1100 C   0  0  2  0  0  3  0  0  0  0  0  0
  189.4550  178.3980  148.5840 C   0  0  0  0  0  2  0  0  0  0  0  0
  189.6620  177.8580  146.4200 C   0  0  0  0  0  2  0  0  0  0  0  0
  185.8970  178.1530  147.1530 C   0  0  0  0  0  1  0  0  0  0  0  0
  187.3200  177.6880  147.3920 C   0  0  2  0  0  3  0  0  0  0  0  0
  187.9210  178.4780  148.5600 C   0  0  0  0  0  2  0  0  0  0  0  0
  189.9310  177.3960  147.7190 O   0  0  0  0  0  0  0  0  0  0  0  0
  187.4760  178.2300  141.8570 C   0  0  0  0  0  2  0  0  0  0  0  0
  189.0480  178.5200  139.0770 C   0  0  0  0  0  3  0  0  0  0  0  0
  190.3500  176.9880  140.4120 C   0  0  0  0  0  0  0  0  0  0  0  0
  188.9590  178.5470  141.6260 C   0  0  2  0  0  3  0  0  0  0  0  0
  190.5060  176.8970  138.0080 C   0  0  0  0  0  0  0  0  0  0  0  0
  189.4390  178.0200  140.3220 C   0  0  0  0  0  0  0  0  0  0  0  0
  190.8360  178.9960  143.2030 C   0  0  0  0  0  1  0  0  0  0  0  0
  190.8990  176.4150  139.2640 C   0  0  0  0  0  3  0  0  0  0  0  0
  190.7760  176.5010  142.0650 S   0  0  0  0  0  0  0  0  0  0  0  0
  191.0710  176.2950  136.7720 C   0  0  0  0  0  1  0  0  0  0  0  0
  189.5850  177.9510  137.9150 C   0  0  0  0  0  3  0  0  0  0  0  0
  189.8520  177.9480  142.7210 C   0  0  2  0  0  3  0  0  0  0  0  0
  1 17  1  6  0  0  0
  1  3  1  0  0  0  0
  1  9  1  0  0  0  0
  2  5  2  0  0  0  0
  3  5  1  0  0  0  0
  4  2  1  0  0  0  0
  6  4  2  0  0  0  0
  6  3  1  0  0  0  0
  7  9  2  0  0  0  0
  9  8  1  0  0  0  0
 10  8  1  6  0  0  0
 10 12  1  0  0  0  0
 10 14  1  0  0  0  0
 12 16  1  0  0  0  0
 14 13  1  6  0  0  0
 14 15  1  0  0  0  0
 15 11  1  0  0  0  0
 16 11  1  0  0  0  0
 18 22  1  0  0  0  0
 19 25  1  0  0  0  0
 20 17  1  1  0  0  0
 20 28  1  0  0  0  0
 21 24  2  0  0  0  0
 22 19  2  0  0  0  0
 22 20  1  0  0  0  0
 24 19  1  0  0  0  0
 25 28  1  0  0  0  0
 26 21  1  0  0  0  0
 27 21  1  0  0  0  0
 27 18  2  0  0  0  0
 28 23  1  6  0  0  0
M  END
>  <MODEL>
6

>  <REMARK>
 VINA RESULT:      -6.5      3.179      7.177
  Name = 
  5 active torsions:
  status: ('A' for Active; 'I' for Inactive)
    1  A    between atoms: N_2  and  C_3
    2  A    between atoms: C_10  and  C_17
    3  A    between atoms: N_16  and  C_27
    4  A    between atoms: C_17  and  C_27
    5  A    between atoms: C_26  and  C_27
                            x       y       z     vdW  Elec       q    Type
                         _______ _______ _______ _____ _____    ______ ____

>  <TORSDO>
F 5

$$$$
=
 OpenBabel10272401503D

 28 31  0  0  1  0  0  0  0  0999 V2000
  184.9340  178.4410  140.7150 C   0  0  1  0  0  3  0  0  0  0  0  0
  182.7220  179.1410  143.4220 C   0  0  0  0  0  3  0  0  0  0  0  0
  183.8240  178.6450  141.6410 N   0  0  0  0  0  0  0  0  0  0  0  0
  181.7850  178.8330  142.4480 C   0  0  0  0  0  3  0  0  0  0  0  0
  183.9560  179.0220  142.8990 N   0  0  0  0  0  0  0  0  0  0  0  0
  182.5260  178.5270  141.3210 C   0  0  0  0  0  3  0  0  0  0  0  0
  184.3980  180.3060  139.3140 O   0  0  0  0  0  0  0  0  0  0  0  0
  184.7180  178.3060  138.1800 N   0  0  0  0  0  2  0  0  0  0  0  0
  184.6520  179.0740  139.3840 C   0  0  0  0  0  0  0  0  0  0  0  0
  185.0500  176.8880  138.1590 C   0  0  2  0  0  3  0  0  0  0  0  0
  185.5070  174.7780  136.2910 C   0  0  0  0  0  2  0  0  0  0  0  0
  186.2540  176.6680  137.2310 C   0  0  0  0  0  2  0  0  0  0  0  0
  182.8640  175.8590  138.8620 C   0  0  0  0  0  1  0  0  0  0  0  0
  183.8320  176.0630  137.7130 C   0  0  2  0  0  3  0  0  0  0  0  0
  184.2260  174.7000  137.1350 C   0  0  0  0  0  2  0  0  0  0  0  0
  185.8540  176.1100  136.0050 O   0  0  0  0  0  0  0  0  0  0  0  0
  186.2470  178.9630  141.2980 C   0  0  0  0  0  2  0  0  0  0  0  0
  186.5010  177.2070  143.9690 C   0  0  0  0  0  3  0  0  0  0  0  0
  188.7160  178.0590  143.5290 C   0  0  0  0  0  0  0  0  0  0  0  0
  187.2520  177.8490  141.6180 C   0  0  2  0  0  3  0  0  0  0  0  0
  188.0980  177.4670  145.7830 C   0  0  0  0  0  0  0  0  0  0  0  0
  187.4620  177.6990  143.0820 C   0  0  0  0  0  0  0  0  0  0  0  0
  189.1170  176.8530  140.2980 C   0  0  0  0  0  1  0  0  0  0  0  0
  189.0540  177.9460  144.8790 C   0  0  0  0  0  3  0  0  0  0  0  0
  189.8330  178.6200  142.2690 S   0  0  0  0  0  0  0  0  0  0  0  0
  188.4340  177.3480  147.2250 C   0  0  0  0  0  1  0  0  0  0  0  0
  186.8230  177.0940  145.3280 C   0  0  0  0  0  3  0  0  0  0  0  0
  188.6240  178.1130  140.9820 C   0  0  2  0  0  3  0  0  0  0  0  0
  1 17  1  1  0  0  0
  1  3  1  0  0  0  0
  3  5  1  0  0  0  0
  4  2  1  0  0  0  0
  5  2  2  0  0  0  0
  6  3  1  0  0  0  0
  6  4  2  0  0  0  0
  7  9  2  0  0  0  0
  8  9  1  0  0  0  0
  9  1  1  0  0  0  0
 10  8  1  6  0  0  0
 11 15  1  0  0  0  0
 12 10  1  0  0  0  0
 14 10  1  0  0  0  0
 14 13  1  1  0  0  0
 15 14  1  0  0  0  0
 16 11  1  0  0  0  0
 16 12  1  0  0  0  0
 18 27  1  0  0  0  0
 19 24  2  0  0  0  0
 20 17  1  1  0  0  0
 20 22  1  0  0  0  0
 21 26  1  0  0  0  0
 22 19  1  0  0  0  0
 22 18  2  0  0  0  0
 24 21  1  0  0  0  0
 25 19  1  0  0  0  0
 27 21  2  0  0  0  0
 28 23  1  1  0  0  0
 28 20  1  0  0  0  0
 28 25  1  0  0  0  0
M  END
>  <MODEL>
7

>  <REMARK>
 VINA RESULT:      -6.4      2.826      3.993
  Name = 
  5 active torsions:
  status: ('A' for Active; 'I' for Inactive)
    1  A    between atoms: N_2  and  C_3
    2  A    between atoms: C_10  and  C_17
    3  A    between atoms: N_16  and  C_27
    4  A    between atoms: C_17  and  C_27
    5  A    between atoms: C_26  and  C_27
                            x       y       z     vdW  Elec       q    Type
                         _______ _______ _______ _____ _____    ______ ____

>  <TORSDO>
F 5

$$$$
=
 OpenBabel10272401503D

 28 31  0  0  1  0  0  0  0  0999 V2000
  183.2130  177.6710  138.9110 C   0  0  1  0  0  3  0  0  0  0  0  0
  180.1860  177.1580  137.0990 C   0  0  0  0  0  3  0  0  0  0  0  0
  182.1430  177.4710  137.9390 N   0  0  0  0  0  0  0  0  0  0  0  0
  181.0530  177.3350  136.0310 C   0  0  0  0  0  3  0  0  0  0  0  0
  180.8780  177.2520  138.2490 N   0  0  0  0  0  0  0  0  0  0  0  0
  182.2940  177.5390  136.6070 C   0  0  0  0  0  3  0  0  0  0  0  0
  183.0550  180.0560  138.8090 O   0  0  0  0  0  0  0  0  0  0  0  0
  185.2210  179.2250  138.7090 N   0  0  0  0  0  2  0  0  0  0  0  0
  183.8050  179.0440  138.7920 C   0  0  0  0  0  0  0  0  0  0  0  0
  186.1670  178.1180  138.7300 C   0  0  2  0  0  3  0  0  0  0  0  0
  188.9830  177.6500  138.7510 C   0  0  0  0  0  2  0  0  0  0  0  0
  187.1700  178.3370  139.8720 C   0  0  0  0  0  2  0  0  0  0  0  0
  185.9950  177.2790  136.3650 C   0  0  0  0  0  1  0  0  0  0  0  0
  186.8730  177.9970  137.3700 C   0  0  2  0  0  3  0  0  0  0  0  0
  188.2210  177.2750  137.4710 C   0  0  0  0  0  2  0  0  0  0  0  0
  188.4130  178.7700  139.3800 O   0  0  0  0  0  0  0  0  0  0  0  0
  182.7240  177.4110  140.3360 C   0  0  0  0  0  2  0  0  0  0  0  0
  184.6200  178.9500  142.4150 C   0  0  0  0  0  3  0  0  0  0  0  0
  182.5010  178.6740  143.5370 C   0  0  0  0  0  0  0  0  0  0  0  0
  182.4360  178.6960  141.1220 C   0  0  2  0  0  3  0  0  0  0  0  0
  184.5140  178.9180  144.8420 C   0  0  0  0  0  0  0  0  0  0  0  0
  183.2340  178.7690  142.3730 C   0  0  0  0  0  0  0  0  0  0  0  0
  180.4520  180.2030  141.1880 C   0  0  0  0  0  1  0  0  0  0  0  0
  183.1240  178.7500  144.7840 C   0  0  0  0  0  3  0  0  0  0  0  0
  180.7500  178.4930  143.3120 S   0  0  0  0  0  0  0  0  0  0  0  0
  185.1980  178.9910  146.1590 C   0  0  0  0  0  1  0  0  0  0  0  0
  185.2610  179.0210  143.6580 C   0  0  0  0  0  3  0  0  0  0  0  0
  180.9560  178.8110  141.5130 C   0  0  2  0  0  3  0  0  0  0  0  0
  1 17  1  1  0  0  0
  2  5  2  0  0  0  0
  3  5  1  0  0  0  0
  3  1  1  0  0  0  0
  4  6  2  0  0  0  0
  4  2  1  0  0  0  0
  6  3  1  0  0  0  0
  8  9  1  0  0  0  0
  9  7  2  0  0  0  0
  9  1  1  0  0  0  0
 10  8  1  6  0  0  0
 10 12  1  0  0  0  0
 11 16  1  0  0  0  0
 14 13  1  6  0  0  0
 14 15  1  0  0  0  0
 14 10  1  0  0  0  0
 15 11  1  0  0  0  0
 16 12  1  0  0  0  0
 18 27  1  0  0  0  0
 19 24  2  0  0  0  0
 20 17  1  1  0  0  0
 20 28  1  0  0  0  0
 20 22  1  0  0  0  0
 21 26  1  0  0  0  0
 22 18  2  0  0  0  0
 22 19  1  0  0  0  0
 24 21  1  0  0  0  0
 25 19  1  0  0  0  0
 27 21  2  0  0  0  0
 28 23  1  1  0  0  0
 28 25  1  0  0  0  0
M  END
>  <MODEL>
8

>  <REMARK>
 VINA RESULT:      -6.2      3.826      5.905
  Name = 
  5 active torsions:
  status: ('A' for Active; 'I' for Inactive)
    1  A    between atoms: N_2  and  C_3
    2  A    between atoms: C_10  and  C_17
    3  A    between atoms: N_16  and  C_27
    4  A    between atoms: C_17  and  C_27
    5  A    between atoms: C_26  and  C_27
                            x       y       z     vdW  Elec       q    Type
                         _______ _______ _______ _____ _____    ______ ____

>  <TORSDO>
F 5

$$$$
=
 OpenBabel10272401503D

 28 31  0  0  1  0  0  0  0  0999 V2000
  185.4790  177.9720  142.2060 C   0  0  1  0  0  3  0  0  0  0  0  0
  182.1540  178.8210  143.1740 C   0  0  0  0  0  3  0  0  0  0  0  0
  184.0590  178.2900  142.3240 N   0  0  0  0  0  0  0  0  0  0  0  0
  181.9760  178.7710  141.7990 C   0  0  0  0  0  3  0  0  0  0  0  0
  183.4350  178.5290  143.4630 N   0  0  0  0  0  0  0  0  0  0  0  0
  183.2170  178.4340  141.2890 C   0  0  0  0  0  3  0  0  0  0  0  0
  186.0190  180.2880  142.4680 O   0  0  0  0  0  0  0  0  0  0  0  0
  187.3900  179.1360  140.9910 N   0  0  0  0  0  2  0  0  0  0  0  0
  186.2850  179.1980  141.8950 C   0  0  0  0  0  0  0  0  0  0  0  0
  187.8010  177.9110  140.3200 C   0  0  2  0  0  3  0  0  0  0  0  0
  190.0120  176.8590  138.8500 C   0  0  0  0  0  2  0  0  0  0  0  0
  189.1880  177.4980  140.8330 C   0  0  0  0  0  2  0  0  0  0  0  0
  186.3930  177.9950  138.2360 C   0  0  0  0  0  1  0  0  0  0  0  0
  187.7970  178.1130  138.7960 C   0  0  2  0  0  3  0  0  0  0  0  0
  188.7150  177.1240  138.0700 C   0  0  0  0  0  2  0  0  0  0  0  0
  190.1870  177.7910  139.8890 O   0  0  0  0  0  0  0  0  0  0  0  0
  186.0000  177.2830  143.4680 C   0  0  0  0  0  2  0  0  0  0  0  0
  189.0990  177.7570  144.1420 C   0  0  0  0  0  3  0  0  0  0  0  0
  188.0080  177.4160  146.2670 C   0  0  0  0  0  0  0  0  0  0  0  0
  186.6200  178.2570  144.4770 C   0  0  2  0  0  3  0  0  0  0  0  0
  190.3580  176.9260  146.0470 C   0  0  0  0  0  0  0  0  0  0  0  0
  187.9540  177.7940  144.9430 C   0  0  0  0  0  0  0  0  0  0  0  0
  185.6070  179.9140  146.0390 C   0  0  0  0  0  1  0  0  0  0  0  0
  189.2050  176.9820  146.8400 C   0  0  0  0  0  3  0  0  0  0  0  0
  186.4800  177.5660  147.1570 S   0  0  0  0  0  0  0  0  0  0  0  0
  191.6410  176.4580  146.6330 C   0  0  0  0  0  1  0  0  0  0  0  0
  190.3060  177.3170  144.7000 C   0  0  0  0  0  3  0  0  0  0  0  0
  185.7370  178.4380  145.7190 C   0  0  2  0  0  3  0  0  0  0  0  0
  1  3  1  0  0  0  0
  1 17  1  1  0  0  0
  2  5  2  0  0  0  0
  3  5  1  0  0  0  0
  4  2  1  0  0  0  0
  6  4  2  0  0  0  0
  6  3  1  0  0  0  0
  8  9  1  0  0  0  0
  9  1  1  0  0  0  0
  9  7  2  0  0  0  0
 10 12  1  0  0  0  0
 10  8  1  1  0  0  0
 11 16  1  0  0  0  0
 14 13  1  6  0  0  0
 14 10  1  0  0  0  0
 15 14  1  0  0  0  0
 15 11  1  0  0  0  0
 16 12  1  0  0  0  0
 18 27  2  0  0  0  0
 18 22  1  0  0  0  0
 19 24  1  0  0  0  0
 19 25  1  0  0  0  0
 20 17  1  6  0  0  0
 20 22  1  0  0  0  0
 20 28  1  0  0  0  0
 21 26  1  0  0  0  0
 21 24  2  0  0  0  0
 22 19  2  0  0  0  0
 27 21  1  0  0  0  0
 28 23  1  1  0  0  0
 28 25  1  0  0  0  0
M  END
>  <MODEL>
9

>  <REMARK>
 VINA RESULT:      -6.1      2.593      4.228
  Name = 
  5 active torsions:
  status: ('A' for Active; 'I' for Inactive)
    1  A    between atoms: N_2  and  C_3
    2  A    between atoms: C_10  and  C_17
    3  A    between atoms: N_16  and  C_27
    4  A    between atoms: C_17  and  C_27
    5  A    between atoms: C_26  and  C_27
                            x       y       z     vdW  Elec       q    Type
                         _______ _______ _______ _____ _____    ______ ____

>  <TORSDO>
F 5

$$$$
