=
 OpenBabel10272414553D

 37 40  0  0  1  0  0  0  0  0999 V2000
  188.7000  177.8010  136.9880 C   0  0  0  0  0  2  0  0  0  0  0  0
  191.6280  174.6600  137.5930 C   0  0  0  0  0  2  0  0  0  0  0  0
  186.0510  174.1720  136.0500 C   0  0  0  0  0  2  0  0  0  0  0  0
  189.4000  176.5300  137.4800 C   0  0  2  0  0  3  0  0  0  0  0  0
  187.1750  175.1650  136.0710 C   0  0  0  0  0  0  0  0  0  0  0  0
  190.6030  176.8340  138.2710 N   0  0  0  0  0  0  0  0  0  0  0  0
  186.8490  176.4200  135.9800 N   0  0  0  0  0  0  0  0  0  0  0  0
  188.6040  174.6020  136.0600 C   0  0  2  0  0  3  0  0  0  0  0  0
  187.6450  172.4200  136.9010 C   0  0  0  0  0  2  0  0  0  0  0  0
  187.7120  177.5790  135.8280 C   0  0  2  0  0  3  0  0  0  0  0  0
  188.7290  173.4710  137.0910 C   0  0  0  0  0  2  0  0  0  0  0  0
  191.1630  175.5660  138.7440 C   0  0  0  0  0  2  0  0  0  0  0  0
  189.7190  175.6390  136.2720 C   0  0  2  0  0  3  0  0  0  0  0  0
  186.2740  173.0700  137.0860 C   0  0  2  0  0  3  0  0  0  0  0  0
  191.1980  175.1460  136.2000 C   0  0  1  0  0  0  0  0  0  0  0  0
  185.2170  172.0840  137.0370 N   0  0  0  0  0  0  0  0  0  0  0  0
  184.0020  172.3910  136.7450 C   0  0  0  0  0  2  0  0  0  0  0  0
  189.4990  178.0150  134.3460 O   0  0  0  0  0  0  0  0  0  0  0  0
  188.3520  177.6220  134.4750 C   0  0  0  0  0  3  0  0  0  0  0  0
  192.0630  176.2150  135.8460 O   0  0  0  0  0  0  0  0  0  0  0  0
  193.4000  175.7760  135.8310 C   0  0  0  0  0  2  0  0  0  0  0  0
  195.1470  176.9410  135.1590 C   0  0  0  0  0  1  0  0  0  0  0  0
  194.2370  176.8230  136.2090 O   0  0  0  0  0  0  0  0  0  0  0  0
  191.3460  173.9680  135.2130 C   0  0  0  0  0  2  0  0  0  0  0  0
  191.8910  172.7130  135.8800 C   0  0  0  0  0  2  0  0  0  0  0  0
  192.8560  172.0780  135.0000 N   0  0  0  0  0  2  0  0  0  0  0  0
  194.5590  172.2600  136.7140 C   0  0  0  0  0  1  0  0  0  0  0  0
  193.7530  171.3140  135.8470 C   0  0  0  0  0  2  0  0  0  0  0  0
  190.1950  177.5420  139.4760 C   0  0  0  0  0  2  0  0  0  0  0  0
  191.2330  177.3380  140.5650 C   0  0  0  0  0  2  0  0  0  0  0  0
  191.2270  177.9930  142.9790 C   0  0  0  0  0  3  0  0  0  0  0  0
  190.5810  177.3770  141.9010 C   0  0  0  0  0  0  0  0  0  0  0  0
  189.3340  176.7730  142.0900 C   0  0  0  0  0  3  0  0  0  0  0  0
  187.5230  176.2070  143.5310 F   0  0  0  0  0  0  0  0  0  0  0  0
  189.3730  177.4120  144.4250 C   0  0  0  0  0  3  0  0  0  0  0  0
  188.7300  176.7920  143.3500 C   0  0  0  0  0  0  0  0  0  0  0  0
  190.6220  178.0120  144.2390 C   0  0  0  0  0  3  0  0  0  0  0  0
  2 12  1  0  0  0  0
  3  5  1  0  0  0  0
  3 14  1  0  0  0  0
  4  1  1  6  0  0  0
  4  6  1  0  0  0  0
  6 12  1  0  0  0  0
  6 29  1  0  0  0  0
  7  5  2  0  0  0  0
  8  5  1  0  0  0  0
  8 13  1  0  0  0  0
  8 11  1  1  0  0  0
  9 14  1  0  0  0  0
  9 11  1  0  0  0  0
 10 19  1  6  0  0  0
 10  7  1  0  0  0  0
 10  1  1  0  0  0  0
 13  4  1  0  0  0  0
 15 13  1  0  0  0  0
 15  2  1  0  0  0  0
 16 14  1  0  0  0  0
 17 16  2  0  0  0  0
 18 19  2  0  0  0  0
 20 15  1  0  0  0  0
 21 20  1  0  0  0  0
 21 23  1  0  0  0  0
 22 23  1  0  0  0  0
 24 25  1  0  0  0  0
 24 15  1  0  0  0  0
 26 28  1  0  0  0  0
 26 25  1  0  0  0  0
 28 27  1  0  0  0  0
 29 30  1  0  0  0  0
 30 32  1  0  0  0  0
 31 37  1  0  0  0  0
 32 33  1  0  0  0  0
 32 31  2  0  0  0  0
 33 36  2  0  0  0  0
 36 34  1  0  0  0  0
 36 35  1  0  0  0  0
 37 35  2  0  0  0  0
M  END
>  <MODEL>
1

>  <REMARK>
 VINA RESULT:      -5.3      0.000      0.000
  Name = 
  12 active torsions:
  status: ('A' for Active; 'I' for Inactive)
    1  A    between atoms: O_1  and  C_5
    2  A    between atoms: O_1  and  C_36
    3  A    between atoms: N_3  and  C_32
    4  A    between atoms: C_5  and  O_23
    5  A    between atoms: C_6  and  C_31
    6  A    between atoms: N_14  and  C_37
    7  A    between atoms: C_17  and  N_26
    8  A    between atoms: C_17  and  C_33
    9  A    between atoms: CA_24  and  C_28
   10  A    between atoms: N_26  and  C_34
   11  A    between atoms: C_31  and  C_37
   12  A    between atoms: C_33  and  C_36
                            x       y       z     vdW  Elec       q    Type
                         _______ _______ _______ _____ _____    ______ ____

>  <TORSDO>
F 12

$$$$
=
 OpenBabel10272414553D

 37 40  0  0  1  0  0  0  0  0999 V2000
  188.2670  177.9360  137.0660 C   0  0  0  0  0  2  0  0  0  0  0  0
  191.0600  174.6240  137.2620 C   0  0  0  0  0  2  0  0  0  0  0  0
  185.3060  174.4760  136.4820 C   0  0  0  0  0  2  0  0  0  0  0  0
  188.9500  176.6200  137.4560 C   0  0  2  0  0  3  0  0  0  0  0  0
  186.4800  175.4030  136.3550 C   0  0  0  0  0  0  0  0  0  0  0  0
  190.2640  176.8450  138.0790 N   0  0  0  0  0  0  0  0  0  0  0  0
  186.2190  176.6750  136.3120 N   0  0  0  0  0  0  0  0  0  0  0  0
  187.8580  174.7580  136.1500 C   0  0  2  0  0  3  0  0  0  0  0  0
  186.8940  172.6260  137.1060 C   0  0  0  0  0  2  0  0  0  0  0  0
  187.1200  177.7840  136.0500 C   0  0  2  0  0  3  0  0  0  0  0  0
  188.0540  173.6100  137.1510 C   0  0  0  0  0  2  0  0  0  0  0  0
  190.8070  175.5430  138.4680 C   0  0  0  0  0  2  0  0  0  0  0  0
  189.0510  175.7270  136.2130 C   0  0  2  0  0  3  0  0  0  0  0  0
  185.6020  173.3520  137.4750 C   0  0  2  0  0  3  0  0  0  0  0  0
  190.4760  175.1490  135.9410 C   0  0  1  0  0  0  0  0  0  0  0  0
  184.4910  172.4290  137.5660 N   0  0  0  0  0  0  0  0  0  0  0  0
  184.1680  171.6440  136.6000 C   0  0  0  0  0  2  0  0  0  0  0  0
  188.7330  178.0670  134.3470 O   0  0  0  0  0  0  0  0  0  0  0  0
  187.5740  177.8040  134.6230 C   0  0  0  0  0  3  0  0  0  0  0  0
  191.3470  176.1700  135.4770 O   0  0  0  0  0  0  0  0  0  0  0  0
  192.4680  175.6040  134.8440 C   0  0  0  0  0  2  0  0  0  0  0  0
  194.3520  175.5720  135.9890 C   0  0  0  0  0  1  0  0  0  0  0  0
  193.5980  176.3680  135.1290 O   0  0  0  0  0  0  0  0  0  0  0  0
  190.4210  173.9760  134.9390 C   0  0  0  0  0  2  0  0  0  0  0  0
  191.0780  172.7150  135.4810 C   0  0  0  0  0  2  0  0  0  0  0  0
  191.6230  171.9420  134.3800 N   0  0  0  0  0  2  0  0  0  0  0  0
  193.3950  171.9230  136.0310 C   0  0  0  0  0  1  0  0  0  0  0  0
  193.0640  171.9270  134.5530 C   0  0  0  0  0  2  0  0  0  0  0  0
  190.0640  177.5630  139.3300 C   0  0  0  0  0  2  0  0  0  0  0  0
  191.1980  177.2460  140.2880 C   0  0  0  0  0  2  0  0  0  0  0  0
  189.3990  177.7120  141.9620 C   0  0  0  0  0  3  0  0  0  0  0  0
  190.7040  177.2880  141.6900 C   0  0  0  0  0  0  0  0  0  0  0  0
  191.5540  176.9330  142.7430 C   0  0  0  0  0  3  0  0  0  0  0  0
  191.9210  176.6470  145.0790 F   0  0  0  0  0  0  0  0  0  0  0  0
  189.7910  177.4100  144.3320 C   0  0  0  0  0  3  0  0  0  0  0  0
  191.0970  176.9920  144.0620 C   0  0  0  0  0  0  0  0  0  0  0  0
  188.9420  177.7700  143.2820 C   0  0  0  0  0  3  0  0  0  0  0  0
  2 12  1  0  0  0  0
  3 14  1  0  0  0  0
  4  1  1  6  0  0  0
  4  6  1  0  0  0  0
  5  3  1  0  0  0  0
  6 12  1  0  0  0  0
  6 29  1  0  0  0  0
  7  5  2  0  0  0  0
  8 13  1  0  0  0  0
  8  5  1  0  0  0  0
  8 11  1  1  0  0  0
  9 11  1  0  0  0  0
  9 14  1  0  0  0  0
 10 19  1  6  0  0  0
 10  7  1  0  0  0  0
 10  1  1  0  0  0  0
 13  4  1  0  0  0  0
 14 16  1  0  0  0  0
 15 13  1  0  0  0  0
 15  2  1  0  0  0  0
 17 16  2  0  0  0  0
 18 19  2  0  0  0  0
 20 15  1  0  0  0  0
 21 23  1  0  0  0  0
 21 20  1  0  0  0  0
 23 22  1  0  0  0  0
 24 25  1  0  0  0  0
 24 15  1  0  0  0  0
 26 28  1  0  0  0  0
 26 25  1  0  0  0  0
 28 27  1  0  0  0  0
 29 30  1  0  0  0  0
 30 32  1  0  0  0  0
 31 37  1  0  0  0  0
 32 31  2  0  0  0  0
 32 33  1  0  0  0  0
 33 36  2  0  0  0  0
 36 35  1  0  0  0  0
 36 34  1  0  0  0  0
 37 35  2  0  0  0  0
M  END
>  <MODEL>
2

>  <REMARK>
 VINA RESULT:      -5.1      1.152      1.352
  Name = 
  12 active torsions:
  status: ('A' for Active; 'I' for Inactive)
    1  A    between atoms: O_1  and  C_5
    2  A    between atoms: O_1  and  C_36
    3  A    between atoms: N_3  and  C_32
    4  A    between atoms: C_5  and  O_23
    5  A    between atoms: C_6  and  C_31
    6  A    between atoms: N_14  and  C_37
    7  A    between atoms: C_17  and  N_26
    8  A    between atoms: C_17  and  C_33
    9  A    between atoms: CA_24  and  C_28
   10  A    between atoms: N_26  and  C_34
   11  A    between atoms: C_31  and  C_37
   12  A    between atoms: C_33  and  C_36
                            x       y       z     vdW  Elec       q    Type
                         _______ _______ _______ _____ _____    ______ ____

>  <TORSDO>
F 12

$$$$
=
 OpenBabel10272414553D

 37 40  0  0  1  0  0  0  0  0999 V2000
  186.0670  176.3470  137.3350 C   0  0  0  0  0  2  0  0  0  0  0  0
  181.8490  176.9700  138.1260 C   0  0  0  0  0  2  0  0  0  0  0  0
  186.4240  178.7960  141.2020 C   0  0  0  0  0  2  0  0  0  0  0  0
  184.7000  176.3930  138.0270 C   0  0  2  0  0  3  0  0  0  0  0  0
  186.0530  178.3240  139.8270 C   0  0  0  0  0  0  0  0  0  0  0  0
  183.7260  175.5010  137.3810 N   0  0  0  0  0  0  0  0  0  0  0  0
  187.0240  177.9050  139.0700 N   0  0  0  0  0  0  0  0  0  0  0  0
  184.5900  178.5090  139.3970 C   0  0  2  0  0  3  0  0  0  0  0  0
  183.9950  178.6760  141.8470 C   0  0  0  0  0  2  0  0  0  0  0  0
  186.9920  177.5340  137.6660 C   0  0  2  0  0  3  0  0  0  0  0  0
  183.6520  178.0290  140.5130 C   0  0  0  0  0  2  0  0  0  0  0  0
  182.4780  175.5680  138.1440 C   0  0  0  0  0  2  0  0  0  0  0  0
  184.2110  177.8470  138.0630 C   0  0  2  0  0  3  0  0  0  0  0  0
  185.4200  178.2960  142.2410 C   0  0  2  0  0  3  0  0  0  0  0  0
  182.7580  178.0560  137.5300 C   0  0  1  0  0  0  0  0  0  0  0  0
  185.7470  178.7860  143.5620 N   0  0  0  0  0  0  0  0  0  0  0  0
  184.8480  179.1870  144.3900 C   0  0  0  0  0  2  0  0  0  0  0  0
  187.5610  179.6630  136.8150 O   0  0  0  0  0  0  0  0  0  0  0  0
  186.7830  178.7240  136.7810 C   0  0  0  0  0  3  0  0  0  0  0  0
  182.7180  177.9060  136.1190 O   0  0  0  0  0  0  0  0  0  0  0  0
  181.4060  178.0930  135.6460 C   0  0  0  0  0  2  0  0  0  0  0  0
  180.9750  179.9890  134.6070 C   0  0  0  0  0  1  0  0  0  0  0  0
  181.4460  178.6950  134.3900 O   0  0  0  0  0  0  0  0  0  0  0  0
  182.2020  179.4340  137.9530 C   0  0  0  0  0  2  0  0  0  0  0  0
  180.8700  179.3260  138.6810 C   0  0  0  0  0  2  0  0  0  0  0  0
  180.1710  180.5960  138.6000 N   0  0  0  0  0  2  0  0  0  0  0  0
  180.4330  182.8370  137.7190 C   0  0  0  0  0  1  0  0  0  0  0  0
  181.1480  181.5830  138.1780 C   0  0  0  0  0  2  0  0  0  0  0  0
  184.1890  174.1280  137.5290 C   0  0  0  0  0  2  0  0  0  0  0  0
  183.1460  173.1740  136.9740 C   0  0  0  0  0  2  0  0  0  0  0  0
  183.1770  170.7750  136.2690 C   0  0  0  0  0  3  0  0  0  0  0  0
  183.8140  172.0200  136.3150 C   0  0  0  0  0  0  0  0  0  0  0  0
  185.0920  172.1700  135.7680 C   0  0  0  0  0  3  0  0  0  0  0  0
  186.9650  171.2270  134.6360 F   0  0  0  0  0  0  0  0  0  0  0  0
  185.0890  169.8380  135.1150 C   0  0  0  0  0  3  0  0  0  0  0  0
  185.7280  171.0800  135.1660 C   0  0  0  0  0  0  0  0  0  0  0  0
  183.8140  169.6850  135.6670 C   0  0  0  0  0  3  0  0  0  0  0  0
  1 10  1  0  0  0  0
  2 12  1  0  0  0  0
  3 14  1  0  0  0  0
  4  1  1  6  0  0  0
  4 13  1  0  0  0  0
  5  3  1  0  0  0  0
  6 29  1  0  0  0  0
  6  4  1  0  0  0  0
  6 12  1  0  0  0  0
  7  5  2  0  0  0  0
  8  5  1  0  0  0  0
  8 11  1  1  0  0  0
  9 14  1  0  0  0  0
 10 19  1  6  0  0  0
 10  7  1  0  0  0  0
 11  9  1  0  0  0  0
 13  8  1  0  0  0  0
 14 16  1  0  0  0  0
 15 24  1  0  0  0  0
 15 13  1  0  0  0  0
 15  2  1  0  0  0  0
 16 17  2  0  0  0  0
 19 18  2  0  0  0  0
 20 15  1  0  0  0  0
 21 20  1  0  0  0  0
 23 22  1  0  0  0  0
 23 21  1  0  0  0  0
 24 25  1  0  0  0  0
 26 25  1  0  0  0  0
 27 28  1  0  0  0  0
 28 26  1  0  0  0  0
 30 29  1  0  0  0  0
 31 32  1  0  0  0  0
 32 30  1  0  0  0  0
 33 32  2  0  0  0  0
 34 36  1  0  0  0  0
 35 36  2  0  0  0  0
 35 37  1  0  0  0  0
 36 33  1  0  0  0  0
 37 31  2  0  0  0  0
M  END
>  <MODEL>
3

>  <REMARK>
 VINA RESULT:      -4.5      5.230     10.021
  Name = 
  12 active torsions:
  status: ('A' for Active; 'I' for Inactive)
    1  A    between atoms: O_1  and  C_5
    2  A    between atoms: O_1  and  C_36
    3  A    between atoms: N_3  and  C_32
    4  A    between atoms: C_5  and  O_23
    5  A    between atoms: C_6  and  C_31
    6  A    between atoms: N_14  and  C_37
    7  A    between atoms: C_17  and  N_26
    8  A    between atoms: C_17  and  C_33
    9  A    between atoms: CA_24  and  C_28
   10  A    between atoms: N_26  and  C_34
   11  A    between atoms: C_31  and  C_37
   12  A    between atoms: C_33  and  C_36
                            x       y       z     vdW  Elec       q    Type
                         _______ _______ _______ _____ _____    ______ ____

>  <TORSDO>
F 12

$$$$
=
 OpenBabel10272414553D

 37 40  0  0  1  0  0  0  0  0999 V2000
  186.0840  176.4110  137.3290 C   0  0  0  0  0  2  0  0  0  0  0  0
  181.8140  176.8000  137.9800 C   0  0  0  0  0  2  0  0  0  0  0  0
  186.1780  178.8800  141.1980 C   0  0  0  0  0  2  0  0  0  0  0  0
  184.6950  176.3820  137.9760 C   0  0  2  0  0  3  0  0  0  0  0  0
  185.8790  178.3870  139.8120 C   0  0  0  0  0  0  0  0  0  0  0  0
  183.7930  175.4360  137.3010 N   0  0  0  0  0  0  0  0  0  0  0  0
  186.8960  178.0220  139.0890 N   0  0  0  0  0  0  0  0  0  0  0  0
  184.4230  178.4910  139.3350 C   0  0  2  0  0  3  0  0  0  0  0  0
  183.7390  178.6270  141.7640 C   0  0  0  0  0  2  0  0  0  0  0  0
  186.9300  177.6480  137.6860 C   0  0  2  0  0  3  0  0  0  0  0  0
  183.4760  177.9600  140.4210 C   0  0  0  0  0  2  0  0  0  0  0  0
  182.5190  175.4350  138.0230 C   0  0  0  0  0  2  0  0  0  0  0  0
  184.1250  177.8060  137.9910 C   0  0  2  0  0  3  0  0  0  0  0  0
  185.1700  178.3260  142.2050 C   0  0  2  0  0  3  0  0  0  0  0  0
  182.6810  177.9350  137.4110 C   0  0  1  0  0  0  0  0  0  0  0  0
  185.4260  178.8360  143.5350 N   0  0  0  0  0  0  0  0  0  0  0  0
  184.5200  178.8650  144.4470 C   0  0  0  0  0  2  0  0  0  0  0  0
  187.5090  179.7190  136.7080 O   0  0  0  0  0  0  0  0  0  0  0  0
  186.6850  178.8240  136.7910 C   0  0  0  0  0  3  0  0  0  0  0  0
  182.6950  177.7810  135.9990 O   0  0  0  0  0  0  0  0  0  0  0  0
  181.3890  177.5740  135.5190 C   0  0  0  0  0  2  0  0  0  0  0  0
  180.0460  179.1510  134.7640 C   0  0  0  0  0  1  0  0  0  0  0  0
  181.1640  178.3950  134.4160 O   0  0  0  0  0  0  0  0  0  0  0  0
  182.0360  179.2800  137.8120 C   0  0  0  0  0  2  0  0  0  0  0  0
  180.8340  179.1000  138.7280 C   0  0  0  0  0  2  0  0  0  0  0  0
  180.7420  180.2330  139.6310 N   0  0  0  0  0  2  0  0  0  0  0  0
  179.9910  178.2660  140.8300 C   0  0  0  0  0  1  0  0  0  0  0  0
  179.9990  179.7800  140.7930 C   0  0  0  0  0  2  0  0  0  0  0  0
  184.3260  174.0910  137.4680 C   0  0  0  0  0  2  0  0  0  0  0  0
  184.6350  173.4920  136.1080 C   0  0  0  0  0  2  0  0  0  0  0  0
  182.4480  172.5430  135.3510 C   0  0  0  0  0  3  0  0  0  0  0  0
  183.7390  172.3330  135.8490 C   0  0  0  0  0  0  0  0  0  0  0  0
  184.1740  171.0340  136.1310 C   0  0  0  0  0  3  0  0  0  0  0  0
  183.7490  168.6910  136.1790 F   0  0  0  0  0  0  0  0  0  0  0  0
  182.0380  170.1570  135.4040 C   0  0  0  0  0  3  0  0  0  0  0  0
  183.3250  169.9480  135.9060 C   0  0  0  0  0  0  0  0  0  0  0  0
  181.5990  171.4550  135.1270 C   0  0  0  0  0  3  0  0  0  0  0  0
  1 10  1  0  0  0  0
  2 12  1  0  0  0  0
  3 14  1  0  0  0  0
  4  1  1  6  0  0  0
  4 13  1  0  0  0  0
  5  3  1  0  0  0  0
  6 29  1  0  0  0  0
  6  4  1  0  0  0  0
  6 12  1  0  0  0  0
  7  5  2  0  0  0  0
  8  5  1  0  0  0  0
  8 11  1  1  0  0  0
  9 14  1  0  0  0  0
 10 19  1  6  0  0  0
 10  7  1  0  0  0  0
 11  9  1  0  0  0  0
 13  8  1  0  0  0  0
 14 16  1  0  0  0  0
 15 24  1  0  0  0  0
 15  2  1  0  0  0  0
 15 13  1  0  0  0  0
 16 17  2  0  0  0  0
 18 19  2  0  0  0  0
 20 15  1  0  0  0  0
 21 20  1  0  0  0  0
 23 22  1  0  0  0  0
 23 21  1  0  0  0  0
 24 25  1  0  0  0  0
 25 26  1  0  0  0  0
 26 28  1  0  0  0  0
 28 27  1  0  0  0  0
 30 29  1  0  0  0  0
 31 32  1  0  0  0  0
 32 30  1  0  0  0  0
 32 33  2  0  0  0  0
 35 36  2  0  0  0  0
 36 33  1  0  0  0  0
 36 34  1  0  0  0  0
 37 31  2  0  0  0  0
 37 35  1  0  0  0  0
M  END
>  <MODEL>
4

>  <REMARK>
 VINA RESULT:      -4.4      5.412     10.120
  Name = 
  12 active torsions:
  status: ('A' for Active; 'I' for Inactive)
    1  A    between atoms: O_1  and  C_5
    2  A    between atoms: O_1  and  C_36
    3  A    between atoms: N_3  and  C_32
    4  A    between atoms: C_5  and  O_23
    5  A    between atoms: C_6  and  C_31
    6  A    between atoms: N_14  and  C_37
    7  A    between atoms: C_17  and  N_26
    8  A    between atoms: C_17  and  C_33
    9  A    between atoms: CA_24  and  C_28
   10  A    between atoms: N_26  and  C_34
   11  A    between atoms: C_31  and  C_37
   12  A    between atoms: C_33  and  C_36
                            x       y       z     vdW  Elec       q    Type
                         _______ _______ _______ _____ _____    ______ ____

>  <TORSDO>
F 12

$$$$
=
 OpenBabel10272414553D

 37 40  0  0  1  0  0  0  0  0999 V2000
  186.0610  176.5210  137.3470 C   0  0  0  0  0  2  0  0  0  0  0  0
  181.8850  177.0960  138.3650 C   0  0  0  0  0  2  0  0  0  0  0  0
  186.6010  178.7770  141.3090 C   0  0  0  0  0  2  0  0  0  0  0  0
  184.7290  176.5310  138.1040 C   0  0  2  0  0  3  0  0  0  0  0  0
  186.1660  178.3730  139.9310 C   0  0  0  0  0  0  0  0  0  0  0  0
  183.7240  175.6690  137.4610 N   0  0  0  0  0  0  0  0  0  0  0  0
  187.0990  177.9940  139.1100 N   0  0  0  0  0  0  0  0  0  0  0  0
  184.6840  178.5770  139.5800 C   0  0  2  0  0  3  0  0  0  0  0  0
  184.2050  178.6220  142.0610 C   0  0  0  0  0  2  0  0  0  0  0  0
  187.0010  177.6920  137.6920 C   0  0  2  0  0  3  0  0  0  0  0  0
  183.7990  178.0400  140.7140 C   0  0  0  0  0  2  0  0  0  0  0  0
  182.5140  175.6960  138.2850 C   0  0  0  0  0  2  0  0  0  0  0  0
  184.2420  177.9790  138.2340 C   0  0  2  0  0  3  0  0  0  0  0  0
  185.6470  178.2250  142.3680 C   0  0  2  0  0  3  0  0  0  0  0  0
  182.7660  178.2130  137.7810 C   0  0  1  0  0  0  0  0  0  0  0  0
  186.0360  178.6500  143.6950 N   0  0  0  0  0  0  0  0  0  0  0  0
  185.2450  178.5640  144.7050 C   0  0  0  0  0  2  0  0  0  0  0  0
  187.6660  179.6870  136.6160 O   0  0  0  0  0  0  0  0  0  0  0  0
  186.7520  178.9240  136.8780 C   0  0  0  0  0  3  0  0  0  0  0  0
  182.6590  178.1320  136.3680 O   0  0  0  0  0  0  0  0  0  0  0  0
  181.3090  178.1860  135.9770 C   0  0  0  0  0  2  0  0  0  0  0  0
  180.6600  180.0510  134.9960 C   0  0  0  0  0  1  0  0  0  0  0  0
  181.2100  178.7980  134.7290 O   0  0  0  0  0  0  0  0  0  0  0  0
  182.2310  179.5660  138.2970 C   0  0  0  0  0  2  0  0  0  0  0  0
  180.9050  179.4280  139.0310 C   0  0  0  0  0  2  0  0  0  0  0  0
  181.0500  179.9200  140.3890 N   0  0  0  0  0  2  0  0  0  0  0  0
  180.5770  178.4600  142.2630 C   0  0  0  0  0  1  0  0  0  0  0  0
  179.9820  179.3200  141.1660 C   0  0  0  0  0  2  0  0  0  0  0  0
  184.1930  174.2910  137.5200 C   0  0  0  0  0  2  0  0  0  0  0  0
  184.0010  173.6290  136.1680 C   0  0  0  0  0  2  0  0  0  0  0  0
  184.8380  171.4390  135.2950 C   0  0  0  0  0  3  0  0  0  0  0  0
  185.1060  172.6650  135.9140 C   0  0  0  0  0  0  0  0  0  0  0  0
  186.4080  172.9690  136.3220 C   0  0  0  0  0  3  0  0  0  0  0  0
  188.7030  172.3520  136.4970 F   0  0  0  0  0  0  0  0  0  0  0  0
  187.1750  170.8330  135.4790 C   0  0  0  0  0  3  0  0  0  0  0  0
  187.4420  172.0550  136.1020 C   0  0  0  0  0  0  0  0  0  0  0  0
  185.8730  170.5250  135.0750 C   0  0  0  0  0  3  0  0  0  0  0  0
  1 10  1  0  0  0  0
  3 14  1  0  0  0  0
  4  1  1  6  0  0  0
  4 13  1  0  0  0  0
  5  3  1  0  0  0  0
  6 29  1  0  0  0  0
  6  4  1  0  0  0  0
  6 12  1  0  0  0  0
  7  5  2  0  0  0  0
  8  5  1  0  0  0  0
  8 11  1  1  0  0  0
  9 14  1  0  0  0  0
 10 19  1  6  0  0  0
 10  7  1  0  0  0  0
 11  9  1  0  0  0  0
 12  2  1  0  0  0  0
 13  8  1  0  0  0  0
 14 16  1  0  0  0  0
 15 13  1  0  0  0  0
 15 24  1  0  0  0  0
 15  2  1  0  0  0  0
 16 17  2  0  0  0  0
 18 19  2  0  0  0  0
 20 15  1  0  0  0  0
 21 20  1  0  0  0  0
 23 22  1  0  0  0  0
 23 21  1  0  0  0  0
 24 25  1  0  0  0  0
 25 26  1  0  0  0  0
 26 28  1  0  0  0  0
 28 27  1  0  0  0  0
 30 29  1  0  0  0  0
 31 32  1  0  0  0  0
 32 30  1  0  0  0  0
 32 33  2  0  0  0  0
 35 36  2  0  0  0  0
 36 33  1  0  0  0  0
 36 34  1  0  0  0  0
 37 31  2  0  0  0  0
 37 35  1  0  0  0  0
M  END
>  <MODEL>
5

>  <REMARK>
 VINA RESULT:      -4.3      5.126      9.711
  Name = 
  12 active torsions:
  status: ('A' for Active; 'I' for Inactive)
    1  A    between atoms: O_1  and  C_5
    2  A    between atoms: O_1  and  C_36
    3  A    between atoms: N_3  and  C_32
    4  A    between atoms: C_5  and  O_23
    5  A    between atoms: C_6  and  C_31
    6  A    between atoms: N_14  and  C_37
    7  A    between atoms: C_17  and  N_26
    8  A    between atoms: C_17  and  C_33
    9  A    between atoms: CA_24  and  C_28
   10  A    between atoms: N_26  and  C_34
   11  A    between atoms: C_31  and  C_37
   12  A    between atoms: C_33  and  C_36
                            x       y       z     vdW  Elec       q    Type
                         _______ _______ _______ _____ _____    ______ ____

>  <TORSDO>
F 12

$$$$
=
 OpenBabel10272414553D

 37 40  0  0  1  0  0  0  0  0999 V2000
  189.6150  177.4090  137.2320 C   0  0  0  0  0  2  0  0  0  0  0  0
  188.2230  173.9730  134.9820 C   0  0  0  0  0  2  0  0  0  0  0  0
  193.4760  174.9270  137.2680 C   0  0  0  0  0  2  0  0  0  0  0  0
  189.5020  176.2930  136.1880 C   0  0  2  0  0  3  0  0  0  0  0  0
  192.0470  175.3670  137.3970 C   0  0  0  0  0  0  0  0  0  0  0  0
  188.3030  176.4420  135.3490 N   0  0  0  0  0  0  0  0  0  0  0  0
  191.8370  176.5000  137.9990 N   0  0  0  0  0  0  0  0  0  0  0  0
  190.9680  174.3790  136.9320 C   0  0  2  0  0  3  0  0  0  0  0  0
  192.7500  173.2350  135.5520 C   0  0  0  0  0  2  0  0  0  0  0  0
  190.5750  177.1020  138.3960 C   0  0  2  0  0  3  0  0  0  0  0  0
  191.3400  173.8070  135.5560 C   0  0  0  0  0  2  0  0  0  0  0  0
  188.3160  175.3710  134.3500 C   0  0  0  0  0  2  0  0  0  0  0  0
  189.5360  174.9370  136.9050 C   0  0  2  0  0  3  0  0  0  0  0  0
  193.7460  174.3460  135.8800 C   0  0  2  0  0  3  0  0  0  0  0  0
  188.3800  173.9650  136.5110 C   0  0  1  0  0  0  0  0  0  0  0  0
  195.1100  173.8770  135.7660 N   0  0  0  0  0  0  0  0  0  0  0  0
  196.0930  174.4710  136.3450 C   0  0  0  0  0  2  0  0  0  0  0  0
  190.5220  176.2090  140.5820 O   0  0  0  0  0  0  0  0  0  0  0  0
  189.9340  176.3550  139.5240 C   0  0  0  0  0  3  0  0  0  0  0  0
  187.1470  174.4080  137.0590 O   0  0  0  0  0  0  0  0  0  0  0  0
  186.1060  173.5410  136.6790 C   0  0  0  0  0  2  0  0  0  0  0  0
  184.2340  172.5620  137.3100 C   0  0  0  0  0  1  0  0  0  0  0  0
  185.3990  173.1410  137.8110 O   0  0  0  0  0  0  0  0  0  0  0  0
  188.6920  172.5190  136.9550 C   0  0  0  0  0  2  0  0  0  0  0  0
  188.7700  171.5530  135.7810 C   0  0  0  0  0  2  0  0  0  0  0  0
  187.8310  170.4650  135.9870 N   0  0  0  0  0  2  0  0  0  0  0  0
  185.9130  170.5930  134.5130 C   0  0  0  0  0  1  0  0  0  0  0  0
  187.3320  170.0910  134.6760 C   0  0  0  0  0  2  0  0  0  0  0  0
  188.4240  177.6760  134.5850 C   0  0  0  0  0  2  0  0  0  0  0  0
  187.0570  178.3160  134.4300 C   0  0  0  0  0  2  0  0  0  0  0  0
  185.0910  177.0090  135.2550 C   0  0  0  0  0  3  0  0  0  0  0  0
  186.1600  177.8690  135.5290 C   0  0  0  0  0  0  0  0  0  0  0  0
  186.3650  178.3320  136.8330 C   0  0  0  0  0  3  0  0  0  0  0  0
  185.7100  178.3770  139.1230 F   0  0  0  0  0  0  0  0  0  0  0  0
  184.4460  177.0650  137.5890 C   0  0  0  0  0  3  0  0  0  0  0  0
  185.5100  177.9280  137.8610 C   0  0  0  0  0  0  0  0  0  0  0  0
  184.2360  176.6050  136.2850 C   0  0  0  0  0  3  0  0  0  0  0  0
  1 10  1  0  0  0  0
  2 15  1  0  0  0  0
  3  5  1  0  0  0  0
  4 13  1  0  0  0  0
  4  1  1  1  0  0  0
  5  7  2  0  0  0  0
  6  4  1  0  0  0  0
  7 10  1  0  0  0  0
  8 11  1  6  0  0  0
  8  5  1  0  0  0  0
  9 11  1  0  0  0  0
  9 14  1  0  0  0  0
 10 19  1  1  0  0  0
 12  2  1  0  0  0  0
 12  6  1  0  0  0  0
 13  8  1  0  0  0  0
 14  3  1  0  0  0  0
 15 13  1  0  0  0  0
 15 24  1  0  0  0  0
 15 20  1  0  0  0  0
 16 14  1  0  0  0  0
 16 17  2  0  0  0  0
 19 18  2  0  0  0  0
 21 20  1  0  0  0  0
 21 23  1  0  0  0  0
 22 23  1  0  0  0  0
 25 26  1  0  0  0  0
 25 24  1  0  0  0  0
 27 28  1  0  0  0  0
 28 26  1  0  0  0  0
 29  6  1  0  0  0  0
 30 29  1  0  0  0  0
 30 32  1  0  0  0  0
 31 32  2  0  0  0  0
 31 37  1  0  0  0  0
 32 33  1  0  0  0  0
 33 36  2  0  0  0  0
 35 36  1  0  0  0  0
 36 34  1  0  0  0  0
 37 35  2  0  0  0  0
M  END
>  <MODEL>
6

>  <REMARK>
 VINA RESULT:      -4.2      2.733      6.698
  Name = 
  12 active torsions:
  status: ('A' for Active; 'I' for Inactive)
    1  A    between atoms: O_1  and  C_5
    2  A    between atoms: O_1  and  C_36
    3  A    between atoms: N_3  and  C_32
    4  A    between atoms: C_5  and  O_23
    5  A    between atoms: C_6  and  C_31
    6  A    between atoms: N_14  and  C_37
    7  A    between atoms: C_17  and  N_26
    8  A    between atoms: C_17  and  C_33
    9  A    between atoms: CA_24  and  C_28
   10  A    between atoms: N_26  and  C_34
   11  A    between atoms: C_31  and  C_37
   12  A    between atoms: C_33  and  C_36
                            x       y       z     vdW  Elec       q    Type
                         _______ _______ _______ _____ _____    ______ ____

>  <TORSDO>
F 12

$$$$
=
 OpenBabel10272414553D

 37 40  0  0  1  0  0  0  0  0999 V2000
  188.4270  174.9810  135.2220 C   0  0  0  0  0  2  0  0  0  0  0  0
  185.0040  176.1040  137.6370 C   0  0  0  0  0  2  0  0  0  0  0  0
  190.6180  177.2940  138.5260 C   0  0  0  0  0  2  0  0  0  0  0  0
  187.4760  175.1820  136.4070 C   0  0  2  0  0  3  0  0  0  0  0  0
  189.6660  176.8980  137.4360 C   0  0  0  0  0  0  0  0  0  0  0  0
  186.2240  174.4290  136.2430 N   0  0  0  0  0  0  0  0  0  0  0  0
  190.1860  176.3770  136.3660 N   0  0  0  0  0  0  0  0  0  0  0  0
  188.1890  177.2700  137.6320 C   0  0  2  0  0  3  0  0  0  0  0  0
  188.6670  177.4630  140.1060 C   0  0  0  0  0  2  0  0  0  0  0  0
  189.5410  176.0380  135.1090 C   0  0  2  0  0  3  0  0  0  0  0  0
  187.7360  176.8880  139.0490 C   0  0  0  0  0  2  0  0  0  0  0  0
  185.4130  174.6350  137.4450 C   0  0  0  0  0  2  0  0  0  0  0  0
  187.2220  176.6840  136.5900 C   0  0  2  0  0  3  0  0  0  0  0  0
  190.0730  176.9030  139.9000 C   0  0  2  0  0  3  0  0  0  0  0  0
  185.7150  177.0810  136.6870 C   0  0  1  0  0  0  0  0  0  0  0  0
  190.9660  177.3250  140.9570 N   0  0  0  0  0  0  0  0  0  0  0  0
  190.6270  177.2940  142.1970 C   0  0  0  0  0  2  0  0  0  0  0  0
  189.8340  178.2610  134.3630 O   0  0  0  0  0  0  0  0  0  0  0  0
  189.1350  177.2620  134.3460 C   0  0  0  0  0  3  0  0  0  0  0  0
  185.0860  176.9630  135.4200 O   0  0  0  0  0  0  0  0  0  0  0  0
  183.6910  177.0830  135.5560 C   0  0  0  0  0  2  0  0  0  0  0  0
  181.7170  176.5600  134.7240 C   0  0  0  0  0  1  0  0  0  0  0  0
  183.0620  176.1940  134.6860 O   0  0  0  0  0  0  0  0  0  0  0  0
  185.5500  178.5080  137.2540 C   0  0  0  0  0  2  0  0  0  0  0  0
  184.6490  178.5480  138.4800 C   0  0  0  0  0  2  0  0  0  0  0  0
  185.1610  179.5240  139.4240 N   0  0  0  0  0  2  0  0  0  0  0  0
  183.7760  178.0600  140.7680 C   0  0  0  0  0  1  0  0  0  0  0  0
  185.0030  178.9480  140.7470 C   0  0  0  0  0  2  0  0  0  0  0  0
  186.5380  173.0070  136.2360 C   0  0  0  0  0  2  0  0  0  0  0  0
  186.0480  172.3820  134.9430 C   0  0  0  0  0  2  0  0  0  0  0  0
  183.5490  172.4590  134.9310 C   0  0  0  0  0  3  0  0  0  0  0  0
  184.7250  171.7380  135.1600 C   0  0  0  0  0  0  0  0  0  0  0  0
  184.6560  170.4190  135.6220 C   0  0  0  0  0  3  0  0  0  0  0  0
  183.3470  168.5440  136.2920 F   0  0  0  0  0  0  0  0  0  0  0  0
  182.2380  170.5400  135.6110 C   0  0  0  0  0  3  0  0  0  0  0  0
  183.4130  169.8210  135.8450 C   0  0  0  0  0  0  0  0  0  0  0  0
  182.3050  171.8590  135.1550 C   0  0  0  0  0  3  0  0  0  0  0  0
  3 14  1  0  0  0  0
  4  1  1  6  0  0  0
  4 13  1  0  0  0  0
  5  8  1  0  0  0  0
  5  3  1  0  0  0  0
  6  4  1  0  0  0  0
  6 12  1  0  0  0  0
  7  5  2  0  0  0  0
  8 11  1  1  0  0  0
 10 19  1  1  0  0  0
 10  1  1  0  0  0  0
 10  7  1  0  0  0  0
 11  9  1  0  0  0  0
 12  2  1  0  0  0  0
 13 15  1  0  0  0  0
 13  8  1  0  0  0  0
 14  9  1  0  0  0  0
 14 16  1  0  0  0  0
 15 24  1  0  0  0  0
 15  2  1  0  0  0  0
 16 17  2  0  0  0  0
 19 18  2  0  0  0  0
 20 21  1  0  0  0  0
 20 15  1  0  0  0  0
 23 22  1  0  0  0  0
 23 21  1  0  0  0  0
 24 25  1  0  0  0  0
 25 26  1  0  0  0  0
 26 28  1  0  0  0  0
 28 27  1  0  0  0  0
 29  6  1  0  0  0  0
 30 32  1  0  0  0  0
 30 29  1  0  0  0  0
 31 37  2  0  0  0  0
 31 32  1  0  0  0  0
 32 33  2  0  0  0  0
 33 36  1  0  0  0  0
 35 36  2  0  0  0  0
 36 34  1  0  0  0  0
 37 35  1  0  0  0  0
M  END
>  <MODEL>
7

>  <REMARK>
 VINA RESULT:      -3.8      3.406      8.541
  Name = 
  12 active torsions:
  status: ('A' for Active; 'I' for Inactive)
    1  A    between atoms: O_1  and  C_5
    2  A    between atoms: O_1  and  C_36
    3  A    between atoms: N_3  and  C_32
    4  A    between atoms: C_5  and  O_23
    5  A    between atoms: C_6  and  C_31
    6  A    between atoms: N_14  and  C_37
    7  A    between atoms: C_17  and  N_26
    8  A    between atoms: C_17  and  C_33
    9  A    between atoms: CA_24  and  C_28
   10  A    between atoms: N_26  and  C_34
   11  A    between atoms: C_31  and  C_37
   12  A    between atoms: C_33  and  C_36
                            x       y       z     vdW  Elec       q    Type
                         _______ _______ _______ _____ _____    ______ ____

>  <TORSDO>
F 12

$$$$
=
 OpenBabel10272414553D

 37 40  0  0  1  0  0  0  0  0999 V2000
  186.7220  176.6050  138.0200 C   0  0  0  0  0  2  0  0  0  0  0  0
  190.9910  176.2250  137.3620 C   0  0  0  0  0  2  0  0  0  0  0  0
  186.7510  172.5410  135.8870 C   0  0  0  0  0  2  0  0  0  0  0  0
  188.1550  176.0630  137.9960 C   0  0  2  0  0  3  0  0  0  0  0  0
  186.9770  173.9810  136.2410 C   0  0  0  0  0  0  0  0  0  0  0  0
  189.0670  176.8780  138.8130 N   0  0  0  0  0  0  0  0  0  0  0  0
  185.9370  174.6600  136.6230 N   0  0  0  0  0  0  0  0  0  0  0  0
  188.3820  174.5490  135.9900 C   0  0  2  0  0  3  0  0  0  0  0  0
  189.2380  172.1710  135.9990 C   0  0  0  0  0  2  0  0  0  0  0  0
  185.8210  176.0850  136.8840 C   0  0  2  0  0  3  0  0  0  0  0  0
  189.4430  173.5820  136.5330 C   0  0  0  0  0  2  0  0  0  0  0  0
  190.3890  176.2510  138.7760 C   0  0  0  0  0  2  0  0  0  0  0  0
  188.6240  175.9650  136.5380 C   0  0  2  0  0  3  0  0  0  0  0  0
  187.8690  171.6580  136.4420 C   0  0  2  0  0  3  0  0  0  0  0  0
  190.0070  176.6320  136.2540 C   0  0  1  0  0  0  0  0  0  0  0  0
  187.6810  170.2750  136.0630 N   0  0  0  0  0  0  0  0  0  0  0  0
  186.9820  169.9310  135.0390 C   0  0  0  0  0  2  0  0  0  0  0  0
  184.9560  177.5290  135.2280 O   0  0  0  0  0  0  0  0  0  0  0  0
  185.9150  176.8890  135.6240 C   0  0  0  0  0  3  0  0  0  0  0  0
  189.8950  178.0470  136.2940 O   0  0  0  0  0  0  0  0  0  0  0  0
  188.7020  178.4590  135.6730 C   0  0  0  0  0  2  0  0  0  0  0  0
  188.9760  179.6550  137.5050 C   0  0  0  0  0  1  0  0  0  0  0  0
  188.1180  179.4800  136.4200 O   0  0  0  0  0  0  0  0  0  0  0  0
  190.5850  176.1630  134.9010 C   0  0  0  0  0  2  0  0  0  0  0  0
  192.1040  176.0680  134.9170 C   0  0  0  0  0  2  0  0  0  0  0  0
  192.5120  174.7550  134.4540 N   0  0  0  0  0  2  0  0  0  0  0  0
  193.0060  172.8170  135.8210 C   0  0  0  0  0  1  0  0  0  0  0  0
  193.4240  174.2250  135.4500 C   0  0  0  0  0  2  0  0  0  0  0  0
  188.6430  176.7910  140.2040 C   0  0  0  0  0  2  0  0  0  0  0  0
  189.8610  176.7550  141.1070 C   0  0  0  0  0  2  0  0  0  0  0  0
  190.4110  177.6270  143.3860 C   0  0  0  0  0  3  0  0  0  0  0  0
  189.4680  177.0900  142.5020 C   0  0  0  0  0  0  0  0  0  0  0  0
  188.1640  176.8410  142.9410 C   0  0  0  0  0  3  0  0  0  0  0  0
  186.5370  176.8960  144.6810 F   0  0  0  0  0  0  0  0  0  0  0  0
  188.7400  177.6790  145.1390 C   0  0  0  0  0  3  0  0  0  0  0  0
  187.8010  177.1380  144.2580 C   0  0  0  0  0  0  0  0  0  0  0  0
  190.0460  177.9240  144.7030 C   0  0  0  0  0  3  0  0  0  0  0  0
  2 12  1  0  0  0  0
  3  5  1  0  0  0  0
  3 14  1  0  0  0  0
  4  1  1  6  0  0  0
  4  6  1  0  0  0  0
  5  7  2  0  0  0  0
  6 29  1  0  0  0  0
  7 10  1  0  0  0  0
  8  5  1  0  0  0  0
  8 11  1  1  0  0  0
  8 13  1  0  0  0  0
  9 14  1  0  0  0  0
  9 11  1  0  0  0  0
 10 19  1  6  0  0  0
 10  1  1  0  0  0  0
 12  6  1  0  0  0  0
 13  4  1  0  0  0  0
 15 20  1  0  0  0  0
 15 13  1  0  0  0  0
 15  2  1  0  0  0  0
 16 14  1  0  0  0  0
 17 16  2  0  0  0  0
 18 19  2  0  0  0  0
 21 20  1  0  0  0  0
 21 23  1  0  0  0  0
 23 22  1  0  0  0  0
 24 25  1  0  0  0  0
 24 15  1  0  0  0  0
 26 25  1  0  0  0  0
 26 28  1  0  0  0  0
 28 27  1  0  0  0  0
 29 30  1  0  0  0  0
 30 32  1  0  0  0  0
 31 37  1  0  0  0  0
 32 33  1  0  0  0  0
 32 31  2  0  0  0  0
 33 36  2  0  0  0  0
 36 34  1  0  0  0  0
 36 35  1  0  0  0  0
 37 35  2  0  0  0  0
M  END
>  <MODEL>
8

>  <REMARK>
 VINA RESULT:      -3.7      1.839      2.801
  Name = 
  12 active torsions:
  status: ('A' for Active; 'I' for Inactive)
    1  A    between atoms: O_1  and  C_5
    2  A    between atoms: O_1  and  C_36
    3  A    between atoms: N_3  and  C_32
    4  A    between atoms: C_5  and  O_23
    5  A    between atoms: C_6  and  C_31
    6  A    between atoms: N_14  and  C_37
    7  A    between atoms: C_17  and  N_26
    8  A    between atoms: C_17  and  C_33
    9  A    between atoms: CA_24  and  C_28
   10  A    between atoms: N_26  and  C_34
   11  A    between atoms: C_31  and  C_37
   12  A    between atoms: C_33  and  C_36
                            x       y       z     vdW  Elec       q    Type
                         _______ _______ _______ _____ _____    ______ ____

>  <TORSDO>
F 12

$$$$
=
 OpenBabel10272414553D

 37 40  0  0  1  0  0  0  0  0999 V2000
  188.1150  177.6290  137.2560 C   0  0  0  0  0  2  0  0  0  0  0  0
  187.3180  173.9550  135.0930 C   0  0  0  0  0  2  0  0  0  0  0  0
  192.4350  176.1720  136.7170 C   0  0  0  0  0  2  0  0  0  0  0  0
  188.1410  176.5190  136.1990 C   0  0  2  0  0  3  0  0  0  0  0  0
  190.9720  176.2480  137.0430 C   0  0  0  0  0  0  0  0  0  0  0  0
  186.8420  176.3680  135.5260 N   0  0  0  0  0  0  0  0  0  0  0  0
  190.5720  177.2940  137.7030 N   0  0  0  0  0  0  0  0  0  0  0  0
  190.1150  175.0240  136.6870 C   0  0  2  0  0  3  0  0  0  0  0  0
  191.9240  174.3540  135.0550 C   0  0  0  0  0  2  0  0  0  0  0  0
  189.2660  177.5670  138.2770 C   0  0  2  0  0  3  0  0  0  0  0  0
  190.4290  174.5610  135.2580 C   0  0  0  0  0  2  0  0  0  0  0  0
  186.9830  175.3330  134.5000 C   0  0  0  0  0  2  0  0  0  0  0  0
  188.5990  175.2140  136.8620 C   0  0  2  0  0  3  0  0  0  0  0  0
  192.6530  175.6750  135.2880 C   0  0  2  0  0  3  0  0  0  0  0  0
  187.6730  173.9860  136.5880 C   0  0  1  0  0  0  0  0  0  0  0  0
  194.0620  175.5560  134.9860 N   0  0  0  0  0  0  0  0  0  0  0  0
  194.8040  176.5790  134.7470 C   0  0  0  0  0  2  0  0  0  0  0  0
  189.4810  176.9240  140.5400 O   0  0  0  0  0  0  0  0  0  0  0  0
  188.9810  176.6860  139.4530 C   0  0  0  0  0  3  0  0  0  0  0  0
  186.4530  174.1130  137.3030 O   0  0  0  0  0  0  0  0  0  0  0  0
  186.0000  172.8480  137.7200 C   0  0  0  0  0  2  0  0  0  0  0  0
  184.2630  172.0540  136.6180 C   0  0  0  0  0  1  0  0  0  0  0  0
  184.6060  172.8310  137.7230 O   0  0  0  0  0  0  0  0  0  0  0  0
  188.3840  172.6610  136.9410 C   0  0  0  0  0  2  0  0  0  0  0  0
  188.6190  171.7830  135.7210 C   0  0  0  0  0  2  0  0  0  0  0  0
  187.8470  170.5600  135.8490 N   0  0  0  0  0  2  0  0  0  0  0  0
  189.3780  169.1050  134.6620 C   0  0  0  0  0  1  0  0  0  0  0  0
  188.0400  169.8140  134.6200 C   0  0  0  0  0  2  0  0  0  0  0  0
  186.5560  177.5940  134.7930 C   0  0  0  0  0  2  0  0  0  0  0  0
  185.0670  177.6880  134.5150 C   0  0  0  0  0  2  0  0  0  0  0  0
  184.4670  177.6740  136.9430 C   0  0  0  0  0  3  0  0  0  0  0  0
  184.3010  177.1340  135.6630 C   0  0  0  0  0  0  0  0  0  0  0  0
  183.4360  176.0520  135.4710 C   0  0  0  0  0  3  0  0  0  0  0  0
  181.8940  174.4710  136.3650 F   0  0  0  0  0  0  0  0  0  0  0  0
  182.8940  176.0620  137.8300 C   0  0  0  0  0  3  0  0  0  0  0  0
  182.7320  175.5180  136.5530 C   0  0  0  0  0  0  0  0  0  0  0  0
  183.7620  177.1400  138.0260 C   0  0  0  0  0  3  0  0  0  0  0  0
  1 10  1  0  0  0  0
  2 15  1  0  0  0  0
  3  5  1  0  0  0  0
  4 13  1  0  0  0  0
  4  1  1  1  0  0  0
  5  7  2  0  0  0  0
  6  4  1  0  0  0  0
  7 10  1  0  0  0  0
  8 11  1  6  0  0  0
  8 13  1  0  0  0  0
  8  5  1  0  0  0  0
  9 11  1  0  0  0  0
  9 14  1  0  0  0  0
 10 19  1  1  0  0  0
 12  2  1  0  0  0  0
 12  6  1  0  0  0  0
 14  3  1  0  0  0  0
 15 13  1  0  0  0  0
 15 24  1  0  0  0  0
 15 20  1  0  0  0  0
 16 14  1  0  0  0  0
 17 16  2  0  0  0  0
 19 18  2  0  0  0  0
 20 21  1  0  0  0  0
 21 23  1  0  0  0  0
 22 23  1  0  0  0  0
 25 26  1  0  0  0  0
 25 24  1  0  0  0  0
 28 27  1  0  0  0  0
 28 26  1  0  0  0  0
 29  6  1  0  0  0  0
 30 29  1  0  0  0  0
 30 32  1  0  0  0  0
 31 37  1  0  0  0  0
 32 31  2  0  0  0  0
 33 32  1  0  0  0  0
 33 36  2  0  0  0  0
 34 36  1  0  0  0  0
 35 37  2  0  0  0  0
 36 35  1  0  0  0  0
M  END
>  <MODEL>
9

>  <REMARK>
 VINA RESULT:      -3.7      3.217      6.895
  Name = 
  12 active torsions:
  status: ('A' for Active; 'I' for Inactive)
    1  A    between atoms: O_1  and  C_5
    2  A    between atoms: O_1  and  C_36
    3  A    between atoms: N_3  and  C_32
    4  A    between atoms: C_5  and  O_23
    5  A    between atoms: C_6  and  C_31
    6  A    between atoms: N_14  and  C_37
    7  A    between atoms: C_17  and  N_26
    8  A    between atoms: C_17  and  C_33
    9  A    between atoms: CA_24  and  C_28
   10  A    between atoms: N_26  and  C_34
   11  A    between atoms: C_31  and  C_37
   12  A    between atoms: C_33  and  C_36
                            x       y       z     vdW  Elec       q    Type
                         _______ _______ _______ _____ _____    ______ ____

>  <TORSDO>
F 12

$$$$
