=
 OpenBabel10262423593D

 34 38  0  0  1  0  0  0  0  0999 V2000
  188.8230  177.6360  137.2520 C   0  0  0  0  0  0  0  0  0  0  0  0
  186.4240  177.7770  136.8960 C   0  0  0  0  0  3  0  0  0  0  0  0
  187.4380  178.4960  139.1370 C   0  0  2  0  0  3  0  0  0  0  0  0
  186.1390  178.5450  141.2790 N   0  0  0  0  0  0  0  0  0  0  0  0
  187.8820  177.0510  135.1010 C   0  0  0  0  0  3  0  0  0  0  0  0
  185.4210  177.1730  134.6900 C   0  0  0  0  0  1  0  0  0  0  0  0
  185.0350  178.7340  139.2160 O   0  0  0  0  0  0  0  0  0  0  0  0
  187.5300  177.9160  137.7440 C   0  0  0  0  0  0  0  0  0  0  0  0
  188.9960  177.2070  135.9330 C   0  0  0  0  0  3  0  0  0  0  0  0
  188.4810  177.8050  140.0160 C   0  0  2  0  0  3  0  0  0  0  0  0
  189.9900  177.8190  138.1470 C   0  0  0  0  0  3  0  0  0  0  0  0
  186.5990  177.3310  135.5820 C   0  0  0  0  0  0  0  0  0  0  0  0
  187.1050  177.8540  141.9560 O   0  0  0  0  0  0  0  0  0  0  0  0
  188.3550  178.2940  141.4660 C   0  0  1  0  0  3  0  0  0  0  0  0
  186.1100  178.5270  139.8410 C   0  0  0  0  0  0  0  0  0  0  0  0
  189.8170  177.9550  139.4320 N   0  0  0  0  0  0  0  0  0  0  0  0
  191.3620  178.0640  143.8280 C   0  0  0  0  0  0  0  0  0  0  0  0
  191.5250  176.5840  144.0420 C   0  0  0  0  0  2  0  0  0  0  0  0
  189.4580  177.7610  142.3310 C   0  0  0  0  0  0  0  0  0  0  0  0
  190.5270  175.7600  143.2710 C   0  0  0  0  0  3  0  0  0  0  0  0
  190.2950  178.5900  142.9660 C   0  0  0  0  0  3  0  0  0  0  0  0
  189.5860  176.3020  142.4930 C   0  0  0  0  0  3  0  0  0  0  0  0
  192.1490  178.8640  144.3980 O   0  0  0  0  0  0  0  0  0  0  0  0
  185.1540  179.3150  142.0250 C   0  0  0  0  0  2  0  0  0  0  0  0
  184.7120  178.5550  143.2700 C   0  0  0  0  0  2  0  0  0  0  0  0
  185.2540  179.2030  144.5330 C   0  0  0  0  0  2  0  0  0  0  0  0
  184.8190  178.4600  145.7040 N   0  0  0  0  0  2  0  0  0  0  0  0
  186.0010  179.8990  147.6940 O   0  0  0  0  0  1  0  0  0  0  0  0
  186.0150  177.9060  146.3210 C   0  0  2  0  0  3  0  0  0  0  0  0
  186.2680  178.5280  147.7080 C   0  0  1  0  0  3  0  0  0  0  0  0
  188.3960  177.1500  147.4960 C   0  0  0  0  0  2  0  0  0  0  0  0
  188.4780  177.4120  145.9860 C   0  0  0  0  0  2  0  0  0  0  0  0
  187.2250  178.0860  145.4070 C   0  0  0  0  0  2  0  0  0  0  0  0
  187.7030  178.3080  148.2130 C   0  0  0  0  0  2  0  0  0  0  0  0
  1  8  1  0  0  0  0
  1 11  1  0  0  0  0
  2  8  2  0  0  0  0
  3  8  1  6  0  0  0
  3 15  1  0  0  0  0
  3 10  1  0  0  0  0
  4 13  1  0  0  0  0
  4 24  1  0  0  0  0
  5 12  2  0  0  0  0
  5  9  1  0  0  0  0
  6 12  1  0  0  0  0
  7 15  2  0  0  0  0
  9  1  2  0  0  0  0
 10 16  1  6  0  0  0
 10 14  1  0  0  0  0
 11 16  2  0  0  0  0
 12  2  1  0  0  0  0
 14 13  1  0  0  0  0
 14 19  1  1  0  0  0
 15  4  1  0  0  0  0
 17 18  1  0  0  0  0
 17 23  2  0  0  0  0
 19 22  1  0  0  0  0
 19 21  2  0  0  0  0
 20 18  1  0  0  0  0
 21 17  1  0  0  0  0
 22 20  2  0  0  0  0
 24 25  1  0  0  0  0
 25 26  1  0  0  0  0
 26 27  1  0  0  0  0
 29 27  1  6  0  0  0
 29 30  1  0  0  0  0
 30 28  1  6  0  0  0
 30 34  1  0  0  0  0
 31 34  1  0  0  0  0
 32 31  1  0  0  0  0
 33 32  1  0  0  0  0
 33 29  1  0  0  0  0
M  END
>  <MODEL>
1

>  <REMARK>
 VINA RESULT:      -9.1      0.000      0.000
  Name = 
  6 active torsions:
  status: ('A' for Active; 'I' for Inactive)
    1  A    between atoms: N_3  and  C_13
    2  A    between atoms: N_3  and  C_17
    3  A    between atoms: N_5  and  C_18
    4  A    between atoms: C_12  and  C_28
    5  A    between atoms: C_17  and  C_29
    6  A    between atoms: C_18  and  C_29
                            x       y       z     vdW  Elec       q    Type
                         _______ _______ _______ _____ _____    ______ ____

>  <TORSDO>
F 6

$$$$
=
 OpenBabel10262423593D

 34 38  0  0  1  0  0  0  0  0999 V2000
  191.2850  177.2130  139.9700 C   0  0  0  0  0  0  0  0  0  0  0  0
  189.4550  177.3660  138.3780 C   0  0  0  0  0  3  0  0  0  0  0  0
  189.1540  178.2270  140.7730 C   0  0  2  0  0  3  0  0  0  0  0  0
  186.9180  178.4480  141.8820 N   0  0  0  0  0  0  0  0  0  0  0  0
  191.6060  176.4920  137.6830 C   0  0  0  0  0  3  0  0  0  0  0  0
  189.7530  176.6220  136.0130 C   0  0  0  0  0  1  0  0  0  0  0  0
  187.0950  178.5080  139.5420 O   0  0  0  0  0  0  0  0  0  0  0  0
  189.9440  177.5480  139.6780 C   0  0  0  0  0  0  0  0  0  0  0  0
  192.1110  176.6890  138.9720 C   0  0  0  0  0  3  0  0  0  0  0  0
  189.5310  177.5850  142.1090 C   0  0  2  0  0  3  0  0  0  0  0  0
  191.8030  177.4410  141.3400 C   0  0  0  0  0  3  0  0  0  0  0  0
  190.2800  176.8250  137.3880 C   0  0  0  0  0  0  0  0  0  0  0  0
  187.3380  177.7920  143.0050 O   0  0  0  0  0  0  0  0  0  0  0  0
  188.6770  178.1770  143.2390 C   0  0  1  0  0  3  0  0  0  0  0  0
  187.6580  178.3280  140.6550 C   0  0  0  0  0  0  0  0  0  0  0  0
  190.9780  177.6710  142.3240 N   0  0  0  0  0  0  0  0  0  0  0  0
  190.8400  176.9500  146.1520 C   0  0  0  0  0  0  0  0  0  0  0  0
  189.8570  176.8130  147.2830 C   0  0  0  0  0  2  0  0  0  0  0  0
  189.1200  177.6900  144.5850 C   0  0  0  0  0  0  0  0  0  0  0  0
  188.4440  177.1540  146.8850 C   0  0  0  0  0  3  0  0  0  0  0  0
  190.4070  177.4080  144.8250 C   0  0  0  0  0  3  0  0  0  0  0  0
  188.1150  177.5560  145.6540 C   0  0  0  0  0  3  0  0  0  0  0  0
  192.0520  176.6720  146.3470 O   0  0  0  0  0  0  0  0  0  0  0  0
  185.7270  179.2850  141.9440 C   0  0  0  0  0  2  0  0  0  0  0  0
  184.6650  178.6380  142.8230 C   0  0  0  0  0  2  0  0  0  0  0  0
  183.3680  178.4300  142.0580 C   0  0  0  0  0  2  0  0  0  0  0  0
  183.6520  178.0390  140.6880 N   0  0  0  0  0  2  0  0  0  0  0  0
  184.0530  180.2540  139.1510 O   0  0  0  0  0  1  0  0  0  0  0  0
  182.5410  178.5080  139.8740 C   0  0  2  0  0  3  0  0  0  0  0  0
  183.0310  179.4040  138.7200 C   0  0  1  0  0  3  0  0  0  0  0  0
  180.5230  179.6900  138.4070 C   0  0  0  0  0  2  0  0  0  0  0  0
  180.2750  179.6430  139.9210 C   0  0  0  0  0  2  0  0  0  0  0  0
  181.5110  179.2330  140.7370 C   0  0  0  0  0  2  0  0  0  0  0  0
  181.9100  180.2520  138.1000 C   0  0  0  0  0  2  0  0  0  0  0  0
  1 11  1  0  0  0  0
  2  8  2  0  0  0  0
  3  8  1  6  0  0  0
  3 10  1  0  0  0  0
  4 24  1  0  0  0  0
  4 13  1  0  0  0  0
  5  9  1  0  0  0  0
  6 12  1  0  0  0  0
  7 15  2  0  0  0  0
  8  1  1  0  0  0  0
  9  1  2  0  0  0  0
 10 16  1  1  0  0  0
 10 14  1  0  0  0  0
 11 16  2  0  0  0  0
 12  5  2  0  0  0  0
 12  2  1  0  0  0  0
 13 14  1  0  0  0  0
 14 19  1  1  0  0  0
 15  3  1  0  0  0  0
 15  4  1  0  0  0  0
 17 23  2  0  0  0  0
 17 18  1  0  0  0  0
 19 21  2  0  0  0  0
 19 22  1  0  0  0  0
 20 18  1  0  0  0  0
 21 17  1  0  0  0  0
 22 20  2  0  0  0  0
 24 25  1  0  0  0  0
 26 25  1  0  0  0  0
 27 26  1  0  0  0  0
 29 27  1  1  0  0  0
 29 33  1  0  0  0  0
 30 28  1  1  0  0  0
 30 29  1  0  0  0  0
 31 32  1  0  0  0  0
 32 33  1  0  0  0  0
 34 31  1  0  0  0  0
 34 30  1  0  0  0  0
M  END
>  <MODEL>
2

>  <REMARK>
 VINA RESULT:      -8.6      2.478      5.281
  Name = 
  6 active torsions:
  status: ('A' for Active; 'I' for Inactive)
    1  A    between atoms: N_3  and  C_13
    2  A    between atoms: N_3  and  C_17
    3  A    between atoms: N_5  and  C_18
    4  A    between atoms: C_12  and  C_28
    5  A    between atoms: C_17  and  C_29
    6  A    between atoms: C_18  and  C_29
                            x       y       z     vdW  Elec       q    Type
                         _______ _______ _______ _____ _____    ______ ____

>  <TORSDO>
F 6

$$$$
=
 OpenBabel10262423593D

 34 38  0  0  1  0  0  0  0  0999 V2000
  190.3170  176.8020  145.1440 C   0  0  0  0  0  0  0  0  0  0  0  0
  188.5560  177.7000  146.5580 C   0  0  0  0  0  3  0  0  0  0  0  0
  188.0670  177.1020  144.1140 C   0  0  2  0  0  3  0  0  0  0  0  0
  186.1910  178.1170  142.8010 N   0  0  0  0  0  0  0  0  0  0  0  0
  190.7570  177.2710  147.4770 C   0  0  0  0  0  3  0  0  0  0  0  0
  188.9810  178.2010  148.9670 C   0  0  0  0  0  1  0  0  0  0  0  0
  186.0800  178.0110  145.1430 O   0  0  0  0  0  0  0  0  0  0  0  0
  188.9900  177.2580  145.3010 C   0  0  0  0  0  0  0  0  0  0  0  0
  191.1950  176.8080  146.2320 C   0  0  0  0  0  3  0  0  0  0  0  0
  188.8590  177.4120  142.8440 C   0  0  2  0  0  3  0  0  0  0  0  0
  190.7570  176.3060  143.8190 C   0  0  0  0  0  3  0  0  0  0  0  0
  189.4420  177.7200  147.6390 C   0  0  0  0  0  0  0  0  0  0  0  0
  187.0060  178.4190  141.7460 O   0  0  0  0  0  0  0  0  0  0  0  0
  187.9350  177.3620  141.6190 C   0  0  1  0  0  3  0  0  0  0  0  0
  186.7540  177.8350  144.0940 C   0  0  0  0  0  0  0  0  0  0  0  0
  190.0390  176.5460  142.7570 N   0  0  0  0  0  0  0  0  0  0  0  0
  189.2460  178.6880  138.2740 C   0  0  0  0  0  0  0  0  0  0  0  0
  190.3130  177.6960  137.9000 C   0  0  0  0  0  2  0  0  0  0  0  0
  188.6990  177.5050  140.3380 C   0  0  0  0  0  0  0  0  0  0  0  0
  190.4590  176.5770  138.8970 C   0  0  0  0  0  3  0  0  0  0  0  0
  188.4810  178.5410  139.5190 C   0  0  0  0  0  3  0  0  0  0  0  0
  189.7210  176.4960  140.0090 C   0  0  0  0  0  3  0  0  0  0  0  0
  189.0080  179.6610  137.5110 O   0  0  0  0  0  0  0  0  0  0  0  0
  184.7490  178.0650  142.6000 C   0  0  0  0  0  2  0  0  0  0  0  0
  184.3660  178.7490  141.2940 C   0  0  0  0  0  2  0  0  0  0  0  0
  183.4920  177.8490  140.4350 C   0  0  0  0  0  2  0  0  0  0  0  0
  183.2970  178.4440  139.1240 N   0  0  0  0  0  2  0  0  0  0  0  0
  185.6600  179.1060  137.9380 O   0  0  0  0  0  1  0  0  0  0  0  0
  183.8500  177.5130  138.1510 C   0  0  2  0  0  3  0  0  0  0  0  0
  185.3610  177.7410  137.9540 C   0  0  1  0  0  3  0  0  0  0  0  0
  184.9820  176.0030  136.1360 C   0  0  0  0  0  2  0  0  0  0  0  0
  183.5910  176.5660  135.8140 C   0  0  0  0  0  2  0  0  0  0  0  0
  183.1000  177.6140  136.8240 C   0  0  0  0  0  2  0  0  0  0  0  0
  185.9040  177.0990  136.6680 C   0  0  0  0  0  2  0  0  0  0  0  0
  1  8  2  0  0  0  0
  1  9  1  0  0  0  0
  2 12  2  0  0  0  0
  3 15  1  1  0  0  0
  3  8  1  0  0  0  0
  4 15  1  0  0  0  0
  5 12  1  0  0  0  0
  8  2  1  0  0  0  0
  9  5  2  0  0  0  0
 10 16  1  6  0  0  0
 10  3  1  0  0  0  0
 11  1  1  0  0  0  0
 12  6  1  0  0  0  0
 13  4  1  0  0  0  0
 14 19  1  6  0  0  0
 14 13  1  0  0  0  0
 14 10  1  0  0  0  0
 15  7  2  0  0  0  0
 16 11  2  0  0  0  0
 17 21  1  0  0  0  0
 18 17  1  0  0  0  0
 18 20  1  0  0  0  0
 20 22  2  0  0  0  0
 21 19  2  0  0  0  0
 22 19  1  0  0  0  0
 23 17  2  0  0  0  0
 24  4  1  0  0  0  0
 25 24  1  0  0  0  0
 26 25  1  0  0  0  0
 27 26  1  0  0  0  0
 29 27  1  1  0  0  0
 30 28  1  6  0  0  0
 30 29  1  0  0  0  0
 31 34  1  0  0  0  0
 32 31  1  0  0  0  0
 32 33  1  0  0  0  0
 33 29  1  0  0  0  0
 34 30  1  0  0  0  0
M  END
>  <MODEL>
3

>  <REMARK>
 VINA RESULT:      -8.4      2.031      7.720
  Name = 
  6 active torsions:
  status: ('A' for Active; 'I' for Inactive)
    1  A    between atoms: N_3  and  C_13
    2  A    between atoms: N_3  and  C_17
    3  A    between atoms: N_5  and  C_18
    4  A    between atoms: C_12  and  C_28
    5  A    between atoms: C_17  and  C_29
    6  A    between atoms: C_18  and  C_29
                            x       y       z     vdW  Elec       q    Type
                         _______ _______ _______ _____ _____    ______ ____

>  <TORSDO>
F 6

$$$$
=
 OpenBabel10262423593D

 34 38  0  0  1  0  0  0  0  0999 V2000
  190.9130  176.5020  145.4830 C   0  0  0  0  0  0  0  0  0  0  0  0
  189.0210  177.6290  146.5090 C   0  0  0  0  0  3  0  0  0  0  0  0
  188.9000  176.8780  144.0630 C   0  0  2  0  0  3  0  0  0  0  0  0
  187.3620  177.9190  142.3810 N   0  0  0  0  0  0  0  0  0  0  0  0
  190.9940  177.1180  147.8220 C   0  0  0  0  0  3  0  0  0  0  0  0
  189.0770  178.2860  148.9180 C   0  0  0  0  0  1  0  0  0  0  0  0
  186.8520  178.0040  144.6710 O   0  0  0  0  0  0  0  0  0  0  0  0
  189.6210  177.0610  145.3790 C   0  0  0  0  0  0  0  0  0  0  0  0
  191.5940  176.5290  146.7040 C   0  0  0  0  0  3  0  0  0  0  0  0
  189.9180  177.0310  142.9310 C   0  0  2  0  0  3  0  0  0  0  0  0
  191.5260  175.8730  144.2890 C   0  0  0  0  0  3  0  0  0  0  0  0
  189.7120  177.6710  147.7240 C   0  0  0  0  0  0  0  0  0  0  0  0
  188.3640  178.0780  141.4660 O   0  0  0  0  0  0  0  0  0  0  0  0
  189.2100  176.9520  141.5710 C   0  0  1  0  0  3  0  0  0  0  0  0
  187.6750  177.6990  143.7670 C   0  0  0  0  0  0  0  0  0  0  0  0
  191.0190  176.0800  143.1060 N   0  0  0  0  0  0  0  0  0  0  0  0
  192.4340  177.2110  139.5190 C   0  0  0  0  0  0  0  0  0  0  0  0
  192.0000  176.8090  138.1360 C   0  0  0  0  0  2  0  0  0  0  0  0
  190.1880  176.9400  140.4340 C   0  0  0  0  0  0  0  0  0  0  0  0
  190.5300  176.4980  138.0430 C   0  0  0  0  0  3  0  0  0  0  0  0
  191.4760  177.2430  140.6320 C   0  0  0  0  0  3  0  0  0  0  0  0
  189.7080  176.5570  139.0950 C   0  0  0  0  0  3  0  0  0  0  0  0
  193.6360  177.5200  139.7270 O   0  0  0  0  0  0  0  0  0  0  0  0
  185.9740  177.9530  141.9370 C   0  0  0  0  0  2  0  0  0  0  0  0
  185.7180  179.1860  141.0790 C   0  0  0  0  0  2  0  0  0  0  0  0
  184.4390  179.0390  140.2720 C   0  0  0  0  0  2  0  0  0  0  0  0
  184.7090  179.2570  138.8610 N   0  0  0  0  0  2  0  0  0  0  0  0
  186.8720  179.1070  137.2090 O   0  0  0  0  0  1  0  0  0  0  0  0
  185.0330  177.9600  138.2860 C   0  0  2  0  0  3  0  0  0  0  0  0
  186.4990  177.9060  137.8170 C   0  0  1  0  0  3  0  0  0  0  0  0
  185.7150  175.6550  136.9280 C   0  0  0  0  0  2  0  0  0  0  0  0
  184.3250  176.2130  136.5910 C   0  0  0  0  0  2  0  0  0  0  0  0
  184.0760  177.6250  137.1440 C   0  0  0  0  0  2  0  0  0  0  0  0
  186.7770  176.7500  136.8430 C   0  0  0  0  0  2  0  0  0  0  0  0
  1  9  1  0  0  0  0
  2 12  2  0  0  0  0
  3 15  1  6  0  0  0
  3  8  1  0  0  0  0
  4 15  1  0  0  0  0
  8  1  2  0  0  0  0
  8  2  1  0  0  0  0
  9  5  2  0  0  0  0
 10 16  1  6  0  0  0
 10  3  1  0  0  0  0
 11  1  1  0  0  0  0
 12  5  1  0  0  0  0
 12  6  1  0  0  0  0
 13 14  1  0  0  0  0
 13  4  1  0  0  0  0
 14 19  1  6  0  0  0
 14 10  1  0  0  0  0
 15  7  2  0  0  0  0
 16 11  2  0  0  0  0
 17 23  2  0  0  0  0
 17 21  1  0  0  0  0
 18 17  1  0  0  0  0
 19 21  2  0  0  0  0
 20 18  1  0  0  0  0
 20 22  2  0  0  0  0
 22 19  1  0  0  0  0
 24  4  1  0  0  0  0
 25 24  1  0  0  0  0
 26 25  1  0  0  0  0
 27 26  1  0  0  0  0
 29 27  1  6  0  0  0
 30 28  1  6  0  0  0
 30 29  1  0  0  0  0
 32 31  1  0  0  0  0
 32 33  1  0  0  0  0
 33 29  1  0  0  0  0
 34 31  1  0  0  0  0
 34 30  1  0  0  0  0
M  END
>  <MODEL>
4

>  <REMARK>
 VINA RESULT:      -8.4      2.243      7.652
  Name = 
  6 active torsions:
  status: ('A' for Active; 'I' for Inactive)
    1  A    between atoms: N_3  and  C_13
    2  A    between atoms: N_3  and  C_17
    3  A    between atoms: N_5  and  C_18
    4  A    between atoms: C_12  and  C_28
    5  A    between atoms: C_17  and  C_29
    6  A    between atoms: C_18  and  C_29
                            x       y       z     vdW  Elec       q    Type
                         _______ _______ _______ _____ _____    ______ ____

>  <TORSDO>
F 6

$$$$
=
 OpenBabel10262423593D

 34 38  0  0  1  0  0  0  0  0999 V2000
  181.9120  179.1100  141.0450 C   0  0  0  0  0  0  0  0  0  0  0  0
  182.6530  179.8400  138.8490 C   0  0  0  0  0  3  0  0  0  0  0  0
  184.2280  178.4970  140.3590 C   0  0  2  0  0  3  0  0  0  0  0  0
  186.7240  178.5710  140.1530 N   0  0  0  0  0  0  0  0  0  0  0  0
  180.3870  180.2900  139.5820 C   0  0  0  0  0  3  0  0  0  0  0  0
  181.1070  181.0670  137.3200 C   0  0  0  0  0  1  0  0  0  0  0  0
  185.3640  179.0730  138.3070 O   0  0  0  0  0  0  0  0  0  0  0  0
  182.9280  179.2120  140.0700 C   0  0  0  0  0  0  0  0  0  0  0  0
  180.6450  179.6470  140.7970 C   0  0  0  0  0  3  0  0  0  0  0  0
  184.5460  178.6580  141.8470 C   0  0  2  0  0  3  0  0  0  0  0  0
  182.2030  178.4150  142.3210 C   0  0  0  0  0  3  0  0  0  0  0  0
  181.3900  180.3900  138.6120 C   0  0  0  0  0  0  0  0  0  0  0  0
  186.8940  178.7880  141.4910 O   0  0  0  0  0  0  0  0  0  0  0  0
  185.9100  178.0310  142.1660 C   0  0  1  0  0  3  0  0  0  0  0  0
  185.4470  178.8120  139.5370 C   0  0  0  0  0  0  0  0  0  0  0  0
  183.4350  178.1560  142.6610 N   0  0  0  0  0  0  0  0  0  0  0  0
  185.6190  178.5890  145.9440 C   0  0  0  0  0  0  0  0  0  0  0  0
  186.8280  177.8830  146.4950 C   0  0  0  0  0  2  0  0  0  0  0  0
  186.1910  178.0270  143.6390 C   0  0  0  0  0  0  0  0  0  0  0  0
  187.6950  177.2700  145.4270 C   0  0  0  0  0  3  0  0  0  0  0  0
  185.3510  178.6120  144.5000 C   0  0  0  0  0  3  0  0  0  0  0  0
  187.3980  177.3370  144.1250 C   0  0  0  0  0  3  0  0  0  0  0  0
  184.8240  179.1640  146.7320 O   0  0  0  0  0  0  0  0  0  0  0  0
  187.8420  178.0760  139.3600 C   0  0  0  0  0  2  0  0  0  0  0  0
  188.7460  177.1890  140.2070 C   0  0  0  0  0  2  0  0  0  0  0  0
  189.9960  177.9340  140.6440 C   0  0  0  0  0  2  0  0  0  0  0  0
  191.0180  176.9920  141.0680 N   0  0  0  0  0  2  0  0  0  0  0  0
  190.1010  175.2690  142.9710 O   0  0  0  0  0  1  0  0  0  0  0  0
  191.3220  177.2950  142.4590 C   0  0  2  0  0  3  0  0  0  0  0  0
  191.2060  176.0400  143.3440 C   0  0  1  0  0  3  0  0  0  0  0  0
  191.6070  177.7720  145.1630 C   0  0  0  0  0  2  0  0  0  0  0  0
  190.7980  178.8330  144.4050 C   0  0  0  0  0  2  0  0  0  0  0  0
  190.4240  178.4180  142.9730 C   0  0  0  0  0  2  0  0  0  0  0  0
  191.0990  176.3670  144.8410 C   0  0  0  0  0  2  0  0  0  0  0  0
  1 11  1  0  0  0  0
  2  8  1  0  0  0  0
  3 15  1  6  0  0  0
  3 10  1  0  0  0  0
  4 13  1  0  0  0  0
  5  9  2  0  0  0  0
  6 12  1  0  0  0  0
  7 15  2  0  0  0  0
  8  3  1  0  0  0  0
  8  1  2  0  0  0  0
  9  1  1  0  0  0  0
 10 14  1  0  0  0  0
 10 16  1  1  0  0  0
 11 16  2  0  0  0  0
 12  2  2  0  0  0  0
 12  5  1  0  0  0  0
 13 14  1  0  0  0  0
 14 19  1  1  0  0  0
 15  4  1  0  0  0  0
 17 18  1  0  0  0  0
 17 23  2  0  0  0  0
 19 22  1  0  0  0  0
 19 21  2  0  0  0  0
 20 18  1  0  0  0  0
 21 17  1  0  0  0  0
 22 20  2  0  0  0  0
 24  4  1  0  0  0  0
 24 25  1  0  0  0  0
 25 26  1  0  0  0  0
 26 27  1  0  0  0  0
 29 27  1  6  0  0  0
 29 33  1  0  0  0  0
 29 30  1  0  0  0  0
 30 28  1  6  0  0  0
 30 34  1  0  0  0  0
 32 31  1  0  0  0  0
 33 32  1  0  0  0  0
 34 31  1  0  0  0  0
M  END
>  <MODEL>
5

>  <REMARK>
 VINA RESULT:      -8.3      2.555      5.729
  Name = 
  6 active torsions:
  status: ('A' for Active; 'I' for Inactive)
    1  A    between atoms: N_3  and  C_13
    2  A    between atoms: N_3  and  C_17
    3  A    between atoms: N_5  and  C_18
    4  A    between atoms: C_12  and  C_28
    5  A    between atoms: C_17  and  C_29
    6  A    between atoms: C_18  and  C_29
                            x       y       z     vdW  Elec       q    Type
                         _______ _______ _______ _____ _____    ______ ____

>  <TORSDO>
F 6

$$$$
=
 OpenBabel10262423593D

 34 38  0  0  1  0  0  0  0  0999 V2000
  183.4190  178.7850  141.4390 C   0  0  0  0  0  0  0  0  0  0  0  0
  185.3070  178.8460  142.9670 C   0  0  0  0  0  3  0  0  0  0  0  0
  185.6990  178.8550  140.4350 C   0  0  2  0  0  3  0  0  0  0  0  0
  187.8340  178.0830  139.3730 N   0  0  0  0  0  0  0  0  0  0  0  0
  183.0410  178.8780  143.8270 C   0  0  0  0  0  3  0  0  0  0  0  0
  184.9500  178.9340  145.4370 C   0  0  0  0  0  1  0  0  0  0  0  0
  187.8220  178.8620  141.5880 O   0  0  0  0  0  0  0  0  0  0  0  0
  184.8140  178.7820  141.6580 C   0  0  0  0  0  0  0  0  0  0  0  0
  182.5380  178.8360  142.5220 C   0  0  0  0  0  3  0  0  0  0  0  0
  185.0740  177.9950  139.3350 C   0  0  2  0  0  3  0  0  0  0  0  0
  182.9070  178.7510  140.0480 C   0  0  0  0  0  3  0  0  0  0  0  0
  184.4220  178.8790  144.0490 C   0  0  0  0  0  0  0  0  0  0  0  0
  187.1770  177.2850  138.4790 O   0  0  0  0  0  0  0  0  0  0  0  0
  185.9930  177.9610  138.1060 C   0  0  1  0  0  3  0  0  0  0  0  0
  187.1650  178.5430  140.5610 C   0  0  0  0  0  0  0  0  0  0  0  0
  183.7030  178.4360  139.0640 N   0  0  0  0  0  0  0  0  0  0  0  0
  183.8200  175.6030  136.0100 C   0  0  0  0  0  0  0  0  0  0  0  0
  184.1150  176.0230  134.5960 C   0  0  0  0  0  2  0  0  0  0  0  0
  185.3480  177.2590  136.9480 C   0  0  0  0  0  0  0  0  0  0  0  0
  185.1270  177.1350  134.5060 C   0  0  0  0  0  3  0  0  0  0  0  0
  184.4640  176.2750  137.1470 C   0  0  0  0  0  3  0  0  0  0  0  0
  185.6850  177.6960  135.5820 C   0  0  0  0  0  3  0  0  0  0  0  0
  183.0070  174.6670  136.2230 O   0  0  0  0  0  0  0  0  0  0  0  0
  189.2090  178.4800  139.1030 C   0  0  0  0  0  2  0  0  0  0  0  0
  190.1540  177.3010  139.3000 C   0  0  0  0  0  2  0  0  0  0  0  0
  190.8700  177.3870  140.6380 C   0  0  0  0  0  2  0  0  0  0  0  0
  190.4700  176.2830  141.4930 N   0  0  0  0  0  2  0  0  0  0  0  0
  191.7470  175.5580  143.7890 O   0  0  0  0  0  1  0  0  0  0  0  0
  189.9980  176.8620  142.7420 C   0  0  2  0  0  3  0  0  0  0  0  0
  191.0780  176.7830  143.8380 C   0  0  1  0  0  3  0  0  0  0  0  0
  189.1530  177.6780  145.2400 C   0  0  0  0  0  2  0  0  0  0  0  0
  188.1250  176.8560  144.4500 C   0  0  0  0  0  2  0  0  0  0  0  0
  188.7040  176.1890  143.1920 C   0  0  0  0  0  2  0  0  0  0  0  0
  190.5120  176.9820  145.2530 C   0  0  0  0  0  2  0  0  0  0  0  0
  1  8  2  0  0  0  0
  1  9  1  0  0  0  0
  2 12  2  0  0  0  0
  3 15  1  1  0  0  0
  3  8  1  0  0  0  0
  4 15  1  0  0  0  0
  5 12  1  0  0  0  0
  8  2  1  0  0  0  0
  9  5  2  0  0  0  0
 10 16  1  6  0  0  0
 10  3  1  0  0  0  0
 11  1  1  0  0  0  0
 12  6  1  0  0  0  0
 13  4  1  0  0  0  0
 14 19  1  6  0  0  0
 14 13  1  0  0  0  0
 14 10  1  0  0  0  0
 15  7  2  0  0  0  0
 16 11  2  0  0  0  0
 17 23  2  0  0  0  0
 17 21  1  0  0  0  0
 18 17  1  0  0  0  0
 19 21  2  0  0  0  0
 20 18  1  0  0  0  0
 20 22  2  0  0  0  0
 22 19  1  0  0  0  0
 24 25  1  0  0  0  0
 24  4  1  0  0  0  0
 25 26  1  0  0  0  0
 26 27  1  0  0  0  0
 29 27  1  6  0  0  0
 29 33  1  0  0  0  0
 29 30  1  0  0  0  0
 30 28  1  1  0  0  0
 30 34  1  0  0  0  0
 31 34  1  0  0  0  0
 32 31  1  0  0  0  0
 33 32  1  0  0  0  0
M  END
>  <MODEL>
6

>  <REMARK>
 VINA RESULT:      -8.3      2.394      7.156
  Name = 
  6 active torsions:
  status: ('A' for Active; 'I' for Inactive)
    1  A    between atoms: N_3  and  C_13
    2  A    between atoms: N_3  and  C_17
    3  A    between atoms: N_5  and  C_18
    4  A    between atoms: C_12  and  C_28
    5  A    between atoms: C_17  and  C_29
    6  A    between atoms: C_18  and  C_29
                            x       y       z     vdW  Elec       q    Type
                         _______ _______ _______ _____ _____    ______ ____

>  <TORSDO>
F 6

$$$$
=
 OpenBabel10262423593D

 34 38  0  0  1  0  0  0  0  0999 V2000
  188.8410  176.9470  144.9470 C   0  0  0  0  0  0  0  0  0  0  0  0
  187.7830  178.0890  146.8130 C   0  0  0  0  0  3  0  0  0  0  0  0
  186.5260  177.8030  144.5990 C   0  0  2  0  0  3  0  0  0  0  0  0
  184.6470  179.2970  143.8830 N   0  0  0  0  0  0  0  0  0  0  0  0
  189.9930  177.1260  147.0680 C   0  0  0  0  0  3  0  0  0  0  0  0
  188.9490  178.2970  149.0110 C   0  0  0  0  0  1  0  0  0  0  0  0
  185.1550  179.0340  146.1600 O   0  0  0  0  0  0  0  0  0  0  0  0
  187.7470  177.6630  145.4790 C   0  0  0  0  0  0  0  0  0  0  0  0
  189.9580  176.6780  145.7430 C   0  0  0  0  0  3  0  0  0  0  0  0
  186.9930  178.0330  143.1600 C   0  0  2  0  0  3  0  0  0  0  0  0
  188.7790  176.4720  143.5450 C   0  0  0  0  0  3  0  0  0  0  0  0
  188.9090  177.8330  147.6010 C   0  0  0  0  0  0  0  0  0  0  0  0
  185.1910  179.4980  142.6450 O   0  0  0  0  0  0  0  0  0  0  0  0
  185.7850  178.2790  142.2460 C   0  0  1  0  0  3  0  0  0  0  0  0
  185.4610  178.8000  144.9600 C   0  0  0  0  0  0  0  0  0  0  0  0
  187.8740  176.9440  142.7320 N   0  0  0  0  0  0  0  0  0  0  0  0
  187.8610  178.4280  139.0310 C   0  0  0  0  0  0  0  0  0  0  0  0
  186.8210  178.4340  137.9440 C   0  0  0  0  0  2  0  0  0  0  0  0
  186.1840  178.3550  140.8030 C   0  0  0  0  0  0  0  0  0  0  0  0
  185.4110  178.4150  138.4730 C   0  0  0  0  0  3  0  0  0  0  0  0
  187.4740  178.3740  140.4470 C   0  0  0  0  0  3  0  0  0  0  0  0
  185.1260  178.3770  139.7780 C   0  0  0  0  0  3  0  0  0  0  0  0
  189.0810  178.4650  138.7230 O   0  0  0  0  0  0  0  0  0  0  0  0
  183.2320  179.5720  144.0960 C   0  0  0  0  0  2  0  0  0  0  0  0
  182.3810  178.7890  143.1040 C   0  0  0  0  0  2  0  0  0  0  0  0
  180.9300  179.2400  143.1480 C   0  0  0  0  0  2  0  0  0  0  0  0
  180.4580  179.5430  141.8080 N   0  0  0  0  0  2  0  0  0  0  0  0
  180.5010  180.0860  139.1370 O   0  0  0  0  0  1  0  0  0  0  0  0
  181.0230  178.5360  140.9220 C   0  0  2  0  0  3  0  0  0  0  0  0
  181.4430  179.1510  139.5720 C   0  0  1  0  0  3  0  0  0  0  0  0
  181.8610  176.6990  139.0400 C   0  0  0  0  0  2  0  0  0  0  0  0
  180.6540  176.2560  139.8780 C   0  0  0  0  0  2  0  0  0  0  0  0
  180.0400  177.3850  140.7210 C   0  0  0  0  0  2  0  0  0  0  0  0
  181.6440  178.0990  138.4700 C   0  0  0  0  0  2  0  0  0  0  0  0
  1  8  2  0  0  0  0
  1  9  1  0  0  0  0
  2 12  2  0  0  0  0
  3 15  1  1  0  0  0
  3  8  1  0  0  0  0
  4 24  1  0  0  0  0
  4 15  1  0  0  0  0
  5 12  1  0  0  0  0
  8  2  1  0  0  0  0
  9  5  2  0  0  0  0
 10 16  1  6  0  0  0
 10  3  1  0  0  0  0
 11  1  1  0  0  0  0
 12  6  1  0  0  0  0
 13  4  1  0  0  0  0
 14 19  1  6  0  0  0
 14 13  1  0  0  0  0
 14 10  1  0  0  0  0
 15  7  2  0  0  0  0
 16 11  2  0  0  0  0
 17 21  1  0  0  0  0
 18 20  1  0  0  0  0
 18 17  1  0  0  0  0
 20 22  2  0  0  0  0
 21 19  2  0  0  0  0
 22 19  1  0  0  0  0
 23 17  2  0  0  0  0
 25 26  1  0  0  0  0
 25 24  1  0  0  0  0
 27 26  1  0  0  0  0
 29 27  1  1  0  0  0
 30 28  1  6  0  0  0
 30 29  1  0  0  0  0
 31 32  1  0  0  0  0
 32 33  1  0  0  0  0
 33 29  1  0  0  0  0
 34 31  1  0  0  0  0
 34 30  1  0  0  0  0
M  END
>  <MODEL>
7

>  <REMARK>
 VINA RESULT:      -8.3      2.928      7.702
  Name = 
  6 active torsions:
  status: ('A' for Active; 'I' for Inactive)
    1  A    between atoms: N_3  and  C_13
    2  A    between atoms: N_3  and  C_17
    3  A    between atoms: N_5  and  C_18
    4  A    between atoms: C_12  and  C_28
    5  A    between atoms: C_17  and  C_29
    6  A    between atoms: C_18  and  C_29
                            x       y       z     vdW  Elec       q    Type
                         _______ _______ _______ _____ _____    ______ ____

>  <TORSDO>
F 6

$$$$
=
 OpenBabel10262423593D

 34 38  0  0  1  0  0  0  0  0999 V2000
  186.1630  178.2430  138.6420 C   0  0  0  0  0  0  0  0  0  0  0  0
  186.2550  178.6190  141.0410 C   0  0  0  0  0  3  0  0  0  0  0  0
  188.4030  178.1390  139.7300 C   0  0  2  0  0  3  0  0  0  0  0  0
  190.4730  177.1970  140.7810 N   0  0  0  0  0  0  0  0  0  0  0  0
  184.1450  178.7960  139.8590 C   0  0  0  0  0  3  0  0  0  0  0  0
  184.1890  179.1830  142.3260 C   0  0  0  0  0  1  0  0  0  0  0  0
  188.9200  178.3910  142.0750 O   0  0  0  0  0  0  0  0  0  0  0  0
  186.9040  178.2970  139.8430 C   0  0  0  0  0  0  0  0  0  0  0  0
  184.7880  178.4950  138.6530 C   0  0  0  0  0  3  0  0  0  0  0  0
  188.6980  177.0760  138.6700 C   0  0  2  0  0  3  0  0  0  0  0  0
  186.8650  177.9340  137.3740 C   0  0  0  0  0  3  0  0  0  0  0  0
  184.8760  178.8540  141.0510 C   0  0  0  0  0  0  0  0  0  0  0  0
  190.6010  176.2340  139.8210 O   0  0  0  0  0  0  0  0  0  0  0  0
  190.2070  176.8120  138.5930 C   0  0  1  0  0  3  0  0  0  0  0  0
  189.2160  177.8730  140.9660 C   0  0  0  0  0  0  0  0  0  0  0  0
  188.0730  177.4420  137.3960 N   0  0  0  0  0  0  0  0  0  0  0  0
  191.7420  175.3710  135.3930 C   0  0  0  0  0  0  0  0  0  0  0  0
  191.2000  173.9690  135.3470 C   0  0  0  0  0  2  0  0  0  0  0  0
  190.5550  175.8930  137.4610 C   0  0  0  0  0  0  0  0  0  0  0  0
  190.2710  173.6550  136.4900 C   0  0  0  0  0  3  0  0  0  0  0  0
  191.3890  176.2830  136.4900 C   0  0  0  0  0  3  0  0  0  0  0  0
  189.9820  174.5350  137.4530 C   0  0  0  0  0  3  0  0  0  0  0  0
  192.5140  175.7690  134.4810 O   0  0  0  0  0  0  0  0  0  0  0  0
  191.6240  177.5470  141.6030 C   0  0  0  0  0  2  0  0  0  0  0  0
  191.6010  176.7690  142.9130 C   0  0  0  0  0  2  0  0  0  0  0  0
  191.2860  177.6790  144.0890 C   0  0  0  0  0  2  0  0  0  0  0  0
  190.6220  176.9270  145.1400 N   0  0  0  0  0  2  0  0  0  0  0  0
  189.3340  176.5050  147.5050 O   0  0  0  0  0  1  0  0  0  0  0  0
  189.2950  177.5030  145.3000 C   0  0  2  0  0  3  0  0  0  0  0  0
  188.9150  177.6290  146.7880 C   0  0  1  0  0  3  0  0  0  0  0  0
  186.7000  178.3270  145.7520 C   0  0  0  0  0  2  0  0  0  0  0  0
  186.8660  177.3320  144.5950 C   0  0  0  0  0  2  0  0  0  0  0  0
  188.2580  176.6840  144.5340 C   0  0  0  0  0  2  0  0  0  0  0  0
  187.4070  177.8240  147.0090 C   0  0  0  0  0  2  0  0  0  0  0  0
  1  9  2  0  0  0  0
  1  8  1  0  0  0  0
  2 12  1  0  0  0  0
  3  8  1  1  0  0  0
  3 15  1  0  0  0  0
  4 15  1  0  0  0  0
  4 24  1  0  0  0  0
  5 12  2  0  0  0  0
  8  2  2  0  0  0  0
  9  5  1  0  0  0  0
 10 16  1  6  0  0  0
 10  3  1  0  0  0  0
 11 16  2  0  0  0  0
 11  1  1  0  0  0  0
 12  6  1  0  0  0  0
 13  4  1  0  0  0  0
 14 19  1  6  0  0  0
 14 10  1  0  0  0  0
 14 13  1  0  0  0  0
 15  7  2  0  0  0  0
 17 21  1  0  0  0  0
 18 17  1  0  0  0  0
 18 20  1  0  0  0  0
 20 22  2  0  0  0  0
 21 19  2  0  0  0  0
 22 19  1  0  0  0  0
 23 17  2  0  0  0  0
 24 25  1  0  0  0  0
 25 26  1  0  0  0  0
 26 27  1  0  0  0  0
 29 27  1  1  0  0  0
 29 30  1  0  0  0  0
 30 34  1  0  0  0  0
 30 28  1  1  0  0  0
 31 34  1  0  0  0  0
 32 31  1  0  0  0  0
 33 32  1  0  0  0  0
 33 29  1  0  0  0  0
M  END
>  <MODEL>
8

>  <REMARK>
 VINA RESULT:      -8.2      2.836      5.328
  Name = 
  6 active torsions:
  status: ('A' for Active; 'I' for Inactive)
    1  A    between atoms: N_3  and  C_13
    2  A    between atoms: N_3  and  C_17
    3  A    between atoms: N_5  and  C_18
    4  A    between atoms: C_12  and  C_28
    5  A    between atoms: C_17  and  C_29
    6  A    between atoms: C_18  and  C_29
                            x       y       z     vdW  Elec       q    Type
                         _______ _______ _______ _____ _____    ______ ____

>  <TORSDO>
F 6

$$$$
=
 OpenBabel10262423593D

 34 38  0  0  1  0  0  0  0  0999 V2000
  187.3520  177.9970  146.7990 C   0  0  0  0  0  0  0  0  0  0  0  0
  189.4610  177.2490  145.8540 C   0  0  0  0  0  3  0  0  0  0  0  0
  187.7360  178.4330  144.3750 C   0  0  2  0  0  3  0  0  0  0  0  0
  187.6420  178.1610  141.8860 N   0  0  0  0  0  0  0  0  0  0  0  0
  189.0190  176.9700  148.2200 C   0  0  0  0  0  3  0  0  0  0  0  0
  191.1990  176.1780  147.2930 C   0  0  0  0  0  1  0  0  0  0  0  0
  189.6520  177.8040  143.0460 O   0  0  0  0  0  0  0  0  0  0  0  0
  188.1990  177.8310  145.6820 C   0  0  0  0  0  0  0  0  0  0  0  0
  187.7650  177.5690  148.0640 C   0  0  0  0  0  3  0  0  0  0  0  0
  186.2260  178.2210  144.2550 C   0  0  2  0  0  3  0  0  0  0  0  0
  186.0320  178.6440  146.6120 C   0  0  0  0  0  3  0  0  0  0  0  0
  189.8640  176.8060  147.1170 C   0  0  0  0  0  0  0  0  0  0  0  0
  186.3000  177.9070  141.8990 O   0  0  0  0  0  0  0  0  0  0  0  0
  185.7280  178.7300  142.8950 C   0  0  1  0  0  3  0  0  0  0  0  0
  188.4140  178.0350  143.0930 C   0  0  0  0  0  0  0  0  0  0  0  0
  185.5390  178.7970  145.4140 N   0  0  0  0  0  0  0  0  0  0  0  0
  182.1610  178.4150  141.5350 C   0  0  0  0  0  0  0  0  0  0  0  0
  181.3060  178.5540  142.7640 C   0  0  0  0  0  2  0  0  0  0  0  0
  184.2330  178.6850  142.7980 C   0  0  0  0  0  0  0  0  0  0  0  0
  182.1050  178.7890  144.0190 C   0  0  0  0  0  3  0  0  0  0  0  0
  183.6260  178.4770  141.6230 C   0  0  0  0  0  3  0  0  0  0  0  0
  183.4400  178.8460  144.0290 C   0  0  0  0  0  3  0  0  0  0  0  0
  181.6140  178.2380  140.4150 O   0  0  0  0  0  0  0  0  0  0  0  0
  188.2810  178.5780  140.6450 C   0  0  0  0  0  2  0  0  0  0  0  0
  188.5460  177.3740  139.7490 C   0  0  0  0  0  2  0  0  0  0  0  0
  188.9040  177.8060  138.3370 C   0  0  0  0  0  2  0  0  0  0  0  0
  187.8240  178.5910  137.7640 N   0  0  0  0  0  2  0  0  0  0  0  0
  186.8020  178.1750  135.2710 O   0  0  0  0  0  1  0  0  0  0  0  0
  186.6750  177.7060  137.6430 C   0  0  2  0  0  3  0  0  0  0  0  0
  186.5300  177.1720  136.2050 C   0  0  1  0  0  3  0  0  0  0  0  0
  184.3850  176.2300  137.1970 C   0  0  0  0  0  2  0  0  0  0  0  0
  184.1910  177.4670  138.0860 C   0  0  0  0  0  2  0  0  0  0  0  0
  185.4010  178.4130  138.0990 C   0  0  0  0  0  2  0  0  0  0  0  0
  185.1360  176.5920  135.9170 C   0  0  0  0  0  2  0  0  0  0  0  0
  1  9  1  0  0  0  0
  2 12  2  0  0  0  0
  3 15  1  6  0  0  0
  3  8  1  0  0  0  0
  4 13  1  0  0  0  0
  4 15  1  0  0  0  0
  7 15  2  0  0  0  0
  8  2  1  0  0  0  0
  8  1  2  0  0  0  0
  9  5  2  0  0  0  0
 10  3  1  0  0  0  0
 10 16  1  1  0  0  0
 11  1  1  0  0  0  0
 12  6  1  0  0  0  0
 12  5  1  0  0  0  0
 13 14  1  0  0  0  0
 14 19  1  1  0  0  0
 14 10  1  0  0  0  0
 16 11  2  0  0  0  0
 17 21  1  0  0  0  0
 17 18  1  0  0  0  0
 18 20  1  0  0  0  0
 19 22  1  0  0  0  0
 20 22  2  0  0  0  0
 21 19  2  0  0  0  0
 23 17  2  0  0  0  0
 24  4  1  0  0  0  0
 25 24  1  0  0  0  0
 26 25  1  0  0  0  0
 27 26  1  0  0  0  0
 29 27  1  6  0  0  0
 29 33  1  0  0  0  0
 30 28  1  6  0  0  0
 30 29  1  0  0  0  0
 31 32  1  0  0  0  0
 32 33  1  0  0  0  0
 34 30  1  0  0  0  0
 34 31  1  0  0  0  0
M  END
>  <MODEL>
9

>  <REMARK>
 VINA RESULT:      -8.2      1.996      8.829
  Name = 
  6 active torsions:
  status: ('A' for Active; 'I' for Inactive)
    1  A    between atoms: N_3  and  C_13
    2  A    between atoms: N_3  and  C_17
    3  A    between atoms: N_5  and  C_18
    4  A    between atoms: C_12  and  C_28
    5  A    between atoms: C_17  and  C_29
    6  A    between atoms: C_18  and  C_29
                            x       y       z     vdW  Elec       q    Type
                         _______ _______ _______ _____ _____    ______ ____

>  <TORSDO>
F 6

$$$$
