=
 OpenBabel10272413323D

 32 37  0  0  1  0  0  0  0  0999 V2000
  191.4300  177.3010  142.3820 O   0  0  0  0  0  0  0  0  0  0  0  0
  186.7790  178.5860  141.1320 C   0  0  0  0  0  0  0  0  0  0  0  0
  184.2500  178.5590  145.3450 N   0  0  0  0  0  0  0  0  0  0  0  0
  183.1900  178.8790  144.6630 C   0  0  0  0  0  3  0  0  0  0  0  0
  188.8620  177.0650  141.0960 C   0  0  2  0  0  3  0  0  0  0  0  0
  187.9120  177.9190  143.2470 O   0  0  0  0  0  0  0  0  0  0  0  0
  189.0750  175.8330  143.2500 C   0  0  0  0  0  1  0  0  0  0  0  0
  185.5480  178.2110  144.7510 C   0  0  0  0  0  3  0  0  0  0  0  0
  186.7490  178.3390  142.5870 C   0  0  0  0  0  0  0  0  0  0  0  0
  185.6040  178.4860  143.2690 C   0  0  0  0  0  0  0  0  0  0  0  0
  184.4310  178.8860  141.0970 N   0  0  0  0  0  0  0  0  0  0  0  0
  191.3400  177.4200  140.9840 C   0  0  0  0  0  2  0  0  0  0  0  0
  189.0130  177.2270  142.6350 C   0  0  1  0  0  0  0  0  0  0  0  0
  190.1700  176.5830  140.4620 C   0  0  0  0  0  2  0  0  0  0  0  0
  190.3260  177.9920  142.9210 C   0  0  1  0  0  3  0  0  0  0  0  0
  183.2210  178.9680  143.1960 C   0  0  0  0  0  3  0  0  0  0  0  0
  184.3640  178.7880  142.5300 C   0  0  2  0  0  3  0  0  0  0  0  0
  188.3530  178.6240  140.3040 S   0  0  0  0  0  0  0  0  0  0  0  0
  185.6880  178.8150  140.4630 N   0  0  0  0  0  0  0  0  0  0  0  0
  183.5960  179.7980  138.9650 C   0  0  0  0  0  2  0  0  0  0  0  0
  182.4500  178.0070  137.5990 C   0  0  1  0  0  3  0  0  0  0  0  0
  181.5900  177.8240  138.8590 C   0  0  1  0  0  3  0  0  0  0  0  0
  180.8640  176.6370  138.7560 O   0  0  0  0  0  1  0  0  0  0  0  0
  181.6710  178.6780  136.5740 N   0  0  0  0  0  1  0  0  0  0  0  0
  183.2330  179.1180  140.2940 C   0  0  1  0  0  3  0  0  0  0  0  0
  183.7540  178.7760  137.8440 C   0  0  0  0  0  2  0  0  0  0  0  0
  181.6220  177.6290  141.2510 O   0  0  0  0  0  1  0  0  0  0  0  0
  182.4370  177.8140  140.1330 C   0  0  1  0  0  3  0  0  0  0  0  0
  190.5370  178.2360  144.4110 C   0  0  0  0  0  2  0  0  0  0  0  0
  190.5760  176.9170  145.1600 C   0  0  0  0  0  3  0  0  0  0  0  0
  191.6380  176.9940  146.2360 C   0  0  0  0  0  2  0  0  0  0  0  0
  190.1780  177.1540  146.6020 C   0  0  0  0  0  2  0  0  0  0  0  0
  1 15  1  0  0  0  0
  2  9  1  0  0  0  0
  4  3  1  0  0  0  0
  5 14  1  6  0  0  0
  5 13  1  0  0  0  0
  8  3  2  0  0  0  0
  9  6  1  0  0  0  0
  9 10  2  0  0  0  0
 10  8  1  0  0  0  0
 11 17  1  0  0  0  0
 12  1  1  0  0  0  0
 13 15  1  0  0  0  0
 13  6  1  0  0  0  0
 13  7  1  1  0  0  0
 14 12  1  0  0  0  0
 15 29  1  1  0  0  0
 16  4  2  0  0  0  0
 17 16  1  1  0  0  0
 17 10  1  0  0  0  0
 18  5  1  0  0  0  0
 18  2  1  0  0  0  0
 19 11  1  0  0  0  0
 19  2  2  0  0  0  0
 21 24  1  6  0  0  0
 21 26  1  0  0  0  0
 21 22  1  0  0  0  0
 22 23  1  6  0  0  0
 22 28  1  0  0  0  0
 25 20  1  6  0  0  0
 25 11  1  0  0  0  0
 26 20  1  0  0  0  0
 28 25  1  0  0  0  0
 28 27  1  1  0  0  0
 29 30  1  0  0  0  0
 30 31  1  0  0  0  0
 30 32  1  0  0  0  0
 31 32  1  0  0  0  0
M  END
>  <MODEL>
1

>  <REMARK>
 VINA RESULT:      -8.8      0.000      0.000
  Name = 
  3 active torsions:
  status: ('A' for Active; 'I' for Inactive)
    1  A    between atoms: C_1  and  C_10
    2  A    between atoms: C_10  and  C_24
    3  A    between atoms: N_16  and  C_27
                            x       y       z     vdW  Elec       q    Type
                         _______ _______ _______ _____ _____    ______ ____

>  <TORSDO>
F 3

$$$$
=
 OpenBabel10272413323D

 32 37  0  0  1  0  0  0  0  0999 V2000
  189.5190  177.5060  146.2010 O   0  0  0  0  0  0  0  0  0  0  0  0
  189.0260  176.9190  141.2760 C   0  0  0  0  0  0  0  0  0  0  0  0
  193.6030  177.0210  139.4940 N   0  0  0  0  0  0  0  0  0  0  0  0
  193.0990  176.8840  138.3020 C   0  0  0  0  0  3  0  0  0  0  0  0
  188.6960  178.1540  143.5160 C   0  0  2  0  0  3  0  0  0  0  0  0
  190.9420  177.3030  142.8190 O   0  0  0  0  0  0  0  0  0  0  0  0
  190.8290  179.2140  144.2460 C   0  0  0  0  0  1  0  0  0  0  0  0
  192.8120  177.2310  140.7130 C   0  0  0  0  0  3  0  0  0  0  0  0
  190.4730  177.0790  141.5170 C   0  0  0  0  0  0  0  0  0  0  0  0
  191.3330  177.0420  140.4890 C   0  0  0  0  0  0  0  0  0  0  0  0
  189.3770  176.9310  138.9350 N   0  0  0  0  0  0  0  0  0  0  0  0
  188.1530  177.4850  145.8700 C   0  0  0  0  0  2  0  0  0  0  0  0
  190.1790  177.8800  143.8910 C   0  0  1  0  0  0  0  0  0  0  0  0
  187.8680  178.4980  144.7580 C   0  0  0  0  0  2  0  0  0  0  0  0
  190.2100  176.9340  145.1140 C   0  0  1  0  0  3  0  0  0  0  0  0
  191.6450  176.8810  138.0820 C   0  0  0  0  0  3  0  0  0  0  0  0
  190.8040  176.9500  139.1160 C   0  0  2  0  0  3  0  0  0  0  0  0
  187.9420  176.7260  142.6740 S   0  0  0  0  0  0  0  0  0  0  0  0
  188.5430  176.8760  140.0700 N   0  0  0  0  0  0  0  0  0  0  0  0
  188.8030  175.4840  137.0250 C   0  0  0  0  0  2  0  0  0  0  0  0
  186.3120  175.4890  136.5980 C   0  0  1  0  0  3  0  0  0  0  0  0
  186.4950  177.0120  136.5060 C   0  0  1  0  0  3  0  0  0  0  0  0
  185.2450  177.6320  136.5460 O   0  0  0  0  0  1  0  0  0  0  0  0
  186.1000  174.9460  135.2680 N   0  0  0  0  0  1  0  0  0  0  0  0
  188.7800  176.9080  137.6020 C   0  0  1  0  0  3  0  0  0  0  0  0
  187.4820  174.7630  137.2740 C   0  0  0  0  0  2  0  0  0  0  0  0
  187.5110  178.9350  137.5200 O   0  0  0  0  0  1  0  0  0  0  0  0
  187.3840  177.5500  137.6290 C   0  0  1  0  0  3  0  0  0  0  0  0
  191.6330  176.5740  145.5280 C   0  0  0  0  0  2  0  0  0  0  0  0
  191.7680  176.6200  147.0380 C   0  0  0  0  0  3  0  0  0  0  0  0
  191.3320  175.2870  147.6110 C   0  0  0  0  0  2  0  0  0  0  0  0
  192.8050  175.6050  147.4740 C   0  0  0  0  0  2  0  0  0  0  0  0
  2  9  1  0  0  0  0
  2 18  1  0  0  0  0
  3  8  2  0  0  0  0
  4  3  1  0  0  0  0
  5 13  1  0  0  0  0
  5 14  1  1  0  0  0
  6 13  1  0  0  0  0
  9  6  1  0  0  0  0
 10  8  1  0  0  0  0
 10  9  2  0  0  0  0
 11 17  1  0  0  0  0
 11 19  1  0  0  0  0
 12  1  1  0  0  0  0
 13  7  1  1  0  0  0
 13 15  1  0  0  0  0
 14 12  1  0  0  0  0
 15 29  1  1  0  0  0
 15  1  1  0  0  0  0
 16  4  2  0  0  0  0
 17 16  1  1  0  0  0
 17 10  1  0  0  0  0
 18  5  1  0  0  0  0
 19  2  2  0  0  0  0
 20 26  1  0  0  0  0
 21 24  1  6  0  0  0
 21 26  1  0  0  0  0
 22 23  1  1  0  0  0
 22 21  1  0  0  0  0
 22 28  1  0  0  0  0
 25 20  1  1  0  0  0
 25 28  1  0  0  0  0
 25 11  1  0  0  0  0
 28 27  1  6  0  0  0
 29 30  1  0  0  0  0
 30 32  1  0  0  0  0
 30 31  1  0  0  0  0
 32 31  1  0  0  0  0
M  END
>  <MODEL>
2

>  <REMARK>
 VINA RESULT:      -8.7      3.708      5.808
  Name = 
  3 active torsions:
  status: ('A' for Active; 'I' for Inactive)
    1  A    between atoms: C_1  and  C_10
    2  A    between atoms: C_10  and  C_24
    3  A    between atoms: N_16  and  C_27
                            x       y       z     vdW  Elec       q    Type
                         _______ _______ _______ _____ _____    ______ ____

>  <TORSDO>
F 3

$$$$
=
 OpenBabel10272413323D

 32 37  0  0  1  0  0  0  0  0999 V2000
  191.2780  177.3970  143.0860 O   0  0  0  0  0  0  0  0  0  0  0  0
  187.1560  178.4850  140.5030 C   0  0  0  0  0  0  0  0  0  0  0  0
  183.5320  178.5670  143.8200 N   0  0  0  0  0  0  0  0  0  0  0  0
  182.7050  178.8250  142.8490 C   0  0  0  0  0  3  0  0  0  0  0  0
  189.1870  177.0270  141.1380 C   0  0  2  0  0  3  0  0  0  0  0  0
  187.6490  177.9460  142.8840 O   0  0  0  0  0  0  0  0  0  0  0  0
  188.7970  175.8980  143.3240 C   0  0  0  0  0  1  0  0  0  0  0  0
  184.9500  178.2330  143.6370 C   0  0  0  0  0  3  0  0  0  0  0  0
  186.7170  178.3010  141.9000 C   0  0  0  0  0  0  0  0  0  0  0  0
  185.4230  178.4430  142.2210 C   0  0  0  0  0  0  0  0  0  0  0  0
  184.9110  178.7120  139.7880 N   0  0  0  0  0  0  0  0  0  0  0  0
  191.5880  177.4510  141.7160 C   0  0  0  0  0  2  0  0  0  0  0  0
  188.8910  177.2610  142.6460 C   0  0  1  0  0  0  0  0  0  0  0  0
  190.6290  176.5580  140.9260 C   0  0  0  0  0  2  0  0  0  0  0  0
  190.0550  178.0780  143.2530 C   0  0  1  0  0  3  0  0  0  0  0  0
  183.1510  178.8500  141.4490 C   0  0  0  0  0  3  0  0  0  0  0  0
  184.4400  178.6750  141.1460 C   0  0  2  0  0  3  0  0  0  0  0  0
  188.9000  178.5340  140.1550 S   0  0  0  0  0  0  0  0  0  0  0  0
  186.2980  178.6510  139.5410 N   0  0  0  0  0  0  0  0  0  0  0  0
  183.4950  177.5020  138.1730 C   0  0  0  0  0  2  0  0  0  0  0  0
  181.0660  178.1500  138.4330 C   0  0  1  0  0  3  0  0  0  0  0  0
  181.5920  179.5780  138.2230 C   0  0  1  0  0  3  0  0  0  0  0  0
  180.5970  180.4930  138.5690 O   0  0  0  0  0  1  0  0  0  0  0  0
  180.3710  177.7090  137.2370 N   0  0  0  0  0  1  0  0  0  0  0  0
  183.9880  178.8720  138.6670 C   0  0  1  0  0  3  0  0  0  0  0  0
  182.1550  177.1350  138.8020 C   0  0  0  0  0  2  0  0  0  0  0  0
  183.2940  181.1560  138.8340 O   0  0  0  0  0  1  0  0  0  0  0  0
  182.8590  179.8460  139.0380 C   0  0  1  0  0  3  0  0  0  0  0  0
  189.8280  178.3940  144.7280 C   0  0  0  0  0  2  0  0  0  0  0  0
  189.7800  177.1130  145.5380 C   0  0  0  0  0  3  0  0  0  0  0  0
  190.4920  177.3370  146.8560 C   0  0  0  0  0  2  0  0  0  0  0  0
  188.9800  177.3560  146.8020 C   0  0  0  0  0  2  0  0  0  0  0  0
  1 15  1  0  0  0  0
  2  9  1  0  0  0  0
  4  3  1  0  0  0  0
  5 14  1  1  0  0  0
  5 13  1  0  0  0  0
  8  3  2  0  0  0  0
  9 10  2  0  0  0  0
  9  6  1  0  0  0  0
 10  8  1  0  0  0  0
 11 17  1  0  0  0  0
 12  1  1  0  0  0  0
 13  6  1  0  0  0  0
 13 15  1  0  0  0  0
 13  7  1  1  0  0  0
 14 12  1  0  0  0  0
 15 29  1  1  0  0  0
 16  4  2  0  0  0  0
 17 16  1  1  0  0  0
 17 10  1  0  0  0  0
 18  2  1  0  0  0  0
 18  5  1  0  0  0  0
 19 11  1  0  0  0  0
 19  2  2  0  0  0  0
 20 26  1  0  0  0  0
 21 24  1  6  0  0  0
 21 26  1  0  0  0  0
 22 21  1  0  0  0  0
 22 23  1  1  0  0  0
 22 28  1  0  0  0  0
 25 20  1  1  0  0  0
 25 28  1  0  0  0  0
 25 11  1  0  0  0  0
 28 27  1  6  0  0  0
 29 30  1  0  0  0  0
 30 32  1  0  0  0  0
 30 31  1  0  0  0  0
 32 31  1  0  0  0  0
M  END
>  <MODEL>
3

>  <REMARK>
 VINA RESULT:      -8.7      1.417      1.693
  Name = 
  3 active torsions:
  status: ('A' for Active; 'I' for Inactive)
    1  A    between atoms: C_1  and  C_10
    2  A    between atoms: C_10  and  C_24
    3  A    between atoms: N_16  and  C_27
                            x       y       z     vdW  Elec       q    Type
                         _______ _______ _______ _____ _____    ______ ____

>  <TORSDO>
F 3

$$$$
=
 OpenBabel10272413323D

 32 37  0  0  1  0  0  0  0  0999 V2000
  181.3910  179.2280  140.9520 O   0  0  0  0  0  0  0  0  0  0  0  0
  186.3040  178.7810  141.6620 C   0  0  0  0  0  0  0  0  0  0  0  0
  188.2060  178.1200  137.1800 N   0  0  0  0  0  0  0  0  0  0  0  0
  189.3780  178.0220  137.7370 C   0  0  0  0  0  3  0  0  0  0  0  0
  183.8410  178.0610  141.9220 C   0  0  2  0  0  3  0  0  0  0  0  0
  184.7940  178.6540  139.6870 O   0  0  0  0  0  0  0  0  0  0  0  0
  182.9890  177.0940  139.7910 C   0  0  0  0  0  1  0  0  0  0  0  0
  186.9400  178.2050  137.9180 C   0  0  0  0  0  2  0  0  0  0  0  0
  186.0930  178.6170  140.2110 C   0  0  0  0  0  0  0  0  0  0  0  0
  187.1390  178.4010  139.4000 C   0  0  0  0  0  0  0  0  0  0  0  0
  188.6010  178.2610  141.4240 N   0  0  0  0  0  0  0  0  0  0  0  0
  181.6640  179.2330  142.3320 C   0  0  0  0  0  2  0  0  0  0  0  0
  183.5930  178.3480  140.4150 C   0  0  1  0  0  0  0  0  0  0  0  0
  182.5230  178.0210  142.7000 C   0  0  0  0  0  2  0  0  0  0  0  0
  182.6020  179.5290  140.2970 C   0  0  1  0  0  3  0  0  0  0  0  0
  189.5360  178.0370  139.1980 C   0  0  0  0  0  3  0  0  0  0  0  0
  188.4780  178.2230  139.9910 C   0  0  0  0  0  0  0  0  0  0  0  0
  184.9370  179.3090  142.6710 S   0  0  0  0  0  0  0  0  0  0  0  0
  187.4720  178.5880  142.2010 N   0  0  0  0  0  0  0  0  0  0  0  0
  190.0150  178.9030  143.3380 C   0  0  0  0  0  2  0  0  0  0  0  0
  190.4920  176.9130  144.8220 C   0  0  1  0  0  3  0  0  0  0  0  0
  191.0230  176.2800  143.5270 C   0  0  1  0  0  3  0  0  0  0  0  0
  191.2010  174.9090  143.7220 O   0  0  0  0  0  1  0  0  0  0  0  0
  191.6070  177.2720  145.6790 N   0  0  0  0  0  1  0  0  0  0  0  0
  189.8840  178.0260  142.0830 C   0  0  1  0  0  3  0  0  0  0  0  0
  189.6000  178.1410  144.5920 C   0  0  0  0  0  2  0  0  0  0  0  0
  190.5930  175.9210  141.1940 O   0  0  0  0  0  1  0  0  0  0  0  0
  190.0850  176.5260  142.3440 C   0  0  1  0  0  3  0  0  0  0  0  0
  182.3310  179.9100  138.8450 C   0  0  0  0  0  2  0  0  0  0  0  0
  181.0990  180.7910  138.7540 C   0  0  0  0  0  3  0  0  0  0  0  0
  181.4780  182.1010  138.0970 C   0  0  0  0  0  2  0  0  0  0  0  0
  180.7680  181.0310  137.2960 C   0  0  0  0  0  2  0  0  0  0  0  0
  1 12  1  0  0  0  0
  2 19  2  0  0  0  0
  2 18  1  0  0  0  0
  3  4  2  0  0  0  0
  3  8  1  0  0  0  0
  4 16  1  0  0  0  0
  5 18  1  0  0  0  0
  5 14  1  1  0  0  0
  6  9  1  0  0  0  0
  6 13  1  0  0  0  0
  8 10  1  0  0  0  0
  9  2  1  0  0  0  0
 10 17  1  0  0  0  0
 10  9  2  0  0  0  0
 11 19  1  0  0  0  0
 12 14  1  0  0  0  0
 13  7  1  6  0  0  0
 13  5  1  0  0  0  0
 15 29  1  6  0  0  0
 15 13  1  0  0  0  0
 15  1  1  0  0  0  0
 16 17  2  0  0  0  0
 17 11  1  0  0  0  0
 20 26  1  0  0  0  0
 21 24  1  1  0  0  0
 22 23  1  1  0  0  0
 22 21  1  0  0  0  0
 25 11  1  1  0  0  0
 25 28  1  0  0  0  0
 25 20  1  0  0  0  0
 26 21  1  0  0  0  0
 28 27  1  6  0  0  0
 28 22  1  0  0  0  0
 30 29  1  0  0  0  0
 31 30  1  0  0  0  0
 32 31  1  0  0  0  0
 32 30  1  0  0  0  0
M  END
>  <MODEL>
4

>  <REMARK>
 VINA RESULT:      -8.3      2.594      8.589
  Name = 
  3 active torsions:
  status: ('A' for Active; 'I' for Inactive)
    1  A    between atoms: C_1  and  C_10
    2  A    between atoms: C_10  and  C_24
    3  A    between atoms: N_16  and  C_27
                            x       y       z     vdW  Elec       q    Type
                         _______ _______ _______ _____ _____    ______ ____

>  <TORSDO>
F 3

$$$$
=
 OpenBabel10272413323D

 32 37  0  0  1  0  0  0  0  0999 V2000
  190.5970  176.9070  145.7210 O   0  0  0  0  0  0  0  0  0  0  0  0
  188.9210  177.7880  141.1100 C   0  0  0  0  0  0  0  0  0  0  0  0
  184.2050  179.0490  141.6650 N   0  0  0  0  0  0  0  0  0  0  0  0
  184.1240  179.1560  140.3710 C   0  0  0  0  0  3  0  0  0  0  0  0
  189.8870  176.3120  142.9920 C   0  0  2  0  0  3  0  0  0  0  0  0
  187.9010  177.7810  143.3820 O   0  0  0  0  0  0  0  0  0  0  0  0
  188.1270  175.7850  144.6730 C   0  0  0  0  0  1  0  0  0  0  0  0
  185.3750  178.5300  142.3850 C   0  0  0  0  0  3  0  0  0  0  0  0
  187.7630  177.9910  142.0030 C   0  0  0  0  0  0  0  0  0  0  0  0
  186.5750  178.3440  141.4920 C   0  0  0  0  0  0  0  0  0  0  0  0
  187.5490  178.0800  139.2030 N   0  0  0  0  0  0  0  0  0  0  0  0
  191.6070  176.5990  144.7920 C   0  0  0  0  0  2  0  0  0  0  0  0
  188.8790  176.9290  144.0010 C   0  0  1  0  0  0  0  0  0  0  0  0
  191.0620  175.6530  143.7200 C   0  0  0  0  0  2  0  0  0  0  0  0
  189.6720  177.7360  145.0550 C   0  0  1  0  0  3  0  0  0  0  0  0
  185.2530  178.7990  139.5000 C   0  0  0  0  0  3  0  0  0  0  0  0
  186.4200  178.4190  140.0270 C   0  0  2  0  0  3  0  0  0  0  0  0
  190.5300  177.5640  141.8350 S   0  0  0  0  0  0  0  0  0  0  0  0
  188.7900  177.8120  139.8170 N   0  0  0  0  0  0  0  0  0  0  0  0
  188.6470  178.7970  137.1170 C   0  0  0  0  0  2  0  0  0  0  0  0
  189.2580  176.8070  135.6820 C   0  0  1  0  0  3  0  0  0  0  0  0
  187.7640  176.4680  135.8020 C   0  0  1  0  0  3  0  0  0  0  0  0
  187.5500  175.1600  135.3630 O   0  0  0  0  0  1  0  0  0  0  0  0
  189.5350  177.3070  134.3470 N   0  0  0  0  0  1  0  0  0  0  0  0
  187.4500  178.0670  137.7460 C   0  0  1  0  0  3  0  0  0  0  0  0
  189.7500  177.8190  136.7250 C   0  0  0  0  0  2  0  0  0  0  0  0
  185.9010  176.2970  137.3050 O   0  0  0  0  0  1  0  0  0  0  0  0
  187.2540  176.6310  137.2350 C   0  0  1  0  0  3  0  0  0  0  0  0
  188.7560  178.4170  146.0670 C   0  0  0  0  0  2  0  0  0  0  0  0
  188.6290  177.5660  147.3170 C   0  0  0  0  0  3  0  0  0  0  0  0
  188.9770  178.4110  148.5240 C   0  0  0  0  0  2  0  0  0  0  0  0
  187.5280  178.1290  148.1900 C   0  0  0  0  0  2  0  0  0  0  0  0
  2 18  1  0  0  0  0
  2  9  1  0  0  0  0
  3  8  2  0  0  0  0
  4  3  1  0  0  0  0
  5 14  1  1  0  0  0
  5 13  1  0  0  0  0
  6 13  1  0  0  0  0
  9  6  1  0  0  0  0
 10  9  2  0  0  0  0
 10  8  1  0  0  0  0
 11 19  1  0  0  0  0
 11 17  1  0  0  0  0
 12  1  1  0  0  0  0
 13  7  1  1  0  0  0
 13 15  1  0  0  0  0
 14 12  1  0  0  0  0
 15  1  1  0  0  0  0
 15 29  1  1  0  0  0
 16  4  2  0  0  0  0
 17 16  1  1  0  0  0
 17 10  1  0  0  0  0
 18  5  1  0  0  0  0
 19  2  2  0  0  0  0
 21 24  1  6  0  0  0
 21 22  1  0  0  0  0
 21 26  1  0  0  0  0
 22 23  1  1  0  0  0
 22 28  1  0  0  0  0
 25 20  1  6  0  0  0
 25 11  1  0  0  0  0
 26 20  1  0  0  0  0
 28 27  1  6  0  0  0
 28 25  1  0  0  0  0
 29 30  1  0  0  0  0
 30 32  1  0  0  0  0
 30 31  1  0  0  0  0
 32 31  1  0  0  0  0
M  END
>  <MODEL>
5

>  <REMARK>
 VINA RESULT:      -8.1      3.242      4.314
  Name = 
  3 active torsions:
  status: ('A' for Active; 'I' for Inactive)
    1  A    between atoms: C_1  and  C_10
    2  A    between atoms: C_10  and  C_24
    3  A    between atoms: N_16  and  C_27
                            x       y       z     vdW  Elec       q    Type
                         _______ _______ _______ _____ _____    ______ ____

>  <TORSDO>
F 3

$$$$
=
 OpenBabel10272413323D

 32 37  0  0  1  0  0  0  0  0999 V2000
  190.4190  175.2710  134.9500 O   0  0  0  0  0  0  0  0  0  0  0  0
  189.6370  176.8580  139.6100 C   0  0  0  0  0  0  0  0  0  0  0  0
  185.1580  178.8770  139.5570 N   0  0  0  0  0  0  0  0  0  0  0  0
  185.3200  179.1700  140.8140 C   0  0  0  0  0  3  0  0  0  0  0  0
  190.8520  176.8300  137.3350 C   0  0  2  0  0  3  0  0  0  0  0  0
  188.3580  176.9680  137.4760 O   0  0  0  0  0  0  0  0  0  0  0  0
  189.4590  177.9390  135.5930 C   0  0  0  0  0  1  0  0  0  0  0  0
  186.2030  178.3140  138.6930 C   0  0  0  0  0  2  0  0  0  0  0  0
  188.4330  177.2440  138.8480 C   0  0  0  0  0  0  0  0  0  0  0  0
  187.4290  177.8870  139.4610 C   0  0  0  0  0  0  0  0  0  0  0  0
  188.8410  178.0060  141.5210 N   0  0  0  0  0  0  0  0  0  0  0  0
  191.5820  175.0640  135.7130 C   0  0  0  0  0  2  0  0  0  0  0  0
  189.4830  176.7930  136.5990 C   0  0  1  0  0  0  0  0  0  0  0  0
  191.9850  176.3630  136.4160 C   0  0  0  0  0  2  0  0  0  0  0  0
  189.3580  175.4390  135.8630 C   0  0  1  0  0  3  0  0  0  0  0  0
  186.5910  178.9080  141.5040 C   0  0  0  0  0  3  0  0  0  0  0  0
  187.5920  178.2940  140.8690 C   0  0  0  0  0  0  0  0  0  0  0  0
  190.8350  175.7960  138.8340 S   0  0  0  0  0  0  0  0  0  0  0  0
  189.8110  177.2430  140.8390 N   0  0  0  0  0  0  0  0  0  0  0  0
  187.9100  178.0890  143.8010 C   0  0  0  0  0  2  0  0  0  0  0  0
  189.3700  176.8170  145.4250 C   0  0  1  0  0  3  0  0  0  0  0  0
  190.4780  177.7480  144.9070 C   0  0  1  0  0  3  0  0  0  0  0  0
  191.7200  177.2630  145.3200 O   0  0  0  0  0  1  0  0  0  0  0  0
  188.9820  177.2230  146.7640 N   0  0  0  0  0  1  0  0  0  0  0  0
  189.0990  178.4380  142.8930 C   0  0  1  0  0  3  0  0  0  0  0  0
  188.1320  176.7630  144.5210 C   0  0  0  0  0  2  0  0  0  0  0  0
  191.4750  178.7200  142.9530 O   0  0  0  0  0  1  0  0  0  0  0  0
  190.4450  177.8830  143.3840 C   0  0  1  0  0  3  0  0  0  0  0  0
  188.0210  175.2950  135.1440 C   0  0  0  0  0  2  0  0  0  0  0  0
  187.3970  173.9490  135.4580 C   0  0  0  0  0  3  0  0  0  0  0  0
  186.7120  174.0270  136.8070 C   0  0  0  0  0  2  0  0  0  0  0  0
  185.8920  174.1070  135.5370 C   0  0  0  0  0  2  0  0  0  0  0  0
  1 12  1  0  0  0  0
  1 15  1  0  0  0  0
  2 19  2  0  0  0  0
  3  4  2  0  0  0  0
  4 16  1  0  0  0  0
  5 14  1  6  0  0  0
  5 18  1  0  0  0  0
  6  9  1  0  0  0  0
  8 10  1  0  0  0  0
  8  3  1  0  0  0  0
  9 10  2  0  0  0  0
  9  2  1  0  0  0  0
 10 17  1  0  0  0  0
 12 14  1  0  0  0  0
 13  7  1  6  0  0  0
 13  5  1  0  0  0  0
 13  6  1  0  0  0  0
 15 29  1  6  0  0  0
 15 13  1  0  0  0  0
 17 16  2  0  0  0  0
 17 11  1  0  0  0  0
 18  2  1  0  0  0  0
 19 11  1  0  0  0  0
 20 26  1  0  0  0  0
 21 24  1  1  0  0  0
 22 23  1  6  0  0  0
 22 21  1  0  0  0  0
 25 11  1  6  0  0  0
 25 28  1  0  0  0  0
 25 20  1  0  0  0  0
 26 21  1  0  0  0  0
 28 27  1  1  0  0  0
 28 22  1  0  0  0  0
 29 30  1  0  0  0  0
 30 32  1  0  0  0  0
 30 31  1  0  0  0  0
 32 31  1  0  0  0  0
M  END
>  <MODEL>
6

>  <REMARK>
 VINA RESULT:      -7.7      3.828      7.728
  Name = 
  3 active torsions:
  status: ('A' for Active; 'I' for Inactive)
    1  A    between atoms: C_1  and  C_10
    2  A    between atoms: C_10  and  C_24
    3  A    between atoms: N_16  and  C_27
                            x       y       z     vdW  Elec       q    Type
                         _______ _______ _______ _____ _____    ______ ____

>  <TORSDO>
F 3

$$$$
=
 OpenBabel10272413323D

 32 37  0  0  1  0  0  0  0  0999 V2000
  189.2830  177.3480  145.7460 O   0  0  0  0  0  0  0  0  0  0  0  0
  190.7760  177.1570  140.9940 C   0  0  0  0  0  0  0  0  0  0  0  0
  186.7860  178.2340  138.3380 N   0  0  0  0  0  0  0  0  0  0  0  0
  187.5040  178.0660  137.2660 C   0  0  0  0  0  3  0  0  0  0  0  0
  190.3020  176.1600  143.3260 C   0  0  2  0  0  3  0  0  0  0  0  0
  188.6030  177.5620  142.1410 O   0  0  0  0  0  0  0  0  0  0  0  0
  187.8500  175.8940  143.6740 C   0  0  0  0  0  1  0  0  0  0  0  0
  187.2460  177.9430  139.7010 C   0  0  0  0  0  3  0  0  0  0  0  0
  189.3350  177.4740  140.9490 C   0  0  0  0  0  0  0  0  0  0  0  0
  188.7230  177.6450  139.7690 C   0  0  0  0  0  0  0  0  0  0  0  0
  190.8470  176.9690  138.6360 N   0  0  0  0  0  0  0  0  0  0  0  0
  190.6190  176.9120  145.6950 C   0  0  0  0  0  2  0  0  0  0  0  0
  188.9440  176.9150  143.3780 C   0  0  1  0  0  0  0  0  0  0  0  0
  190.7500  175.7340  144.7270 C   0  0  0  0  0  2  0  0  0  0  0  0
  189.0100  177.9660  144.5090 C   0  0  1  0  0  3  0  0  0  0  0  0
  188.8960  177.6010  137.3420 C   0  0  0  0  0  3  0  0  0  0  0  0
  189.4810  177.4060  138.5270 C   0  0  2  0  0  3  0  0  0  0  0  0
  191.6070  177.1800  142.5670 S   0  0  0  0  0  0  0  0  0  0  0  0
  191.4470  176.9050  139.9100 N   0  0  0  0  0  0  0  0  0  0  0  0
  193.1300  176.9130  137.7100 C   0  0  0  0  0  2  0  0  0  0  0  0
  193.7840  174.5630  137.0470 C   0  0  1  0  0  3  0  0  0  0  0  0
  192.5060  174.6220  136.1960 C   0  0  1  0  0  3  0  0  0  0  0  0
  192.1840  173.3370  135.7560 O   0  0  0  0  0  1  0  0  0  0  0  0
  194.9460  174.6660  136.1830 N   0  0  0  0  0  1  0  0  0  0  0  0
  191.6390  176.6490  137.4510 C   0  0  1  0  0  3  0  0  0  0  0  0
  193.8530  175.6390  138.1380 C   0  0  0  0  0  2  0  0  0  0  0  0
  190.1870  175.2420  136.1700 O   0  0  0  0  0  1  0  0  0  0  0  0
  191.3310  175.2220  136.9700 C   0  0  1  0  0  3  0  0  0  0  0  0
  187.7290  178.7880  144.6070 C   0  0  0  0  0  2  0  0  0  0  0  0
  186.7360  178.1070  145.5290 C   0  0  0  0  0  3  0  0  0  0  0  0
  185.9850  179.1650  146.3100 C   0  0  0  0  0  2  0  0  0  0  0  0
  185.3310  178.4970  145.1200 C   0  0  0  0  0  2  0  0  0  0  0  0
  2 18  1  0  0  0  0
  3  8  2  0  0  0  0
  4 16  2  0  0  0  0
  4  3  1  0  0  0  0
  5 13  1  0  0  0  0
  5 14  1  1  0  0  0
  6 13  1  0  0  0  0
  8 10  1  0  0  0  0
  9  2  1  0  0  0  0
  9  6  1  0  0  0  0
 10  9  2  0  0  0  0
 11 19  1  0  0  0  0
 12  1  1  0  0  0  0
 13  7  1  1  0  0  0
 13 15  1  0  0  0  0
 14 12  1  0  0  0  0
 15 29  1  1  0  0  0
 15  1  1  0  0  0  0
 17 16  1  1  0  0  0
 17 11  1  0  0  0  0
 17 10  1  0  0  0  0
 18  5  1  0  0  0  0
 19  2  2  0  0  0  0
 20 26  1  0  0  0  0
 21 24  1  6  0  0  0
 21 26  1  0  0  0  0
 22 23  1  1  0  0  0
 22 28  1  0  0  0  0
 22 21  1  0  0  0  0
 25 20  1  1  0  0  0
 25 11  1  0  0  0  0
 28 27  1  6  0  0  0
 28 25  1  0  0  0  0
 29 30  1  0  0  0  0
 30 31  1  0  0  0  0
 32 30  1  0  0  0  0
 32 31  1  0  0  0  0
M  END
>  <MODEL>
7

>  <REMARK>
 VINA RESULT:      -7.2      3.961      7.302
  Name = 
  3 active torsions:
  status: ('A' for Active; 'I' for Inactive)
    1  A    between atoms: C_1  and  C_10
    2  A    between atoms: C_10  and  C_24
    3  A    between atoms: N_16  and  C_27
                            x       y       z     vdW  Elec       q    Type
                         _______ _______ _______ _____ _____    ______ ____

>  <TORSDO>
F 3

$$$$
=
 OpenBabel10272413323D

 32 37  0  0  1  0  0  0  0  0999 V2000
  180.3780  180.1130  140.1860 O   0  0  0  0  0  0  0  0  0  0  0  0
  184.7450  178.5970  142.0490 C   0  0  0  0  0  0  0  0  0  0  0  0
  187.8270  178.5110  138.2230 N   0  0  0  0  0  0  0  0  0  0  0  0
  188.7510  178.0790  139.0300 C   0  0  0  0  0  3  0  0  0  0  0  0
  182.2510  178.3250  141.4520 C   0  0  2  0  0  3  0  0  0  0  0  0
  183.9060  179.1680  139.7750 O   0  0  0  0  0  0  0  0  0  0  0  0
  181.9770  177.9940  138.9980 C   0  0  0  0  0  1  0  0  0  0  0  0
  186.4160  178.6840  138.5920 C   0  0  0  0  0  2  0  0  0  0  0  0
  184.9680  178.7760  140.6010 C   0  0  0  0  0  0  0  0  0  0  0  0
  186.1760  178.5330  140.0730 C   0  0  0  0  0  0  0  0  0  0  0  0
  186.9220  177.7060  142.3120 N   0  0  0  0  0  0  0  0  0  0  0  0
  180.2150  179.7850  141.5430 C   0  0  0  0  0  2  0  0  0  0  0  0
  182.5110  178.9550  140.0550 C   0  0  1  0  0  0  0  0  0  0  0  0
  180.7630  178.3820  141.8120 C   0  0  0  0  0  2  0  0  0  0  0  0
  181.7590  180.3040  139.9760 C   0  0  1  0  0  3  0  0  0  0  0  0
  188.4560  177.7650  140.4360 C   0  0  0  0  0  3  0  0  0  0  0  0
  187.2380  177.9850  140.9370 C   0  0  0  0  0  0  0  0  0  0  0  0
  183.2120  179.1610  142.7540 S   0  0  0  0  0  0  0  0  0  0  0  0
  185.6590  178.0790  142.8150 N   0  0  0  0  0  0  0  0  0  0  0  0
  189.3240  177.2720  142.6510 C   0  0  0  0  0  2  0  0  0  0  0  0
  190.1540  178.3670  144.7730 C   0  0  1  0  0  3  0  0  0  0  0  0
  189.0270  177.5610  145.4370 C   0  0  1  0  0  3  0  0  0  0  0  0
  188.8220  178.0340  146.7340 O   0  0  0  0  0  1  0  0  0  0  0  0
  191.4350  177.7650  145.0970 N   0  0  0  0  0  1  0  0  0  0  0  0
  187.9030  177.1010  143.2100 C   0  0  1  0  0  3  0  0  0  0  0  0
  190.0120  178.4940  143.2500 C   0  0  0  0  0  2  0  0  0  0  0  0
  186.7220  176.9080  145.2820 O   0  0  0  0  0  1  0  0  0  0  0  0
  187.7240  177.6370  144.6380 C   0  0  1  0  0  3  0  0  0  0  0  0
  181.9930  181.0170  138.6480 C   0  0  0  0  0  2  0  0  0  0  0  0
  180.7120  181.6760  138.1720 C   0  0  0  0  0  3  0  0  0  0  0  0
  181.0610  182.9350  137.4080 C   0  0  0  0  0  2  0  0  0  0  0  0
  180.6880  181.6750  136.6580 C   0  0  0  0  0  2  0  0  0  0  0  0
  1 12  1  0  0  0  0
  2 18  1  0  0  0  0
  2 19  2  0  0  0  0
  3  8  1  0  0  0  0
  3  4  2  0  0  0  0
  4 16  1  0  0  0  0
  5 14  1  1  0  0  0
  5 18  1  0  0  0  0
  6 13  1  0  0  0  0
  6  9  1  0  0  0  0
  8 10  1  0  0  0  0
  9  2  1  0  0  0  0
 10  9  2  0  0  0  0
 10 17  1  0  0  0  0
 11 19  1  0  0  0  0
 12 14  1  0  0  0  0
 13  7  1  6  0  0  0
 13  5  1  0  0  0  0
 15 29  1  6  0  0  0
 15 13  1  0  0  0  0
 15  1  1  0  0  0  0
 16 17  2  0  0  0  0
 17 11  1  0  0  0  0
 20 25  1  0  0  0  0
 20 26  1  0  0  0  0
 21 24  1  6  0  0  0
 21 22  1  0  0  0  0
 22 23  1  1  0  0  0
 25 11  1  6  0  0  0
 25 28  1  0  0  0  0
 26 21  1  0  0  0  0
 28 27  1  1  0  0  0
 28 22  1  0  0  0  0
 30 29  1  0  0  0  0
 31 30  1  0  0  0  0
 32 31  1  0  0  0  0
 32 30  1  0  0  0  0
M  END
>  <MODEL>
8

>  <REMARK>
 VINA RESULT:      -7.1      2.790      8.662
  Name = 
  3 active torsions:
  status: ('A' for Active; 'I' for Inactive)
    1  A    between atoms: C_1  and  C_10
    2  A    between atoms: C_10  and  C_24
    3  A    between atoms: N_16  and  C_27
                            x       y       z     vdW  Elec       q    Type
                         _______ _______ _______ _____ _____    ______ ____

>  <TORSDO>
F 3

$$$$
=
 OpenBabel10272413323D

 32 37  0  0  1  0  0  0  0  0999 V2000
  188.1470  177.1600  134.8110 O   0  0  0  0  0  0  0  0  0  0  0  0
  188.6200  177.3600  139.7690 C   0  0  0  0  0  0  0  0  0  0  0  0
  184.3790  179.2280  141.4010 N   0  0  0  0  0  0  0  0  0  0  0  0
  184.8610  179.1600  142.6080 C   0  0  0  0  0  3  0  0  0  0  0  0
  189.2350  177.9950  137.3460 C   0  0  2  0  0  3  0  0  0  0  0  0
  186.8630  178.0400  138.1410 O   0  0  0  0  0  0  0  0  0  0  0  0
  187.5170  179.5220  136.3860 C   0  0  0  0  0  1  0  0  0  0  0  0
  185.1490  178.9500  140.1820 C   0  0  0  0  0  2  0  0  0  0  0  0
  187.2890  177.9220  139.4710 C   0  0  0  0  0  0  0  0  0  0  0  0
  186.5010  178.3480  140.4690 C   0  0  0  0  0  0  0  0  0  0  0  0
  188.3810  177.9110  142.0580 N   0  0  0  0  0  0  0  0  0  0  0  0
  189.4490  176.7690  135.1700 C   0  0  0  0  0  2  0  0  0  0  0  0
  187.7270  178.1400  136.9960 C   0  0  1  0  0  0  0  0  0  0  0  0
  190.0800  177.8260  136.0800 C   0  0  0  0  0  2  0  0  0  0  0  0
  187.3530  177.0450  135.9710 C   0  0  1  0  0  3  0  0  0  0  0  0
  186.2470  178.7380  142.8570 C   0  0  0  0  0  3  0  0  0  0  0  0
  187.0270  178.3460  141.8470 C   0  0  0  0  0  0  0  0  0  0  0  0
  189.5330  176.5810  138.4550 S   0  0  0  0  0  0  0  0  0  0  0  0
  189.1120  177.3880  140.9720 N   0  0  0  0  0  0  0  0  0  0  0  0
  189.0100  176.5400  144.0070 C   0  0  0  0  0  2  0  0  0  0  0  0
  191.5050  176.6210  144.4080 C   0  0  1  0  0  3  0  0  0  0  0  0
  191.2840  178.1410  144.4530 C   0  0  1  0  0  3  0  0  0  0  0  0
  192.5180  178.7900  144.3800 O   0  0  0  0  0  1  0  0  0  0  0  0
  191.7420  176.1260  145.7510 N   0  0  0  0  0  1  0  0  0  0  0  0
  188.9910  177.9450  143.3850 C   0  0  1  0  0  3  0  0  0  0  0  0
  190.3470  175.8450  143.7680 C   0  0  0  0  0  2  0  0  0  0  0  0
  190.2100  180.0050  143.3890 O   0  0  0  0  0  1  0  0  0  0  0  0
  190.3700  178.6200  143.3230 C   0  0  1  0  0  3  0  0  0  0  0  0
  185.8750  177.0830  135.6000 C   0  0  0  0  0  2  0  0  0  0  0  0
  185.2940  175.6820  135.6070 C   0  0  0  0  0  3  0  0  0  0  0  0
  185.7680  174.9600  136.8510 C   0  0  0  0  0  2  0  0  0  0  0  0
  184.3690  175.5350  136.7970 C   0  0  0  0  0  2  0  0  0  0  0  0
  1 12  1  0  0  0  0
  1 15  1  0  0  0  0
  2 19  2  0  0  0  0
  3  4  2  0  0  0  0
  4 16  1  0  0  0  0
  5 14  1  6  0  0  0
  5 18  1  0  0  0  0
  6  9  1  0  0  0  0
  8 10  1  0  0  0  0
  8  3  1  0  0  0  0
  9  2  1  0  0  0  0
  9 10  2  0  0  0  0
 10 17  1  0  0  0  0
 12 14  1  0  0  0  0
 13  7  1  6  0  0  0
 13  5  1  0  0  0  0
 13  6  1  0  0  0  0
 15 29  1  6  0  0  0
 15 13  1  0  0  0  0
 17 11  1  0  0  0  0
 17 16  2  0  0  0  0
 18  2  1  0  0  0  0
 19 11  1  0  0  0  0
 21 22  1  0  0  0  0
 21 24  1  1  0  0  0
 22 23  1  6  0  0  0
 25 11  1  6  0  0  0
 25 20  1  0  0  0  0
 26 20  1  0  0  0  0
 26 21  1  0  0  0  0
 28 25  1  0  0  0  0
 28 27  1  1  0  0  0
 28 22  1  0  0  0  0
 29 30  1  0  0  0  0
 30 32  1  0  0  0  0
 30 31  1  0  0  0  0
 32 31  1  0  0  0  0
M  END
>  <MODEL>
9

>  <REMARK>
 VINA RESULT:      -7.1      3.539      7.720
  Name = 
  3 active torsions:
  status: ('A' for Active; 'I' for Inactive)
    1  A    between atoms: C_1  and  C_10
    2  A    between atoms: C_10  and  C_24
    3  A    between atoms: N_16  and  C_27
                            x       y       z     vdW  Elec       q    Type
                         _______ _______ _______ _____ _____    ______ ____

>  <TORSDO>
F 3

$$$$
