=
 OpenBabel10272413163D

 32 36  0  0  1  0  0  0  0  0999 V2000
  187.8570  178.3700  142.1210 C   0  0  2  0  0  3  0  0  0  0  0  0
  186.3030  177.7870  144.0520 C   0  0  0  0  0  0  0  0  0  0  0  0
  188.6960  177.7440  141.0080 C   0  0  0  0  0  2  0  0  0  0  0  0
  187.3390  177.2860  143.0930 C   0  0  2  0  0  3  0  0  0  0  0  0
  186.7260  177.7370  145.3670 C   0  0  0  0  0  0  0  0  0  0  0  0
  185.0040  178.2010  143.7390 C   0  0  0  0  0  3  0  0  0  0  0  0
  184.5910  178.5620  146.1110 C   0  0  0  0  0  3  0  0  0  0  0  0
  188.4350  176.8860  144.0580 C   0  0  0  0  0  0  0  0  0  0  0  0
  185.8850  178.1160  146.4150 C   0  0  0  0  0  3  0  0  0  0  0  0
  189.5840  176.2910  143.7090 C   0  0  0  0  0  3  0  0  0  0  0  0
  189.9410  175.9900  142.2880 C   0  0  0  0  0  2  0  0  0  0  0  0
  184.1510  178.6060  144.7760 C   0  0  0  0  0  0  0  0  0  0  0  0
  188.1010  177.1920  145.4920 C   0  0  1  0  0  3  0  0  0  0  0  0
  190.0630  177.2770  141.4880 C   0  0  0  0  0  2  0  0  0  0  0  0
  189.0700  178.2000  146.1230 C   0  0  0  0  0  2  0  0  0  0  0  0
  189.3830  177.8970  147.8970 S   0  0  0  0  0  1  0  0  0  0  0  0
  186.7200  179.1300  141.4550 C   0  0  0  0  0  2  0  0  0  0  0  0
  186.6240  178.7550  140.0880 O   0  0  0  0  0  0  0  0  0  0  0  0
  181.7840  178.2770  137.3940 F   0  0  0  0  0  0  0  0  0  0  0  0
  183.0030  179.0120  139.3020 C   0  0  0  0  0  3  0  0  0  0  0  0
  185.4000  178.6170  139.4240 C   0  0  0  0  0  0  0  0  0  0  0  0
  184.1280  177.8660  137.4960 C   0  0  0  0  0  3  0  0  0  0  0  0
  184.2170  179.1310  139.9820 C   0  0  0  0  0  3  0  0  0  0  0  0
  185.3500  177.9590  138.1790 C   0  0  0  0  0  0  0  0  0  0  0  0
  182.9590  178.3840  138.0580 C   0  0  0  0  0  0  0  0  0  0  0  0
  186.4410  177.4020  136.0210 C   0  0  0  0  0  2  0  0  0  0  0  0
  187.2490  178.5060  136.6610 C   0  0  0  0  0  2  0  0  0  0  0  0
  186.6050  177.4390  137.5330 C   0  0  0  0  0  3  0  0  0  0  0  0
  182.7800  179.0990  144.4520 C   0  0  0  0  0  2  0  0  0  0  0  0
  182.4130  178.8280  142.9970 C   0  0  0  0  0  2  0  0  0  0  0  0
  180.1670  178.4020  143.9920 C   0  0  0  0  0  1  0  0  0  0  0  0
  180.9110  178.9110  142.7740 C   0  0  0  0  0  2  0  0  0  0  0  0
  1 17  1  6  0  0  0
  1  4  1  0  0  0  0
  2  5  1  0  0  0  0
  3 14  1  0  0  0  0
  3  1  1  0  0  0  0
  4  2  1  1  0  0  0
  4  8  1  0  0  0  0
  5 13  1  0  0  0  0
  5  9  2  0  0  0  0
  6  2  2  0  0  0  0
  6 12  1  0  0  0  0
  7  9  1  0  0  0  0
  8 13  1  0  0  0  0
 10  8  2  0  0  0  0
 11 10  1  0  0  0  0
 12  7  2  0  0  0  0
 13 15  1  6  0  0  0
 14 11  1  0  0  0  0
 15 16  1  0  0  0  0
 18 17  1  0  0  0  0
 19 25  1  0  0  0  0
 20 23  1  0  0  0  0
 21 23  2  0  0  0  0
 21 18  1  0  0  0  0
 22 25  1  0  0  0  0
 22 24  2  0  0  0  0
 24 21  1  0  0  0  0
 25 20  2  0  0  0  0
 26 27  1  0  0  0  0
 26 28  1  0  0  0  0
 27 28  1  0  0  0  0
 28 24  1  0  0  0  0
 29 12  1  0  0  0  0
 30 29  1  0  0  0  0
 32 30  1  0  0  0  0
 32 31  1  0  0  0  0
M  END
>  <MODEL>
1

>  <REMARK>
 VINA RESULT:      -9.1      0.000      0.000
  Name = 
  8 active torsions:
  status: ('A' for Active; 'I' for Inactive)
    1  A    between atoms: C_1  and  C_27
    2  A    between atoms: C_9  and  C_31
    3  A    between atoms: C_9  and  C_32
    4  A    between atoms: C_13  and  C_29
    5  A    between atoms: C_16  and  O_24
    6  A    between atoms: C_22  and  C_23
    7  A    between atoms: O_24  and  C_27
    8  A    between atoms: C_28  and  C_32
                            x       y       z     vdW  Elec       q    Type
                         _______ _______ _______ _____ _____    ______ ____

>  <TORSDO>
F 8

$$$$
=
 OpenBabel10272413163D

 32 36  0  0  1  0  0  0  0  0999 V2000
  188.2940  178.1620  142.1790 C   0  0  2  0  0  3  0  0  0  0  0  0
  186.4890  177.7500  143.9270 C   0  0  0  0  0  0  0  0  0  0  0  0
  189.2500  177.4410  141.2290 C   0  0  0  0  0  2  0  0  0  0  0  0
  187.6250  177.1610  143.1470 C   0  0  2  0  0  3  0  0  0  0  0  0
  186.7390  177.7860  145.2870 C   0  0  0  0  0  0  0  0  0  0  0  0
  185.2540  178.1680  143.4210 C   0  0  0  0  0  3  0  0  0  0  0  0
  184.5510  178.7050  145.6890 C   0  0  0  0  0  3  0  0  0  0  0  0
  188.5760  176.8090  144.2720 C   0  0  0  0  0  0  0  0  0  0  0  0
  185.7820  178.2550  146.1880 C   0  0  0  0  0  3  0  0  0  0  0  0
  189.7410  176.1670  144.1160 C   0  0  0  0  0  3  0  0  0  0  0  0
  190.2690  175.7580  142.7770 C   0  0  0  0  0  2  0  0  0  0  0  0
  184.2870  178.6620  144.3090 C   0  0  0  0  0  0  0  0  0  0  0  0
  188.0690  177.2230  145.6260 C   0  0  1  0  0  3  0  0  0  0  0  0
  190.5300  176.9820  141.9130 C   0  0  0  0  0  2  0  0  0  0  0  0
  188.9800  178.2540  146.3070 C   0  0  0  0  0  2  0  0  0  0  0  0
  189.0530  178.0730  148.1230 S   0  0  0  0  0  1  0  0  0  0  0  0
  187.2750  178.8960  141.3210 C   0  0  0  0  0  2  0  0  0  0  0  0
  187.5380  178.6550  139.9450 O   0  0  0  0  0  0  0  0  0  0  0  0
  183.6000  177.2370  136.2860 F   0  0  0  0  0  0  0  0  0  0  0  0
  184.1970  178.1270  138.4130 C   0  0  0  0  0  3  0  0  0  0  0  0
  186.5420  178.2780  139.0380 C   0  0  0  0  0  0  0  0  0  0  0  0
  185.9030  177.3620  136.8810 C   0  0  0  0  0  3  0  0  0  0  0  0
  185.1840  178.4810  139.3340 C   0  0  0  0  0  3  0  0  0  0  0  0
  186.9040  177.6930  137.8080 C   0  0  0  0  0  0  0  0  0  0  0  0
  184.5570  177.5710  137.1850 C   0  0  0  0  0  0  0  0  0  0  0  0
  188.5460  177.7280  135.9480 C   0  0  0  0  0  2  0  0  0  0  0  0
  188.9520  178.8050  136.9260 C   0  0  0  0  0  2  0  0  0  0  0  0
  188.3500  177.5060  137.4390 C   0  0  0  0  0  3  0  0  0  0  0  0
  182.9840  179.1600  143.7770 C   0  0  0  0  0  2  0  0  0  0  0  0
  182.7640  178.7260  142.3320 C   0  0  0  0  0  2  0  0  0  0  0  0
  181.1330  178.7990  140.4480 C   0  0  0  0  0  1  0  0  0  0  0  0
  181.2910  178.7620  141.9540 C   0  0  0  0  0  2  0  0  0  0  0  0
  1 17  1  6  0  0  0
  1  4  1  0  0  0  0
  2  5  1  0  0  0  0
  3 14  1  0  0  0  0
  3  1  1  0  0  0  0
  4  2  1  1  0  0  0
  4  8  1  0  0  0  0
  5 13  1  0  0  0  0
  5  9  2  0  0  0  0
  6  2  2  0  0  0  0
  6 12  1  0  0  0  0
  7  9  1  0  0  0  0
  8 13  1  0  0  0  0
 10  8  2  0  0  0  0
 11 10  1  0  0  0  0
 12  7  2  0  0  0  0
 13 15  1  6  0  0  0
 14 11  1  0  0  0  0
 15 16  1  0  0  0  0
 18 17  1  0  0  0  0
 19 25  1  0  0  0  0
 20 23  1  0  0  0  0
 21 23  2  0  0  0  0
 21 18  1  0  0  0  0
 22 25  1  0  0  0  0
 22 24  2  0  0  0  0
 24 21  1  0  0  0  0
 25 20  2  0  0  0  0
 26 27  1  0  0  0  0
 26 28  1  0  0  0  0
 27 28  1  0  0  0  0
 28 24  1  0  0  0  0
 29 12  1  0  0  0  0
 30 29  1  0  0  0  0
 31 32  1  0  0  0  0
 32 30  1  0  0  0  0
M  END
>  <MODEL>
2

>  <REMARK>
 VINA RESULT:      -8.9      0.957      1.284
  Name = 
  8 active torsions:
  status: ('A' for Active; 'I' for Inactive)
    1  A    between atoms: C_1  and  C_27
    2  A    between atoms: C_9  and  C_31
    3  A    between atoms: C_9  and  C_32
    4  A    between atoms: C_13  and  C_29
    5  A    between atoms: C_16  and  O_24
    6  A    between atoms: C_22  and  C_23
    7  A    between atoms: O_24  and  C_27
    8  A    between atoms: C_28  and  C_32
                            x       y       z     vdW  Elec       q    Type
                         _______ _______ _______ _____ _____    ______ ____

>  <TORSDO>
F 8

$$$$
=
 OpenBabel10272413163D

 32 36  0  0  1  0  0  0  0  0999 V2000
  187.7160  177.1890  146.0310 C   0  0  2  0  0  3  0  0  0  0  0  0
  189.5760  177.6210  144.3470 C   0  0  0  0  0  0  0  0  0  0  0  0
  186.9940  177.8090  147.2270 C   0  0  0  0  0  2  0  0  0  0  0  0
  188.9680  178.0140  145.6590 C   0  0  2  0  0  3  0  0  0  0  0  0
  190.8490  177.0990  144.4840 C   0  0  0  0  0  0  0  0  0  0  0  0
  189.0160  177.8010  143.0780 C   0  0  0  0  0  3  0  0  0  0  0  0
  191.0380  176.8670  142.0960 C   0  0  0  0  0  3  0  0  0  0  0  0
  190.1090  177.6810  146.5990 C   0  0  0  0  0  0  0  0  0  0  0  0
  191.6020  176.7200  143.3710 C   0  0  0  0  0  3  0  0  0  0  0  0
  190.1100  177.9240  147.9160 C   0  0  0  0  0  3  0  0  0  0  0  0
  188.9390  178.5210  148.6320 C   0  0  0  0  0  2  0  0  0  0  0  0
  189.7480  177.4060  141.9490 C   0  0  0  0  0  0  0  0  0  0  0  0
  191.2910  177.0680  145.9000 C   0  0  1  0  0  3  0  0  0  0  0  0
  187.7350  177.5980  148.5400 C   0  0  0  0  0  2  0  0  0  0  0  0
  191.5890  175.6430  146.3850 C   0  0  0  0  0  2  0  0  0  0  0  0
  192.6320  175.5870  147.8840 S   0  0  0  0  0  1  0  0  0  0  0  0
  186.7160  177.1210  144.8870 C   0  0  0  0  0  2  0  0  0  0  0  0
  186.1250  178.3970  144.6850 O   0  0  0  0  0  0  0  0  0  0  0  0
  180.9020  179.1350  142.9270 F   0  0  0  0  0  0  0  0  0  0  0  0
  182.4700  179.0570  144.7170 C   0  0  0  0  0  3  0  0  0  0  0  0
  184.8050  178.5610  144.2510 C   0  0  0  0  0  0  0  0  0  0  0  0
  183.1810  178.6330  142.4470 C   0  0  0  0  0  3  0  0  0  0  0  0
  183.7800  178.8700  145.1610 C   0  0  0  0  0  3  0  0  0  0  0  0
  184.4970  178.4200  142.8830 C   0  0  0  0  0  0  0  0  0  0  0  0
  182.1710  178.9430  143.3600 C   0  0  0  0  0  0  0  0  0  0  0  0
  185.2140  178.7430  140.5300 C   0  0  0  0  0  2  0  0  0  0  0  0
  186.2360  179.4250  141.4080 C   0  0  0  0  0  2  0  0  0  0  0  0
  185.5770  178.1360  141.8760 C   0  0  0  0  0  3  0  0  0  0  0  0
  189.1410  177.5450  140.5920 C   0  0  0  0  0  2  0  0  0  0  0  0
  190.2030  177.5400  139.4980 C   0  0  0  0  0  2  0  0  0  0  0  0
  188.1230  178.0080  138.2060 C   0  0  0  0  0  1  0  0  0  0  0  0
  189.6380  178.0100  138.1660 C   0  0  0  0  0  2  0  0  0  0  0  0
  1 17  1  6  0  0  0
  1  3  1  0  0  0  0
  2  5  1  0  0  0  0
  3 14  1  0  0  0  0
  4  2  1  6  0  0  0
  4  1  1  0  0  0  0
  4  8  1  0  0  0  0
  5 13  1  0  0  0  0
  6  2  2  0  0  0  0
  7  9  1  0  0  0  0
  8 10  2  0  0  0  0
  9  5  2  0  0  0  0
 10 11  1  0  0  0  0
 12  7  2  0  0  0  0
 12  6  1  0  0  0  0
 13 15  1  1  0  0  0
 13  8  1  0  0  0  0
 14 11  1  0  0  0  0
 15 16  1  0  0  0  0
 18 17  1  0  0  0  0
 19 25  1  0  0  0  0
 20 23  1  0  0  0  0
 21 18  1  0  0  0  0
 21 23  2  0  0  0  0
 22 24  2  0  0  0  0
 22 25  1  0  0  0  0
 24 21  1  0  0  0  0
 25 20  2  0  0  0  0
 26 27  1  0  0  0  0
 26 28  1  0  0  0  0
 27 28  1  0  0  0  0
 28 24  1  0  0  0  0
 29 12  1  0  0  0  0
 30 29  1  0  0  0  0
 32 31  1  0  0  0  0
 32 30  1  0  0  0  0
M  END
>  <MODEL>
3

>  <REMARK>
 VINA RESULT:      -8.9      2.156      5.743
  Name = 
  8 active torsions:
  status: ('A' for Active; 'I' for Inactive)
    1  A    between atoms: C_1  and  C_27
    2  A    between atoms: C_9  and  C_31
    3  A    between atoms: C_9  and  C_32
    4  A    between atoms: C_13  and  C_29
    5  A    between atoms: C_16  and  O_24
    6  A    between atoms: C_22  and  C_23
    7  A    between atoms: O_24  and  C_27
    8  A    between atoms: C_28  and  C_32
                            x       y       z     vdW  Elec       q    Type
                         _______ _______ _______ _____ _____    ______ ____

>  <TORSDO>
F 8

$$$$
=
 OpenBabel10272413163D

 32 36  0  0  1  0  0  0  0  0999 V2000
  188.9020  176.9330  141.3190 C   0  0  2  0  0  3  0  0  0  0  0  0
  187.0010  178.3900  140.4560 C   0  0  0  0  0  0  0  0  0  0  0  0
  190.4130  176.9210  141.5480 C   0  0  0  0  0  2  0  0  0  0  0  0
  188.4830  178.1730  140.4980 C   0  0  2  0  0  3  0  0  0  0  0  0
  186.4800  178.2680  139.1810 C   0  0  0  0  0  0  0  0  0  0  0  0
  186.1790  178.7570  141.5260 C   0  0  0  0  0  3  0  0  0  0  0  0
  184.2850  178.8200  139.9980 C   0  0  0  0  0  3  0  0  0  0  0  0
  188.7670  177.9450  139.0270 C   0  0  0  0  0  0  0  0  0  0  0  0
  185.1240  178.4830  138.9280 C   0  0  0  0  0  3  0  0  0  0  0  0
  189.9870  177.7760  138.5010 C   0  0  0  0  0  3  0  0  0  0  0  0
  191.2320  177.7470  139.3320 C   0  0  0  0  0  2  0  0  0  0  0  0
  184.8100  178.9560  141.2960 C   0  0  0  0  0  0  0  0  0  0  0  0
  187.5270  177.9570  138.1770 C   0  0  1  0  0  3  0  0  0  0  0  0
  191.2000  176.5690  140.2930 C   0  0  0  0  0  2  0  0  0  0  0  0
  187.2790  176.6160  137.4740 C   0  0  0  0  0  2  0  0  0  0  0  0
  187.5460  176.6800  135.6680 S   0  0  0  0  0  1  0  0  0  0  0  0
  188.2390  176.9030  142.6870 C   0  0  0  0  0  2  0  0  0  0  0  0
  189.0840  177.5200  143.6480 O   0  0  0  0  0  0  0  0  0  0  0  0
  187.8990  177.5450  149.0800 F   0  0  0  0  0  0  0  0  0  0  0  0
  187.1570  177.6580  146.8210 C   0  0  0  0  0  3  0  0  0  0  0  0
  188.7830  177.5500  145.0140 C   0  0  0  0  0  0  0  0  0  0  0  0
  189.5110  177.4500  147.3290 C   0  0  0  0  0  3  0  0  0  0  0  0
  187.4530  177.6550  145.4560 C   0  0  0  0  0  3  0  0  0  0  0  0
  189.8230  177.4690  145.9610 C   0  0  0  0  0  0  0  0  0  0  0  0
  188.1860  177.5520  147.7560 C   0  0  0  0  0  0  0  0  0  0  0  0
  191.9540  176.2690  146.3840 C   0  0  0  0  0  2  0  0  0  0  0  0
  191.5030  175.9050  144.9900 C   0  0  0  0  0  2  0  0  0  0  0  0
  191.2530  177.3070  145.5220 C   0  0  0  0  0  3  0  0  0  0  0  0
  183.9120  179.2960  142.4390 C   0  0  0  0  0  2  0  0  0  0  0  0
  184.6650  179.3020  143.7640 C   0  0  0  0  0  2  0  0  0  0  0  0
  182.3270  178.7690  144.4440 C   0  0  0  0  0  1  0  0  0  0  0  0
  183.7450  178.9840  144.9330 C   0  0  0  0  0  2  0  0  0  0  0  0
  1  3  1  0  0  0  0
  1 17  1  1  0  0  0
  2  4  1  0  0  0  0
  2  6  1  0  0  0  0
  4  8  1  6  0  0  0
  4  1  1  0  0  0  0
  5  2  2  0  0  0  0
  7 12  1  0  0  0  0
  9  5  1  0  0  0  0
  9  7  2  0  0  0  0
 10  8  2  0  0  0  0
 10 11  1  0  0  0  0
 11 14  1  0  0  0  0
 12  6  2  0  0  0  0
 12 29  1  0  0  0  0
 13 15  1  1  0  0  0
 13  8  1  0  0  0  0
 13  5  1  0  0  0  0
 14  3  1  0  0  0  0
 16 15  1  0  0  0  0
 17 18  1  0  0  0  0
 18 21  1  0  0  0  0
 20 25  1  0  0  0  0
 21 23  1  0  0  0  0
 21 24  2  0  0  0  0
 22 25  2  0  0  0  0
 23 20  2  0  0  0  0
 24 22  1  0  0  0  0
 25 19  1  0  0  0  0
 27 28  1  0  0  0  0
 27 26  1  0  0  0  0
 28 24  1  0  0  0  0
 28 26  1  0  0  0  0
 29 30  1  0  0  0  0
 30 32  1  0  0  0  0
 31 32  1  0  0  0  0
M  END
>  <MODEL>
4

>  <REMARK>
 VINA RESULT:      -8.5      3.626      7.041
  Name = 
  8 active torsions:
  status: ('A' for Active; 'I' for Inactive)
    1  A    between atoms: C_1  and  C_27
    2  A    between atoms: C_9  and  C_31
    3  A    between atoms: C_9  and  C_32
    4  A    between atoms: C_13  and  C_29
    5  A    between atoms: C_16  and  O_24
    6  A    between atoms: C_22  and  C_23
    7  A    between atoms: O_24  and  C_27
    8  A    between atoms: C_28  and  C_32
                            x       y       z     vdW  Elec       q    Type
                         _______ _______ _______ _____ _____    ______ ____

>  <TORSDO>
F 8

$$$$
=
 OpenBabel10272413163D

 32 36  0  0  1  0  0  0  0  0999 V2000
  189.2810  178.1580  142.6150 C   0  0  2  0  0  3  0  0  0  0  0  0
  187.1730  177.6580  143.9520 C   0  0  0  0  0  0  0  0  0  0  0  0
  190.4670  177.4860  141.9230 C   0  0  0  0  0  2  0  0  0  0  0  0
  188.4870  177.1350  143.4580 C   0  0  2  0  0  3  0  0  0  0  0  0
  187.1190  177.7480  145.3300 C   0  0  0  0  0  0  0  0  0  0  0  0
  186.0510  177.9680  143.1760 C   0  0  0  0  0  3  0  0  0  0  0  0
  184.8390  178.5100  145.2160 C   0  0  0  0  0  3  0  0  0  0  0  0
  189.1930  176.8850  144.7740 C   0  0  0  0  0  0  0  0  0  0  0  0
  185.9590  178.1670  145.9850 C   0  0  0  0  0  3  0  0  0  0  0  0
  190.4060  176.3280  144.8980 C   0  0  0  0  0  3  0  0  0  0  0  0
  191.2370  175.9250  143.7210 C   0  0  0  0  0  2  0  0  0  0  0  0
  184.8840  178.4120  143.8140 C   0  0  0  0  0  0  0  0  0  0  0  0
  188.3790  177.2950  145.9700 C   0  0  1  0  0  3  0  0  0  0  0  0
  191.5960  177.1420  142.8840 C   0  0  0  0  0  2  0  0  0  0  0  0
  189.0480  178.4090  146.7870 C   0  0  0  0  0  2  0  0  0  0  0  0
  188.8130  178.2310  148.5890 S   0  0  0  0  0  1  0  0  0  0  0  0
  188.4250  178.7900  141.5280 C   0  0  0  0  0  2  0  0  0  0  0  0
  187.9740  177.7910  140.6250 O   0  0  0  0  0  0  0  0  0  0  0  0
  187.2140  178.6570  135.1860 F   0  0  0  0  0  0  0  0  0  0  0  0
  188.6760  178.1510  136.9960 C   0  0  0  0  0  3  0  0  0  0  0  0
  187.7920  178.0310  139.2590 C   0  0  0  0  0  0  0  0  0  0  0  0
  186.3270  178.5590  137.3950 C   0  0  0  0  0  3  0  0  0  0  0  0
  188.8700  177.9350  138.3610 C   0  0  0  0  0  3  0  0  0  0  0  0
  186.5130  178.3670  138.7720 C   0  0  0  0  0  0  0  0  0  0  0  0
  187.4050  178.4580  136.5120 C   0  0  0  0  0  0  0  0  0  0  0  0
  184.2400  179.3070  139.1000 C   0  0  0  0  0  2  0  0  0  0  0  0
  184.1020  177.8030  139.0550 C   0  0  0  0  0  2  0  0  0  0  0  0
  185.3300  178.4310  139.6980 C   0  0  0  0  0  3  0  0  0  0  0  0
  183.6960  178.7960  142.9950 C   0  0  0  0  0  2  0  0  0  0  0  0
  182.4940  179.1310  143.8700 C   0  0  0  0  0  2  0  0  0  0  0  0
  181.4540  178.7490  141.6370 C   0  0  0  0  0  1  0  0  0  0  0  0
  181.1850  178.9600  143.1130 C   0  0  0  0  0  2  0  0  0  0  0  0
  1 17  1  6  0  0  0
  1  4  1  0  0  0  0
  2  5  1  0  0  0  0
  3  1  1  0  0  0  0
  3 14  1  0  0  0  0
  4  2  1  1  0  0  0
  4  8  1  0  0  0  0
  5 13  1  0  0  0  0
  5  9  2  0  0  0  0
  6 12  1  0  0  0  0
  6  2  2  0  0  0  0
  7  9  1  0  0  0  0
  8 10  2  0  0  0  0
  8 13  1  0  0  0  0
 11 10  1  0  0  0  0
 12  7  2  0  0  0  0
 13 15  1  6  0  0  0
 14 11  1  0  0  0  0
 15 16  1  0  0  0  0
 18 17  1  0  0  0  0
 19 25  1  0  0  0  0
 20 23  1  0  0  0  0
 21 18  1  0  0  0  0
 22 24  2  0  0  0  0
 23 21  2  0  0  0  0
 24 21  1  0  0  0  0
 24 28  1  0  0  0  0
 25 20  2  0  0  0  0
 25 22  1  0  0  0  0
 26 28  1  0  0  0  0
 27 26  1  0  0  0  0
 27 28  1  0  0  0  0
 29 12  1  0  0  0  0
 29 30  1  0  0  0  0
 31 32  1  0  0  0  0
 32 30  1  0  0  0  0
M  END
>  <MODEL>
5

>  <REMARK>
 VINA RESULT:      -8.5      1.568      2.613
  Name = 
  8 active torsions:
  status: ('A' for Active; 'I' for Inactive)
    1  A    between atoms: C_1  and  C_27
    2  A    between atoms: C_9  and  C_31
    3  A    between atoms: C_9  and  C_32
    4  A    between atoms: C_13  and  C_29
    5  A    between atoms: C_16  and  O_24
    6  A    between atoms: C_22  and  C_23
    7  A    between atoms: O_24  and  C_27
    8  A    between atoms: C_28  and  C_32
                            x       y       z     vdW  Elec       q    Type
                         _______ _______ _______ _____ _____    ______ ____

>  <TORSDO>
F 8

$$$$
=
 OpenBabel10272413163D

 32 36  0  0  1  0  0  0  0  0999 V2000
  188.0580  178.4150  140.7880 C   0  0  2  0  0  3  0  0  0  0  0  0
  189.3460  177.0370  142.4980 C   0  0  0  0  0  0  0  0  0  0  0  0
  187.1570  178.2890  139.5600 C   0  0  0  0  0  2  0  0  0  0  0  0
  188.6660  177.0450  141.1630 C   0  0  2  0  0  3  0  0  0  0  0  0
  190.7050  176.8020  142.4030 C   0  0  0  0  0  0  0  0  0  0  0  0
  188.7350  177.1680  143.7500 C   0  0  0  0  0  3  0  0  0  0  0  0
  190.9110  176.8680  144.8000 C   0  0  0  0  0  3  0  0  0  0  0  0
  189.8380  176.7290  140.2580 C   0  0  0  0  0  0  0  0  0  0  0  0
  191.5070  176.7080  143.5410 C   0  0  0  0  0  3  0  0  0  0  0  0
  189.7530  176.5400  138.9340 C   0  0  0  0  0  3  0  0  0  0  0  0
  188.4680  176.6670  138.1770 C   0  0  0  0  0  2  0  0  0  0  0  0
  189.5270  177.0980  144.9040 C   0  0  0  0  0  0  0  0  0  0  0  0
  191.1420  176.6100  140.9970 C   0  0  1  0  0  3  0  0  0  0  0  0
  187.9380  178.0900  138.2690 C   0  0  0  0  0  2  0  0  0  0  0  0
  192.1690  177.6620  140.5590 C   0  0  0  0  0  2  0  0  0  0  0  0
  193.4990  176.9870  139.5040 S   0  0  0  0  0  1  0  0  0  0  0  0
  187.2110  178.9910  141.9120 C   0  0  0  0  0  2  0  0  0  0  0  0
  186.2160  178.0530  142.2980 O   0  0  0  0  0  0  0  0  0  0  0  0
  180.9900  179.4470  143.5840 F   0  0  0  0  0  0  0  0  0  0  0  0
  182.5910  178.7860  141.9510 C   0  0  0  0  0  3  0  0  0  0  0  0
  184.9040  178.4260  142.6120 C   0  0  0  0  0  0  0  0  0  0  0  0
  183.2520  179.1140  144.2530 C   0  0  0  0  0  3  0  0  0  0  0  0
  183.9040  178.4380  141.6250 C   0  0  0  0  0  3  0  0  0  0  0  0
  184.5780  178.7880  143.9340 C   0  0  0  0  0  0  0  0  0  0  0  0
  182.2650  179.1200  143.2650 C   0  0  0  0  0  0  0  0  0  0  0  0
  184.9460  178.5770  146.3790 C   0  0  0  0  0  2  0  0  0  0  0  0
  185.6060  177.3880  145.7210 C   0  0  0  0  0  2  0  0  0  0  0  0
  185.6150  178.7390  145.0230 C   0  0  0  0  0  3  0  0  0  0  0  0
  188.8960  177.2880  146.2440 C   0  0  0  0  0  2  0  0  0  0  0  0
  189.9420  177.4000  147.3480 C   0  0  0  0  0  2  0  0  0  0  0  0
  187.8630  177.9850  148.5930 C   0  0  0  0  0  1  0  0  0  0  0  0
  189.3760  178.0730  148.5890 C   0  0  0  0  0  2  0  0  0  0  0  0
  1  4  1  0  0  0  0
  1 17  1  1  0  0  0
  2  6  1  0  0  0  0
  3  1  1  0  0  0  0
  4  8  1  6  0  0  0
  4  2  1  0  0  0  0
  5  2  2  0  0  0  0
  5  9  1  0  0  0  0
  6 12  2  0  0  0  0
  7 12  1  0  0  0  0
  8 13  1  0  0  0  0
  9  7  2  0  0  0  0
 10  8  2  0  0  0  0
 11 14  1  0  0  0  0
 11 10  1  0  0  0  0
 12 29  1  0  0  0  0
 13 15  1  6  0  0  0
 13  5  1  0  0  0  0
 14  3  1  0  0  0  0
 16 15  1  0  0  0  0
 17 18  1  0  0  0  0
 18 21  1  0  0  0  0
 20 25  1  0  0  0  0
 21 24  2  0  0  0  0
 23 20  2  0  0  0  0
 23 21  1  0  0  0  0
 24 22  1  0  0  0  0
 24 28  1  0  0  0  0
 25 19  1  0  0  0  0
 25 22  2  0  0  0  0
 27 26  1  0  0  0  0
 28 27  1  0  0  0  0
 28 26  1  0  0  0  0
 29 30  1  0  0  0  0
 30 32  1  0  0  0  0
 32 31  1  0  0  0  0
M  END
>  <MODEL>
6

>  <REMARK>
 VINA RESULT:      -8.4      2.615      6.014
  Name = 
  8 active torsions:
  status: ('A' for Active; 'I' for Inactive)
    1  A    between atoms: C_1  and  C_27
    2  A    between atoms: C_9  and  C_31
    3  A    between atoms: C_9  and  C_32
    4  A    between atoms: C_13  and  C_29
    5  A    between atoms: C_16  and  O_24
    6  A    between atoms: C_22  and  C_23
    7  A    between atoms: O_24  and  C_27
    8  A    between atoms: C_28  and  C_32
                            x       y       z     vdW  Elec       q    Type
                         _______ _______ _______ _____ _____    ______ ____

>  <TORSDO>
F 8

$$$$
=
 OpenBabel10272413163D

 32 36  0  0  1  0  0  0  0  0999 V2000
  188.3420  178.3270  140.9900 C   0  0  2  0  0  3  0  0  0  0  0  0
  188.4820  177.1710  143.2530 C   0  0  0  0  0  0  0  0  0  0  0  0
  188.3300  178.0530  139.4860 C   0  0  0  0  0  2  0  0  0  0  0  0
  188.7030  177.0480  141.7770 C   0  0  2  0  0  3  0  0  0  0  0  0
  189.6560  177.0770  143.9780 C   0  0  0  0  0  0  0  0  0  0  0  0
  187.2510  177.2890  143.9080 C   0  0  0  0  0  3  0  0  0  0  0  0
  188.4280  177.2690  146.0390 C   0  0  0  0  0  3  0  0  0  0  0  0
  190.2000  176.8200  141.7430 C   0  0  0  0  0  0  0  0  0  0  0  0
  189.6520  177.1190  145.3730 C   0  0  0  0  0  3  0  0  0  0  0  0
  190.9100  176.5650  140.6360 C   0  0  0  0  0  3  0  0  0  0  0  0
  190.2980  176.5210  139.2710 C   0  0  0  0  0  2  0  0  0  0  0  0
  187.2290  177.3550  145.3080 C   0  0  0  0  0  0  0  0  0  0  0  0
  190.8370  176.8720  143.1040 C   0  0  1  0  0  3  0  0  0  0  0  0
  189.7260  177.8820  138.9040 C   0  0  0  0  0  2  0  0  0  0  0  0
  191.8610  178.0080  143.2340 C   0  0  0  0  0  2  0  0  0  0  0  0
  191.1660  179.5350  143.9580 S   0  0  0  0  0  1  0  0  0  0  0  0
  186.9660  178.8580  141.3620 C   0  0  0  0  0  2  0  0  0  0  0  0
  186.1470  178.9320  140.2040 O   0  0  0  0  0  0  0  0  0  0  0  0
  180.6960  177.8390  140.2430 F   0  0  0  0  0  0  0  0  0  0  0  0
  182.6750  178.4320  141.4260 C   0  0  0  0  0  3  0  0  0  0  0  0
  184.7790  178.6350  140.2230 C   0  0  0  0  0  0  0  0  0  0  0  0
  182.7470  178.0170  139.0460 C   0  0  0  0  0  3  0  0  0  0  0  0
  184.0440  178.7050  141.4180 C   0  0  0  0  0  3  0  0  0  0  0  0
  184.1280  178.2660  139.0290 C   0  0  0  0  0  0  0  0  0  0  0  0
  182.0260  178.0930  140.2390 C   0  0  0  0  0  0  0  0  0  0  0  0
  185.4980  176.8570  137.5150 C   0  0  0  0  0  2  0  0  0  0  0  0
  184.2420  177.2310  136.7650 C   0  0  0  0  0  2  0  0  0  0  0  0
  184.8750  178.2280  137.7240 C   0  0  0  0  0  3  0  0  0  0  0  0
  185.9280  177.5340  146.0180 C   0  0  0  0  0  2  0  0  0  0  0  0
  185.5610  179.0070  146.1560 C   0  0  0  0  0  2  0  0  0  0  0  0
  183.3520  178.9420  145.0010 C   0  0  0  0  0  1  0  0  0  0  0  0
  184.7610  179.5000  144.9590 C   0  0  0  0  0  2  0  0  0  0  0  0
  1 17  1  1  0  0  0
  1  4  1  0  0  0  0
  2  6  2  0  0  0  0
  2  5  1  0  0  0  0
  3  1  1  0  0  0  0
  4  8  1  1  0  0  0
  4  2  1  0  0  0  0
  5  9  2  0  0  0  0
  6 12  1  0  0  0  0
  8 13  1  0  0  0  0
  9  7  1  0  0  0  0
 10  8  2  0  0  0  0
 11 10  1  0  0  0  0
 12 29  1  0  0  0  0
 12  7  2  0  0  0  0
 13 15  1  6  0  0  0
 13  5  1  0  0  0  0
 14 11  1  0  0  0  0
 14  3  1  0  0  0  0
 15 16  1  0  0  0  0
 18 21  1  0  0  0  0
 18 17  1  0  0  0  0
 21 23  2  0  0  0  0
 22 25  1  0  0  0  0
 23 20  1  0  0  0  0
 24 22  2  0  0  0  0
 24 21  1  0  0  0  0
 25 19  1  0  0  0  0
 25 20  2  0  0  0  0
 26 28  1  0  0  0  0
 27 26  1  0  0  0  0
 27 28  1  0  0  0  0
 28 24  1  0  0  0  0
 29 30  1  0  0  0  0
 32 31  1  0  0  0  0
 32 30  1  0  0  0  0
M  END
>  <MODEL>
7

>  <REMARK>
 VINA RESULT:      -8.2      1.604      2.937
  Name = 
  8 active torsions:
  status: ('A' for Active; 'I' for Inactive)
    1  A    between atoms: C_1  and  C_27
    2  A    between atoms: C_9  and  C_31
    3  A    between atoms: C_9  and  C_32
    4  A    between atoms: C_13  and  C_29
    5  A    between atoms: C_16  and  O_24
    6  A    between atoms: C_22  and  C_23
    7  A    between atoms: O_24  and  C_27
    8  A    between atoms: C_28  and  C_32
                            x       y       z     vdW  Elec       q    Type
                         _______ _______ _______ _____ _____    ______ ____

>  <TORSDO>
F 8

$$$$
=
 OpenBabel10272413163D

 32 36  0  0  1  0  0  0  0  0999 V2000
  189.1780  176.8330  140.8340 C   0  0  2  0  0  3  0  0  0  0  0  0
  187.2210  178.4110  140.4360 C   0  0  0  0  0  0  0  0  0  0  0  0
  190.7030  176.7470  140.7560 C   0  0  0  0  0  2  0  0  0  0  0  0
  188.6690  178.1320  140.1710 C   0  0  2  0  0  3  0  0  0  0  0  0
  186.4530  178.3810  139.2870 C   0  0  0  0  0  0  0  0  0  0  0  0
  186.6450  178.7500  141.6650 C   0  0  0  0  0  3  0  0  0  0  0  0
  184.4930  178.9750  140.5500 C   0  0  0  0  0  3  0  0  0  0  0  0
  188.6460  177.9740  138.6650 C   0  0  0  0  0  0  0  0  0  0  0  0
  185.0870  178.6640  139.3190 C   0  0  0  0  0  3  0  0  0  0  0  0
  189.7280  177.7860  137.8980 C   0  0  0  0  0  3  0  0  0  0  0  0
  191.1090  177.6610  138.4620 C   0  0  0  0  0  2  0  0  0  0  0  0
  185.2700  179.0180  141.7220 C   0  0  0  0  0  0  0  0  0  0  0  0
  187.2650  178.0850  138.0800 C   0  0  1  0  0  3  0  0  0  0  0  0
  191.2080  176.4340  139.3550 C   0  0  0  0  0  2  0  0  0  0  0  0
  186.8150  176.7950  137.3800 C   0  0  0  0  0  2  0  0  0  0  0  0
  186.7600  176.9370  135.5590 S   0  0  0  0  0  1  0  0  0  0  0  0
  188.7970  176.7530  142.3040 C   0  0  0  0  0  2  0  0  0  0  0  0
  189.6680  177.5710  143.0740 O   0  0  0  0  0  0  0  0  0  0  0  0
  191.7310  176.0820  148.0180 F   0  0  0  0  0  0  0  0  0  0  0  0
  191.9490  176.1690  145.6490 C   0  0  0  0  0  3  0  0  0  0  0  0
  190.1810  177.1730  144.3140 C   0  0  0  0  0  0  0  0  0  0  0  0
  189.9790  177.0580  146.7320 C   0  0  0  0  0  3  0  0  0  0  0  0
  191.4320  176.5390  144.4060 C   0  0  0  0  0  3  0  0  0  0  0  0
  189.4390  177.4150  145.4870 C   0  0  0  0  0  0  0  0  0  0  0  0
  191.2250  176.4320  146.8110 C   0  0  0  0  0  0  0  0  0  0  0  0
  186.9970  177.1500  145.1360 C   0  0  0  0  0  2  0  0  0  0  0  0
  187.1940  177.6640  146.5420 C   0  0  0  0  0  2  0  0  0  0  0  0
  188.1190  178.1330  145.4280 C   0  0  0  0  0  3  0  0  0  0  0  0
  184.6330  179.3290  143.0350 C   0  0  0  0  0  2  0  0  0  0  0  0
  183.1710  178.9000  143.0670 C   0  0  0  0  0  2  0  0  0  0  0  0
  183.8030  178.7880  145.4770 C   0  0  0  0  0  1  0  0  0  0  0  0
  182.6500  178.7910  144.4930 C   0  0  0  0  0  2  0  0  0  0  0  0
  1 17  1  1  0  0  0
  2  6  1  0  0  0  0
  3  1  1  0  0  0  0
  4  8  1  6  0  0  0
  4  2  1  0  0  0  0
  4  1  1  0  0  0  0
  5  9  1  0  0  0  0
  5  2  2  0  0  0  0
  6 12  2  0  0  0  0
  7 12  1  0  0  0  0
  9  7  2  0  0  0  0
 10 11  1  0  0  0  0
 10  8  2  0  0  0  0
 11 14  1  0  0  0  0
 12 29  1  0  0  0  0
 13 15  1  1  0  0  0
 13  8  1  0  0  0  0
 13  5  1  0  0  0  0
 14  3  1  0  0  0  0
 16 15  1  0  0  0  0
 17 18  1  0  0  0  0
 18 21  1  0  0  0  0
 20 25  1  0  0  0  0
 21 23  1  0  0  0  0
 21 24  2  0  0  0  0
 22 25  2  0  0  0  0
 23 20  2  0  0  0  0
 24 22  1  0  0  0  0
 25 19  1  0  0  0  0
 26 28  1  0  0  0  0
 26 27  1  0  0  0  0
 28 24  1  0  0  0  0
 28 27  1  0  0  0  0
 29 30  1  0  0  0  0
 30 32  1  0  0  0  0
 32 31  1  0  0  0  0
M  END
>  <MODEL>
8

>  <REMARK>
 VINA RESULT:      -8.2      3.843      7.250
  Name = 
  8 active torsions:
  status: ('A' for Active; 'I' for Inactive)
    1  A    between atoms: C_1  and  C_27
    2  A    between atoms: C_9  and  C_31
    3  A    between atoms: C_9  and  C_32
    4  A    between atoms: C_13  and  C_29
    5  A    between atoms: C_16  and  O_24
    6  A    between atoms: C_22  and  C_23
    7  A    between atoms: O_24  and  C_27
    8  A    between atoms: C_28  and  C_32
                            x       y       z     vdW  Elec       q    Type
                         _______ _______ _______ _____ _____    ______ ____

>  <TORSDO>
F 8

$$$$
=
 OpenBabel10272413163D

 32 36  0  0  1  0  0  0  0  0999 V2000
  189.1420  176.9100  141.9450 C   0  0  2  0  0  3  0  0  0  0  0  0
  187.7700  178.1850  140.2210 C   0  0  0  0  0  0  0  0  0  0  0  0
  190.4250  176.9880  142.7730 C   0  0  0  0  0  2  0  0  0  0  0  0
  189.1030  178.0380  140.8900 C   0  0  2  0  0  3  0  0  0  0  0  0
  187.8210  177.9070  138.8670 C   0  0  0  0  0  0  0  0  0  0  0  0
  186.5810  178.6250  140.8110 C   0  0  0  0  0  3  0  0  0  0  0  0
  185.4850  178.4450  138.6450 C   0  0  0  0  0  3  0  0  0  0  0  0
  189.9670  177.6700  139.7020 C   0  0  0  0  0  0  0  0  0  0  0  0
  186.6900  178.0350  138.0580 C   0  0  0  0  0  3  0  0  0  0  0  0
  191.2950  177.5010  139.7440 C   0  0  0  0  0  3  0  0  0  0  0  0
  192.0870  177.6130  141.0090 C   0  0  0  0  0  2  0  0  0  0  0  0
  185.4300  178.7390  140.0190 C   0  0  0  0  0  0  0  0  0  0  0  0
  189.1870  177.5400  138.4220 C   0  0  1  0  0  3  0  0  0  0  0  0
  191.6570  176.5420  142.0000 C   0  0  0  0  0  2  0  0  0  0  0  0
  189.2470  176.1230  137.8360 C   0  0  0  0  0  2  0  0  0  0  0  0
  189.9100  176.0650  136.1350 S   0  0  0  0  0  1  0  0  0  0  0  0
  187.9740  176.9940  142.9160 C   0  0  0  0  0  2  0  0  0  0  0  0
  188.1840  178.0570  143.8350 O   0  0  0  0  0  0  0  0  0  0  0  0
  187.8570  177.4740  149.3540 F   0  0  0  0  0  0  0  0  0  0  0  0
  189.1840  177.5860  147.3800 C   0  0  0  0  0  3  0  0  0  0  0  0
  188.1060  177.8870  145.2210 C   0  0  0  0  0  0  0  0  0  0  0  0
  186.7770  177.7550  147.2500 C   0  0  0  0  0  3  0  0  0  0  0  0
  189.2680  177.7300  145.9940 C   0  0  0  0  0  3  0  0  0  0  0  0
  186.8460  177.8770  145.8540 C   0  0  0  0  0  0  0  0  0  0  0  0
  187.9390  177.6020  148.0080 C   0  0  0  0  0  0  0  0  0  0  0  0
  184.4760  178.6010  145.9680 C   0  0  0  0  0  2  0  0  0  0  0  0
  185.1940  179.5600  145.0490 C   0  0  0  0  0  2  0  0  0  0  0  0
  185.5850  178.0900  145.0620 C   0  0  0  0  0  3  0  0  0  0  0  0
  184.1410  179.1560  140.6470 C   0  0  0  0  0  2  0  0  0  0  0  0
  183.8440  178.3530  141.9090 C   0  0  0  0  0  2  0  0  0  0  0  0
  181.4180  178.7880  141.5330 C   0  0  0  0  0  1  0  0  0  0  0  0
  182.5370  178.7890  142.5540 C   0  0  0  0  0  2  0  0  0  0  0  0
  1  3  1  0  0  0  0
  1 17  1  1  0  0  0
  2  6  1  0  0  0  0
  2  4  1  0  0  0  0
  4  8  1  6  0  0  0
  4  1  1  0  0  0  0
  5  2  2  0  0  0  0
  7 12  1  0  0  0  0
  8 10  2  0  0  0  0
  9  7  2  0  0  0  0
  9  5  1  0  0  0  0
 10 11  1  0  0  0  0
 11 14  1  0  0  0  0
 12 29  1  0  0  0  0
 12  6  2  0  0  0  0
 13 15  1  1  0  0  0
 13  5  1  0  0  0  0
 13  8  1  0  0  0  0
 14  3  1  0  0  0  0
 16 15  1  0  0  0  0
 17 18  1  0  0  0  0
 18 21  1  0  0  0  0
 20 25  1  0  0  0  0
 21 24  2  0  0  0  0
 21 23  1  0  0  0  0
 22 25  2  0  0  0  0
 23 20  2  0  0  0  0
 24 22  1  0  0  0  0
 25 19  1  0  0  0  0
 27 28  1  0  0  0  0
 27 26  1  0  0  0  0
 28 24  1  0  0  0  0
 28 26  1  0  0  0  0
 29 30  1  0  0  0  0
 30 32  1  0  0  0  0
 31 32  1  0  0  0  0
M  END
>  <MODEL>
9

>  <REMARK>
 VINA RESULT:      -8.2      3.541      6.926
  Name = 
  8 active torsions:
  status: ('A' for Active; 'I' for Inactive)
    1  A    between atoms: C_1  and  C_27
    2  A    between atoms: C_9  and  C_31
    3  A    between atoms: C_9  and  C_32
    4  A    between atoms: C_13  and  C_29
    5  A    between atoms: C_16  and  O_24
    6  A    between atoms: C_22  and  C_23
    7  A    between atoms: O_24  and  C_27
    8  A    between atoms: C_28  and  C_32
                            x       y       z     vdW  Elec       q    Type
                         _______ _______ _______ _____ _____    ______ ____

>  <TORSDO>
F 8

$$$$
