=
 OpenBabel10272414393D

 43 48  0  0  1  0  0  0  0  0999 V2000
  181.0920  178.1680  140.1180 C   0  0  2  0  0  3  0  0  0  0  0  0
  186.3100  178.3370  145.9520 C   0  0  0  0  0  0  0  0  0  0  0  0
  182.6300  178.6640  142.4400 C   0  0  0  0  0  0  0  0  0  0  0  0
  184.5650  177.6380  141.0780 C   0  0  0  0  0  3  0  0  0  0  0  0
  184.3530  178.9910  144.6720 C   0  0  0  0  0  0  0  0  0  0  0  0
  186.7120  177.4580  144.8300 C   0  0  0  0  0  3  0  0  0  0  0  0
  187.0920  178.3690  147.1350 N   0  0  0  0  0  1  0  0  0  0  0  0
  185.0330  178.5540  143.3830 C   0  0  1  0  0  3  0  0  0  0  0  0
  185.1700  179.0320  145.8950 C   0  0  0  0  0  3  0  0  0  0  0  0
  186.0890  177.5150  143.6460 C   0  0  0  0  0  3  0  0  0  0  0  0
  183.7430  177.3680  139.8790 N   0  0  0  0  0  0  0  0  0  0  0  0
  184.0770  178.2050  142.2660 C   0  0  0  0  0  0  0  0  0  0  0  0
  182.1670  179.2080  143.5580 C   0  0  0  0  0  3  0  0  0  0  0  0
  181.8800  178.3980  141.2530 C   0  0  0  0  0  0  0  0  0  0  0  0
  182.4340  177.8000  140.1100 C   0  0  0  0  0  0  0  0  0  0  0  0
  183.0610  179.3430  144.7240 C   0  0  0  0  0  3  0  0  0  0  0  0
  180.2430  181.7800  139.2480 C   0  0  0  0  0  3  0  0  0  0  0  0
  180.6060  181.8350  137.8980 C   0  0  0  0  0  0  0  0  0  0  0  0
  181.2550  179.4990  137.9800 C   0  0  0  0  0  3  0  0  0  0  0  0
  180.3850  180.5850  139.9640 C   0  0  0  0  0  3  0  0  0  0  0  0
  180.8780  179.4310  139.3310 C   0  0  0  0  0  0  0  0  0  0  0  0
  181.1190  180.6930  137.2660 C   0  0  0  0  0  3  0  0  0  0  0  0
  181.5870  184.0760  137.5590 C   0  0  0  0  0  1  0  0  0  0  0  0
  180.4820  183.1150  137.1440 C   0  0  0  0  0  2  0  0  0  0  0  0
  184.2130  176.8050  138.6200 C   0  0  1  0  0  3  0  0  0  0  0  0
  183.1500  175.9240  137.9820 C   0  0  0  0  0  1  0  0  0  0  0  0
  184.5810  179.1310  138.2150 F   0  0  0  0  0  0  0  0  0  0  0  0
  184.7730  177.8740  137.6670 C   0  0  2  0  0  0  0  0  0  0  0  0
  183.9890  177.8140  136.3640 C   0  0  0  0  0  1  0  0  0  0  0  0
  186.2540  177.6740  137.3340 C   0  0  0  0  0  2  0  0  0  0  0  0
  187.1010  177.3100  138.5520 C   0  0  0  0  0  2  0  0  0  0  0  0
  188.2960  178.2550  138.7400 C   0  0  2  0  0  3  0  0  0  0  0  0
  188.9290  178.7250  137.4240 C   0  0  0  0  0  2  0  0  0  0  0  0
  188.9030  180.1190  137.3560 O   0  0  0  0  0  1  0  0  0  0  0  0
  189.2550  177.7980  139.7700 N   0  0  0  0  0  0  0  0  0  0  0  0
  190.2600  176.9180  139.1840 C   0  0  0  0  0  1  0  0  0  0  0  0
  188.6670  177.2140  140.9970 C   0  0  0  0  0  2  0  0  0  0  0  0
  189.5210  177.3150  142.2310 C   0  0  0  0  0  0  0  0  0  0  0  0
  190.5770  178.6320  143.9730 C   0  0  0  0  0  3  0  0  0  0  0  0
  190.7840  176.2210  143.9990 C   0  0  0  0  0  3  0  0  0  0  0  0
  191.0730  177.4650  144.5650 C   0  0  0  0  0  3  0  0  0  0  0  0
  190.0050  176.1480  142.8370 C   0  0  0  0  0  3  0  0  0  0  0  0
  189.7990  178.5570  142.8110 C   0  0  0  0  0  3  0  0  0  0  0  0
  1 21  1  6  0  0  0
  1 14  1  0  0  0  0
  2  7  1  0  0  0  0
  3 13  2  0  0  0  0
  4 12  2  0  0  0  0
  5 16  2  0  0  0  0
  5  9  1  0  0  0  0
  6  2  1  0  0  0  0
  8 10  1  1  0  0  0
  8  5  1  0  0  0  0
  9  2  2  0  0  0  0
 10  6  2  0  0  0  0
 11 15  1  0  0  0  0
 11  4  1  0  0  0  0
 12  3  1  0  0  0  0
 12  8  1  0  0  0  0
 13 16  1  0  0  0  0
 14  3  1  0  0  0  0
 15  1  1  0  0  0  0
 15 14  2  0  0  0  0
 17 20  1  0  0  0  0
 18 17  2  0  0  0  0
 19 21  1  0  0  0  0
 21 20  2  0  0  0  0
 22 18  1  0  0  0  0
 22 19  2  0  0  0  0
 24 23  1  0  0  0  0
 24 18  1  0  0  0  0
 25 26  1  6  0  0  0
 25 11  1  0  0  0  0
 28 29  1  6  0  0  0
 28 27  1  0  0  0  0
 28 25  1  0  0  0  0
 30 28  1  0  0  0  0
 30 31  1  0  0  0  0
 31 32  1  0  0  0  0
 32 33  1  6  0  0  0
 32 35  1  0  0  0  0
 34 33  1  0  0  0  0
 35 37  1  0  0  0  0
 36 35  1  0  0  0  0
 37 38  1  0  0  0  0
 38 43  2  0  0  0  0
 38 42  1  0  0  0  0
 39 41  2  0  0  0  0
 40 41  1  0  0  0  0
 42 40  2  0  0  0  0
 43 39  1  0  0  0  0
M  END
>  <MODEL>
1

>  <REMARK>
 VINA RESULT:      -8.0      0.000      0.000
  Name = 
  11 active torsions:
  status: ('A' for Active; 'I' for Inactive)
    1  A    between atoms: C_1  and  C_35
    2  A    between atoms: C_2  and  C_12
    3  A    between atoms: C_2  and  N_27
    4  A    between atoms: C_4  and  C_6
    5  A    between atoms: C_4  and  C_15
    6  A    between atoms: C_6  and  C_12
    7  A    between atoms: C_10  and  C_15
    8  A    between atoms: C_11  and  C_14
    9  A    between atoms: C_14  and  N_22
   10  A    between atoms: C_15  and  N_22
   11  A    between atoms: C_19  and  C_37
                            x       y       z     vdW  Elec       q    Type
                         _______ _______ _______ _____ _____    ______ ____

>  <TORSDO>
F 11

$$$$
=
 OpenBabel10272414393D

 43 48  0  0  1  0  0  0  0  0999 V2000
  191.7010  177.5260  138.9080 C   0  0  2  0  0  3  0  0  0  0  0  0
  187.9930  177.3340  145.8010 C   0  0  0  0  0  0  0  0  0  0  0  0
  190.8300  177.1300  141.5710 C   0  0  0  0  0  0  0  0  0  0  0  0
  188.4780  177.5640  140.6050 C   0  0  0  0  0  3  0  0  0  0  0  0
  189.7280  176.8520  144.1720 C   0  0  0  0  0  0  0  0  0  0  0  0
  187.1860  177.9400  144.7170 C   0  0  0  0  0  3  0  0  0  0  0  0
  187.5050  177.3480  147.1330 N   0  0  0  0  0  1  0  0  0  0  0  0
  188.7140  176.9510  143.0420 C   0  0  1  0  0  3  0  0  0  0  0  0
  189.2160  176.8560  145.5510 C   0  0  0  0  0  3  0  0  0  0  0  0
  187.5420  177.8110  143.4330 C   0  0  0  0  0  3  0  0  0  0  0  0
  188.9520  177.7870  139.2220 N   0  0  0  0  0  0  0  0  0  0  0  0
  189.3150  177.2880  141.6980 C   0  0  0  0  0  0  0  0  0  0  0  0
  191.6240  176.8620  142.5990 C   0  0  0  0  0  3  0  0  0  0  0  0
  191.2380  177.3380  140.2160 C   0  0  0  0  0  0  0  0  0  0  0  0
  190.3410  177.6400  139.1800 C   0  0  0  0  0  0  0  0  0  0  0  0
  191.0460  176.7520  143.9520 C   0  0  0  0  0  3  0  0  0  0  0  0
  191.2450  174.1030  137.2970 C   0  0  0  0  0  3  0  0  0  0  0  0
  192.5460  173.8220  136.8650 C   0  0  0  0  0  0  0  0  0  0  0  0
  193.3050  175.9330  137.7880 C   0  0  0  0  0  3  0  0  0  0  0  0
  190.9740  175.2980  137.9740 C   0  0  0  0  0  3  0  0  0  0  0  0
  192.0060  176.2150  138.2390 C   0  0  0  0  0  0  0  0  0  0  0  0
  193.5760  174.7430  137.1060 C   0  0  0  0  0  3  0  0  0  0  0  0
  193.7970  172.8380  134.9760 C   0  0  0  0  0  1  0  0  0  0  0  0
  192.8270  172.5640  136.1170 C   0  0  0  0  0  2  0  0  0  0  0  0
  188.1170  178.0510  138.0570 C   0  0  1  0  0  3  0  0  0  0  0  0
  188.7940  179.0280  137.1080 C   0  0  0  0  0  1  0  0  0  0  0  0
  188.0310  175.6640  138.1130 F   0  0  0  0  0  0  0  0  0  0  0  0
  187.6380  176.7630  137.3680 C   0  0  2  0  0  0  0  0  0  0  0  0
  188.3130  176.6650  136.0080 C   0  0  0  0  0  1  0  0  0  0  0  0
  186.1230  176.7220  137.1450 C   0  0  0  0  0  2  0  0  0  0  0  0
  185.3560  177.6920  138.0410 C   0  0  0  0  0  2  0  0  0  0  0  0
  183.8560  177.3690  138.1060 C   0  0  2  0  0  3  0  0  0  0  0  0
  182.9990  178.2000  137.1440 C   0  0  0  0  0  2  0  0  0  0  0  0
  182.7300  177.4630  135.9890 O   0  0  0  0  0  1  0  0  0  0  0  0
  183.3340  177.2680  139.4870 N   0  0  0  0  0  0  0  0  0  0  0  0
  182.4820  176.0930  139.6310 C   0  0  0  0  0  1  0  0  0  0  0  0
  182.6850  178.4830  140.0310 C   0  0  0  0  0  2  0  0  0  0  0  0
  182.7010  178.6050  141.5300 C   0  0  0  0  0  0  0  0  0  0  0  0
  183.9060  178.7020  143.6330 C   0  0  0  0  0  3  0  0  0  0  0  0
  181.4990  178.9490  143.6160 C   0  0  0  0  0  3  0  0  0  0  0  0
  182.7020  178.8910  144.3220 C   0  0  0  0  0  3  0  0  0  0  0  0
  181.5010  178.8110  142.2220 C   0  0  0  0  0  3  0  0  0  0  0  0
  183.9060  178.5640  142.2400 C   0  0  0  0  0  3  0  0  0  0  0  0
  1 21  1  6  0  0  0
  1 15  1  0  0  0  0
  1 14  1  0  0  0  0
  2  7  1  0  0  0  0
  3 12  1  0  0  0  0
  3 13  2  0  0  0  0
  4 12  2  0  0  0  0
  5  9  1  0  0  0  0
  6  2  1  0  0  0  0
  8 10  1  1  0  0  0
  8  5  1  0  0  0  0
  9  2  2  0  0  0  0
 10  6  2  0  0  0  0
 11  4  1  0  0  0  0
 12  8  1  0  0  0  0
 13 16  1  0  0  0  0
 14  3  1  0  0  0  0
 15 11  1  0  0  0  0
 15 14  2  0  0  0  0
 16  5  2  0  0  0  0
 17 20  1  0  0  0  0
 18 22  1  0  0  0  0
 18 17  2  0  0  0  0
 19 21  1  0  0  0  0
 20 21  2  0  0  0  0
 22 19  2  0  0  0  0
 23 24  1  0  0  0  0
 24 18  1  0  0  0  0
 25 26  1  6  0  0  0
 25 11  1  0  0  0  0
 28 29  1  6  0  0  0
 28 25  1  0  0  0  0
 28 27  1  0  0  0  0
 30 28  1  0  0  0  0
 30 31  1  0  0  0  0
 31 32  1  0  0  0  0
 32 33  1  6  0  0  0
 32 35  1  0  0  0  0
 34 33  1  0  0  0  0
 35 36  1  0  0  0  0
 35 37  1  0  0  0  0
 37 38  1  0  0  0  0
 38 42  2  0  0  0  0
 38 43  1  0  0  0  0
 39 41  1  0  0  0  0
 40 41  2  0  0  0  0
 42 40  1  0  0  0  0
 43 39  2  0  0  0  0
M  END
>  <MODEL>
2

>  <REMARK>
 VINA RESULT:      -7.9      2.528      8.286
  Name = 
  11 active torsions:
  status: ('A' for Active; 'I' for Inactive)
    1  A    between atoms: C_1  and  C_35
    2  A    between atoms: C_2  and  C_12
    3  A    between atoms: C_2  and  N_27
    4  A    between atoms: C_4  and  C_6
    5  A    between atoms: C_4  and  C_15
    6  A    between atoms: C_6  and  C_12
    7  A    between atoms: C_10  and  C_15
    8  A    between atoms: C_11  and  C_14
    9  A    between atoms: C_14  and  N_22
   10  A    between atoms: C_15  and  N_22
   11  A    between atoms: C_19  and  C_37
                            x       y       z     vdW  Elec       q    Type
                         _______ _______ _______ _____ _____    ______ ____

>  <TORSDO>
F 11

$$$$
=
 OpenBabel10272414393D

 43 48  0  0  1  0  0  0  0  0999 V2000
  188.0660  178.6640  137.4570 C   0  0  2  0  0  3  0  0  0  0  0  0
  194.4790  174.2480  136.6330 C   0  0  0  0  0  0  0  0  0  0  0  0
  190.1130  176.8800  136.6620 C   0  0  0  0  0  0  0  0  0  0  0  0
  190.7340  176.8650  139.1650 C   0  0  0  0  0  3  0  0  0  0  0  0
  192.2860  175.1420  136.0970 C   0  0  0  0  0  0  0  0  0  0  0  0
  194.4140  174.9520  137.9340 C   0  0  0  0  0  3  0  0  0  0  0  0
  195.6430  173.5140  136.2880 N   0  0  0  0  0  1  0  0  0  0  0  0
  192.0040  175.3730  137.5730 C   0  0  0  0  0  0  0  0  0  0  0  0
  193.4890  174.3720  135.7440 C   0  0  0  0  0  2  0  0  0  0  0  0
  193.2800  175.5240  138.3580 C   0  0  0  0  0  3  0  0  0  0  0  0
  189.6710  177.8140  139.5620 N   0  0  0  0  0  0  0  0  0  0  0  0
  190.9730  176.4430  137.8480 C   0  0  0  0  0  0  0  0  0  0  0  0
  190.3310  176.4770  135.4160 C   0  0  0  0  0  3  0  0  0  0  0  0
  189.0920  177.7810  137.0950 C   0  0  0  0  0  0  0  0  0  0  0  0
  188.9340  178.1800  138.4320 C   0  0  0  0  0  0  0  0  0  0  0  0
  191.4820  175.6010  135.1280 C   0  0  0  0  0  3  0  0  0  0  0  0
  185.3360  176.0460  137.0000 C   0  0  0  0  0  3  0  0  0  0  0  0
  184.2990  176.5860  137.7680 C   0  0  0  0  0  0  0  0  0  0  0  0
  185.6980  178.4930  138.3090 C   0  0  0  0  0  3  0  0  0  0  0  0
  186.5520  176.7280  136.8850 C   0  0  0  0  0  3  0  0  0  0  0  0
  186.7370  177.9650  137.5270 C   0  0  0  0  0  0  0  0  0  0  0  0
  184.4840  177.8090  138.4290 C   0  0  0  0  0  3  0  0  0  0  0  0
  182.5240  175.9220  139.3520 C   0  0  0  0  0  1  0  0  0  0  0  0
  183.0140  175.8440  137.9130 C   0  0  0  0  0  2  0  0  0  0  0  0
  189.3730  178.2580  140.9160 C   0  0  1  0  0  3  0  0  0  0  0  0
  187.8950  178.0960  141.2350 C   0  0  0  0  0  1  0  0  0  0  0  0
  191.6180  177.7720  141.5760 F   0  0  0  0  0  0  0  0  0  0  0  0
  190.2980  177.6180  141.9650 C   0  0  2  0  0  0  0  0  0  0  0  0
  190.0030  176.1270  142.0210 C   0  0  0  0  0  1  0  0  0  0  0  0
  190.1040  178.1890  143.3740 C   0  0  0  0  0  2  0  0  0  0  0  0
  189.8680  177.1130  144.4320 C   0  0  0  0  0  2  0  0  0  0  0  0
  190.0910  177.6360  145.8590 C   0  0  2  0  0  3  0  0  0  0  0  0
  191.1130  176.8250  146.6650 C   0  0  0  0  0  2  0  0  0  0  0  0
  191.9160  176.0790  145.7990 O   0  0  0  0  0  1  0  0  0  0  0  0
  188.8350  177.9520  146.5740 N   0  0  0  0  0  0  0  0  0  0  0  0
  189.0820  178.1170  148.0010 C   0  0  0  0  0  1  0  0  0  0  0  0
  187.6910  177.0480  146.3180 C   0  0  0  0  0  2  0  0  0  0  0  0
  186.4760  177.7000  145.7170 C   0  0  0  0  0  0  0  0  0  0  0  0
  185.1420  178.3190  143.7880 C   0  0  0  0  0  3  0  0  0  0  0  0
  184.3460  178.8350  146.0140 C   0  0  0  0  0  3  0  0  0  0  0  0
  184.1710  178.8760  144.6290 C   0  0  0  0  0  3  0  0  0  0  0  0
  185.4940  178.2440  146.5560 C   0  0  0  0  0  3  0  0  0  0  0  0
  186.2890  177.7280  144.3310 C   0  0  0  0  0  3  0  0  0  0  0  0
  1 21  1  1  0  0  0
  1 15  1  0  0  0  0
  2  6  2  0  0  0  0
  3 14  1  0  0  0  0
  3 12  1  0  0  0  0
  4 11  1  0  0  0  0
  5  8  1  0  0  0  0
  6 10  1  0  0  0  0
  7  2  1  0  0  0  0
  8 12  1  0  0  0  0
  8 10  2  0  0  0  0
  9  5  1  0  0  0  0
  9  2  1  0  0  0  0
 11 25  1  0  0  0  0
 12  4  2  0  0  0  0
 13  3  2  0  0  0  0
 14  1  1  0  0  0  0
 14 15  2  0  0  0  0
 15 11  1  0  0  0  0
 16 13  1  0  0  0  0
 16  5  2  0  0  0  0
 17 18  1  0  0  0  0
 18 24  1  0  0  0  0
 18 22  2  0  0  0  0
 19 22  1  0  0  0  0
 20 17  2  0  0  0  0
 20 21  1  0  0  0  0
 21 19  2  0  0  0  0
 24 23  1  0  0  0  0
 25 26  1  1  0  0  0
 25 28  1  0  0  0  0
 27 28  1  0  0  0  0
 28 29  1  1  0  0  0
 28 30  1  0  0  0  0
 30 31  1  0  0  0  0
 32 31  1  6  0  0  0
 32 35  1  0  0  0  0
 32 33  1  0  0  0  0
 34 33  1  0  0  0  0
 35 36  1  0  0  0  0
 37 35  1  0  0  0  0
 38 37  1  0  0  0  0
 38 42  1  0  0  0  0
 39 43  1  0  0  0  0
 39 41  2  0  0  0  0
 40 42  2  0  0  0  0
 41 40  1  0  0  0  0
 43 38  2  0  0  0  0
M  END
>  <MODEL>
3

>  <REMARK>
 VINA RESULT:      -7.8      3.410      8.469
  Name = 
  11 active torsions:
  status: ('A' for Active; 'I' for Inactive)
    1  A    between atoms: C_1  and  C_35
    2  A    between atoms: C_2  and  C_12
    3  A    between atoms: C_2  and  N_27
    4  A    between atoms: C_4  and  C_6
    5  A    between atoms: C_4  and  C_15
    6  A    between atoms: C_6  and  C_12
    7  A    between atoms: C_10  and  C_15
    8  A    between atoms: C_11  and  C_14
    9  A    between atoms: C_14  and  N_22
   10  A    between atoms: C_15  and  N_22
   11  A    between atoms: C_19  and  C_37
                            x       y       z     vdW  Elec       q    Type
                         _______ _______ _______ _____ _____    ______ ____

>  <TORSDO>
F 11

$$$$
=
 OpenBabel10272414393D

 43 48  0  0  1  0  0  0  0  0999 V2000
  184.6730  178.2550  138.0260 C   0  0  2  0  0  3  0  0  0  0  0  0
  185.3790  170.8750  135.5100 C   0  0  0  0  0  0  0  0  0  0  0  0
  184.4230  175.5020  137.4220 C   0  0  0  0  0  0  0  0  0  0  0  0
  186.9740  175.6040  137.0540 C   0  0  0  0  0  3  0  0  0  0  0  0
  184.4120  172.7570  136.7010 C   0  0  0  0  0  0  0  0  0  0  0  0
  186.5590  171.7150  135.2020 C   0  0  0  0  0  3  0  0  0  0  0  0
  185.3070  169.5520  135.0040 N   0  0  0  0  0  1  0  0  0  0  0  0
  185.7890  173.3830  136.8580 C   0  0  0  0  0  0  0  0  0  0  0  0
  184.3430  171.3810  136.1850 C   0  0  0  0  0  2  0  0  0  0  0  0
  186.7320  172.9080  135.7850 C   0  0  0  0  0  3  0  0  0  0  0  0
  187.0850  177.0480  137.3530 N   0  0  0  0  0  0  0  0  0  0  0  0
  185.7700  174.8810  137.0540 C   0  0  0  0  0  0  0  0  0  0  0  0
  183.2850  174.8220  137.4310 C   0  0  0  0  0  3  0  0  0  0  0  0
  184.5830  176.8910  137.7190 C   0  0  0  0  0  0  0  0  0  0  0  0
  185.8200  177.5520  137.6700 C   0  0  0  0  0  0  0  0  0  0  0  0
  183.2840  173.4040  137.0230 C   0  0  0  0  0  3  0  0  0  0  0  0
  183.4580  178.3100  141.6380 C   0  0  0  0  0  3  0  0  0  0  0  0
  184.5870  178.7950  142.3050 C   0  0  0  0  0  0  0  0  0  0  0  0
  185.7630  178.9600  140.1890 C   0  0  0  0  0  3  0  0  0  0  0  0
  183.4800  178.1500  140.2470 C   0  0  0  0  0  3  0  0  0  0  0  0
  184.6280  178.4890  139.5110 C   0  0  0  0  0  0  0  0  0  0  0  0
  185.7440  179.1150  141.5790 C   0  0  0  0  0  3  0  0  0  0  0  0
  183.1440  178.8560  144.3090 C   0  0  0  0  0  1  0  0  0  0  0  0
  184.5730  178.9360  143.7890 C   0  0  0  0  0  2  0  0  0  0  0  0
  188.3140  177.8290  137.3880 C   0  0  1  0  0  3  0  0  0  0  0  0
  188.0220  179.3160  137.2600 C   0  0  0  0  0  1  0  0  0  0  0  0
  190.3180  178.3020  138.6010 F   0  0  0  0  0  0  0  0  0  0  0  0
  189.2010  177.4830  138.5950 C   0  0  2  0  0  0  0  0  0  0  0  0
  189.6820  176.0470  138.4430 C   0  0  0  0  0  1  0  0  0  0  0  0
  188.4710  177.5940  139.9370 C   0  0  0  0  0  2  0  0  0  0  0  0
  189.1420  176.8020  141.0560 C   0  0  0  0  0  2  0  0  0  0  0  0
  190.2100  177.6210  141.7950 C   0  0  2  0  0  3  0  0  0  0  0  0
  191.6300  177.0600  141.6540 C   0  0  0  0  0  2  0  0  0  0  0  0
  192.2890  177.6970  140.6000 O   0  0  0  0  0  1  0  0  0  0  0  0
  189.8170  177.9980  143.1710 N   0  0  0  0  0  0  0  0  0  0  0  0
  190.7170  179.0140  143.7030 C   0  0  0  0  0  1  0  0  0  0  0  0
  189.6270  176.8830  144.1260 C   0  0  0  0  0  2  0  0  0  0  0  0
  188.8860  177.2340  145.3870 C   0  0  0  0  0  0  0  0  0  0  0  0
  188.8350  177.5670  147.7900 C   0  0  0  0  0  3  0  0  0  0  0  0
  186.8450  177.9830  146.4780 C   0  0  0  0  0  3  0  0  0  0  0  0
  187.4900  177.9470  147.7160 C   0  0  0  0  0  3  0  0  0  0  0  0
  187.5440  177.6310  145.3160 C   0  0  0  0  0  3  0  0  0  0  0  0
  189.5330  177.2150  146.6270 C   0  0  0  0  0  3  0  0  0  0  0  0
  1 21  1  1  0  0  0
  2  9  1  0  0  0  0
  3 13  2  0  0  0  0
  3 14  1  0  0  0  0
  4 12  2  0  0  0  0
  4 11  1  0  0  0  0
  5  8  1  0  0  0  0
  5 16  2  0  0  0  0
  6  2  2  0  0  0  0
  6 10  1  0  0  0  0
  7  2  1  0  0  0  0
  8 12  1  0  0  0  0
  9  5  1  0  0  0  0
 10  8  2  0  0  0  0
 11 25  1  0  0  0  0
 11 15  1  0  0  0  0
 12  3  1  0  0  0  0
 14  1  1  0  0  0  0
 15 14  2  0  0  0  0
 15  1  1  0  0  0  0
 16 13  1  0  0  0  0
 17 18  1  0  0  0  0
 18 24  1  0  0  0  0
 19 22  1  0  0  0  0
 20 17  2  0  0  0  0
 21 19  2  0  0  0  0
 21 20  1  0  0  0  0
 22 18  2  0  0  0  0
 24 23  1  0  0  0  0
 25 26  1  1  0  0  0
 25 28  1  0  0  0  0
 28 29  1  6  0  0  0
 28 27  1  0  0  0  0
 28 30  1  0  0  0  0
 30 31  1  0  0  0  0
 32 31  1  1  0  0  0
 32 35  1  0  0  0  0
 33 32  1  0  0  0  0
 34 33  1  0  0  0  0
 35 36  1  0  0  0  0
 35 37  1  0  0  0  0
 37 38  1  0  0  0  0
 38 43  1  0  0  0  0
 40 41  2  0  0  0  0
 41 39  1  0  0  0  0
 42 38  2  0  0  0  0
 42 40  1  0  0  0  0
 43 39  2  0  0  0  0
M  END
>  <MODEL>
4

>  <REMARK>
 VINA RESULT:      -7.7      3.078      6.790
  Name = 
  11 active torsions:
  status: ('A' for Active; 'I' for Inactive)
    1  A    between atoms: C_1  and  C_35
    2  A    between atoms: C_2  and  C_12
    3  A    between atoms: C_2  and  N_27
    4  A    between atoms: C_4  and  C_6
    5  A    between atoms: C_4  and  C_15
    6  A    between atoms: C_6  and  C_12
    7  A    between atoms: C_10  and  C_15
    8  A    between atoms: C_11  and  C_14
    9  A    between atoms: C_14  and  N_22
   10  A    between atoms: C_15  and  N_22
   11  A    between atoms: C_19  and  C_37
                            x       y       z     vdW  Elec       q    Type
                         _______ _______ _______ _____ _____    ______ ____

>  <TORSDO>
F 11

$$$$
=
 OpenBabel10272414393D

 43 48  0  0  1  0  0  0  0  0999 V2000
  183.8790  177.4030  136.2880 C   0  0  2  0  0  3  0  0  0  0  0  0
  191.3750  176.6730  138.4270 C   0  0  0  0  0  0  0  0  0  0  0  0
  186.5770  176.6610  136.7040 C   0  0  0  0  0  0  0  0  0  0  0  0
  186.3370  177.9640  138.9170 C   0  0  0  0  0  3  0  0  0  0  0  0
  189.2960  176.1090  137.3060 C   0  0  0  0  0  0  0  0  0  0  0  0
  190.6490  177.7200  139.1800 C   0  0  0  0  0  3  0  0  0  0  0  0
  192.7720  176.5130  138.6130 N   0  0  0  0  0  1  0  0  0  0  0  0
  188.4990  176.7560  138.4280 C   0  0  0  0  0  0  0  0  0  0  0  0
  190.7430  175.9360  137.5080 C   0  0  0  0  0  2  0  0  0  0  0  0
  189.3130  177.8000  139.1460 C   0  0  0  0  0  3  0  0  0  0  0  0
  184.9330  178.3600  138.6760 N   0  0  0  0  0  0  0  0  0  0  0  0
  187.1170  177.2120  138.0240 C   0  0  0  0  0  0  0  0  0  0  0  0
  187.3080  175.9430  135.8610 C   0  0  0  0  0  3  0  0  0  0  0  0
  185.2150  177.0550  136.5230 C   0  0  0  0  0  0  0  0  0  0  0  0
  184.5090  177.8350  137.4520 C   0  0  0  0  0  0  0  0  0  0  0  0
  188.7290  175.6900  136.1670 C   0  0  0  0  0  3  0  0  0  0  0  0
  180.7100  175.4140  137.0110 C   0  0  0  0  0  3  0  0  0  0  0  0
  181.1900  174.1010  136.9780 C   0  0  0  0  0  0  0  0  0  0  0  0
  183.4250  174.9330  136.5290 C   0  0  0  0  0  3  0  0  0  0  0  0
  181.5850  176.4860  136.8030 C   0  0  0  0  0  3  0  0  0  0  0  0
  182.9530  176.2540  136.5760 C   0  0  0  0  0  0  0  0  0  0  0  0
  182.5500  173.8610  136.7300 C   0  0  0  0  0  3  0  0  0  0  0  0
  181.0090  171.7370  137.6710 C   0  0  0  0  0  1  0  0  0  0  0  0
  180.2520  172.9580  137.1690 C   0  0  0  0  0  2  0  0  0  0  0  0
  184.0830  179.1180  139.5840 C   0  0  1  0  0  3  0  0  0  0  0  0
  183.2430  180.1360  138.8280 C   0  0  0  0  0  1  0  0  0  0  0  0
  183.5190  176.8850  140.2230 F   0  0  0  0  0  0  0  0  0  0  0  0
  183.2560  178.2140  140.5130 C   0  0  2  0  0  0  0  0  0  0  0  0
  181.7800  178.4620  140.2380 C   0  0  0  0  0  1  0  0  0  0  0  0
  183.5080  178.4790  142.0000 C   0  0  0  0  0  2  0  0  0  0  0  0
  184.9570  178.8530  142.3080 C   0  0  0  0  0  2  0  0  0  0  0  0
  185.3880  178.4210  143.7170 C   0  0  2  0  0  3  0  0  0  0  0  0
  184.8810  179.3440  144.8310 C   0  0  0  0  0  2  0  0  0  0  0  0
  183.7380  178.7970  145.4190 O   0  0  0  0  0  1  0  0  0  0  0  0
  186.8170  178.0490  143.8090 N   0  0  0  0  0  0  0  0  0  0  0  0
  187.3790  177.8300  142.4820 C   0  0  0  0  0  1  0  0  0  0  0  0
  187.1460  176.9390  144.7320 C   0  0  0  0  0  2  0  0  0  0  0  0
  187.8090  177.3450  146.0180 C   0  0  0  0  0  0  0  0  0  0  0  0
  187.7190  178.3760  148.2130 C   0  0  0  0  0  3  0  0  0  0  0  0
  189.7740  177.3510  147.4510 C   0  0  0  0  0  3  0  0  0  0  0  0
  189.0610  178.0420  148.4320 C   0  0  0  0  0  3  0  0  0  0  0  0
  189.1470  177.0000  146.2490 C   0  0  0  0  0  3  0  0  0  0  0  0
  187.0930  178.0240  147.0110 C   0  0  0  0  0  3  0  0  0  0  0  0
  1 14  1  0  0  0  0
  1 21  1  1  0  0  0
  1 15  1  0  0  0  0
  2  7  1  0  0  0  0
  2  6  2  0  0  0  0
  3 12  1  0  0  0  0
  5  9  1  0  0  0  0
  5  8  1  0  0  0  0
  8 10  2  0  0  0  0
  9  2  1  0  0  0  0
 10  6  1  0  0  0  0
 11  4  1  0  0  0  0
 11 25  1  0  0  0  0
 12  8  1  0  0  0  0
 12  4  2  0  0  0  0
 13 16  1  0  0  0  0
 13  3  2  0  0  0  0
 14  3  1  0  0  0  0
 14 15  2  0  0  0  0
 15 11  1  0  0  0  0
 16  5  2  0  0  0  0
 18 17  1  0  0  0  0
 18 24  1  0  0  0  0
 19 21  2  0  0  0  0
 19 22  1  0  0  0  0
 20 17  2  0  0  0  0
 21 20  1  0  0  0  0
 22 18  2  0  0  0  0
 24 23  1  0  0  0  0
 25 26  1  6  0  0  0
 25 28  1  0  0  0  0
 27 28  1  0  0  0  0
 28 29  1  6  0  0  0
 28 30  1  0  0  0  0
 30 31  1  0  0  0  0
 32 31  1  6  0  0  0
 32 35  1  0  0  0  0
 32 33  1  0  0  0  0
 33 34  1  0  0  0  0
 35 37  1  0  0  0  0
 36 35  1  0  0  0  0
 37 38  1  0  0  0  0
 38 42  2  0  0  0  0
 38 43  1  0  0  0  0
 39 41  1  0  0  0  0
 40 41  2  0  0  0  0
 42 40  1  0  0  0  0
 43 39  2  0  0  0  0
M  END
>  <MODEL>
5

>  <REMARK>
 VINA RESULT:      -7.1      2.652      6.586
  Name = 
  11 active torsions:
  status: ('A' for Active; 'I' for Inactive)
    1  A    between atoms: C_1  and  C_35
    2  A    between atoms: C_2  and  C_12
    3  A    between atoms: C_2  and  N_27
    4  A    between atoms: C_4  and  C_6
    5  A    between atoms: C_4  and  C_15
    6  A    between atoms: C_6  and  C_12
    7  A    between atoms: C_10  and  C_15
    8  A    between atoms: C_11  and  C_14
    9  A    between atoms: C_14  and  N_22
   10  A    between atoms: C_15  and  N_22
   11  A    between atoms: C_19  and  C_37
                            x       y       z     vdW  Elec       q    Type
                         _______ _______ _______ _____ _____    ______ ____

>  <TORSDO>
F 11

$$$$
=
 OpenBabel10272414393D

 43 48  0  0  1  0  0  0  0  0999 V2000
  184.4870  177.5580  136.4030 C   0  0  2  0  0  3  0  0  0  0  0  0
  191.6110  177.0240  139.6060 C   0  0  0  0  0  0  0  0  0  0  0  0
  187.1190  176.8930  137.2000 C   0  0  0  0  0  0  0  0  0  0  0  0
  186.5160  178.1510  139.3700 C   0  0  0  0  0  3  0  0  0  0  0  0
  189.7380  176.4150  138.1860 C   0  0  0  0  0  0  0  0  0  0  0  0
  190.7490  178.0350  140.2580 C   0  0  0  0  0  3  0  0  0  0  0  0
  192.9710  176.9040  139.9920 N   0  0  0  0  0  1  0  0  0  0  0  0
  188.7650  177.0180  139.1870 C   0  0  0  0  0  0  0  0  0  0  0  0
  191.1450  176.2840  138.5950 C   0  0  0  0  0  2  0  0  0  0  0  0
  189.4300  178.0740  140.0290 C   0  0  0  0  0  3  0  0  0  0  0  0
  185.1500  178.5070  138.9300 N   0  0  0  0  0  0  0  0  0  0  0  0
  187.4420  177.4380  138.5910 C   0  0  0  0  0  0  0  0  0  0  0  0
  187.9880  176.2120  136.4640 C   0  0  0  0  0  3  0  0  0  0  0  0
  185.7860  177.2470  136.8260 C   0  0  0  0  0  0  0  0  0  0  0  0
  184.9260  177.9890  137.6510 C   0  0  0  0  0  0  0  0  0  0  0  0
  189.3570  175.9980  136.9710 C   0  0  0  0  0  3  0  0  0  0  0  0
  182.9070  174.1320  135.8640 C   0  0  0  0  0  3  0  0  0  0  0  0
  181.9390  174.1090  136.8750 C   0  0  0  0  0  0  0  0  0  0  0  0
  182.6050  176.3400  137.5590 C   0  0  0  0  0  3  0  0  0  0  0  0
  183.7220  175.2580  135.7010 C   0  0  0  0  0  3  0  0  0  0  0  0
  183.5670  176.3770  136.5370 C   0  0  0  0  0  0  0  0  0  0  0  0
  181.7940  175.2130  137.7270 C   0  0  0  0  0  3  0  0  0  0  0  0
  180.4840  172.4680  135.7400 C   0  0  0  0  0  1  0  0  0  0  0  0
  181.0920  172.8980  137.0670 C   0  0  0  0  0  2  0  0  0  0  0  0
  184.1510  179.2220  139.7130 C   0  0  1  0  0  3  0  0  0  0  0  0
  183.1780  179.9670  138.8120 C   0  0  0  0  0  1  0  0  0  0  0  0
  183.7680  176.9980  140.4970 F   0  0  0  0  0  0  0  0  0  0  0  0
  183.4570  178.3240  140.7500 C   0  0  2  0  0  0  0  0  0  0  0  0
  181.9530  178.4840  140.5960 C   0  0  0  0  0  1  0  0  0  0  0  0
  183.8220  178.6740  142.1960 C   0  0  0  0  0  2  0  0  0  0  0  0
  185.1340  178.0420  142.6570 C   0  0  0  0  0  2  0  0  0  0  0  0
  185.3120  178.1040  144.1800 C   0  0  2  0  0  3  0  0  0  0  0  0
  184.8190  179.4120  144.8110 C   0  0  0  0  0  2  0  0  0  0  0  0
  183.7090  179.1610  145.6200 O   0  0  0  0  0  1  0  0  0  0  0  0
  186.6430  177.6480  144.6380 N   0  0  0  0  0  0  0  0  0  0  0  0
  186.7140  177.6480  146.0940 C   0  0  0  0  0  1  0  0  0  0  0  0
  187.8110  178.3280  144.0340 C   0  0  0  0  0  2  0  0  0  0  0  0
  189.0490  177.4840  143.9000 C   0  0  0  0  0  0  0  0  0  0  0  0
  190.2130  175.5640  142.9820 C   0  0  0  0  0  3  0  0  0  0  0  0
  191.4020  177.1260  144.3970 C   0  0  0  0  0  3  0  0  0  0  0  0
  191.3910  175.9610  143.6260 C   0  0  0  0  0  3  0  0  0  0  0  0
  190.2350  177.8870  144.5290 C   0  0  0  0  0  3  0  0  0  0  0  0
  189.0450  176.3260  143.1150 C   0  0  0  0  0  3  0  0  0  0  0  0
  1 21  1  1  0  0  0
  1 14  1  0  0  0  0
  1 15  1  0  0  0  0
  2  7  1  0  0  0  0
  2  6  2  0  0  0  0
  3 12  1  0  0  0  0
  5  9  1  0  0  0  0
  5  8  1  0  0  0  0
  8 10  2  0  0  0  0
  9  2  1  0  0  0  0
 10  6  1  0  0  0  0
 11  4  1  0  0  0  0
 11 25  1  0  0  0  0
 12  8  1  0  0  0  0
 12  4  2  0  0  0  0
 13 16  1  0  0  0  0
 13  3  2  0  0  0  0
 14  3  1  0  0  0  0
 14 15  2  0  0  0  0
 15 11  1  0  0  0  0
 16  5  2  0  0  0  0
 17 18  1  0  0  0  0
 18 24  1  0  0  0  0
 18 22  2  0  0  0  0
 19 22  1  0  0  0  0
 20 17  2  0  0  0  0
 20 21  1  0  0  0  0
 21 19  2  0  0  0  0
 23 24  1  0  0  0  0
 25 26  1  6  0  0  0
 25 28  1  0  0  0  0
 27 28  1  0  0  0  0
 28 29  1  6  0  0  0
 28 30  1  0  0  0  0
 30 31  1  0  0  0  0
 32 31  1  6  0  0  0
 32 35  1  0  0  0  0
 32 33  1  0  0  0  0
 33 34  1  0  0  0  0
 35 36  1  0  0  0  0
 37 35  1  0  0  0  0
 38 37  1  0  0  0  0
 38 42  1  0  0  0  0
 39 43  1  0  0  0  0
 39 41  2  0  0  0  0
 40 42  2  0  0  0  0
 41 40  1  0  0  0  0
 43 38  2  0  0  0  0
M  END
>  <MODEL>
6

>  <REMARK>
 VINA RESULT:      -7.1      2.466      6.400
  Name = 
  11 active torsions:
  status: ('A' for Active; 'I' for Inactive)
    1  A    between atoms: C_1  and  C_35
    2  A    between atoms: C_2  and  C_12
    3  A    between atoms: C_2  and  N_27
    4  A    between atoms: C_4  and  C_6
    5  A    between atoms: C_4  and  C_15
    6  A    between atoms: C_6  and  C_12
    7  A    between atoms: C_10  and  C_15
    8  A    between atoms: C_11  and  C_14
    9  A    between atoms: C_14  and  N_22
   10  A    between atoms: C_15  and  N_22
   11  A    between atoms: C_19  and  C_37
                            x       y       z     vdW  Elec       q    Type
                         _______ _______ _______ _____ _____    ______ ____

>  <TORSDO>
F 11

$$$$
=
 OpenBabel10272414393D

 43 48  0  0  1  0  0  0  0  0999 V2000
  187.6300  178.9730  140.2920 C   0  0  2  0  0  3  0  0  0  0  0  0
  191.1780  176.6930  146.8880 C   0  0  0  0  0  0  0  0  0  0  0  0
  189.3730  178.0350  142.3140 C   0  0  0  0  0  0  0  0  0  0  0  0
  187.2000  177.5260  143.6080 C   0  0  0  0  0  3  0  0  0  0  0  0
  190.9150  177.1120  144.5110 C   0  0  0  0  0  0  0  0  0  0  0  0
  189.7400  176.9940  147.0690 C   0  0  0  0  0  3  0  0  0  0  0  0
  191.9820  176.3940  148.0180 N   0  0  0  0  0  1  0  0  0  0  0  0
  189.4180  176.8720  144.6200 C   0  0  1  0  0  3  0  0  0  0  0  0
  191.7460  176.7900  145.6820 C   0  0  0  0  0  3  0  0  0  0  0  0
  188.9220  177.1300  146.0190 C   0  0  0  0  0  3  0  0  0  0  0  0
  186.3030  178.0380  142.5490 N   0  0  0  0  0  0  0  0  0  0  0  0
  188.6020  177.5360  143.5360 C   0  0  0  0  0  0  0  0  0  0  0  0
  190.6970  178.0390  142.2390 C   0  0  0  0  0  3  0  0  0  0  0  0
  188.4650  178.5040  141.3140 C   0  0  0  0  0  0  0  0  0  0  0  0
  187.0710  178.4870  141.4710 C   0  0  0  0  0  0  0  0  0  0  0  0
  191.4910  177.5890  143.3990 C   0  0  0  0  0  3  0  0  0  0  0  0
  186.3280  177.1410  137.2150 C   0  0  0  0  0  3  0  0  0  0  0  0
  187.3210  176.1750  137.0240 C   0  0  0  0  0  0  0  0  0  0  0  0
  188.5000  177.0050  138.9760 C   0  0  0  0  0  3  0  0  0  0  0  0
  186.4190  178.0380  138.2860 C   0  0  0  0  0  3  0  0  0  0  0  0
  187.4990  177.9680  139.1830 C   0  0  0  0  0  0  0  0  0  0  0  0
  188.4120  176.1120  137.9030 C   0  0  0  0  0  3  0  0  0  0  0  0
  186.1100  175.6590  134.9340 C   0  0  0  0  0  1  0  0  0  0  0  0
  187.2380  175.2390  135.8670 C   0  0  0  0  0  2  0  0  0  0  0  0
  184.8470  178.0250  142.5720 C   0  0  1  0  0  3  0  0  0  0  0  0
  184.3120  178.6720  143.8410 C   0  0  0  0  0  1  0  0  0  0  0  0
  185.0100  179.6460  140.8240 F   0  0  0  0  0  0  0  0  0  0  0  0
  184.2290  178.6000  141.2870 C   0  0  2  0  0  0  0  0  0  0  0  0
  182.8560  179.1630  141.6230 C   0  0  0  0  0  1  0  0  0  0  0  0
  184.0510  177.5560  140.1800 C   0  0  0  0  0  2  0  0  0  0  0  0
  182.6820  177.6220  139.5050 C   0  0  0  0  0  2  0  0  0  0  0  0
  182.7570  178.1910  138.0820 C   0  0  2  0  0  3  0  0  0  0  0  0
  181.7830  179.3470  137.8230 C   0  0  0  0  0  2  0  0  0  0  0  0
  182.2330  180.5010  138.4710 O   0  0  0  0  0  1  0  0  0  0  0  0
  182.7900  177.1510  137.0300 N   0  0  0  0  0  0  0  0  0  0  0  0
  182.2400  177.6630  135.7810 C   0  0  0  0  0  1  0  0  0  0  0  0
  182.2030  175.8400  137.3890 C   0  0  0  0  0  2  0  0  0  0  0  0
  183.0680  174.6450  137.0950 C   0  0  0  0  0  0  0  0  0  0  0  0
  183.7280  172.8150  135.6460 C   0  0  0  0  0  3  0  0  0  0  0  0
  184.9150  173.1920  137.7210 C   0  0  0  0  0  3  0  0  0  0  0  0
  184.7340  172.4520  136.5500 C   0  0  0  0  0  3  0  0  0  0  0  0
  184.0860  174.2880  137.9890 C   0  0  0  0  0  3  0  0  0  0  0  0
  182.9000  173.9110  135.9160 C   0  0  0  0  0  3  0  0  0  0  0  0
  1 21  1  6  0  0  0
  1 14  1  0  0  0  0
  1 15  1  0  0  0  0
  2  6  1  0  0  0  0
  2  7  1  0  0  0  0
  3 12  1  0  0  0  0
  5  8  1  0  0  0  0
  5  9  1  0  0  0  0
  8 10  1  1  0  0  0
  9  2  2  0  0  0  0
 10  6  2  0  0  0  0
 11 25  1  0  0  0  0
 11  4  1  0  0  0  0
 12  4  2  0  0  0  0
 12  8  1  0  0  0  0
 13  3  2  0  0  0  0
 13 16  1  0  0  0  0
 14 15  2  0  0  0  0
 14  3  1  0  0  0  0
 15 11  1  0  0  0  0
 16  5  2  0  0  0  0
 17 20  1  0  0  0  0
 18 17  2  0  0  0  0
 18 22  1  0  0  0  0
 19 21  1  0  0  0  0
 20 21  2  0  0  0  0
 22 19  2  0  0  0  0
 23 24  1  0  0  0  0
 24 18  1  0  0  0  0
 25 26  1  1  0  0  0
 27 28  1  0  0  0  0
 28 29  1  1  0  0  0
 28 25  1  0  0  0  0
 30 28  1  0  0  0  0
 31 30  1  0  0  0  0
 32 33  1  6  0  0  0
 32 31  1  0  0  0  0
 33 34  1  0  0  0  0
 35 37  1  0  0  0  0
 35 32  1  0  0  0  0
 36 35  1  0  0  0  0
 38 37  1  0  0  0  0
 38 42  1  0  0  0  0
 39 43  1  0  0  0  0
 39 41  2  0  0  0  0
 40 42  2  0  0  0  0
 41 40  1  0  0  0  0
 43 38  2  0  0  0  0
M  END
>  <MODEL>
7

>  <REMARK>
 VINA RESULT:      -7.0      2.404      7.168
  Name = 
  11 active torsions:
  status: ('A' for Active; 'I' for Inactive)
    1  A    between atoms: C_1  and  C_35
    2  A    between atoms: C_2  and  C_12
    3  A    between atoms: C_2  and  N_27
    4  A    between atoms: C_4  and  C_6
    5  A    between atoms: C_4  and  C_15
    6  A    between atoms: C_6  and  C_12
    7  A    between atoms: C_10  and  C_15
    8  A    between atoms: C_11  and  C_14
    9  A    between atoms: C_14  and  N_22
   10  A    between atoms: C_15  and  N_22
   11  A    between atoms: C_19  and  C_37
                            x       y       z     vdW  Elec       q    Type
                         _______ _______ _______ _____ _____    ______ ____

>  <TORSDO>
F 11

$$$$
=
 OpenBabel10272414393D

 43 48  0  0  1  0  0  0  0  0999 V2000
  188.5070  178.5380  139.4570 C   0  0  2  0  0  3  0  0  0  0  0  0
  187.7890  177.5890  147.1960 C   0  0  0  0  0  0  0  0  0  0  0  0
  188.7410  177.8650  142.1960 C   0  0  0  0  0  0  0  0  0  0  0  0
  186.2050  178.3320  142.2740 C   0  0  0  0  0  3  0  0  0  0  0  0
  188.7410  177.3090  144.9790 C   0  0  0  0  0  0  0  0  0  0  0  0
  186.6320  178.2760  146.5790 C   0  0  0  0  0  3  0  0  0  0  0  0
  187.8610  177.4610  148.6070 N   0  0  0  0  0  1  0  0  0  0  0  0
  187.3670  177.4930  144.3520 C   0  0  1  0  0  3  0  0  0  0  0  0
  188.8090  177.1680  146.4420 C   0  0  0  0  0  3  0  0  0  0  0  0
  186.4540  178.2820  145.2520 C   0  0  0  0  0  3  0  0  0  0  0  0
  186.1040  178.7000  140.8450 N   0  0  0  0  0  0  0  0  0  0  0  0
  187.3990  177.9720  142.9190 C   0  0  0  0  0  0  0  0  0  0  0  0
  189.8700  177.5180  142.8000 C   0  0  0  0  0  3  0  0  0  0  0  0
  188.5890  178.2130  140.8180 C   0  0  0  0  0  0  0  0  0  0  0  0
  187.3630  178.5910  140.2490 C   0  0  0  0  0  0  0  0  0  0  0  0
  189.8660  177.2640  144.2530 C   0  0  0  0  0  3  0  0  0  0  0  0
  187.4530  175.9330  136.8840 C   0  0  0  0  0  3  0  0  0  0  0  0
  188.5590  175.0760  136.8840 C   0  0  0  0  0  0  0  0  0  0  0  0
  189.6180  176.4500  138.5810 C   0  0  0  0  0  3  0  0  0  0  0  0
  187.4290  177.0470  137.7310 C   0  0  0  0  0  3  0  0  0  0  0  0
  188.5050  177.3060  138.5970 C   0  0  0  0  0  0  0  0  0  0  0  0
  189.6460  175.3400  137.7310 C   0  0  0  0  0  3  0  0  0  0  0  0
  188.2410  172.6330  136.7140 C   0  0  0  0  0  1  0  0  0  0  0  0
  188.5960  173.9070  135.9610 C   0  0  0  0  0  2  0  0  0  0  0  0
  184.8840  179.0550  140.1310 C   0  0  1  0  0  3  0  0  0  0  0  0
  184.9780  178.6740  138.6610 C   0  0  0  0  0  1  0  0  0  0  0  0
  182.5680  179.3990  140.6090 F   0  0  0  0  0  0  0  0  0  0  0  0
  183.6180  178.5210  140.8200 C   0  0  2  0  0  0  0  0  0  0  0  0
  183.8750  178.4600  142.3190 C   0  0  0  0  0  1  0  0  0  0  0  0
  183.2200  177.1170  140.3550 C   0  0  0  0  0  2  0  0  0  0  0  0
  181.7460  177.0040  139.9730 C   0  0  0  0  0  2  0  0  0  0  0  0
  181.5380  176.9080  138.4550 C   0  0  2  0  0  3  0  0  0  0  0  0
  181.1720  178.2420  137.7930 C   0  0  0  0  0  2  0  0  0  0  0  0
  181.9920  178.4630  136.6850 O   0  0  0  0  0  1  0  0  0  0  0  0
  180.7080  175.7540  138.0450 N   0  0  0  0  0  0  0  0  0  0  0  0
  180.5140  174.8360  139.1610 C   0  0  0  0  0  1  0  0  0  0  0  0
  181.1390  175.0410  136.8210 C   0  0  0  0  0  2  0  0  0  0  0  0
  182.3280  174.1350  136.9870 C   0  0  0  0  0  0  0  0  0  0  0  0
  184.6640  173.7890  137.5450 C   0  0  0  0  0  3  0  0  0  0  0  0
  183.2710  171.8930  136.9760 C   0  0  0  0  0  3  0  0  0  0  0  0
  184.5150  172.4110  137.3440 C   0  0  0  0  0  3  0  0  0  0  0  0
  182.1800  172.7540  136.8030 C   0  0  0  0  0  3  0  0  0  0  0  0
  183.5720  174.6480  137.3710 C   0  0  0  0  0  3  0  0  0  0  0  0
  1 21  1  6  0  0  0
  1 15  1  0  0  0  0
  1 14  1  0  0  0  0
  2  7  1  0  0  0  0
  3 13  2  0  0  0  0
  3 12  1  0  0  0  0
  4 12  2  0  0  0  0
  5  9  1  0  0  0  0
  6  2  1  0  0  0  0
  8  5  1  0  0  0  0
  8 10  1  1  0  0  0
  9  2  2  0  0  0  0
 10  6  2  0  0  0  0
 11  4  1  0  0  0  0
 12  8  1  0  0  0  0
 13 16  1  0  0  0  0
 14  3  1  0  0  0  0
 15 14  2  0  0  0  0
 15 11  1  0  0  0  0
 16  5  2  0  0  0  0
 17 20  1  0  0  0  0
 18 17  2  0  0  0  0
 18 22  1  0  0  0  0
 19 21  1  0  0  0  0
 20 21  2  0  0  0  0
 22 19  2  0  0  0  0
 24 23  1  0  0  0  0
 24 18  1  0  0  0  0
 25 26  1  6  0  0  0
 25 28  1  0  0  0  0
 25 11  1  0  0  0  0
 27 28  1  0  0  0  0
 28 29  1  1  0  0  0
 30 28  1  0  0  0  0
 31 30  1  0  0  0  0
 32 33  1  1  0  0  0
 32 31  1  0  0  0  0
 34 33  1  0  0  0  0
 35 32  1  0  0  0  0
 35 36  1  0  0  0  0
 37 38  1  0  0  0  0
 37 35  1  0  0  0  0
 38 43  1  0  0  0  0
 40 41  2  0  0  0  0
 41 39  1  0  0  0  0
 42 40  1  0  0  0  0
 42 38  2  0  0  0  0
 43 39  2  0  0  0  0
M  END
>  <MODEL>
8

>  <REMARK>
 VINA RESULT:      -6.9      2.532      7.432
  Name = 
  11 active torsions:
  status: ('A' for Active; 'I' for Inactive)
    1  A    between atoms: C_1  and  C_35
    2  A    between atoms: C_2  and  C_12
    3  A    between atoms: C_2  and  N_27
    4  A    between atoms: C_4  and  C_6
    5  A    between atoms: C_4  and  C_15
    6  A    between atoms: C_6  and  C_12
    7  A    between atoms: C_10  and  C_15
    8  A    between atoms: C_11  and  C_14
    9  A    between atoms: C_14  and  N_22
   10  A    between atoms: C_15  and  N_22
   11  A    between atoms: C_19  and  C_37
                            x       y       z     vdW  Elec       q    Type
                         _______ _______ _______ _____ _____    ______ ____

>  <TORSDO>
F 11

$$$$
=
 OpenBabel10272414393D

 43 48  0  0  1  0  0  0  0  0999 V2000
  183.4070  176.9030  136.8700 C   0  0  2  0  0  3  0  0  0  0  0  0
  184.6870  169.3090  135.4580 C   0  0  0  0  0  0  0  0  0  0  0  0
  183.4290  174.0760  136.7540 C   0  0  0  0  0  0  0  0  0  0  0  0
  185.8650  174.3740  135.9580 C   0  0  0  0  0  3  0  0  0  0  0  0
  183.6680  171.2610  136.4830 C   0  0  0  0  0  0  0  0  0  0  0  0
  185.6900  170.2000  134.8310 C   0  0  0  0  0  3  0  0  0  0  0  0
  184.7130  167.9180  135.1840 N   0  0  0  0  0  1  0  0  0  0  0  0
  184.9610  172.0430  136.3100 C   0  0  0  0  0  0  0  0  0  0  0  0
  183.7030  169.8160  136.2070 C   0  0  0  0  0  2  0  0  0  0  0  0
  185.7910  171.4870  135.1840 C   0  0  0  0  0  3  0  0  0  0  0  0
  185.8300  175.8520  136.0050 N   0  0  0  0  0  0  0  0  0  0  0  0
  184.7770  173.5420  136.2700 C   0  0  0  0  0  0  0  0  0  0  0  0
  182.4020  173.2940  137.0570 C   0  0  0  0  0  3  0  0  0  0  0  0
  183.4500  175.5050  136.7990 C   0  0  0  0  0  0  0  0  0  0  0  0
  184.5710  176.2700  136.4430 C   0  0  0  0  0  0  0  0  0  0  0  0
  182.5240  171.8340  136.8820 C   0  0  0  0  0  3  0  0  0  0  0  0
  184.3100  179.0690  139.8720 C   0  0  0  0  0  3  0  0  0  0  0  0
  183.6990  178.3670  140.9170 C   0  0  0  0  0  0  0  0  0  0  0  0
  182.9250  176.6960  139.3380 C   0  0  0  0  0  3  0  0  0  0  0  0
  184.2290  178.5850  138.5610 C   0  0  0  0  0  3  0  0  0  0  0  0
  183.5490  177.3870  138.2860 C   0  0  0  0  0  0  0  0  0  0  0  0
  183.0000  177.1820  140.6470 C   0  0  0  0  0  3  0  0  0  0  0  0
  185.1990  179.2330  142.6780 C   0  0  0  0  0  1  0  0  0  0  0  0
  183.7610  178.8990  142.3080 C   0  0  0  0  0  2  0  0  0  0  0  0
  186.9400  176.7490  135.7140 C   0  0  1  0  0  3  0  0  0  0  0  0
  186.5600  177.7610  134.6430 C   0  0  0  0  0  1  0  0  0  0  0  0
  186.8460  176.9330  138.0940 F   0  0  0  0  0  0  0  0  0  0  0  0
  187.5290  177.3930  136.9800 C   0  0  2  0  0  0  0  0  0  0  0  0
  187.3200  178.8970  136.8970 C   0  0  0  0  0  1  0  0  0  0  0  0
  189.0290  177.1350  137.1490 C   0  0  0  0  0  2  0  0  0  0  0  0
  189.7160  178.1500  138.0610 C   0  0  0  0  0  2  0  0  0  0  0  0
  190.4230  177.4850  139.2510 C   0  0  2  0  0  3  0  0  0  0  0  0
  191.0970  176.1520  138.9060 C   0  0  0  0  0  2  0  0  0  0  0  0
  192.2920  176.3860  138.2220 O   0  0  0  0  0  1  0  0  0  0  0  0
  189.6150  177.4800  140.4900 N   0  0  0  0  0  0  0  0  0  0  0  0
  188.5590  178.4830  140.4210 C   0  0  0  0  0  1  0  0  0  0  0  0
  190.3670  177.5650  141.7620 C   0  0  0  0  0  2  0  0  0  0  0  0
  189.5350  177.4660  143.0110 C   0  0  0  0  0  0  0  0  0  0  0  0
  189.1520  177.9950  145.3470 C   0  0  0  0  0  3  0  0  0  0  0  0
  187.5070  176.7130  144.1210 C   0  0  0  0  0  3  0  0  0  0  0  0
  187.9320  177.3100  145.3100 C   0  0  0  0  0  3  0  0  0  0  0  0
  188.3050  176.7960  142.9740 C   0  0  0  0  0  3  0  0  0  0  0  0
  189.9500  178.0770  144.1990 C   0  0  0  0  0  3  0  0  0  0  0  0
  1 21  1  1  0  0  0
  2  9  1  0  0  0  0
  3 14  1  0  0  0  0
  3 13  2  0  0  0  0
  4 11  1  0  0  0  0
  4 12  2  0  0  0  0
  5 16  2  0  0  0  0
  6 10  1  0  0  0  0
  6  2  2  0  0  0  0
  7  2  1  0  0  0  0
  8  5  1  0  0  0  0
  9  5  1  0  0  0  0
 10  8  2  0  0  0  0
 11 15  1  0  0  0  0
 12  8  1  0  0  0  0
 12  3  1  0  0  0  0
 14  1  1  0  0  0  0
 15 14  2  0  0  0  0
 15  1  1  0  0  0  0
 16 13  1  0  0  0  0
 17 18  1  0  0  0  0
 18 24  1  0  0  0  0
 19 22  1  0  0  0  0
 20 17  2  0  0  0  0
 21 20  1  0  0  0  0
 21 19  2  0  0  0  0
 22 18  2  0  0  0  0
 24 23  1  0  0  0  0
 25 26  1  6  0  0  0
 25 11  1  0  0  0  0
 25 28  1  0  0  0  0
 28 29  1  6  0  0  0
 28 30  1  0  0  0  0
 28 27  1  0  0  0  0
 30 31  1  0  0  0  0
 32 31  1  6  0  0  0
 32 35  1  0  0  0  0
 33 32  1  0  0  0  0
 34 33  1  0  0  0  0
 35 37  1  0  0  0  0
 36 35  1  0  0  0  0
 37 38  1  0  0  0  0
 38 43  1  0  0  0  0
 40 41  2  0  0  0  0
 41 39  1  0  0  0  0
 42 38  2  0  0  0  0
 42 40  1  0  0  0  0
 43 39  2  0  0  0  0
M  END
>  <MODEL>
9

>  <REMARK>
 VINA RESULT:      -6.9      3.420      6.775
  Name = 
  11 active torsions:
  status: ('A' for Active; 'I' for Inactive)
    1  A    between atoms: C_1  and  C_35
    2  A    between atoms: C_2  and  C_12
    3  A    between atoms: C_2  and  N_27
    4  A    between atoms: C_4  and  C_6
    5  A    between atoms: C_4  and  C_15
    6  A    between atoms: C_6  and  C_12
    7  A    between atoms: C_10  and  C_15
    8  A    between atoms: C_11  and  C_14
    9  A    between atoms: C_14  and  N_22
   10  A    between atoms: C_15  and  N_22
   11  A    between atoms: C_19  and  C_37
                            x       y       z     vdW  Elec       q    Type
                         _______ _______ _______ _____ _____    ______ ____

>  <TORSDO>
F 11

$$$$
