=
 OpenBabel10272401523D

 28 32  0  0  1  0  0  0  0  0999 V2000
  190.2950  176.3280  143.6780 C   0  0  0  0  0  0  0  0  0  0  0  0
  185.3230  177.7260  143.0770 C   0  0  0  0  0  3  0  0  0  0  0  0
  188.9420  177.8850  148.2050 C   0  0  0  0  0  1  0  0  0  0  0  0
  184.8970  178.9620  145.1230 C   0  0  0  0  0  0  0  0  0  0  0  0
  187.0770  177.7710  144.8790 C   0  0  0  0  0  0  0  0  0  0  0  0
  183.2240  178.8960  143.3730 C   0  0  0  0  0  0  0  0  0  0  0  0
  185.7500  178.1560  144.3430 C   0  0  0  0  0  0  0  0  0  0  0  0
  186.2860  178.5160  147.1510 C   0  0  0  0  0  2  0  0  0  0  0  0
  183.6450  179.3370  144.6300 C   0  0  0  0  0  3  0  0  0  0  0  0
  189.6150  177.1040  145.8980 C   0  0  0  0  0  0  0  0  0  0  0  0
  188.0470  177.2120  144.0440 C   0  0  0  0  0  3  0  0  0  0  0  0
  185.3690  179.5090  146.4370 C   0  0  0  0  0  2  0  0  0  0  0  0
  191.8480  176.2110  145.5380 C   0  0  0  0  0  3  0  0  0  0  0  0
  188.6400  177.6590  146.7530 C   0  0  0  0  0  0  0  0  0  0  0  0
  190.8870  176.7620  146.3850 C   0  0  0  0  0  3  0  0  0  0  0  0
  182.0060  179.2560  142.9010 F   0  0  0  0  0  0  0  0  0  0  0  0
  184.0640  178.0940  142.5950 C   0  0  0  0  0  3  0  0  0  0  0  0
  187.3730  178.0010  146.2390 C   0  0  0  0  0  0  0  0  0  0  0  0
  191.5530  175.9970  144.1910 C   0  0  0  0  0  3  0  0  0  0  0  0
  189.3160  176.8800  144.5310 C   0  0  0  0  0  0  0  0  0  0  0  0
  190.0340  176.1000  142.2140 C   0  0  0  0  0  2  0  0  0  0  0  0
  190.2700  177.3500  141.3590 C   0  0  2  0  0  3  0  0  0  0  0  0
  190.4090  177.7400  139.0410 N   0  0  0  0  0  0  0  0  0  0  0  0
  189.0580  177.9200  140.9580 O   0  0  0  0  0  0  0  0  0  0  0  0
  192.4850  177.5530  140.2780 C   0  0  0  0  0  1  0  0  0  0  0  0
  191.0670  177.0410  140.1190 C   0  0  1  0  0  3  0  0  0  0  0  0
  189.8320  176.7300  138.1700 C   0  0  0  0  0  1  0  0  0  0  0  0
  189.2980  178.4400  139.6750 C   0  0  0  0  0  2  0  0  0  0  0  0
  1 19  2  0  0  0  0
  1 20  1  0  0  0  0
  2  7  1  0  0  0  0
  4 12  1  0  0  0  0
  5 18  1  0  0  0  0
  6  9  2  0  0  0  0
  7  5  1  0  0  0  0
  7  4  2  0  0  0  0
  9  4  1  0  0  0  0
 10 15  1  0  0  0  0
 10 14  1  0  0  0  0
 11 20  1  0  0  0  0
 11  5  2  0  0  0  0
 12  8  1  0  0  0  0
 13 15  2  0  0  0  0
 14  3  1  0  0  0  0
 16  6  1  0  0  0  0
 17  2  2  0  0  0  0
 17  6  1  0  0  0  0
 18 14  2  0  0  0  0
 18  8  1  0  0  0  0
 19 13  1  0  0  0  0
 20 10  2  0  0  0  0
 21  1  1  0  0  0  0
 22 21  1  6  0  0  0
 23 28  1  0  0  0  0
 23 26  1  0  0  0  0
 24 22  1  0  0  0  0
 26 25  1  1  0  0  0
 26 22  1  0  0  0  0
 27 23  1  0  0  0  0
 28 24  1  0  0  0  0
M  END
>  <MODEL>
1

>  <REMARK>
 VINA RESULT:     -12.0      0.000      0.000
  Name = 
  2 active torsions:
  status: ('A' for Active; 'I' for Inactive)
    1  A    between atoms: C_1  and  C_2
    2  A    between atoms: C_2  and  C_3
                            x       y       z     vdW  Elec       q    Type
                         _______ _______ _______ _____ _____    ______ ____

>  <TORSDO>
F 2

$$$$
=
 OpenBabel10272401523D

 28 32  0  0  1  0  0  0  0  0999 V2000
  189.4780  177.2110  141.5240 C   0  0  0  0  0  0  0  0  0  0  0  0
  184.5250  178.0770  142.8450 C   0  0  0  0  0  3  0  0  0  0  0  0
  189.6000  177.4690  146.4900 C   0  0  0  0  0  1  0  0  0  0  0  0
  184.7320  178.7300  145.1750 C   0  0  0  0  0  0  0  0  0  0  0  0
  186.7640  177.9140  143.9780 C   0  0  0  0  0  0  0  0  0  0  0  0
  182.5860  178.8720  144.0590 C   0  0  0  0  0  0  0  0  0  0  0  0
  185.3200  178.2460  143.9890 C   0  0  0  0  0  0  0  0  0  0  0  0
  186.7220  177.9940  146.4940 C   0  0  0  0  0  2  0  0  0  0  0  0
  183.3730  179.0520  145.2000 C   0  0  0  0  0  3  0  0  0  0  0  0
  189.5220  177.3470  143.9680 C   0  0  0  0  0  0  0  0  0  0  0  0
  187.4350  177.6950  142.7720 C   0  0  0  0  0  3  0  0  0  0  0  0
  185.5800  179.0050  146.3800 C   0  0  0  0  0  2  0  0  0  0  0  0
  191.5540  176.8530  142.7270 C   0  0  0  0  0  3  0  0  0  0  0  0
  188.8540  177.5580  145.1920 C   0  0  0  0  0  0  0  0  0  0  0  0
  190.8970  177.0620  143.9390 C   0  0  0  0  0  3  0  0  0  0  0  0
  181.2670  179.1780  144.0900 F   0  0  0  0  0  0  0  0  0  0  0  0
  183.1630  178.3880  142.8810 C   0  0  0  0  0  3  0  0  0  0  0  0
  187.4750  177.8510  145.1940 C   0  0  0  0  0  0  0  0  0  0  0  0
  190.8480  176.9280  141.5260 C   0  0  0  0  0  3  0  0  0  0  0  0
  188.8060  177.4180  142.7470 C   0  0  0  0  0  0  0  0  0  0  0  0
  188.7670  177.3060  140.2010 C   0  0  0  0  0  2  0  0  0  0  0  0
  189.5820  178.0410  139.1310 C   0  0  2  0  0  3  0  0  0  0  0  0
  189.5960  178.0020  136.7760 N   0  0  0  0  0  0  0  0  0  0  0  0
  188.9140  179.1870  138.6900 O   0  0  0  0  0  0  0  0  0  0  0  0
  191.2930  176.7150  137.9350 C   0  0  0  0  0  1  0  0  0  0  0  0
  189.8470  177.1710  137.9310 C   0  0  1  0  0  3  0  0  0  0  0  0
  188.4120  177.4720  136.1220 C   0  0  0  0  0  1  0  0  0  0  0  0
  189.2330  179.3020  137.3260 C   0  0  0  0  0  2  0  0  0  0  0  0
  1 19  2  0  0  0  0
  1 20  1  0  0  0  0
  2 17  2  0  0  0  0
  2  7  1  0  0  0  0
  4  9  1  0  0  0  0
  4 12  1  0  0  0  0
  5  7  1  0  0  0  0
  5 18  1  0  0  0  0
  6 16  1  0  0  0  0
  6  9  2  0  0  0  0
  7  4  2  0  0  0  0
 10 14  1  0  0  0  0
 11  5  2  0  0  0  0
 12  8  1  0  0  0  0
 13 15  2  0  0  0  0
 14 18  2  0  0  0  0
 14  3  1  0  0  0  0
 15 10  1  0  0  0  0
 17  6  1  0  0  0  0
 18  8  1  0  0  0  0
 19 13  1  0  0  0  0
 20 11  1  0  0  0  0
 20 10  2  0  0  0  0
 21  1  1  0  0  0  0
 22 21  1  1  0  0  0
 23 28  1  0  0  0  0
 23 26  1  0  0  0  0
 24 22  1  0  0  0  0
 26 25  1  1  0  0  0
 26 22  1  0  0  0  0
 27 23  1  0  0  0  0
 28 24  1  0  0  0  0
M  END
>  <MODEL>
2

>  <REMARK>
 VINA RESULT:     -11.7      1.318      1.947
  Name = 
  2 active torsions:
  status: ('A' for Active; 'I' for Inactive)
    1  A    between atoms: C_1  and  C_2
    2  A    between atoms: C_2  and  C_3
                            x       y       z     vdW  Elec       q    Type
                         _______ _______ _______ _____ _____    ______ ____

>  <TORSDO>
F 2

$$$$
=
 OpenBabel10272401523D

 28 32  0  0  1  0  0  0  0  0999 V2000
  187.1070  178.2750  140.9670 C   0  0  0  0  0  0  0  0  0  0  0  0
  190.4840  177.3520  144.8110 C   0  0  0  0  0  3  0  0  0  0  0  0
  184.3840  178.8080  145.0970 C   0  0  0  0  0  1  0  0  0  0  0  0
  189.0110  177.0870  146.7230 C   0  0  0  0  0  0  0  0  0  0  0  0
  188.0270  177.8170  144.5490 C   0  0  0  0  0  0  0  0  0  0  0  0
  191.3840  176.6520  146.9470 C   0  0  0  0  0  0  0  0  0  0  0  0
  189.1950  177.4110  145.3640 C   0  0  0  0  0  0  0  0  0  0  0  0
  186.7420  178.1310  146.6910 C   0  0  0  0  0  2  0  0  0  0  0  0
  190.1030  176.6980  147.5030 C   0  0  0  0  0  3  0  0  0  0  0  0
  185.7790  178.5280  143.0090 C   0  0  0  0  0  0  0  0  0  0  0  0
  188.1170  177.8800  143.1560 C   0  0  0  0  0  3  0  0  0  0  0  0
  187.6320  177.0530  147.3100 C   0  0  0  0  0  2  0  0  0  0  0  0
  184.7750  178.9330  140.8310 C   0  0  0  0  0  3  0  0  0  0  0  0
  185.6780  178.4750  144.4150 C   0  0  0  0  0  0  0  0  0  0  0  0
  184.6720  178.8810  142.2210 C   0  0  0  0  0  3  0  0  0  0  0  0
  192.4400  176.2820  147.7090 F   0  0  0  0  0  0  0  0  0  0  0  0
  191.5740  176.9760  145.6010 C   0  0  0  0  0  3  0  0  0  0  0  0
  186.8020  178.1100  145.1830 C   0  0  0  0  0  0  0  0  0  0  0  0
  185.9870  178.6310  140.2090 C   0  0  0  0  0  3  0  0  0  0  0  0
  187.0100  178.2260  142.3740 C   0  0  0  0  0  0  0  0  0  0  0  0
  188.3830  177.9340  140.2470 C   0  0  0  0  0  2  0  0  0  0  0  0
  188.1820  177.6970  138.7460 C   0  0  2  0  0  3  0  0  0  0  0  0
  189.6330  177.1740  136.9670 N   0  0  0  0  0  0  0  0  0  0  0  0
  188.0290  176.3350  138.4690 O   0  0  0  0  0  0  0  0  0  0  0  0
  188.9570  179.4880  137.2260 C   0  0  0  0  0  1  0  0  0  0  0  0
  189.3450  178.2050  137.9360 C   0  0  1  0  0  3  0  0  0  0  0  0
  190.9250  176.6110  137.3190 C   0  0  0  0  0  1  0  0  0  0  0  0
  188.6360  176.1400  137.2160 C   0  0  0  0  0  2  0  0  0  0  0  0
  1 20  1  0  0  0  0
  2  7  2  0  0  0  0
  2 17  1  0  0  0  0
  4 12  1  0  0  0  0
  4  9  2  0  0  0  0
  5 18  1  0  0  0  0
  5  7  1  0  0  0  0
  6  9  1  0  0  0  0
  6 16  1  0  0  0  0
  7  4  1  0  0  0  0
  8 12  1  0  0  0  0
 10 14  1  0  0  0  0
 11  5  2  0  0  0  0
 13 15  2  0  0  0  0
 14  3  1  0  0  0  0
 14 18  2  0  0  0  0
 15 10  1  0  0  0  0
 17  6  2  0  0  0  0
 18  8  1  0  0  0  0
 19 13  1  0  0  0  0
 19  1  2  0  0  0  0
 20 10  2  0  0  0  0
 20 11  1  0  0  0  0
 21  1  1  0  0  0  0
 22 21  1  1  0  0  0
 23 28  1  0  0  0  0
 23 27  1  0  0  0  0
 23 26  1  0  0  0  0
 24 22  1  0  0  0  0
 26 25  1  6  0  0  0
 26 22  1  0  0  0  0
 28 24  1  0  0  0  0
M  END
>  <MODEL>
3

>  <REMARK>
 VINA RESULT:     -11.0      2.776      5.392
  Name = 
  2 active torsions:
  status: ('A' for Active; 'I' for Inactive)
    1  A    between atoms: C_1  and  C_2
    2  A    between atoms: C_2  and  C_3
                            x       y       z     vdW  Elec       q    Type
                         _______ _______ _______ _____ _____    ______ ____

>  <TORSDO>
F 2

$$$$
=
 OpenBabel10272401523D

 28 32  0  0  1  0  0  0  0  0999 V2000
  188.7560  176.9400  143.4410 C   0  0  0  0  0  0  0  0  0  0  0  0
  184.0680  177.6030  141.2940 C   0  0  0  0  0  3  0  0  0  0  0  0
  185.9970  178.7760  147.1510 C   0  0  0  0  0  1  0  0  0  0  0  0
  182.9460  178.9810  142.9480 C   0  0  0  0  0  0  0  0  0  0  0  0
  185.2050  178.0680  143.4870 C   0  0  0  0  0  0  0  0  0  0  0  0
  181.8720  178.5120  140.8280 C   0  0  0  0  0  0  0  0  0  0  0  0
  184.0630  178.2170  142.5560 C   0  0  0  0  0  0  0  0  0  0  0  0
  183.7180  178.9380  145.3240 C   0  0  0  0  0  2  0  0  0  0  0  0
  181.8630  179.1350  142.0790 C   0  0  0  0  0  3  0  0  0  0  0  0
  187.3870  177.8510  145.2540 C   0  0  0  0  0  0  0  0  0  0  0  0
  186.4260  177.5560  143.0410 C   0  0  0  0  0  3  0  0  0  0  0  0
  182.9590  179.7210  144.2520 C   0  0  0  0  0  2  0  0  0  0  0  0
  189.7020  177.2260  145.6560 C   0  0  0  0  0  3  0  0  0  0  0  0
  186.1560  178.3600  145.7190 C   0  0  0  0  0  0  0  0  0  0  0  0
  188.4870  177.7320  146.1180 C   0  0  0  0  0  3  0  0  0  0  0  0
  180.8170  178.6570  139.9920 F   0  0  0  0  0  0  0  0  0  0  0  0
  182.9750  177.7490  140.4340 C   0  0  0  0  0  3  0  0  0  0  0  0
  185.0680  178.4770  144.8300 C   0  0  0  0  0  0  0  0  0  0  0  0
  189.8340  176.8330  144.3240 C   0  0  0  0  0  3  0  0  0  0  0  0
  187.5220  177.4460  143.9030 C   0  0  0  0  0  0  0  0  0  0  0  0
  188.9580  176.5270  142.0080 C   0  0  0  0  0  2  0  0  0  0  0  0
  189.5390  177.6440  141.1350 C   0  0  2  0  0  3  0  0  0  0  0  0
  190.2910  177.7520  138.9060 N   0  0  0  0  0  0  0  0  0  0  0  0
  188.5370  178.2690  140.3860 O   0  0  0  0  0  0  0  0  0  0  0  0
  191.9610  177.5260  140.6480 C   0  0  0  0  0  1  0  0  0  0  0  0
  190.5770  177.1260  140.1750 C   0  0  1  0  0  3  0  0  0  0  0  0
  189.8360  176.7020  138.0100 C   0  0  0  0  0  1  0  0  0  0  0  0
  189.1450  178.6150  139.1670 C   0  0  0  0  0  2  0  0  0  0  0  0
  1 20  2  0  0  0  0
  1 19  1  0  0  0  0
  2  7  1  0  0  0  0
  4 12  1  0  0  0  0
  5 18  1  0  0  0  0
  6  9  2  0  0  0  0
  7  4  2  0  0  0  0
  7  5  1  0  0  0  0
  9  4  1  0  0  0  0
 10 14  1  0  0  0  0
 10 15  2  0  0  0  0
 11  5  2  0  0  0  0
 11 20  1  0  0  0  0
 12  8  1  0  0  0  0
 13 15  1  0  0  0  0
 14  3  1  0  0  0  0
 16  6  1  0  0  0  0
 17  6  1  0  0  0  0
 17  2  2  0  0  0  0
 18  8  1  0  0  0  0
 18 14  2  0  0  0  0
 19 13  2  0  0  0  0
 20 10  1  0  0  0  0
 21  1  1  0  0  0  0
 22 21  1  6  0  0  0
 23 28  1  0  0  0  0
 23 26  1  0  0  0  0
 24 22  1  0  0  0  0
 26 25  1  1  0  0  0
 26 22  1  0  0  0  0
 27 23  1  0  0  0  0
 28 24  1  0  0  0  0
M  END
>  <MODEL>
4

>  <REMARK>
 VINA RESULT:     -10.9      1.219      2.253
  Name = 
  2 active torsions:
  status: ('A' for Active; 'I' for Inactive)
    1  A    between atoms: C_1  and  C_2
    2  A    between atoms: C_2  and  C_3
                            x       y       z     vdW  Elec       q    Type
                         _______ _______ _______ _____ _____    ______ ____

>  <TORSDO>
F 2

$$$$
=
 OpenBabel10272401523D

 28 32  0  0  1  0  0  0  0  0999 V2000
  184.6620  178.8340  143.9620 C   0  0  0  0  0  0  0  0  0  0  0  0
  188.2730  178.2720  140.2650 C   0  0  0  0  0  3  0  0  0  0  0  0
  188.6020  177.0380  146.4110 C   0  0  0  0  0  1  0  0  0  0  0  0
  189.9380  176.9090  141.3900 C   0  0  0  0  0  0  0  0  0  0  0  0
  188.0100  177.7760  142.7160 C   0  0  0  0  0  0  0  0  0  0  0  0
  190.1690  177.4080  139.0310 C   0  0  0  0  0  0  0  0  0  0  0  0
  188.7420  177.6530  141.4340 C   0  0  0  0  0  0  0  0  0  0  0  0
  190.0730  176.9280  143.8840 C   0  0  0  0  0  2  0  0  0  0  0  0
  190.6380  176.7810  140.1880 C   0  0  0  0  0  3  0  0  0  0  0  0
  186.6070  177.9430  145.1520 C   0  0  0  0  0  0  0  0  0  0  0  0
  186.7010  178.2650  142.7440 C   0  0  0  0  0  3  0  0  0  0  0  0
  190.4080  176.1640  142.6030 C   0  0  0  0  0  2  0  0  0  0  0  0
  184.5810  178.5200  146.3670 C   0  0  0  0  0  3  0  0  0  0  0  0
  187.9310  177.4560  145.1370 C   0  0  0  0  0  0  0  0  0  0  0  0
  185.8900  178.0360  146.3550 C   0  0  0  0  0  3  0  0  0  0  0  0
  190.8540  177.2870  137.8690 F   0  0  0  0  0  0  0  0  0  0  0  0
  188.9850  178.1510  139.0680 C   0  0  0  0  0  3  0  0  0  0  0  0
  188.6280  177.3640  143.9140 C   0  0  0  0  0  0  0  0  0  0  0  0
  183.9720  178.9160  145.1760 C   0  0  0  0  0  3  0  0  0  0  0  0
  185.9870  178.3500  143.9440 C   0  0  0  0  0  0  0  0  0  0  0  0
  183.9500  179.2480  142.7030 C   0  0  0  0  0  2  0  0  0  0  0  0
  182.7340  178.3730  142.3820 C   0  0  2  0  0  3  0  0  0  0  0  0
  180.6880  178.7600  141.2830 N   0  0  0  0  0  0  0  0  0  0  0  0
  182.8360  177.8210  141.1020 O   0  0  0  0  0  0  0  0  0  0  0  0
  180.6870  178.7890  143.7070 C   0  0  0  0  0  1  0  0  0  0  0  0
  181.4480  179.1530  142.4460 C   0  0  1  0  0  3  0  0  0  0  0  0
  180.6220  179.9200  140.4090 C   0  0  0  0  0  1  0  0  0  0  0  0
  181.5200  177.7690  140.6130 C   0  0  0  0  0  2  0  0  0  0  0  0
  1 19  1  0  0  0  0
  2  7  1  0  0  0  0
  4  7  2  0  0  0  0
  4 12  1  0  0  0  0
  5 11  2  0  0  0  0
  5 18  1  0  0  0  0
  6 17  1  0  0  0  0
  6  9  2  0  0  0  0
  7  5  1  0  0  0  0
  8 18  1  0  0  0  0
  9  4  1  0  0  0  0
 10 15  2  0  0  0  0
 11 20  1  0  0  0  0
 12  8  1  0  0  0  0
 14 10  1  0  0  0  0
 14  3  1  0  0  0  0
 15 13  1  0  0  0  0
 16  6  1  0  0  0  0
 17  2  2  0  0  0  0
 18 14  2  0  0  0  0
 19 13  2  0  0  0  0
 20  1  2  0  0  0  0
 20 10  1  0  0  0  0
 21  1  1  0  0  0  0
 22 26  1  0  0  0  0
 22 21  1  6  0  0  0
 23 26  1  0  0  0  0
 24 22  1  0  0  0  0
 26 25  1  1  0  0  0
 27 23  1  0  0  0  0
 28 24  1  0  0  0  0
 28 23  1  0  0  0  0
M  END
>  <MODEL>
5

>  <REMARK>
 VINA RESULT:     -10.9      3.303      6.935
  Name = 
  2 active torsions:
  status: ('A' for Active; 'I' for Inactive)
    1  A    between atoms: C_1  and  C_2
    2  A    between atoms: C_2  and  C_3
                            x       y       z     vdW  Elec       q    Type
                         _______ _______ _______ _____ _____    ______ ____

>  <TORSDO>
F 2

$$$$
=
 OpenBabel10272401523D

 28 32  0  0  1  0  0  0  0  0999 V2000
  189.6030  177.9350  141.0380 C   0  0  0  0  0  0  0  0  0  0  0  0
  184.6050  178.4860  142.3580 C   0  0  0  0  0  3  0  0  0  0  0  0
  189.5460  176.9580  145.9150 C   0  0  0  0  0  1  0  0  0  0  0  0
  184.7270  178.5410  144.7830 C   0  0  0  0  0  0  0  0  0  0  0  0
  186.8020  178.0310  143.4930 C   0  0  0  0  0  0  0  0  0  0  0  0
  182.6230  178.9710  143.6620 C   0  0  0  0  0  0  0  0  0  0  0  0
  185.3580  178.3600  143.5360 C   0  0  0  0  0  0  0  0  0  0  0  0
  186.6690  177.4870  145.9480 C   0  0  0  0  0  2  0  0  0  0  0  0
  183.3670  178.8570  144.8390 C   0  0  0  0  0  3  0  0  0  0  0  0
  189.5590  177.4640  143.4400 C   0  0  0  0  0  0  0  0  0  0  0  0
  187.5160  178.1120  142.2950 C   0  0  0  0  0  3  0  0  0  0  0  0
  185.5310  178.5030  146.0470 C   0  0  0  0  0  2  0  0  0  0  0  0
  191.6350  177.2760  142.1870 C   0  0  0  0  0  3  0  0  0  0  0  0
  188.8470  177.3700  144.6540 C   0  0  0  0  0  0  0  0  0  0  0  0
  190.9340  177.1840  143.3900 C   0  0  0  0  0  3  0  0  0  0  0  0
  181.3030  179.2690  143.7220 F   0  0  0  0  0  0  0  0  0  0  0  0
  183.2410  178.7880  142.4220 C   0  0  0  0  0  3  0  0  0  0  0  0
  187.4690  177.6640  144.6800 C   0  0  0  0  0  0  0  0  0  0  0  0
  190.9720  177.6500  141.0190 C   0  0  0  0  0  3  0  0  0  0  0  0
  188.8870  177.8390  142.2500 C   0  0  0  0  0  0  0  0  0  0  0  0
  188.9400  178.3600  139.7550 C   0  0  0  0  0  2  0  0  0  0  0  0
  188.4480  177.1780  138.9130 C   0  0  2  0  0  3  0  0  0  0  0  0
  188.3260  176.7620  136.5980 N   0  0  0  0  0  0  0  0  0  0  0  0
  189.5020  176.3200  138.5870 O   0  0  0  0  0  0  0  0  0  0  0  0
  186.3020  177.4820  137.7210 C   0  0  0  0  0  1  0  0  0  0  0  0
  187.8080  177.6320  137.6280 C   0  0  1  0  0  3  0  0  0  0  0  0
  189.1710  177.5770  135.7400 C   0  0  0  0  0  1  0  0  0  0  0  0
  189.2030  175.8340  137.3020 C   0  0  0  0  0  2  0  0  0  0  0  0
  1 20  1  0  0  0  0
  2 17  2  0  0  0  0
  2  7  1  0  0  0  0
  4  9  1  0  0  0  0
  4 12  1  0  0  0  0
  5  7  1  0  0  0  0
  5 18  1  0  0  0  0
  6 16  1  0  0  0  0
  6  9  2  0  0  0  0
  7  4  2  0  0  0  0
  8 12  1  0  0  0  0
 10 14  1  0  0  0  0
 11  5  2  0  0  0  0
 13 15  2  0  0  0  0
 14 18  2  0  0  0  0
 14  3  1  0  0  0  0
 15 10  1  0  0  0  0
 17  6  1  0  0  0  0
 18  8  1  0  0  0  0
 19  1  2  0  0  0  0
 19 13  1  0  0  0  0
 20 11  1  0  0  0  0
 20 10  2  0  0  0  0
 21  1  1  0  0  0  0
 22 21  1  6  0  0  0
 23 28  1  0  0  0  0
 23 26  1  0  0  0  0
 24 22  1  0  0  0  0
 26 25  1  1  0  0  0
 26 22  1  0  0  0  0
 27 23  1  0  0  0  0
 28 24  1  0  0  0  0
M  END
>  <MODEL>
6

>  <REMARK>
 VINA RESULT:     -10.7      1.613      2.735
  Name = 
  2 active torsions:
  status: ('A' for Active; 'I' for Inactive)
    1  A    between atoms: C_1  and  C_2
    2  A    between atoms: C_2  and  C_3
                            x       y       z     vdW  Elec       q    Type
                         _______ _______ _______ _____ _____    ______ ____

>  <TORSDO>
F 2

$$$$
=
 OpenBabel10272401523D

 28 32  0  0  1  0  0  0  0  0999 V2000
  183.9670  178.5170  142.3220 C   0  0  0  0  0  0  0  0  0  0  0  0
  189.0940  177.6860  142.0990 C   0  0  0  0  0  3  0  0  0  0  0  0
  185.3780  178.4950  147.0930 C   0  0  0  0  0  1  0  0  0  0  0  0
  189.6180  177.1460  144.4070 C   0  0  0  0  0  0  0  0  0  0  0  0
  187.3090  177.9150  143.8550 C   0  0  0  0  0  0  0  0  0  0  0  0
  191.3190  176.9380  142.6950 C   0  0  0  0  0  0  0  0  0  0  0  0
  188.6900  177.5760  143.4380 C   0  0  0  0  0  0  0  0  0  0  0  0
  188.1230  177.9550  146.2380 C   0  0  0  0  0  2  0  0  0  0  0  0
  190.9230  176.8180  144.0290 C   0  0  0  0  0  3  0  0  0  0  0  0
  184.6760  178.4970  144.6650 C   0  0  0  0  0  0  0  0  0  0  0  0
  186.2990  178.0810  142.9040 C   0  0  0  0  0  3  0  0  0  0  0  0
  189.1830  176.9330  145.8260 C   0  0  0  0  0  2  0  0  0  0  0  0
  182.3570  178.9430  144.0860 C   0  0  0  0  0  3  0  0  0  0  0  0
  185.6900  178.3410  145.6340 C   0  0  0  0  0  0  0  0  0  0  0  0
  183.3570  178.7880  145.0470 C   0  0  0  0  0  3  0  0  0  0  0  0
  192.5870  176.6270  142.3340 F   0  0  0  0  0  0  0  0  0  0  0  0
  190.4050  177.3690  141.7300 C   0  0  0  0  0  3  0  0  0  0  0  0
  187.0060  178.0400  145.2260 C   0  0  0  0  0  0  0  0  0  0  0  0
  182.6620  178.8070  142.7320 C   0  0  0  0  0  3  0  0  0  0  0  0
  184.9840  178.3640  143.2880 C   0  0  0  0  0  0  0  0  0  0  0  0
  184.2380  178.3550  140.8510 C   0  0  0  0  0  2  0  0  0  0  0  0
  183.0020  177.9230  140.0550 C   0  0  2  0  0  3  0  0  0  0  0  0
  182.5900  177.5180  137.7720 N   0  0  0  0  0  0  0  0  0  0  0  0
  182.9810  176.5370  139.8740 O   0  0  0  0  0  0  0  0  0  0  0  0
  181.9070  179.6600  138.6770 C   0  0  0  0  0  1  0  0  0  0  0  0
  182.9570  178.5660  138.6940 C   0  0  1  0  0  3  0  0  0  0  0  0
  183.7490  177.2690  136.9310 C   0  0  0  0  0  1  0  0  0  0  0  0
  182.4090  176.3360  138.6060 C   0  0  0  0  0  2  0  0  0  0  0  0
  1 19  2  0  0  0  0
  1 20  1  0  0  0  0
  2  7  1  0  0  0  0
  4 12  1  0  0  0  0
  5 18  1  0  0  0  0
  6  9  2  0  0  0  0
  7  5  1  0  0  0  0
  7  4  2  0  0  0  0
  9  4  1  0  0  0  0
 10 15  1  0  0  0  0
 10 14  1  0  0  0  0
 11 20  1  0  0  0  0
 11  5  2  0  0  0  0
 12  8  1  0  0  0  0
 13 15  2  0  0  0  0
 14  3  1  0  0  0  0
 16  6  1  0  0  0  0
 17  2  2  0  0  0  0
 17  6  1  0  0  0  0
 18 14  2  0  0  0  0
 18  8  1  0  0  0  0
 19 13  1  0  0  0  0
 20 10  2  0  0  0  0
 21  1  1  0  0  0  0
 22 21  1  6  0  0  0
 23 28  1  0  0  0  0
 23 26  1  0  0  0  0
 24 22  1  0  0  0  0
 26 25  1  1  0  0  0
 26 22  1  0  0  0  0
 27 23  1  0  0  0  0
 28 24  1  0  0  0  0
M  END
>  <MODEL>
7

>  <REMARK>
 VINA RESULT:     -10.6      3.495      6.619
  Name = 
  2 active torsions:
  status: ('A' for Active; 'I' for Inactive)
    1  A    between atoms: C_1  and  C_2
    2  A    between atoms: C_2  and  C_3
                            x       y       z     vdW  Elec       q    Type
                         _______ _______ _______ _____ _____    ______ ____

>  <TORSDO>
F 2

$$$$
=
 OpenBabel10272401523D

 28 32  0  0  1  0  0  0  0  0999 V2000
  187.0470  178.3500  140.1230 C   0  0  0  0  0  0  0  0  0  0  0  0
  187.1630  177.6260  145.2700 C   0  0  0  0  0  3  0  0  0  0  0  0
  191.7880  177.1630  141.0510 C   0  0  0  0  0  1  0  0  0  0  0  0
  189.5490  177.5970  145.7210 C   0  0  0  0  0  0  0  0  0  0  0  0
  188.7820  177.6590  143.3470 C   0  0  0  0  0  0  0  0  0  0  0  0
  187.9650  177.5620  147.5540 C   0  0  0  0  0  0  0  0  0  0  0  0
  188.4840  177.6310  144.7980 C   0  0  0  0  0  0  0  0  0  0  0  0
  191.1450  176.9850  143.9000 C   0  0  0  0  0  2  0  0  0  0  0  0
  189.2840  177.5750  147.0930 C   0  0  0  0  0  3  0  0  0  0  0  0
  189.3780  177.7710  140.5970 C   0  0  0  0  0  0  0  0  0  0  0  0
  187.7820  177.9630  142.4200 C   0  0  0  0  0  3  0  0  0  0  0  0
  190.9660  177.6940  145.2420 C   0  0  0  0  0  2  0  0  0  0  0  0
  188.6440  178.1430  138.3090 C   0  0  0  0  0  3  0  0  0  0  0  0
  190.3940  177.4530  141.5230 C   0  0  0  0  0  0  0  0  0  0  0  0
  189.6520  177.8310  139.2220 C   0  0  0  0  0  3  0  0  0  0  0  0
  187.7130  177.5320  148.8850 F   0  0  0  0  0  0  0  0  0  0  0  0
  186.9050  177.5900  146.6440 C   0  0  0  0  0  3  0  0  0  0  0  0
  190.0960  177.4070  142.9000 C   0  0  0  0  0  0  0  0  0  0  0  0
  187.3490  178.4020  138.7590 C   0  0  0  0  0  3  0  0  0  0  0  0
  188.0600  178.0290  141.0510 C   0  0  0  0  0  0  0  0  0  0  0  0
  185.6410  178.6620  140.5590 C   0  0  0  0  0  2  0  0  0  0  0  0
  184.6710  178.8340  139.3860 C   0  0  2  0  0  3  0  0  0  0  0  0
  182.3230  178.8790  139.2000 N   0  0  0  0  0  0  0  0  0  0  0  0
  184.2890  180.1710  139.2410 O   0  0  0  0  0  0  0  0  0  0  0  0
  183.4580  176.8100  138.6430 C   0  0  0  0  0  1  0  0  0  0  0  0
  183.4210  178.0140  139.5650 C   0  0  1  0  0  3  0  0  0  0  0  0
  181.5750  179.1500  140.4170 C   0  0  0  0  0  1  0  0  0  0  0  0
  182.9540  180.1310  138.8020 C   0  0  0  0  0  2  0  0  0  0  0  0
  1 21  1  0  0  0  0
  1 20  1  0  0  0  0
  2 17  1  0  0  0  0
  3 14  1  0  0  0  0
  4  9  2  0  0  0  0
  5  7  1  0  0  0  0
  6 16  1  0  0  0  0
  7  2  2  0  0  0  0
  7  4  1  0  0  0  0
  8 12  1  0  0  0  0
  9  6  1  0  0  0  0
 10 20  2  0  0  0  0
 10 14  1  0  0  0  0
 11  5  2  0  0  0  0
 12  4  1  0  0  0  0
 13 19  1  0  0  0  0
 13 15  2  0  0  0  0
 14 18  2  0  0  0  0
 15 10  1  0  0  0  0
 17  6  2  0  0  0  0
 18  5  1  0  0  0  0
 18  8  1  0  0  0  0
 19  1  2  0  0  0  0
 20 11  1  0  0  0  0
 22 26  1  0  0  0  0
 22 21  1  1  0  0  0
 23 26  1  0  0  0  0
 23 27  1  0  0  0  0
 24 22  1  0  0  0  0
 26 25  1  6  0  0  0
 28 23  1  0  0  0  0
 28 24  1  0  0  0  0
M  END
>  <MODEL>
8

>  <REMARK>
 VINA RESULT:     -10.2      3.151      6.222
  Name = 
  2 active torsions:
  status: ('A' for Active; 'I' for Inactive)
    1  A    between atoms: C_1  and  C_2
    2  A    between atoms: C_2  and  C_3
                            x       y       z     vdW  Elec       q    Type
                         _______ _______ _______ _____ _____    ______ ____

>  <TORSDO>
F 2

$$$$
=
 OpenBabel10272401523D

 28 32  0  0  1  0  0  0  0  0999 V2000
  184.2700  178.2590  143.0160 C   0  0  0  0  0  0  0  0  0  0  0  0
  189.2760  176.8580  142.9590 C   0  0  0  0  0  3  0  0  0  0  0  0
  185.7980  179.1120  147.6730 C   0  0  0  0  0  1  0  0  0  0  0  0
  189.8030  176.7740  145.3280 C   0  0  0  0  0  0  0  0  0  0  0  0
  187.5720  177.6480  144.6310 C   0  0  0  0  0  0  0  0  0  0  0  0
  191.4280  176.0240  143.6940 C   0  0  0  0  0  0  0  0  0  0  0  0
  188.8990  177.0820  144.2920 C   0  0  0  0  0  0  0  0  0  0  0  0
  188.4490  178.1120  146.9450 C   0  0  0  0  0  2  0  0  0  0  0  0
  191.0560  176.2350  145.0250 C   0  0  0  0  0  3  0  0  0  0  0  0
  185.0360  178.6670  145.3060 C   0  0  0  0  0  0  0  0  0  0  0  0
  186.5590  177.7120  143.6700 C   0  0  0  0  0  3  0  0  0  0  0  0
  189.3870  176.9180  146.7610 C   0  0  0  0  0  2  0  0  0  0  0  0
  182.7600  179.2230  144.6520 C   0  0  0  0  0  3  0  0  0  0  0  0
  186.0540  178.6160  146.2810 C   0  0  0  0  0  0  0  0  0  0  0  0
  183.7640  179.1720  145.6200 C   0  0  0  0  0  3  0  0  0  0  0  0
  192.6460  175.5090  143.4050 F   0  0  0  0  0  0  0  0  0  0  0  0
  190.5370  176.3320  142.6620 C   0  0  0  0  0  3  0  0  0  0  0  0
  187.3200  178.0970  145.9430 C   0  0  0  0  0  0  0  0  0  0  0  0
  183.0130  178.7670  143.3580 C   0  0  0  0  0  3  0  0  0  0  0  0
  185.2910  178.2100  143.9890 C   0  0  0  0  0  0  0  0  0  0  0  0
  184.4840  177.7570  141.6140 C   0  0  0  0  0  2  0  0  0  0  0  0
  185.0760  178.8160  140.6790 C   0  0  2  0  0  3  0  0  0  0  0  0
  185.6840  178.8310  138.4040 N   0  0  0  0  0  0  0  0  0  0  0  0
  184.0690  179.4900  139.9820 O   0  0  0  0  0  0  0  0  0  0  0  0
  187.4480  178.5310  140.0400 C   0  0  0  0  0  1  0  0  0  0  0  0
  186.0130  178.2130  139.6670 C   0  0  1  0  0  3  0  0  0  0  0  0
  185.1050  177.7950  137.5640 C   0  0  0  0  0  1  0  0  0  0  0  0
  184.6160  179.7710  138.7180 C   0  0  0  0  0  2  0  0  0  0  0  0
  1 19  2  0  0  0  0
  1 20  1  0  0  0  0
  2  7  1  0  0  0  0
  4 12  1  0  0  0  0
  5 18  1  0  0  0  0
  6  9  2  0  0  0  0
  7  5  1  0  0  0  0
  7  4  2  0  0  0  0
  9  4  1  0  0  0  0
 10 15  1  0  0  0  0
 10 14  1  0  0  0  0
 11 20  1  0  0  0  0
 11  5  2  0  0  0  0
 12  8  1  0  0  0  0
 13 15  2  0  0  0  0
 14  3  1  0  0  0  0
 16  6  1  0  0  0  0
 17  2  2  0  0  0  0
 17  6  1  0  0  0  0
 18 14  2  0  0  0  0
 18  8  1  0  0  0  0
 19 13  1  0  0  0  0
 20 10  2  0  0  0  0
 21  1  1  0  0  0  0
 22 21  1  6  0  0  0
 23 28  1  0  0  0  0
 23 26  1  0  0  0  0
 24 22  1  0  0  0  0
 26 25  1  1  0  0  0
 26 22  1  0  0  0  0
 27 23  1  0  0  0  0
 28 24  1  0  0  0  0
M  END
>  <MODEL>
9

>  <REMARK>
 VINA RESULT:      -9.8      3.003      5.827
  Name = 
  2 active torsions:
  status: ('A' for Active; 'I' for Inactive)
    1  A    between atoms: C_1  and  C_2
    2  A    between atoms: C_2  and  C_3
                            x       y       z     vdW  Elec       q    Type
                         _______ _______ _______ _____ _____    ______ ____

>  <TORSDO>
F 2

$$$$
