=
 OpenBabel10272413263D

 32 38  0  0  1  0  0  0  0  0999 V2000
  186.1230  178.1910  146.9530 C   0  0  0  0  0  3  0  0  0  0  0  0
  185.6730  178.5950  141.8850 C   0  0  0  0  0  0  0  0  0  0  0  0
  187.1490  178.3280  139.9720 C   0  0  0  0  0  0  0  0  0  0  0  0
  188.1520  177.8530  140.8470 C   0  0  0  0  0  0  0  0  0  0  0  0
  186.5240  178.1480  144.1780 C   0  0  0  0  0  0  0  0  0  0  0  0
  184.5190  179.6270  143.8300 C   0  0  0  0  0  2  0  0  0  0  0  0
  188.6800  178.0320  138.1040 C   0  0  0  0  0  0  0  0  0  0  0  0
  185.2330  178.8610  146.1080 C   0  0  0  0  0  3  0  0  0  0  0  0
  184.4360  179.0180  142.4980 N   0  0  0  0  0  0  0  0  0  0  0  0
  183.1520  178.4000  142.1330 C   0  0  2  0  0  3  0  0  0  0  0  0
  184.8520  179.2190  139.5860 C   0  0  0  0  0  3  0  0  0  0  0  0
  189.6630  177.5620  138.9770 C   0  0  0  0  0  3  0  0  0  0  0  0
  185.4220  178.8300  144.7250 C   0  0  0  0  0  0  0  0  0  0  0  0
  189.3990  177.4730  140.3450 C   0  0  0  0  0  3  0  0  0  0  0  0
  187.4170  177.4820  145.0300 C   0  0  0  0  0  3  0  0  0  0  0  0
  187.2130  177.4980  146.4150 C   0  0  0  0  0  0  0  0  0  0  0  0
  183.0300  178.0880  140.7080 N   0  0  0  0  0  0  0  0  0  0  0  0
  183.5550  178.9430  139.6870 C   0  0  0  0  0  3  0  0  0  0  0  0
  186.7220  178.1550  142.7160 C   0  0  0  0  0  0  0  0  0  0  0  0
  187.9140  177.7830  142.1800 N   0  0  0  0  0  0  0  0  0  0  0  0
  188.9450  178.1230  136.7440 O   0  0  0  0  0  1  0  0  0  0  0  0
  185.8890  178.6900  140.4940 C   0  0  0  0  0  0  0  0  0  0  0  0
  187.4290  178.4130  138.5970 C   0  0  0  0  0  3  0  0  0  0  0  0
  181.4390  178.4440  143.5000 O   0  0  0  0  0  1  0  0  0  0  0  0
  182.0520  179.1630  142.5780 O   0  0  0  0  0  0  0  0  0  0  0  0
  182.6940  176.0840  139.5550 O   0  0  0  0  0  1  0  0  0  0  0  0
  182.0680  177.0680  140.3230 C   0  0  0  0  0  2  0  0  0  0  0  0
  188.1660  176.8000  147.3230 C   0  0  0  0  0  2  0  0  0  0  0  0
  190.2190  177.8560  146.3770 C   0  0  1  0  0  3  0  0  0  0  0  0
  189.3700  177.6840  147.6240 C   0  0  2  0  0  3  0  0  0  0  0  0
  190.6700  176.9130  147.4700 C   0  0  1  0  0  3  0  0  0  0  0  0
  190.8790  176.5380  146.0160 C   0  0  0  0  0  2  0  0  0  0  0  0
  2  9  1  0  0  0  0
  2 19  1  0  0  0  0
  3 22  1  0  0  0  0
  3  4  1  0  0  0  0
  4 20  1  0  0  0  0
  5 13  2  0  0  0  0
  5 15  1  0  0  0  0
  6 13  1  0  0  0  0
  7 23  1  0  0  0  0
  7 12  2  0  0  0  0
  8  1  2  0  0  0  0
  9  6  1  0  0  0  0
 10  9  1  0  0  0  0
 10 25  1  6  0  0  0
 11 18  2  0  0  0  0
 11 22  1  0  0  0  0
 12 14  1  0  0  0  0
 13  8  1  0  0  0  0
 14  4  2  0  0  0  0
 15 16  2  0  0  0  0
 16  1  1  0  0  0  0
 16 28  1  0  0  0  0
 17 10  1  0  0  0  0
 18 17  1  0  0  0  0
 19  5  1  0  0  0  0
 20 19  2  0  0  0  0
 21  7  1  0  0  0  0
 22  2  2  0  0  0  0
 23  3  2  0  0  0  0
 25 24  1  0  0  0  0
 26 27  1  0  0  0  0
 27 17  1  0  0  0  0
 29 32  1  6  0  0  0
 29 31  1  0  0  0  0
 29 30  1  0  0  0  0
 30 28  1  6  0  0  0
 31 32  1  6  0  0  0
 31 30  1  0  0  0  0
M  END
>  <MODEL>
1

>  <REMARK>
 VINA RESULT:      -9.5      0.000      0.000
  Name = 
  4 active torsions:
  status: ('A' for Active; 'I' for Inactive)
    1  A    between atoms: C_10  and  C_19
    2  A    between atoms: O_13  and  C_15
    3  A    between atoms: C_19  and  C_24
    4  A    between atoms: C_25  and  N_26
                            x       y       z     vdW  Elec       q    Type
                         _______ _______ _______ _____ _____    ______ ____

>  <TORSDO>
F 4

$$$$
=
 OpenBabel10272413263D

 32 38  0  0  1  0  0  0  0  0999 V2000
  184.1380  178.7950  145.6860 C   0  0  0  0  0  3  0  0  0  0  0  0
  184.7770  178.3810  140.6400 C   0  0  0  0  0  0  0  0  0  0  0  0
  186.6690  178.3530  139.1130 C   0  0  0  0  0  0  0  0  0  0  0  0
  187.5340  178.3370  140.2300 C   0  0  0  0  0  0  0  0  0  0  0  0
  185.1650  178.5250  143.0920 C   0  0  0  0  0  0  0  0  0  0  0  0
  182.9610  179.2340  142.1070 C   0  0  0  0  0  2  0  0  0  0  0  0
  188.6100  178.3200  137.6460 C   0  0  0  0  0  0  0  0  0  0  0  0
  183.3150  179.0330  144.5810 C   0  0  0  0  0  3  0  0  0  0  0  0
  183.3650  178.4650  140.9250 N   0  0  0  0  0  0  0  0  0  0  0  0
  182.4280  177.4290  140.4600 C   0  0  2  0  0  3  0  0  0  0  0  0
  184.3680  178.4110  138.1530 C   0  0  0  0  0  3  0  0  0  0  0  0
  189.4560  178.3030  138.7570 C   0  0  0  0  0  3  0  0  0  0  0  0
  183.8200  178.8870  143.2880 C   0  0  0  0  0  0  0  0  0  0  0  0
  188.9190  178.3110  140.0460 C   0  0  0  0  0  3  0  0  0  0  0  0
  185.9880  178.2920  144.2030 C   0  0  0  0  0  3  0  0  0  0  0  0
  185.4730  178.4200  145.4980 C   0  0  0  0  0  0  0  0  0  0  0  0
  182.7320  176.9150  139.1230 N   0  0  0  0  0  0  0  0  0  0  0  0
  183.2160  177.7540  138.0690 C   0  0  0  0  0  3  0  0  0  0  0  0
  185.6850  178.4060  141.7160 C   0  0  0  0  0  0  0  0  0  0  0  0
  187.0250  178.3670  141.4860 N   0  0  0  0  0  0  0  0  0  0  0  0
  189.1450  178.3150  136.3650 O   0  0  0  0  0  1  0  0  0  0  0  0
  185.2730  178.3600  139.3190 C   0  0  0  0  0  0  0  0  0  0  0  0
  187.2240  178.3450  137.8220 C   0  0  0  0  0  3  0  0  0  0  0  0
  180.4380  176.9350  141.2340 O   0  0  0  0  0  1  0  0  0  0  0  0
  181.0860  177.8550  140.5430 O   0  0  0  0  0  0  0  0  0  0  0  0
  183.0590  174.9820  137.8520 O   0  0  0  0  0  1  0  0  0  0  0  0
  182.2140  175.6020  138.7750 C   0  0  0  0  0  2  0  0  0  0  0  0
  186.3470  178.1830  146.6810 C   0  0  0  0  0  2  0  0  0  0  0  0
  188.2740  176.8550  147.5460 C   0  0  1  0  0  3  0  0  0  0  0  0
  187.5530  177.3340  146.2990 C   0  0  2  0  0  3  0  0  0  0  0  0
  188.8510  177.9930  146.7340 C   0  0  1  0  0  3  0  0  0  0  0  0
  188.9280  178.0310  148.2480 C   0  0  0  0  0  2  0  0  0  0  0  0
  2  9  1  0  0  0  0
  2 19  1  0  0  0  0
  3 22  1  0  0  0  0
  3  4  1  0  0  0  0
  4 20  1  0  0  0  0
  5 13  2  0  0  0  0
  5 15  1  0  0  0  0
  6 13  1  0  0  0  0
  7 23  1  0  0  0  0
  7 12  2  0  0  0  0
  8  1  2  0  0  0  0
  9  6  1  0  0  0  0
 10 25  1  6  0  0  0
 10  9  1  0  0  0  0
 11 22  1  0  0  0  0
 12 14  1  0  0  0  0
 13  8  1  0  0  0  0
 14  4  2  0  0  0  0
 15 16  2  0  0  0  0
 16  1  1  0  0  0  0
 16 28  1  0  0  0  0
 17 10  1  0  0  0  0
 18 11  2  0  0  0  0
 18 17  1  0  0  0  0
 19  5  1  0  0  0  0
 20 19  2  0  0  0  0
 21  7  1  0  0  0  0
 22  2  2  0  0  0  0
 23  3  2  0  0  0  0
 25 24  1  0  0  0  0
 26 27  1  0  0  0  0
 27 17  1  0  0  0  0
 29 32  1  1  0  0  0
 30 28  1  1  0  0  0
 30 31  1  0  0  0  0
 30 29  1  0  0  0  0
 31 29  1  0  0  0  0
 31 32  1  1  0  0  0
M  END
>  <MODEL>
2

>  <REMARK>
 VINA RESULT:      -9.2      1.334      1.956
  Name = 
  4 active torsions:
  status: ('A' for Active; 'I' for Inactive)
    1  A    between atoms: C_10  and  C_19
    2  A    between atoms: O_13  and  C_15
    3  A    between atoms: C_19  and  C_24
    4  A    between atoms: C_25  and  N_26
                            x       y       z     vdW  Elec       q    Type
                         _______ _______ _______ _____ _____    ______ ____

>  <TORSDO>
F 4

$$$$
=
 OpenBabel10272413263D

 32 38  0  0  1  0  0  0  0  0999 V2000
  184.1970  178.4640  145.2760 C   0  0  0  0  0  3  0  0  0  0  0  0
  188.3690  177.5580  142.4780 C   0  0  0  0  0  0  0  0  0  0  0  0
  188.9140  177.5350  140.1090 C   0  0  0  0  0  0  0  0  0  0  0  0
  187.6220  178.0380  139.8350 C   0  0  0  0  0  0  0  0  0  0  0  0
  186.0800  178.1920  143.2170 C   0  0  0  0  0  0  0  0  0  0  0  0
  187.5620  176.8070  144.7060 C   0  0  0  0  0  2  0  0  0  0  0  0
  189.3910  177.5420  137.7230 C   0  0  0  0  0  0  0  0  0  0  0  0
  185.3860  177.7640  145.5050 C   0  0  0  0  0  3  0  0  0  0  0  0
  188.6660  177.2770  143.8620 N   0  0  0  0  0  0  0  0  0  0  0  0
  189.7910  177.9290  144.5510 C   0  0  2  0  0  3  0  0  0  0  0  0
  190.6350  176.7470  141.7330 C   0  0  0  0  0  3  0  0  0  0  0  0
  188.1120  178.0420  137.4640 C   0  0  0  0  0  3  0  0  0  0  0  0
  186.3310  177.6370  144.4850 C   0  0  0  0  0  0  0  0  0  0  0  0
  187.2310  178.2890  138.5180 C   0  0  0  0  0  3  0  0  0  0  0  0
  184.8850  178.8890  142.9910 C   0  0  0  0  0  3  0  0  0  0  0  0
  183.9480  179.0300  144.0210 C   0  0  0  0  0  0  0  0  0  0  0  0
  190.9790  178.0960  143.7130 N   0  0  0  0  0  0  0  0  0  0  0  0
  191.3950  177.1090  142.7620 C   0  0  0  0  0  3  0  0  0  0  0  0
  187.0800  178.0200  142.1450 C   0  0  0  0  0  0  0  0  0  0  0  0
  186.7500  178.2620  140.8490 N   0  0  0  0  0  0  0  0  0  0  0  0
  190.2640  177.2940  136.6740 O   0  0  0  0  0  1  0  0  0  0  0  0
  189.2980  177.3060  141.4470 C   0  0  0  0  0  0  0  0  0  0  0  0
  189.7900  177.2900  139.0380 C   0  0  0  0  0  3  0  0  0  0  0  0
  189.6690  178.0550  146.7360 O   0  0  0  0  0  1  0  0  0  0  0  0
  190.1160  177.2830  145.7620 O   0  0  0  0  0  0  0  0  0  0  0  0
  191.2560  180.2890  144.4690 O   0  0  0  0  0  1  0  0  0  0  0  0
  191.9320  179.1260  144.0950 C   0  0  0  0  0  2  0  0  0  0  0  0
  182.6720  179.7620  143.7820 C   0  0  0  0  0  2  0  0  0  0  0  0
  180.9940  178.6230  142.3280 C   0  0  1  0  0  3  0  0  0  0  0  0
  181.4940  178.7960  143.7510 C   0  0  2  0  0  3  0  0  0  0  0  0
  180.2230  179.4920  143.2950 C   0  0  1  0  0  3  0  0  0  0  0  0
  180.3570  179.9120  141.8440 C   0  0  0  0  0  2  0  0  0  0  0  0
  1  8  1  0  0  0  0
  2  9  1  0  0  0  0
  3 22  1  0  0  0  0
  4  3  1  0  0  0  0
  4 20  1  0  0  0  0
  5 13  1  0  0  0  0
  7 23  1  0  0  0  0
  9 10  1  0  0  0  0
  9  6  1  0  0  0  0
 10 25  1  1  0  0  0
 11 18  2  0  0  0  0
 12  7  2  0  0  0  0
 12 14  1  0  0  0  0
 13  6  1  0  0  0  0
 13  8  2  0  0  0  0
 14  4  2  0  0  0  0
 15  5  2  0  0  0  0
 15 16  1  0  0  0  0
 16  1  2  0  0  0  0
 17 27  1  0  0  0  0
 17 10  1  0  0  0  0
 18 17  1  0  0  0  0
 19  2  1  0  0  0  0
 19  5  1  0  0  0  0
 20 19  2  0  0  0  0
 21  7  1  0  0  0  0
 22 11  1  0  0  0  0
 22  2  2  0  0  0  0
 23  3  2  0  0  0  0
 25 24  1  0  0  0  0
 27 26  1  0  0  0  0
 28 16  1  0  0  0  0
 29 32  1  6  0  0  0
 29 31  1  0  0  0  0
 29 30  1  0  0  0  0
 30 28  1  6  0  0  0
 31 32  1  6  0  0  0
 31 30  1  0  0  0  0
M  END
>  <MODEL>
3

>  <REMARK>
 VINA RESULT:      -8.9      3.253      6.307
  Name = 
  4 active torsions:
  status: ('A' for Active; 'I' for Inactive)
    1  A    between atoms: C_10  and  C_19
    2  A    between atoms: O_13  and  C_15
    3  A    between atoms: C_19  and  C_24
    4  A    between atoms: C_25  and  N_26
                            x       y       z     vdW  Elec       q    Type
                         _______ _______ _______ _____ _____    ______ ____

>  <TORSDO>
F 4

$$$$
=
 OpenBabel10272413263D

 32 38  0  0  1  0  0  0  0  0999 V2000
  184.9130  178.9820  144.9460 C   0  0  0  0  0  3  0  0  0  0  0  0
  186.5160  178.1800  140.1670 C   0  0  0  0  0  0  0  0  0  0  0  0
  188.6230  177.5970  139.1050 C   0  0  0  0  0  0  0  0  0  0  0  0
  189.1870  177.4130  140.3870 C   0  0  0  0  0  0  0  0  0  0  0  0
  186.3790  178.3360  142.6450 C   0  0  0  0  0  0  0  0  0  0  0  0
  184.7070  179.5370  141.1990 C   0  0  0  0  0  2  0  0  0  0  0  0
  190.7620  176.9990  138.1110 C   0  0  0  0  0  0  0  0  0  0  0  0
  184.4440  179.3700  143.6870 C   0  0  0  0  0  3  0  0  0  0  0  0
  185.1470  178.6350  140.1290 N   0  0  0  0  0  0  0  0  0  0  0  0
  184.0990  177.8530  139.4530 C   0  0  2  0  0  3  0  0  0  0  0  0
  186.6860  178.1960  137.6530 C   0  0  0  0  0  3  0  0  0  0  0  0
  191.3090  176.8190  139.3830 C   0  0  0  0  0  3  0  0  0  0  0  0
  185.1650  179.0390  142.5380 C   0  0  0  0  0  0  0  0  0  0  0  0
  190.5230  177.0250  140.5190 C   0  0  0  0  0  3  0  0  0  0  0  0
  186.8480  177.9540  143.9100 C   0  0  0  0  0  3  0  0  0  0  0  0
  186.1120  178.2710  145.0580 C   0  0  0  0  0  0  0  0  0  0  0  0
  184.5460  177.2150  138.2140 N   0  0  0  0  0  0  0  0  0  0  0  0
  185.4500  177.8510  137.3050 C   0  0  0  0  0  3  0  0  0  0  0  0
  187.1400  178.0240  141.4200 C   0  0  0  0  0  0  0  0  0  0  0  0
  188.4400  177.6320  141.4970 N   0  0  0  0  0  0  0  0  0  0  0  0
  191.5470  176.7970  136.9830 O   0  0  0  0  0  1  0  0  0  0  0  0
  187.2680  177.9700  138.9920 C   0  0  0  0  0  0  0  0  0  0  0  0
  189.4270  177.3860  137.9710 C   0  0  0  0  0  3  0  0  0  0  0  0
  182.0200  178.1540  140.0800 O   0  0  0  0  0  1  0  0  0  0  0  0
  182.9300  178.6100  139.2370 O   0  0  0  0  0  0  0  0  0  0  0  0
  183.3150  176.2960  136.4520 O   0  0  0  0  0  1  0  0  0  0  0  0
  183.7940  176.0620  137.7430 C   0  0  0  0  0  2  0  0  0  0  0  0
  186.6120  177.8740  146.4050 C   0  0  0  0  0  2  0  0  0  0  0  0
  188.4940  176.8450  147.6790 C   0  0  1  0  0  3  0  0  0  0  0  0
  187.9820  177.2150  146.2980 C   0  0  2  0  0  3  0  0  0  0  0  0
  189.0520  178.0580  146.9690 C   0  0  1  0  0  3  0  0  0  0  0  0
  188.8110  178.1030  148.4660 C   0  0  0  0  0  2  0  0  0  0  0  0
  1 16  1  0  0  0  0
  2 19  1  0  0  0  0
  3  4  1  0  0  0  0
  4 14  2  0  0  0  0
  4 20  1  0  0  0  0
  5 15  1  0  0  0  0
  6 13  1  0  0  0  0
  7 12  2  0  0  0  0
  8  1  2  0  0  0  0
  9  2  1  0  0  0  0
  9  6  1  0  0  0  0
 10 25  1  6  0  0  0
 10  9  1  0  0  0  0
 11 22  1  0  0  0  0
 12 14  1  0  0  0  0
 13  5  2  0  0  0  0
 13  8  1  0  0  0  0
 15 16  2  0  0  0  0
 16 28  1  0  0  0  0
 17 10  1  0  0  0  0
 18 11  2  0  0  0  0
 18 17  1  0  0  0  0
 19 20  2  0  0  0  0
 19  5  1  0  0  0  0
 21  7  1  0  0  0  0
 22  3  1  0  0  0  0
 22  2  2  0  0  0  0
 23  7  1  0  0  0  0
 23  3  2  0  0  0  0
 25 24  1  0  0  0  0
 26 27  1  0  0  0  0
 27 17  1  0  0  0  0
 29 32  1  1  0  0  0
 30 28  1  1  0  0  0
 30 31  1  0  0  0  0
 30 29  1  0  0  0  0
 31 29  1  0  0  0  0
 31 32  1  1  0  0  0
M  END
>  <MODEL>
4

>  <REMARK>
 VINA RESULT:      -8.6      1.626      2.446
  Name = 
  4 active torsions:
  status: ('A' for Active; 'I' for Inactive)
    1  A    between atoms: C_10  and  C_19
    2  A    between atoms: O_13  and  C_15
    3  A    between atoms: C_19  and  C_24
    4  A    between atoms: C_25  and  N_26
                            x       y       z     vdW  Elec       q    Type
                         _______ _______ _______ _____ _____    ______ ____

>  <TORSDO>
F 4

$$$$
=
 OpenBabel10272413263D

 32 38  0  0  1  0  0  0  0  0999 V2000
  191.7200  177.2800  141.3210 C   0  0  0  0  0  3  0  0  0  0  0  0
  187.7940  178.1510  144.4630 C   0  0  0  0  0  0  0  0  0  0  0  0
  185.3980  178.4800  144.2170 C   0  0  0  0  0  0  0  0  0  0  0  0
  185.5240  178.1660  142.8450 C   0  0  0  0  0  0  0  0  0  0  0  0
  189.1890  177.6610  142.4630 C   0  0  0  0  0  0  0  0  0  0  0  0
  190.2310  178.6330  144.5360 C   0  0  0  0  0  2  0  0  0  0  0  0
  183.0050  178.7880  143.8980 C   0  0  0  0  0  0  0  0  0  0  0  0
  191.6090  177.8040  142.6120 C   0  0  0  0  0  3  0  0  0  0  0  0
  189.0180  178.1830  145.2270 N   0  0  0  0  0  0  0  0  0  0  0  0
  189.2100  177.3150  146.4000 C   0  0  2  0  0  3  0  0  0  0  0  0
  186.4200  178.8180  146.4670 C   0  0  0  0  0  3  0  0  0  0  0  0
  183.1410  178.4750  142.5430 C   0  0  0  0  0  3  0  0  0  0  0  0
  190.3500  177.9830  143.1890 C   0  0  0  0  0  0  0  0  0  0  0  0
  184.3970  178.1640  142.0190 C   0  0  0  0  0  3  0  0  0  0  0  0
  189.3060  177.1400  141.1670 C   0  0  0  0  0  3  0  0  0  0  0  0
  190.5700  176.9430  140.5990 C   0  0  0  0  0  0  0  0  0  0  0  0
  188.0070  177.1520  147.2170 N   0  0  0  0  0  0  0  0  0  0  0  0
  187.0860  178.2230  147.4510 C   0  0  0  0  0  3  0  0  0  0  0  0
  187.8680  177.8870  143.0810 C   0  0  0  0  0  0  0  0  0  0  0  0
  186.7410  177.8840  142.3200 N   0  0  0  0  0  0  0  0  0  0  0  0
  181.7560  179.1000  144.4170 O   0  0  0  0  0  1  0  0  0  0  0  0
  186.5440  178.4570  145.0400 C   0  0  0  0  0  0  0  0  0  0  0  0
  184.1270  178.7900  144.7310 C   0  0  0  0  0  3  0  0  0  0  0  0
  191.1400  176.7080  147.2440 O   0  0  0  0  0  1  0  0  0  0  0  0
  190.3030  177.7280  147.1900 O   0  0  0  0  0  0  0  0  0  0  0  0
  187.4740  176.3400  149.3430 O   0  0  0  0  0  1  0  0  0  0  0  0
  187.9300  175.9790  148.0730 C   0  0  0  0  0  2  0  0  0  0  0  0
  190.6970  176.3990  139.2180 C   0  0  0  0  0  2  0  0  0  0  0  0
  188.7570  176.5760  137.6600 C   0  0  1  0  0  3  0  0  0  0  0  0
  189.9740  177.2910  138.2170 C   0  0  2  0  0  3  0  0  0  0  0  0
  190.0090  176.6940  136.8210 C   0  0  1  0  0  3  0  0  0  0  0  0
  189.1950  175.4150  136.7860 C   0  0  0  0  0  2  0  0  0  0  0  0
  1  8  1  0  0  0  0
  2 22  1  0  0  0  0
  2  9  1  0  0  0  0
  3 23  1  0  0  0  0
  3 22  2  0  0  0  0
  4  3  1  0  0  0  0
  5 19  1  0  0  0  0
  5 13  1  0  0  0  0
  6  9  1  0  0  0  0
  7 21  1  0  0  0  0
  7 23  2  0  0  0  0
  8 13  2  0  0  0  0
  9 10  1  0  0  0  0
 10 25  1  1  0  0  0
 10 17  1  0  0  0  0
 11 18  2  0  0  0  0
 12  7  1  0  0  0  0
 13  6  1  0  0  0  0
 14 12  2  0  0  0  0
 14  4  1  0  0  0  0
 15  5  2  0  0  0  0
 16 15  1  0  0  0  0
 16  1  2  0  0  0  0
 17 18  1  0  0  0  0
 17 27  1  0  0  0  0
 19  2  2  0  0  0  0
 20  4  2  0  0  0  0
 20 19  1  0  0  0  0
 22 11  1  0  0  0  0
 25 24  1  0  0  0  0
 27 26  1  0  0  0  0
 28 16  1  0  0  0  0
 29 32  1  1  0  0  0
 29 30  1  0  0  0  0
 30 28  1  1  0  0  0
 31 32  1  1  0  0  0
 31 29  1  0  0  0  0
 31 30  1  0  0  0  0
M  END
>  <MODEL>
5

>  <REMARK>
 VINA RESULT:      -7.8      3.479      7.436
  Name = 
  4 active torsions:
  status: ('A' for Active; 'I' for Inactive)
    1  A    between atoms: C_10  and  C_19
    2  A    between atoms: O_13  and  C_15
    3  A    between atoms: C_19  and  C_24
    4  A    between atoms: C_25  and  N_26
                            x       y       z     vdW  Elec       q    Type
                         _______ _______ _______ _____ _____    ______ ____

>  <TORSDO>
F 4

$$$$
=
 OpenBabel10272413263D

 32 38  0  0  1  0  0  0  0  0999 V2000
  188.0150  178.0380  142.6100 C   0  0  0  0  0  3  0  0  0  0  0  0
  189.5010  176.9130  137.8590 C   0  0  0  0  0  0  0  0  0  0  0  0
  191.5580  176.1660  136.8010 C   0  0  0  0  0  0  0  0  0  0  0  0
  192.1310  176.0180  138.0840 C   0  0  0  0  0  0  0  0  0  0  0  0
  189.4110  177.2010  140.3280 C   0  0  0  0  0  0  0  0  0  0  0  0
  187.7810  178.4150  138.8430 C   0  0  0  0  0  2  0  0  0  0  0  0
  193.6480  175.4070  135.8120 C   0  0  0  0  0  0  0  0  0  0  0  0
  187.5480  178.3870  141.3400 C   0  0  0  0  0  3  0  0  0  0  0  0
  188.1570  177.4380  137.8150 N   0  0  0  0  0  0  0  0  0  0  0  0
  187.0600  176.6790  137.1930 C   0  0  2  0  0  3  0  0  0  0  0  0
  189.6330  176.7940  135.3460 C   0  0  0  0  0  3  0  0  0  0  0  0
  194.2040  175.2630  137.0850 C   0  0  0  0  0  3  0  0  0  0  0  0
  188.2330  177.9610  140.2000 C   0  0  0  0  0  0  0  0  0  0  0  0
  193.4470  175.5670  138.2180 C   0  0  0  0  0  3  0  0  0  0  0  0
  189.8780  176.8580  141.6040 C   0  0  0  0  0  3  0  0  0  0  0  0
  189.1770  177.2710  142.7440 C   0  0  0  0  0  0  0  0  0  0  0  0
  187.4530  175.9580  135.9820 N   0  0  0  0  0  0  0  0  0  0  0  0
  188.3760  176.4980  135.0310 C   0  0  0  0  0  3  0  0  0  0  0  0
  190.1350  176.7870  139.1110 C   0  0  0  0  0  0  0  0  0  0  0  0
  191.4130  176.3310  139.1910 N   0  0  0  0  0  0  0  0  0  0  0  0
  194.4030  175.1070  134.6870 O   0  0  0  0  0  1  0  0  0  0  0  0
  190.2220  176.6050  136.6870 C   0  0  0  0  0  0  0  0  0  0  0  0
  192.3330  175.8570  135.6700 C   0  0  0  0  0  3  0  0  0  0  0  0
  184.9290  176.9490  137.6290 O   0  0  0  0  0  1  0  0  0  0  0  0
  185.9280  177.4860  136.9540 O   0  0  0  0  0  0  0  0  0  0  0  0
  186.4930  173.9330  136.6460 O   0  0  0  0  0  1  0  0  0  0  0  0
  186.6350  174.8240  135.5800 C   0  0  0  0  0  2  0  0  0  0  0  0
  189.6760  176.9160  144.1020 C   0  0  0  0  0  2  0  0  0  0  0  0
  190.0640  177.7520  146.4210 C   0  0  1  0  0  3  0  0  0  0  0  0
  189.3830  178.0350  145.0940 C   0  0  2  0  0  3  0  0  0  0  0  0
  188.5760  177.5260  146.2760 C   0  0  1  0  0  3  0  0  0  0  0  0
  189.4110  176.5580  147.0920 C   0  0  0  0  0  2  0  0  0  0  0  0
  1 16  1  0  0  0  0
  2 19  1  0  0  0  0
  3  4  1  0  0  0  0
  4 14  2  0  0  0  0
  4 20  1  0  0  0  0
  5 15  1  0  0  0  0
  6 13  1  0  0  0  0
  7 12  2  0  0  0  0
  8  1  2  0  0  0  0
  9  2  1  0  0  0  0
  9  6  1  0  0  0  0
 10 25  1  6  0  0  0
 10  9  1  0  0  0  0
 11 22  1  0  0  0  0
 12 14  1  0  0  0  0
 13  5  2  0  0  0  0
 13  8  1  0  0  0  0
 15 16  2  0  0  0  0
 16 28  1  0  0  0  0
 17 10  1  0  0  0  0
 18 11  2  0  0  0  0
 18 17  1  0  0  0  0
 19 20  2  0  0  0  0
 19  5  1  0  0  0  0
 21  7  1  0  0  0  0
 22  3  1  0  0  0  0
 22  2  2  0  0  0  0
 23  7  1  0  0  0  0
 23  3  2  0  0  0  0
 25 24  1  0  0  0  0
 27 17  1  0  0  0  0
 27 26  1  0  0  0  0
 29 32  1  6  0  0  0
 30 28  1  6  0  0  0
 30 31  1  0  0  0  0
 30 29  1  0  0  0  0
 31 29  1  0  0  0  0
 31 32  1  6  0  0  0
M  END
>  <MODEL>
6

>  <REMARK>
 VINA RESULT:      -7.7      3.391      5.476
  Name = 
  4 active torsions:
  status: ('A' for Active; 'I' for Inactive)
    1  A    between atoms: C_10  and  C_19
    2  A    between atoms: O_13  and  C_15
    3  A    between atoms: C_19  and  C_24
    4  A    between atoms: C_25  and  N_26
                            x       y       z     vdW  Elec       q    Type
                         _______ _______ _______ _____ _____    ______ ____

>  <TORSDO>
F 4

$$$$
=
 OpenBabel10272413263D

 32 38  0  0  1  0  0  0  0  0999 V2000
  187.6710  178.0840  136.0310 C   0  0  0  0  0  3  0  0  0  0  0  0
  187.6560  178.2310  141.1330 C   0  0  0  0  0  0  0  0  0  0  0  0
  185.9810  178.5350  142.8680 C   0  0  0  0  0  0  0  0  0  0  0  0
  184.9810  178.4930  141.8710 C   0  0  0  0  0  0  0  0  0  0  0  0
  186.9680  178.1700  138.7440 C   0  0  0  0  0  0  0  0  0  0  0  0
  189.3320  178.7560  139.3750 C   0  0  0  0  0  2  0  0  0  0  0  0
  184.2490  178.8330  144.5520 C   0  0  0  0  0  0  0  0  0  0  0  0
  188.6470  178.3490  136.9970 C   0  0  0  0  0  3  0  0  0  0  0  0
  189.0220  178.1490  140.6730 N   0  0  0  0  0  0  0  0  0  0  0  0
  189.9210  177.0790  141.1340 C   0  0  2  0  0  3  0  0  0  0  0  0
  188.3830  178.4650  143.5340 C   0  0  0  0  0  3  0  0  0  0  0  0
  183.2690  178.7890  143.5580 C   0  0  0  0  0  3  0  0  0  0  0  0
  188.3030  178.3800  138.3500 C   0  0  0  0  0  0  0  0  0  0  0  0
  183.6340  178.6180  142.2210 C   0  0  0  0  0  3  0  0  0  0  0  0
  185.9930  177.9100  137.7710 C   0  0  0  0  0  3  0  0  0  0  0  0
  186.3450  177.8600  136.4170 C   0  0  0  0  0  0  0  0  0  0  0  0
  189.7500  176.7300  142.5450 N   0  0  0  0  0  0  0  0  0  0  0  0
  189.4780  177.7110  143.5510 C   0  0  0  0  0  3  0  0  0  0  0  0
  186.6220  178.2380  140.1770 C   0  0  0  0  0  0  0  0  0  0  0  0
  185.3250  178.3500  140.5680 N   0  0  0  0  0  0  0  0  0  0  0  0
  183.8850  179.0050  145.8800 O   0  0  0  0  0  1  0  0  0  0  0  0
  187.3340  178.3870  142.4980 C   0  0  0  0  0  0  0  0  0  0  0  0
  185.5980  178.7070  144.2100 C   0  0  0  0  0  3  0  0  0  0  0  0
  191.6050  176.6160  139.8090 O   0  0  0  0  0  1  0  0  0  0  0  0
  191.2720  177.3630  140.8450 O   0  0  0  0  0  0  0  0  0  0  0  0
  191.4380  175.5090  143.6030 O   0  0  0  0  0  1  0  0  0  0  0  0
  190.1970  175.4130  142.9700 C   0  0  0  0  0  2  0  0  0  0  0  0
  185.3090  177.5930  135.3800 C   0  0  0  0  0  2  0  0  0  0  0  0
  183.3850  176.1430  134.7320 C   0  0  1  0  0  3  0  0  0  0  0  0
  184.3360  176.5210  135.8540 C   0  0  2  0  0  3  0  0  0  0  0  0
  182.9070  177.0360  135.8550 C   0  0  1  0  0  3  0  0  0  0  0  0
  182.4530  177.3030  134.4330 C   0  0  0  0  0  2  0  0  0  0  0  0
  1 16  2  0  0  0  0
  1  8  1  0  0  0  0
  2 22  1  0  0  0  0
  3 23  1  0  0  0  0
  4 14  1  0  0  0  0
  4  3  1  0  0  0  0
  5 19  1  0  0  0  0
  6  9  1  0  0  0  0
  7 21  1  0  0  0  0
  8 13  2  0  0  0  0
  9  2  1  0  0  0  0
  9 10  1  0  0  0  0
 10 25  1  1  0  0  0
 10 17  1  0  0  0  0
 11 18  2  0  0  0  0
 12  7  1  0  0  0  0
 13  5  1  0  0  0  0
 13  6  1  0  0  0  0
 14 12  2  0  0  0  0
 15  5  2  0  0  0  0
 16 15  1  0  0  0  0
 17 27  1  0  0  0  0
 17 18  1  0  0  0  0
 19 20  1  0  0  0  0
 19  2  2  0  0  0  0
 20  4  2  0  0  0  0
 22  3  2  0  0  0  0
 22 11  1  0  0  0  0
 23  7  2  0  0  0  0
 24 25  1  0  0  0  0
 27 26  1  0  0  0  0
 28 16  1  0  0  0  0
 29 32  1  6  0  0  0
 29 30  1  0  0  0  0
 29 31  1  0  0  0  0
 30 28  1  6  0  0  0
 30 31  1  0  0  0  0
 31 32  1  6  0  0  0
M  END
>  <MODEL>
7

>  <REMARK>
 VINA RESULT:      -7.3      3.023      8.549
  Name = 
  4 active torsions:
  status: ('A' for Active; 'I' for Inactive)
    1  A    between atoms: C_10  and  C_19
    2  A    between atoms: O_13  and  C_15
    3  A    between atoms: C_19  and  C_24
    4  A    between atoms: C_25  and  N_26
                            x       y       z     vdW  Elec       q    Type
                         _______ _______ _______ _____ _____    ______ ____

>  <TORSDO>
F 4

$$$$
=
 OpenBabel10272413263D

 32 38  0  0  1  0  0  0  0  0999 V2000
  185.7020  177.5470  135.6850 C   0  0  0  0  0  3  0  0  0  0  0  0
  189.9590  177.1260  138.4680 C   0  0  0  0  0  0  0  0  0  0  0  0
  190.5410  177.3500  140.8180 C   0  0  0  0  0  0  0  0  0  0  0  0
  189.1670  177.4890  141.1160 C   0  0  0  0  0  0  0  0  0  0  0  0
  187.5930  177.3800  137.7490 C   0  0  0  0  0  0  0  0  0  0  0  0
  189.4680  177.7270  136.1070 C   0  0  0  0  0  2  0  0  0  0  0  0
  191.0490  177.5780  143.1870 C   0  0  0  0  0  0  0  0  0  0  0  0
  187.0660  177.6350  135.3910 C   0  0  0  0  0  3  0  0  0  0  0  0
  190.3020  177.0020  137.0710 N   0  0  0  0  0  0  0  0  0  0  0  0
  191.0290  175.8280  136.5640 C   0  0  2  0  0  3  0  0  0  0  0  0
  192.3800  177.0410  139.1620 C   0  0  0  0  0  3  0  0  0  0  0  0
  189.6880  177.7130  143.4700 C   0  0  0  0  0  3  0  0  0  0  0  0
  188.0110  177.5390  136.4140 C   0  0  0  0  0  0  0  0  0  0  0  0
  188.7500  177.6670  142.4380 C   0  0  0  0  0  3  0  0  0  0  0  0
  186.2240  177.2970  138.0390 C   0  0  0  0  0  3  0  0  0  0  0  0
  185.2800  177.3740  137.0080 C   0  0  0  0  0  0  0  0  0  0  0  0
  192.0660  175.3370  137.4730 N   0  0  0  0  0  0  0  0  0  0  0  0
  192.8860  176.2160  138.2500 C   0  0  0  0  0  3  0  0  0  0  0  0
  188.6070  177.3110  138.8170 C   0  0  0  0  0  0  0  0  0  0  0  0
  188.2490  177.4680  140.1190 N   0  0  0  0  0  0  0  0  0  0  0  0
  191.9810  177.6270  144.2140 O   0  0  0  0  0  1  0  0  0  0  0  0
  190.9430  177.1520  139.4800 C   0  0  0  0  0  0  0  0  0  0  0  0
  191.4740  177.3980  141.8680 C   0  0  0  0  0  3  0  0  0  0  0  0
  191.0270  175.1280  134.4870 O   0  0  0  0  0  1  0  0  0  0  0  0
  191.5540  176.0490  135.2730 O   0  0  0  0  0  0  0  0  0  0  0  0
  193.8260  173.8170  137.7030 O   0  0  0  0  0  1  0  0  0  0  0  0
  192.4880  173.9530  137.3250 C   0  0  0  0  0  2  0  0  0  0  0  0
  183.8240  177.2960  137.3140 C   0  0  0  0  0  2  0  0  0  0  0  0
  182.9940  177.0220  139.6510 C   0  0  1  0  0  3  0  0  0  0  0  0
  183.5090  178.0120  138.6210 C   0  0  2  0  0  3  0  0  0  0  0  0
  182.0260  177.9430  138.9430 C   0  0  1  0  0  3  0  0  0  0  0  0
  181.6280  176.5090  139.2360 C   0  0  0  0  0  2  0  0  0  0  0  0
  1 16  1  0  0  0  0
  2 19  2  0  0  0  0
  2 22  1  0  0  0  0
  3  4  1  0  0  0  0
  3 23  1  0  0  0  0
  4 14  1  0  0  0  0
  5 15  1  0  0  0  0
  5 19  1  0  0  0  0
  6 13  1  0  0  0  0
  6  9  1  0  0  0  0
  7 12  1  0  0  0  0
  7 21  1  0  0  0  0
  8  1  2  0  0  0  0
  8 13  1  0  0  0  0
  9  2  1  0  0  0  0
 10 25  1  6  0  0  0
 10  9  1  0  0  0  0
 10 17  1  0  0  0  0
 11 22  1  0  0  0  0
 13  5  2  0  0  0  0
 14 12  2  0  0  0  0
 16 28  1  0  0  0  0
 16 15  2  0  0  0  0
 17 18  1  0  0  0  0
 18 11  2  0  0  0  0
 19 20  1  0  0  0  0
 20  4  2  0  0  0  0
 22  3  2  0  0  0  0
 23  7  2  0  0  0  0
 24 25  1  0  0  0  0
 27 17  1  0  0  0  0
 27 26  1  0  0  0  0
 29 32  1  6  0  0  0
 30 28  1  6  0  0  0
 30 31  1  0  0  0  0
 30 29  1  0  0  0  0
 31 32  1  6  0  0  0
 31 29  1  0  0  0  0
M  END
>  <MODEL>
8

>  <REMARK>
 VINA RESULT:      -6.8      4.416      8.809
  Name = 
  4 active torsions:
  status: ('A' for Active; 'I' for Inactive)
    1  A    between atoms: C_10  and  C_19
    2  A    between atoms: O_13  and  C_15
    3  A    between atoms: C_19  and  C_24
    4  A    between atoms: C_25  and  N_26
                            x       y       z     vdW  Elec       q    Type
                         _______ _______ _______ _____ _____    ______ ____

>  <TORSDO>
F 4

$$$$
=
 OpenBabel10272413263D

 32 38  0  0  1  0  0  0  0  0999 V2000
  193.8280  175.2560  137.4340 C   0  0  0  0  0  3  0  0  0  0  0  0
  189.5030  177.1940  139.3270 C   0  0  0  0  0  0  0  0  0  0  0  0
  187.2420  177.5540  138.5070 C   0  0  0  0  0  0  0  0  0  0  0  0
  187.5860  176.8490  137.3320 C   0  0  0  0  0  0  0  0  0  0  0  0
  191.1830  176.0760  137.8750 C   0  0  0  0  0  0  0  0  0  0  0  0
  191.9210  177.5580  139.7700 C   0  0  0  0  0  2  0  0  0  0  0  0
  184.9970  177.8730  137.6250 C   0  0  0  0  0  0  0  0  0  0  0  0
  193.5360  176.1380  138.4790 C   0  0  0  0  0  3  0  0  0  0  0  0
  190.5600  177.3870  140.2900 N   0  0  0  0  0  0  0  0  0  0  0  0
  190.4380  176.8910  141.6700 C   0  0  2  0  0  3  0  0  0  0  0  0
  187.8600  178.4820  140.7380 C   0  0  0  0  0  3  0  0  0  0  0  0
  185.3470  177.1730  136.4680 C   0  0  0  0  0  3  0  0  0  0  0  0
  192.2180  176.5390  138.7090 C   0  0  0  0  0  0  0  0  0  0  0  0
  186.6380  176.6620  136.3220 C   0  0  0  0  0  3  0  0  0  0  0  0
  191.4820  175.1960  136.8260 C   0  0  0  0  0  3  0  0  0  0  0  0
  192.8020  174.7810  136.6100 C   0  0  0  0  0  0  0  0  0  0  0  0
  189.0930  177.0320  142.2310 N   0  0  0  0  0  0  0  0  0  0  0  0
  188.2640  178.1680  141.9650 C   0  0  0  0  0  3  0  0  0  0  0  0
  189.8030  176.5370  138.1180 C   0  0  0  0  0  0  0  0  0  0  0  0
  188.8430  176.3680  137.1700 N   0  0  0  0  0  0  0  0  0  0  0  0
  183.7140  178.3830  137.7660 O   0  0  0  0  0  1  0  0  0  0  0  0
  188.2060  177.7170  139.5240 C   0  0  0  0  0  0  0  0  0  0  0  0
  185.9380  178.0630  138.6390 C   0  0  0  0  0  3  0  0  0  0  0  0
  191.9810  176.4620  143.1660 O   0  0  0  0  0  1  0  0  0  0  0  0
  191.4030  177.4620  142.5250 O   0  0  0  0  0  0  0  0  0  0  0  0
  188.5870  176.9140  144.5090 O   0  0  0  0  0  1  0  0  0  0  0  0
  188.7340  176.1630  143.3410 C   0  0  0  0  0  2  0  0  0  0  0  0
  193.1240  173.8520  135.4900 C   0  0  0  0  0  2  0  0  0  0  0  0
  193.9070  171.6840  136.4450 C   0  0  1  0  0  3  0  0  0  0  0  0
  192.7260  172.4240  135.8420 C   0  0  2  0  0  3  0  0  0  0  0  0
  193.5020  171.4160  135.0130 C   0  0  1  0  0  3  0  0  0  0  0  0
  194.9710  171.4620  135.3870 C   0  0  0  0  0  2  0  0  0  0  0  0
  1  8  1  0  0  0  0
  2 22  1  0  0  0  0
  2  9  1  0  0  0  0
  3 23  1  0  0  0  0
  3 22  2  0  0  0  0
  4  3  1  0  0  0  0
  5 19  1  0  0  0  0
  5 13  1  0  0  0  0
  6  9  1  0  0  0  0
  7 21  1  0  0  0  0
  7 23  2  0  0  0  0
  8 13  2  0  0  0  0
  9 10  1  0  0  0  0
 10 17  1  0  0  0  0
 10 25  1  1  0  0  0
 11 18  2  0  0  0  0
 12  7  1  0  0  0  0
 13  6  1  0  0  0  0
 14 12  2  0  0  0  0
 14  4  1  0  0  0  0
 15  5  2  0  0  0  0
 16 15  1  0  0  0  0
 16  1  2  0  0  0  0
 17 27  1  0  0  0  0
 18 17  1  0  0  0  0
 19  2  2  0  0  0  0
 20  4  2  0  0  0  0
 20 19  1  0  0  0  0
 22 11  1  0  0  0  0
 25 24  1  0  0  0  0
 27 26  1  0  0  0  0
 28 16  1  0  0  0  0
 29 32  1  6  0  0  0
 30 28  1  6  0  0  0
 30 29  1  0  0  0  0
 31 32  1  6  0  0  0
 31 30  1  0  0  0  0
 31 29  1  0  0  0  0
M  END
>  <MODEL>
9

>  <REMARK>
 VINA RESULT:      -6.7      4.431      8.474
  Name = 
  4 active torsions:
  status: ('A' for Active; 'I' for Inactive)
    1  A    between atoms: C_10  and  C_19
    2  A    between atoms: O_13  and  C_15
    3  A    between atoms: C_19  and  C_24
    4  A    between atoms: C_25  and  N_26
                            x       y       z     vdW  Elec       q    Type
                         _______ _______ _______ _____ _____    ______ ____

>  <TORSDO>
F 4

$$$$
