=
 OpenBabel10272400283D

 31 34  0  0  1  0  0  0  0  0999 V2000
  190.8970  177.3530  146.3980 C   0  0  2  0  0  3  0  0  0  0  0  0
  189.1500  177.2940  144.6280 C   0  0  1  0  0  3  0  0  0  0  0  0
  191.7890  176.7970  145.4700 O   0  0  0  0  0  0  0  0  0  0  0  0
  191.2660  176.8950  147.7940 C   0  0  0  0  0  1  0  0  0  0  0  0
  189.4770  176.9050  146.0770 C   0  0  0  0  0  2  0  0  0  0  0  0
  190.2340  176.9080  143.7080 N   0  0  0  0  0  0  0  0  0  0  0  0
  191.5010  177.4160  144.2430 C   0  0  0  0  0  2  0  0  0  0  0  0
  187.7910  176.7150  144.1850 C   0  0  2  0  0  3  0  0  0  0  0  0
  187.9630  175.6950  143.2450 O   0  0  0  0  0  1  0  0  0  0  0  0
  186.8020  177.7380  143.6890 C   0  0  0  0  0  0  0  0  0  0  0  0
  185.8190  178.9830  141.8450 C   0  0  0  0  0  3  0  0  0  0  0  0
  186.7500  178.0600  142.3230 C   0  0  0  0  0  3  0  0  0  0  0  0
  184.9190  179.5860  142.7240 C   0  0  0  0  0  3  0  0  0  0  0  0
  184.9500  179.2640  144.0820 C   0  0  0  0  0  3  0  0  0  0  0  0
  185.8900  178.3460  144.5780 C   0  0  0  0  0  0  0  0  0  0  0  0
  184.4600  177.9590  146.5750 C   0  0  0  0  0  1  0  0  0  0  0  0
  186.7390  178.9130  146.8640 C   0  0  0  0  0  1  0  0  0  0  0  0
  185.8790  177.9750  146.0350 C   0  0  0  0  0  3  0  0  0  0  0  0
  190.0210  177.6100  142.4490 C   0  0  0  0  0  2  0  0  0  0  0  0
  190.6090  176.8090  141.2980 C   0  0  0  0  0  2  0  0  0  0  0  0
  190.4630  177.5700  139.9910 C   0  0  0  0  0  2  0  0  0  0  0  0
  186.1330  177.1300  137.0360 C   0  0  0  0  0  0  0  0  0  0  0  0
  187.6940  177.9850  138.7150 C   0  0  0  0  0  3  0  0  0  0  0  0
  189.5060  174.9900  137.2610 S   0  0  0  0  0  0  0  0  0  0  0  0
  190.5170  175.6370  138.4200 N   0  0  0  0  0  0  0  0  0  0  0  0
  184.9160  177.2290  136.3760 O   0  0  0  0  0  1  0  0  0  0  0  0
  189.8500  176.7070  138.9360 C   0  0  0  0  0  0  0  0  0  0  0  0
  186.4660  178.0670  138.0350 C   0  0  0  0  0  3  0  0  0  0  0  0
  188.2320  176.0470  137.3930 C   0  0  0  0  0  0  0  0  0  0  0  0
  188.5780  176.9560  138.3770 C   0  0  0  0  0  0  0  0  0  0  0  0
  187.0260  176.0990  136.7020 C   0  0  0  0  0  3  0  0  0  0  0  0
  1  4  1  1  0  0  0
  2  8  1  6  0  0  0
  2  5  1  0  0  0  0
  3  1  1  0  0  0  0
  5  1  1  0  0  0  0
  6  7  1  0  0  0  0
  6  2  1  0  0  0  0
  7  3  1  0  0  0  0
  8  9  1  6  0  0  0
 10  8  1  0  0  0  0
 10 15  1  0  0  0  0
 11 12  1  0  0  0  0
 11 13  2  0  0  0  0
 12 10  2  0  0  0  0
 13 14  1  0  0  0  0
 14 15  2  0  0  0  0
 15 18  1  0  0  0  0
 18 16  1  0  0  0  0
 18 17  1  0  0  0  0
 19  6  1  0  0  0  0
 20 19  1  0  0  0  0
 21 20  1  0  0  0  0
 22 28  1  0  0  0  0
 24 29  1  0  0  0  0
 24 25  1  0  0  0  0
 25 27  2  0  0  0  0
 26 22  1  0  0  0  0
 27 21  1  0  0  0  0
 28 23  2  0  0  0  0
 29 30  2  0  0  0  0
 30 23  1  0  0  0  0
 30 27  1  0  0  0  0
 31 22  2  0  0  0  0
 31 29  1  0  0  0  0
M  END
>  <MODEL>
1

>  <REMARK>
 VINA RESULT:      -8.3      0.000      0.000
  Name = 
  7 active torsions:
  status: ('A' for Active; 'I' for Inactive)
    1  A    between atoms: C_4  and  C_5
    2  A    between atoms: C_4  and  C_12
    3  A    between atoms: C_9  and  C_23
    4  A    between atoms: C_15  and  C_20
    5  A    between atoms: C_15  and  C_23
    6  A    between atoms: C_20  and  N_27
    7  A    between atoms: C_30  and  C_31
                            x       y       z     vdW  Elec       q    Type
                         _______ _______ _______ _____ _____    ______ ____

>  <TORSDO>
F 7

$$$$
=
 OpenBabel10272400283D

 31 34  0  0  1  0  0  0  0  0999 V2000
  191.4110  177.3720  140.9880 C   0  0  2  0  0  3  0  0  0  0  0  0
  190.0770  178.2150  142.9100 C   0  0  1  0  0  3  0  0  0  0  0  0
  190.6870  176.1740  141.0710 O   0  0  0  0  0  0  0  0  0  0  0  0
  192.8080  177.0860  140.4760 C   0  0  0  0  0  1  0  0  0  0  0  0
  191.4980  178.0160  142.3650 C   0  0  0  0  0  2  0  0  0  0  0  0
  189.2640  176.9970  142.7540 N   0  0  0  0  0  0  0  0  0  0  0  0
  189.3650  176.5440  141.3630 C   0  0  0  0  0  2  0  0  0  0  0  0
  190.1000  178.7030  144.3730 C   0  0  2  0  0  3  0  0  0  0  0  0
  190.9280  179.8190  144.5170 O   0  0  0  0  0  1  0  0  0  0  0  0
  190.4500  177.6430  145.3860 C   0  0  0  0  0  0  0  0  0  0  0  0
  192.0220  175.9930  146.2360 C   0  0  0  0  0  3  0  0  0  0  0  0
  191.6710  176.9560  145.2890 C   0  0  0  0  0  3  0  0  0  0  0  0
  191.1630  175.7150  147.3000 C   0  0  0  0  0  3  0  0  0  0  0  0
  189.9530  176.4010  147.4160 C   0  0  0  0  0  3  0  0  0  0  0  0
  189.5820  177.3640  146.4630 C   0  0  0  0  0  0  0  0  0  0  0  0
  188.0240  178.4070  148.0950 C   0  0  0  0  0  1  0  0  0  0  0  0
  187.1200  177.3930  146.0120 C   0  0  0  0  0  1  0  0  0  0  0  0
  188.2980  178.1270  146.6290 C   0  0  0  0  0  3  0  0  0  0  0  0
  187.8690  177.3630  142.9560 C   0  0  0  0  0  2  0  0  0  0  0  0
  187.2880  177.9380  141.6740 C   0  0  0  0  0  2  0  0  0  0  0  0
  186.5100  179.2100  141.9650 C   0  0  0  0  0  2  0  0  0  0  0  0
  181.5220  178.7190  143.5650 C   0  0  0  0  0  0  0  0  0  0  0  0
  183.9620  178.8780  143.6580 C   0  0  0  0  0  3  0  0  0  0  0  0
  183.1990  179.0940  139.9520 S   0  0  0  0  0  0  0  0  0  0  0  0
  184.8580  179.2010  140.1000 N   0  0  0  0  0  0  0  0  0  0  0  0
  180.3070  178.5920  144.2240 O   0  0  0  0  0  1  0  0  0  0  0  0
  185.1160  179.1160  141.4350 C   0  0  0  0  0  0  0  0  0  0  0  0
  182.7210  178.7480  144.3060 C   0  0  0  0  0  3  0  0  0  0  0  0
  182.7940  178.9470  141.5560 C   0  0  0  0  0  0  0  0  0  0  0  0
  183.9810  178.9780  142.2640 C   0  0  0  0  0  0  0  0  0  0  0  0
  181.5500  178.8200  142.1640 C   0  0  0  0  0  3  0  0  0  0  0  0
  1  4  1  1  0  0  0
  1  3  1  0  0  0  0
  1  5  1  0  0  0  0
  2  8  1  1  0  0  0
  3  7  1  0  0  0  0
  5  2  1  0  0  0  0
  6  2  1  0  0  0  0
  6 19  1  0  0  0  0
  7  6  1  0  0  0  0
  8  9  1  6  0  0  0
  8 10  1  0  0  0  0
 10 15  1  0  0  0  0
 11 13  2  0  0  0  0
 12 10  2  0  0  0  0
 12 11  1  0  0  0  0
 13 14  1  0  0  0  0
 15 18  1  0  0  0  0
 15 14  2  0  0  0  0
 17 18  1  0  0  0  0
 18 16  1  0  0  0  0
 20 21  1  0  0  0  0
 20 19  1  0  0  0  0
 22 26  1  0  0  0  0
 22 28  1  0  0  0  0
 23 28  2  0  0  0  0
 24 25  1  0  0  0  0
 24 29  1  0  0  0  0
 25 27  2  0  0  0  0
 27 21  1  0  0  0  0
 27 30  1  0  0  0  0
 29 31  1  0  0  0  0
 29 30  2  0  0  0  0
 30 23  1  0  0  0  0
 31 22  2  0  0  0  0
M  END
>  <MODEL>
2

>  <REMARK>
 VINA RESULT:      -8.2      3.162      5.831
  Name = 
  7 active torsions:
  status: ('A' for Active; 'I' for Inactive)
    1  A    between atoms: C_4  and  C_5
    2  A    between atoms: C_4  and  C_12
    3  A    between atoms: C_9  and  C_23
    4  A    between atoms: C_15  and  C_20
    5  A    between atoms: C_15  and  C_23
    6  A    between atoms: C_20  and  N_27
    7  A    between atoms: C_30  and  C_31
                            x       y       z     vdW  Elec       q    Type
                         _______ _______ _______ _____ _____    ______ ____

>  <TORSDO>
F 7

$$$$
=
 OpenBabel10272400283D

 31 34  0  0  1  0  0  0  0  0999 V2000
  184.7230  178.5890  142.7570 C   0  0  2  0  0  3  0  0  0  0  0  0
  186.9530  177.4920  142.6540 C   0  0  1  0  0  3  0  0  0  0  0  0
  185.2740  179.6690  142.0530 O   0  0  0  0  0  0  0  0  0  0  0  0
  183.6260  179.0880  143.6750 C   0  0  0  0  0  1  0  0  0  0  0  0
  185.8060  177.9090  143.5850 C   0  0  0  0  0  2  0  0  0  0  0  0
  187.3420  178.5890  141.7520 N   0  0  0  0  0  0  0  0  0  0  0  0
  186.1350  179.1050  141.0990 C   0  0  0  0  0  2  0  0  0  0  0  0
  188.1570  176.9550  143.4530 C   0  0  2  0  0  3  0  0  0  0  0  0
  188.2880  175.5730  143.2960 O   0  0  0  0  0  1  0  0  0  0  0  0
  188.1630  177.3300  144.9130 C   0  0  0  0  0  0  0  0  0  0  0  0
  186.9410  177.7930  146.9640 C   0  0  0  0  0  3  0  0  0  0  0  0
  186.9500  177.4750  145.6050 C   0  0  0  0  0  3  0  0  0  0  0  0
  188.1430  177.9560  147.6510 C   0  0  0  0  0  3  0  0  0  0  0  0
  189.3570  177.8010  146.9780 C   0  0  0  0  0  3  0  0  0  0  0  0
  189.3810  177.4930  145.6080 C   0  0  0  0  0  0  0  0  0  0  0  0
  191.7030  176.6370  145.8430 C   0  0  0  0  0  1  0  0  0  0  0  0
  191.2560  178.5810  144.3570 C   0  0  0  0  0  1  0  0  0  0  0  0
  190.6950  177.2820  144.9090 C   0  0  0  0  0  3  0  0  0  0  0  0
  188.1620  178.0230  140.6890 C   0  0  0  0  0  2  0  0  0  0  0  0
  187.5010  178.2540  139.3390 C   0  0  0  0  0  2  0  0  0  0  0  0
  188.5370  178.2300  138.2280 C   0  0  0  0  0  2  0  0  0  0  0  0
  192.2730  174.5960  137.5150 C   0  0  0  0  0  0  0  0  0  0  0  0
  191.2150  176.7200  138.1090 C   0  0  0  0  0  3  0  0  0  0  0  0
  188.3320  174.6220  136.8250 S   0  0  0  0  0  0  0  0  0  0  0  0
  187.6860  176.0990  137.2580 N   0  0  0  0  0  0  0  0  0  0  0  0
  193.4150  173.8120  137.4330 O   0  0  0  0  0  1  0  0  0  0  0  0
  188.7340  176.8420  137.7120 C   0  0  0  0  0  0  0  0  0  0  0  0
  192.3610  175.9100  138.0160 C   0  0  0  0  0  3  0  0  0  0  0  0
  189.9240  174.9020  137.2060 C   0  0  0  0  0  0  0  0  0  0  0  0
  189.9890  176.1940  137.6950 C   0  0  0  0  0  0  0  0  0  0  0  0
  191.0360  174.0740  137.1010 C   0  0  0  0  0  3  0  0  0  0  0  0
  1  5  1  0  0  0  0
  1  4  1  1  0  0  0
  2  8  1  1  0  0  0
  2  5  1  0  0  0  0
  3  1  1  0  0  0  0
  6  2  1  0  0  0  0
  7  6  1  0  0  0  0
  7  3  1  0  0  0  0
  8  9  1  1  0  0  0
  8 10  1  0  0  0  0
 10 12  2  0  0  0  0
 10 15  1  0  0  0  0
 11 13  2  0  0  0  0
 12 11  1  0  0  0  0
 14 13  1  0  0  0  0
 15 14  2  0  0  0  0
 17 18  1  0  0  0  0
 18 15  1  0  0  0  0
 18 16  1  0  0  0  0
 19  6  1  0  0  0  0
 20 19  1  0  0  0  0
 21 20  1  0  0  0  0
 22 28  1  0  0  0  0
 24 29  1  0  0  0  0
 24 25  1  0  0  0  0
 25 27  2  0  0  0  0
 26 22  1  0  0  0  0
 27 21  1  0  0  0  0
 28 23  2  0  0  0  0
 29 30  2  0  0  0  0
 30 27  1  0  0  0  0
 30 23  1  0  0  0  0
 31 29  1  0  0  0  0
 31 22  2  0  0  0  0
M  END
>  <MODEL>
3

>  <REMARK>
 VINA RESULT:      -8.2      2.436      4.977
  Name = 
  7 active torsions:
  status: ('A' for Active; 'I' for Inactive)
    1  A    between atoms: C_4  and  C_5
    2  A    between atoms: C_4  and  C_12
    3  A    between atoms: C_9  and  C_23
    4  A    between atoms: C_15  and  C_20
    5  A    between atoms: C_15  and  C_23
    6  A    between atoms: C_20  and  N_27
    7  A    between atoms: C_30  and  C_31
                            x       y       z     vdW  Elec       q    Type
                         _______ _______ _______ _____ _____    ______ ____

>  <TORSDO>
F 7

$$$$
=
 OpenBabel10272400283D

 31 34  0  0  1  0  0  0  0  0999 V2000
  181.4460  179.1250  143.4320 C   0  0  2  0  0  3  0  0  0  0  0  0
  183.3230  179.1500  141.8010 C   0  0  1  0  0  3  0  0  0  0  0  0
  182.2320  178.3020  144.2520 O   0  0  0  0  0  0  0  0  0  0  0  0
  179.9820  178.7950  143.6360 C   0  0  0  0  0  1  0  0  0  0  0  0
  181.8190  178.9020  141.9730 C   0  0  0  0  0  2  0  0  0  0  0  0
  184.1070  178.4590  142.8390 N   0  0  0  0  0  0  0  0  0  0  0  0
  183.5420  178.7970  144.1500 C   0  0  0  0  0  2  0  0  0  0  0  0
  183.7960  178.7720  140.3830 C   0  0  2  0  0  3  0  0  0  0  0  0
  184.9330  179.4990  140.0210 O   0  0  0  0  0  1  0  0  0  0  0  0
  182.7360  178.8710  139.3160 C   0  0  0  0  0  0  0  0  0  0  0  0
  181.4630  180.2230  137.7450 C   0  0  0  0  0  3  0  0  0  0  0  0
  182.4220  180.1190  138.7540 C   0  0  0  0  0  3  0  0  0  0  0  0
  180.8160  179.0800  137.2760 C   0  0  0  0  0  3  0  0  0  0  0  0
  181.1290  177.8310  137.8170 C   0  0  0  0  0  3  0  0  0  0  0  0
  182.0830  177.7140  138.8410 C   0  0  0  0  0  0  0  0  0  0  0  0
  183.2860  175.5870  138.3780 C   0  0  0  0  0  1  0  0  0  0  0  0
  181.2100  175.5500  139.7480 C   0  0  0  0  0  1  0  0  0  0  0  0
  182.4430  176.3570  139.3790 C   0  0  0  0  0  3  0  0  0  0  0  0
  185.4530  179.0170  142.8280 C   0  0  0  0  0  2  0  0  0  0  0  0
  186.4800  177.9030  142.7060 C   0  0  0  0  0  2  0  0  0  0  0  0
  187.0470  177.5510  144.0710 C   0  0  0  0  0  2  0  0  0  0  0  0
  191.3040  176.7500  147.0570 C   0  0  0  0  0  0  0  0  0  0  0  0
  189.0030  177.2990  146.4330 C   0  0  0  0  0  3  0  0  0  0  0  0
  190.6650  176.5380  143.1130 S   0  0  0  0  0  0  0  0  0  0  0  0
  189.0770  176.9200  142.7700 N   0  0  0  0  0  0  0  0  0  0  0  0
  192.2690  176.5870  148.0410 O   0  0  0  0  0  1  0  0  0  0  0  0
  188.4960  177.1960  143.9710 C   0  0  0  0  0  0  0  0  0  0  0  0
  189.9950  177.1300  147.4150 C   0  0  0  0  0  3  0  0  0  0  0  0
  190.6340  176.7100  144.7650 C   0  0  0  0  0  0  0  0  0  0  0  0
  189.3430  177.0820  145.0950 C   0  0  0  0  0  0  0  0  0  0  0  0
  191.6380  176.5330  145.7100 C   0  0  0  0  0  3  0  0  0  0  0  0
  1  4  1  6  0  0  0
  1  3  1  0  0  0  0
  2  8  1  6  0  0  0
  2  5  1  0  0  0  0
  2  6  1  0  0  0  0
  5  1  1  0  0  0  0
  6  7  1  0  0  0  0
  7  3  1  0  0  0  0
  8  9  1  6  0  0  0
 10  8  1  0  0  0  0
 11 12  1  0  0  0  0
 12 10  2  0  0  0  0
 13 11  2  0  0  0  0
 13 14  1  0  0  0  0
 14 15  2  0  0  0  0
 15 10  1  0  0  0  0
 15 18  1  0  0  0  0
 16 18  1  0  0  0  0
 18 17  1  0  0  0  0
 19  6  1  0  0  0  0
 20 19  1  0  0  0  0
 20 21  1  0  0  0  0
 22 28  1  0  0  0  0
 22 26  1  0  0  0  0
 23 28  2  0  0  0  0
 24 29  1  0  0  0  0
 25 24  1  0  0  0  0
 25 27  2  0  0  0  0
 27 21  1  0  0  0  0
 27 30  1  0  0  0  0
 29 30  2  0  0  0  0
 29 31  1  0  0  0  0
 30 23  1  0  0  0  0
 31 22  2  0  0  0  0
M  END
>  <MODEL>
4

>  <REMARK>
 VINA RESULT:      -8.1      3.710      7.991
  Name = 
  7 active torsions:
  status: ('A' for Active; 'I' for Inactive)
    1  A    between atoms: C_4  and  C_5
    2  A    between atoms: C_4  and  C_12
    3  A    between atoms: C_9  and  C_23
    4  A    between atoms: C_15  and  C_20
    5  A    between atoms: C_15  and  C_23
    6  A    between atoms: C_20  and  N_27
    7  A    between atoms: C_30  and  C_31
                            x       y       z     vdW  Elec       q    Type
                         _______ _______ _______ _____ _____    ______ ____

>  <TORSDO>
F 7

$$$$
=
 OpenBabel10272400283D

 31 34  0  0  1  0  0  0  0  0999 V2000
  184.6190  178.8370  143.0980 C   0  0  2  0  0  3  0  0  0  0  0  0
  186.7490  177.5820  142.8180 C   0  0  1  0  0  3  0  0  0  0  0  0
  185.1280  179.8020  142.2170 O   0  0  0  0  0  0  0  0  0  0  0  0
  183.6890  179.4980  144.0930 C   0  0  0  0  0  1  0  0  0  0  0  0
  185.7670  178.1670  143.8430 C   0  0  0  0  0  2  0  0  0  0  0  0
  187.0710  178.5570  141.7620 N   0  0  0  0  0  0  0  0  0  0  0  0
  185.8160  179.0900  141.2220 C   0  0  0  0  0  2  0  0  0  0  0  0
  188.0200  177.0430  143.5040 C   0  0  2  0  0  3  0  0  0  0  0  0
  188.1650  175.6700  143.2860 O   0  0  0  0  0  1  0  0  0  0  0  0
  188.1300  177.3650  144.9720 C   0  0  0  0  0  0  0  0  0  0  0  0
  187.0580  177.7280  147.1260 C   0  0  0  0  0  3  0  0  0  0  0  0
  186.9710  177.4590  145.7590 C   0  0  0  0  0  3  0  0  0  0  0  0
  188.3060  177.8930  147.7260 C   0  0  0  0  0  3  0  0  0  0  0  0
  189.4680  177.7880  146.9590 C   0  0  0  0  0  3  0  0  0  0  0  0
  189.3930  177.5290  145.5800 C   0  0  0  0  0  0  0  0  0  0  0  0
  191.7340  176.6900  145.5990 C   0  0  0  0  0  1  0  0  0  0  0  0
  191.1630  178.7050  144.2560 C   0  0  0  0  0  1  0  0  0  0  0  0
  190.6550  177.3720  144.7770 C   0  0  0  0  0  3  0  0  0  0  0  0
  187.7030  177.8340  140.6660 C   0  0  0  0  0  2  0  0  0  0  0  0
  188.9230  178.5960  140.1710 C   0  0  0  0  0  2  0  0  0  0  0  0
  189.0630  178.4550  138.6650 C   0  0  0  0  0  2  0  0  0  0  0  0
  188.1800  173.7120  136.5660 C   0  0  0  0  0  0  0  0  0  0  0  0
  187.7520  175.9650  137.4200 C   0  0  0  0  0  3  0  0  0  0  0  0
  191.4780  175.5100  137.9420 S   0  0  0  0  0  0  0  0  0  0  0  0
  191.1060  177.0380  138.5000 N   0  0  0  0  0  0  0  0  0  0  0  0
  187.7040  172.5440  135.9860 O   0  0  0  0  0  1  0  0  0  0  0  0
  189.7650  177.1840  138.3110 C   0  0  0  0  0  0  0  0  0  0  0  0
  187.2900  174.7730  136.8350 C   0  0  0  0  0  3  0  0  0  0  0  0
  189.9660  175.0240  137.4560 C   0  0  0  0  0  0  0  0  0  0  0  0
  189.1110  176.0760  137.7280 C   0  0  0  0  0  0  0  0  0  0  0  0
  189.5440  173.8320  136.8780 C   0  0  0  0  0  3  0  0  0  0  0  0
  1  5  1  0  0  0  0
  1  4  1  1  0  0  0
  2  8  1  1  0  0  0
  2  5  1  0  0  0  0
  3  1  1  0  0  0  0
  6  2  1  0  0  0  0
  7  6  1  0  0  0  0
  7  3  1  0  0  0  0
  8  9  1  1  0  0  0
  8 10  1  0  0  0  0
 10 15  2  0  0  0  0
 10 12  1  0  0  0  0
 11 13  1  0  0  0  0
 12 11  2  0  0  0  0
 14 13  2  0  0  0  0
 15 14  1  0  0  0  0
 17 18  1  0  0  0  0
 18 15  1  0  0  0  0
 18 16  1  0  0  0  0
 19  6  1  0  0  0  0
 20 19  1  0  0  0  0
 21 20  1  0  0  0  0
 22 28  2  0  0  0  0
 22 31  1  0  0  0  0
 23 30  2  0  0  0  0
 24 25  1  0  0  0  0
 26 22  1  0  0  0  0
 27 25  2  0  0  0  0
 27 21  1  0  0  0  0
 28 23  1  0  0  0  0
 29 30  1  0  0  0  0
 29 24  1  0  0  0  0
 30 27  1  0  0  0  0
 31 29  2  0  0  0  0
M  END
>  <MODEL>
5

>  <REMARK>
 VINA RESULT:      -8.0      2.041      4.517
  Name = 
  7 active torsions:
  status: ('A' for Active; 'I' for Inactive)
    1  A    between atoms: C_4  and  C_5
    2  A    between atoms: C_4  and  C_12
    3  A    between atoms: C_9  and  C_23
    4  A    between atoms: C_15  and  C_20
    5  A    between atoms: C_15  and  C_23
    6  A    between atoms: C_20  and  N_27
    7  A    between atoms: C_30  and  C_31
                            x       y       z     vdW  Elec       q    Type
                         _______ _______ _______ _____ _____    ______ ____

>  <TORSDO>
F 7

$$$$
=
 OpenBabel10272400283D

 31 34  0  0  1  0  0  0  0  0999 V2000
  191.9150  176.1170  138.3140 C   0  0  2  0  0  3  0  0  0  0  0  0
  189.6940  177.2360  138.2970 C   0  0  1  0  0  3  0  0  0  0  0  0
  192.2630  176.9280  139.4040 O   0  0  0  0  0  0  0  0  0  0  0  0
  193.1540  175.8030  137.5000 C   0  0  0  0  0  1  0  0  0  0  0  0
  190.9030  176.8420  137.4370 C   0  0  0  0  0  2  0  0  0  0  0  0
  190.1130  177.8700  139.5590 N   0  0  0  0  0  0  0  0  0  0  0  0
  191.1110  177.0110  140.2030 C   0  0  0  0  0  2  0  0  0  0  0  0
  188.7110  178.1250  137.5100 C   0  0  2  0  0  3  0  0  0  0  0  0
  188.8050  179.4590  137.9150 O   0  0  0  0  0  1  0  0  0  0  0  0
  187.2780  177.6580  137.5350 C   0  0  0  0  0  0  0  0  0  0  0  0
  184.9840  177.9700  138.2800 C   0  0  0  0  0  3  0  0  0  0  0  0
  186.3200  178.3740  138.2700 C   0  0  0  0  0  3  0  0  0  0  0  0
  184.5870  176.8550  137.5430 C   0  0  0  0  0  3  0  0  0  0  0  0
  185.5270  176.1420  136.7960 C   0  0  0  0  0  3  0  0  0  0  0  0
  186.8770  176.5300  136.7880 C   0  0  0  0  0  0  0  0  0  0  0  0
  187.6480  176.0780  134.4680 C   0  0  0  0  0  1  0  0  0  0  0  0
  187.8000  174.2840  136.1840 C   0  0  0  0  0  1  0  0  0  0  0  0
  187.8670  175.7810  135.9400 C   0  0  0  0  0  3  0  0  0  0  0  0
  188.9620  177.8870  140.4530 C   0  0  0  0  0  2  0  0  0  0  0  0
  189.4210  177.7740  141.8990 C   0  0  0  0  0  2  0  0  0  0  0  0
  188.6590  176.6720  142.6140 C   0  0  0  0  0  2  0  0  0  0  0  0
  184.5090  178.7340  145.1040 C   0  0  0  0  0  0  0  0  0  0  0  0
  185.9100  177.8780  143.2900 C   0  0  0  0  0  3  0  0  0  0  0  0
  188.1320  177.5780  146.3460 S   0  0  0  0  0  0  0  0  0  0  0  0
  189.0220  177.0040  145.0570 N   0  0  0  0  0  0  0  0  0  0  0  0
  183.3000  179.2660  145.5290 O   0  0  0  0  0  1  0  0  0  0  0  0
  188.2130  177.1230  143.9670 C   0  0  0  0  0  0  0  0  0  0  0  0
  184.6940  178.4190  143.7420 C   0  0  0  0  0  3  0  0  0  0  0  0
  186.7280  177.9740  145.5510 C   0  0  0  0  0  0  0  0  0  0  0  0
  186.9310  177.6580  144.2200 C   0  0  0  0  0  0  0  0  0  0  0  0
  185.5390  178.5100  146.0320 C   0  0  0  0  0  3  0  0  0  0  0  0
  1  4  1  6  0  0  0
  1  3  1  0  0  0  0
  2  8  1  6  0  0  0
  2  6  1  0  0  0  0
  3  7  1  0  0  0  0
  5  2  1  0  0  0  0
  5  1  1  0  0  0  0
  6  7  1  0  0  0  0
  6 19  1  0  0  0  0
  8 10  1  0  0  0  0
  8  9  1  1  0  0  0
 10 12  1  0  0  0  0
 12 11  2  0  0  0  0
 13 11  1  0  0  0  0
 14 13  2  0  0  0  0
 15 14  1  0  0  0  0
 15 10  2  0  0  0  0
 16 18  1  0  0  0  0
 18 17  1  0  0  0  0
 18 15  1  0  0  0  0
 19 20  1  0  0  0  0
 20 21  1  0  0  0  0
 21 27  1  0  0  0  0
 22 26  1  0  0  0  0
 22 31  1  0  0  0  0
 23 28  1  0  0  0  0
 23 30  2  0  0  0  0
 25 24  1  0  0  0  0
 27 30  1  0  0  0  0
 27 25  2  0  0  0  0
 28 22  2  0  0  0  0
 29 31  2  0  0  0  0
 29 24  1  0  0  0  0
 30 29  1  0  0  0  0
M  END
>  <MODEL>
6

>  <REMARK>
 VINA RESULT:      -7.9      2.980      7.426
  Name = 
  7 active torsions:
  status: ('A' for Active; 'I' for Inactive)
    1  A    between atoms: C_4  and  C_5
    2  A    between atoms: C_4  and  C_12
    3  A    between atoms: C_9  and  C_23
    4  A    between atoms: C_15  and  C_20
    5  A    between atoms: C_15  and  C_23
    6  A    between atoms: C_20  and  N_27
    7  A    between atoms: C_30  and  C_31
                            x       y       z     vdW  Elec       q    Type
                         _______ _______ _______ _____ _____    ______ ____

>  <TORSDO>
F 7

$$$$
=
 OpenBabel10272400283D

 31 34  0  0  1  0  0  0  0  0999 V2000
  191.0120  177.2210  146.3070 C   0  0  2  0  0  3  0  0  0  0  0  0
  189.0700  177.3540  144.7590 C   0  0  1  0  0  3  0  0  0  0  0  0
  191.8230  176.9660  145.1910 O   0  0  0  0  0  0  0  0  0  0  0  0
  191.5860  176.5230  147.5220 C   0  0  0  0  0  1  0  0  0  0  0  0
  189.6030  176.7070  146.0440 C   0  0  0  0  0  2  0  0  0  0  0  0
  190.0580  177.2820  143.6690 N   0  0  0  0  0  0  0  0  0  0  0  0
  191.3380  177.7950  144.1670 C   0  0  0  0  0  2  0  0  0  0  0  0
  187.7160  176.7430  144.3430 C   0  0  2  0  0  3  0  0  0  0  0  0
  187.8850  175.7780  143.3470 O   0  0  0  0  0  1  0  0  0  0  0  0
  186.6680  177.7480  143.9410 C   0  0  0  0  0  0  0  0  0  0  0  0
  185.4680  178.9440  142.1950 C   0  0  0  0  0  3  0  0  0  0  0  0
  186.4560  178.0370  142.5840 C   0  0  0  0  0  3  0  0  0  0  0  0
  184.6720  179.5630  143.1580 C   0  0  0  0  0  3  0  0  0  0  0  0
  184.8620  179.2740  144.5100 C   0  0  0  0  0  3  0  0  0  0  0  0
  185.8610  178.3730  144.9160 C   0  0  0  0  0  0  0  0  0  0  0  0
  184.6750  178.0270  147.0740 C   0  0  0  0  0  1  0  0  0  0  0  0
  186.9630  179.0000  147.0740 C   0  0  0  0  0  1  0  0  0  0  0  0
  186.0210  178.0380  146.3730 C   0  0  0  0  0  3  0  0  0  0  0  0
  189.6370  178.2060  142.6230 C   0  0  0  0  0  2  0  0  0  0  0  0
  190.3720  177.9000  141.3270 C   0  0  0  0  0  2  0  0  0  0  0  0
  189.5670  176.9330  140.4750 C   0  0  0  0  0  2  0  0  0  0  0  0
  190.7320  175.5280  135.5410 C   0  0  0  0  0  0  0  0  0  0  0  0
  190.5830  175.4440  137.9810 C   0  0  0  0  0  3  0  0  0  0  0  0
  188.9340  178.7420  137.1050 S   0  0  0  0  0  0  0  0  0  0  0  0
  188.8670  178.6060  138.7670 N   0  0  0  0  0  0  0  0  0  0  0  0
  191.1290  174.9410  134.3470 O   0  0  0  0  0  1  0  0  0  0  0  0
  189.4670  177.4210  139.0660 C   0  0  0  0  0  0  0  0  0  0  0  0
  190.9780  174.8670  136.7610 C   0  0  0  0  0  3  0  0  0  0  0  0
  189.7090  177.3160  136.7490 C   0  0  0  0  0  0  0  0  0  0  0  0
  189.9410  176.6850  137.9580 C   0  0  0  0  0  0  0  0  0  0  0  0
  190.0860  176.7750  135.5250 C   0  0  0  0  0  3  0  0  0  0  0  0
  1  4  1  1  0  0  0
  2  8  1  6  0  0  0
  2  5  1  0  0  0  0
  3  1  1  0  0  0  0
  5  1  1  0  0  0  0
  6  7  1  0  0  0  0
  6  2  1  0  0  0  0
  7  3  1  0  0  0  0
  8  9  1  6  0  0  0
 10  8  1  0  0  0  0
 10 15  1  0  0  0  0
 11 12  1  0  0  0  0
 11 13  2  0  0  0  0
 12 10  2  0  0  0  0
 13 14  1  0  0  0  0
 14 15  2  0  0  0  0
 15 18  1  0  0  0  0
 18 17  1  0  0  0  0
 18 16  1  0  0  0  0
 19  6  1  0  0  0  0
 20 19  1  0  0  0  0
 21 20  1  0  0  0  0
 22 28  1  0  0  0  0
 24 25  1  0  0  0  0
 25 27  2  0  0  0  0
 26 22  1  0  0  0  0
 27 21  1  0  0  0  0
 28 23  2  0  0  0  0
 29 24  1  0  0  0  0
 29 30  2  0  0  0  0
 30 23  1  0  0  0  0
 30 27  1  0  0  0  0
 31 22  2  0  0  0  0
 31 29  1  0  0  0  0
M  END
>  <MODEL>
7

>  <REMARK>
 VINA RESULT:      -7.8      1.978      2.352
  Name = 
  7 active torsions:
  status: ('A' for Active; 'I' for Inactive)
    1  A    between atoms: C_4  and  C_5
    2  A    between atoms: C_4  and  C_12
    3  A    between atoms: C_9  and  C_23
    4  A    between atoms: C_15  and  C_20
    5  A    between atoms: C_15  and  C_23
    6  A    between atoms: C_20  and  N_27
    7  A    between atoms: C_30  and  C_31
                            x       y       z     vdW  Elec       q    Type
                         _______ _______ _______ _____ _____    ______ ____

>  <TORSDO>
F 7

$$$$
=
 OpenBabel10272400283D

 31 34  0  0  1  0  0  0  0  0999 V2000
  191.7770  176.1740  138.2250 C   0  0  2  0  0  3  0  0  0  0  0  0
  189.4820  177.1210  138.0780 C   0  0  1  0  0  3  0  0  0  0  0  0
  191.9810  176.9680  139.3630 O   0  0  0  0  0  0  0  0  0  0  0  0
  193.0910  175.9840  137.4970 C   0  0  0  0  0  1  0  0  0  0  0  0
  190.7770  176.8520  137.2990 C   0  0  0  0  0  2  0  0  0  0  0  0
  189.7580  177.7380  139.3870 N   0  0  0  0  0  0  0  0  0  0  0  0
  190.7720  176.9340  140.0760 C   0  0  0  0  0  2  0  0  0  0  0  0
  188.4920  177.9620  137.2470 C   0  0  2  0  0  3  0  0  0  0  0  0
  188.5840  179.3170  137.5770 O   0  0  0  0  0  1  0  0  0  0  0  0
  187.0610  177.4930  137.3070 C   0  0  0  0  0  0  0  0  0  0  0  0
  184.7690  177.8420  138.0430 C   0  0  0  0  0  3  0  0  0  0  0  0
  186.1040  178.2490  138.0030 C   0  0  0  0  0  3  0  0  0  0  0  0
  184.3720  176.6840  137.3760 C   0  0  0  0  0  3  0  0  0  0  0  0
  185.3110  175.9310  136.6680 C   0  0  0  0  0  3  0  0  0  0  0  0
  186.6600  176.3220  136.6300 C   0  0  0  0  0  0  0  0  0  0  0  0
  187.2290  175.4660  134.3660 C   0  0  0  0  0  1  0  0  0  0  0  0
  187.8250  174.1220  136.3730 C   0  0  0  0  0  1  0  0  0  0  0  0
  187.6480  175.5270  135.8240 C   0  0  0  0  0  3  0  0  0  0  0  0
  188.5490  177.6350  140.1920 C   0  0  0  0  0  2  0  0  0  0  0  0
  188.7650  178.2920  141.5470 C   0  0  0  0  0  2  0  0  0  0  0  0
  188.1580  177.4430  142.6520 C   0  0  0  0  0  2  0  0  0  0  0  0
  188.2660  177.7500  147.9030 C   0  0  0  0  0  0  0  0  0  0  0  0
  187.4090  177.8220  145.6130 C   0  0  0  0  0  3  0  0  0  0  0  0
  191.0690  176.9440  145.1640 S   0  0  0  0  0  0  0  0  0  0  0  0
  190.4070  177.0070  143.6330 N   0  0  0  0  0  0  0  0  0  0  0  0
  188.0410  177.8760  149.2670 O   0  0  0  0  0  1  0  0  0  0  0  0
  189.0950  177.3290  143.8110 C   0  0  0  0  0  0  0  0  0  0  0  0
  187.2030  177.9460  146.9980 C   0  0  0  0  0  3  0  0  0  0  0  0
  189.7180  177.3130  146.0580 C   0  0  0  0  0  0  0  0  0  0  0  0
  188.6890  177.5000  145.1530 C   0  0  0  0  0  0  0  0  0  0  0  0
  189.5500  177.4270  147.4330 C   0  0  0  0  0  3  0  0  0  0  0  0
  1  4  1  6  0  0  0
  1  3  1  0  0  0  0
  2  8  1  6  0  0  0
  2  6  1  0  0  0  0
  3  7  1  0  0  0  0
  5  2  1  0  0  0  0
  5  1  1  0  0  0  0
  6  7  1  0  0  0  0
  6 19  1  0  0  0  0
  8 10  1  0  0  0  0
  8  9  1  1  0  0  0
 10 12  1  0  0  0  0
 12 11  2  0  0  0  0
 13 11  1  0  0  0  0
 14 13  2  0  0  0  0
 15 14  1  0  0  0  0
 15 10  2  0  0  0  0
 16 18  1  0  0  0  0
 18 17  1  0  0  0  0
 18 15  1  0  0  0  0
 19 20  1  0  0  0  0
 20 21  1  0  0  0  0
 21 27  1  0  0  0  0
 22 26  1  0  0  0  0
 23 28  1  0  0  0  0
 24 29  1  0  0  0  0
 25 27  2  0  0  0  0
 25 24  1  0  0  0  0
 27 30  1  0  0  0  0
 28 22  2  0  0  0  0
 29 31  2  0  0  0  0
 30 23  2  0  0  0  0
 30 29  1  0  0  0  0
 31 22  1  0  0  0  0
M  END
>  <MODEL>
8

>  <REMARK>
 VINA RESULT:      -7.7      2.775      7.941
  Name = 
  7 active torsions:
  status: ('A' for Active; 'I' for Inactive)
    1  A    between atoms: C_4  and  C_5
    2  A    between atoms: C_4  and  C_12
    3  A    between atoms: C_9  and  C_23
    4  A    between atoms: C_15  and  C_20
    5  A    between atoms: C_15  and  C_23
    6  A    between atoms: C_20  and  N_27
    7  A    between atoms: C_30  and  C_31
                            x       y       z     vdW  Elec       q    Type
                         _______ _______ _______ _____ _____    ______ ____

>  <TORSDO>
F 7

$$$$
=
 OpenBabel10272400283D

 31 34  0  0  1  0  0  0  0  0999 V2000
  190.5410  177.6610  140.5380 C   0  0  2  0  0  3  0  0  0  0  0  0
  189.1000  177.3350  142.5390 C   0  0  1  0  0  3  0  0  0  0  0  0
  189.3710  177.7790  139.7740 O   0  0  0  0  0  0  0  0  0  0  0  0
  191.6430  177.0600  139.6910 C   0  0  0  0  0  1  0  0  0  0  0  0
  190.2800  176.7630  141.7410 C   0  0  0  0  0  2  0  0  0  0  0  0
  187.9690  177.6790  141.6600 N   0  0  0  0  0  0  0  0  0  0  0  0
  188.4700  178.5110  140.5620 C   0  0  0  0  0  2  0  0  0  0  0  0
  188.6730  176.3790  143.6710 C   0  0  2  0  0  3  0  0  0  0  0  0
  187.5440  175.6410  143.3060 O   0  0  0  0  0  1  0  0  0  0  0  0
  188.4710  177.0380  145.0110 C   0  0  0  0  0  0  0  0  0  0  0  0
  186.9700  177.9640  146.6870 C   0  0  0  0  0  3  0  0  0  0  0  0
  187.1770  177.3790  145.4370 C   0  0  0  0  0  3  0  0  0  0  0  0
  188.0530  178.2020  147.5330 C   0  0  0  0  0  3  0  0  0  0  0  0
  189.3430  177.8540  147.1290 C   0  0  0  0  0  3  0  0  0  0  0  0
  189.5660  177.2770  145.8680 C   0  0  0  0  0  0  0  0  0  0  0  0
  191.7230  176.3260  146.6610 C   0  0  0  0  0  1  0  0  0  0  0  0
  191.7230  178.0110  144.8310 C   0  0  0  0  0  1  0  0  0  0  0  0
  190.9560  176.8650  145.4670 C   0  0  0  0  0  3  0  0  0  0  0  0
  187.0550  178.5230  142.4180 C   0  0  0  0  0  2  0  0  0  0  0  0
  185.6150  178.1350  142.1200 C   0  0  0  0  0  2  0  0  0  0  0  0
  184.9480  179.1930  141.2570 C   0  0  0  0  0  2  0  0  0  0  0  0
  184.5750  177.1180  136.4370 C   0  0  0  0  0  0  0  0  0  0  0  0
  185.5420  178.2050  138.4040 C   0  0  0  0  0  3  0  0  0  0  0  0
  181.9290  177.6280  139.3950 S   0  0  0  0  0  0  0  0  0  0  0  0
  182.6640  178.3680  140.6980 N   0  0  0  0  0  0  0  0  0  0  0  0
  184.7290  176.6190  135.1510 O   0  0  0  0  0  1  0  0  0  0  0  0
  183.9580  178.5740  140.3240 C   0  0  0  0  0  0  0  0  0  0  0  0
  185.6770  177.6950  137.1010 C   0  0  0  0  0  3  0  0  0  0  0  0
  183.2260  177.5550  138.3590 C   0  0  0  0  0  0  0  0  0  0  0  0
  184.2930  178.1260  139.0280 C   0  0  0  0  0  0  0  0  0  0  0  0
  183.3240  177.0410  137.0710 C   0  0  0  0  0  3  0  0  0  0  0  0
  1  4  1  6  0  0  0
  1  5  1  0  0  0  0
  2  8  1  1  0  0  0
  3  1  1  0  0  0  0
  3  7  1  0  0  0  0
  5  2  1  0  0  0  0
  6 19  1  0  0  0  0
  6  2  1  0  0  0  0
  7  6  1  0  0  0  0
  8  9  1  6  0  0  0
  8 10  1  0  0  0  0
 10 12  2  0  0  0  0
 10 15  1  0  0  0  0
 11 13  2  0  0  0  0
 12 11  1  0  0  0  0
 14 13  1  0  0  0  0
 15 14  2  0  0  0  0
 17 18  1  0  0  0  0
 18 15  1  0  0  0  0
 18 16  1  0  0  0  0
 20 19  1  0  0  0  0
 21 20  1  0  0  0  0
 22 31  2  0  0  0  0
 22 28  1  0  0  0  0
 23 30  1  0  0  0  0
 24 25  1  0  0  0  0
 26 22  1  0  0  0  0
 27 25  2  0  0  0  0
 27 21  1  0  0  0  0
 28 23  2  0  0  0  0
 29 30  2  0  0  0  0
 29 24  1  0  0  0  0
 30 27  1  0  0  0  0
 31 29  1  0  0  0  0
M  END
>  <MODEL>
9

>  <REMARK>
 VINA RESULT:      -7.6      2.698      4.962
  Name = 
  7 active torsions:
  status: ('A' for Active; 'I' for Inactive)
    1  A    between atoms: C_4  and  C_5
    2  A    between atoms: C_4  and  C_12
    3  A    between atoms: C_9  and  C_23
    4  A    between atoms: C_15  and  C_20
    5  A    between atoms: C_15  and  C_23
    6  A    between atoms: C_20  and  N_27
    7  A    between atoms: C_30  and  C_31
                            x       y       z     vdW  Elec       q    Type
                         _______ _______ _______ _____ _____    ______ ____

>  <TORSDO>
F 7

$$$$
