=
 OpenBabel10272414453D

 37 42  0  0  1  0  0  0  0  0999 V2000
  185.9110  180.0810  142.1940 O   0  0  0  0  0  1  0  0  0  0  0  0
  190.9990  177.0170  141.1010 C   0  0  0  0  0  2  0  0  0  0  0  0
  187.2180  177.9840  138.7820 C   0  0  0  0  0  0  0  0  0  0  0  0
  184.1230  179.6010  139.8070 C   0  0  0  0  0  2  0  0  0  0  0  0
  189.8190  177.8720  139.0520 C   0  0  2  0  0  3  0  0  0  0  0  0
  186.1790  178.1500  139.6950 C   0  0  0  0  0  0  0  0  0  0  0  0
  188.3920  177.9710  139.5340 C   0  0  0  0  0  0  0  0  0  0  0  0
  184.7060  178.2620  139.3930 C   0  0  1  0  0  0  0  0  0  0  0  0
  189.8910  177.7490  137.6650 O   0  0  0  0  0  1  0  0  0  0  0  0
  188.0200  178.1490  140.8600 C   0  0  0  0  0  0  0  0  0  0  0  0
  188.3730  178.4780  143.2250 O   0  0  0  0  0  1  0  0  0  0  0  0
  185.8930  177.3970  136.7000 C   0  0  0  0  0  2  0  0  0  0  0  0
  187.2180  179.3900  136.8610 O   0  0  0  0  0  1  0  0  0  0  0  0
  189.0060  178.2590  142.0020 C   0  0  1  0  0  3  0  0  0  0  0  0
  183.7430  178.3340  140.5780 C   0  0  1  0  0  3  0  0  0  0  0  0
  187.1370  178.0610  137.2800 C   0  0  1  0  0  3  0  0  0  0  0  0
  186.6740  178.2640  140.9430 N   0  0  0  0  0  0  0  0  0  0  0  0
  190.5220  176.6850  139.6940 C   0  0  0  0  0  2  0  0  0  0  0  0
  184.1840  177.5910  138.0920 C   0  0  2  0  0  3  0  0  0  0  0  0
  189.8530  176.9990  142.1060 C   0  0  0  0  0  2  0  0  0  0  0  0
  184.4320  178.1740  141.9530 C   0  0  1  0  0  3  0  0  0  0  0  0
  185.8790  178.6870  142.0900 C   0  0  2  0  0  3  0  0  0  0  0  0
  184.7550  178.1690  136.9580 O   0  0  0  0  0  0  0  0  0  0  0  0
  182.3020  178.1240  136.7110 C   0  0  0  0  0  2  0  0  0  0  0  0
  182.7320  177.3970  137.9140 N   0  0  1  0  0  0  0  0  0  0  0  0
  182.3290  175.9750  137.9130 C   0  0  1  0  0  3  0  0  0  0  0  0
  182.2360  175.4600  139.3390 C   0  0  0  0  0  1  0  0  0  0  0  0
  180.2310  176.9710  137.2940 O   0  0  0  0  0  0  0  0  0  0  0  0
  180.9690  175.7780  137.2350 C   0  0  0  0  0  2  0  0  0  0  0  0
  180.8300  177.8430  136.3670 C   0  0  0  0  0  2  0  0  0  0  0  0
  183.4940  178.5050  143.1240 C   0  0  2  0  0  3  0  0  0  0  0  0
  182.1400  179.0100  142.6450 C   0  0  0  0  0  2  0  0  0  0  0  0
  181.0810  178.7720  143.7050 C   0  0  0  0  0  1  0  0  0  0  0  0
  184.1300  179.5050  144.0830 C   0  0  0  0  0  2  0  0  0  0  0  0
  184.1310  178.9940  145.3820 O   0  0  0  0  0  0  0  0  0  0  0  0
  186.1550  177.8510  145.8820 C   0  0  0  0  0  1  0  0  0  0  0  0
  185.4370  179.1850  145.8300 C   0  0  0  0  0  2  0  0  0  0  0  0
  2 20  1  0  0  0  0
  3  7  1  0  0  0  0
  3  6  2  0  0  0  0
  5  9  1  6  0  0  0
  5  7  1  0  0  0  0
  5 18  1  0  0  0  0
  6 17  1  0  0  0  0
  7 10  2  0  0  0  0
  8  6  1  0  0  0  0
  8  4  1  6  0  0  0
  8 15  1  0  0  0  0
 10 17  1  0  0  0  0
 10 14  1  0  0  0  0
 12 23  1  0  0  0  0
 12 16  1  0  0  0  0
 14 20  1  0  0  0  0
 14 11  1  1  0  0  0
 15  4  1  1  0  0  0
 15 21  1  0  0  0  0
 16 13  1  1  0  0  0
 16  3  1  0  0  0  0
 17 22  1  0  0  0  0
 18  2  1  0  0  0  0
 19 23  1  6  0  0  0
 19  8  1  0  0  0  0
 21 22  1  0  0  0  0
 21 31  1  1  0  0  0
 22  1  1  6  0  0  0
 25 24  1  6  0  0  0
 25 19  1  0  0  0  0
 26 25  1  0  0  0  0
 26 27  1  1  0  0  0
 29 28  1  0  0  0  0
 29 26  1  0  0  0  0
 30 24  1  0  0  0  0
 30 28  1  0  0  0  0
 31 32  1  6  0  0  0
 31 34  1  0  0  0  0
 32 33  1  0  0  0  0
 34 35  1  0  0  0  0
 35 37  1  0  0  0  0
 37 36  1  0  0  0  0
M  END
>  <MODEL>
1

>  <REMARK>
 VINA RESULT:      -7.5      0.000      0.000
  Name = 
  6 active torsions:
  status: ('A' for Active; 'I' for Inactive)
    1  A    between atoms: O_5  and  C_17
    2  A    between atoms: O_5  and  C_23
    3  A    between atoms: N_6  and  C_31
    4  A    between atoms: C_11  and  C_26
    5  A    between atoms: C_17  and  C_26
    6  A    between atoms: C_26  and  C_33
                            x       y       z     vdW  Elec       q    Type
                         _______ _______ _______ _____ _____    ______ ____

>  <TORSDO>
F 6

$$$$
=
 OpenBabel10272414453D

 37 42  0  0  1  0  0  0  0  0999 V2000
  186.0040  180.2710  141.9790 O   0  0  0  0  0  1  0  0  0  0  0  0
  190.9410  176.9270  141.0290 C   0  0  0  0  0  2  0  0  0  0  0  0
  187.1780  177.9130  138.6910 C   0  0  0  0  0  0  0  0  0  0  0  0
  184.1690  179.7240  139.6430 C   0  0  0  0  0  2  0  0  0  0  0  0
  189.7750  177.7050  138.9430 C   0  0  2  0  0  3  0  0  0  0  0  0
  186.1590  178.1800  139.6020 C   0  0  0  0  0  0  0  0  0  0  0  0
  188.3590  177.8950  139.4310 C   0  0  0  0  0  0  0  0  0  0  0  0
  184.6880  178.3390  139.3070 C   0  0  1  0  0  0  0  0  0  0  0  0
  189.8250  177.4940  137.5650 O   0  0  0  0  0  1  0  0  0  0  0  0
  188.0120  178.1710  140.7460 C   0  0  0  0  0  0  0  0  0  0  0  0
  188.4070  178.6290  143.0830 O   0  0  0  0  0  1  0  0  0  0  0  0
  185.8040  177.2580  136.6620 C   0  0  0  0  0  2  0  0  0  0  0  0
  187.2160  179.1980  136.6870 O   0  0  0  0  0  1  0  0  0  0  0  0
  189.0160  178.3070  141.8700 C   0  0  1  0  0  3  0  0  0  0  0  0
  183.7440  178.5250  140.4950 C   0  0  1  0  0  3  0  0  0  0  0  0
  187.0830  177.9020  137.1870 C   0  0  1  0  0  3  0  0  0  0  0  0
  186.6730  178.3490  140.8360 N   0  0  0  0  0  0  0  0  0  0  0  0
  190.4340  176.5290  139.6500 C   0  0  0  0  0  2  0  0  0  0  0  0
  184.1220  177.6120  138.0550 C   0  0  2  0  0  3  0  0  0  0  0  0
  189.8090  177.0200  142.0440 C   0  0  0  0  0  2  0  0  0  0  0  0
  184.4420  178.4200  141.8700 C   0  0  1  0  0  3  0  0  0  0  0  0
  185.9110  178.8770  141.9620 C   0  0  2  0  0  3  0  0  0  0  0  0
  184.7040  178.0930  136.8820 O   0  0  0  0  0  0  0  0  0  0  0  0
  182.2470  178.1510  136.6670 C   0  0  0  0  0  2  0  0  0  0  0  0
  182.6610  177.4710  137.9030 N   0  0  1  0  0  0  0  0  0  0  0  0
  182.1980  176.0700  137.9820 C   0  0  1  0  0  3  0  0  0  0  0  0
  182.1020  175.6360  139.4350 C   0  0  0  0  0  1  0  0  0  0  0  0
  180.1370  177.1200  137.3330 O   0  0  0  0  0  0  0  0  0  0  0  0
  180.8220  175.8960  137.3300 C   0  0  0  0  0  2  0  0  0  0  0  0
  180.7590  177.9160  136.3540 C   0  0  0  0  0  2  0  0  0  0  0  0
  183.5330  178.8620  143.0270 C   0  0  2  0  0  3  0  0  0  0  0  0
  183.8930  178.1670  144.3330 C   0  0  0  0  0  2  0  0  0  0  0  0
  184.6380  179.1170  145.2510 C   0  0  0  0  0  1  0  0  0  0  0  0
  182.0610  178.6480  142.6940 C   0  0  0  0  0  2  0  0  0  0  0  0
  181.3390  179.8210  142.9230 O   0  0  0  0  0  0  0  0  0  0  0  0
  180.0060  178.2270  144.0790 C   0  0  0  0  0  1  0  0  0  0  0  0
  180.0260  179.3900  143.1080 C   0  0  0  0  0  2  0  0  0  0  0  0
  2 20  1  0  0  0  0
  3  7  1  0  0  0  0
  3  6  2  0  0  0  0
  5  9  1  6  0  0  0
  5  7  1  0  0  0  0
  5 18  1  0  0  0  0
  6 17  1  0  0  0  0
  7 10  2  0  0  0  0
  8  6  1  0  0  0  0
  8  4  1  6  0  0  0
  8 15  1  0  0  0  0
 10 17  1  0  0  0  0
 10 14  1  0  0  0  0
 12 23  1  0  0  0  0
 12 16  1  0  0  0  0
 14 20  1  0  0  0  0
 14 11  1  1  0  0  0
 15  4  1  6  0  0  0
 15 21  1  0  0  0  0
 16 13  1  1  0  0  0
 16  3  1  0  0  0  0
 17 22  1  0  0  0  0
 18  2  1  0  0  0  0
 19 23  1  6  0  0  0
 19  8  1  0  0  0  0
 21 22  1  0  0  0  0
 21 31  1  1  0  0  0
 22  1  1  6  0  0  0
 25 24  1  6  0  0  0
 25 26  1  0  0  0  0
 25 19  1  0  0  0  0
 26 27  1  1  0  0  0
 29 28  1  0  0  0  0
 29 26  1  0  0  0  0
 30 24  1  0  0  0  0
 30 28  1  0  0  0  0
 31 34  1  6  0  0  0
 31 32  1  0  0  0  0
 32 33  1  0  0  0  0
 34 35  1  0  0  0  0
 35 37  1  0  0  0  0
 37 36  1  0  0  0  0
M  END
>  <MODEL>
2

>  <REMARK>
 VINA RESULT:      -6.9      0.812      1.818
  Name = 
  6 active torsions:
  status: ('A' for Active; 'I' for Inactive)
    1  A    between atoms: O_5  and  C_17
    2  A    between atoms: O_5  and  C_23
    3  A    between atoms: N_6  and  C_31
    4  A    between atoms: C_11  and  C_26
    5  A    between atoms: C_17  and  C_26
    6  A    between atoms: C_26  and  C_33
                            x       y       z     vdW  Elec       q    Type
                         _______ _______ _______ _____ _____    ______ ____

>  <TORSDO>
F 6

$$$$
=
 OpenBabel10272414453D

 37 42  0  0  1  0  0  0  0  0999 V2000
  189.3380  179.0150  138.5020 O   0  0  0  0  0  1  0  0  0  0  0  0
  185.3360  176.0290  135.1060 C   0  0  0  0  0  2  0  0  0  0  0  0
  185.2570  178.1640  139.1120 C   0  0  0  0  0  0  0  0  0  0  0  0
  187.9290  179.6220  141.1050 C   0  0  0  0  0  2  0  0  0  0  0  0
  184.3340  177.6860  136.7100 C   0  0  2  0  0  3  0  0  0  0  0  0
  186.5340  178.0990  139.6630 C   0  0  0  0  0  0  0  0  0  0  0  0
  185.3910  177.7560  137.7850 C   0  0  0  0  0  0  0  0  0  0  0  0
  186.9430  178.4700  141.0670 C   0  0  1  0  0  0  0  0  0  0  0  0
  183.0800  178.0660  137.1880 O   0  0  0  0  0  1  0  0  0  0  0  0
  186.7370  177.4830  137.5840 C   0  0  0  0  0  0  0  0  0  0  0  0
  188.7030  176.8960  136.3120 O   0  0  0  0  0  1  0  0  0  0  0  0
  183.8800  178.5130  141.2130 C   0  0  0  0  0  2  0  0  0  0  0  0
  184.0120  180.1610  139.4740 O   0  0  0  0  0  1  0  0  0  0  0  0
  187.3200  177.0670  136.2510 C   0  0  1  0  0  3  0  0  0  0  0  0
  188.3940  178.2110  141.4730 C   0  0  1  0  0  3  0  0  0  0  0  0
  184.0280  178.7870  139.7200 C   0  0  1  0  0  3  0  0  0  0  0  0
  187.4220  177.7020  138.7310 N   0  0  0  0  0  0  0  0  0  0  0  0
  184.2420  176.2800  136.1360 C   0  0  0  0  0  2  0  0  0  0  0  0
  185.8650  178.3720  142.1810 C   0  0  2  0  0  3  0  0  0  0  0  0
  186.6860  175.7720  135.7650 C   0  0  0  0  0  2  0  0  0  0  0  0
  189.2280  177.4930  140.3870 C   0  0  1  0  0  3  0  0  0  0  0  0
  188.8670  177.7650  138.9140 C   0  0  2  0  0  3  0  0  0  0  0  0
  184.8110  179.2560  141.9460 O   0  0  0  0  0  0  0  0  0  0  0  0
  185.3460  179.2620  144.3430 C   0  0  0  0  0  2  0  0  0  0  0  0
  186.2840  178.4120  143.5950 N   0  0  1  0  0  0  0  0  0  0  0  0
  186.4570  177.0700  144.1900 C   0  0  1  0  0  3  0  0  0  0  0  0
  187.8070  176.4960  143.7930 C   0  0  0  0  0  1  0  0  0  0  0  0
  186.7200  178.4060  146.1700 O   0  0  0  0  0  0  0  0  0  0  0  0
  186.3820  177.1200  145.7200 C   0  0  0  0  0  2  0  0  0  0  0  0
  185.6220  179.2270  145.8560 C   0  0  0  0  0  2  0  0  0  0  0  0
  190.7300  177.4770  140.7130 C   0  0  2  0  0  3  0  0  0  0  0  0
  191.5490  176.8460  139.5950 C   0  0  0  0  0  2  0  0  0  0  0  0
  192.9910  177.3100  139.6690 C   0  0  0  0  0  1  0  0  0  0  0  0
  191.0060  176.7780  142.0400 C   0  0  0  0  0  2  0  0  0  0  0  0
  191.9820  177.4720  142.7560 O   0  0  0  0  0  0  0  0  0  0  0  0
  191.0120  179.2570  143.9920 C   0  0  0  0  0  1  0  0  0  0  0  0
  191.3680  177.7830  143.9690 C   0  0  0  0  0  2  0  0  0  0  0  0
  2 20  1  0  0  0  0
  2 18  1  0  0  0  0
  3  6  2  0  0  0  0
  3 16  1  0  0  0  0
  5  9  1  1  0  0  0
  5  7  1  0  0  0  0
  6  8  1  0  0  0  0
  7  3  1  0  0  0  0
  8  4  1  6  0  0  0
  8 15  1  0  0  0  0
  8 19  1  0  0  0  0
 10  7  2  0  0  0  0
 10 17  1  0  0  0  0
 12 23  1  0  0  0  0
 14 11  1  1  0  0  0
 14 10  1  0  0  0  0
 15  4  1  6  0  0  0
 16 13  1  1  0  0  0
 16 12  1  0  0  0  0
 17 22  1  0  0  0  0
 17  6  1  0  0  0  0
 18  5  1  0  0  0  0
 19 23  1  6  0  0  0
 19 25  1  0  0  0  0
 20 14  1  0  0  0  0
 21 31  1  6  0  0  0
 21 15  1  0  0  0  0
 22  1  1  1  0  0  0
 22 21  1  0  0  0  0
 24 30  1  0  0  0  0
 25 26  1  0  0  0  0
 25 24  1  1  0  0  0
 26 27  1  1  0  0  0
 26 29  1  0  0  0  0
 29 28  1  0  0  0  0
 30 28  1  0  0  0  0
 31 32  1  6  0  0  0
 31 34  1  0  0  0  0
 32 33  1  0  0  0  0
 34 35  1  0  0  0  0
 35 37  1  0  0  0  0
 37 36  1  0  0  0  0
M  END
>  <MODEL>
3

>  <REMARK>
 VINA RESULT:      -6.7      2.084      6.757
  Name = 
  6 active torsions:
  status: ('A' for Active; 'I' for Inactive)
    1  A    between atoms: O_5  and  C_17
    2  A    between atoms: O_5  and  C_23
    3  A    between atoms: N_6  and  C_31
    4  A    between atoms: C_11  and  C_26
    5  A    between atoms: C_17  and  C_26
    6  A    between atoms: C_26  and  C_33
                            x       y       z     vdW  Elec       q    Type
                         _______ _______ _______ _____ _____    ______ ____

>  <TORSDO>
F 6

$$$$
=
 OpenBabel10272414453D

 37 42  0  0  1  0  0  0  0  0999 V2000
  191.1110  178.1080  140.7880 O   0  0  0  0  0  1  0  0  0  0  0  0
  191.3600  175.2030  135.5000 C   0  0  0  0  0  2  0  0  0  0  0  0
  188.2500  177.6450  137.7310 C   0  0  0  0  0  0  0  0  0  0  0  0
  188.2510  179.0310  141.0950 C   0  0  0  0  0  2  0  0  0  0  0  0
  189.6650  177.0570  135.6090 C   0  0  2  0  0  3  0  0  0  0  0  0
  188.4970  177.5190  139.0950 C   0  0  0  0  0  0  0  0  0  0  0  0
  189.3730  177.1240  137.0880 C   0  0  0  0  0  0  0  0  0  0  0  0
  187.6080  177.9630  140.2300 C   0  0  1  0  0  0  0  0  0  0  0  0
  188.6170  177.5750  134.8480 O   0  0  0  0  0  1  0  0  0  0  0  0
  190.2550  176.7270  138.0830 C   0  0  0  0  0  0  0  0  0  0  0  0
  192.3300  175.8840  138.9840 O   0  0  0  0  0  1  0  0  0  0  0  0
  185.7920  178.2690  137.7770 C   0  0  0  0  0  2  0  0  0  0  0  0
  187.4810  179.7590  136.9510 O   0  0  0  0  0  1  0  0  0  0  0  0
  191.6320  176.1620  137.8090 C   0  0  1  0  0  3  0  0  0  0  0  0
  188.0490  177.6190  141.6530 C   0  0  1  0  0  3  0  0  0  0  0  0
  187.1350  178.4120  137.0690 C   0  0  1  0  0  3  0  0  0  0  0  0
  189.7140  176.9780  139.2980 N   0  0  0  0  0  0  0  0  0  0  0  0
  189.9320  175.6230  135.1780 C   0  0  0  0  0  2  0  0  0  0  0  0
  186.0800  178.0420  139.9590 C   0  0  2  0  0  3  0  0  0  0  0  0
  191.5370  174.8880  136.9800 C   0  0  0  0  0  2  0  0  0  0  0  0
  189.3280  176.7530  141.7170 C   0  0  1  0  0  3  0  0  0  0  0  0
  190.3720  176.9370  140.5990 C   0  0  2  0  0  3  0  0  0  0  0  0
  185.7860  178.9880  138.9760 O   0  0  0  0  0  0  0  0  0  0  0  0
  185.6080  179.2490  141.9730 C   0  0  0  0  0  2  0  0  0  0  0  0
  185.1510  178.1580  141.0990 N   0  0  1  0  0  0  0  0  0  0  0  0
  183.7370  178.2910  140.6900 C   0  0  1  0  0  3  0  0  0  0  0  0
  183.1650  176.9260  140.3460 C   0  0  0  0  0  1  0  0  0  0  0  0
  183.4920  178.6780  143.0490 O   0  0  0  0  0  0  0  0  0  0  0  0
  182.8850  178.9080  141.8040 C   0  0  0  0  0  2  0  0  0  0  0  0
  184.6040  179.5380  143.1020 C   0  0  0  0  0  2  0  0  0  0  0  0
  189.8910  176.6390  143.1420 C   0  0  2  0  0  3  0  0  0  0  0  0
  190.6690  175.3470  143.3460 C   0  0  0  0  0  2  0  0  0  0  0  0
  191.9470  175.6150  144.1190 C   0  0  0  0  0  1  0  0  0  0  0  0
  188.7910  176.7730  144.1900 C   0  0  0  0  0  2  0  0  0  0  0  0
  189.2350  177.5530  145.2580 O   0  0  0  0  0  0  0  0  0  0  0  0
  186.8580  177.6130  145.2600 C   0  0  0  0  0  1  0  0  0  0  0  0
  188.1230  177.6640  146.0930 C   0  0  0  0  0  2  0  0  0  0  0  0
  2 20  1  0  0  0  0
  3  6  2  0  0  0  0
  5  9  1  6  0  0  0
  5  7  1  0  0  0  0
  6 17  1  0  0  0  0
  6  8  1  0  0  0  0
  7  3  1  0  0  0  0
  7 10  2  0  0  0  0
  8  4  1  6  0  0  0
  8 15  1  0  0  0  0
 10 17  1  0  0  0  0
 12 23  1  0  0  0  0
 14 10  1  0  0  0  0
 14 11  1  1  0  0  0
 15  4  1  1  0  0  0
 15 21  1  0  0  0  0
 16 13  1  1  0  0  0
 16  3  1  0  0  0  0
 16 12  1  0  0  0  0
 17 22  1  0  0  0  0
 18  2  1  0  0  0  0
 18  5  1  0  0  0  0
 19 23  1  6  0  0  0
 19  8  1  0  0  0  0
 19 25  1  0  0  0  0
 20 14  1  0  0  0  0
 21 31  1  1  0  0  0
 22  1  1  1  0  0  0
 22 21  1  0  0  0  0
 24 30  1  0  0  0  0
 25 24  1  6  0  0  0
 26 27  1  1  0  0  0
 26 25  1  0  0  0  0
 26 29  1  0  0  0  0
 28 30  1  0  0  0  0
 29 28  1  0  0  0  0
 31 32  1  6  0  0  0
 31 34  1  0  0  0  0
 32 33  1  0  0  0  0
 34 35  1  0  0  0  0
 35 37  1  0  0  0  0
 36 37  1  0  0  0  0
M  END
>  <MODEL>
4

>  <REMARK>
 VINA RESULT:      -6.4      2.289      4.988
  Name = 
  6 active torsions:
  status: ('A' for Active; 'I' for Inactive)
    1  A    between atoms: O_5  and  C_17
    2  A    between atoms: O_5  and  C_23
    3  A    between atoms: N_6  and  C_31
    4  A    between atoms: C_11  and  C_26
    5  A    between atoms: C_17  and  C_26
    6  A    between atoms: C_26  and  C_33
                            x       y       z     vdW  Elec       q    Type
                         _______ _______ _______ _____ _____    ______ ____

>  <TORSDO>
F 6

$$$$
=
 OpenBabel10272414453D

 37 42  0  0  1  0  0  0  0  0999 V2000
  184.9520  179.8820  140.0260 O   0  0  0  0  0  1  0  0  0  0  0  0
  190.4420  177.4120  139.5550 C   0  0  0  0  0  2  0  0  0  0  0  0
  186.7050  177.5590  136.9810 C   0  0  0  0  0  0  0  0  0  0  0  0
  183.3770  178.8650  137.6570 C   0  0  0  0  0  2  0  0  0  0  0  0
  189.2800  177.8310  137.3650 C   0  0  2  0  0  3  0  0  0  0  0  0
  185.6050  177.7000  137.8220 C   0  0  0  0  0  0  0  0  0  0  0  0
  187.8270  177.7990  137.7740 C   0  0  0  0  0  0  0  0  0  0  0  0
  184.1480  177.5750  137.4500 C   0  0  1  0  0  0  0  0  0  0  0  0
  189.4460  177.5430  136.0110 O   0  0  0  0  0  1  0  0  0  0  0  0
  187.3620  178.0950  139.0470 C   0  0  0  0  0  0  0  0  0  0  0  0
  187.5360  178.7690  141.3590 O   0  0  0  0  0  1  0  0  0  0  0  0
  185.5860  176.5380  134.9470 C   0  0  0  0  0  2  0  0  0  0  0  0
  186.6350  178.6950  134.8900 O   0  0  0  0  0  1  0  0  0  0  0  0
  188.2600  178.4810  140.2020 C   0  0  1  0  0  3  0  0  0  0  0  0
  183.1190  177.6680  138.5770 C   0  0  1  0  0  3  0  0  0  0  0  0
  186.7010  177.4310  135.4800 C   0  0  1  0  0  3  0  0  0  0  0  0
  186.0090  178.0380  139.0620 N   0  0  0  0  0  0  0  0  0  0  0  0
  190.0910  176.8410  138.1870 C   0  0  0  0  0  2  0  0  0  0  0  0
  183.7910  176.6780  136.2320 C   0  0  2  0  0  3  0  0  0  0  0  0
  189.2530  177.3690  140.5070 C   0  0  0  0  0  2  0  0  0  0  0  0
  183.7440  177.7800  139.9860 C   0  0  1  0  0  3  0  0  0  0  0  0
  185.1030  178.4950  140.1090 C   0  0  2  0  0  3  0  0  0  0  0  0
  184.3460  177.1770  135.0540 O   0  0  0  0  0  0  0  0  0  0  0  0
  181.8340  177.0370  134.8990 C   0  0  0  0  0  2  0  0  0  0  0  0
  182.3870  176.2710  136.0250 N   0  0  1  0  0  0  0  0  0  0  0  0
  182.2190  174.8100  135.8760 C   0  0  1  0  0  3  0  0  0  0  0  0
  182.2250  174.1450  137.2420 C   0  0  0  0  0  1  0  0  0  0  0  0
  179.9830  175.5100  135.3470 O   0  0  0  0  0  0  0  0  0  0  0  0
  180.9030  174.4650  135.1720 C   0  0  0  0  0  2  0  0  0  0  0  0
  180.4230  176.5570  134.5180 C   0  0  0  0  0  2  0  0  0  0  0  0
  182.7070  178.1290  141.0640 C   0  0  2  0  0  3  0  0  0  0  0  0
  181.6340  179.0740  140.5390 C   0  0  0  0  0  2  0  0  0  0  0  0
  180.2600  178.4510  140.6920 C   0  0  0  0  0  1  0  0  0  0  0  0
  183.3690  178.7100  142.3090 C   0  0  0  0  0  2  0  0  0  0  0  0
  182.4450  178.7980  143.3510 O   0  0  0  0  0  0  0  0  0  0  0  0
  184.6820  178.6850  144.1490 C   0  0  0  0  0  1  0  0  0  0  0  0
  183.2260  178.9240  144.4990 C   0  0  0  0  0  2  0  0  0  0  0  0
  2 20  1  0  0  0  0
  3  7  1  0  0  0  0
  3  6  2  0  0  0  0
  5  9  1  6  0  0  0
  5  7  1  0  0  0  0
  5 18  1  0  0  0  0
  6 17  1  0  0  0  0
  7 10  2  0  0  0  0
  8  4  1  6  0  0  0
  8  6  1  0  0  0  0
  8 15  1  0  0  0  0
 10 17  1  0  0  0  0
 10 14  1  0  0  0  0
 12 23  1  0  0  0  0
 12 16  1  0  0  0  0
 14 20  1  0  0  0  0
 14 11  1  1  0  0  0
 15  4  1  6  0  0  0
 15 21  1  0  0  0  0
 16 13  1  6  0  0  0
 16  3  1  0  0  0  0
 17 22  1  0  0  0  0
 18  2  1  0  0  0  0
 19 23  1  6  0  0  0
 19  8  1  0  0  0  0
 21 22  1  0  0  0  0
 21 31  1  1  0  0  0
 22  1  1  6  0  0  0
 25 24  1  6  0  0  0
 25 19  1  0  0  0  0
 26 25  1  0  0  0  0
 26 27  1  1  0  0  0
 29 28  1  0  0  0  0
 29 26  1  0  0  0  0
 30 24  1  0  0  0  0
 30 28  1  0  0  0  0
 31 32  1  6  0  0  0
 31 34  1  0  0  0  0
 32 33  1  0  0  0  0
 34 35  1  0  0  0  0
 35 37  1  0  0  0  0
 36 37  1  0  0  0  0
M  END
>  <MODEL>
5

>  <REMARK>
 VINA RESULT:      -6.3      1.736      2.175
  Name = 
  6 active torsions:
  status: ('A' for Active; 'I' for Inactive)
    1  A    between atoms: O_5  and  C_17
    2  A    between atoms: O_5  and  C_23
    3  A    between atoms: N_6  and  C_31
    4  A    between atoms: C_11  and  C_26
    5  A    between atoms: C_17  and  C_26
    6  A    between atoms: C_26  and  C_33
                            x       y       z     vdW  Elec       q    Type
                         _______ _______ _______ _____ _____    ______ ____

>  <TORSDO>
F 6

$$$$
=
 OpenBabel10272414453D

 37 42  0  0  1  0  0  0  0  0999 V2000
  188.6470  179.4880  142.0520 O   0  0  0  0  0  1  0  0  0  0  0  0
  191.8080  176.2540  138.0510 C   0  0  0  0  0  2  0  0  0  0  0  0
  187.5740  177.8720  138.3130 C   0  0  0  0  0  0  0  0  0  0  0  0
  185.8070  179.5390  141.0220 C   0  0  0  0  0  2  0  0  0  0  0  0
  189.8590  177.5160  137.0860 C   0  0  2  0  0  3  0  0  0  0  0  0
  187.2300  177.9690  139.6580 C   0  0  0  0  0  0  0  0  0  0  0  0
  188.9500  177.6470  138.2850 C   0  0  0  0  0  0  0  0  0  0  0  0
  185.8630  178.2430  140.2340 C   0  0  1  0  0  0  0  0  0  0  0  0
  189.1550  177.6130  135.8860 O   0  0  0  0  0  1  0  0  0  0  0  0
  189.3820  177.6380  139.6030 C   0  0  0  0  0  0  0  0  0  0  0  0
  190.9960  177.5540  141.3960 O   0  0  0  0  0  1  0  0  0  0  0  0
  185.2670  177.7320  137.2690 C   0  0  0  0  0  2  0  0  0  0  0  0
  186.7580  179.5650  136.8510 O   0  0  0  0  0  1  0  0  0  0  0  0
  190.8300  177.4860  140.0130 C   0  0  1  0  0  3  0  0  0  0  0  0
  185.7130  178.1980  141.7550 C   0  0  1  0  0  3  0  0  0  0  0  0
  186.7120  178.1960  137.1210 C   0  0  1  0  0  3  0  0  0  0  0  0
  188.3280  177.8420  140.4280 N   0  0  0  0  0  0  0  0  0  0  0  0
  190.6050  176.1900  137.1190 C   0  0  0  0  0  2  0  0  0  0  0  0
  184.6280  177.8320  139.3850 C   0  0  2  0  0  3  0  0  0  0  0  0
  191.3950  176.1630  139.5150 C   0  0  0  0  0  2  0  0  0  0  0  0
  186.9980  177.7660  142.4970 C   0  0  1  0  0  3  0  0  0  0  0  0
  188.3500  178.1360  141.8570 C   0  0  2  0  0  3  0  0  0  0  0  0
  184.5810  178.5380  138.1830 O   0  0  0  0  0  0  0  0  0  0  0  0
  182.8340  179.1590  140.2560 C   0  0  0  0  0  2  0  0  0  0  0  0
  183.2990  177.7830  140.0240 N   0  0  1  0  0  0  0  0  0  0  0  0
  182.3240  176.9560  139.2810 C   0  0  1  0  0  3  0  0  0  0  0  0
  182.5440  175.4860  139.5960 C   0  0  0  0  0  1  0  0  0  0  0  0
  180.8500  177.9040  140.9250 O   0  0  0  0  0  0  0  0  0  0  0  0
  180.8820  177.3220  139.6480 C   0  0  0  0  0  2  0  0  0  0  0  0
  181.3870  179.1960  140.7750 C   0  0  0  0  0  2  0  0  0  0  0  0
  186.9000  177.9760  144.0150 C   0  0  2  0  0  3  0  0  0  0  0  0
  187.6700  176.9140  144.7890 C   0  0  0  0  0  2  0  0  0  0  0  0
  188.7730  177.5530  145.6110 C   0  0  0  0  0  1  0  0  0  0  0  0
  185.4490  178.0300  144.4800 C   0  0  0  0  0  2  0  0  0  0  0  0
  185.2060  179.2220  145.1640 O   0  0  0  0  0  0  0  0  0  0  0  0
  183.0520  178.7880  144.2550 C   0  0  0  0  0  1  0  0  0  0  0  0
  184.1490  179.8120  144.4710 C   0  0  0  0  0  2  0  0  0  0  0  0
  2 20  1  0  0  0  0
  3  6  2  0  0  0  0
  5  9  1  6  0  0  0
  5 18  1  0  0  0  0
  5  7  1  0  0  0  0
  6  8  1  0  0  0  0
  6 17  1  0  0  0  0
  7  3  1  0  0  0  0
  7 10  2  0  0  0  0
  8  4  1  6  0  0  0
  8 15  1  0  0  0  0
 10 14  1  0  0  0  0
 10 17  1  0  0  0  0
 12 23  1  0  0  0  0
 14 11  1  1  0  0  0
 15  4  1  1  0  0  0
 15 21  1  0  0  0  0
 16 13  1  1  0  0  0
 16 12  1  0  0  0  0
 16  3  1  0  0  0  0
 17 22  1  0  0  0  0
 18  2  1  0  0  0  0
 19 23  1  6  0  0  0
 19 25  1  0  0  0  0
 19  8  1  0  0  0  0
 20 14  1  0  0  0  0
 21 31  1  1  0  0  0
 22  1  1  6  0  0  0
 22 21  1  0  0  0  0
 24 30  1  0  0  0  0
 25 24  1  6  0  0  0
 26 27  1  1  0  0  0
 26 29  1  0  0  0  0
 26 25  1  0  0  0  0
 29 28  1  0  0  0  0
 30 28  1  0  0  0  0
 31 34  1  1  0  0  0
 31 32  1  0  0  0  0
 32 33  1  0  0  0  0
 34 35  1  0  0  0  0
 36 37  1  0  0  0  0
 37 35  1  0  0  0  0
M  END
>  <MODEL>
6

>  <REMARK>
 VINA RESULT:      -6.2      1.670      2.881
  Name = 
  6 active torsions:
  status: ('A' for Active; 'I' for Inactive)
    1  A    between atoms: O_5  and  C_17
    2  A    between atoms: O_5  and  C_23
    3  A    between atoms: N_6  and  C_31
    4  A    between atoms: C_11  and  C_26
    5  A    between atoms: C_17  and  C_26
    6  A    between atoms: C_26  and  C_33
                            x       y       z     vdW  Elec       q    Type
                         _______ _______ _______ _____ _____    ______ ____

>  <TORSDO>
F 6

$$$$
=
 OpenBabel10272414453D

 37 42  0  0  1  0  0  0  0  0999 V2000
  187.9700  179.8610  140.6560 O   0  0  0  0  0  1  0  0  0  0  0  0
  182.0810  178.6220  141.1540 C   0  0  0  0  0  2  0  0  0  0  0  0
  185.7180  178.2880  143.8500 C   0  0  0  0  0  0  0  0  0  0  0  0
  189.2560  178.8100  143.1790 C   0  0  0  0  0  2  0  0  0  0  0  0
  183.2630  179.0340  143.3350 C   0  0  2  0  0  3  0  0  0  0  0  0
  186.8400  178.1100  143.0440 C   0  0  0  0  0  0  0  0  0  0  0  0
  184.6850  178.6630  142.9920 C   0  0  0  0  0  0  0  0  0  0  0  0
  188.2320  177.7340  143.4870 C   0  0  1  0  0  0  0  0  0  0  0  0
  183.0160  178.9340  144.7040 O   0  0  0  0  0  1  0  0  0  0  0  0
  185.2260  178.7180  141.7150 C   0  0  0  0  0  0  0  0  0  0  0  0
  185.2380  179.1560  139.3410 O   0  0  0  0  0  1  0  0  0  0  0  0
  186.5650  177.2890  146.0230 C   0  0  0  0  0  2  0  0  0  0  0  0
  185.9820  179.6080  145.8140 O   0  0  0  0  0  1  0  0  0  0  0  0
  184.4480  179.1490  140.4900 C   0  0  1  0  0  3  0  0  0  0  0  0
  189.2800  177.4930  142.3990 C   0  0  1  0  0  3  0  0  0  0  0  0
  185.6680  178.3270  145.3550 C   0  0  1  0  0  3  0  0  0  0  0  0
  186.5370  178.3860  141.7610 N   0  0  0  0  0  0  0  0  0  0  0  0
  182.2800  178.1450  142.5870 C   0  0  0  0  0  2  0  0  0  0  0  0
  188.3740  176.9220  144.8040 C   0  0  2  0  0  3  0  0  0  0  0  0
  183.2530  178.2360  140.2610 C   0  0  0  0  0  2  0  0  0  0  0  0
  188.7180  177.5740  140.9620 C   0  0  1  0  0  3  0  0  0  0  0  0
  187.5380  178.5330  140.7100 C   0  0  2  0  0  3  0  0  0  0  0  0
  187.9110  177.6490  145.9010 O   0  0  0  0  0  0  0  0  0  0  0  0
  190.3340  175.9330  143.8440 C   0  0  0  0  0  2  0  0  0  0  0  0
  189.6590  176.2630  145.1090 N   0  0  1  0  0  0  0  0  0  0  0  0
  190.5080  177.0400  146.0370 C   0  0  1  0  0  3  0  0  0  0  0  0
  190.0440  176.8260  147.4670 C   0  0  0  0  0  1  0  0  0  0  0  0
  192.0680  175.3110  145.4450 O   0  0  0  0  0  0  0  0  0  0  0  0
  191.9790  176.6230  145.9350 C   0  0  0  0  0  2  0  0  0  0  0  0
  191.7520  175.3860  144.0760 C   0  0  0  0  0  2  0  0  0  0  0  0
  189.8250  177.5870  139.8970 C   0  0  2  0  0  3  0  0  0  0  0  0
  189.3350  177.0480  138.5590 C   0  0  0  0  0  2  0  0  0  0  0  0
  189.2570  178.1650  137.5350 C   0  0  0  0  0  1  0  0  0  0  0  0
  191.0580  176.8210  140.3630 C   0  0  0  0  0  2  0  0  0  0  0  0
  192.1600  177.6740  140.4280 O   0  0  0  0  0  0  0  0  0  0  0  0
  192.9270  176.5400  138.4840 C   0  0  0  0  0  1  0  0  0  0  0  0
  193.2160  176.9170  139.9230 C   0  0  0  0  0  2  0  0  0  0  0  0
  2 18  1  0  0  0  0
  3 16  1  0  0  0  0
  5  9  1  1  0  0  0
  6  8  1  0  0  0  0
  6  3  2  0  0  0  0
  7  5  1  0  0  0  0
  7  3  1  0  0  0  0
  8  4  1  1  0  0  0
  8 19  1  0  0  0  0
 10 17  1  0  0  0  0
 10  7  2  0  0  0  0
 14 11  1  6  0  0  0
 14 10  1  0  0  0  0
 15  4  1  6  0  0  0
 15  8  1  0  0  0  0
 16 13  1  1  0  0  0
 16 12  1  0  0  0  0
 17  6  1  0  0  0  0
 18  5  1  0  0  0  0
 19 25  1  0  0  0  0
 19 23  1  1  0  0  0
 20 14  1  0  0  0  0
 20  2  1  0  0  0  0
 21 31  1  6  0  0  0
 21 15  1  0  0  0  0
 22  1  1  1  0  0  0
 22 21  1  0  0  0  0
 22 17  1  0  0  0  0
 23 12  1  0  0  0  0
 24 30  1  0  0  0  0
 25 24  1  6  0  0  0
 25 26  1  0  0  0  0
 26 27  1  1  0  0  0
 28 29  1  0  0  0  0
 29 26  1  0  0  0  0
 30 28  1  0  0  0  0
 31 32  1  6  0  0  0
 31 34  1  0  0  0  0
 33 32  1  0  0  0  0
 34 35  1  0  0  0  0
 36 37  1  0  0  0  0
 37 35  1  0  0  0  0
M  END
>  <MODEL>
7

>  <REMARK>
 VINA RESULT:      -6.2      2.526      8.519
  Name = 
  6 active torsions:
  status: ('A' for Active; 'I' for Inactive)
    1  A    between atoms: O_5  and  C_17
    2  A    between atoms: O_5  and  C_23
    3  A    between atoms: N_6  and  C_31
    4  A    between atoms: C_11  and  C_26
    5  A    between atoms: C_17  and  C_26
    6  A    between atoms: C_26  and  C_33
                            x       y       z     vdW  Elec       q    Type
                         _______ _______ _______ _____ _____    ______ ____

>  <TORSDO>
F 6

$$$$
=
 OpenBabel10272414453D

 37 42  0  0  1  0  0  0  0  0999 V2000
  188.5800  179.2930  142.3040 O   0  0  0  0  0  1  0  0  0  0  0  0
  191.6260  176.3610  137.9920 C   0  0  0  0  0  2  0  0  0  0  0  0
  187.4180  177.9950  138.4690 C   0  0  0  0  0  0  0  0  0  0  0  0
  185.7230  179.4540  141.3390 C   0  0  0  0  0  2  0  0  0  0  0  0
  189.6740  177.7170  137.1720 C   0  0  2  0  0  3  0  0  0  0  0  0
  187.1000  177.9860  139.8250 C   0  0  0  0  0  0  0  0  0  0  0  0
  188.7900  177.7590  138.3950 C   0  0  0  0  0  0  0  0  0  0  0  0
  185.7480  178.2260  140.4480 C   0  0  1  0  0  0  0  0  0  0  0  0
  188.9480  177.9170  135.9980 O   0  0  0  0  0  1  0  0  0  0  0  0
  189.2470  177.6400  139.7000 C   0  0  0  0  0  0  0  0  0  0  0  0
  190.8940  177.3950  141.4470 O   0  0  0  0  0  1  0  0  0  0  0  0
  185.0890  177.9630  137.4640 C   0  0  0  0  0  2  0  0  0  0  0  0
  186.5930  179.8080  137.1650 O   0  0  0  0  0  1  0  0  0  0  0  0
  190.7010  177.4400  140.0670 C   0  0  1  0  0  3  0  0  0  0  0  0
  185.6260  178.0600  141.9630 C   0  0  1  0  0  3  0  0  0  0  0  0
  186.5360  178.4230  137.3250 C   0  0  1  0  0  3  0  0  0  0  0  0
  188.2120  177.7870  140.5600 N   0  0  0  0  0  0  0  0  0  0  0  0
  190.4050  176.3850  137.0830 C   0  0  0  0  0  2  0  0  0  0  0  0
  184.4920  177.8980  139.5940 C   0  0  2  0  0  3  0  0  0  0  0  0
  191.2410  176.1570  139.4520 C   0  0  0  0  0  2  0  0  0  0  0  0
  186.9210  177.5570  142.6410 C   0  0  1  0  0  3  0  0  0  0  0  0
  188.2650  177.9640  142.0060 C   0  0  2  0  0  3  0  0  0  0  0  0
  184.4300  178.6990  138.4530 O   0  0  0  0  0  0  0  0  0  0  0  0
  182.7510  179.1630  140.6430 C   0  0  0  0  0  2  0  0  0  0  0  0
  183.1750  177.8100  140.2530 N   0  0  1  0  0  0  0  0  0  0  0  0
  182.1660  177.0910  139.4470 C   0  0  1  0  0  3  0  0  0  0  0  0
  182.3540  175.5910  139.5970 C   0  0  0  0  0  1  0  0  0  0  0  0
  180.7490  177.8890  141.2160 O   0  0  0  0  0  0  0  0  0  0  0  0
  180.7410  177.4480  139.8840 C   0  0  0  0  0  2  0  0  0  0  0  0
  181.3150  179.1770  141.1950 C   0  0  0  0  0  2  0  0  0  0  0  0
  186.8550  177.6440  144.1740 C   0  0  2  0  0  3  0  0  0  0  0  0
  185.8690  178.7050  144.6430 C   0  0  0  0  0  2  0  0  0  0  0  0
  185.4020  178.4070  146.0550 C   0  0  0  0  0  1  0  0  0  0  0  0
  188.2330  177.8890  144.7790 C   0  0  0  0  0  2  0  0  0  0  0  0
  188.5010  176.9420  145.7680 O   0  0  0  0  0  0  0  0  0  0  0  0
  188.4870  177.6420  148.0410 C   0  0  0  0  0  1  0  0  0  0  0  0
  189.2400  177.6370  146.7250 C   0  0  0  0  0  2  0  0  0  0  0  0
  2 20  1  0  0  0  0
  3  6  2  0  0  0  0
  5  9  1  6  0  0  0
  5  7  1  0  0  0  0
  6  8  1  0  0  0  0
  6 17  1  0  0  0  0
  7  3  1  0  0  0  0
  7 10  2  0  0  0  0
  8  4  1  6  0  0  0
  8 15  1  0  0  0  0
 10 14  1  0  0  0  0
 10 17  1  0  0  0  0
 12 23  1  0  0  0  0
 14 11  1  1  0  0  0
 15  4  1  1  0  0  0
 15 21  1  0  0  0  0
 16 13  1  1  0  0  0
 16 12  1  0  0  0  0
 16  3  1  0  0  0  0
 17 22  1  0  0  0  0
 18  5  1  0  0  0  0
 18  2  1  0  0  0  0
 19 23  1  6  0  0  0
 19 25  1  0  0  0  0
 19  8  1  0  0  0  0
 20 14  1  0  0  0  0
 21 31  1  1  0  0  0
 22  1  1  6  0  0  0
 22 21  1  0  0  0  0
 24 30  1  0  0  0  0
 25 24  1  6  0  0  0
 26 27  1  1  0  0  0
 26 29  1  0  0  0  0
 26 25  1  0  0  0  0
 29 28  1  0  0  0  0
 30 28  1  0  0  0  0
 31 32  1  6  0  0  0
 31 34  1  0  0  0  0
 32 33  1  0  0  0  0
 34 35  1  0  0  0  0
 35 37  1  0  0  0  0
 37 36  1  0  0  0  0
M  END
>  <MODEL>
8

>  <REMARK>
 VINA RESULT:      -6.0      1.922      2.880
  Name = 
  6 active torsions:
  status: ('A' for Active; 'I' for Inactive)
    1  A    between atoms: O_5  and  C_17
    2  A    between atoms: O_5  and  C_23
    3  A    between atoms: N_6  and  C_31
    4  A    between atoms: C_11  and  C_26
    5  A    between atoms: C_17  and  C_26
    6  A    between atoms: C_26  and  C_33
                            x       y       z     vdW  Elec       q    Type
                         _______ _______ _______ _____ _____    ______ ____

>  <TORSDO>
F 6

$$$$
=
 OpenBabel10272414453D

 37 42  0  0  1  0  0  0  0  0999 V2000
  187.6000  178.9610  138.5590 O   0  0  0  0  0  1  0  0  0  0  0  0
  188.4230  177.6420  144.3940 C   0  0  0  0  0  2  0  0  0  0  0  0
  190.8660  177.2400  140.5880 C   0  0  0  0  0  0  0  0  0  0  0  0
  189.9920  177.8250  137.1050 C   0  0  0  0  0  2  0  0  0  0  0  0
  190.5390  177.9790  143.0780 C   0  0  2  0  0  3  0  0  0  0  0  0
  189.9840  177.1060  139.5190 C   0  0  0  0  0  0  0  0  0  0  0  0
  190.0910  177.6380  141.6770 C   0  0  0  0  0  0  0  0  0  0  0  0
  190.3210  176.7270  138.0990 C   0  0  1  0  0  0  0  0  0  0  0  0
  191.9160  177.8230  143.2360 O   0  0  0  0  0  1  0  0  0  0  0  0
  188.7850  177.7480  141.2210 C   0  0  0  0  0  0  0  0  0  0  0  0
  186.4350  178.2800  141.3640 O   0  0  0  0  0  1  0  0  0  0  0  0
  192.9380  176.1650  139.5960 C   0  0  0  0  0  2  0  0  0  0  0  0
  192.8600  178.4840  140.2100 O   0  0  0  0  0  1  0  0  0  0  0  0
  187.6310  178.2200  142.0780 C   0  0  1  0  0  3  0  0  0  0  0  0
  189.1600  176.5400  137.1210 C   0  0  1  0  0  3  0  0  0  0  0  0
  192.3710  177.2190  140.5420 C   0  0  1  0  0  3  0  0  0  0  0  0
  188.7340  177.4290  139.9060 N   0  0  0  0  0  0  0  0  0  0  0  0
  189.8200  177.1100  144.0990 C   0  0  0  0  0  2  0  0  0  0  0  0
  191.5920  175.8650  137.8660 C   0  0  2  0  0  3  0  0  0  0  0  0
  187.4420  177.3030  143.2790 C   0  0  0  0  0  2  0  0  0  0  0  0
  187.7660  176.6720  137.7750 C   0  0  1  0  0  3  0  0  0  0  0  0
  187.6280  177.6270  138.9760 C   0  0  2  0  0  3  0  0  0  0  0  0
  192.7450  176.5430  138.2630 O   0  0  0  0  0  0  0  0  0  0  0  0
  193.0250  175.7230  135.9510 C   0  0  0  0  0  2  0  0  0  0  0  0
  191.7880  175.2090  136.5590 N   0  0  1  0  0  0  0  0  0  0  0  0
  191.7450  173.7330  136.6340 C   0  0  1  0  0  3  0  0  0  0  0  0
  190.3030  173.2570  136.6720 C   0  0  0  0  0  1  0  0  0  0  0  0
  192.4360  173.9810  134.3460 O   0  0  0  0  0  0  0  0  0  0  0  0
  192.4380  173.0890  135.4290 C   0  0  0  0  0  2  0  0  0  0  0  0
  193.3840  174.9730  134.6580 C   0  0  0  0  0  2  0  0  0  0  0  0
  186.6330  176.7380  136.7390 C   0  0  2  0  0  3  0  0  0  0  0  0
  185.2760  176.4320  137.3570 C   0  0  0  0  0  2  0  0  0  0  0  0
  184.3670  177.6430  137.2660 C   0  0  0  0  0  1  0  0  0  0  0  0
  186.9040  175.8140  135.5560 C   0  0  0  0  0  2  0  0  0  0  0  0
  186.0050  174.7470  135.5630 O   0  0  0  0  0  0  0  0  0  0  0  0
  186.2150  172.4870  136.2700 C   0  0  0  0  0  1  0  0  0  0  0  0
  186.8100  173.6140  135.4490 C   0  0  0  0  0  2  0  0  0  0  0  0
  3  7  1  0  0  0  0
  5  9  1  6  0  0  0
  5 18  1  0  0  0  0
  6 17  1  0  0  0  0
  6  3  2  0  0  0  0
  7  5  1  0  0  0  0
  8  4  1  6  0  0  0
  8  6  1  0  0  0  0
 10  7  2  0  0  0  0
 10 14  1  0  0  0  0
 12 16  1  0  0  0  0
 14 11  1  6  0  0  0
 14 20  1  0  0  0  0
 15  4  1  6  0  0  0
 15 21  1  0  0  0  0
 15  8  1  0  0  0  0
 16 13  1  6  0  0  0
 16  3  1  0  0  0  0
 17 10  1  0  0  0  0
 18  2  1  0  0  0  0
 19  8  1  0  0  0  0
 19 23  1  6  0  0  0
 20  2  1  0  0  0  0
 21 31  1  6  0  0  0
 21 22  1  0  0  0  0
 22  1  1  6  0  0  0
 22 17  1  0  0  0  0
 23 12  1  0  0  0  0
 25 24  1  1  0  0  0
 25 26  1  0  0  0  0
 25 19  1  0  0  0  0
 26 27  1  6  0  0  0
 28 30  1  0  0  0  0
 28 29  1  0  0  0  0
 29 26  1  0  0  0  0
 30 24  1  0  0  0  0
 31 34  1  6  0  0  0
 31 32  1  0  0  0  0
 33 32  1  0  0  0  0
 34 35  1  0  0  0  0
 37 35  1  0  0  0  0
 37 36  1  0  0  0  0
M  END
>  <MODEL>
9

>  <REMARK>
 VINA RESULT:      -5.9      3.232      7.523
  Name = 
  6 active torsions:
  status: ('A' for Active; 'I' for Inactive)
    1  A    between atoms: O_5  and  C_17
    2  A    between atoms: O_5  and  C_23
    3  A    between atoms: N_6  and  C_31
    4  A    between atoms: C_11  and  C_26
    5  A    between atoms: C_17  and  C_26
    6  A    between atoms: C_26  and  C_33
                            x       y       z     vdW  Elec       q    Type
                         _______ _______ _______ _____ _____    ______ ____

>  <TORSDO>
F 6

$$$$
