=
 OpenBabel10272401243D

 55 59  0  0  1  0  0  0  0  0999 V2000
  188.8460  172.9080  137.2030 C   0  0  0  0  0  3  0  0  0  0  0  0
  186.4630  178.9630  135.7900 C   0  0  0  0  0  2  0  0  0  0  0  0
  188.0490  178.6200  138.8140 O   0  0  0  0  0  0  0  0  0  0  0  0
  188.2350  177.5020  142.3980 C   0  0  0  0  0  3  0  0  0  0  0  0
  188.7850  176.5040  143.2040 C   0  0  0  0  0  3  0  0  0  0  0  0
  189.3740  176.5790  140.4610 C   0  0  0  0  0  0  0  0  0  0  0  0
  189.9170  175.5770  141.2820 C   0  0  0  0  0  3  0  0  0  0  0  0
  187.1970  179.5120  140.7580 O   0  0  0  0  0  0  0  0  0  0  0  0
  189.6240  175.5400  142.6450 C   0  0  0  0  0  3  0  0  0  0  0  0
  188.5160  177.5520  141.0230 C   0  0  0  0  0  0  0  0  0  0  0  0
  190.4920  174.4010  136.2010 C   0  0  0  0  0  2  0  0  0  0  0  0
  187.3420  173.9860  135.4980 C   0  0  0  0  0  2  0  0  0  0  0  0
  190.0900  175.6740  136.9460 C   0  0  0  0  0  2  0  0  0  0  0  0
  187.6500  176.8700  134.3460 O   0  0  0  0  0  1  0  0  0  0  0  0
  189.6750  176.6200  139.0950 O   0  0  0  0  0  0  0  0  0  0  0  0
  187.7600  179.2770  136.5320 C   0  0  0  0  0  2  0  0  0  0  0  0
  187.4870  179.6240  137.9840 C   0  0  0  0  0  2  0  0  0  0  0  0
  185.9760  177.5180  135.9620 C   0  0  1  0  0  3  0  0  0  0  0  0
  190.0630  173.1900  136.8740 N   0  0  0  0  0  0  0  0  0  0  0  0
  187.8910  178.6150  140.2030 C   0  0  0  0  0  0  0  0  0  0  0  0
  187.6750  173.8240  136.9800 C   0  0  1  0  0  3  0  0  0  0  0  0
  187.0160  176.4750  135.5250 C   0  0  1  0  0  3  0  0  0  0  0  0
  190.4600  175.6460  138.4200 C   0  0  2  0  0  3  0  0  0  0  0  0
  186.3520  175.1250  135.2920 C   0  0  0  0  0  2  0  0  0  0  0  0
  191.9150  175.9280  138.6100 C   0  0  0  0  0  0  0  0  0  0  0  0
  194.1160  175.5230  138.4680 C   0  0  0  0  0  0  0  0  0  0  0  0
  192.3620  177.1150  139.1900 C   0  0  0  0  0  3  0  0  0  0  0  0
  194.0440  177.0390  139.1860 S   0  0  0  0  0  0  0  0  0  0  0  0
  192.8790  175.0570  138.2040 N   0  0  0  0  0  0  0  0  0  0  0  0
  195.3720  174.8080  138.0870 C   0  0  0  0  0  3  0  0  0  0  0  0
  195.2890  173.3580  138.5270 C   0  0  0  0  0  2  0  0  0  0  0  0
  196.1020  174.3430  139.3340 C   0  0  0  0  0  2  0  0  0  0  0  0
  186.4680  173.3780  137.8070 C   0  0  0  0  0  2  0  0  0  0  0  0
  184.0010  170.7600  135.7600 C   0  0  0  0  0  1  0  0  0  0  0  0
  184.8740  171.6840  136.4840 C   0  0  0  0  0  0  0  0  0  0  0  0
  185.5920  172.4460  137.0810 C   0  0  0  0  0  0  0  0  0  0  0  0
  185.5040  177.2840  137.3920 C   0  0  0  0  0  2  0  0  0  0  0  0
  184.1130  177.8410  137.6100 C   0  0  0  0  0  2  0  0  0  0  0  0
  184.0660  178.5540  138.9470 C   0  0  0  0  0  2  0  0  0  0  0  0
  182.6710  178.4480  139.5480 C   0  0  2  0  0  3  0  0  0  0  0  0
  181.5000  178.6480  141.8100 C   0  0  0  0  0  1  0  0  0  0  0  0
  182.7050  178.1160  141.0470 C   0  0  2  0  0  3  0  0  0  0  0  0
  184.0080  178.5840  141.6840 C   0  0  0  0  0  2  0  0  0  0  0  0
  185.1890  178.3820  143.6990 C   0  0  1  0  0  3  0  0  0  0  0  0
  183.8640  178.6640  143.1270 N   0  0  0  0  0  0  0  0  0  0  0  0
  184.7320  179.7610  143.5740 C   0  0  0  0  0  2  0  0  0  0  0  0
  185.0180  177.9210  145.1360 C   0  0  0  0  0  2  0  0  0  0  0  0
  186.3710  177.7260  145.8020 C   0  0  0  0  0  2  0  0  0  0  0  0
  185.7570  179.6000  147.1420 O   0  0  0  0  0  0  0  0  0  0  0  0
  187.4690  178.3180  147.9600 O   0  0  0  0  0  1  0  0  0  0  0  0
  186.5010  178.5950  147.0060 C   0  0  0  0  0  0  0  0  0  0  0  0
  181.7140  177.5980  138.6980 C   0  0  0  0  0  2  0  0  0  0  0  0
  182.6260  175.3370  139.2220 O   0  0  0  0  0  0  0  0  0  0  0  0
  180.4130  175.7980  139.5880 O   0  0  0  0  0  1  0  0  0  0  0  0
  181.5400  176.2000  139.1970 C   0  0  0  0  0  0  0  0  0  0  0  0
  2 18  1  0  0  0  0
  2 16  1  0  0  0  0
  3 20  1  0  0  0  0
  4  5  1  0  0  0  0
  6 10  1  0  0  0  0
  6  7  2  0  0  0  0
  7  9  1  0  0  0  0
  9  5  2  0  0  0  0
 10  4  2  0  0  0  0
 11 19  1  0  0  0  0
 11 13  1  0  0  0  0
 12 21  1  0  0  0  0
 13 23  1  0  0  0  0
 15  6  1  0  0  0  0
 16 17  1  0  0  0  0
 17  3  1  0  0  0  0
 18 37  1  1  0  0  0
 19  1  2  0  0  0  0
 20  8  2  0  0  0  0
 20 10  1  0  0  0  0
 21  1  1  0  0  0  0
 21 33  1  1  0  0  0
 22 14  1  6  0  0  0
 22 18  1  0  0  0  0
 23 25  1  6  0  0  0
 23 15  1  0  0  0  0
 24 12  1  0  0  0  0
 24 22  1  0  0  0  0
 25 27  2  0  0  0  0
 26 28  1  0  0  0  0
 28 27  1  0  0  0  0
 29 26  2  0  0  0  0
 29 25  1  0  0  0  0
 30 26  1  0  0  0  0
 30 31  1  0  0  0  0
 30 32  1  0  0  0  0
 31 32  1  0  0  0  0
 34 35  1  0  0  0  0
 35 36  3  0  0  0  0
 36 33  1  0  0  0  0
 37 38  1  0  0  0  0
 38 39  1  0  0  0  0
 39 40  1  0  0  0  0
 40 52  1  6  0  0  0
 40 42  1  0  0  0  0
 42 43  1  0  0  0  0
 42 41  1  1  0  0  0
 43 45  1  0  0  0  0
 44 47  1  1  0  0  0
 45 46  1  0  0  0  0
 45 44  1  0  0  0  0
 46 44  1  0  0  0  0
 47 48  1  0  0  0  0
 48 51  1  0  0  0  0
 51 49  2  0  0  0  0
 51 50  1  0  0  0  0
 52 55  1  0  0  0  0
 55 53  2  0  0  0  0
 55 54  1  0  0  0  0
M  END
>  <MODEL>
1

>  <REMARK>
 VINA RESULT:      -3.2      0.000      0.000
  Name = 
  16 active torsions:
  status: ('A' for Active; 'I' for Inactive)
    1  A    between atoms: C_3  and  C_14
    2  A    between atoms: C_6  and  C_14
    3  A    between atoms: C_6  and  C_38
    4  A    between atoms: C_7  and  N_21
    5  A    between atoms: C_7  and  C_46
    6  A    between atoms: C_8  and  C_20
    7  A    between atoms: C_8  and  C_22
    8  A    between atoms: C_10  and  C_32
    9  A    between atoms: C_12  and  C_20
   10  A    between atoms: C_12  and  C_42
   11  A    between atoms: C_12  and  C_46
   12  A    between atoms: C_13  and  C_52
   13  A    between atoms: C_22  and  C_43
   14  A    between atoms: C_27  and  C_49
   15  A    between atoms: C_27  and  C_55
   16  A    between atoms: C_42  and  C_50
                            x       y       z     vdW  Elec       q    Type
                         _______ _______ _______ _____ _____    ______ ____

>  <TORSDO>
F 16

$$$$
