=
 OpenBabel10272415243D

 34 39  0  0  1  0  0  0  0  0999 V2000
  188.3530  176.9770  138.2930 C   0  0  2  0  0  3  0  0  0  0  0  0
  186.6820  178.0030  134.8880 C   0  0  0  0  0  2  0  0  0  0  0  0
  188.7870  176.8780  135.4430 O   0  0  0  0  0  0  0  0  0  0  0  0
  190.5530  176.5530  140.0030 C   0  0  0  0  0  2  0  0  0  0  0  0
  188.5930  178.1330  139.2550 C   0  0  0  0  0  2  0  0  0  0  0  0
  190.7420  176.3350  138.5300 C   0  0  0  0  0  0  0  0  0  0  0  0
  192.1010  175.7180  136.6210 C   0  0  0  0  0  3  0  0  0  0  0  0
  191.9540  175.8850  138.0060 C   0  0  0  0  0  3  0  0  0  0  0  0
  189.7030  177.8160  140.2910 C   0  0  1  0  0  3  0  0  0  0  0  0
  189.8240  176.4790  136.2880 C   0  0  0  0  0  0  0  0  0  0  0  0
  189.6590  176.5660  137.6750 C   0  0  0  0  0  0  0  0  0  0  0  0
  191.0390  176.0260  135.7630 C   0  0  0  0  0  3  0  0  0  0  0  0
  186.0980  176.7020  134.3460 C   0  0  0  0  0  2  0  0  0  0  0  0
  184.8760  176.2150  135.1250 C   0  0  2  0  0  3  0  0  0  0  0  0
  184.9950  176.3370  136.6500 C   0  0  0  0  0  2  0  0  0  0  0  0
  187.7610  177.7380  135.9390 C   0  0  2  0  0  3  0  0  0  0  0  0
  186.3780  175.9790  137.1740 C   0  0  0  0  0  2  0  0  0  0  0  0
  187.2170  177.2450  137.2960 C   0  0  1  0  0  3  0  0  0  0  0  0
  187.2250  177.7460  143.1980 C   0  0  0  0  0  3  0  0  0  0  0  0
  190.0270  177.7390  142.7710 C   0  0  0  0  0  3  0  0  0  0  0  0
  189.1220  177.6450  146.3620 N   0  0  0  0  0  0  0  0  0  0  0  0
  189.3580  177.6190  147.7750 C   0  0  0  0  0  0  0  0  0  0  0  0
  187.7980  177.6970  145.7330 C   0  0  0  0  0  2  0  0  0  0  0  0
  190.5250  177.4690  148.2230 O   0  0  0  0  0  0  0  0  0  0  0  0
  188.1180  177.7100  144.2670 C   0  0  0  0  0  0  0  0  0  0  0  0
  188.2260  177.7380  148.7320 C   0  0  0  0  0  1  0  0  0  0  0  0
  190.1150  177.6790  145.3400 C   0  0  0  0  0  0  0  0  0  0  0  0
  189.4770  177.7080  144.0510 C   0  0  0  0  0  0  0  0  0  0  0  0
  191.3570  177.7080  145.5470 O   0  0  0  0  0  0  0  0  0  0  0  0
  189.1450  177.7780  141.6770 C   0  0  0  0  0  0  0  0  0  0  0  0
  187.7480  177.7760  141.8950 C   0  0  0  0  0  3  0  0  0  0  0  0
  184.5620  174.7830  134.7130 C   0  0  0  0  0  2  0  0  0  0  0  0
  183.3720  174.0180  135.8560 S   0  0  0  0  0  0  0  0  0  0  0  0
  184.4630  172.5980  136.1510 C   0  0  0  0  0  1  0  0  0  0  0  0
  1  5  1  6  0  0  0
  3 16  1  0  0  0  0
  3 10  1  0  0  0  0
  4  9  1  0  0  0  0
  5  9  1  0  0  0  0
  6  4  1  0  0  0  0
  7  8  2  0  0  0  0
  8  6  1  0  0  0  0
  9 30  1  1  0  0  0
 10 11  1  0  0  0  0
 11  1  1  0  0  0  0
 11  6  2  0  0  0  0
 12 10  2  0  0  0  0
 12  7  1  0  0  0  0
 13  2  1  0  0  0  0
 13 14  1  0  0  0  0
 14 32  1  1  0  0  0
 14 15  1  0  0  0  0
 15 17  1  0  0  0  0
 16  2  1  6  0  0  0
 16 18  1  0  0  0  0
 18 17  1  6  0  0  0
 18  1  1  0  0  0  0
 19 25  1  0  0  0  0
 20 28  1  0  0  0  0
 21 22  1  0  0  0  0
 22 24  2  0  0  0  0
 22 26  1  0  0  0  0
 23 21  1  0  0  0  0
 25 23  1  0  0  0  0
 27 29  2  0  0  0  0
 27 21  1  0  0  0  0
 28 25  2  0  0  0  0
 28 27  1  0  0  0  0
 30 31  1  0  0  0  0
 30 20  2  0  0  0  0
 31 19  2  0  0  0  0
 32 33  1  0  0  0  0
 33 34  1  0  0  0  0
M  END
>  <MODEL>
1

>  <REMARK>
 VINA RESULT:      -9.0      0.000      0.000
  Name = 
  3 active torsions:
  status: ('A' for Active; 'I' for Inactive)
    1  A    between atoms: C_3  and  S_13
    2  A    between atoms: C_3  and  C_25
    3  A    between atoms: C_18  and  C_30
                            x       y       z     vdW  Elec       q    Type
                         _______ _______ _______ _____ _____    ______ ____

>  <TORSDO>
F 3

$$$$
=
 OpenBabel10272415243D

 34 39  0  0  1  0  0  0  0  0999 V2000
  190.8830  176.5440  138.3950 C   0  0  2  0  0  3  0  0  0  0  0  0
  192.4180  173.8790  135.9500 C   0  0  0  0  0  2  0  0  0  0  0  0
  190.9850  175.8350  135.6010 O   0  0  0  0  0  0  0  0  0  0  0  0
  188.8740  178.3220  139.2590 C   0  0  0  0  0  2  0  0  0  0  0  0
  190.0050  175.9640  139.4960 C   0  0  0  0  0  2  0  0  0  0  0  0
  189.0330  178.0860  137.7860 C   0  0  0  0  0  0  0  0  0  0  0  0
  188.4070  178.4930  135.4800 C   0  0  0  0  0  3  0  0  0  0  0  0
  188.2480  178.7580  136.8480 C   0  0  0  0  0  3  0  0  0  0  0  0
  189.0110  177.0070  140.0680 C   0  0  1  0  0  3  0  0  0  0  0  0
  190.1210  176.8590  135.9970 C   0  0  0  0  0  0  0  0  0  0  0  0
  190.0130  177.1880  137.3530 C   0  0  0  0  0  0  0  0  0  0  0  0
  189.3360  177.5340  135.0570 C   0  0  0  0  0  3  0  0  0  0  0  0
  193.5990  174.5950  135.3020 C   0  0  0  0  0  2  0  0  0  0  0  0
  194.7740  174.8110  136.2570 C   0  0  2  0  0  3  0  0  0  0  0  0
  194.3790  175.2640  137.6690 C   0  0  0  0  0  2  0  0  0  0  0  0
  191.4250  174.8710  136.5580 C   0  0  2  0  0  3  0  0  0  0  0  0
  193.2430  176.2760  137.6790 C   0  0  0  0  0  2  0  0  0  0  0  0
  191.9160  175.5450  137.8550 C   0  0  1  0  0  3  0  0  0  0  0  0
  190.8970  177.8600  143.2790 C   0  0  0  0  0  3  0  0  0  0  0  0
  188.2560  177.2650  142.4400 C   0  0  0  0  0  3  0  0  0  0  0  0
  188.4960  177.8950  146.0820 N   0  0  0  0  0  0  0  0  0  0  0  0
  188.0190  178.0140  147.4280 C   0  0  0  0  0  0  0  0  0  0  0  0
  189.8960  178.0460  145.6710 C   0  0  0  0  0  2  0  0  0  0  0  0
  186.7850  177.9720  147.6730 O   0  0  0  0  0  0  0  0  0  0  0  0
  189.8420  177.8230  144.1880 C   0  0  0  0  0  0  0  0  0  0  0  0
  188.9720  178.2190  148.5510 C   0  0  0  0  0  1  0  0  0  0  0  0
  187.7170  177.5620  144.9360 C   0  0  0  0  0  0  0  0  0  0  0  0
  188.5620  177.5320  143.7730 C   0  0  0  0  0  0  0  0  0  0  0  0
  186.4840  177.3060  144.9570 O   0  0  0  0  0  0  0  0  0  0  0  0
  189.3060  177.2940  141.5050 C   0  0  0  0  0  0  0  0  0  0  0  0
  190.6210  177.5960  141.9280 C   0  0  0  0  0  3  0  0  0  0  0  0
  195.7570  175.7870  135.6230 C   0  0  0  0  0  2  0  0  0  0  0  0
  194.9340  176.8330  134.3830 S   0  0  0  0  0  0  0  0  0  0  0  0
  196.0560  178.2210  134.7090 C   0  0  0  0  0  1  0  0  0  0  0  0
  1  5  1  1  0  0  0
  3 10  1  0  0  0  0
  3 16  1  0  0  0  0
  4  9  1  0  0  0  0
  5  9  1  0  0  0  0
  6  4  1  0  0  0  0
  7  8  1  0  0  0  0
  8  6  2  0  0  0  0
  9 30  1  1  0  0  0
 10 11  2  0  0  0  0
 11  6  1  0  0  0  0
 11  1  1  0  0  0  0
 12  7  2  0  0  0  0
 12 10  1  0  0  0  0
 13  2  1  0  0  0  0
 13 14  1  0  0  0  0
 14 32  1  6  0  0  0
 14 15  1  0  0  0  0
 15 17  1  0  0  0  0
 16  2  1  6  0  0  0
 16 18  1  0  0  0  0
 18 17  1  6  0  0  0
 18  1  1  0  0  0  0
 19 25  1  0  0  0  0
 20 28  1  0  0  0  0
 21 22  1  0  0  0  0
 22 24  2  0  0  0  0
 22 26  1  0  0  0  0
 23 21  1  0  0  0  0
 25 23  1  0  0  0  0
 27 29  2  0  0  0  0
 27 21  1  0  0  0  0
 28 25  2  0  0  0  0
 28 27  1  0  0  0  0
 30 31  1  0  0  0  0
 30 20  2  0  0  0  0
 31 19  2  0  0  0  0
 33 34  1  0  0  0  0
 33 32  1  0  0  0  0
M  END
>  <MODEL>
2

>  <REMARK>
 VINA RESULT:      -8.5      3.194      5.440
  Name = 
  3 active torsions:
  status: ('A' for Active; 'I' for Inactive)
    1  A    between atoms: C_3  and  S_13
    2  A    between atoms: C_3  and  C_25
    3  A    between atoms: C_18  and  C_30
                            x       y       z     vdW  Elec       q    Type
                         _______ _______ _______ _____ _____    ______ ____

>  <TORSDO>
F 3

$$$$
=
 OpenBabel10272415243D

 34 39  0  0  1  0  0  0  0  0999 V2000
  188.9120  176.8360  137.9670 C   0  0  2  0  0  3  0  0  0  0  0  0
  186.4280  177.9250  135.1240 C   0  0  0  0  0  2  0  0  0  0  0  0
  188.6200  176.8290  135.0970 O   0  0  0  0  0  0  0  0  0  0  0  0
  191.4760  176.4080  139.0580 C   0  0  0  0  0  2  0  0  0  0  0  0
  189.3700  177.9680  138.8770 C   0  0  0  0  0  2  0  0  0  0  0  0
  191.2920  176.2370  137.5780 C   0  0  0  0  0  0  0  0  0  0  0  0
  192.1380  175.7050  135.3700 C   0  0  0  0  0  3  0  0  0  0  0  0
  192.3410  175.8290  136.7530 C   0  0  0  0  0  3  0  0  0  0  0  0
  190.7080  177.6440  139.5910 C   0  0  1  0  0  3  0  0  0  0  0  0
  189.8410  176.4270  135.6420 C   0  0  0  0  0  0  0  0  0  0  0  0
  190.0270  176.4700  137.0280 C   0  0  0  0  0  0  0  0  0  0  0  0
  190.8910  176.0150  134.8150 C   0  0  0  0  0  3  0  0  0  0  0  0
  185.7450  176.6280  134.7010 C   0  0  0  0  0  2  0  0  0  0  0  0
  184.7630  176.0940  135.7440 C   0  0  2  0  0  3  0  0  0  0  0  0
  185.2580  176.1730  137.1940 C   0  0  0  0  0  2  0  0  0  0  0  0
  187.7390  177.6530  135.8630 C   0  0  2  0  0  3  0  0  0  0  0  0
  186.7330  175.8290  137.3440 C   0  0  0  0  0  2  0  0  0  0  0  0
  187.5590  177.1090  137.2950 C   0  0  1  0  0  3  0  0  0  0  0  0
  191.4270  177.2170  143.3190 C   0  0  0  0  0  3  0  0  0  0  0  0
  189.2270  177.7270  141.6060 C   0  0  0  0  0  3  0  0  0  0  0  0
  188.2610  177.5880  145.1800 N   0  0  0  0  0  0  0  0  0  0  0  0
  187.3710  177.6270  146.3020 C   0  0  0  0  0  0  0  0  0  0  0  0
  189.7000  177.3160  145.2600 C   0  0  0  0  0  2  0  0  0  0  0  0
  186.1690  177.9710  146.1490 O   0  0  0  0  0  0  0  0  0  0  0  0
  190.1410  177.3880  143.8270 C   0  0  0  0  0  0  0  0  0  0  0  0
  187.8590  177.2900  147.6650 C   0  0  0  0  0  1  0  0  0  0  0  0
  187.9030  177.7500  143.8100 C   0  0  0  0  0  0  0  0  0  0  0  0
  189.0780  177.6350  142.9890 C   0  0  0  0  0  0  0  0  0  0  0  0
  186.7290  177.9370  143.3940 O   0  0  0  0  0  0  0  0  0  0  0  0
  190.5150  177.5550  141.0710 C   0  0  0  0  0  0  0  0  0  0  0  0
  191.6100  177.3050  141.9290 C   0  0  0  0  0  3  0  0  0  0  0  0
  184.3740  174.6670  135.3760 C   0  0  0  0  0  2  0  0  0  0  0  0
  183.3560  173.9090  136.6780 S   0  0  0  0  0  0  0  0  0  0  0  0
  184.5290  172.5410  136.8940 C   0  0  0  0  0  1  0  0  0  0  0  0
  1  5  1  6  0  0  0
  3 10  1  0  0  0  0
  3 16  1  0  0  0  0
  4  9  1  0  0  0  0
  5  9  1  0  0  0  0
  6  4  1  0  0  0  0
  7  8  1  0  0  0  0
  8  6  2  0  0  0  0
  9 30  1  1  0  0  0
 10 11  2  0  0  0  0
 11  6  1  0  0  0  0
 11  1  1  0  0  0  0
 12  7  2  0  0  0  0
 12 10  1  0  0  0  0
 13  2  1  0  0  0  0
 13 14  1  0  0  0  0
 14 32  1  6  0  0  0
 14 15  1  0  0  0  0
 15 17  1  0  0  0  0
 16  2  1  6  0  0  0
 16 18  1  0  0  0  0
 18 17  1  6  0  0  0
 18  1  1  0  0  0  0
 19 25  1  0  0  0  0
 20 28  1  0  0  0  0
 21 23  1  0  0  0  0
 21 22  1  0  0  0  0
 22 26  1  0  0  0  0
 24 22  2  0  0  0  0
 25 23  1  0  0  0  0
 27 21  1  0  0  0  0
 28 27  1  0  0  0  0
 28 25  2  0  0  0  0
 29 27  2  0  0  0  0
 30 20  2  0  0  0  0
 30 31  1  0  0  0  0
 31 19  2  0  0  0  0
 32 33  1  0  0  0  0
 33 34  1  0  0  0  0
M  END
>  <MODEL>
3

>  <REMARK>
 VINA RESULT:      -8.4      1.477      1.940
  Name = 
  3 active torsions:
  status: ('A' for Active; 'I' for Inactive)
    1  A    between atoms: C_3  and  S_13
    2  A    between atoms: C_3  and  C_25
    3  A    between atoms: C_18  and  C_30
                            x       y       z     vdW  Elec       q    Type
                         _______ _______ _______ _____ _____    ______ ____

>  <TORSDO>
F 3

$$$$
=
 OpenBabel10272415243D

 34 39  0  0  1  0  0  0  0  0999 V2000
  183.6560  177.3280  139.3240 C   0  0  2  0  0  3  0  0  0  0  0  0
  180.4260  177.0590  137.1030 C   0  0  0  0  0  2  0  0  0  0  0  0
  182.8160  177.1380  136.5700 O   0  0  0  0  0  0  0  0  0  0  0  0
  186.2830  178.1900  139.8720 C   0  0  0  0  0  2  0  0  0  0  0  0
  183.7060  178.5560  140.2240 C   0  0  0  0  0  2  0  0  0  0  0  0
  185.9010  177.9290  138.4440 C   0  0  0  0  0  0  0  0  0  0  0  0
  186.4220  177.8290  136.0790 C   0  0  0  0  0  3  0  0  0  0  0  0
  186.8230  178.0570  137.4050 C   0  0  0  0  0  3  0  0  0  0  0  0
  185.1540  178.9200  140.6430 C   0  0  1  0  0  3  0  0  0  0  0  0
  184.1660  177.3750  136.8400 C   0  0  0  0  0  0  0  0  0  0  0  0
  184.5920  177.5230  138.1650 C   0  0  0  0  0  0  0  0  0  0  0  0
  185.0910  177.5000  135.7980 C   0  0  0  0  0  3  0  0  0  0  0  0
  180.3600  175.5860  136.7080 C   0  0  0  0  0  2  0  0  0  0  0  0
  179.9820  174.6650  137.8690 C   0  0  2  0  0  3  0  0  0  0  0  0
  180.6690  174.9940  139.2010 C   0  0  0  0  0  2  0  0  0  0  0  0
  181.8320  177.4550  137.5550 C   0  0  2  0  0  3  0  0  0  0  0  0
  182.1280  175.3960  139.0400 C   0  0  0  0  0  2  0  0  0  0  0  0
  182.2280  176.9140  138.9450 C   0  0  1  0  0  3  0  0  0  0  0  0
  184.4890  179.0280  144.4030 C   0  0  0  0  0  3  0  0  0  0  0  0
  186.5370  178.2330  142.6130 C   0  0  0  0  0  3  0  0  0  0  0  0
  187.4420  177.6850  146.1630 N   0  0  0  0  0  0  0  0  0  0  0  0
  188.2770  177.2940  147.2590 C   0  0  0  0  0  0  0  0  0  0  0  0
  186.1070  178.2780  146.2950 C   0  0  0  0  0  2  0  0  0  0  0  0
  189.3660  176.6970  147.0490 O   0  0  0  0  0  0  0  0  0  0  0  0
  185.6880  178.4940  144.8700 C   0  0  0  0  0  0  0  0  0  0  0  0
  187.8580  177.5610  148.6610 C   0  0  0  0  0  1  0  0  0  0  0  0
  187.7770  177.6170  144.7790 C   0  0  0  0  0  0  0  0  0  0  0  0
  186.6780  178.1110  143.9940 C   0  0  0  0  0  0  0  0  0  0  0  0
  188.8810  177.2120  144.3270 O   0  0  0  0  0  0  0  0  0  0  0  0
  185.3360  178.7720  142.1190 C   0  0  0  0  0  0  0  0  0  0  0  0
  184.3150  179.1630  143.0160 C   0  0  0  0  0  3  0  0  0  0  0  0
  180.2410  173.2200  137.4610 C   0  0  0  0  0  2  0  0  0  0  0  0
  181.3340  173.1350  136.0090 S   0  0  0  0  0  0  0  0  0  0  0  0
  182.3970  171.8940  136.7970 C   0  0  0  0  0  1  0  0  0  0  0  0
  1  5  1  6  0  0  0
  3 10  1  0  0  0  0
  3 16  1  0  0  0  0
  4  9  1  0  0  0  0
  5  9  1  0  0  0  0
  6  4  1  0  0  0  0
  7  8  1  0  0  0  0
  8  6  2  0  0  0  0
  9 30  1  1  0  0  0
 10 11  2  0  0  0  0
 11  6  1  0  0  0  0
 11  1  1  0  0  0  0
 12  7  2  0  0  0  0
 12 10  1  0  0  0  0
 13  2  1  0  0  0  0
 13 14  1  0  0  0  0
 14 32  1  6  0  0  0
 14 15  1  0  0  0  0
 16  2  1  6  0  0  0
 16 18  1  0  0  0  0
 17 15  1  0  0  0  0
 18 17  1  6  0  0  0
 18  1  1  0  0  0  0
 19 25  1  0  0  0  0
 20 28  1  0  0  0  0
 21 23  1  0  0  0  0
 21 22  1  0  0  0  0
 22 26  1  0  0  0  0
 24 22  2  0  0  0  0
 25 23  1  0  0  0  0
 27 21  1  0  0  0  0
 28 27  1  0  0  0  0
 28 25  2  0  0  0  0
 29 27  2  0  0  0  0
 30 20  2  0  0  0  0
 30 31  1  0  0  0  0
 31 19  2  0  0  0  0
 33 34  1  0  0  0  0
 33 32  1  0  0  0  0
M  END
>  <MODEL>
4

>  <REMARK>
 VINA RESULT:      -8.4      3.057      4.490
  Name = 
  3 active torsions:
  status: ('A' for Active; 'I' for Inactive)
    1  A    between atoms: C_3  and  S_13
    2  A    between atoms: C_3  and  C_25
    3  A    between atoms: C_18  and  C_30
                            x       y       z     vdW  Elec       q    Type
                         _______ _______ _______ _____ _____    ______ ____

>  <TORSDO>
F 3

$$$$
=
 OpenBabel10272415243D

 34 39  0  0  1  0  0  0  0  0999 V2000
  190.6520  176.9050  140.9080 C   0  0  2  0  0  3  0  0  0  0  0  0
  190.9960  179.1760  144.0960 C   0  0  0  0  0  2  0  0  0  0  0  0
  189.1680  178.7890  142.5120 O   0  0  0  0  0  0  0  0  0  0  0  0
  189.7080  176.3060  138.3200 C   0  0  0  0  0  2  0  0  0  0  0  0
  191.6800  177.1810  139.8190 C   0  0  0  0  0  2  0  0  0  0  0  0
  188.8500  177.1510  139.2150 C   0  0  0  0  0  0  0  0  0  0  0  0
  186.8270  178.4080  139.6660 C   0  0  0  0  0  3  0  0  0  0  0  0
  187.5900  177.5980  138.8120 C   0  0  0  0  0  3  0  0  0  0  0  0
  191.2040  176.6990  138.4240 C   0  0  1  0  0  3  0  0  0  0  0  0
  188.6030  178.3440  141.3140 C   0  0  0  0  0  0  0  0  0  0  0  0
  189.3230  177.4700  140.4920 C   0  0  0  0  0  0  0  0  0  0  0  0
  187.3390  178.7890  140.9120 C   0  0  0  0  0  3  0  0  0  0  0  0
  190.2490  178.4130  145.1860 C   0  0  0  0  0  2  0  0  0  0  0  0
  190.9810  177.1560  145.6550 C   0  0  2  0  0  3  0  0  0  0  0  0
  191.6070  176.3190  144.5320 C   0  0  0  0  0  2  0  0  0  0  0  0
  190.5810  178.7090  142.7000 C   0  0  2  0  0  3  0  0  0  0  0  0
  190.7290  176.2270  143.2920 C   0  0  0  0  0  2  0  0  0  0  0  0
  191.1260  177.3210  142.3070 C   0  0  1  0  0  3  0  0  0  0  0  0
  192.3670  173.5200  136.6520 C   0  0  0  0  0  3  0  0  0  0  0  0
  193.4540  175.6240  138.2100 C   0  0  0  0  0  3  0  0  0  0  0  0
  196.0010  173.1420  137.1740 N   0  0  0  0  0  0  0  0  0  0  0  0
  197.3050  172.5550  137.0950 C   0  0  0  0  0  0  0  0  0  0  0  0
  194.7850  172.5680  136.5880 C   0  0  0  0  0  2  0  0  0  0  0  0
  198.3090  173.1700  137.5400 O   0  0  0  0  0  0  0  0  0  0  0  0
  193.7250  173.5610  136.9620 C   0  0  0  0  0  0  0  0  0  0  0  0
  197.4970  171.2230  136.4600 C   0  0  0  0  0  1  0  0  0  0  0  0
  195.6530  174.3350  137.8710 C   0  0  0  0  0  0  0  0  0  0  0  0
  194.2440  174.5860  137.7210 C   0  0  0  0  0  0  0  0  0  0  0  0
  196.4580  175.0380  138.5360 O   0  0  0  0  0  0  0  0  0  0  0  0
  192.0800  175.6010  137.9110 C   0  0  0  0  0  0  0  0  0  0  0  0
  191.5430  174.5530  137.1290 C   0  0  0  0  0  3  0  0  0  0  0  0
  190.0320  176.3150  146.5000 C   0  0  0  0  0  2  0  0  0  0  0  0
  188.3880  177.0860  146.6030 S   0  0  0  0  0  0  0  0  0  0  0  0
  188.6890  177.6630  148.2960 C   0  0  0  0  0  1  0  0  0  0  0  0
  1  5  1  6  0  0  0
  1 18  1  0  0  0  0
  2 13  1  0  0  0  0
  3 16  1  0  0  0  0
  4  9  1  0  0  0  0
  4  6  1  0  0  0  0
  6 11  1  0  0  0  0
  7 12  2  0  0  0  0
  8  6  2  0  0  0  0
  8  7  1  0  0  0  0
  9 30  1  1  0  0  0
  9  5  1  0  0  0  0
 10  3  1  0  0  0  0
 11  1  1  0  0  0  0
 11 10  2  0  0  0  0
 12 10  1  0  0  0  0
 13 14  1  0  0  0  0
 14 32  1  6  0  0  0
 15 14  1  0  0  0  0
 16  2  1  1  0  0  0
 17 15  1  0  0  0  0
 18 16  1  0  0  0  0
 18 17  1  1  0  0  0
 19 25  2  0  0  0  0
 19 31  1  0  0  0  0
 21 27  1  0  0  0  0
 22 21  1  0  0  0  0
 22 24  2  0  0  0  0
 23 25  1  0  0  0  0
 23 21  1  0  0  0  0
 25 28  1  0  0  0  0
 26 22  1  0  0  0  0
 27 29  2  0  0  0  0
 28 27  1  0  0  0  0
 28 20  2  0  0  0  0
 30 20  1  0  0  0  0
 31 30  2  0  0  0  0
 32 33  1  0  0  0  0
 33 34  1  0  0  0  0
M  END
>  <MODEL>
5

>  <REMARK>
 VINA RESULT:      -8.2      4.453      9.309
  Name = 
  3 active torsions:
  status: ('A' for Active; 'I' for Inactive)
    1  A    between atoms: C_3  and  S_13
    2  A    between atoms: C_3  and  C_25
    3  A    between atoms: C_18  and  C_30
                            x       y       z     vdW  Elec       q    Type
                         _______ _______ _______ _____ _____    ______ ____

>  <TORSDO>
F 3

$$$$
=
 OpenBabel10272415243D

 34 39  0  0  1  0  0  0  0  0999 V2000
  190.9630  176.8350  140.8750 C   0  0  2  0  0  3  0  0  0  0  0  0
  190.8730  179.2570  143.9670 C   0  0  0  0  0  2  0  0  0  0  0  0
  189.2270  178.6880  142.2430 O   0  0  0  0  0  0  0  0  0  0  0  0
  190.3040  176.0670  138.2440 C   0  0  0  0  0  2  0  0  0  0  0  0
  192.0710  177.1280  139.8720 C   0  0  0  0  0  2  0  0  0  0  0  0
  189.3170  176.8940  139.0150 C   0  0  0  0  0  0  0  0  0  0  0  0
  187.1900  178.0390  139.2180 C   0  0  0  0  0  3  0  0  0  0  0  0
  188.0770  177.2420  138.4780 C   0  0  0  0  0  3  0  0  0  0  0  0
  191.7570  176.5580  138.4640 C   0  0  1  0  0  3  0  0  0  0  0  0
  188.8040  178.1570  141.0230 C   0  0  0  0  0  0  0  0  0  0  0  0
  189.6490  177.2970  140.3120 C   0  0  0  0  0  0  0  0  0  0  0  0
  187.5600  178.5040  140.4850 C   0  0  0  0  0  3  0  0  0  0  0  0
  190.0720  178.4970  145.0200 C   0  0  0  0  0  2  0  0  0  0  0  0
  190.8300  177.3090  145.6150 C   0  0  2  0  0  3  0  0  0  0  0  0
  191.6070  176.4660  144.5940 C   0  0  0  0  0  2  0  0  0  0  0  0
  190.6180  178.7060  142.5630 C   0  0  2  0  0  3  0  0  0  0  0  0
  190.8560  176.2650  143.2860 C   0  0  0  0  0  2  0  0  0  0  0  0
  191.2790  177.3390  142.2900 C   0  0  1  0  0  3  0  0  0  0  0  0
  194.9970  174.5500  138.1990 C   0  0  0  0  0  3  0  0  0  0  0  0
  192.3260  174.4400  137.2580 C   0  0  0  0  0  3  0  0  0  0  0  0
  194.3880  171.6070  136.0570 N   0  0  0  0  0  0  0  0  0  0  0  0
  194.6710  170.4020  135.3350 C   0  0  0  0  0  0  0  0  0  0  0  0
  195.3690  172.3630  136.8440 C   0  0  0  0  0  2  0  0  0  0  0  0
  193.7420  169.7650  134.7720 O   0  0  0  0  0  0  0  0  0  0  0  0
  194.5650  173.5140  137.3740 C   0  0  0  0  0  0  0  0  0  0  0  0
  196.0580  169.8720  135.2640 C   0  0  0  0  0  1  0  0  0  0  0  0
  193.1420  172.2980  136.0930 C   0  0  0  0  0  0  0  0  0  0  0  0
  193.2660  173.4690  136.9200 C   0  0  0  0  0  0  0  0  0  0  0  0
  192.1070  171.9440  135.4690 O   0  0  0  0  0  0  0  0  0  0  0  0
  192.7410  175.4970  138.0870 C   0  0  0  0  0  0  0  0  0  0  0  0
  194.0730  175.5450  138.5580 C   0  0  0  0  0  3  0  0  0  0  0  0
  189.8570  176.4470  146.4090 C   0  0  0  0  0  2  0  0  0  0  0  0
  188.2560  177.2840  146.6140 S   0  0  0  0  0  0  0  0  0  0  0  0
  188.6040  177.6720  148.3520 C   0  0  0  0  0  1  0  0  0  0  0  0
  1  5  1  6  0  0  0
  1 18  1  0  0  0  0
  2 13  1  0  0  0  0
  3 16  1  0  0  0  0
  4  9  1  0  0  0  0
  4  6  1  0  0  0  0
  6 11  1  0  0  0  0
  7 12  2  0  0  0  0
  8  6  2  0  0  0  0
  8  7  1  0  0  0  0
  9 30  1  1  0  0  0
  9  5  1  0  0  0  0
 10  3  1  0  0  0  0
 11  1  1  0  0  0  0
 11 10  2  0  0  0  0
 12 10  1  0  0  0  0
 13 14  1  0  0  0  0
 14 32  1  6  0  0  0
 15 14  1  0  0  0  0
 16  2  1  1  0  0  0
 17 15  1  0  0  0  0
 18 16  1  0  0  0  0
 18 17  1  1  0  0  0
 19 31  1  0  0  0  0
 20 30  1  0  0  0  0
 21 27  1  0  0  0  0
 21 23  1  0  0  0  0
 22 21  1  0  0  0  0
 23 25  1  0  0  0  0
 24 22  2  0  0  0  0
 25 19  2  0  0  0  0
 26 22  1  0  0  0  0
 27 28  1  0  0  0  0
 28 20  2  0  0  0  0
 28 25  1  0  0  0  0
 29 27  2  0  0  0  0
 30 31  2  0  0  0  0
 32 33  1  0  0  0  0
 33 34  1  0  0  0  0
M  END
>  <MODEL>
6

>  <REMARK>
 VINA RESULT:      -7.6      4.337      9.660
  Name = 
  3 active torsions:
  status: ('A' for Active; 'I' for Inactive)
    1  A    between atoms: C_3  and  S_13
    2  A    between atoms: C_3  and  C_25
    3  A    between atoms: C_18  and  C_30
                            x       y       z     vdW  Elec       q    Type
                         _______ _______ _______ _____ _____    ______ ____

>  <TORSDO>
F 3

$$$$
=
 OpenBabel10272415243D

 34 39  0  0  1  0  0  0  0  0999 V2000
  184.6490  177.2580  138.4280 C   0  0  2  0  0  3  0  0  0  0  0  0
  180.8510  177.7840  137.5700 C   0  0  0  0  0  2  0  0  0  0  0  0
  182.8320  177.3650  136.1900 O   0  0  0  0  0  0  0  0  0  0  0  0
  187.4120  177.5080  137.9290 C   0  0  0  0  0  2  0  0  0  0  0  0
  185.2920  178.4090  139.1910 C   0  0  0  0  0  2  0  0  0  0  0  0
  186.4830  177.3940  136.7570 C   0  0  0  0  0  0  0  0  0  0  0  0
  186.0590  177.2770  134.3730 C   0  0  0  0  0  3  0  0  0  0  0  0
  186.9600  177.3590  135.4460 C   0  0  0  0  0  3  0  0  0  0  0  0
  186.8340  178.4330  139.0300 C   0  0  1  0  0  3  0  0  0  0  0  0
  184.2030  177.2920  135.9320 C   0  0  0  0  0  0  0  0  0  0  0  0
  185.1090  177.2920  136.9980 C   0  0  0  0  0  0  0  0  0  0  0  0
  184.6810  177.2560  134.6180 C   0  0  0  0  0  3  0  0  0  0  0  0
  180.3280  176.3780  137.2930 C   0  0  0  0  0  2  0  0  0  0  0  0
  180.2160  175.5150  138.5500 C   0  0  2  0  0  3  0  0  0  0  0  0
  181.4000  175.6340  139.5190 C   0  0  0  0  0  2  0  0  0  0  0  0
  182.3750  177.8480  137.4540 C   0  0  2  0  0  3  0  0  0  0  0  0
  182.7460  175.7160  138.8140 C   0  0  0  0  0  2  0  0  0  0  0  0
  183.1290  177.1790  138.6210 C   0  0  1  0  0  3  0  0  0  0  0  0
  189.5270  177.6620  141.6280 C   0  0  0  0  0  3  0  0  0  0  0  0
  186.7600  178.2680  141.5260 C   0  0  0  0  0  3  0  0  0  0  0  0
  187.9880  177.7440  144.9810 N   0  0  0  0  0  0  0  0  0  0  0  0
  187.8920  177.6430  146.4070 C   0  0  0  0  0  0  0  0  0  0  0  0
  189.2100  177.5120  144.2040 C   0  0  0  0  0  2  0  0  0  0  0  0
  186.8270  177.9620  146.9980 O   0  0  0  0  0  0  0  0  0  0  0  0
  188.7620  177.7410  142.7900 C   0  0  0  0  0  0  0  0  0  0  0  0
  189.0570  177.1880  147.2120 C   0  0  0  0  0  1  0  0  0  0  0  0
  186.9210  178.0300  144.0810 C   0  0  0  0  0  0  0  0  0  0  0  0
  187.4190  178.0340  142.7320 C   0  0  0  0  0  0  0  0  0  0  0  0
  185.7240  178.2190  144.4240 O   0  0  0  0  0  0  0  0  0  0  0  0
  187.5120  178.1910  140.3400 C   0  0  0  0  0  0  0  0  0  0  0  0
  188.8930  177.8940  140.3960 C   0  0  0  0  0  3  0  0  0  0  0  0
  179.9880  174.0660  138.1400 C   0  0  0  0  0  2  0  0  0  0  0  0
  180.3080  173.8300  136.3650 S   0  0  0  0  0  0  0  0  0  0  0  0
  181.7540  172.7850  136.6950 C   0  0  0  0  0  1  0  0  0  0  0  0
  1 18  1  0  0  0  0
  1  5  1  1  0  0  0
  3 16  1  0  0  0  0
  4  9  1  0  0  0  0
  6 11  1  0  0  0  0
  6  4  1  0  0  0  0
  7 12  2  0  0  0  0
  7  8  1  0  0  0  0
  8  6  2  0  0  0  0
  9  5  1  0  0  0  0
  9 30  1  1  0  0  0
 10  3  1  0  0  0  0
 10 11  2  0  0  0  0
 11  1  1  0  0  0  0
 12 10  1  0  0  0  0
 13  2  1  0  0  0  0
 13 14  1  0  0  0  0
 14 32  1  6  0  0  0
 14 15  1  0  0  0  0
 16  2  1  1  0  0  0
 16 18  1  0  0  0  0
 17 15  1  0  0  0  0
 18 17  1  6  0  0  0
 19 25  1  0  0  0  0
 20 28  1  0  0  0  0
 21 22  1  0  0  0  0
 22 24  2  0  0  0  0
 22 26  1  0  0  0  0
 23 21  1  0  0  0  0
 25 23  1  0  0  0  0
 27 29  2  0  0  0  0
 27 21  1  0  0  0  0
 28 25  2  0  0  0  0
 28 27  1  0  0  0  0
 30 31  1  0  0  0  0
 30 20  2  0  0  0  0
 31 19  2  0  0  0  0
 33 34  1  0  0  0  0
 33 32  1  0  0  0  0
M  END
>  <MODEL>
7

>  <REMARK>
 VINA RESULT:      -7.5      2.881      4.378
  Name = 
  3 active torsions:
  status: ('A' for Active; 'I' for Inactive)
    1  A    between atoms: C_3  and  S_13
    2  A    between atoms: C_3  and  C_25
    3  A    between atoms: C_18  and  C_30
                            x       y       z     vdW  Elec       q    Type
                         _______ _______ _______ _____ _____    ______ ____

>  <TORSDO>
F 3

$$$$
=
 OpenBabel10272415243D

 34 39  0  0  1  0  0  0  0  0999 V2000
  184.3640  178.4160  141.6530 C   0  0  2  0  0  3  0  0  0  0  0  0
  185.2850  180.3980  144.9180 C   0  0  0  0  0  2  0  0  0  0  0  0
  183.1990  179.4070  144.0990 O   0  0  0  0  0  0  0  0  0  0  0  0
  182.6410  177.6660  139.5510 C   0  0  0  0  0  2  0  0  0  0  0  0
  184.6420  179.1640  140.3560 C   0  0  0  0  0  2  0  0  0  0  0  0
  182.0360  178.0190  140.8780 C   0  0  0  0  0  0  0  0  0  0  0  0
  180.1290  178.3010  142.3470 C   0  0  0  0  0  3  0  0  0  0  0  0
  180.6610  177.9370  141.1000 C   0  0  0  0  0  3  0  0  0  0  0  0
  183.7950  178.6290  139.1730 C   0  0  1  0  0  3  0  0  0  0  0  0
  182.3530  178.8550  143.1350 C   0  0  0  0  0  0  0  0  0  0  0  0
  182.8850  178.4140  141.9180 C   0  0  0  0  0  0  0  0  0  0  0  0
  180.9750  178.7700  143.3580 C   0  0  0  0  0  3  0  0  0  0  0  0
  185.4050  179.3210  145.9930 C   0  0  0  0  0  2  0  0  0  0  0  0
  186.6480  178.4450  145.8350 C   0  0  2  0  0  3  0  0  0  0  0  0
  186.9560  178.0200  144.3930 C   0  0  0  0  0  2  0  0  0  0  0  0
  184.4830  179.9010  143.7140 C   0  0  2  0  0  3  0  0  0  0  0  0
  185.7120  177.6630  143.5940 C   0  0  0  0  0  2  0  0  0  0  0  0
  185.2340  178.8890  142.8250 C   0  0  1  0  0  3  0  0  0  0  0  0
  184.9380  176.9500  135.9360 C   0  0  0  0  0  3  0  0  0  0  0  0
  186.0580  177.9710  138.3310 C   0  0  0  0  0  3  0  0  0  0  0  0
  188.6080  176.5760  136.0340 N   0  0  0  0  0  0  0  0  0  0  0  0
  189.9220  176.2010  135.6030 C   0  0  0  0  0  0  0  0  0  0  0  0
  187.3750  176.3270  135.2800 C   0  0  0  0  0  2  0  0  0  0  0  0
  190.9330  176.5480  136.2680 O   0  0  0  0  0  0  0  0  0  0  0  0
  186.3110  176.9040  136.1680 C   0  0  0  0  0  0  0  0  0  0  0  0
  190.1120  175.4230  134.3500 C   0  0  0  0  0  1  0  0  0  0  0  0
  188.2690  177.1950  137.2730 C   0  0  0  0  0  0  0  0  0  0  0  0
  186.8470  177.4000  137.3340 C   0  0  0  0  0  0  0  0  0  0  0  0
  189.0950  177.4860  138.1780 O   0  0  0  0  0  0  0  0  0  0  0  0
  184.6690  178.0260  138.1210 C   0  0  0  0  0  0  0  0  0  0  0  0
  184.1150  177.5210  136.9230 C   0  0  0  0  0  3  0  0  0  0  0  0
  186.5200  177.2320  146.7470 C   0  0  0  0  0  2  0  0  0  0  0  0
  187.7270  177.3030  148.1060 S   0  0  0  0  0  0  0  0  0  0  0  0
  189.1200  177.0400  146.9730 C   0  0  0  0  0  1  0  0  0  0  0  0
  1  5  1  6  0  0  0
  1 11  1  0  0  0  0
  1 18  1  0  0  0  0
  2 13  1  0  0  0  0
  4  6  1  0  0  0  0
  6  8  2  0  0  0  0
  6 11  1  0  0  0  0
  7 12  2  0  0  0  0
  8  7  1  0  0  0  0
  9 30  1  6  0  0  0
  9  4  1  0  0  0  0
  9  5  1  0  0  0  0
 10 12  1  0  0  0  0
 10  3  1  0  0  0  0
 11 10  2  0  0  0  0
 14 13  1  0  0  0  0
 14 32  1  1  0  0  0
 15 14  1  0  0  0  0
 16  3  1  0  0  0  0
 16  2  1  1  0  0  0
 17 15  1  0  0  0  0
 18 17  1  1  0  0  0
 18 16  1  0  0  0  0
 19 25  2  0  0  0  0
 19 31  1  0  0  0  0
 21 27  1  0  0  0  0
 22 21  1  0  0  0  0
 22 24  2  0  0  0  0
 23 21  1  0  0  0  0
 23 25  1  0  0  0  0
 25 28  1  0  0  0  0
 26 22  1  0  0  0  0
 27 28  1  0  0  0  0
 27 29  2  0  0  0  0
 28 20  2  0  0  0  0
 30 20  1  0  0  0  0
 31 30  2  0  0  0  0
 32 33  1  0  0  0  0
 34 33  1  0  0  0  0
M  END
>  <MODEL>
8

>  <REMARK>
 VINA RESULT:      -7.5      4.554      9.772
  Name = 
  3 active torsions:
  status: ('A' for Active; 'I' for Inactive)
    1  A    between atoms: C_3  and  S_13
    2  A    between atoms: C_3  and  C_25
    3  A    between atoms: C_18  and  C_30
                            x       y       z     vdW  Elec       q    Type
                         _______ _______ _______ _____ _____    ______ ____

>  <TORSDO>
F 3

$$$$
=
 OpenBabel10272415243D

 34 39  0  0  1  0  0  0  0  0999 V2000
  189.3250  177.3970  141.6050 C   0  0  2  0  0  3  0  0  0  0  0  0
  192.6510  177.9770  139.5960 C   0  0  0  0  0  2  0  0  0  0  0  0
  192.1820  177.0570  141.8180 O   0  0  0  0  0  0  0  0  0  0  0  0
  187.7790  177.2900  143.9600 C   0  0  0  0  0  2  0  0  0  0  0  0
  188.4940  178.6530  141.8320 C   0  0  0  0  0  2  0  0  0  0  0  0
  189.2370  176.9460  144.0470 C   0  0  0  0  0  0  0  0  0  0  0  0
  191.1940  176.2450  145.2940 C   0  0  0  0  0  3  0  0  0  0  0  0
  189.8210  176.5330  145.2450 C   0  0  0  0  0  3  0  0  0  0  0  0
  187.5340  178.5130  143.0410 C   0  0  1  0  0  3  0  0  0  0  0  0
  191.3960  176.8120  142.9470 C   0  0  0  0  0  0  0  0  0  0  0  0
  190.0140  177.0190  142.8860 C   0  0  0  0  0  0  0  0  0  0  0  0
  191.9820  176.3960  144.1470 C   0  0  0  0  0  3  0  0  0  0  0  0
  193.0230  176.5920  139.0720 C   0  0  0  0  0  2  0  0  0  0  0  0
  192.1010  176.1000  137.9560 C   0  0  2  0  0  3  0  0  0  0  0  0
  190.6100  176.3740  138.1860 C   0  0  0  0  0  2  0  0  0  0  0  0
  191.6770  177.8880  140.7720 C   0  0  2  0  0  3  0  0  0  0  0  0
  190.1760  176.1630  139.6290 C   0  0  0  0  0  2  0  0  0  0  0  0
  190.2400  177.4900  140.3770 C   0  0  1  0  0  3  0  0  0  0  0  0
  183.7140  178.4610  143.1120 C   0  0  0  0  0  3  0  0  0  0  0  0
  185.8170  178.7880  141.2410 C   0  0  0  0  0  3  0  0  0  0  0  0
  182.4640  178.9990  139.6810 N   0  0  0  0  0  0  0  0  0  0  0  0
  181.5190  179.1440  138.6140 C   0  0  0  0  0  0  0  0  0  0  0  0
  182.1140  178.7430  141.0830 C   0  0  0  0  0  2  0  0  0  0  0  0
  181.9060  179.4660  137.4600 O   0  0  0  0  0  0  0  0  0  0  0  0
  183.4510  178.6760  141.7610 C   0  0  0  0  0  0  0  0  0  0  0  0
  180.0660  178.9470  138.8600 C   0  0  0  0  0  1  0  0  0  0  0  0
  183.8840  179.0230  139.5620 C   0  0  0  0  0  0  0  0  0  0  0  0
  184.4780  178.8320  140.8580 C   0  0  0  0  0  0  0  0  0  0  0  0
  184.5100  179.1610  138.4780 O   0  0  0  0  0  0  0  0  0  0  0  0
  186.1070  178.5700  142.5990 C   0  0  0  0  0  0  0  0  0  0  0  0
  185.0540  178.4130  143.5300 C   0  0  0  0  0  3  0  0  0  0  0  0
  192.3550  174.6160  137.7210 C   0  0  0  0  0  2  0  0  0  0  0  0
  194.1360  174.2480  137.7210 S   0  0  0  0  0  0  0  0  0  0  0  0
  194.2930  174.6690  135.9630 C   0  0  0  0  0  1  0  0  0  0  0  0
  1  5  1  1  0  0  0
  1 11  1  0  0  0  0
  3 10  1  0  0  0  0
  4  6  1  0  0  0  0
  5  9  1  0  0  0  0
  6  8  1  0  0  0  0
  8  7  2  0  0  0  0
  9 30  1  6  0  0  0
  9  4  1  0  0  0  0
 10 12  2  0  0  0  0
 11 10  1  0  0  0  0
 11  6  2  0  0  0  0
 12  7  1  0  0  0  0
 13  2  1  0  0  0  0
 14 32  1  1  0  0  0
 14 15  1  0  0  0  0
 14 13  1  0  0  0  0
 15 17  1  0  0  0  0
 16  2  1  6  0  0  0
 16  3  1  0  0  0  0
 18 17  1  1  0  0  0
 18 16  1  0  0  0  0
 18  1  1  0  0  0  0
 19 31  1  0  0  0  0
 20 30  1  0  0  0  0
 21 23  1  0  0  0  0
 22 26  1  0  0  0  0
 22 21  1  0  0  0  0
 23 25  1  0  0  0  0
 24 22  2  0  0  0  0
 25 19  2  0  0  0  0
 27 21  1  0  0  0  0
 27 28  1  0  0  0  0
 28 20  2  0  0  0  0
 28 25  1  0  0  0  0
 29 27  2  0  0  0  0
 30 31  2  0  0  0  0
 33 32  1  0  0  0  0
 34 33  1  0  0  0  0
M  END
>  <MODEL>
9

>  <REMARK>
 VINA RESULT:      -7.3      4.238      7.587
  Name = 
  3 active torsions:
  status: ('A' for Active; 'I' for Inactive)
    1  A    between atoms: C_3  and  S_13
    2  A    between atoms: C_3  and  C_25
    3  A    between atoms: C_18  and  C_30
                            x       y       z     vdW  Elec       q    Type
                         _______ _______ _______ _____ _____    ______ ____

>  <TORSDO>
F 3

$$$$
