=
 OpenBabel10272413213D

 32 38  0  0  1  0  0  0  0  0999 V2000
  189.4110  177.9100  136.6800 C   0  0  1  0  0  3  0  0  0  0  0  0
  188.8010  177.3470  141.6010 C   0  0  0  0  0  0  0  0  0  0  0  0
  184.1690  178.7230  142.4530 C   0  0  0  0  0  2  0  0  0  0  0  0
  184.4710  179.0110  143.9110 C   0  0  0  0  0  2  0  0  0  0  0  0
  189.7010  177.3640  139.4950 C   0  0  0  0  0  0  0  0  0  0  0  0
  187.6860  178.5860  139.8680 N   0  0  0  0  0  0  0  0  0  0  0  0
  188.7390  178.7290  137.7270 C   0  0  0  0  0  2  0  0  0  0  0  0
  185.4150  179.2200  141.5780 C   0  0  0  0  0  2  0  0  0  0  0  0
  187.7190  178.1720  141.2070 C   0  0  0  0  0  0  0  0  0  0  0  0
  186.6900  178.5300  142.0860 C   0  0  0  0  0  0  0  0  0  0  0  0
  187.9280  177.3380  143.8670 C   0  0  0  0  0  0  0  0  0  0  0  0
  190.4900  176.8550  137.0840 C   0  0  1  0  0  3  0  0  0  0  0  0
  188.6700  178.1860  139.0660 C   0  0  0  0  0  0  0  0  0  0  0  0
  190.8290  176.9080  138.6400 C   0  0  0  0  0  2  0  0  0  0  0  0
  189.0770  176.4100  136.7030 C   0  0  2  0  0  3  0  0  0  0  0  0
  185.6890  178.2530  144.3380 C   0  0  0  0  0  2  0  0  0  0  0  0
  186.8450  178.1350  143.4300 C   0  0  0  0  0  0  0  0  0  0  0  0
  189.7670  176.9620  140.7580 N   0  0  0  0  0  0  0  0  0  0  0  0
  188.9080  176.9250  142.9460 C   0  0  0  0  0  0  0  0  0  0  0  0
  190.1190  176.2680  143.4480 C   0  0  0  0  0  3  0  0  0  0  0  0
  191.2160  176.8780  143.7230 N   0  0  0  0  0  2  0  0  0  0  0  0
  188.7690  176.1750  135.1370 C   0  0  0  0  0  2  0  0  0  0  0  0
  187.3200  176.2450  134.6900 C   0  0  0  0  0  0  0  0  0  0  0  0
  186.6530  177.4140  134.6090 O   0  0  0  0  0  1  0  0  0  0  0  0
  186.7020  175.1670  134.4940 O   0  0  0  0  0  0  0  0  0  0  0  0
  187.6650  176.6460  145.2130 C   0  0  0  0  0  2  0  0  0  0  0  0
  188.6890  177.0830  147.9660 C   0  0  0  0  0  0  0  0  0  0  0  0
  189.7400  176.9190  147.0850 C   0  0  0  0  0  0  0  0  0  0  0  0
  189.1290  178.5870  148.1380 C   0  0  0  0  0  2  0  0  0  0  0  0
  187.7190  178.2300  148.4480 C   0  0  0  0  0  2  0  0  0  0  0  0
  190.9930  176.8400  146.9000 O   0  0  0  0  0  0  0  0  0  0  0  0
  188.3300  176.8950  146.5600 N   0  0  0  0  0  0  0  0  0  0  0  0
  1 15  1  0  0  0  0
  1 12  1  0  0  0  0
  1  7  1  1  0  0  0
  2 19  1  0  0  0  0
  3  4  1  0  0  0  0
  4 16  1  0  0  0  0
  5 18  1  0  0  0  0
  6  9  2  0  0  0  0
  7 13  1  0  0  0  0
  8 10  1  0  0  0  0
  8  3  1  0  0  0  0
  9  2  1  0  0  0  0
  9 10  1  0  0  0  0
 10 17  2  0  0  0  0
 11 26  1  0  0  0  0
 12 14  1  1  0  0  0
 13  5  2  0  0  0  0
 13  6  1  0  0  0  0
 14  5  1  0  0  0  0
 15 22  1  6  0  0  0
 15 12  1  0  0  0  0
 17 11  1  0  0  0  0
 17 16  1  0  0  0  0
 18  2  2  0  0  0  0
 19 20  1  0  0  0  0
 19 11  2  0  0  0  0
 20 21  2  0  0  0  0
 23 22  1  0  0  0  0
 24 23  1  0  0  0  0
 25 23  2  0  0  0  0
 26 32  1  0  0  0  0
 27 29  1  0  0  0  0
 27 30  1  0  0  0  0
 28 27  1  0  0  0  0
 29 30  1  0  0  0  0
 31 28  2  0  0  0  0
 32 28  1  0  0  0  0
 32 27  1  0  0  0  0
M  END
>  <MODEL>
1

>  <REMARK>
 VINA RESULT:      -9.0      0.000      0.000
  Name = 
  5 active torsions:
  status: ('A' for Active; 'I' for Inactive)
    1  A    between atoms: C_1  and  C_10
    2  A    between atoms: C_6  and  C_31
    3  A    between atoms: C_10  and  C_24
    4  A    between atoms: C_16  and  C_27
    5  A    between atoms: C_27  and  N_32
                            x       y       z     vdW  Elec       q    Type
                         _______ _______ _______ _____ _____    ______ ____

>  <TORSDO>
F 5

$$$$
=
 OpenBabel10272413213D

 32 38  0  0  1  0  0  0  0  0999 V2000
  190.0310  177.3100  136.4390 C   0  0  1  0  0  3  0  0  0  0  0  0
  188.9580  177.3810  141.3120 C   0  0  0  0  0  0  0  0  0  0  0  0
  184.1700  178.4360  141.5240 C   0  0  0  0  0  2  0  0  0  0  0  0
  184.2960  178.9500  142.9450 C   0  0  0  0  0  2  0  0  0  0  0  0
  190.0670  177.1890  139.3190 C   0  0  0  0  0  0  0  0  0  0  0  0
  187.9360  178.2620  139.3210 N   0  0  0  0  0  0  0  0  0  0  0  0
  189.1920  178.2010  137.2880 C   0  0  0  0  0  2  0  0  0  0  0  0
  185.4580  178.9190  140.7040 C   0  0  0  0  0  2  0  0  0  0  0  0
  187.8620  178.0430  140.7040 C   0  0  0  0  0  0  0  0  0  0  0  0
  186.7220  178.4240  141.4230 C   0  0  0  0  0  0  0  0  0  0  0  0
  187.8560  177.6080  143.4650 C   0  0  0  0  0  0  0  0  0  0  0  0
  191.1390  176.4240  137.0910 C   0  0  1  0  0  3  0  0  0  0  0  0
  189.0270  177.8450  138.6800 C   0  0  0  0  0  0  0  0  0  0  0  0
  191.3100  176.7230  138.6470 C   0  0  0  0  0  2  0  0  0  0  0  0
  189.8120  175.8030  136.6520 C   0  0  2  0  0  3  0  0  0  0  0  0
  185.5170  178.3720  143.5890 C   0  0  0  0  0  2  0  0  0  0  0  0
  186.7670  178.2350  142.8180 C   0  0  0  0  0  0  0  0  0  0  0  0
  190.0320  176.9730  140.6270 N   0  0  0  0  0  0  0  0  0  0  0  0
  188.9560  177.1620  142.7090 C   0  0  0  0  0  0  0  0  0  0  0  0
  190.1550  176.6940  143.4110 C   0  0  0  0  0  3  0  0  0  0  0  0
  191.3170  177.2300  143.3020 N   0  0  0  0  0  2  0  0  0  0  0  0
  189.6870  175.3270  135.1160 C   0  0  0  0  0  2  0  0  0  0  0  0
  190.3660  174.0260  134.7280 C   0  0  0  0  0  0  0  0  0  0  0  0
  189.7170  172.8440  134.7630 O   0  0  0  0  0  1  0  0  0  0  0  0
  191.5970  174.0480  134.4710 O   0  0  0  0  0  0  0  0  0  0  0  0
  187.5090  177.0880  144.8680 C   0  0  0  0  0  2  0  0  0  0  0  0
  187.9030  178.5870  147.4020 C   0  0  0  0  0  0  0  0  0  0  0  0
  186.5560  178.3900  147.1670 C   0  0  0  0  0  0  0  0  0  0  0  0
  187.7860  177.6020  148.6270 C   0  0  0  0  0  2  0  0  0  0  0  0
  189.1260  177.7960  148.0090 C   0  0  0  0  0  2  0  0  0  0  0  0
  185.3560  178.5790  147.5330 O   0  0  0  0  0  0  0  0  0  0  0  0
  187.5620  177.8260  146.2000 N   0  0  0  0  0  0  0  0  0  0  0  0
  1 15  1  0  0  0  0
  1 12  1  0  0  0  0
  1  7  1  1  0  0  0
  2 19  1  0  0  0  0
  3  4  1  0  0  0  0
  4 16  1  0  0  0  0
  5 18  1  0  0  0  0
  6  9  2  0  0  0  0
  7 13  1  0  0  0  0
  8 10  1  0  0  0  0
  8  3  1  0  0  0  0
  9  2  1  0  0  0  0
  9 10  1  0  0  0  0
 10 17  2  0  0  0  0
 11 26  1  0  0  0  0
 12 14  1  1  0  0  0
 13  5  2  0  0  0  0
 13  6  1  0  0  0  0
 14  5  1  0  0  0  0
 15 22  1  6  0  0  0
 15 12  1  0  0  0  0
 17 11  1  0  0  0  0
 17 16  1  0  0  0  0
 18  2  2  0  0  0  0
 19 20  1  0  0  0  0
 19 11  2  0  0  0  0
 21 20  2  0  0  0  0
 23 24  1  0  0  0  0
 23 22  1  0  0  0  0
 25 23  2  0  0  0  0
 26 32  1  0  0  0  0
 27 30  1  0  0  0  0
 27 29  1  0  0  0  0
 28 27  1  0  0  0  0
 28 31  2  0  0  0  0
 30 29  1  0  0  0  0
 32 28  1  0  0  0  0
 32 27  1  0  0  0  0
M  END
>  <MODEL>
2

>  <REMARK>
 VINA RESULT:      -8.3      1.793      2.085
  Name = 
  5 active torsions:
  status: ('A' for Active; 'I' for Inactive)
    1  A    between atoms: C_1  and  C_10
    2  A    between atoms: C_6  and  C_31
    3  A    between atoms: C_10  and  C_24
    4  A    between atoms: C_16  and  C_27
    5  A    between atoms: C_27  and  N_32
                            x       y       z     vdW  Elec       q    Type
                         _______ _______ _______ _____ _____    ______ ____

>  <TORSDO>
F 5

$$$$
=
 OpenBabel10272413213D

 32 38  0  0  1  0  0  0  0  0999 V2000
  183.9950  178.9450  138.3590 C   0  0  1  0  0  3  0  0  0  0  0  0
  187.0140  178.0280  142.2240 C   0  0  0  0  0  0  0  0  0  0  0  0
  184.1070  178.2670  146.1690 C   0  0  0  0  0  2  0  0  0  0  0  0
  185.2840  178.5480  147.0810 C   0  0  0  0  0  2  0  0  0  0  0  0
  186.2080  178.3490  140.1050 C   0  0  0  0  0  0  0  0  0  0  0  0
  184.8610  179.0590  141.9420 N   0  0  0  0  0  0  0  0  0  0  0  0
  184.1230  179.5380  139.7190 C   0  0  0  0  0  2  0  0  0  0  0  0
  184.3280  179.0770  144.8050 C   0  0  0  0  0  2  0  0  0  0  0  0
  185.8600  178.6020  142.8120 C   0  0  0  0  0  0  0  0  0  0  0  0
  185.6800  178.6730  144.1990 C   0  0  0  0  0  0  0  0  0  0  0  0
  187.9480  177.7140  144.4450 C   0  0  0  0  0  0  0  0  0  0  0  0
  185.1840  178.1470  137.7380 C   0  0  1  0  0  3  0  0  0  0  0  0
  185.0670  178.9320  140.6320 C   0  0  0  0  0  0  0  0  0  0  0  0
  186.4880  178.2030  138.6520 C   0  0  0  0  0  2  0  0  0  0  0  0
  183.9730  177.4090  138.3120 C   0  0  2  0  0  3  0  0  0  0  0  0
  186.5500  178.0690  146.4410 C   0  0  0  0  0  2  0  0  0  0  0  0
  186.7670  178.2610  144.9950 C   0  0  0  0  0  0  0  0  0  0  0  0
  187.1770  177.9130  140.9010 N   0  0  0  0  0  0  0  0  0  0  0  0
  188.0720  177.5790  143.0490 C   0  0  0  0  0  0  0  0  0  0  0  0
  189.3690  177.1940  142.4870 C   0  0  0  0  0  3  0  0  0  0  0  0
  190.3330  178.0110  142.2540 N   0  0  0  0  0  2  0  0  0  0  0  0
  182.7100  177.1840  137.3350 C   0  0  0  0  0  2  0  0  0  0  0  0
  181.5650  176.3330  137.8550 C   0  0  0  0  0  0  0  0  0  0  0  0
  180.8090  176.7180  138.9030 O   0  0  0  0  0  1  0  0  0  0  0  0
  181.3930  175.1920  137.3540 O   0  0  0  0  0  0  0  0  0  0  0  0
  188.7780  176.9170  145.4630 C   0  0  0  0  0  2  0  0  0  0  0  0
  191.7360  176.6730  145.3510 C   0  0  0  0  0  0  0  0  0  0  0  0
  191.3240  176.9140  146.6480 C   0  0  0  0  0  0  0  0  0  0  0  0
  192.1680  175.2270  145.8070 C   0  0  0  0  0  2  0  0  0  0  0  0
  191.8800  175.4520  144.3640 C   0  0  0  0  0  2  0  0  0  0  0  0
  191.6360  177.1110  147.8620 O   0  0  0  0  0  0  0  0  0  0  0  0
  190.2920  176.7800  145.5610 N   0  0  0  0  0  0  0  0  0  0  0  0
  1  7  1  1  0  0  0
  2  9  1  0  0  0  0
  2 19  1  0  0  0  0
  3  4  1  0  0  0  0
  5 13  2  0  0  0  0
  5 18  1  0  0  0  0
  6  9  2  0  0  0  0
  7 13  1  0  0  0  0
  8  3  1  0  0  0  0
  9 10  1  0  0  0  0
 10  8  1  0  0  0  0
 10 17  2  0  0  0  0
 11 17  1  0  0  0  0
 11 26  1  0  0  0  0
 12 15  1  0  0  0  0
 12  1  1  0  0  0  0
 12 14  1  1  0  0  0
 13  6  1  0  0  0  0
 14  5  1  0  0  0  0
 15 22  1  6  0  0  0
 15  1  1  0  0  0  0
 16  4  1  0  0  0  0
 17 16  1  0  0  0  0
 18  2  2  0  0  0  0
 19 11  2  0  0  0  0
 20 19  1  0  0  0  0
 21 20  2  0  0  0  0
 22 23  1  0  0  0  0
 23 24  1  0  0  0  0
 25 23  2  0  0  0  0
 26 32  1  0  0  0  0
 27 32  1  0  0  0  0
 27 29  1  0  0  0  0
 27 28  1  0  0  0  0
 28 31  2  0  0  0  0
 30 27  1  0  0  0  0
 30 29  1  0  0  0  0
 32 28  1  0  0  0  0
M  END
>  <MODEL>
3

>  <REMARK>
 VINA RESULT:      -7.9      2.968      4.058
  Name = 
  5 active torsions:
  status: ('A' for Active; 'I' for Inactive)
    1  A    between atoms: C_1  and  C_10
    2  A    between atoms: C_6  and  C_31
    3  A    between atoms: C_10  and  C_24
    4  A    between atoms: C_16  and  C_27
    5  A    between atoms: C_27  and  N_32
                            x       y       z     vdW  Elec       q    Type
                         _______ _______ _______ _____ _____    ______ ____

>  <TORSDO>
F 5

$$$$
=
 OpenBabel10272413213D

 32 38  0  0  1  0  0  0  0  0999 V2000
  190.3420  178.1860  144.8850 C   0  0  1  0  0  3  0  0  0  0  0  0
  189.4960  177.3600  140.0370 C   0  0  0  0  0  0  0  0  0  0  0  0
  193.7200  175.5460  138.3210 C   0  0  0  0  0  2  0  0  0  0  0  0
  193.3780  175.9590  136.9030 C   0  0  0  0  0  2  0  0  0  0  0  0
  189.2320  177.9370  142.2370 C   0  0  0  0  0  0  0  0  0  0  0  0
  191.4500  177.6360  141.4110 N   0  0  0  0  0  0  0  0  0  0  0  0
  191.1520  178.4060  143.6540 C   0  0  0  0  0  2  0  0  0  0  0  0
  193.2420  176.7130  139.3080 C   0  0  0  0  0  2  0  0  0  0  0  0
  190.9080  177.3310  140.1540 C   0  0  0  0  0  0  0  0  0  0  0  0
  191.7430  176.9680  139.0910 C   0  0  0  0  0  0  0  0  0  0  0  0
  189.7140  176.8060  137.6820 C   0  0  0  0  0  0  0  0  0  0  0  0
  188.7910  178.0340  144.7850 C   0  0  1  0  0  3  0  0  0  0  0  0
  190.6090  177.9370  142.3980 C   0  0  0  0  0  0  0  0  0  0  0  0
  188.2570  178.2850  143.3050 C   0  0  0  0  0  2  0  0  0  0  0  0
  189.6770  176.8050  144.9970 C   0  0  2  0  0  3  0  0  0  0  0  0
  191.8960  176.1250  136.7640 C   0  0  0  0  0  2  0  0  0  0  0  0
  191.1170  176.7540  137.8460 C   0  0  0  0  0  0  0  0  0  0  0  0
  188.6870  177.6620  141.0590 N   0  0  0  0  0  0  0  0  0  0  0  0
  188.8920  177.0950  138.7860 C   0  0  0  0  0  0  0  0  0  0  0  0
  187.4630  177.3360  138.5610 C   0  0  0  0  0  3  0  0  0  0  0  0
  186.9790  178.4110  138.0500 N   0  0  0  0  0  2  0  0  0  0  0  0
  190.0790  176.4310  146.5140 C   0  0  0  0  0  2  0  0  0  0  0  0
  191.5560  176.2930  146.8340 C   0  0  0  0  0  0  0  0  0  0  0  0
  192.3490  175.4170  146.1830 O   0  0  0  0  0  0  0  0  0  0  0  0
  192.0200  176.9420  147.8060 O   0  0  0  0  0  1  0  0  0  0  0  0
  189.2280  176.0990  136.4080 C   0  0  0  0  0  2  0  0  0  0  0  0
  186.9690  174.2380  135.9010 C   0  0  0  0  0  0  0  0  0  0  0  0
  187.9550  173.6060  136.6330 C   0  0  0  0  0  0  0  0  0  0  0  0
  186.0430  174.1660  137.1750 C   0  0  0  0  0  2  0  0  0  0  0  0
  185.7480  175.2040  136.1500 C   0  0  0  0  0  2  0  0  0  0  0  0
  188.3750  172.5470  137.1940 O   0  0  0  0  0  0  0  0  0  0  0  0
  188.1320  175.0520  136.2570 N   0  0  0  0  0  0  0  0  0  0  0  0
  1  7  1  6  0  0  0
  1 15  1  0  0  0  0
  2  9  1  0  0  0  0
  2 18  1  0  0  0  0
  3  8  1  0  0  0  0
  4  3  1  0  0  0  0
  5 13  1  0  0  0  0
  5 14  1  0  0  0  0
  6 13  2  0  0  0  0
  9  6  1  0  0  0  0
 10  8  1  0  0  0  0
 10  9  2  0  0  0  0
 11 17  2  0  0  0  0
 11 19  1  0  0  0  0
 12 14  1  6  0  0  0
 12  1  1  0  0  0  0
 12 15  1  0  0  0  0
 13  7  1  0  0  0  0
 15 22  1  1  0  0  0
 16  4  1  0  0  0  0
 16 17  1  0  0  0  0
 17 10  1  0  0  0  0
 18  5  2  0  0  0  0
 19  2  2  0  0  0  0
 20 19  1  0  0  0  0
 21 20  2  0  0  0  0
 22 23  1  0  0  0  0
 23 25  1  0  0  0  0
 24 23  2  0  0  0  0
 26 11  1  0  0  0  0
 27 30  1  0  0  0  0
 27 32  1  0  0  0  0
 27 28  1  0  0  0  0
 27 29  1  0  0  0  0
 28 31  2  0  0  0  0
 30 29  1  0  0  0  0
 32 26  1  0  0  0  0
 32 28  1  0  0  0  0
M  END
>  <MODEL>
4

>  <REMARK>
 VINA RESULT:      -7.8      2.557      8.961
  Name = 
  5 active torsions:
  status: ('A' for Active; 'I' for Inactive)
    1  A    between atoms: C_1  and  C_10
    2  A    between atoms: C_6  and  C_31
    3  A    between atoms: C_10  and  C_24
    4  A    between atoms: C_16  and  C_27
    5  A    between atoms: C_27  and  N_32
                            x       y       z     vdW  Elec       q    Type
                         _______ _______ _______ _____ _____    ______ ____

>  <TORSDO>
F 5

$$$$
=
 OpenBabel10272413213D

 32 38  0  0  1  0  0  0  0  0999 V2000
  182.6080  178.7360  140.7170 C   0  0  1  0  0  3  0  0  0  0  0  0
  187.5400  178.3130  140.0900 C   0  0  0  0  0  0  0  0  0  0  0  0
  189.1990  176.5550  144.3600 C   0  0  0  0  0  2  0  0  0  0  0  0
  190.5940  177.0840  144.0920 C   0  0  0  0  0  2  0  0  0  0  0  0
  185.3160  178.7200  139.7310 C   0  0  0  0  0  0  0  0  0  0  0  0
  186.0600  178.4390  141.9800 N   0  0  0  0  0  0  0  0  0  0  0  0
  183.7780  179.0350  141.5880 C   0  0  0  0  0  2  0  0  0  0  0  0
  188.1450  177.6490  143.8550 C   0  0  0  0  0  2  0  0  0  0  0  0
  187.3600  178.2460  141.4930 C   0  0  0  0  0  0  0  0  0  0  0  0
  188.4100  177.9510  142.3720 C   0  0  0  0  0  0  0  0  0  0  0  0
  189.9190  177.9420  140.4110 C   0  0  0  0  0  0  0  0  0  0  0  0
  182.7910  178.6240  139.1700 C   0  0  1  0  0  3  0  0  0  0  0  0
  185.0920  178.6790  141.0980 C   0  0  0  0  0  0  0  0  0  0  0  0
  184.2690  179.0020  138.7120 C   0  0  0  0  0  2  0  0  0  0  0  0
  182.6380  177.3640  140.0250 C   0  0  2  0  0  3  0  0  0  0  0  0
  190.7870  177.2910  142.6220 C   0  0  0  0  0  2  0  0  0  0  0  0
  189.6950  177.8490  141.8030 C   0  0  0  0  0  0  0  0  0  0  0  0
  186.5360  178.5500  139.2380 N   0  0  0  0  0  0  0  0  0  0  0  0
  188.8350  178.1600  139.5410 C   0  0  0  0  0  0  0  0  0  0  0  0
  189.1060  178.4470  138.1290 C   0  0  0  0  0  3  0  0  0  0  0  0
  188.9770  179.6040  137.5850 N   0  0  0  0  0  2  0  0  0  0  0  0
  181.1390  176.8640  140.3470 C   0  0  0  0  0  2  0  0  0  0  0  0
  180.6780  175.5680  139.7020 C   0  0  0  0  0  0  0  0  0  0  0  0
  180.0020  174.6280  140.3940 O   0  0  0  0  0  1  0  0  0  0  0  0
  181.0340  175.3300  138.5200 O   0  0  0  0  0  0  0  0  0  0  0  0
  191.2670  177.3480  139.9740 C   0  0  0  0  0  2  0  0  0  0  0  0
  191.6810  176.0420  137.3380 C   0  0  0  0  0  0  0  0  0  0  0  0
  192.8760  176.1200  138.0270 C   0  0  0  0  0  0  0  0  0  0  0  0
  191.7310  174.4770  137.5220 C   0  0  0  0  0  2  0  0  0  0  0  0
  190.4070  175.1130  137.2820 C   0  0  0  0  0  2  0  0  0  0  0  0
  194.1260  175.9060  138.0490 O   0  0  0  0  0  0  0  0  0  0  0  0
  191.6180  176.6330  138.6750 N   0  0  0  0  0  0  0  0  0  0  0  0
  1  7  1  1  0  0  0
  2  9  1  0  0  0  0
  4  3  1  0  0  0  0
  5 13  1  0  0  0  0
  8  3  1  0  0  0  0
  9  6  1  0  0  0  0
  9 10  2  0  0  0  0
 10  8  1  0  0  0  0
 11 17  2  0  0  0  0
 12 14  1  1  0  0  0
 12 15  1  0  0  0  0
 12  1  1  0  0  0  0
 13  7  1  0  0  0  0
 13  6  2  0  0  0  0
 14  5  1  0  0  0  0
 15 22  1  6  0  0  0
 15  1  1  0  0  0  0
 16  4  1  0  0  0  0
 17 10  1  0  0  0  0
 17 16  1  0  0  0  0
 18  5  2  0  0  0  0
 18  2  1  0  0  0  0
 19  2  2  0  0  0  0
 19 11  1  0  0  0  0
 20 19  1  0  0  0  0
 21 20  2  0  0  0  0
 23 22  1  0  0  0  0
 23 24  1  0  0  0  0
 25 23  2  0  0  0  0
 26 11  1  0  0  0  0
 27 29  1  0  0  0  0
 27 28  1  0  0  0  0
 27 32  1  0  0  0  0
 28 31  2  0  0  0  0
 28 32  1  0  0  0  0
 30 27  1  0  0  0  0
 30 29  1  0  0  0  0
 32 26  1  0  0  0  0
M  END
>  <MODEL>
5

>  <REMARK>
 VINA RESULT:      -7.7      3.432      7.004
  Name = 
  5 active torsions:
  status: ('A' for Active; 'I' for Inactive)
    1  A    between atoms: C_1  and  C_10
    2  A    between atoms: C_6  and  C_31
    3  A    between atoms: C_10  and  C_24
    4  A    between atoms: C_16  and  C_27
    5  A    between atoms: C_27  and  N_32
                            x       y       z     vdW  Elec       q    Type
                         _______ _______ _______ _____ _____    ______ ____

>  <TORSDO>
F 5

$$$$
=
 OpenBabel10272413213D

 32 38  0  0  1  0  0  0  0  0999 V2000
  185.7910  178.3440  137.1930 C   0  0  1  0  0  3  0  0  0  0  0  0
  187.5570  177.8420  141.8330 C   0  0  0  0  0  0  0  0  0  0  0  0
  183.6350  178.3860  144.7310 C   0  0  0  0  0  2  0  0  0  0  0  0
  184.5020  178.7720  145.9130 C   0  0  0  0  0  2  0  0  0  0  0  0
  187.4010  177.9530  139.5510 C   0  0  0  0  0  0  0  0  0  0  0  0
  185.5860  178.8020  140.8460 N   0  0  0  0  0  0  0  0  0  0  0  0
  185.5250  179.0620  138.4700 C   0  0  0  0  0  2  0  0  0  0  0  0
  184.2480  179.0720  143.4200 C   0  0  0  0  0  2  0  0  0  0  0  0
  186.2870  178.4450  142.0060 C   0  0  0  0  0  0  0  0  0  0  0  0
  185.7150  178.6400  143.2690 C   0  0  0  0  0  0  0  0  0  0  0  0
  187.8070  177.7500  144.2470 C   0  0  0  0  0  0  0  0  0  0  0  0
  187.1030  177.5160  137.0180 C   0  0  1  0  0  3  0  0  0  0  0  0
  186.1600  178.5600  139.6690 C   0  0  0  0  0  0  0  0  0  0  0  0
  188.0870  177.6800  138.2600 C   0  0  0  0  0  2  0  0  0  0  0  0
  185.7720  176.8100  137.2840 C   0  0  2  0  0  3  0  0  0  0  0  0
  185.8940  178.2600  145.7130 C   0  0  0  0  0  2  0  0  0  0  0  0
  186.5220  178.3240  144.3800 C   0  0  0  0  0  0  0  0  0  0  0  0
  188.0940  177.6100  140.6290 N   0  0  0  0  0  0  0  0  0  0  0  0
  188.3270  177.4910  142.9660 C   0  0  0  0  0  0  0  0  0  0  0  0
  189.7290  177.0810  142.8400 C   0  0  0  0  0  3  0  0  0  0  0  0
  190.1240  175.8610  142.7550 N   0  0  0  0  0  2  0  0  0  0  0  0
  184.8430  176.4720  136.0100 C   0  0  0  0  0  2  0  0  0  0  0  0
  183.6340  175.5830  136.2400 C   0  0  0  0  0  0  0  0  0  0  0  0
  183.7100  174.4490  136.9670 O   0  0  0  0  0  1  0  0  0  0  0  0
  182.5630  175.8640  135.6440 O   0  0  0  0  0  0  0  0  0  0  0  0
  188.3000  177.0670  145.5310 C   0  0  0  0  0  2  0  0  0  0  0  0
  190.9990  177.4600  146.7080 C   0  0  0  0  0  0  0  0  0  0  0  0
  190.0240  177.6990  147.6560 C   0  0  0  0  0  0  0  0  0  0  0  0
  191.4150  176.1780  147.5260 C   0  0  0  0  0  2  0  0  0  0  0  0
  191.7610  176.2300  146.0800 C   0  0  0  0  0  2  0  0  0  0  0  0
  189.7300  178.0470  148.8410 O   0  0  0  0  0  0  0  0  0  0  0  0
  189.6150  177.2660  146.2740 N   0  0  0  0  0  0  0  0  0  0  0  0
  1 15  1  0  0  0  0
  1  7  1  1  0  0  0
  2  9  1  0  0  0  0
  2 19  1  0  0  0  0
  3  4  1  0  0  0  0
  5 13  2  0  0  0  0
  5 18  1  0  0  0  0
  6  9  2  0  0  0  0
  7 13  1  0  0  0  0
  8  3  1  0  0  0  0
  9 10  1  0  0  0  0
 10  8  1  0  0  0  0
 10 17  2  0  0  0  0
 11 17  1  0  0  0  0
 11 26  1  0  0  0  0
 12  1  1  0  0  0  0
 12 15  1  0  0  0  0
 12 14  1  1  0  0  0
 13  6  1  0  0  0  0
 14  5  1  0  0  0  0
 15 22  1  6  0  0  0
 16  4  1  0  0  0  0
 17 16  1  0  0  0  0
 18  2  2  0  0  0  0
 19 11  2  0  0  0  0
 20 19  1  0  0  0  0
 21 20  2  0  0  0  0
 22 23  1  0  0  0  0
 23 24  1  0  0  0  0
 25 23  2  0  0  0  0
 26 32  1  0  0  0  0
 27 29  1  0  0  0  0
 27 28  1  0  0  0  0
 28 31  2  0  0  0  0
 30 27  1  0  0  0  0
 30 29  1  0  0  0  0
 32 27  1  0  0  0  0
 32 28  1  0  0  0  0
M  END
>  <MODEL>
6

>  <REMARK>
 VINA RESULT:      -7.7      2.120      2.718
  Name = 
  5 active torsions:
  status: ('A' for Active; 'I' for Inactive)
    1  A    between atoms: C_1  and  C_10
    2  A    between atoms: C_6  and  C_31
    3  A    between atoms: C_10  and  C_24
    4  A    between atoms: C_16  and  C_27
    5  A    between atoms: C_27  and  N_32
                            x       y       z     vdW  Elec       q    Type
                         _______ _______ _______ _____ _____    ______ ____

>  <TORSDO>
F 5

$$$$
=
 OpenBabel10272413213D

 32 38  0  0  1  0  0  0  0  0999 V2000
  190.4580  178.2020  145.2100 C   0  0  1  0  0  3  0  0  0  0  0  0
  189.5710  177.4400  140.3590 C   0  0  0  0  0  0  0  0  0  0  0  0
  193.8040  175.7260  138.5660 C   0  0  0  0  0  2  0  0  0  0  0  0
  193.4390  176.1550  137.1590 C   0  0  0  0  0  2  0  0  0  0  0  0
  189.3230  177.9770  142.5710 C   0  0  0  0  0  0  0  0  0  0  0  0
  191.5360  177.7260  141.7150 N   0  0  0  0  0  0  0  0  0  0  0  0
  191.2500  178.4550  143.9740 C   0  0  0  0  0  2  0  0  0  0  0  0
  193.3180  176.8690  139.5770 C   0  0  0  0  0  2  0  0  0  0  0  0
  190.9840  177.4330  140.4600 C   0  0  0  0  0  0  0  0  0  0  0  0
  191.8130  177.1020  139.3810 C   0  0  0  0  0  0  0  0  0  0  0  0
  189.7710  176.9280  137.9930 C   0  0  0  0  0  0  0  0  0  0  0  0
  188.9090  178.0250  145.1250 C   0  0  1  0  0  3  0  0  0  0  0  0
  190.7010  177.9980  142.7170 C   0  0  0  0  0  0  0  0  0  0  0  0
  188.3540  178.2910  143.6560 C   0  0  0  0  0  2  0  0  0  0  0  0
  189.8180  176.8080  145.3070 C   0  0  2  0  0  3  0  0  0  0  0  0
  191.9540  176.2980  137.0390 C   0  0  0  0  0  2  0  0  0  0  0  0
  191.1770  176.8970  138.1410 C   0  0  0  0  0  0  0  0  0  0  0  0
  188.7690  177.7120  141.3940 N   0  0  0  0  0  0  0  0  0  0  0  0
  188.9570  177.1860  139.1110 C   0  0  0  0  0  0  0  0  0  0  0  0
  187.5220  177.4060  138.9060 C   0  0  0  0  0  3  0  0  0  0  0  0
  187.0240  178.4010  138.2630 N   0  0  0  0  0  2  0  0  0  0  0  0
  190.2430  176.4170  146.8130 C   0  0  0  0  0  2  0  0  0  0  0  0
  191.7160  176.1640  147.0820 C   0  0  0  0  0  0  0  0  0  0  0  0
  192.3720  176.7770  148.0880 O   0  0  0  0  0  1  0  0  0  0  0  0
  192.3560  175.4430  146.2750 O   0  0  0  0  0  0  0  0  0  0  0  0
  189.2820  176.2340  136.7130 C   0  0  0  0  0  2  0  0  0  0  0  0
  188.2520  173.4680  136.3800 C   0  0  0  0  0  0  0  0  0  0  0  0
  187.2640  174.2890  136.8880 C   0  0  0  0  0  0  0  0  0  0  0  0
  187.4170  173.3680  135.0460 C   0  0  0  0  0  2  0  0  0  0  0  0
  188.8800  173.1010  134.9800 C   0  0  0  0  0  2  0  0  0  0  0  0
  186.0770  174.4120  137.3200 O   0  0  0  0  0  0  0  0  0  0  0  0
  188.6110  174.8750  136.5620 N   0  0  0  0  0  0  0  0  0  0  0  0
  1  7  1  6  0  0  0
  1 15  1  0  0  0  0
  2  9  1  0  0  0  0
  2 18  1  0  0  0  0
  3  8  1  0  0  0  0
  4  3  1  0  0  0  0
  5 13  1  0  0  0  0
  5 14  1  0  0  0  0
  6 13  2  0  0  0  0
  9  6  1  0  0  0  0
 10  8  1  0  0  0  0
 10  9  2  0  0  0  0
 11 17  2  0  0  0  0
 11 19  1  0  0  0  0
 12 14  1  6  0  0  0
 12  1  1  0  0  0  0
 12 15  1  0  0  0  0
 13  7  1  0  0  0  0
 15 22  1  1  0  0  0
 16  4  1  0  0  0  0
 16 17  1  0  0  0  0
 17 10  1  0  0  0  0
 18  5  2  0  0  0  0
 19  2  2  0  0  0  0
 20 19  1  0  0  0  0
 21 20  2  0  0  0  0
 22 23  1  0  0  0  0
 23 24  1  0  0  0  0
 25 23  2  0  0  0  0
 26 11  1  0  0  0  0
 27 32  1  0  0  0  0
 27 28  1  0  0  0  0
 28 31  2  0  0  0  0
 29 27  1  0  0  0  0
 30 29  1  0  0  0  0
 30 27  1  0  0  0  0
 32 26  1  0  0  0  0
 32 28  1  0  0  0  0
M  END
>  <MODEL>
7

>  <REMARK>
 VINA RESULT:      -7.6      2.452      9.127
  Name = 
  5 active torsions:
  status: ('A' for Active; 'I' for Inactive)
    1  A    between atoms: C_1  and  C_10
    2  A    between atoms: C_6  and  C_31
    3  A    between atoms: C_10  and  C_24
    4  A    between atoms: C_16  and  C_27
    5  A    between atoms: C_27  and  N_32
                            x       y       z     vdW  Elec       q    Type
                         _______ _______ _______ _____ _____    ______ ____

>  <TORSDO>
F 5

$$$$
=
 OpenBabel10272413213D

 32 38  0  0  1  0  0  0  0  0999 V2000
  190.7670  177.9860  145.1950 C   0  0  1  0  0  3  0  0  0  0  0  0
  186.4280  178.1440  142.7350 C   0  0  0  0  0  0  0  0  0  0  0  0
  187.6470  177.6200  138.0110 C   0  0  0  0  0  2  0  0  0  0  0  0
  186.3560  178.2710  137.5550 C   0  0  0  0  0  2  0  0  0  0  0  0
  188.0010  178.1410  144.3980 C   0  0  0  0  0  0  0  0  0  0  0  0
  188.7380  178.4690  142.1530 N   0  0  0  0  0  0  0  0  0  0  0  0
  190.3350  178.6330  143.9240 C   0  0  0  0  0  2  0  0  0  0  0  0
  188.1800  178.4150  139.2950 C   0  0  0  0  0  2  0  0  0  0  0  0
  187.4050  178.3620  141.7330 C   0  0  0  0  0  0  0  0  0  0  0  0
  187.0840  178.4200  140.3710 C   0  0  0  0  0  0  0  0  0  0  0  0
  184.7070  178.1960  141.0220 C   0  0  0  0  0  0  0  0  0  0  0  0
  189.7050  177.5650  146.2590 C   0  0  1  0  0  3  0  0  0  0  0  0
  188.9920  178.3690  143.4570 C   0  0  0  0  0  0  0  0  0  0  0  0
  188.2360  178.0400  145.8640 C   0  0  0  0  0  2  0  0  0  0  0  0
  190.3540  176.5150  145.3560 C   0  0  2  0  0  3  0  0  0  0  0  0
  185.3270  178.1760  138.6380 C   0  0  0  0  0  2  0  0  0  0  0  0
  185.7130  178.3790  140.0470 C   0  0  0  0  0  0  0  0  0  0  0  0
  186.7290  178.0430  144.0350 N   0  0  0  0  0  0  0  0  0  0  0  0
  185.0620  178.0610  142.3760 C   0  0  0  0  0  0  0  0  0  0  0  0
  184.0040  178.0680  143.3900 C   0  0  0  0  0  3  0  0  0  0  0  0
  183.8200  179.0100  144.2440 N   0  0  0  0  0  2  0  0  0  0  0  0
  191.7600  175.8890  145.8380 C   0  0  0  0  0  2  0  0  0  0  0  0
  192.0180  175.8110  147.3320 C   0  0  0  0  0  0  0  0  0  0  0  0
  192.3620  176.8960  148.0540 O   0  0  0  0  0  1  0  0  0  0  0  0
  192.0110  174.6790  147.8820 O   0  0  0  0  0  0  0  0  0  0  0  0
  183.3720  177.7200  140.4310 C   0  0  0  0  0  2  0  0  0  0  0  0
  180.6950  178.9680  140.1110 C   0  0  0  0  0  0  0  0  0  0  0  0
  181.2020  179.2370  141.3680 C   0  0  0  0  0  0  0  0  0  0  0  0
  180.8600  180.4990  139.7690 C   0  0  0  0  0  2  0  0  0  0  0  0
  180.8200  179.5280  138.6420 C   0  0  0  0  0  2  0  0  0  0  0  0
  181.0390  179.7720  142.5070 O   0  0  0  0  0  0  0  0  0  0  0  0
  182.0310  178.4430  140.3950 N   0  0  0  0  0  0  0  0  0  0  0  0
  1  7  1  6  0  0  0
  1 15  1  0  0  0  0
  1 12  1  0  0  0  0
  2 18  2  0  0  0  0
  3  8  1  0  0  0  0
  4  3  1  0  0  0  0
  4 16  1  0  0  0  0
  5 14  1  0  0  0  0
  6 13  1  0  0  0  0
  8 10  1  0  0  0  0
  9  6  2  0  0  0  0
  9  2  1  0  0  0  0
 10  9  1  0  0  0  0
 11 19  2  0  0  0  0
 12 14  1  6  0  0  0
 13  7  1  0  0  0  0
 13  5  2  0  0  0  0
 15 22  1  1  0  0  0
 15 12  1  0  0  0  0
 16 17  1  0  0  0  0
 17 10  2  0  0  0  0
 17 11  1  0  0  0  0
 18  5  1  0  0  0  0
 19  2  1  0  0  0  0
 19 20  1  0  0  0  0
 20 21  2  0  0  0  0
 22 23  1  0  0  0  0
 23 25  2  0  0  0  0
 23 24  1  0  0  0  0
 26 11  1  0  0  0  0
 27 32  1  0  0  0  0
 27 28  1  0  0  0  0
 28 31  2  0  0  0  0
 29 27  1  0  0  0  0
 30 29  1  0  0  0  0
 30 27  1  0  0  0  0
 32 26  1  0  0  0  0
 32 28  1  0  0  0  0
M  END
>  <MODEL>
8

>  <REMARK>
 VINA RESULT:      -7.1      3.320      8.290
  Name = 
  5 active torsions:
  status: ('A' for Active; 'I' for Inactive)
    1  A    between atoms: C_1  and  C_10
    2  A    between atoms: C_6  and  C_31
    3  A    between atoms: C_10  and  C_24
    4  A    between atoms: C_16  and  C_27
    5  A    between atoms: C_27  and  N_32
                            x       y       z     vdW  Elec       q    Type
                         _______ _______ _______ _____ _____    ______ ____

>  <TORSDO>
F 5

$$$$
=
 OpenBabel10272413213D

 32 38  0  0  1  0  0  0  0  0999 V2000
  185.2010  179.6030  144.3420 C   0  0  1  0  0  3  0  0  0  0  0  0
  183.6260  177.8910  139.9280 C   0  0  0  0  0  0  0  0  0  0  0  0
  187.7090  177.3660  137.2590 C   0  0  0  0  0  2  0  0  0  0  0  0
  186.9300  177.4430  135.9610 C   0  0  0  0  0  2  0  0  0  0  0  0
  183.6820  178.6420  142.0900 C   0  0  0  0  0  0  0  0  0  0  0  0
  185.6120  178.9840  140.7300 N   0  0  0  0  0  0  0  0  0  0  0  0
  185.5780  179.9090  142.9340 C   0  0  0  0  0  2  0  0  0  0  0  0
  187.0860  178.4310  138.2790 C   0  0  0  0  0  2  0  0  0  0  0  0
  184.9420  178.3480  139.6740 C   0  0  0  0  0  0  0  0  0  0  0  0
  185.5870  178.1420  138.4480 C   0  0  0  0  0  0  0  0  0  0  0  0
  183.4850  177.1250  137.6270 C   0  0  0  0  0  0  0  0  0  0  0  0
  183.8270  178.9330  144.6570 C   0  0  1  0  0  3  0  0  0  0  0  0
  184.9660  179.1200  141.8870 C   0  0  0  0  0  0  0  0  0  0  0  0
  182.9170  178.7880  143.3580 C   0  0  0  0  0  2  0  0  0  0  0  0
  185.1150  178.1080  144.6900 C   0  0  2  0  0  3  0  0  0  0  0  0
  185.4960  177.0880  136.2050 C   0  0  0  0  0  2  0  0  0  0  0  0
  184.8120  177.5650  137.4220 C   0  0  0  0  0  0  0  0  0  0  0  0
  183.0170  178.0440  141.1100 N   0  0  0  0  0  0  0  0  0  0  0  0
  182.8870  177.2730  138.8920 C   0  0  0  0  0  0  0  0  0  0  0  0
  181.4550  176.9930  139.0360 C   0  0  0  0  0  3  0  0  0  0  0  0
  180.9710  175.8910  139.4860 N   0  0  0  0  0  2  0  0  0  0  0  0
  185.9570  178.1000  146.0650 C   0  0  0  0  0  2  0  0  0  0  0  0
  187.4080  177.6590  145.9970 C   0  0  0  0  0  0  0  0  0  0  0  0
  188.2360  177.7610  147.0560 O   0  0  0  0  0  1  0  0  0  0  0  0
  187.8680  177.2870  144.8870 O   0  0  0  0  0  0  0  0  0  0  0  0
  183.0050  176.1310  136.5600 C   0  0  0  0  0  2  0  0  0  0  0  0
  182.9940  173.1900  136.9810 C   0  0  0  0  0  0  0  0  0  0  0  0
  182.3110  173.5110  135.8240 C   0  0  0  0  0  0  0  0  0  0  0  0
  184.1040  172.5200  136.0840 C   0  0  0  0  0  2  0  0  0  0  0  0
  184.4830  172.9680  137.4510 C   0  0  0  0  0  2  0  0  0  0  0  0
  181.6310  173.1190  134.8260 O   0  0  0  0  0  0  0  0  0  0  0  0
  182.9510  174.6100  136.6280 N   0  0  0  0  0  0  0  0  0  0  0  0
  1  7  1  6  0  0  0
  1 12  1  0  0  0  0
  1 15  1  0  0  0  0
  2 18  1  0  0  0  0
  3  8  1  0  0  0  0
  4 16  1  0  0  0  0
  4  3  1  0  0  0  0
  5 14  1  0  0  0  0
  6 13  2  0  0  0  0
  8 10  1  0  0  0  0
  9  2  1  0  0  0  0
  9  6  1  0  0  0  0
 10  9  2  0  0  0  0
 11 19  1  0  0  0  0
 12 14  1  6  0  0  0
 12 15  1  0  0  0  0
 13  5  1  0  0  0  0
 13  7  1  0  0  0  0
 15 22  1  1  0  0  0
 16 17  1  0  0  0  0
 17 11  2  0  0  0  0
 17 10  1  0  0  0  0
 18  5  2  0  0  0  0
 19 20  1  0  0  0  0
 19  2  2  0  0  0  0
 20 21  2  0  0  0  0
 23 22  1  0  0  0  0
 23 24  1  0  0  0  0
 25 23  2  0  0  0  0
 26 32  1  0  0  0  0
 26 11  1  0  0  0  0
 27 30  1  0  0  0  0
 28 32  1  0  0  0  0
 28 27  1  0  0  0  0
 29 27  1  0  0  0  0
 29 30  1  0  0  0  0
 31 28  2  0  0  0  0
 32 27  1  0  0  0  0
M  END
>  <MODEL>
9

>  <REMARK>
 VINA RESULT:      -6.9      3.760      9.473
  Name = 
  5 active torsions:
  status: ('A' for Active; 'I' for Inactive)
    1  A    between atoms: C_1  and  C_10
    2  A    between atoms: C_6  and  C_31
    3  A    between atoms: C_10  and  C_24
    4  A    between atoms: C_16  and  C_27
    5  A    between atoms: C_27  and  N_32
                            x       y       z     vdW  Elec       q    Type
                         _______ _______ _______ _____ _____    ______ ____

>  <TORSDO>
F 5

$$$$
