=
 OpenBabel10272400483D

 25 28  0  0  1  0  0  0  0  0999 V2000
  187.7670  177.8550  145.6730 N   0  0  0  0  0  0  0  0  0  0  0  0
  186.8240  177.5630  144.5890 C   0  0  2  0  0  3  0  0  0  0  0  0
  186.0400  178.5400  147.1960 C   0  0  0  0  0  3  0  0  0  0  0  0
  189.0950  177.3560  145.7640 C   0  0  0  0  0  0  0  0  0  0  0  0
  191.6620  176.3880  146.2340 C   0  0  0  0  0  3  0  0  0  0  0  0
  185.1050  178.6080  146.0570 C   0  0  0  0  0  3  0  0  0  0  0  0
  189.6300  177.3990  147.0430 C   0  0  0  0  0  0  0  0  0  0  0  0
  190.9130  176.9150  147.2960 C   0  0  0  0  0  3  0  0  0  0  0  0
  184.6200  178.3920  143.6540 C   0  0  0  0  0  0  0  0  0  0  0  0
  182.8880  178.6350  143.8080 Cl  0  0  0  0  0  0  0  0  0  0  0  0
  187.3620  177.9580  143.2850 N   0  0  0  0  0  0  0  0  0  0  0  0
  191.1200  176.3420  144.9400 C   0  0  0  0  0  3  0  0  0  0  0  0
  187.3110  178.2030  146.9810 C   0  0  0  0  0  0  0  0  0  0  0  0
  188.5320  178.0700  148.2930 S   0  0  0  0  0  0  0  0  0  0  0  0
  185.1670  178.4230  142.4740 N   0  0  0  0  0  0  0  0  0  0  0  0
  189.8270  176.8240  144.6980 C   0  0  0  0  0  3  0  0  0  0  0  0
  186.5890  178.2940  142.2910 C   0  0  0  0  0  0  0  0  0  0  0  0
  185.4790  178.2090  144.8330 C   0  0  0  0  0  0  0  0  0  0  0  0
  187.1870  178.5820  140.9600 C   0  0  0  0  0  2  0  0  0  0  0  0
  188.7020  178.5510  141.0600 C   0  0  0  0  0  2  0  0  0  0  0  0
  190.1430  176.8170  139.9390 C   0  0  0  0  0  0  0  0  0  0  0  0
  190.4230  176.3080  141.0570 O   0  0  0  0  0  0  0  0  0  0  0  0
  190.7320  176.2120  138.7090 C   0  0  0  0  0  1  0  0  0  0  0  0
  189.2740  177.9580  139.8600 N   0  0  0  0  0  0  0  0  0  0  0  0
  189.0270  178.6210  138.5890 C   0  0  0  0  0  1  0  0  0  0  0  0
  1  4  1  0  0  0  0
  1 13  1  0  0  0  0
  2 11  1  6  0  0  0
  2 18  1  0  0  0  0
  2  1  1  0  0  0  0
  4  7  1  0  0  0  0
  5  8  1  0  0  0  0
  6  3  1  0  0  0  0
  7  8  2  0  0  0  0
  7 14  1  0  0  0  0
  9 10  1  0  0  0  0
  9 18  1  0  0  0  0
 12  5  2  0  0  0  0
 13  3  2  0  0  0  0
 13 14  1  0  0  0  0
 15  9  2  0  0  0  0
 16 12  1  0  0  0  0
 16  4  2  0  0  0  0
 17 15  1  0  0  0  0
 17 11  2  0  0  0  0
 18  6  2  0  0  0  0
 19 20  1  0  0  0  0
 19 17  1  0  0  0  0
 21 22  2  0  0  0  0
 23 21  1  0  0  0  0
 24 21  1  0  0  0  0
 24 20  1  0  0  0  0
 25 24  1  0  0  0  0
M  END
>  <MODEL>
1

>  <REMARK>
 VINA RESULT:      -9.9      0.000      0.000
  Name = 
  3 active torsions:
  status: ('A' for Active; 'I' for Inactive)
    1  A    between atoms: C_6  and  C_15
    2  A    between atoms: C_6  and  C_23
    3  A    between atoms: C_15  and  N_21
                            x       y       z     vdW  Elec       q    Type
                         _______ _______ _______ _____ _____    ______ ____

>  <TORSDO>
F 3

$$$$
=
 OpenBabel10272400483D

 25 28  0  0  1  0  0  0  0  0999 V2000
  188.1550  177.7030  145.4590 N   0  0  0  0  0  0  0  0  0  0  0  0
  187.3850  177.4570  144.2350 C   0  0  2  0  0  3  0  0  0  0  0  0
  186.2130  178.3020  146.7410 C   0  0  0  0  0  3  0  0  0  0  0  0
  189.4610  177.2080  145.7230 C   0  0  0  0  0  0  0  0  0  0  0  0
  191.9430  176.2340  146.5210 C   0  0  0  0  0  3  0  0  0  0  0  0
  185.4550  178.4190  145.4800 C   0  0  0  0  0  3  0  0  0  0  0  0
  189.8010  177.1930  147.0670 C   0  0  0  0  0  0  0  0  0  0  0  0
  191.0390  176.7050  147.4840 C   0  0  0  0  0  3  0  0  0  0  0  0
  185.3320  178.3170  143.0250 C   0  0  0  0  0  0  0  0  0  0  0  0
  183.5930  178.5420  142.9330 Cl  0  0  0  0  0  0  0  0  0  0  0  0
  188.1040  177.9180  143.0460 N   0  0  0  0  0  0  0  0  0  0  0  0
  191.5990  176.2480  145.1600 C   0  0  0  0  0  3  0  0  0  0  0  0
  187.5060  177.9840  146.7010 C   0  0  0  0  0  0  0  0  0  0  0  0
  188.5220  177.7950  148.1710 S   0  0  0  0  0  0  0  0  0  0  0  0
  186.0470  178.4080  141.9420 N   0  0  0  0  0  0  0  0  0  0  0  0
  190.3490  176.7330  144.7530 C   0  0  0  0  0  3  0  0  0  0  0  0
  187.4820  178.2970  141.9650 C   0  0  0  0  0  0  0  0  0  0  0  0
  186.0100  178.0820  144.3080 C   0  0  0  0  0  0  0  0  0  0  0  0
  188.2650  178.6520  140.7520 C   0  0  0  0  0  2  0  0  0  0  0  0
  188.4350  177.4260  139.8720 C   0  0  0  0  0  2  0  0  0  0  0  0
  187.2550  178.0880  137.7470 C   0  0  0  0  0  0  0  0  0  0  0  0
  186.1380  177.9970  138.3240 O   0  0  0  0  0  0  0  0  0  0  0  0
  187.2890  178.4830  136.3090 C   0  0  0  0  0  1  0  0  0  0  0  0
  188.4670  177.8150  138.4690 N   0  0  0  0  0  0  0  0  0  0  0  0
  189.7540  177.8110  137.7910 C   0  0  0  0  0  1  0  0  0  0  0  0
  1  4  1  0  0  0  0
  1 13  1  0  0  0  0
  2 11  1  6  0  0  0
  2 18  1  0  0  0  0
  2  1  1  0  0  0  0
  4  7  1  0  0  0  0
  5  8  1  0  0  0  0
  6  3  1  0  0  0  0
  7  8  2  0  0  0  0
  7 14  1  0  0  0  0
  9 18  1  0  0  0  0
 10  9  1  0  0  0  0
 12  5  2  0  0  0  0
 13  3  2  0  0  0  0
 13 14  1  0  0  0  0
 15 17  1  0  0  0  0
 15  9  2  0  0  0  0
 16 12  1  0  0  0  0
 16  4  2  0  0  0  0
 17 11  2  0  0  0  0
 18  6  2  0  0  0  0
 19 17  1  0  0  0  0
 20 19  1  0  0  0  0
 21 22  2  0  0  0  0
 21 24  1  0  0  0  0
 23 21  1  0  0  0  0
 24 20  1  0  0  0  0
 25 24  1  0  0  0  0
M  END
>  <MODEL>
2

>  <REMARK>
 VINA RESULT:      -9.3      1.505      1.819
  Name = 
  3 active torsions:
  status: ('A' for Active; 'I' for Inactive)
    1  A    between atoms: C_6  and  C_15
    2  A    between atoms: C_6  and  C_23
    3  A    between atoms: C_15  and  N_21
                            x       y       z     vdW  Elec       q    Type
                         _______ _______ _______ _____ _____    ______ ____

>  <TORSDO>
F 3

$$$$
=
 OpenBabel10272400483D

 25 28  0  0  1  0  0  0  0  0999 V2000
  187.7060  177.8160  145.3400 N   0  0  0  0  0  0  0  0  0  0  0  0
  186.5530  177.5850  144.4640 C   0  0  2  0  0  3  0  0  0  0  0  0
  186.3440  178.4230  147.2250 C   0  0  0  0  0  3  0  0  0  0  0  0
  189.0160  177.3080  145.1270 C   0  0  0  0  0  0  0  0  0  0  0  0
  191.6100  176.3080  145.0000 C   0  0  0  0  0  3  0  0  0  0  0  0
  185.1920  178.5550  146.3100 C   0  0  0  0  0  3  0  0  0  0  0  0
  189.8060  177.2810  146.2670 C   0  0  0  0  0  0  0  0  0  0  0  0
  191.1070  176.7790  146.2200 C   0  0  0  0  0  3  0  0  0  0  0  0
  184.2150  178.4710  144.0540 C   0  0  0  0  0  0  0  0  0  0  0  0
  182.5570  178.7110  144.5790 Cl  0  0  0  0  0  0  0  0  0  0  0  0
  186.8130  178.0480  143.0990 N   0  0  0  0  0  0  0  0  0  0  0  0
  190.8100  176.3330  143.8470 C   0  0  0  0  0  3  0  0  0  0  0  0
  187.5370  178.0940  146.7310 C   0  0  0  0  0  0  0  0  0  0  0  0
  189.0020  177.8860  147.7510 S   0  0  0  0  0  0  0  0  0  0  0  0
  184.5050  178.5630  142.7890 N   0  0  0  0  0  0  0  0  0  0  0  0
  189.5020  176.8320  143.9050 C   0  0  0  0  0  3  0  0  0  0  0  0
  185.8550  178.4390  142.3070 C   0  0  0  0  0  0  0  0  0  0  0  0
  185.2980  178.2210  145.0170 C   0  0  0  0  0  0  0  0  0  0  0  0
  186.1670  178.7960  140.8970 C   0  0  0  0  0  2  0  0  0  0  0  0
  184.8900  179.1850  140.1710 C   0  0  0  0  0  2  0  0  0  0  0  0
  185.3180  178.0290  137.9740 C   0  0  0  0  0  0  0  0  0  0  0  0
  186.3080  178.7780  137.7590 O   0  0  0  0  0  0  0  0  0  0  0  0
  184.9650  176.9970  136.9570 C   0  0  0  0  0  1  0  0  0  0  0  0
  184.5490  178.1750  139.1790 N   0  0  0  0  0  0  0  0  0  0  0  0
  183.3420  177.3930  139.3930 C   0  0  0  0  0  1  0  0  0  0  0  0
  1 13  1  0  0  0  0
  2 11  1  6  0  0  0
  2 18  1  0  0  0  0
  2  1  1  0  0  0  0
  4  1  1  0  0  0  0
  4  7  1  0  0  0  0
  5  8  1  0  0  0  0
  6  3  1  0  0  0  0
  7 14  1  0  0  0  0
  8  7  2  0  0  0  0
  9 10  1  0  0  0  0
  9 18  1  0  0  0  0
 12 16  1  0  0  0  0
 12  5  2  0  0  0  0
 13  3  2  0  0  0  0
 13 14  1  0  0  0  0
 15  9  2  0  0  0  0
 16  4  2  0  0  0  0
 17 15  1  0  0  0  0
 17 11  2  0  0  0  0
 18  6  2  0  0  0  0
 19 17  1  0  0  0  0
 20 19  1  0  0  0  0
 21 24  1  0  0  0  0
 22 21  2  0  0  0  0
 23 21  1  0  0  0  0
 24 25  1  0  0  0  0
 24 20  1  0  0  0  0
M  END
>  <MODEL>
3

>  <REMARK>
 VINA RESULT:      -9.0      2.203      2.706
  Name = 
  3 active torsions:
  status: ('A' for Active; 'I' for Inactive)
    1  A    between atoms: C_6  and  C_15
    2  A    between atoms: C_6  and  C_23
    3  A    between atoms: C_15  and  N_21
                            x       y       z     vdW  Elec       q    Type
                         _______ _______ _______ _____ _____    ______ ____

>  <TORSDO>
F 3

$$$$
=
 OpenBabel10272400483D

 25 28  0  0  1  0  0  0  0  0999 V2000
  187.0770  177.8220  145.4970 N   0  0  0  0  0  0  0  0  0  0  0  0
  188.5040  177.8590  145.1610 C   0  0  2  0  0  3  0  0  0  0  0  0
  187.4820  177.6510  147.8590 C   0  0  0  0  0  3  0  0  0  0  0  0
  186.0230  178.2650  144.6540 C   0  0  0  0  0  0  0  0  0  0  0  0
  183.8120  179.2010  143.2460 C   0  0  0  0  0  3  0  0  0  0  0  0
  188.8910  177.3250  147.5630 C   0  0  0  0  0  3  0  0  0  0  0  0
  184.8390  178.5400  145.3230 C   0  0  0  0  0  0  0  0  0  0  0  0
  183.7230  179.0130  144.6320 C   0  0  0  0  0  3  0  0  0  0  0  0
  190.7140  176.9130  145.9630 C   0  0  0  0  0  0  0  0  0  0  0  0
  191.9800  176.8020  147.1750 Cl  0  0  0  0  0  0  0  0  0  0  0  0
  188.7890  177.1050  143.9380 N   0  0  0  0  0  0  0  0  0  0  0  0
  185.0100  178.9260  142.5680 C   0  0  0  0  0  3  0  0  0  0  0  0
  186.6320  177.8580  146.8540 C   0  0  0  0  0  0  0  0  0  0  0  0
  184.9020  178.2790  147.0960 S   0  0  0  0  0  0  0  0  0  0  0  0
  190.9640  176.5430  144.7410 N   0  0  0  0  0  0  0  0  0  0  0  0
  186.1270  178.4580  143.2720 C   0  0  0  0  0  3  0  0  0  0  0  0
  189.9500  176.5520  143.7210 C   0  0  0  0  0  0  0  0  0  0  0  0
  189.3580  177.3650  146.3080 C   0  0  0  0  0  0  0  0  0  0  0  0
  190.2160  175.8920  142.4150 C   0  0  0  0  0  2  0  0  0  0  0  0
  190.7400  176.9120  141.4200 C   0  0  0  0  0  2  0  0  0  0  0  0
  189.8930  176.5130  139.0820 C   0  0  0  0  0  0  0  0  0  0  0  0
  190.8680  175.7500  138.8460 O   0  0  0  0  0  0  0  0  0  0  0  0
  188.8900  176.7490  138.0030 C   0  0  0  0  0  1  0  0  0  0  0  0
  189.7590  177.1390  140.3680 N   0  0  0  0  0  0  0  0  0  0  0  0
  188.7010  178.1040  140.6210 C   0  0  0  0  0  1  0  0  0  0  0  0
  1 13  1  0  0  0  0
  2 11  1  6  0  0  0
  2  1  1  0  0  0  0
  2 18  1  0  0  0  0
  4  7  1  0  0  0  0
  4  1  1  0  0  0  0
  5  8  1  0  0  0  0
  6  3  1  0  0  0  0
  7 14  1  0  0  0  0
  8  7  2  0  0  0  0
  9 18  1  0  0  0  0
  9 10  1  0  0  0  0
 12  5  2  0  0  0  0
 12 16  1  0  0  0  0
 13 14  1  0  0  0  0
 13  3  2  0  0  0  0
 15  9  2  0  0  0  0
 16  4  2  0  0  0  0
 17 11  2  0  0  0  0
 17 15  1  0  0  0  0
 18  6  2  0  0  0  0
 19 17  1  0  0  0  0
 20 19  1  0  0  0  0
 21 24  1  0  0  0  0
 22 21  2  0  0  0  0
 23 21  1  0  0  0  0
 24 25  1  0  0  0  0
 24 20  1  0  0  0  0
M  END
>  <MODEL>
4

>  <REMARK>
 VINA RESULT:      -8.9      2.550      4.701
  Name = 
  3 active torsions:
  status: ('A' for Active; 'I' for Inactive)
    1  A    between atoms: C_6  and  C_15
    2  A    between atoms: C_6  and  C_23
    3  A    between atoms: C_15  and  N_21
                            x       y       z     vdW  Elec       q    Type
                         _______ _______ _______ _____ _____    ______ ____

>  <TORSDO>
F 3

$$$$
=
 OpenBabel10272400483D

 25 28  0  0  1  0  0  0  0  0999 V2000
  186.4060  178.3950  144.6440 N   0  0  0  0  0  0  0  0  0  0  0  0
  186.3160  177.9620  143.2460 C   0  0  2  0  0  3  0  0  0  0  0  0
  184.1550  179.2340  144.6870 C   0  0  0  0  0  3  0  0  0  0  0  0
  187.3570  177.9270  145.5900 C   0  0  0  0  0  0  0  0  0  0  0  0
  189.0170  177.0550  147.6480 C   0  0  0  0  0  3  0  0  0  0  0  0
  184.1300  179.1540  143.2130 C   0  0  0  0  0  3  0  0  0  0  0  0
  186.9900  178.1300  146.9120 C   0  0  0  0  0  0  0  0  0  0  0  0
  187.8090  177.6960  147.9550 C   0  0  0  0  0  3  0  0  0  0  0  0
  185.2200  178.6450  141.0660 C   0  0  0  0  0  0  0  0  0  0  0  0
  183.7830  178.8830  140.0870 Cl  0  0  0  0  0  0  0  0  0  0  0  0
  187.5690  178.2050  142.5260 N   0  0  0  0  0  0  0  0  0  0  0  0
  189.3890  176.8470  146.3100 C   0  0  0  0  0  3  0  0  0  0  0  0
  185.2630  178.8910  145.3420 C   0  0  0  0  0  0  0  0  0  0  0  0
  185.4010  178.9320  147.1340 S   0  0  0  0  0  0  0  0  0  0  0  0
  186.3800  178.5410  140.4860 N   0  0  0  0  0  0  0  0  0  0  0  0
  188.5560  177.2800  145.2700 C   0  0  0  0  0  3  0  0  0  0  0  0
  187.5990  178.4090  141.2390 C   0  0  0  0  0  0  0  0  0  0  0  0
  185.1530  178.6150  142.5350 C   0  0  0  0  0  0  0  0  0  0  0  0
  188.9080  178.5420  140.5460 C   0  0  0  0  0  2  0  0  0  0  0  0
  189.5180  177.1680  140.3310 C   0  0  0  0  0  2  0  0  0  0  0  0
  190.4710  176.1830  142.4440 C   0  0  0  0  0  0  0  0  0  0  0  0
  189.3570  175.6590  142.7160 O   0  0  0  0  0  0  0  0  0  0  0  0
  191.6090  175.9760  143.3850 C   0  0  0  0  0  1  0  0  0  0  0  0
  190.6300  176.9630  141.2480 N   0  0  0  0  0  0  0  0  0  0  0  0
  191.8760  177.6610  140.9740 C   0  0  0  0  0  1  0  0  0  0  0  0
  1 13  1  0  0  0  0
  1  4  1  0  0  0  0
  2 11  1  6  0  0  0
  2  1  1  0  0  0  0
  3 13  2  0  0  0  0
  4  7  1  0  0  0  0
  5  8  1  0  0  0  0
  6  3  1  0  0  0  0
  7 14  1  0  0  0  0
  7  8  2  0  0  0  0
  9 18  1  0  0  0  0
 10  9  1  0  0  0  0
 12  5  2  0  0  0  0
 13 14  1  0  0  0  0
 15  9  2  0  0  0  0
 15 17  1  0  0  0  0
 16  4  2  0  0  0  0
 16 12  1  0  0  0  0
 17 11  2  0  0  0  0
 18  6  2  0  0  0  0
 18  2  1  0  0  0  0
 19 17  1  0  0  0  0
 20 19  1  0  0  0  0
 20 24  1  0  0  0  0
 21 22  2  0  0  0  0
 21 23  1  0  0  0  0
 24 21  1  0  0  0  0
 25 24  1  0  0  0  0
M  END
>  <MODEL>
5

>  <REMARK>
 VINA RESULT:      -8.8      1.747      2.667
  Name = 
  3 active torsions:
  status: ('A' for Active; 'I' for Inactive)
    1  A    between atoms: C_6  and  C_15
    2  A    between atoms: C_6  and  C_23
    3  A    between atoms: C_15  and  N_21
                            x       y       z     vdW  Elec       q    Type
                         _______ _______ _______ _____ _____    ______ ____

>  <TORSDO>
F 3

$$$$
=
 OpenBabel10272400483D

 25 28  0  0  1  0  0  0  0  0999 V2000
  186.4710  178.3340  144.5260 N   0  0  0  0  0  0  0  0  0  0  0  0
  186.2840  177.9280  143.1290 C   0  0  2  0  0  3  0  0  0  0  0  0
  184.2120  179.1190  144.7580 C   0  0  0  0  0  3  0  0  0  0  0  0
  187.5020  177.8690  145.3860 C   0  0  0  0  0  0  0  0  0  0  0  0
  189.3330  176.9940  147.2910 C   0  0  0  0  0  3  0  0  0  0  0  0
  184.0760  179.0680  143.2890 C   0  0  0  0  0  3  0  0  0  0  0  0
  187.2320  178.0360  146.7360 C   0  0  0  0  0  0  0  0  0  0  0  0
  188.1370  177.6000  147.7040 C   0  0  0  0  0  3  0  0  0  0  0  0
  185.0100  178.6300  141.0550 C   0  0  0  0  0  0  0  0  0  0  0  0
  183.4970  178.8550  140.1930 Cl  0  0  0  0  0  0  0  0  0  0  0  0
  187.4720  178.2150  142.3220 N   0  0  0  0  0  0  0  0  0  0  0  0
  189.6060  176.8230  145.9250 C   0  0  0  0  0  3  0  0  0  0  0  0
  185.3740  178.7880  145.3200 C   0  0  0  0  0  0  0  0  0  0  0  0
  185.6470  178.7950  147.0960 S   0  0  0  0  0  0  0  0  0  0  0  0
  186.1230  178.5660  140.3860 N   0  0  0  0  0  0  0  0  0  0  0  0
  188.6860  177.2570  144.9620 C   0  0  0  0  0  3  0  0  0  0  0  0
  187.3990  178.4470  141.0410 C   0  0  0  0  0  0  0  0  0  0  0  0
  185.0560  178.5680  142.5230 C   0  0  0  0  0  0  0  0  0  0  0  0
  188.6480  178.6260  140.2540 C   0  0  0  0  0  2  0  0  0  0  0  0
  189.0140  177.3210  139.5670 C   0  0  0  0  0  2  0  0  0  0  0  0
  191.1540  176.7260  138.3790 C   0  0  0  0  0  0  0  0  0  0  0  0
  190.5170  176.5120  137.3130 O   0  0  0  0  0  0  0  0  0  0  0  0
  192.6340  176.5380  138.3800 C   0  0  0  0  0  1  0  0  0  0  0  0
  190.4590  177.1420  139.5660 N   0  0  0  0  0  0  0  0  0  0  0  0
  191.1640  177.2880  140.8300 C   0  0  0  0  0  1  0  0  0  0  0  0
  1 13  1  0  0  0  0
  1  4  1  0  0  0  0
  2 11  1  6  0  0  0
  2  1  1  0  0  0  0
  3 13  2  0  0  0  0
  4  7  1  0  0  0  0
  5  8  1  0  0  0  0
  6  3  1  0  0  0  0
  7 14  1  0  0  0  0
  7  8  2  0  0  0  0
  9 18  1  0  0  0  0
 10  9  1  0  0  0  0
 12  5  2  0  0  0  0
 13 14  1  0  0  0  0
 15 17  1  0  0  0  0
 15  9  2  0  0  0  0
 16  4  2  0  0  0  0
 16 12  1  0  0  0  0
 17 11  2  0  0  0  0
 18  2  1  0  0  0  0
 18  6  2  0  0  0  0
 19 17  1  0  0  0  0
 20 19  1  0  0  0  0
 21 23  1  0  0  0  0
 21 24  1  0  0  0  0
 22 21  2  0  0  0  0
 24 20  1  0  0  0  0
 24 25  1  0  0  0  0
M  END
>  <MODEL>
6

>  <REMARK>
 VINA RESULT:      -8.8      1.724      2.425
  Name = 
  3 active torsions:
  status: ('A' for Active; 'I' for Inactive)
    1  A    between atoms: C_6  and  C_15
    2  A    between atoms: C_6  and  C_23
    3  A    between atoms: C_15  and  N_21
                            x       y       z     vdW  Elec       q    Type
                         _______ _______ _______ _____ _____    ______ ____

>  <TORSDO>
F 3

$$$$
=
 OpenBabel10272400483D

 25 28  0  0  1  0  0  0  0  0999 V2000
  188.9070  177.4640  143.1360 N   0  0  0  0  0  0  0  0  0  0  0  0
  189.4970  177.8850  141.8610 C   0  0  2  0  0  3  0  0  0  0  0  0
  191.0400  177.0290  144.1530 C   0  0  0  0  0  3  0  0  0  0  0  0
  187.5920  177.7730  143.5750 C   0  0  0  0  0  0  0  0  0  0  0  0
  185.1210  178.3730  144.7070 C   0  0  0  0  0  3  0  0  0  0  0  0
  191.6570  177.0910  142.8140 C   0  0  0  0  0  3  0  0  0  0  0  0
  187.4090  177.6570  144.9450 C   0  0  0  0  0  0  0  0  0  0  0  0
  186.1780  177.9570  145.5290 C   0  0  0  0  0  3  0  0  0  0  0  0
  191.4830  177.3700  140.3750 C   0  0  0  0  0  0  0  0  0  0  0  0
  193.2150  177.3710  140.0820 Cl  0  0  0  0  0  0  0  0  0  0  0  0
  188.7050  177.4170  140.7210 N   0  0  0  0  0  0  0  0  0  0  0  0
  185.3050  178.4930  143.3210 C   0  0  0  0  0  3  0  0  0  0  0  0
  189.7230  177.1850  144.2750 C   0  0  0  0  0  0  0  0  0  0  0  0
  188.8680  177.1470  145.8550 S   0  0  0  0  0  0  0  0  0  0  0  0
  190.6650  177.2620  139.3700 N   0  0  0  0  0  0  0  0  0  0  0  0
  186.5480  178.1970  142.7460 C   0  0  0  0  0  3  0  0  0  0  0  0
  189.2390  177.1920  139.5540 C   0  0  0  0  0  0  0  0  0  0  0  0
  190.9350  177.4330  141.7380 C   0  0  0  0  0  0  0  0  0  0  0  0
  188.3680  176.8220  138.4070 C   0  0  0  0  0  2  0  0  0  0  0  0
  187.6930  178.0640  137.8520 C   0  0  0  0  0  2  0  0  0  0  0  0
  185.2870  178.3430  138.5430 C   0  0  0  0  0  0  0  0  0  0  0  0
  185.6390  179.0380  139.5330 O   0  0  0  0  0  0  0  0  0  0  0  0
  183.8340  178.0830  138.3300 C   0  0  0  0  0  1  0  0  0  0  0  0
  186.2740  177.8140  137.6420 N   0  0  0  0  0  0  0  0  0  0  0  0
  185.8930  176.9230  136.5580 C   0  0  0  0  0  1  0  0  0  0  0  0
  1  4  1  0  0  0  0
  1 13  1  0  0  0  0
  2 11  1  6  0  0  0
  2  1  1  0  0  0  0
  3 13  2  0  0  0  0
  4  7  1  0  0  0  0
  5  8  1  0  0  0  0
  6  3  1  0  0  0  0
  7  8  2  0  0  0  0
  7 14  1  0  0  0  0
  9 18  1  0  0  0  0
 10  9  1  0  0  0  0
 12  5  2  0  0  0  0
 13 14  1  0  0  0  0
 15 17  1  0  0  0  0
 15  9  2  0  0  0  0
 16 12  1  0  0  0  0
 16  4  2  0  0  0  0
 17 11  2  0  0  0  0
 18  2  1  0  0  0  0
 18  6  2  0  0  0  0
 19 17  1  0  0  0  0
 20 19  1  0  0  0  0
 21 22  2  0  0  0  0
 23 21  1  0  0  0  0
 24 20  1  0  0  0  0
 24 21  1  0  0  0  0
 25 24  1  0  0  0  0
M  END
>  <MODEL>
7

>  <REMARK>
 VINA RESULT:      -8.5      3.186      5.431
  Name = 
  3 active torsions:
  status: ('A' for Active; 'I' for Inactive)
    1  A    between atoms: C_6  and  C_15
    2  A    between atoms: C_6  and  C_23
    3  A    between atoms: C_15  and  N_21
                            x       y       z     vdW  Elec       q    Type
                         _______ _______ _______ _____ _____    ______ ____

>  <TORSDO>
F 3

$$$$
=
 OpenBabel10272400483D

 25 28  0  0  1  0  0  0  0  0999 V2000
  184.0590  178.5560  142.5000 N   0  0  0  0  0  0  0  0  0  0  0  0
  185.2460  178.8280  143.3170 C   0  0  2  0  0  3  0  0  0  0  0  0
  182.5340  178.9300  144.3180 C   0  0  0  0  0  3  0  0  0  0  0  0
  184.0120  178.5960  141.0800 C   0  0  0  0  0  0  0  0  0  0  0  0
  183.6400  178.7580  138.3260 C   0  0  0  0  0  3  0  0  0  0  0  0
  183.6770  178.8570  145.2500 C   0  0  0  0  0  3  0  0  0  0  0  0
  182.7340  178.7380  140.5590 C   0  0  0  0  0  0  0  0  0  0  0  0
  182.5310  178.8240  139.1820 C   0  0  0  0  0  3  0  0  0  0  0  0
  186.0770  178.5410  145.6940 C   0  0  0  0  0  0  0  0  0  0  0  0
  185.9850  178.9340  147.4030 Cl  0  0  0  0  0  0  0  0  0  0  0  0
  186.3530  177.9310  142.9750 N   0  0  0  0  0  0  0  0  0  0  0  0
  184.9330  178.6170  138.8520 C   0  0  0  0  0  3  0  0  0  0  0  0
  182.7420  178.7560  143.0130 C   0  0  0  0  0  0  0  0  0  0  0  0
  181.4310  178.8420  141.7870 S   0  0  0  0  0  0  0  0  0  0  0  0
  187.1620  178.0050  145.2170 N   0  0  0  0  0  0  0  0  0  0  0  0
  185.1270  178.5390  140.2380 C   0  0  0  0  0  3  0  0  0  0  0  0
  187.2720  177.6050  143.8400 C   0  0  0  0  0  0  0  0  0  0  0  0
  184.9320  178.7540  144.7940 C   0  0  0  0  0  0  0  0  0  0  0  0
  188.4290  176.7780  143.4050 C   0  0  0  0  0  2  0  0  0  0  0  0
  189.7180  177.5560  143.6000 C   0  0  0  0  0  2  0  0  0  0  0  0
  190.8400  176.9500  145.7730 C   0  0  0  0  0  0  0  0  0  0  0  0
  190.1500  177.8100  146.3830 O   0  0  0  0  0  0  0  0  0  0  0  0
  191.8230  176.1380  146.5480 C   0  0  0  0  0  1  0  0  0  0  0  0
  190.6750  176.7610  144.3580 N   0  0  0  0  0  0  0  0  0  0  0  0
  191.5370  175.8500  143.6210 C   0  0  0  0  0  1  0  0  0  0  0  0
  1 13  1  0  0  0  0
  1  2  1  0  0  0  0
  2 11  1  6  0  0  0
  2 18  1  0  0  0  0
  3  6  1  0  0  0  0
  4  1  1  0  0  0  0
  5 12  2  0  0  0  0
  5  8  1  0  0  0  0
  7  4  1  0  0  0  0
  7 14  1  0  0  0  0
  8  7  2  0  0  0  0
  9 10  1  0  0  0  0
 11 17  2  0  0  0  0
 12 16  1  0  0  0  0
 13  3  2  0  0  0  0
 14 13  1  0  0  0  0
 15  9  2  0  0  0  0
 16  4  2  0  0  0  0
 17 15  1  0  0  0  0
 18  6  2  0  0  0  0
 18  9  1  0  0  0  0
 19 20  1  0  0  0  0
 19 17  1  0  0  0  0
 20 24  1  0  0  0  0
 21 22  2  0  0  0  0
 21 23  1  0  0  0  0
 24 21  1  0  0  0  0
 25 24  1  0  0  0  0
M  END
>  <MODEL>
8

>  <REMARK>
 VINA RESULT:      -8.4      3.247      6.254
  Name = 
  3 active torsions:
  status: ('A' for Active; 'I' for Inactive)
    1  A    between atoms: C_6  and  C_15
    2  A    between atoms: C_6  and  C_23
    3  A    between atoms: C_15  and  N_21
                            x       y       z     vdW  Elec       q    Type
                         _______ _______ _______ _____ _____    ______ ____

>  <TORSDO>
F 3

$$$$
=
 OpenBabel10272400483D

 25 28  0  0  1  0  0  0  0  0999 V2000
  186.8760  178.3100  142.8550 N   0  0  0  0  0  0  0  0  0  0  0  0
  188.0110  177.5510  142.3190 C   0  0  2  0  0  3  0  0  0  0  0  0
  185.9750  178.7880  140.6790 C   0  0  0  0  0  3  0  0  0  0  0  0
  186.3860  178.2260  144.1860 C   0  0  0  0  0  0  0  0  0  0  0  0
  185.1620  178.1240  146.6840 C   0  0  0  0  0  3  0  0  0  0  0  0
  187.2570  178.3600  140.0880 C   0  0  0  0  0  3  0  0  0  0  0  0
  185.0840  178.6780  144.3400 C   0  0  0  0  0  0  0  0  0  0  0  0
  184.4550  178.6300  145.5850 C   0  0  0  0  0  3  0  0  0  0  0  0
  189.5620  177.5290  140.3160 C   0  0  0  0  0  0  0  0  0  0  0  0
  189.8340  177.3110  138.5950 Cl  0  0  0  0  0  0  0  0  0  0  0  0
  189.2350  177.8030  143.0840 N   0  0  0  0  0  0  0  0  0  0  0  0
  186.4800  177.6650  146.5280 C   0  0  0  0  0  3  0  0  0  0  0  0
  185.8290  178.7790  142.0040 C   0  0  0  0  0  0  0  0  0  0  0  0
  184.3090  179.2610  142.8320 S   0  0  0  0  0  0  0  0  0  0  0  0
  190.5700  177.4660  141.1360 N   0  0  0  0  0  0  0  0  0  0  0  0
  187.0990  177.7100  145.2720 C   0  0  0  0  0  3  0  0  0  0  0  0
  190.4190  177.7000  142.5480 C   0  0  0  0  0  0  0  0  0  0  0  0
  188.2270  177.8360  140.8500 C   0  0  0  0  0  0  0  0  0  0  0  0
  191.6270  177.8610  143.3990 C   0  0  0  0  0  2  0  0  0  0  0  0
  191.2340  177.8110  144.8650 C   0  0  0  0  0  2  0  0  0  0  0  0
  191.7040  176.3540  146.8650 C   0  0  0  0  0  0  0  0  0  0  0  0
  191.4660  177.3190  147.6400 O   0  0  0  0  0  0  0  0  0  0  0  0
  192.0880  175.0390  147.4550 C   0  0  0  0  0  1  0  0  0  0  0  0
  191.6050  176.5270  145.4420 N   0  0  0  0  0  0  0  0  0  0  0  0
  191.9800  175.4560  144.5330 C   0  0  0  0  0  1  0  0  0  0  0  0
  1  4  1  0  0  0  0
  2 18  1  6  0  0  0
  2  1  1  0  0  0  0
  2 11  1  0  0  0  0
  3 13  2  0  0  0  0
  4  7  2  0  0  0  0
  4 16  1  0  0  0  0
  6  3  1  0  0  0  0
  6 18  2  0  0  0  0
  7  8  1  0  0  0  0
  8  5  2  0  0  0  0
  9 18  1  0  0  0  0
  9 15  2  0  0  0  0
 10  9  1  0  0  0  0
 12  5  1  0  0  0  0
 13 14  1  0  0  0  0
 13  1  1  0  0  0  0
 14  7  1  0  0  0  0
 15 17  1  0  0  0  0
 16 12  2  0  0  0  0
 17 11  2  0  0  0  0
 17 19  1  0  0  0  0
 19 20  1  0  0  0  0
 20 24  1  0  0  0  0
 21 23  1  0  0  0  0
 21 22  2  0  0  0  0
 24 21  1  0  0  0  0
 25 24  1  0  0  0  0
M  END
>  <MODEL>
9

>  <REMARK>
 VINA RESULT:      -8.3      3.010      5.817
  Name = 
  3 active torsions:
  status: ('A' for Active; 'I' for Inactive)
    1  A    between atoms: C_6  and  C_15
    2  A    between atoms: C_6  and  C_23
    3  A    between atoms: C_15  and  N_21
                            x       y       z     vdW  Elec       q    Type
                         _______ _______ _______ _____ _____    ______ ____

>  <TORSDO>
F 3

$$$$
