=
 OpenBabel10272401573D

 28 33  0  0  1  0  0  0  0  0999 V2000
  189.5510  177.6670  140.0080 N   0  0  0  0  0  0  0  0  0  0  0  0
  185.2700  178.7180  142.7430 S   0  0  0  0  0  0  0  0  0  0  0  0
  190.9550  179.0620  144.2440 C   0  0  0  0  0  1  0  0  0  0  0  0
  186.3070  178.3570  145.1970 C   0  0  1  0  0  3  0  0  0  0  0  0
  187.8780  177.8560  143.3360 C   0  0  0  0  0  0  0  0  0  0  0  0
  182.7340  178.4880  144.0050 C   0  0  0  0  0  2  0  0  0  0  0  0
  186.4460  177.8100  143.7920 C   0  0  2  0  0  3  0  0  0  0  0  0
  188.6140  177.6460  145.7360 C   0  0  0  0  0  2  0  0  0  0  0  0
  184.8290  178.3650  145.5140 C   0  0  0  0  0  2  0  0  0  0  0  0
  190.5020  177.5680  142.3260 C   0  0  0  0  0  0  0  0  0  0  0  0
  188.1490  177.8570  141.9250 N   0  0  0  0  0  0  0  0  0  0  0  0
  187.1360  177.4880  146.1180 C   0  0  0  0  0  2  0  0  0  0  0  0
  191.8970  177.2260  140.3370 C   0  0  0  0  0  3  0  0  0  0  0  0
  190.3300  177.7450  143.8080 C   0  0  0  0  0  0  0  0  0  0  0  0
  191.7080  177.3280  141.8000 C   0  0  0  0  0  3  0  0  0  0  0  0
  183.2020  179.9190  144.2600 C   0  0  0  0  0  2  0  0  0  0  0  0
  184.1970  178.7870  144.2060 C   0  0  0  0  0  0  0  0  0  0  0  0
  188.8830  177.7020  144.2390 C   0  0  0  0  0  0  0  0  0  0  0  0
  190.8660  177.3950  139.5010 C   0  0  0  0  0  3  0  0  0  0  0  0
  189.3420  177.7240  141.4300 C   0  0  2  0  0  3  0  0  0  0  0  0
  188.4610  177.8860  139.0660 C   0  0  0  0  0  2  0  0  0  0  0  0
  188.6830  177.0960  137.8210 C   0  0  0  0  0  0  0  0  0  0  0  0
  189.1520  175.6050  135.5000 C   0  0  0  0  0  0  0  0  0  0  0  0
  188.3310  175.7430  137.7750 C   0  0  0  0  0  3  0  0  0  0  0  0
  189.2770  177.7010  136.7070 C   0  0  0  0  0  3  0  0  0  0  0  0
  189.5090  176.9570  135.5470 C   0  0  0  0  0  3  0  0  0  0  0  0
  189.3820  174.8660  134.3480 O   0  0  0  0  0  1  0  0  0  0  0  0
  188.5630  174.9980  136.6130 C   0  0  0  0  0  3  0  0  0  0  0  0
  1 20  1  0  0  0  0
  2 17  1  0  0  0  0
  4  9  1  1  0  0  0
  4 12  1  0  0  0  0
  5  7  1  0  0  0  0
  5 18  1  0  0  0  0
  6 17  1  0  0  0  0
  6 16  1  0  0  0  0
  7  2  1  6  0  0  0
  7  4  1  0  0  0  0
  8 12  1  0  0  0  0
 10 14  1  0  0  0  0
 11  5  2  0  0  0  0
 13 15  1  0  0  0  0
 14 18  2  0  0  0  0
 14  3  1  0  0  0  0
 15 10  2  0  0  0  0
 17 16  1  0  0  0  0
 17  9  1  0  0  0  0
 18  8  1  0  0  0  0
 19  1  1  0  0  0  0
 19 13  2  0  0  0  0
 20 11  1  1  0  0  0
 20 10  1  0  0  0  0
 21  1  1  0  0  0  0
 22 21  1  0  0  0  0
 23 26  2  0  0  0  0
 23 28  1  0  0  0  0
 24 22  1  0  0  0  0
 25 22  2  0  0  0  0
 26 25  1  0  0  0  0
 27 23  1  0  0  0  0
 28 24  2  0  0  0  0
M  END
>  <MODEL>
1

>  <REMARK>
 VINA RESULT:      -9.2      0.000      0.000
  Name = 
  2 active torsions:
  status: ('A' for Active; 'I' for Inactive)
    1  A    between atoms: N_1  and  C_2
    2  A    between atoms: C_2  and  C_3
                            x       y       z     vdW  Elec       q    Type
                         _______ _______ _______ _____ _____    ______ ____

>  <TORSDO>
F 2

$$$$
=
 OpenBabel10272401573D

 28 33  0  0  1  0  0  0  0  0999 V2000
  189.1690  177.6900  138.5890 N   0  0  0  0  0  0  0  0  0  0  0  0
  185.6460  178.8520  142.2160 S   0  0  0  0  0  0  0  0  0  0  0  0
  191.4820  178.1670  142.6240 C   0  0  0  0  0  1  0  0  0  0  0  0
  187.0110  177.9550  144.3510 C   0  0  1  0  0  3  0  0  0  0  0  0
  188.1400  177.5580  142.1720 C   0  0  0  0  0  0  0  0  0  0  0  0
  183.3590  178.7660  143.9010 C   0  0  0  0  0  2  0  0  0  0  0  0
  186.8180  177.6320  142.8850 C   0  0  2  0  0  3  0  0  0  0  0  0
  189.2290  176.8580  144.3330 C   0  0  0  0  0  2  0  0  0  0  0  0
  185.6310  178.1130  144.9460 C   0  0  0  0  0  2  0  0  0  0  0  0
  190.4710  177.0830  140.6450 C   0  0  0  0  0  0  0  0  0  0  0  0
  188.1640  177.7520  140.7480 N   0  0  0  0  0  0  0  0  0  0  0  0
  187.8310  176.8430  144.9680 C   0  0  0  0  0  2  0  0  0  0  0  0
  191.4320  176.8860  138.3960 C   0  0  0  0  0  3  0  0  0  0  0  0
  190.5850  177.0370  142.1420 C   0  0  0  0  0  0  0  0  0  0  0  0
  191.5140  176.7710  139.8680 C   0  0  0  0  0  3  0  0  0  0  0  0
  184.0920  180.0590  144.2530 C   0  0  0  0  0  2  0  0  0  0  0  0
  184.8640  178.8260  143.8540 C   0  0  0  0  0  0  0  0  0  0  0  0
  189.2450  177.1210  142.8340 C   0  0  0  0  0  0  0  0  0  0  0  0
  190.3160  177.3280  137.8060 C   0  0  0  0  0  3  0  0  0  0  0  0
  189.2170  177.5410  140.0190 C   0  0  2  0  0  3  0  0  0  0  0  0
  187.9860  178.2070  137.9140 C   0  0  0  0  0  2  0  0  0  0  0  0
  187.0460  177.0960  137.5880 C   0  0  0  0  0  0  0  0  0  0  0  0
  185.2840  175.0270  136.9230 C   0  0  0  0  0  0  0  0  0  0  0  0
  187.5350  175.8060  137.3570 C   0  0  0  0  0  3  0  0  0  0  0  0
  185.6740  177.3510  137.4780 C   0  0  0  0  0  3  0  0  0  0  0  0
  184.7940  176.3180  137.1470 C   0  0  0  0  0  3  0  0  0  0  0  0
  184.4090  174.0000  136.5960 O   0  0  0  0  0  1  0  0  0  0  0  0
  186.6540  174.7710  137.0270 C   0  0  0  0  0  3  0  0  0  0  0  0
  1 20  1  0  0  0  0
  2  7  1  0  0  0  0
  2 17  1  0  0  0  0
  4  9  1  1  0  0  0
  4 12  1  0  0  0  0
  5 18  1  0  0  0  0
  6 16  1  0  0  0  0
  7  5  1  6  0  0  0
  7  4  1  0  0  0  0
  8 12  1  0  0  0  0
 10 14  1  0  0  0  0
 11  5  2  0  0  0  0
 13 15  1  0  0  0  0
 14  3  1  0  0  0  0
 14 18  2  0  0  0  0
 15 10  2  0  0  0  0
 17  6  1  0  0  0  0
 17 16  1  0  0  0  0
 17  9  1  0  0  0  0
 18  8  1  0  0  0  0
 19 13  2  0  0  0  0
 19  1  1  0  0  0  0
 20 10  1  6  0  0  0
 20 11  1  0  0  0  0
 21  1  1  0  0  0  0
 22 21  1  0  0  0  0
 23 28  2  0  0  0  0
 23 26  1  0  0  0  0
 24 22  2  0  0  0  0
 25 22  1  0  0  0  0
 26 25  2  0  0  0  0
 27 23  1  0  0  0  0
 28 24  1  0  0  0  0
M  END
>  <MODEL>
2

>  <REMARK>
 VINA RESULT:      -8.6      1.858      2.218
  Name = 
  2 active torsions:
  status: ('A' for Active; 'I' for Inactive)
    1  A    between atoms: N_1  and  C_2
    2  A    between atoms: C_2  and  C_3
                            x       y       z     vdW  Elec       q    Type
                         _______ _______ _______ _____ _____    ______ ____

>  <TORSDO>
F 2

$$$$
=
 OpenBabel10272401573D

 28 33  0  0  1  0  0  0  0  0999 V2000
  184.4400  178.9470  141.9900 N   0  0  0  0  0  0  0  0  0  0  0  0
  187.5710  177.7680  138.0250 S   0  0  0  0  0  0  0  0  0  0  0  0
  187.7610  176.1220  143.6780 C   0  0  0  0  0  1  0  0  0  0  0  0
  189.7730  177.1960  139.4570 C   0  0  1  0  0  3  0  0  0  0  0  0
  187.8490  178.0000  140.8110 C   0  0  0  0  0  0  0  0  0  0  0  0
  189.3240  177.9800  135.7980 C   0  0  0  0  0  2  0  0  0  0  0  0
  188.5750  178.1200  139.5000 C   0  0  2  0  0  3  0  0  0  0  0  0
  190.0190  177.3490  141.9140 C   0  0  0  0  0  2  0  0  0  0  0  0
  190.3620  177.3150  138.0700 C   0  0  0  0  0  2  0  0  0  0  0  0
  186.4590  178.1840  143.2660 C   0  0  0  0  0  0  0  0  0  0  0  0
  186.4680  178.3920  140.8710 N   0  0  0  0  0  0  0  0  0  0  0  0
  190.7140  177.6030  140.5690 C   0  0  0  0  0  2  0  0  0  0  0  0
  184.4060  178.9040  144.3980 C   0  0  0  0  0  3  0  0  0  0  0  0
  187.8380  177.5880  143.2770 C   0  0  0  0  0  0  0  0  0  0  0  0
  185.7910  178.3880  144.4070 C   0  0  0  0  0  3  0  0  0  0  0  0
  189.0760  176.4860  135.9970 C   0  0  0  0  0  2  0  0  0  0  0  0
  189.1400  177.4160  137.1830 C   0  0  0  0  0  0  0  0  0  0  0  0
  188.5420  177.7150  141.9470 C   0  0  0  0  0  0  0  0  0  0  0  0
  183.7780  179.1590  143.2460 C   0  0  0  0  0  3  0  0  0  0  0  0
  185.8030  178.4880  141.9810 C   0  0  2  0  0  3  0  0  0  0  0  0
  183.7090  179.1950  140.7540 C   0  0  0  0  0  2  0  0  0  0  0  0
  182.7410  178.0910  140.4910 C   0  0  0  0  0  0  0  0  0  0  0  0
  180.9090  176.0460  139.9540 C   0  0  0  0  0  0  0  0  0  0  0  0
  183.1610  176.9290  139.8360 C   0  0  0  0  0  3  0  0  0  0  0  0
  181.4010  178.2320  140.8710 C   0  0  0  0  0  3  0  0  0  0  0  0
  180.4860  177.2110  140.6040 C   0  0  0  0  0  3  0  0  0  0  0  0
  180.0000  175.0310  139.6900 O   0  0  0  0  0  1  0  0  0  0  0  0
  182.2450  175.9060  139.5690 C   0  0  0  0  0  3  0  0  0  0  0  0
  1 19  1  0  0  0  0
  4  9  1  6  0  0  0
  4  7  1  0  0  0  0
  4 12  1  0  0  0  0
  5 11  2  0  0  0  0
  5 18  1  0  0  0  0
  6 16  1  0  0  0  0
  6 17  1  0  0  0  0
  7  2  1  6  0  0  0
  7  5  1  0  0  0  0
  8 18  1  0  0  0  0
 10 14  1  0  0  0  0
 10 15  2  0  0  0  0
 12  8  1  0  0  0  0
 13 15  1  0  0  0  0
 14  3  1  0  0  0  0
 16 17  1  0  0  0  0
 17  2  1  0  0  0  0
 17  9  1  0  0  0  0
 18 14  2  0  0  0  0
 19 13  2  0  0  0  0
 20 11  1  1  0  0  0
 20  1  1  0  0  0  0
 20 10  1  0  0  0  0
 21  1  1  0  0  0  0
 22 21  1  0  0  0  0
 22 25  1  0  0  0  0
 23 26  1  0  0  0  0
 24 22  2  0  0  0  0
 26 25  2  0  0  0  0
 27 23  1  0  0  0  0
 28 24  1  0  0  0  0
 28 23  2  0  0  0  0
M  END
>  <MODEL>
3

>  <REMARK>
 VINA RESULT:      -8.3      3.337      7.021
  Name = 
  2 active torsions:
  status: ('A' for Active; 'I' for Inactive)
    1  A    between atoms: N_1  and  C_2
    2  A    between atoms: C_2  and  C_3
                            x       y       z     vdW  Elec       q    Type
                         _______ _______ _______ _____ _____    ______ ____

>  <TORSDO>
F 2

$$$$
=
 OpenBabel10272401573D

 28 33  0  0  1  0  0  0  0  0999 V2000
  184.1180  178.9050  142.2200 N   0  0  0  0  0  0  0  0  0  0  0  0
  188.3900  177.4210  139.6780 S   0  0  0  0  0  0  0  0  0  0  0  0
  186.7830  176.5870  145.2830 C   0  0  0  0  0  1  0  0  0  0  0  0
  190.0240  177.2130  141.8010 C   0  0  1  0  0  3  0  0  0  0  0  0
  187.7470  178.0540  142.3390 C   0  0  0  0  0  0  0  0  0  0  0  0
  190.7630  177.4510  138.1140 C   0  0  0  0  0  2  0  0  0  0  0  0
  188.8540  178.0450  141.3220 C   0  0  2  0  0  3  0  0  0  0  0  0
  189.4590  177.7200  144.1570 C   0  0  0  0  0  2  0  0  0  0  0  0
  191.0270  177.1810  140.6710 C   0  0  0  0  0  2  0  0  0  0  0  0
  185.6340  178.4730  144.1690 C   0  0  0  0  0  0  0  0  0  0  0  0
  186.4120  178.3490  141.8980 N   0  0  0  0  0  0  0  0  0  0  0  0
  190.5460  177.8370  143.0780 C   0  0  0  0  0  2  0  0  0  0  0  0
  183.3090  179.1920  144.4710 C   0  0  0  0  0  3  0  0  0  0  0  0
  186.9500  177.9860  144.7080 C   0  0  0  0  0  0  0  0  0  0  0  0
  184.6290  178.7840  144.9950 C   0  0  0  0  0  3  0  0  0  0  0  0
  190.5000  175.9850  138.4510 C   0  0  0  0  0  2  0  0  0  0  0  0
  190.1550  177.0710  139.4390 C   0  0  0  0  0  0  0  0  0  0  0  0
  188.0430  177.9790  143.6640 C   0  0  0  0  0  0  0  0  0  0  0  0
  183.0810  179.2390  143.1540 C   0  0  0  0  0  3  0  0  0  0  0  0
  185.4210  178.5490  142.7130 C   0  0  2  0  0  3  0  0  0  0  0  0
  183.8200  178.9270  140.7930 C   0  0  0  0  0  2  0  0  0  0  0  0
  182.8170  177.8760  140.4560 C   0  0  0  0  0  0  0  0  0  0  0  0
  180.9220  175.9330  139.7760 C   0  0  0  0  0  0  0  0  0  0  0  0
  183.2180  176.7030  139.8090 C   0  0  0  0  0  3  0  0  0  0  0  0
  181.4640  178.0800  140.7550 C   0  0  0  0  0  3  0  0  0  0  0  0
  180.5180  177.1090  140.4170 C   0  0  0  0  0  3  0  0  0  0  0  0
  179.9830  174.9680  139.4410 O   0  0  0  0  0  1  0  0  0  0  0  0
  182.2710  175.7300  139.4710 C   0  0  0  0  0  3  0  0  0  0  0  0
  1 20  1  0  0  0  0
  1 19  1  0  0  0  0
  4  9  1  6  0  0  0
  4 12  1  0  0  0  0
  5 18  1  0  0  0  0
  6 16  1  0  0  0  0
  6 17  1  0  0  0  0
  7  2  1  6  0  0  0
  7  4  1  0  0  0  0
  7  5  1  0  0  0  0
 10 14  1  0  0  0  0
 10 15  2  0  0  0  0
 11  5  2  0  0  0  0
 12  8  1  0  0  0  0
 13 15  1  0  0  0  0
 14  3  1  0  0  0  0
 16 17  1  0  0  0  0
 17  2  1  0  0  0  0
 17  9  1  0  0  0  0
 18  8  1  0  0  0  0
 18 14  2  0  0  0  0
 19 13  2  0  0  0  0
 20 11  1  1  0  0  0
 20 10  1  0  0  0  0
 21  1  1  0  0  0  0
 22 25  1  0  0  0  0
 22 21  1  0  0  0  0
 23 26  1  0  0  0  0
 24 22  2  0  0  0  0
 26 25  2  0  0  0  0
 27 23  1  0  0  0  0
 28 23  2  0  0  0  0
 28 24  1  0  0  0  0
M  END
>  <MODEL>
4

>  <REMARK>
 VINA RESULT:      -8.3      3.318      6.811
  Name = 
  2 active torsions:
  status: ('A' for Active; 'I' for Inactive)
    1  A    between atoms: N_1  and  C_2
    2  A    between atoms: C_2  and  C_3
                            x       y       z     vdW  Elec       q    Type
                         _______ _______ _______ _____ _____    ______ ____

>  <TORSDO>
F 2

$$$$
=
 OpenBabel10272401573D

 28 33  0  0  1  0  0  0  0  0999 V2000
  187.1550  178.3450  140.7070 N   0  0  0  0  0  0  0  0  0  0  0  0
  188.1540  178.1410  145.7930 S   0  0  0  0  0  0  0  0  0  0  0  0
  191.7860  177.8900  141.1620 C   0  0  0  0  0  1  0  0  0  0  0  0
  190.4880  176.8130  145.6540 C   0  0  1  0  0  3  0  0  0  0  0  0
  189.3590  177.1360  143.4620 C   0  0  0  0  0  0  0  0  0  0  0  0
  188.1270  177.3890  148.5340 C   0  0  0  0  0  2  0  0  0  0  0  0
  189.1590  176.8930  144.9320 C   0  0  2  0  0  3  0  0  0  0  0  0
  191.5850  175.9640  143.6050 C   0  0  0  0  0  2  0  0  0  0  0  0
  190.1740  176.6770  147.1260 C   0  0  0  0  0  2  0  0  0  0  0  0
  189.4380  177.3110  140.6420 C   0  0  0  0  0  0  0  0  0  0  0  0
  188.2820  177.7180  142.7100 N   0  0  0  0  0  0  0  0  0  0  0  0
  191.2630  175.6510  145.0730 C   0  0  0  0  0  2  0  0  0  0  0  0
  188.1920  177.8300  138.5940 C   0  0  0  0  0  3  0  0  0  0  0  0
  190.6810  176.8620  141.3580 C   0  0  2  0  0  3  0  0  0  0  0  0
  189.3830  177.3200  139.3060 C   0  0  0  0  0  3  0  0  0  0  0  0
  189.0610  178.5940  148.4380 C   0  0  0  0  0  2  0  0  0  0  0  0
  188.9850  177.5930  147.3120 C   0  0  0  0  0  0  0  0  0  0  0  0
  190.4550  176.6330  142.8340 C   0  0  0  0  0  0  0  0  0  0  0  0
  187.1470  178.3170  139.2720 C   0  0  0  0  0  3  0  0  0  0  0  0
  188.2870  177.8120  141.4150 C   0  0  0  0  0  0  0  0  0  0  0  0
  186.0170  178.9220  141.4100 C   0  0  0  0  0  2  0  0  0  0  0  0
  184.7600  178.6980  140.6380 C   0  0  0  0  0  0  0  0  0  0  0  0
  182.3760  178.3060  139.2280 C   0  0  0  0  0  0  0  0  0  0  0  0
  184.4200  179.5550  139.5850 C   0  0  0  0  0  3  0  0  0  0  0  0
  183.9020  177.6500  140.9890 C   0  0  0  0  0  3  0  0  0  0  0  0
  182.7120  177.4530  140.2840 C   0  0  0  0  0  3  0  0  0  0  0  0
  181.1940  178.1100  138.5260 O   0  0  0  0  0  1  0  0  0  0  0  0
  183.2290  179.3570  138.8790 C   0  0  0  0  0  3  0  0  0  0  0  0
  1 21  1  0  0  0  0
  1 20  1  0  0  0  0
  2 17  1  0  0  0  0
  4 12  1  6  0  0  0
  4  9  1  0  0  0  0
  7  5  1  6  0  0  0
  7  4  1  0  0  0  0
  7  2  1  0  0  0  0
  8 12  1  0  0  0  0
  9 17  1  0  0  0  0
 10 14  1  0  0  0  0
 10 20  1  0  0  0  0
 11  5  1  0  0  0  0
 13 19  2  0  0  0  0
 13 15  1  0  0  0  0
 14  3  1  1  0  0  0
 14 18  1  0  0  0  0
 15 10  2  0  0  0  0
 16  6  1  0  0  0  0
 17 16  1  0  0  0  0
 17  6  1  0  0  0  0
 18  5  2  0  0  0  0
 18  8  1  0  0  0  0
 19  1  1  0  0  0  0
 20 11  2  0  0  0  0
 22 25  1  0  0  0  0
 22 21  1  0  0  0  0
 23 26  1  0  0  0  0
 24 22  2  0  0  0  0
 26 25  2  0  0  0  0
 27 23  1  0  0  0  0
 28 23  2  0  0  0  0
 28 24  1  0  0  0  0
M  END
>  <MODEL>
5

>  <REMARK>
 VINA RESULT:      -8.2      3.175      5.150
  Name = 
  2 active torsions:
  status: ('A' for Active; 'I' for Inactive)
    1  A    between atoms: N_1  and  C_2
    2  A    between atoms: C_2  and  C_3
                            x       y       z     vdW  Elec       q    Type
                         _______ _______ _______ _____ _____    ______ ____

>  <TORSDO>
F 2

$$$$
=
 OpenBabel10272401573D

 28 33  0  0  1  0  0  0  0  0999 V2000
  189.5870  177.5510  140.5210 N   0  0  0  0  0  0  0  0  0  0  0  0
  186.4530  178.1730  144.6080 S   0  0  0  0  0  0  0  0  0  0  0  0
  192.2830  178.8570  144.1110 C   0  0  0  0  0  1  0  0  0  0  0  0
  188.2850  177.7800  146.5360 C   0  0  1  0  0  3  0  0  0  0  0  0
  189.1480  177.4750  144.2240 C   0  0  0  0  0  0  0  0  0  0  0  0
  184.5190  177.7080  146.6380 C   0  0  0  0  0  2  0  0  0  0  0  0
  187.9630  177.3070  145.1340 C   0  0  2  0  0  3  0  0  0  0  0  0
  190.6720  177.2130  146.2120 C   0  0  0  0  0  2  0  0  0  0  0  0
  187.0080  177.6700  147.3350 C   0  0  0  0  0  2  0  0  0  0  0  0
  191.2780  177.4190  142.3670 C   0  0  0  0  0  0  0  0  0  0  0  0
  188.9190  177.5570  142.8080 N   0  0  0  0  0  0  0  0  0  0  0  0
  189.4240  176.9340  147.0620 C   0  0  0  0  0  2  0  0  0  0  0  0
  191.9230  177.2650  140.0050 C   0  0  0  0  0  3  0  0  0  0  0  0
  191.6160  177.5180  143.8280 C   0  0  0  0  0  0  0  0  0  0  0  0
  192.2420  177.2890  141.4480 C   0  0  0  0  0  3  0  0  0  0  0  0
  184.9710  179.1570  146.8110 C   0  0  0  0  0  2  0  0  0  0  0  0
  185.9450  178.1020  146.3490 C   0  0  0  0  0  0  0  0  0  0  0  0
  190.4080  177.3540  144.7200 C   0  0  0  0  0  0  0  0  0  0  0  0
  190.6610  177.3950  139.5810 C   0  0  0  0  0  3  0  0  0  0  0  0
  189.8750  177.5310  141.9300 C   0  0  2  0  0  3  0  0  0  0  0  0
  188.2300  177.7330  140.0210 C   0  0  0  0  0  2  0  0  0  0  0  0
  188.2150  177.6900  138.5300 C   0  0  0  0  0  0  0  0  0  0  0  0
  188.1330  177.6190  135.7340 C   0  0  0  0  0  0  0  0  0  0  0  0
  188.5540  178.8280  137.7910 C   0  0  0  0  0  3  0  0  0  0  0  0
  187.8280  176.5180  137.8690 C   0  0  0  0  0  3  0  0  0  0  0  0
  187.7890  176.4820  136.4730 C   0  0  0  0  0  3  0  0  0  0  0  0
  188.0950  177.5840  134.3470 O   0  0  0  0  0  1  0  0  0  0  0  0
  188.5150  178.7920  136.3930 C   0  0  0  0  0  3  0  0  0  0  0  0
  1 20  1  0  0  0  0
  2  7  1  0  0  0  0
  2 17  1  0  0  0  0
  4 12  1  1  0  0  0
  4  9  1  0  0  0  0
  5 18  1  0  0  0  0
  6 16  1  0  0  0  0
  7  5  1  6  0  0  0
  7  4  1  0  0  0  0
  8 12  1  0  0  0  0
 10 14  1  0  0  0  0
 11  5  2  0  0  0  0
 13 15  1  0  0  0  0
 14  3  1  0  0  0  0
 14 18  2  0  0  0  0
 15 10  2  0  0  0  0
 17  6  1  0  0  0  0
 17 16  1  0  0  0  0
 17  9  1  0  0  0  0
 18  8  1  0  0  0  0
 19 13  2  0  0  0  0
 19  1  1  0  0  0  0
 20 10  1  6  0  0  0
 20 11  1  0  0  0  0
 21  1  1  0  0  0  0
 22 21  1  0  0  0  0
 23 28  2  0  0  0  0
 23 26  1  0  0  0  0
 24 22  2  0  0  0  0
 25 22  1  0  0  0  0
 26 25  2  0  0  0  0
 27 23  1  0  0  0  0
 28 24  1  0  0  0  0
M  END
>  <MODEL>
6

>  <REMARK>
 VINA RESULT:      -7.9      1.628      2.119
  Name = 
  2 active torsions:
  status: ('A' for Active; 'I' for Inactive)
    1  A    between atoms: N_1  and  C_2
    2  A    between atoms: C_2  and  C_3
                            x       y       z     vdW  Elec       q    Type
                         _______ _______ _______ _____ _____    ______ ____

>  <TORSDO>
F 2

$$$$
=
 OpenBabel10272401573D

 28 33  0  0  1  0  0  0  0  0999 V2000
  184.2250  178.4460  142.5780 N   0  0  0  0  0  0  0  0  0  0  0  0
  189.0820  176.7570  143.2680 S   0  0  0  0  0  0  0  0  0  0  0  0
  184.6250  177.2720  147.0850 C   0  0  0  0  0  1  0  0  0  0  0  0
  189.2740  177.2660  145.9010 C   0  0  1  0  0  3  0  0  0  0  0  0
  187.1350  178.0010  144.8680 C   0  0  0  0  0  0  0  0  0  0  0  0
  191.9190  176.5990  143.3010 C   0  0  0  0  0  2  0  0  0  0  0  0
  188.6140  177.8300  144.6600 C   0  0  2  0  0  3  0  0  0  0  0  0
  187.5510  178.3170  147.3330 C   0  0  0  0  0  2  0  0  0  0  0  0
  190.7260  177.0340  145.5520 C   0  0  0  0  0  2  0  0  0  0  0  0
  184.3990  178.6840  145.0670 C   0  0  0  0  0  0  0  0  0  0  0  0
  186.2800  178.0430  143.7140 N   0  0  0  0  0  0  0  0  0  0  0  0
  189.0550  178.2480  147.0310 C   0  0  0  0  0  2  0  0  0  0  0  0
  182.3400  179.2350  143.8530 C   0  0  0  0  0  3  0  0  0  0  0  0
  185.1720  178.4810  146.3400 C   0  0  0  0  0  0  0  0  0  0  0  0
  183.1300  179.1040  145.0960 C   0  0  0  0  0  3  0  0  0  0  0  0
  191.4170  175.2540  143.8230 C   0  0  0  0  0  2  0  0  0  0  0  0
  190.6630  176.5240  144.1290 C   0  0  0  0  0  0  0  0  0  0  0  0
  186.6540  178.3040  146.1030 C   0  0  0  0  0  0  0  0  0  0  0  0
  182.8720  178.9140  142.6680 C   0  0  0  0  0  3  0  0  0  0  0  0
  185.0210  178.3550  143.7720 C   0  0  2  0  0  3  0  0  0  0  0  0
  184.7570  178.0660  141.2750 C   0  0  0  0  0  2  0  0  0  0  0  0
  183.6880  178.1390  140.2360 C   0  0  0  0  0  0  0  0  0  0  0  0
  181.7230  178.2640  138.2490 C   0  0  0  0  0  0  0  0  0  0  0  0
  182.8780  177.0270  139.9820 C   0  0  0  0  0  3  0  0  0  0  0  0
  183.5190  179.3100  139.4890 C   0  0  0  0  0  3  0  0  0  0  0  0
  182.5370  179.3740  138.4980 C   0  0  0  0  0  3  0  0  0  0  0  0
  180.7450  178.3260  137.2660 O   0  0  0  0  0  1  0  0  0  0  0  0
  181.8930  177.0910  138.9900 C   0  0  0  0  0  3  0  0  0  0  0  0
  1 19  1  0  0  0  0
  1 20  1  0  0  0  0
  2 17  1  0  0  0  0
  4  9  1  6  0  0  0
  4 12  1  0  0  0  0
  5 18  1  0  0  0  0
  6 16  1  0  0  0  0
  6 17  1  0  0  0  0
  7  2  1  6  0  0  0
  7  5  1  0  0  0  0
  7  4  1  0  0  0  0
 10 15  2  0  0  0  0
 10 14  1  0  0  0  0
 11  5  2  0  0  0  0
 12  8  1  0  0  0  0
 13 15  1  0  0  0  0
 14  3  1  0  0  0  0
 16 17  1  0  0  0  0
 17  9  1  0  0  0  0
 18 14  2  0  0  0  0
 18  8  1  0  0  0  0
 19 13  2  0  0  0  0
 20 11  1  6  0  0  0
 20 10  1  0  0  0  0
 21  1  1  0  0  0  0
 22 21  1  0  0  0  0
 23 26  2  0  0  0  0
 23 28  1  0  0  0  0
 24 22  1  0  0  0  0
 25 22  2  0  0  0  0
 26 25  1  0  0  0  0
 27 23  1  0  0  0  0
 28 24  2  0  0  0  0
M  END
>  <MODEL>
7

>  <REMARK>
 VINA RESULT:      -7.9      4.161      6.544
  Name = 
  2 active torsions:
  status: ('A' for Active; 'I' for Inactive)
    1  A    between atoms: N_1  and  C_2
    2  A    between atoms: C_2  and  C_3
                            x       y       z     vdW  Elec       q    Type
                         _______ _______ _______ _____ _____    ______ ____

>  <TORSDO>
F 2

$$$$
=
 OpenBabel10272401573D

 28 33  0  0  1  0  0  0  0  0999 V2000
  187.8890  178.3050  141.4140 N   0  0  0  0  0  0  0  0  0  0  0  0
  183.5690  179.9140  139.0330 S   0  0  0  0  0  0  0  0  0  0  0  0
  184.8590  179.5070  144.7660 C   0  0  0  0  0  1  0  0  0  0  0  0
  181.8440  179.4210  141.0360 C   0  0  1  0  0  3  0  0  0  0  0  0
  184.1830  178.7170  141.5000 C   0  0  0  0  0  0  0  0  0  0  0  0
  181.2750  180.0210  137.3590 C   0  0  0  0  0  2  0  0  0  0  0  0
  183.1210  178.8600  140.4460 C   0  0  2  0  0  3  0  0  0  0  0  0
  182.3780  178.4120  143.2310 C   0  0  0  0  0  2  0  0  0  0  0  0
  180.8870  179.6250  139.8840 C   0  0  0  0  0  2  0  0  0  0  0  0
  186.2610  178.0840  143.3080 C   0  0  0  0  0  0  0  0  0  0  0  0
  185.5590  178.6800  141.0880 N   0  0  0  0  0  0  0  0  0  0  0  0
  181.3530  178.4520  142.0890 C   0  0  0  0  0  2  0  0  0  0  0  0
  188.6430  177.5600  143.5770 C   0  0  0  0  0  3  0  0  0  0  0  0
  184.8790  178.2830  143.8620 C   0  0  0  0  0  0  0  0  0  0  0  0
  187.2650  177.6860  144.0980 C   0  0  0  0  0  3  0  0  0  0  0  0
  181.3510  181.3790  138.0550 C   0  0  0  0  0  2  0  0  0  0  0  0
  181.7850  180.1250  138.7730 C   0  0  0  0  0  0  0  0  0  0  0  0
  183.8320  178.4320  142.7830 C   0  0  0  0  0  0  0  0  0  0  0  0
  188.9230  177.8620  142.3040 C   0  0  0  0  0  3  0  0  0  0  0  0
  186.5360  178.3910  141.8930 C   0  0  2  0  0  3  0  0  0  0  0  0
  188.2390  178.6660  140.0460 C   0  0  0  0  0  2  0  0  0  0  0  0
  189.1050  177.6150  139.4370 C   0  0  0  0  0  0  0  0  0  0  0  0
  190.7370  175.6770  138.2510 C   0  0  0  0  0  0  0  0  0  0  0  0
  190.4490  177.5090  139.8080 C   0  0  0  0  0  3  0  0  0  0  0  0
  188.5800  176.7550  138.4650 C   0  0  0  0  0  3  0  0  0  0  0  0
  189.3950  175.7860  137.8740 C   0  0  0  0  0  3  0  0  0  0  0  0
  191.5470  174.7140  137.6650 O   0  0  0  0  0  1  0  0  0  0  0  0
  191.2650  176.5390  139.2170 C   0  0  0  0  0  3  0  0  0  0  0  0
  1 20  1  0  0  0  0
  1 19  1  0  0  0  0
  4  9  1  6  0  0  0
  4 12  1  0  0  0  0
  5 18  1  0  0  0  0
  6 16  1  0  0  0  0
  6 17  1  0  0  0  0
  7  2  1  6  0  0  0
  7  4  1  0  0  0  0
  7  5  1  0  0  0  0
 10 14  1  0  0  0  0
 10 15  2  0  0  0  0
 11  5  2  0  0  0  0
 12  8  1  0  0  0  0
 13 15  1  0  0  0  0
 14  3  1  0  0  0  0
 16 17  1  0  0  0  0
 17  2  1  0  0  0  0
 17  9  1  0  0  0  0
 18  8  1  0  0  0  0
 18 14  2  0  0  0  0
 19 13  2  0  0  0  0
 20 11  1  6  0  0  0
 20 10  1  0  0  0  0
 21  1  1  0  0  0  0
 22 24  1  0  0  0  0
 22 21  1  0  0  0  0
 23 28  1  0  0  0  0
 25 22  2  0  0  0  0
 26 23  2  0  0  0  0
 26 25  1  0  0  0  0
 27 23  1  0  0  0  0
 28 24  2  0  0  0  0
M  END
>  <MODEL>
8

>  <REMARK>
 VINA RESULT:      -7.8      2.961      4.772
  Name = 
  2 active torsions:
  status: ('A' for Active; 'I' for Inactive)
    1  A    between atoms: N_1  and  C_2
    2  A    between atoms: C_2  and  C_3
                            x       y       z     vdW  Elec       q    Type
                         _______ _______ _______ _____ _____    ______ ____

>  <TORSDO>
F 2

$$$$
=
 OpenBabel10272401573D

 28 33  0  0  1  0  0  0  0  0999 V2000
  188.1180  178.4780  140.1980 N   0  0  0  0  0  0  0  0  0  0  0  0
  183.2660  178.7120  142.0180 S   0  0  0  0  0  0  0  0  0  0  0  0
  185.4150  176.1820  137.1520 C   0  0  0  0  0  1  0  0  0  0  0  0
  181.9820  178.3850  139.6790 C   0  0  1  0  0  3  0  0  0  0  0  0
  184.4580  178.5070  139.4820 C   0  0  0  0  0  0  0  0  0  0  0  0
  180.7840  179.6820  143.0080 C   0  0  0  0  0  2  0  0  0  0  0  0
  183.2500  179.0080  140.2240 C   0  0  2  0  0  3  0  0  0  0  0  0
  183.0200  178.1550  137.4440 C   0  0  0  0  0  2  0  0  0  0  0  0
  180.8500  178.8680  140.5560 C   0  0  0  0  0  2  0  0  0  0  0  0
  186.8580  177.9560  138.0950 C   0  0  0  0  0  0  0  0  0  0  0  0
  185.7390  178.5760  140.1300 N   0  0  0  0  0  0  0  0  0  0  0  0
  181.8570  178.7840  138.2250 C   0  0  0  0  0  2  0  0  0  0  0  0
  189.3100  178.0090  138.1580 C   0  0  0  0  0  3  0  0  0  0  0  0
  185.5570  177.6780  137.3960 C   0  0  2  0  0  3  0  0  0  0  0  0
  188.0240  177.8090  137.4560 C   0  0  0  0  0  3  0  0  0  0  0  0
  180.6770  178.1580  143.0260 C   0  0  0  0  0  2  0  0  0  0  0  0
  181.4580  178.8580  141.9410 C   0  0  0  0  0  0  0  0  0  0  0  0
  184.3600  178.1840  138.1650 C   0  0  0  0  0  0  0  0  0  0  0  0
  189.3380  178.3200  139.4590 C   0  0  0  0  0  3  0  0  0  0  0  0
  186.8590  178.3310  139.5200 C   0  0  0  0  0  0  0  0  0  0  0  0
  188.1880  178.7760  141.6230 C   0  0  0  0  0  2  0  0  0  0  0  0
  189.1930  177.8970  142.2890 C   0  0  0  0  0  0  0  0  0  0  0  0
  191.0520  176.2580  143.5870 C   0  0  0  0  0  0  0  0  0  0  0  0
  189.0110  176.5100  142.3080 C   0  0  0  0  0  3  0  0  0  0  0  0
  190.3030  178.4640  142.9270 C   0  0  0  0  0  3  0  0  0  0  0  0
  191.2320  177.6450  143.5730 C   0  0  0  0  0  3  0  0  0  0  0  0
  191.9760  175.4440  144.2280 O   0  0  0  0  0  1  0  0  0  0  0  0
  189.9420  175.6910  142.9550 C   0  0  0  0  0  3  0  0  0  0  0  0
  1 21  1  0  0  0  0
  4 12  1  6  0  0  0
  4  7  1  0  0  0  0
  4  9  1  0  0  0  0
  5 11  1  0  0  0  0
  6 16  1  0  0  0  0
  7  5  1  6  0  0  0
  7  2  1  0  0  0  0
  8 18  1  0  0  0  0
  8 12  1  0  0  0  0
  9 17  1  0  0  0  0
 10 20  1  0  0  0  0
 13 19  2  0  0  0  0
 14  3  1  1  0  0  0
 14 10  1  0  0  0  0
 14 18  1  0  0  0  0
 15 10  2  0  0  0  0
 15 13  1  0  0  0  0
 17  2  1  0  0  0  0
 17  6  1  0  0  0  0
 17 16  1  0  0  0  0
 18  5  2  0  0  0  0
 19  1  1  0  0  0  0
 20 11  2  0  0  0  0
 20  1  1  0  0  0  0
 21 22  1  0  0  0  0
 22 24  2  0  0  0  0
 22 25  1  0  0  0  0
 23 27  1  0  0  0  0
 24 28  1  0  0  0  0
 25 26  2  0  0  0  0
 26 23  1  0  0  0  0
 28 23  2  0  0  0  0
M  END
>  <MODEL>
9

>  <REMARK>
 VINA RESULT:      -7.7      3.453      6.138
  Name = 
  2 active torsions:
  status: ('A' for Active; 'I' for Inactive)
    1  A    between atoms: N_1  and  C_2
    2  A    between atoms: C_2  and  C_3
                            x       y       z     vdW  Elec       q    Type
                         _______ _______ _______ _____ _____    ______ ____

>  <TORSDO>
F 2

$$$$
