=
 OpenBabel10272400133D

 31 34  0  0  1  0  0  0  0  0999 V2000
  191.3890  176.5470  146.2940 C   0  0  0  0  0  0  0  0  0  0  0  0
  188.1610  177.4930  144.5830 C   0  0  0  0  0  0  0  0  0  0  0  0
  187.1210  177.8470  145.5400 C   0  0  2  0  0  3  0  0  0  0  0  0
  186.6700  179.1040  147.6180 C   0  0  0  0  0  3  0  0  0  0  0  0
  189.6050  177.3170  144.8580 C   0  0  0  0  0  0  0  0  0  0  0  0
  192.3030  176.9450  145.3690 N   0  0  0  0  0  0  0  0  0  0  0  0
  187.2780  177.8800  147.0210 C   0  0  0  0  0  2  0  0  0  0  0  0
  189.4420  177.6650  141.6470 C   0  0  1  0  0  3  0  0  0  0  0  0
  191.9250  175.8270  147.7980 Cl  0  0  0  0  0  0  0  0  0  0  0  0
  186.1270  177.5670  143.4580 C   0  0  0  0  0  3  0  0  0  0  0  0
  185.3940  179.4670  147.4580 C   0  0  0  0  0  3  0  0  0  0  0  0
  190.1870  178.5030  142.6940 C   0  0  0  0  0  2  0  0  0  0  0  0
  187.5990  177.3410  143.3890 C   0  0  0  0  0  0  0  0  0  0  0  0
  190.0250  176.7240  146.0530 C   0  0  0  0  0  3  0  0  0  0  0  0
  184.4350  178.7950  146.6250 N   0  0  0  0  0  0  0  0  0  0  0  0
  190.5720  177.7310  143.9200 C   0  0  0  0  0  0  0  0  0  0  0  0
  191.9240  177.5320  144.2010 C   0  0  0  0  0  3  0  0  0  0  0  0
  188.3090  176.7850  142.1890 C   0  0  0  0  0  2  0  0  0  0  0  0
  185.9580  177.8980  144.9060 C   0  0  0  0  0  0  0  0  0  0  0  0
  184.6420  178.1260  145.5250 C   0  0  0  0  0  3  0  0  0  0  0  0
  188.9110  178.5730  140.5500 C   0  0  0  0  0  2  0  0  0  0  0  0
  186.9660  178.3710  138.5280 O   0  0  0  0  0  0  0  0  0  0  0  0
  190.4100  177.5910  138.9080 O   0  0  0  0  0  1  0  0  0  0  0  0
  189.1560  177.9820  139.2400 N   0  0  0  0  0  0  0  0  0  0  0  0
  188.0990  177.8730  138.2820 C   0  0  0  0  0  0  0  0  0  0  0  0
  187.4770  177.6890  136.0080 O   0  0  0  0  0  1  0  0  0  0  0  0
  188.3400  177.1740  136.9750 C   0  0  2  0  0  3  0  0  0  0  0  0
  188.1250  175.6670  137.0980 C   0  0  0  0  0  2  0  0  0  0  0  0
  189.3700  174.9030  136.7710 C   0  0  0  0  0  0  0  0  0  0  0  0
  189.7060  174.6130  135.3500 C   0  0  0  0  0  1  0  0  0  0  0  0
  190.1070  174.5100  137.6630 O   0  0  0  0  0  0  0  0  0  0  0  0
  1  9  1  0  0  0  0
  2  5  1  0  0  0  0
  2  3  1  0  0  0  0
  3  7  1  1  0  0  0
  5 14  2  0  0  0  0
  6  1  2  0  0  0  0
  7  4  1  0  0  0  0
  8 21  1  6  0  0  0
  8 18  1  0  0  0  0
  8 12  1  0  0  0  0
 10 19  2  0  0  0  0
 11  4  2  0  0  0  0
 12 16  1  0  0  0  0
 13 10  1  0  0  0  0
 13  2  2  0  0  0  0
 14  1  1  0  0  0  0
 15 11  1  0  0  0  0
 16 17  2  0  0  0  0
 16  5  1  0  0  0  0
 17  6  1  0  0  0  0
 18 13  1  0  0  0  0
 19 20  1  0  0  0  0
 19  3  1  0  0  0  0
 20 15  2  0  0  0  0
 23 24  1  0  0  0  0
 24 21  1  0  0  0  0
 25 22  2  0  0  0  0
 25 24  1  0  0  0  0
 27 26  1  6  0  0  0
 27 28  1  0  0  0  0
 27 25  1  0  0  0  0
 29 28  1  0  0  0  0
 29 31  2  0  0  0  0
 30 29  1  0  0  0  0
M  END
>  <MODEL>
1

>  <REMARK>
 VINA RESULT:      -7.8      0.000      0.000
  Name = 
  5 active torsions:
  status: ('A' for Active; 'I' for Inactive)
    1  A    between atoms: C_1  and  C_24
    2  A    between atoms: N_9  and  C_23
    3  A    between atoms: C_15  and  C_23
    4  A    between atoms: C_19  and  C_22
    5  A    between atoms: C_19  and  C_24
                            x       y       z     vdW  Elec       q    Type
                         _______ _______ _______ _____ _____    ______ ____

>  <TORSDO>
F 5

$$$$
=
 OpenBabel10272400133D

 31 34  0  0  1  0  0  0  0  0999 V2000
  185.4040  179.1000  146.0330 C   0  0  0  0  0  0  0  0  0  0  0  0
  186.6680  178.2740  142.5730 C   0  0  0  0  0  0  0  0  0  0  0  0
  187.9940  177.6720  142.6070 C   0  0  2  0  0  3  0  0  0  0  0  0
  189.3990  176.0130  143.7800 C   0  0  0  0  0  3  0  0  0  0  0  0
  185.7570  178.4950  143.7190 C   0  0  0  0  0  0  0  0  0  0  0  0
  184.0630  178.9520  145.8640 N   0  0  0  0  0  0  0  0  0  0  0  0
  188.7780  177.3670  143.8370 C   0  0  0  0  0  2  0  0  0  0  0  0
  183.8460  178.7560  141.1240 C   0  0  1  0  0  3  0  0  0  0  0  0
  186.0430  179.5560  147.5980 Cl  0  0  0  0  0  0  0  0  0  0  0  0
  187.5250  178.2740  140.4120 C   0  0  0  0  0  3  0  0  0  0  0  0
  190.2170  175.5990  142.8090 C   0  0  0  0  0  3  0  0  0  0  0  0
  183.7700  177.7880  142.3120 C   0  0  0  0  0  2  0  0  0  0  0  0
  186.3910  178.6110  141.3190 C   0  0  0  0  0  0  0  0  0  0  0  0
  186.2730  178.8770  144.9620 C   0  0  0  0  0  3  0  0  0  0  0  0
  190.5600  176.3480  141.6310 N   0  0  0  0  0  0  0  0  0  0  0  0
  184.3640  178.3370  143.5740 C   0  0  0  0  0  0  0  0  0  0  0  0
  183.5330  178.5740  144.6690 C   0  0  0  0  0  3  0  0  0  0  0  0
  185.2050  179.4350  140.9090 C   0  0  0  0  0  2  0  0  0  0  0  0
  188.4880  177.6610  141.3770 C   0  0  0  0  0  0  0  0  0  0  0  0
  189.8410  177.2270  140.9910 C   0  0  0  0  0  3  0  0  0  0  0  0
  183.4210  178.0390  139.8530 C   0  0  0  0  0  2  0  0  0  0  0  0
  184.3650  176.2410  137.9080 O   0  0  0  0  0  0  0  0  0  0  0  0
  184.5860  179.7270  138.5490 O   0  0  0  0  0  1  0  0  0  0  0  0
  184.2850  178.4200  138.7430 N   0  0  0  0  0  0  0  0  0  0  0  0
  184.7630  177.4350  137.8210 C   0  0  0  0  0  0  0  0  0  0  0  0
  185.2460  177.3940  135.5070 O   0  0  0  0  0  1  0  0  0  0  0  0
  185.7310  177.8240  136.7420 C   0  0  2  0  0  3  0  0  0  0  0  0
  187.1130  177.2200  136.9840 C   0  0  0  0  0  2  0  0  0  0  0  0
  188.1760  178.2730  137.0230 C   0  0  0  0  0  0  0  0  0  0  0  0
  189.5940  177.8830  137.2620 C   0  0  0  0  0  1  0  0  0  0  0  0
  187.8870  179.4500  136.8690 O   0  0  0  0  0  0  0  0  0  0  0  0
  1  9  1  0  0  0  0
  2  3  1  0  0  0  0
  2  5  1  0  0  0  0
  3  7  1  1  0  0  0
  4  7  1  0  0  0  0
  5 14  1  0  0  0  0
  6  1  1  0  0  0  0
  8 21  1  6  0  0  0
  8 12  1  0  0  0  0
 10 13  1  0  0  0  0
 10 19  2  0  0  0  0
 11  4  2  0  0  0  0
 12 16  1  0  0  0  0
 13  2  2  0  0  0  0
 14  1  2  0  0  0  0
 15 11  1  0  0  0  0
 16  5  2  0  0  0  0
 16 17  1  0  0  0  0
 17  6  2  0  0  0  0
 18  8  1  0  0  0  0
 18 13  1  0  0  0  0
 19  3  1  0  0  0  0
 20 19  1  0  0  0  0
 20 15  2  0  0  0  0
 23 24  1  0  0  0  0
 24 21  1  0  0  0  0
 25 22  2  0  0  0  0
 25 24  1  0  0  0  0
 27 26  1  6  0  0  0
 27 28  1  0  0  0  0
 27 25  1  0  0  0  0
 28 29  1  0  0  0  0
 29 30  1  0  0  0  0
 31 29  2  0  0  0  0
M  END
>  <MODEL>
2

>  <REMARK>
 VINA RESULT:      -7.3      2.653      5.297
  Name = 
  5 active torsions:
  status: ('A' for Active; 'I' for Inactive)
    1  A    between atoms: C_1  and  C_24
    2  A    between atoms: N_9  and  C_23
    3  A    between atoms: C_15  and  C_23
    4  A    between atoms: C_19  and  C_22
    5  A    between atoms: C_19  and  C_24
                            x       y       z     vdW  Elec       q    Type
                         _______ _______ _______ _____ _____    ______ ____

>  <TORSDO>
F 5

$$$$
=
 OpenBabel10272400133D

 31 34  0  0  1  0  0  0  0  0999 V2000
  193.0660  176.5140  137.2830 C   0  0  0  0  0  0  0  0  0  0  0  0
  189.3280  176.4160  137.7990 C   0  0  0  0  0  0  0  0  0  0  0  0
  188.6720  175.5140  136.8620 C   0  0  0  0  0  0  0  0  0  0  0  0
  188.8280  173.2900  135.7970 C   0  0  0  0  0  3  0  0  0  0  0  0
  190.7800  176.5240  138.0680 C   0  0  0  0  0  0  0  0  0  0  0  0
  193.4990  176.7640  138.5480 N   0  0  0  0  0  0  0  0  0  0  0  0
  189.3570  174.6840  135.8320 C   0  0  0  0  0  2  0  0  0  0  0  0
  189.3920  177.9880  140.5950 C   0  0  1  0  0  3  0  0  0  0  0  0
  194.2250  176.3290  135.9830 Cl  0  0  0  0  0  0  0  0  0  0  0  0
  187.0390  176.8140  137.8820 C   0  0  0  0  0  3  0  0  0  0  0  0
  187.5430  172.9770  135.6090 C   0  0  0  0  0  3  0  0  0  0  0  0
  190.3290  176.7740  140.5500 C   0  0  0  0  0  2  0  0  0  0  0  0
  188.3980  177.1550  138.3930 C   0  0  2  0  0  3  0  0  0  0  0  0
  191.7000  176.3930  137.0220 C   0  0  0  0  0  3  0  0  0  0  0  0
  186.4630  173.9190  135.4980 N   0  0  0  0  0  0  0  0  0  0  0  0
  191.2550  176.7720  139.3720 C   0  0  0  0  0  0  0  0  0  0  0  0
  192.6290  176.8890  139.5870 C   0  0  0  0  0  3  0  0  0  0  0  0
  188.6930  178.3330  139.2740 C   0  0  0  0  0  2  0  0  0  0  0  0
  187.3650  175.7290  136.9070 C   0  0  0  0  0  0  0  0  0  0  0  0
  186.3520  175.0950  136.0470 C   0  0  0  0  0  3  0  0  0  0  0  0
  188.3580  177.7950  141.6920 C   0  0  0  0  0  2  0  0  0  0  0  0
  187.5260  176.4750  144.0320 O   0  0  0  0  0  0  0  0  0  0  0  0
  190.0610  178.7870  143.1150 O   0  0  0  0  0  1  0  0  0  0  0  0
  188.9640  177.9990  143.0020 N   0  0  0  0  0  0  0  0  0  0  0  0
  188.4510  177.3250  144.1550 C   0  0  0  0  0  0  0  0  0  0  0  0
  190.3030  177.0830  145.6050 O   0  0  0  0  0  1  0  0  0  0  0  0
  189.0190  177.6200  145.5130 C   0  0  2  0  0  3  0  0  0  0  0  0
  188.1450  177.0430  146.6240 C   0  0  0  0  0  2  0  0  0  0  0  0
  187.3610  178.1110  147.3210 C   0  0  0  0  0  0  0  0  0  0  0  0
  186.0880  178.6010  146.7240 C   0  0  0  0  0  1  0  0  0  0  0  0
  187.7640  178.5880  148.3700 O   0  0  0  0  0  0  0  0  0  0  0  0
  1  6  1  0  0  0  0
  2  5  1  0  0  0  0
  2 13  1  0  0  0  0
  3 19  1  0  0  0  0
  3  2  2  0  0  0  0
  4  7  1  0  0  0  0
  5 16  2  0  0  0  0
  6 17  2  0  0  0  0
  7  3  1  0  0  0  0
  8 21  1  1  0  0  0
  9  1  1  0  0  0  0
 11  4  2  0  0  0  0
 12  8  1  0  0  0  0
 13 10  1  6  0  0  0
 13 18  1  0  0  0  0
 14  1  2  0  0  0  0
 14  5  1  0  0  0  0
 15 11  1  0  0  0  0
 15 20  2  0  0  0  0
 16 17  1  0  0  0  0
 16 12  1  0  0  0  0
 18  8  1  0  0  0  0
 19 10  2  0  0  0  0
 20 19  1  0  0  0  0
 21 24  1  0  0  0  0
 22 25  2  0  0  0  0
 24 23  1  0  0  0  0
 24 25  1  0  0  0  0
 25 27  1  0  0  0  0
 27 26  1  6  0  0  0
 27 28  1  0  0  0  0
 28 29  1  0  0  0  0
 29 31  2  0  0  0  0
 30 29  1  0  0  0  0
M  END
>  <MODEL>
3

>  <REMARK>
 VINA RESULT:      -7.2      4.018      8.586
  Name = 
  5 active torsions:
  status: ('A' for Active; 'I' for Inactive)
    1  A    between atoms: C_1  and  C_24
    2  A    between atoms: N_9  and  C_23
    3  A    between atoms: C_15  and  C_23
    4  A    between atoms: C_19  and  C_22
    5  A    between atoms: C_19  and  C_24
                            x       y       z     vdW  Elec       q    Type
                         _______ _______ _______ _____ _____    ______ ____

>  <TORSDO>
F 5

$$$$
=
 OpenBabel10272400133D

 31 34  0  0  1  0  0  0  0  0999 V2000
  185.3620  179.1800  145.9450 C   0  0  0  0  0  0  0  0  0  0  0  0
  186.5750  178.3910  142.4590 C   0  0  0  0  0  0  0  0  0  0  0  0
  187.9100  177.8080  142.4660 C   0  0  2  0  0  3  0  0  0  0  0  0
  189.3610  176.1630  143.6050 C   0  0  0  0  0  3  0  0  0  0  0  0
  185.6830  178.5920  143.6230 C   0  0  0  0  0  0  0  0  0  0  0  0
  184.0200  179.0120  145.8000 N   0  0  0  0  0  0  0  0  0  0  0  0
  188.7220  177.5080  143.6800 C   0  0  0  0  0  2  0  0  0  0  0  0
  183.7210  178.8380  141.0640 C   0  0  1  0  0  3  0  0  0  0  0  0
  186.0220  179.6370  147.5020 Cl  0  0  0  0  0  0  0  0  0  0  0  0
  187.3940  178.4130  140.2830 C   0  0  0  0  0  3  0  0  0  0  0  0
  190.1670  175.7660  142.6180 C   0  0  0  0  0  3  0  0  0  0  0  0
  183.6810  177.8630  142.2470 C   0  0  0  0  0  2  0  0  0  0  0  0
  186.2710  178.7300  141.2120 C   0  0  0  0  0  0  0  0  0  0  0  0
  186.2150  178.9750  144.8590 C   0  0  0  0  0  3  0  0  0  0  0  0
  190.4780  176.5270  141.4380 N   0  0  0  0  0  0  0  0  0  0  0  0
  184.2900  178.4140  143.5020 C   0  0  0  0  0  0  0  0  0  0  0  0
  183.4740  178.6320  144.6130 C   0  0  0  0  0  3  0  0  0  0  0  0
  185.0660  179.5380  140.8290 C   0  0  0  0  0  2  0  0  0  0  0  0
  188.3830  177.8100  141.2280 C   0  0  0  0  0  0  0  0  0  0  0  0
  189.7350  177.3980  140.8150 C   0  0  0  0  0  3  0  0  0  0  0  0
  183.2840  178.1210  139.7970 C   0  0  0  0  0  2  0  0  0  0  0  0
  182.6400  178.2230  137.0610 O   0  0  0  0  0  0  0  0  0  0  0  0
  181.1200  179.1790  140.1250 O   0  0  0  0  0  1  0  0  0  0  0  0
  182.0660  178.7240  139.2680 N   0  0  0  0  0  0  0  0  0  0  0  0
  181.8340  178.7790  137.8580 C   0  0  0  0  0  0  0  0  0  0  0  0
  179.9840  178.6750  136.3880 O   0  0  0  0  0  1  0  0  0  0  0  0
  180.6250  179.4900  137.3220 C   0  0  2  0  0  3  0  0  0  0  0  0
  181.0000  180.8170  136.6670 C   0  0  0  0  0  2  0  0  0  0  0  0
  180.6840  181.9800  137.5560 C   0  0  0  0  0  0  0  0  0  0  0  0
  180.9220  183.3670  137.0700 C   0  0  0  0  0  1  0  0  0  0  0  0
  180.2400  181.7970  138.6790 O   0  0  0  0  0  0  0  0  0  0  0  0
  1  9  1  0  0  0  0
  2  3  1  0  0  0  0
  2  5  1  0  0  0  0
  3  7  1  1  0  0  0
  4  7  1  0  0  0  0
  5 14  1  0  0  0  0
  6  1  1  0  0  0  0
  8 21  1  6  0  0  0
  8 12  1  0  0  0  0
 10 13  1  0  0  0  0
 10 19  2  0  0  0  0
 11  4  2  0  0  0  0
 12 16  1  0  0  0  0
 13  2  2  0  0  0  0
 14  1  2  0  0  0  0
 15 11  1  0  0  0  0
 16  5  2  0  0  0  0
 16 17  1  0  0  0  0
 17  6  2  0  0  0  0
 18  8  1  0  0  0  0
 18 13  1  0  0  0  0
 19  3  1  0  0  0  0
 20 19  1  0  0  0  0
 20 15  2  0  0  0  0
 22 25  2  0  0  0  0
 24 21  1  0  0  0  0
 24 23  1  0  0  0  0
 25 24  1  0  0  0  0
 27 26  1  6  0  0  0
 27 25  1  0  0  0  0
 28 27  1  0  0  0  0
 28 29  1  0  0  0  0
 29 31  2  0  0  0  0
 30 29  1  0  0  0  0
M  END
>  <MODEL>
4

>  <REMARK>
 VINA RESULT:      -7.2      4.695      7.106
  Name = 
  5 active torsions:
  status: ('A' for Active; 'I' for Inactive)
    1  A    between atoms: C_1  and  C_24
    2  A    between atoms: N_9  and  C_23
    3  A    between atoms: C_15  and  C_23
    4  A    between atoms: C_19  and  C_22
    5  A    between atoms: C_19  and  C_24
                            x       y       z     vdW  Elec       q    Type
                         _______ _______ _______ _____ _____    ______ ____

>  <TORSDO>
F 5

$$$$
=
 OpenBabel10272400133D

 31 34  0  0  1  0  0  0  0  0999 V2000
  191.5110  176.3100  145.6210 C   0  0  0  0  0  0  0  0  0  0  0  0
  188.1140  177.5290  144.5160 C   0  0  0  0  0  0  0  0  0  0  0  0
  187.2520  177.8400  145.6480 C   0  0  2  0  0  3  0  0  0  0  0  0
  187.1900  178.9280  147.8660 C   0  0  0  0  0  3  0  0  0  0  0  0
  189.5710  177.2730  144.5470 C   0  0  0  0  0  0  0  0  0  0  0  0
  192.2920  176.7500  144.5980 N   0  0  0  0  0  0  0  0  0  0  0  0
  187.6340  177.7380  147.0850 C   0  0  0  0  0  2  0  0  0  0  0  0
  188.9400  177.9050  141.4390 C   0  0  1  0  0  3  0  0  0  0  0  0
  192.2310  175.4410  146.9590 Cl  0  0  0  0  0  0  0  0  0  0  0  0
  185.9400  177.7830  143.7320 C   0  0  0  0  0  3  0  0  0  0  0  0
  185.9260  179.3540  147.9360 C   0  0  0  0  0  3  0  0  0  0  0  0
  189.8800  178.6180  142.4200 C   0  0  0  0  0  2  0  0  0  0  0  0
  187.3700  177.5050  143.4160 C   0  0  0  0  0  0  0  0  0  0  0  0
  190.1370  176.5620  145.6100 C   0  0  0  0  0  3  0  0  0  0  0  0
  184.8160  178.7960  147.2120 N   0  0  0  0  0  0  0  0  0  0  0  0
  190.4050  177.7280  143.5050 C   0  0  0  0  0  0  0  0  0  0  0  0
  191.7720  177.4510  143.5550 C   0  0  0  0  0  3  0  0  0  0  0  0
  187.8580  177.0270  142.0790 C   0  0  0  0  0  2  0  0  0  0  0  0
  186.0100  177.9930  145.2100 C   0  0  0  0  0  0  0  0  0  0  0  0
  184.8180  178.2190  146.0440 C   0  0  0  0  0  3  0  0  0  0  0  0
  188.2970  178.9260  140.5150 C   0  0  0  0  0  2  0  0  0  0  0  0
  185.5970  179.5760  140.9600 O   0  0  0  0  0  0  0  0  0  0  0  0
  187.4360  177.4730  138.7670 O   0  0  0  0  0  1  0  0  0  0  0  0
  187.1840  178.3240  139.7910 N   0  0  0  0  0  0  0  0  0  0  0  0
  185.8340  178.6730  140.1100 C   0  0  0  0  0  0  0  0  0  0  0  0
  184.2760  178.7290  138.3310 O   0  0  0  0  0  1  0  0  0  0  0  0
  184.6950  177.9740  139.4270 C   0  0  2  0  0  3  0  0  0  0  0  0
  183.5180  177.7590  140.3760 C   0  0  0  0  0  2  0  0  0  0  0  0
  182.4550  176.9090  139.7530 C   0  0  0  0  0  0  0  0  0  0  0  0
  181.0780  177.4520  139.5900 C   0  0  0  0  0  1  0  0  0  0  0  0
  182.7080  175.7720  139.3860 O   0  0  0  0  0  0  0  0  0  0  0  0
  1  9  1  0  0  0  0
  2  5  1  0  0  0  0
  2  3  1  0  0  0  0
  3  7  1  1  0  0  0
  4 11  2  0  0  0  0
  5 14  2  0  0  0  0
  6  1  2  0  0  0  0
  7  4  1  0  0  0  0
  8 21  1  1  0  0  0
  8 18  1  0  0  0  0
  8 12  1  0  0  0  0
 10 19  2  0  0  0  0
 12 16  1  0  0  0  0
 13 10  1  0  0  0  0
 13  2  2  0  0  0  0
 14  1  1  0  0  0  0
 15 11  1  0  0  0  0
 16 17  2  0  0  0  0
 16  5  1  0  0  0  0
 17  6  1  0  0  0  0
 18 13  1  0  0  0  0
 19  3  1  0  0  0  0
 19 20  1  0  0  0  0
 20 15  2  0  0  0  0
 23 24  1  0  0  0  0
 24 25  1  0  0  0  0
 24 21  1  0  0  0  0
 25 22  2  0  0  0  0
 27 26  1  6  0  0  0
 27 25  1  0  0  0  0
 27 28  1  0  0  0  0
 29 28  1  0  0  0  0
 30 29  1  0  0  0  0
 31 29  2  0  0  0  0
M  END
>  <MODEL>
5

>  <REMARK>
 VINA RESULT:      -7.1      2.328      3.271
  Name = 
  5 active torsions:
  status: ('A' for Active; 'I' for Inactive)
    1  A    between atoms: C_1  and  C_24
    2  A    between atoms: N_9  and  C_23
    3  A    between atoms: C_15  and  C_23
    4  A    between atoms: C_19  and  C_22
    5  A    between atoms: C_19  and  C_24
                            x       y       z     vdW  Elec       q    Type
                         _______ _______ _______ _____ _____    ______ ____

>  <TORSDO>
F 5

$$$$
=
 OpenBabel10272400133D

 31 34  0  0  1  0  0  0  0  0999 V2000
  187.5840  178.4040  139.5810 C   0  0  0  0  0  0  0  0  0  0  0  0
  184.3490  178.3870  141.5250 C   0  0  0  0  0  0  0  0  0  0  0  0
  183.2440  177.8560  140.7380 C   0  0  0  0  0  0  0  0  0  0  0  0
  182.5950  176.0570  139.1730 C   0  0  0  0  0  3  0  0  0  0  0  0
  185.7910  178.3170  141.1990 C   0  0  0  0  0  0  0  0  0  0  0  0
  188.4910  178.2290  140.5790 N   0  0  0  0  0  0  0  0  0  0  0  0
  183.3400  177.3380  139.3440 C   0  0  0  0  0  2  0  0  0  0  0  0
  185.7210  179.0240  144.3530 C   0  0  1  0  0  3  0  0  0  0  0  0
  188.1280  178.5520  137.9220 Cl  0  0  0  0  0  0  0  0  0  0  0  0
  182.3630  178.8820  142.6270 C   0  0  0  0  0  3  0  0  0  0  0  0
  181.2980  175.8970  139.4480 C   0  0  0  0  0  3  0  0  0  0  0  0
  186.3420  177.8260  143.6250 C   0  0  0  0  0  2  0  0  0  0  0  0
  183.8510  178.9660  142.6110 C   0  0  2  0  0  3  0  0  0  0  0  0
  186.2200  178.4540  139.8750 C   0  0  0  0  0  3  0  0  0  0  0  0
  180.4400  176.8930  140.0290 N   0  0  0  0  0  0  0  0  0  0  0  0
  186.7500  178.1250  142.2140 C   0  0  0  0  0  0  0  0  0  0  0  0
  188.1040  178.0860  141.8760 C   0  0  0  0  0  3  0  0  0  0  0  0
  184.6560  179.7990  143.5660 C   0  0  0  0  0  2  0  0  0  0  0  0
  182.1060  178.1270  141.3620 C   0  0  0  0  0  0  0  0  0  0  0  0
  180.7520  177.8510  140.8560 C   0  0  0  0  0  3  0  0  0  0  0  0
  185.1480  178.5710  145.6860 C   0  0  0  0  0  2  0  0  0  0  0  0
  186.5210  179.6180  147.9070 O   0  0  0  0  0  0  0  0  0  0  0  0
  186.3880  176.5330  146.1530 O   0  0  0  0  0  1  0  0  0  0  0  0
  186.1520  177.8340  146.4450 N   0  0  0  0  0  0  0  0  0  0  0  0
  186.8420  178.4560  147.5340 C   0  0  0  0  0  0  0  0  0  0  0  0
  187.8410  177.9450  149.6160 O   0  0  0  0  0  1  0  0  0  0  0  0
  187.9430  177.7210  148.2430 C   0  0  2  0  0  3  0  0  0  0  0  0
  189.3190  178.1680  147.7560 C   0  0  0  0  0  2  0  0  0  0  0  0
  189.9320  177.1610  146.8330 C   0  0  0  0  0  0  0  0  0  0  0  0
  189.6740  177.2480  145.3690 C   0  0  0  0  0  1  0  0  0  0  0  0
  190.6340  176.2650  147.2740 O   0  0  0  0  0  0  0  0  0  0  0  0
  1 14  2  0  0  0  0
  1  6  1  0  0  0  0
  2 13  1  0  0  0  0
  3 19  1  0  0  0  0
  3  2  2  0  0  0  0
  4  7  1  0  0  0  0
  4 11  2  0  0  0  0
  5  2  1  0  0  0  0
  5 16  2  0  0  0  0
  6 17  2  0  0  0  0
  7  3  1  0  0  0  0
  8 21  1  1  0  0  0
  9  1  1  0  0  0  0
 11 15  1  0  0  0  0
 12  8  1  0  0  0  0
 13 10  1  6  0  0  0
 13 18  1  0  0  0  0
 14  5  1  0  0  0  0
 15 20  2  0  0  0  0
 16 12  1  0  0  0  0
 17 16  1  0  0  0  0
 18  8  1  0  0  0  0
 19 10  2  0  0  0  0
 20 19  1  0  0  0  0
 21 24  1  0  0  0  0
 23 24  1  0  0  0  0
 24 25  1  0  0  0  0
 25 22  2  0  0  0  0
 25 27  1  0  0  0  0
 27 26  1  1  0  0  0
 28 27  1  0  0  0  0
 29 31  2  0  0  0  0
 29 28  1  0  0  0  0
 30 29  1  0  0  0  0
M  END
>  <MODEL>
6

>  <REMARK>
 VINA RESULT:      -7.1      4.985      8.011
  Name = 
  5 active torsions:
  status: ('A' for Active; 'I' for Inactive)
    1  A    between atoms: C_1  and  C_24
    2  A    between atoms: N_9  and  C_23
    3  A    between atoms: C_15  and  C_23
    4  A    between atoms: C_19  and  C_22
    5  A    between atoms: C_19  and  C_24
                            x       y       z     vdW  Elec       q    Type
                         _______ _______ _______ _____ _____    ______ ____

>  <TORSDO>
F 5

$$$$
=
 OpenBabel10272400133D

 31 34  0  0  1  0  0  0  0  0999 V2000
  191.4640  176.5390  146.1930 C   0  0  0  0  0  0  0  0  0  0  0  0
  188.1980  177.5170  144.5720 C   0  0  0  0  0  0  0  0  0  0  0  0
  187.1810  177.8560  145.5570 C   0  0  2  0  0  3  0  0  0  0  0  0
  186.7800  179.0790  147.6660 C   0  0  0  0  0  3  0  0  0  0  0  0
  189.6480  177.3350  144.8100 C   0  0  0  0  0  0  0  0  0  0  0  0
  192.3570  176.9500  145.2530 N   0  0  0  0  0  0  0  0  0  0  0  0
  187.3720  177.8650  147.0360 C   0  0  0  0  0  2  0  0  0  0  0  0
  189.4130  177.7360  141.6100 C   0  0  1  0  0  3  0  0  0  0  0  0
  192.0330  175.7920  147.6710 Cl  0  0  0  0  0  0  0  0  0  0  0  0
  186.1400  177.6130  143.4950 C   0  0  0  0  0  3  0  0  0  0  0  0
  185.5020  179.4460  147.5420 C   0  0  0  0  0  3  0  0  0  0  0  0
  190.1830  178.5550  142.6530 C   0  0  0  0  0  2  0  0  0  0  0  0
  187.6100  177.3860  143.3890 C   0  0  0  0  0  0  0  0  0  0  0  0
  190.0950  176.7220  145.9860 C   0  0  0  0  0  3  0  0  0  0  0  0
  184.5220  178.7900  146.7190 N   0  0  0  0  0  0  0  0  0  0  0  0
  190.5940  177.7630  143.8570 C   0  0  0  0  0  0  0  0  0  0  0  0
  191.9520  177.5570  144.1040 C   0  0  0  0  0  3  0  0  0  0  0  0
  188.2910  176.8480  142.1640 C   0  0  0  0  0  2  0  0  0  0  0  0
  186.0040  177.9200  144.9510 C   0  0  0  0  0  0  0  0  0  0  0  0
  184.7030  178.1390  145.6040 C   0  0  0  0  0  3  0  0  0  0  0  0
  188.8580  178.6630  140.5410 C   0  0  0  0  0  2  0  0  0  0  0  0
  190.8340  177.3820  139.0030 O   0  0  0  0  0  0  0  0  0  0  0  0
  187.3000  177.7280  138.9270 O   0  0  0  0  0  1  0  0  0  0  0  0
  188.5830  177.9190  139.3180 N   0  0  0  0  0  0  0  0  0  0  0  0
  189.6510  177.3360  138.5650 C   0  0  0  0  0  0  0  0  0  0  0  0
  190.4480  175.8530  136.9030 O   0  0  0  0  0  1  0  0  0  0  0  0
  189.3650  176.6590  137.2560 C   0  0  2  0  0  3  0  0  0  0  0  0
  189.1020  177.6730  136.1450 C   0  0  0  0  0  2  0  0  0  0  0  0
  187.7640  177.4600  135.5080 C   0  0  0  0  0  0  0  0  0  0  0  0
  187.2380  176.0770  135.3410 C   0  0  0  0  0  1  0  0  0  0  0  0
  187.1070  178.4120  135.1180 O   0  0  0  0  0  0  0  0  0  0  0  0
  1  9  1  0  0  0  0
  2  5  1  0  0  0  0
  2  3  1  0  0  0  0
  3  7  1  1  0  0  0
  5 14  2  0  0  0  0
  6  1  2  0  0  0  0
  7  4  1  0  0  0  0
  8 21  1  6  0  0  0
  8 18  1  0  0  0  0
  8 12  1  0  0  0  0
 10 19  2  0  0  0  0
 11  4  2  0  0  0  0
 12 16  1  0  0  0  0
 13 10  1  0  0  0  0
 13  2  2  0  0  0  0
 14  1  1  0  0  0  0
 15 11  1  0  0  0  0
 16 17  2  0  0  0  0
 16  5  1  0  0  0  0
 17  6  1  0  0  0  0
 18 13  1  0  0  0  0
 19  3  1  0  0  0  0
 19 20  1  0  0  0  0
 20 15  2  0  0  0  0
 23 24  1  0  0  0  0
 24 21  1  0  0  0  0
 25 22  2  0  0  0  0
 25 24  1  0  0  0  0
 27 26  1  6  0  0  0
 27 25  1  0  0  0  0
 28 27  1  0  0  0  0
 29 28  1  0  0  0  0
 30 29  1  0  0  0  0
 31 29  2  0  0  0  0
M  END
>  <MODEL>
7

>  <REMARK>
 VINA RESULT:      -7.1      0.868      1.788
  Name = 
  5 active torsions:
  status: ('A' for Active; 'I' for Inactive)
    1  A    between atoms: C_1  and  C_24
    2  A    between atoms: N_9  and  C_23
    3  A    between atoms: C_15  and  C_23
    4  A    between atoms: C_19  and  C_22
    5  A    between atoms: C_19  and  C_24
                            x       y       z     vdW  Elec       q    Type
                         _______ _______ _______ _____ _____    ______ ____

>  <TORSDO>
F 5

$$$$
=
 OpenBabel10272400133D

 31 34  0  0  1  0  0  0  0  0999 V2000
  186.2550  177.9640  138.2310 C   0  0  0  0  0  0  0  0  0  0  0  0
  189.5460  177.2820  139.9490 C   0  0  0  0  0  0  0  0  0  0  0  0
  189.4410  177.4070  141.3970 C   0  0  2  0  0  3  0  0  0  0  0  0
  188.0290  176.8520  143.3470 C   0  0  0  0  0  3  0  0  0  0  0  0
  188.4330  177.2260  138.9740 C   0  0  0  0  0  0  0  0  0  0  0  0
  186.3600  177.1630  137.1370 N   0  0  0  0  0  0  0  0  0  0  0  0
  188.1970  177.7290  142.1530 C   0  0  0  0  0  2  0  0  0  0  0  0
  190.9830  176.0960  137.3380 C   0  0  1  0  0  3  0  0  0  0  0  0
  184.8130  178.9270  138.4740 Cl  0  0  0  0  0  0  0  0  0  0  0  0
  191.6940  177.3320  140.8370 C   0  0  0  0  0  3  0  0  0  0  0  0
  188.9330  176.7270  144.3230 C   0  0  0  0  0  3  0  0  0  0  0  0
  189.6410  175.4260  137.6590 C   0  0  0  0  0  2  0  0  0  0  0  0
  190.8320  177.2280  139.6250 C   0  0  0  0  0  0  0  0  0  0  0  0
  187.2910  178.0110  139.1660 C   0  0  0  0  0  3  0  0  0  0  0  0
  190.2330  177.3400  144.3390 N   0  0  0  0  0  0  0  0  0  0  0  0
  188.5120  176.3950  137.8380 C   0  0  0  0  0  0  0  0  0  0  0  0
  187.4540  176.3820  136.9280 C   0  0  0  0  0  3  0  0  0  0  0  0
  191.3500  177.2980  138.2170 C   0  0  0  0  0  2  0  0  0  0  0  0
  190.6610  177.4300  141.9130 C   0  0  0  0  0  0  0  0  0  0  0  0
  191.0000  177.6430  143.3300 C   0  0  0  0  0  3  0  0  0  0  0  0
  192.0950  175.0610  137.3870 C   0  0  0  0  0  2  0  0  0  0  0  0
  192.8800  175.8900  134.8170 O   0  0  0  0  0  0  0  0  0  0  0  0
  194.2260  175.9860  138.1020 O   0  0  0  0  0  1  0  0  0  0  0  0
  193.3800  175.6830  137.0880 N   0  0  0  0  0  0  0  0  0  0  0  0
  193.7240  176.0320  135.7450 C   0  0  0  0  0  0  0  0  0  0  0  0
  194.9680  177.6570  134.5600 O   0  0  0  0  0  1  0  0  0  0  0  0
  195.0880  176.5790  135.4370 C   0  0  2  0  0  3  0  0  0  0  0  0
  195.9920  175.5160  134.8160 C   0  0  0  0  0  2  0  0  0  0  0  0
  197.3650  175.5450  135.4100 C   0  0  0  0  0  0  0  0  0  0  0  0
  198.5210  175.0350  134.6210 C   0  0  0  0  0  1  0  0  0  0  0  0
  197.5420  175.9750  136.5390 O   0  0  0  0  0  0  0  0  0  0  0  0
  1  9  1  0  0  0  0
  1 14  1  0  0  0  0
  2  3  1  0  0  0  0
  3 19  1  0  0  0  0
  3  7  1  6  0  0  0
  4 11  2  0  0  0  0
  5 14  2  0  0  0  0
  5  2  1  0  0  0  0
  6  1  2  0  0  0  0
  7  4  1  0  0  0  0
  8 21  1  1  0  0  0
  8 12  1  0  0  0  0
  8 18  1  0  0  0  0
 10 19  2  0  0  0  0
 11 15  1  0  0  0  0
 12 16  1  0  0  0  0
 13  2  2  0  0  0  0
 13 10  1  0  0  0  0
 16  5  1  0  0  0  0
 17  6  1  0  0  0  0
 17 16  2  0  0  0  0
 18 13  1  0  0  0  0
 19 20  1  0  0  0  0
 20 15  2  0  0  0  0
 22 25  2  0  0  0  0
 24 21  1  0  0  0  0
 24 23  1  0  0  0  0
 25 24  1  0  0  0  0
 27 26  1  6  0  0  0
 27 25  1  0  0  0  0
 28 29  1  0  0  0  0
 28 27  1  0  0  0  0
 29 31  2  0  0  0  0
 30 29  1  0  0  0  0
M  END
>  <MODEL>
8

>  <REMARK>
 VINA RESULT:      -7.0      4.429      6.944
  Name = 
  5 active torsions:
  status: ('A' for Active; 'I' for Inactive)
    1  A    between atoms: C_1  and  C_24
    2  A    between atoms: N_9  and  C_23
    3  A    between atoms: C_15  and  C_23
    4  A    between atoms: C_19  and  C_22
    5  A    between atoms: C_19  and  C_24
                            x       y       z     vdW  Elec       q    Type
                         _______ _______ _______ _____ _____    ______ ____

>  <TORSDO>
F 5

$$$$
=
 OpenBabel10272400133D

 31 34  0  0  1  0  0  0  0  0999 V2000
  192.9050  176.3450  137.5510 C   0  0  0  0  0  0  0  0  0  0  0  0
  189.1500  176.5240  137.8950 C   0  0  0  0  0  0  0  0  0  0  0  0
  188.4740  175.6580  136.9390 C   0  0  0  0  0  0  0  0  0  0  0  0
  188.5160  173.4130  135.9070 C   0  0  0  0  0  3  0  0  0  0  0  0
  190.5930  176.5310  138.2290 C   0  0  0  0  0  0  0  0  0  0  0  0
  193.2970  176.5820  138.8310 N   0  0  0  0  0  0  0  0  0  0  0  0
  189.1430  174.7650  135.9500 C   0  0  0  0  0  2  0  0  0  0  0  0
  189.2020  178.1280  140.6730 C   0  0  1  0  0  3  0  0  0  0  0  0
  194.1050  176.0570  136.3090 Cl  0  0  0  0  0  0  0  0  0  0  0  0
  186.8950  177.0860  137.8670 C   0  0  0  0  0  3  0  0  0  0  0  0
  187.2220  173.1900  135.6630 C   0  0  0  0  0  3  0  0  0  0  0  0
  190.0490  176.8490  140.6850 C   0  0  0  0  0  2  0  0  0  0  0  0
  188.2500  177.3360  138.4360 C   0  0  2  0  0  3  0  0  0  0  0  0
  191.5470  176.3180  137.2280 C   0  0  0  0  0  3  0  0  0  0  0  0
  186.2180  174.2060  135.4910 N   0  0  0  0  0  0  0  0  0  0  0  0
  191.0250  176.7630  139.5500 C   0  0  0  0  0  0  0  0  0  0  0  0
  192.3920  176.7840  139.8270 C   0  0  0  0  0  3  0  0  0  0  0  0
  188.5900  178.5030  139.3170 C   0  0  0  0  0  2  0  0  0  0  0  0
  187.1850  175.9670  136.9210 C   0  0  0  0  0  0  0  0  0  0  0  0
  186.1690  175.3950  136.0220 C   0  0  0  0  0  3  0  0  0  0  0  0
  188.1080  178.0260  141.7220 C   0  0  0  0  0  2  0  0  0  0  0  0
  189.7670  178.9870  143.7800 O   0  0  0  0  0  0  0  0  0  0  0  0
  188.0890  175.9570  142.9980 O   0  0  0  0  0  1  0  0  0  0  0  0
  188.5600  177.2180  142.8490 N   0  0  0  0  0  0  0  0  0  0  0  0
  189.4440  177.7680  143.8300 C   0  0  0  0  0  0  0  0  0  0  0  0
  189.1370  176.9780  146.0380 O   0  0  0  0  0  1  0  0  0  0  0  0
  189.9810  176.8980  144.9300 C   0  0  2  0  0  3  0  0  0  0  0  0
  191.3930  177.3140  145.3350 C   0  0  0  0  0  2  0  0  0  0  0  0
  191.9180  176.4690  146.4530 C   0  0  0  0  0  0  0  0  0  0  0  0
  192.3560  175.0720  146.1800 C   0  0  0  0  0  1  0  0  0  0  0  0
  191.9810  176.9150  147.5890 O   0  0  0  0  0  0  0  0  0  0  0  0
  1  6  1  0  0  0  0
  2  5  1  0  0  0  0
  2 13  1  0  0  0  0
  3  2  2  0  0  0  0
  4  7  1  0  0  0  0
  5 16  2  0  0  0  0
  6 17  2  0  0  0  0
  7  3  1  0  0  0  0
  8 12  1  0  0  0  0
  8 21  1  1  0  0  0
  9  1  1  0  0  0  0
 11  4  2  0  0  0  0
 13 10  1  6  0  0  0
 13 18  1  0  0  0  0
 14  1  2  0  0  0  0
 14  5  1  0  0  0  0
 15 11  1  0  0  0  0
 15 20  2  0  0  0  0
 16 17  1  0  0  0  0
 16 12  1  0  0  0  0
 18  8  1  0  0  0  0
 19  3  1  0  0  0  0
 19 10  2  0  0  0  0
 20 19  1  0  0  0  0
 21 24  1  0  0  0  0
 22 25  2  0  0  0  0
 24 23  1  0  0  0  0
 24 25  1  0  0  0  0
 25 27  1  0  0  0  0
 27 28  1  0  0  0  0
 27 26  1  1  0  0  0
 28 29  1  0  0  0  0
 29 31  2  0  0  0  0
 30 29  1  0  0  0  0
M  END
>  <MODEL>
9

>  <REMARK>
 VINA RESULT:      -6.8      3.963      8.294
  Name = 
  5 active torsions:
  status: ('A' for Active; 'I' for Inactive)
    1  A    between atoms: C_1  and  C_24
    2  A    between atoms: N_9  and  C_23
    3  A    between atoms: C_15  and  C_23
    4  A    between atoms: C_19  and  C_22
    5  A    between atoms: C_19  and  C_24
                            x       y       z     vdW  Elec       q    Type
                         _______ _______ _______ _____ _____    ______ ____

>  <TORSDO>
F 5

$$$$
