=
 OpenBabel10272402103D

 32 34  0  0  1  0  0  0  0  0999 V2000
  184.4440  179.4260  142.2760 C   0  0  2  0  0  3  0  0  0  0  0  0
  185.5630  178.5870  141.6460 C   0  0  2  0  0  0  0  0  0  0  0  0
  184.2910  179.3080  143.8050 C   0  0  2  0  0  3  0  0  0  0  0  0
  184.1170  178.1010  141.5760 C   0  0  2  0  0  3  0  0  0  0  0  0
  185.5430  178.8070  144.5300 C   0  0  1  0  0  3  0  0  0  0  0  0
  183.1600  178.5540  144.1460 O   0  0  0  0  0  1  0  0  0  0  0  0
  186.4660  177.6910  142.5080 C   0  0  0  0  0  2  0  0  0  0  0  0
  185.2860  178.7140  146.0280 C   0  0  0  0  0  1  0  0  0  0  0  0
  185.9810  177.4720  143.9380 C   0  0  1  0  0  3  0  0  0  0  0  0
  181.0550  178.1100  141.1440 C   0  0  0  0  0  2  0  0  0  0  0  0
  182.3540  176.0900  140.0280 C   0  0  0  0  0  2  0  0  0  0  0  0
  183.2890  177.1160  139.3960 C   0  0  0  0  0  2  0  0  0  0  0  0
  183.4080  178.3830  140.2480 C   0  0  0  0  0  3  0  0  0  0  0  0
  180.6460  176.7200  140.0420 S   0  0  0  0  0  0  0  0  0  0  0  0
  182.0470  179.0480  140.4640 C   0  0  0  0  0  2  0  0  0  0  0  0
  186.1710  179.1260  140.3430 C   0  0  0  0  0  2  0  0  0  0  0  0
  186.9380  178.0910  139.5120 C   0  0  2  0  0  3  0  0  0  0  0  0
  189.0060  179.1440  138.9750 O   0  0  0  0  0  0  0  0  0  0  0  0
  188.4310  178.2270  139.6210 C   0  0  0  0  0  0  0  0  0  0  0  0
  190.5420  177.3450  140.4950 C   0  0  0  0  0  2  0  0  0  0  0  0
  189.2180  177.2890  140.4380 C   0  0  0  0  0  3  0  0  0  0  0  0
  186.4240  178.0060  138.0760 C   0  0  0  0  0  2  0  0  0  0  0  0
  187.0970  176.9010  137.3270 C   0  0  0  0  0  0  0  0  0  0  0  0
  186.9120  175.7070  137.6830 O   0  0  0  0  0  0  0  0  0  0  0  0
  187.9690  177.1940  136.1820 C   0  0  0  0  0  0  0  0  0  0  0  0
  187.6910  178.1450  135.4020 O   0  0  0  0  0  0  0  0  0  0  0  0
  189.1030  176.4090  135.9640 O   0  0  0  0  0  0  0  0  0  0  0  0
  190.4670  175.1670  137.4920 C   0  0  0  0  0  1  0  0  0  0  0  0
  190.2460  176.4960  136.8010 C   0  0  0  0  0  2  0  0  0  0  0  0
  187.0670  176.8950  144.7170 N   0  0  0  0  0  2  0  0  0  0  0  0
  188.3110  177.3390  144.1110 C   0  0  0  0  0  2  0  0  0  0  0  0
  189.2380  177.8600  145.1870 C   0  0  0  0  0  1  0  0  0  0  0  0
  1  3  1  0  0  0  0
  2  1  1  0  0  0  0
  2  7  1  0  0  0  0
  3  6  1  0  0  0  0
  3  5  1  0  0  0  0
  4  2  1  0  0  0  0
  4  1  1  0  0  0  0
  5  8  1  0  0  0  0
  7  9  1  0  0  0  0
  9  5  1  0  0  0  0
  9 30  1  0  0  0  0
 11 14  1  0  0  0  0
 12 11  1  0  0  0  0
 12 13  1  0  0  0  0
 13 15  1  0  0  0  0
 13  4  1  0  0  0  0
 14 10  1  0  0  0  0
 15 10  1  0  0  0  0
 16  2  1  0  0  0  0
 17 19  1  0  0  0  0
 17 16  1  0  0  0  0
 18 19  2  0  0  0  0
 19 21  1  0  0  0  0
 21 20  2  0  0  0  0
 22 17  1  0  0  0  0
 23 24  2  0  0  0  0
 23 22  1  0  0  0  0
 25 23  1  0  0  0  0
 26 25  2  0  0  0  0
 27 25  1  0  0  0  0
 27 29  1  0  0  0  0
 29 28  1  0  0  0  0
 31 30  1  0  0  0  0
 31 32  1  0  0  0  0
M  END
>  <MODEL>
1

>  <REMARK>
 VINA RESULT:      -5.4      0.000      0.000
  Name = 
  12 active torsions:
  status: ('A' for Active; 'I' for Inactive)
    1  A    between atoms: C_1  and  C_5
    2  A    between atoms: C_1  and  C_24
    3  A    between atoms: C_3  and  O_15
    4  A    between atoms: C_3  and  C_22
    5  A    between atoms: C_10  and  C_28
    6  A    between atoms: N_14  and  C_21
    7  A    between atoms: N_14  and  C_29
    8  A    between atoms: O_15  and  C_26
    9  A    between atoms: C_16  and  C_20
   10  A    between atoms: C_16  and  C_24
   11  A    between atoms: C_22  and  C_27
   12  A    between atoms: C_24  and  C_27
                            x       y       z     vdW  Elec       q    Type
                         _______ _______ _______ _____ _____    ______ ____

>  <TORSDO>
F 12

$$$$
=
 OpenBabel10272402103D

 32 34  0  0  1  0  0  0  0  0999 V2000
  189.3230  178.4630  140.2030 C   0  0  2  0  0  3  0  0  0  0  0  0
  187.8050  178.2520  140.2650 C   0  0  2  0  0  0  0  0  0  0  0  0
  190.0260  177.9360  138.9360 C   0  0  2  0  0  3  0  0  0  0  0  0
  188.7340  177.3170  141.0350 C   0  0  2  0  0  3  0  0  0  0  0  0
  189.1030  177.7530  137.7290 C   0  0  1  0  0  3  0  0  0  0  0  0
  190.7570  176.7720  139.2090 O   0  0  0  0  0  1  0  0  0  0  0  0
  187.0510  177.5560  139.1210 C   0  0  0  0  0  2  0  0  0  0  0  0
  189.8870  177.2200  136.5380 C   0  0  0  0  0  1  0  0  0  0  0  0
  187.9380  176.8440  138.1040 C   0  0  1  0  0  3  0  0  0  0  0  0
  191.4090  177.5460  142.5700 C   0  0  0  0  0  2  0  0  0  0  0  0
  189.9370  175.4270  143.1640 C   0  0  0  0  0  2  0  0  0  0  0  0
  188.7630  176.3760  143.3850 C   0  0  0  0  0  2  0  0  0  0  0  0
  188.8790  177.6380  142.5260 C   0  0  0  0  0  3  0  0  0  0  0  0
  191.4790  176.1810  143.7710 S   0  0  0  0  0  0  0  0  0  0  0  0
  190.1720  178.4030  142.8170 C   0  0  0  0  0  2  0  0  0  0  0  0
  187.0080  179.2670  141.0970 C   0  0  0  0  0  2  0  0  0  0  0  0
  185.5970  178.8140  141.4900 C   0  0  2  0  0  3  0  0  0  0  0  0
  184.6860  179.8570  139.5510 O   0  0  0  0  0  0  0  0  0  0  0  0
  184.6100  178.8920  140.3590 C   0  0  0  0  0  0  0  0  0  0  0  0
  182.7390  177.8630  139.1600 C   0  0  0  0  0  2  0  0  0  0  0  0
  183.5480  177.8830  140.2100 C   0  0  0  0  0  3  0  0  0  0  0  0
  185.1160  179.4710  142.7820 C   0  0  0  0  0  2  0  0  0  0  0  0
  185.2330  178.5340  143.9400 C   0  0  0  0  0  0  0  0  0  0  0  0
  185.6320  177.3550  143.7460 O   0  0  0  0  0  0  0  0  0  0  0  0
  184.8880  178.9730  145.2980 C   0  0  0  0  0  0  0  0  0  0  0  0
  183.6800  179.0230  145.6590 O   0  0  0  0  0  0  0  0  0  0  0  0
  185.9050  179.3390  146.1820 O   0  0  0  0  0  0  0  0  0  0  0  0
  187.5470  177.6710  146.6920 C   0  0  0  0  0  1  0  0  0  0  0  0
  186.3620  178.4640  147.2010 C   0  0  0  0  0  2  0  0  0  0  0  0
  187.1380  176.5210  136.9320 N   0  0  0  0  0  2  0  0  0  0  0  0
  185.7880  176.9900  137.1920 C   0  0  0  0  0  2  0  0  0  0  0  0
  185.0420  177.1330  135.8840 C   0  0  0  0  0  1  0  0  0  0  0  0
  1  2  1  0  0  0  0
  1  4  1  0  0  0  0
  2  4  1  0  0  0  0
  2 16  1  0  0  0  0
  3  6  1  0  0  0  0
  3  1  1  0  0  0  0
  4 13  1  0  0  0  0
  5  9  1  0  0  0  0
  5  3  1  0  0  0  0
  7  2  1  0  0  0  0
  8  5  1  0  0  0  0
  9  7  1  0  0  0  0
 10 15  1  0  0  0  0
 10 14  1  0  0  0  0
 11 12  1  0  0  0  0
 11 14  1  0  0  0  0
 13 15  1  0  0  0  0
 13 12  1  0  0  0  0
 16 17  1  0  0  0  0
 17 22  1  0  0  0  0
 18 19  2  0  0  0  0
 19 17  1  0  0  0  0
 20 21  2  0  0  0  0
 21 19  1  0  0  0  0
 22 23  1  0  0  0  0
 23 25  1  0  0  0  0
 24 23  2  0  0  0  0
 25 26  2  0  0  0  0
 25 27  1  0  0  0  0
 27 29  1  0  0  0  0
 28 29  1  0  0  0  0
 30 31  1  0  0  0  0
 30  9  1  0  0  0  0
 32 31  1  0  0  0  0
M  END
>  <MODEL>
2

>  <REMARK>
 VINA RESULT:      -5.4      3.129      7.768
  Name = 
  12 active torsions:
  status: ('A' for Active; 'I' for Inactive)
    1  A    between atoms: C_1  and  C_5
    2  A    between atoms: C_1  and  C_24
    3  A    between atoms: C_3  and  O_15
    4  A    between atoms: C_3  and  C_22
    5  A    between atoms: C_10  and  C_28
    6  A    between atoms: N_14  and  C_21
    7  A    between atoms: N_14  and  C_29
    8  A    between atoms: O_15  and  C_26
    9  A    between atoms: C_16  and  C_20
   10  A    between atoms: C_16  and  C_24
   11  A    between atoms: C_22  and  C_27
   12  A    between atoms: C_24  and  C_27
                            x       y       z     vdW  Elec       q    Type
                         _______ _______ _______ _____ _____    ______ ____

>  <TORSDO>
F 12

$$$$
=
 OpenBabel10272402103D

 32 34  0  0  1  0  0  0  0  0999 V2000
  190.4020  174.7220  134.7650 C   0  0  2  0  0  3  0  0  0  0  0  0
  189.7600  175.3600  136.0030 C   0  0  2  0  0  0  0  0  0  0  0  0
  190.0020  173.2620  134.4750 C   0  0  2  0  0  3  0  0  0  0  0  0
  191.1920  174.8360  136.0750 C   0  0  2  0  0  3  0  0  0  0  0  0
  188.6810  172.8270  135.1150 C   0  0  1  0  0  3  0  0  0  0  0  0
  191.0430  172.3780  134.7860 O   0  0  0  0  0  1  0  0  0  0  0  0
  188.7770  174.5730  136.8840 C   0  0  0  0  0  2  0  0  0  0  0  0
  188.3830  171.3720  134.7790 C   0  0  0  0  0  1  0  0  0  0  0  0
  188.7340  173.0710  136.6190 C   0  0  1  0  0  3  0  0  0  0  0  0
  194.1320  174.3130  135.2740 C   0  0  0  0  0  2  0  0  0  0  0  0
  193.7520  175.0340  137.7940 C   0  0  0  0  0  2  0  0  0  0  0  0
  192.9430  176.2170  137.2730 C   0  0  0  0  0  2  0  0  0  0  0  0
  192.2770  175.9070  135.9290 C   0  0  0  0  0  3  0  0  0  0  0  0
  195.1790  174.7200  136.7070 S   0  0  0  0  0  0  0  0  0  0  0  0
  193.3060  175.5280  134.8630 C   0  0  0  0  0  2  0  0  0  0  0  0
  189.5870  176.8850  135.9740 C   0  0  0  0  0  2  0  0  0  0  0  0
  188.7110  177.4580  137.0940 C   0  0  2  0  0  3  0  0  0  0  0  0
  187.3120  179.3480  136.7110 O   0  0  0  0  0  0  0  0  0  0  0  0
  187.4480  178.1000  136.5940 C   0  0  0  0  0  0  0  0  0  0  0  0
  185.2480  177.0260  136.6640 C   0  0  0  0  0  2  0  0  0  0  0  0
  186.3680  177.2900  136.0060 C   0  0  0  0  0  3  0  0  0  0  0  0
  189.5070  178.3260  138.0650 C   0  0  0  0  0  2  0  0  0  0  0  0
  189.1170  178.0490  139.4820 C   0  0  0  0  0  0  0  0  0  0  0  0
  188.1020  178.6150  139.9680 O   0  0  0  0  0  0  0  0  0  0  0  0
  189.9040  177.1260  140.3090 C   0  0  0  0  0  0  0  0  0  0  0  0
  190.5500  176.1870  139.7690 O   0  0  0  0  0  0  0  0  0  0  0  0
  189.9270  177.2950  141.6950 O   0  0  0  0  0  0  0  0  0  0  0  0
  188.4460  176.2220  143.2420 C   0  0  0  0  0  1  0  0  0  0  0  0
  189.8100  176.1960  142.5850 C   0  0  0  0  0  2  0  0  0  0  0  0
  187.5590  172.5140  137.2730 N   0  0  0  0  0  2  0  0  0  0  0  0
  186.4820  173.4760  137.1080 C   0  0  0  0  0  2  0  0  0  0  0  0
  185.2290  172.9490  137.7740 C   0  0  0  0  0  1  0  0  0  0  0  0
  1  2  1  0  0  0  0
  1  4  1  0  0  0  0
  2  4  1  0  0  0  0
  2  7  1  0  0  0  0
  3  1  1  0  0  0  0
  3  6  1  0  0  0  0
  3  5  1  0  0  0  0
  5  9  1  0  0  0  0
  8  5  1  0  0  0  0
  9  7  1  0  0  0  0
  9 30  1  0  0  0  0
 10 14  1  0  0  0  0
 12 11  1  0  0  0  0
 13  4  1  0  0  0  0
 13 12  1  0  0  0  0
 14 11  1  0  0  0  0
 15 10  1  0  0  0  0
 15 13  1  0  0  0  0
 16  2  1  0  0  0  0
 16 17  1  0  0  0  0
 17 22  1  0  0  0  0
 19 18  2  0  0  0  0
 19 17  1  0  0  0  0
 21 19  1  0  0  0  0
 21 20  2  0  0  0  0
 22 23  1  0  0  0  0
 23 24  2  0  0  0  0
 23 25  1  0  0  0  0
 25 27  1  0  0  0  0
 26 25  2  0  0  0  0
 27 29  1  0  0  0  0
 29 28  1  0  0  0  0
 31 30  1  0  0  0  0
 31 32  1  0  0  0  0
M  END
>  <MODEL>
3

>  <REMARK>
 VINA RESULT:      -5.2      4.612      8.978
  Name = 
  12 active torsions:
  status: ('A' for Active; 'I' for Inactive)
    1  A    between atoms: C_1  and  C_5
    2  A    between atoms: C_1  and  C_24
    3  A    between atoms: C_3  and  O_15
    4  A    between atoms: C_3  and  C_22
    5  A    between atoms: C_10  and  C_28
    6  A    between atoms: N_14  and  C_21
    7  A    between atoms: N_14  and  C_29
    8  A    between atoms: O_15  and  C_26
    9  A    between atoms: C_16  and  C_20
   10  A    between atoms: C_16  and  C_24
   11  A    between atoms: C_22  and  C_27
   12  A    between atoms: C_24  and  C_27
                            x       y       z     vdW  Elec       q    Type
                         _______ _______ _______ _____ _____    ______ ____

>  <TORSDO>
F 12

$$$$
=
 OpenBabel10272402103D

 32 34  0  0  1  0  0  0  0  0999 V2000
  184.9610  179.5100  142.6150 C   0  0  2  0  0  3  0  0  0  0  0  0
  186.1060  178.5610  142.2420 C   0  0  2  0  0  0  0  0  0  0  0  0
  184.4650  179.4290  144.0720 C   0  0  2  0  0  3  0  0  0  0  0  0
  184.6720  178.2110  141.8520 C   0  0  2  0  0  3  0  0  0  0  0  0
  185.4740  178.8240  145.0520 C   0  0  1  0  0  3  0  0  0  0  0  0
  183.2210  178.7900  144.1510 O   0  0  0  0  0  1  0  0  0  0  0  0
  186.7090  177.5970  143.2760 C   0  0  0  0  0  2  0  0  0  0  0  0
  184.8860  178.7780  146.4560 C   0  0  0  0  0  1  0  0  0  0  0  0
  185.9030  177.4450  144.5630 C   0  0  1  0  0  3  0  0  0  0  0  0
  181.8280  178.8630  140.8300 C   0  0  0  0  0  2  0  0  0  0  0  0
  182.8040  176.5260  140.0590 C   0  0  0  0  0  2  0  0  0  0  0  0
  184.0500  177.2670  139.5870 C   0  0  0  0  0  2  0  0  0  0  0  0
  184.3020  178.5380  140.4020 C   0  0  0  0  0  3  0  0  0  0  0  0
  181.3150  177.5170  139.7180 S   0  0  0  0  0  0  0  0  0  0  0  0
  183.1170  179.5030  140.3250 C   0  0  0  0  0  2  0  0  0  0  0  0
  187.0340  179.0210  141.1090 C   0  0  0  0  0  2  0  0  0  0  0  0
  188.1010  178.0020  140.6930 C   0  0  2  0  0  3  0  0  0  0  0  0
  189.5690  178.7720  142.4030 O   0  0  0  0  0  0  0  0  0  0  0  0
  189.1570  177.7820  141.7390 C   0  0  0  0  0  0  0  0  0  0  0  0
  190.6110  176.2130  142.9310 C   0  0  0  0  0  2  0  0  0  0  0  0
  189.7280  176.4450  141.9690 C   0  0  0  0  0  3  0  0  0  0  0  0
  188.6570  178.2820  139.2980 C   0  0  0  0  0  2  0  0  0  0  0  0
  188.0200  177.3960  138.2750 C   0  0  0  0  0  0  0  0  0  0  0  0
  188.3780  176.1910  138.1890 O   0  0  0  0  0  0  0  0  0  0  0  0
  186.9860  177.9160  137.3730 C   0  0  0  0  0  0  0  0  0  0  0  0
  186.4570  179.0400  137.5970 O   0  0  0  0  0  0  0  0  0  0  0  0
  186.5900  177.1570  136.2700 O   0  0  0  0  0  0  0  0  0  0  0  0
  185.5700  174.9890  136.2870 C   0  0  0  0  0  1  0  0  0  0  0  0
  185.3410  176.4850  136.2330 C   0  0  0  0  0  2  0  0  0  0  0  0
  186.7320  176.7810  145.5580 N   0  0  0  0  0  2  0  0  0  0  0  0
  188.0850  177.2810  145.3910 C   0  0  0  0  0  2  0  0  0  0  0  0
  188.7690  177.3480  146.7390 C   0  0  0  0  0  1  0  0  0  0  0  0
  1  3  1  0  0  0  0
  2  1  1  0  0  0  0
  2  7  1  0  0  0  0
  3  6  1  0  0  0  0
  3  5  1  0  0  0  0
  4  2  1  0  0  0  0
  4  1  1  0  0  0  0
  5  8  1  0  0  0  0
  7  9  1  0  0  0  0
  9  5  1  0  0  0  0
  9 30  1  0  0  0  0
 12 11  1  0  0  0  0
 12 13  1  0  0  0  0
 13  4  1  0  0  0  0
 14 11  1  0  0  0  0
 14 10  1  0  0  0  0
 15 13  1  0  0  0  0
 15 10  1  0  0  0  0
 16  2  1  0  0  0  0
 17 16  1  0  0  0  0
 17 19  1  0  0  0  0
 19 21  1  0  0  0  0
 19 18  2  0  0  0  0
 21 20  2  0  0  0  0
 22 17  1  0  0  0  0
 23 22  1  0  0  0  0
 24 23  2  0  0  0  0
 25 26  2  0  0  0  0
 25 23  1  0  0  0  0
 27 25  1  0  0  0  0
 29 27  1  0  0  0  0
 29 28  1  0  0  0  0
 31 30  1  0  0  0  0
 31 32  1  0  0  0  0
M  END
>  <MODEL>
4

>  <REMARK>
 VINA RESULT:      -5.2      1.457      1.973
  Name = 
  12 active torsions:
  status: ('A' for Active; 'I' for Inactive)
    1  A    between atoms: C_1  and  C_5
    2  A    between atoms: C_1  and  C_24
    3  A    between atoms: C_3  and  O_15
    4  A    between atoms: C_3  and  C_22
    5  A    between atoms: C_10  and  C_28
    6  A    between atoms: N_14  and  C_21
    7  A    between atoms: N_14  and  C_29
    8  A    between atoms: O_15  and  C_26
    9  A    between atoms: C_16  and  C_20
   10  A    between atoms: C_16  and  C_24
   11  A    between atoms: C_22  and  C_27
   12  A    between atoms: C_24  and  C_27
                            x       y       z     vdW  Elec       q    Type
                         _______ _______ _______ _____ _____    ______ ____

>  <TORSDO>
F 12

$$$$
=
 OpenBabel10272402103D

 32 34  0  0  1  0  0  0  0  0999 V2000
  189.8400  178.1570  139.6240 C   0  0  2  0  0  3  0  0  0  0  0  0
  188.6300  177.2950  139.2410 C   0  0  2  0  0  0  0  0  0  0  0  0
  191.2130  177.6380  139.1540 C   0  0  2  0  0  3  0  0  0  0  0  0
  189.2060  177.2120  140.6530 C   0  0  2  0  0  3  0  0  0  0  0  0
  191.1520  176.6630  137.9750 C   0  0  1  0  0  3  0  0  0  0  0  0
  191.9500  177.1110  140.2230 O   0  0  0  0  0  1  0  0  0  0  0  0
  188.8000  175.9980  138.4360 C   0  0  0  0  0  2  0  0  0  0  0  0
  192.5530  176.2010  137.5970 C   0  0  0  0  0  1  0  0  0  0  0  0
  190.2360  175.4940  138.3200 C   0  0  1  0  0  3  0  0  0  0  0  0
  190.2610  177.9190  143.4720 C   0  0  0  0  0  2  0  0  0  0  0  0
  188.2790  176.1640  143.4070 C   0  0  0  0  0  2  0  0  0  0  0  0
  187.5120  177.1490  142.5320 C   0  0  0  0  0  2  0  0  0  0  0  0
  188.4510  178.0300  141.7050 C   0  0  0  0  0  3  0  0  0  0  0  0
  189.2170  177.0570  144.6880 S   0  0  0  0  0  0  0  0  0  0  0  0
  189.4070  178.8280  142.5940 C   0  0  0  0  0  2  0  0  0  0  0  0
  187.2900  178.0290  139.0880 C   0  0  0  0  0  2  0  0  0  0  0  0
  186.5050  177.6830  137.8170 C   0  0  2  0  0  3  0  0  0  0  0  0
  187.3910  179.6190  136.7510 O   0  0  0  0  0  0  0  0  0  0  0  0
  186.9690  178.4410  136.6050 C   0  0  0  0  0  0  0  0  0  0  0  0
  186.3650  176.6430  135.0560 C   0  0  0  0  0  2  0  0  0  0  0  0
  186.9020  177.8370  135.2640 C   0  0  0  0  0  3  0  0  0  0  0  0
  184.9950  177.7280  138.0390 C   0  0  0  0  0  2  0  0  0  0  0  0
  184.6320  178.7300  139.0870 C   0  0  0  0  0  0  0  0  0  0  0  0
  184.7590  179.9590  138.8410 O   0  0  0  0  0  0  0  0  0  0  0  0
  184.1320  178.2960  140.3980 C   0  0  0  0  0  0  0  0  0  0  0  0
  183.3430  177.3150  140.4800 O   0  0  0  0  0  0  0  0  0  0  0  0
  184.5320  178.9800  141.5470 O   0  0  0  0  0  0  0  0  0  0  0  0
  184.8300  179.1760  143.9160 C   0  0  0  0  0  1  0  0  0  0  0  0
  183.8880  178.7860  142.7970 C   0  0  0  0  0  2  0  0  0  0  0  0
  190.2910  174.4730  137.2850 N   0  0  0  0  0  2  0  0  0  0  0  0
  189.1340  174.6680  136.4290 C   0  0  0  0  0  2  0  0  0  0  0  0
  189.5910  174.8570  134.9980 C   0  0  0  0  0  1  0  0  0  0  0  0
  1  4  1  0  0  0  0
  2  1  1  0  0  0  0
  2  4  1  0  0  0  0
  3  1  1  0  0  0  0
  3  6  1  0  0  0  0
  4 13  1  0  0  0  0
  5  9  1  0  0  0  0
  5  3  1  0  0  0  0
  7  2  1  0  0  0  0
  8  5  1  0  0  0  0
  9  7  1  0  0  0  0
 10 14  1  0  0  0  0
 11 14  1  0  0  0  0
 12 11  1  0  0  0  0
 13 12  1  0  0  0  0
 13 15  1  0  0  0  0
 15 10  1  0  0  0  0
 16  2  1  0  0  0  0
 17 22  1  0  0  0  0
 17 16  1  0  0  0  0
 19 18  2  0  0  0  0
 19 17  1  0  0  0  0
 20 21  2  0  0  0  0
 21 19  1  0  0  0  0
 22 23  1  0  0  0  0
 23 25  1  0  0  0  0
 24 23  2  0  0  0  0
 25 26  2  0  0  0  0
 25 27  1  0  0  0  0
 27 29  1  0  0  0  0
 29 28  1  0  0  0  0
 30  9  1  0  0  0  0
 31 30  1  0  0  0  0
 32 31  1  0  0  0  0
M  END
>  <MODEL>
5

>  <REMARK>
 VINA RESULT:      -5.0      2.998      7.044
  Name = 
  12 active torsions:
  status: ('A' for Active; 'I' for Inactive)
    1  A    between atoms: C_1  and  C_5
    2  A    between atoms: C_1  and  C_24
    3  A    between atoms: C_3  and  O_15
    4  A    between atoms: C_3  and  C_22
    5  A    between atoms: C_10  and  C_28
    6  A    between atoms: N_14  and  C_21
    7  A    between atoms: N_14  and  C_29
    8  A    between atoms: O_15  and  C_26
    9  A    between atoms: C_16  and  C_20
   10  A    between atoms: C_16  and  C_24
   11  A    between atoms: C_22  and  C_27
   12  A    between atoms: C_24  and  C_27
                            x       y       z     vdW  Elec       q    Type
                         _______ _______ _______ _____ _____    ______ ____

>  <TORSDO>
F 12

$$$$
=
 OpenBabel10272402103D

 32 34  0  0  1  0  0  0  0  0999 V2000
  184.8700  179.5220  142.6860 C   0  0  2  0  0  3  0  0  0  0  0  0
  185.9910  178.5500  142.2980 C   0  0  2  0  0  0  0  0  0  0  0  0
  184.4010  179.4590  144.1530 C   0  0  2  0  0  3  0  0  0  0  0  0
  184.5440  178.2230  141.9380 C   0  0  2  0  0  3  0  0  0  0  0  0
  185.4180  178.8440  145.1170 C   0  0  1  0  0  3  0  0  0  0  0  0
  183.1480  178.8430  144.2600 O   0  0  0  0  0  1  0  0  0  0  0  0
  186.5970  177.5820  143.3270 C   0  0  0  0  0  2  0  0  0  0  0  0
  184.8570  178.8170  146.5330 C   0  0  0  0  0  1  0  0  0  0  0  0
  185.8140  177.4540  144.6300 C   0  0  1  0  0  3  0  0  0  0  0  0
  181.6600  178.6900  140.9250 C   0  0  0  0  0  2  0  0  0  0  0  0
  182.7980  176.4390  140.1170 C   0  0  0  0  0  2  0  0  0  0  0  0
  183.9890  177.2740  139.6580 C   0  0  0  0  0  2  0  0  0  0  0  0
  184.1510  178.5460  140.4940 C   0  0  0  0  0  3  0  0  0  0  0  0
  181.2430  177.3290  139.7900 S   0  0  0  0  0  0  0  0  0  0  0  0
  182.9010  179.4270  140.4310 C   0  0  0  0  0  2  0  0  0  0  0  0
  186.9040  178.9860  141.1430 C   0  0  0  0  0  2  0  0  0  0  0  0
  188.2710  178.2930  141.1030 C   0  0  2  0  0  3  0  0  0  0  0  0
  189.6320  176.9760  139.6590 O   0  0  0  0  0  0  0  0  0  0  0  0
  188.5810  177.6620  139.7750 C   0  0  0  0  0  0  0  0  0  0  0  0
  188.1290  178.4060  137.4860 C   0  0  0  0  0  2  0  0  0  0  0  0
  187.6960  177.8650  138.6160 C   0  0  0  0  0  3  0  0  0  0  0  0
  188.4850  177.3650  142.2970 C   0  0  0  0  0  2  0  0  0  0  0  0
  189.8450  177.5530  142.8900 C   0  0  0  0  0  0  0  0  0  0  0  0
  190.3060  178.7170  143.0290 O   0  0  0  0  0  0  0  0  0  0  0  0
  190.6460  176.3960  143.3090 C   0  0  0  0  0  0  0  0  0  0  0  0
  190.3740  175.2460  142.8700 O   0  0  0  0  0  0  0  0  0  0  0  0
  191.7060  176.5810  144.2000 O   0  0  0  0  0  0  0  0  0  0  0  0
  192.0350  175.8730  146.4640 C   0  0  0  0  0  1  0  0  0  0  0  0
  191.4920  176.9530  145.5520 C   0  0  0  0  0  2  0  0  0  0  0  0
  186.6500  176.7820  145.6140 N   0  0  0  0  0  2  0  0  0  0  0  0
  187.7950  177.6420  145.8610 C   0  0  0  0  0  2  0  0  0  0  0  0
  188.2880  177.4310  147.2760 C   0  0  0  0  0  1  0  0  0  0  0  0
  1  3  1  0  0  0  0
  2  1  1  0  0  0  0
  2  7  1  0  0  0  0
  3  6  1  0  0  0  0
  3  5  1  0  0  0  0
  4  2  1  0  0  0  0
  4  1  1  0  0  0  0
  5  8  1  0  0  0  0
  7  9  1  0  0  0  0
  9  5  1  0  0  0  0
  9 30  1  0  0  0  0
 12 11  1  0  0  0  0
 12 13  1  0  0  0  0
 13  4  1  0  0  0  0
 14 11  1  0  0  0  0
 14 10  1  0  0  0  0
 15 13  1  0  0  0  0
 15 10  1  0  0  0  0
 16  2  1  0  0  0  0
 17 16  1  0  0  0  0
 17 22  1  0  0  0  0
 18 19  2  0  0  0  0
 19 17  1  0  0  0  0
 20 21  2  0  0  0  0
 21 19  1  0  0  0  0
 22 23  1  0  0  0  0
 23 24  2  0  0  0  0
 23 25  1  0  0  0  0
 25 27  1  0  0  0  0
 26 25  2  0  0  0  0
 27 29  1  0  0  0  0
 29 28  1  0  0  0  0
 30 31  1  0  0  0  0
 31 32  1  0  0  0  0
M  END
>  <MODEL>
6

>  <REMARK>
 VINA RESULT:      -5.0      2.205      4.061
  Name = 
  12 active torsions:
  status: ('A' for Active; 'I' for Inactive)
    1  A    between atoms: C_1  and  C_5
    2  A    between atoms: C_1  and  C_24
    3  A    between atoms: C_3  and  O_15
    4  A    between atoms: C_3  and  C_22
    5  A    between atoms: C_10  and  C_28
    6  A    between atoms: N_14  and  C_21
    7  A    between atoms: N_14  and  C_29
    8  A    between atoms: O_15  and  C_26
    9  A    between atoms: C_16  and  C_20
   10  A    between atoms: C_16  and  C_24
   11  A    between atoms: C_22  and  C_27
   12  A    between atoms: C_24  and  C_27
                            x       y       z     vdW  Elec       q    Type
                         _______ _______ _______ _____ _____    ______ ____

>  <TORSDO>
F 12

$$$$
=
 OpenBabel10272402103D

 32 34  0  0  1  0  0  0  0  0999 V2000
  190.3030  177.1830  136.7330 C   0  0  2  0  0  3  0  0  0  0  0  0
  189.8820  175.9820  137.5890 C   0  0  2  0  0  0  0  0  0  0  0  0
  189.2710  177.6630  135.6930 C   0  0  2  0  0  3  0  0  0  0  0  0
  190.8190  175.7770  136.4010 C   0  0  2  0  0  3  0  0  0  0  0  0
  187.8290  177.2430  135.9900 C   0  0  1  0  0  3  0  0  0  0  0  0
  189.6560  177.3070  134.3930 O   0  0  0  0  0  1  0  0  0  0  0  0
  188.5100  175.3150  137.4060 C   0  0  0  0  0  2  0  0  0  0  0  0
  186.8940  177.7540  134.9020 C   0  0  0  0  0  1  0  0  0  0  0  0
  187.7550  175.7280  136.1460 C   0  0  1  0  0  3  0  0  0  0  0  0
  193.1040  175.1070  134.4290 C   0  0  0  0  0  2  0  0  0  0  0  0
  192.5410  173.2190  136.1990 C   0  0  0  0  0  2  0  0  0  0  0  0
  192.6610  174.2820  137.2850 C   0  0  0  0  0  2  0  0  0  0  0  0
  192.3040  175.6770  136.7630 C   0  0  0  0  0  3  0  0  0  0  0  0
  193.7960  173.4930  134.9080 S   0  0  0  0  0  0  0  0  0  0  0  0
  193.2000  176.0890  135.5930 C   0  0  0  0  0  2  0  0  0  0  0  0
  190.5120  175.8850  138.9860 C   0  0  0  0  0  2  0  0  0  0  0  0
  190.4760  177.1820  139.8030 C   0  0  2  0  0  3  0  0  0  0  0  0
  191.6800  177.5080  141.8320 O   0  0  0  0  0  0  0  0  0  0  0  0
  191.7400  177.4350  140.5750 C   0  0  0  0  0  0  0  0  0  0  0  0
  194.0060  176.7410  139.9580 C   0  0  0  0  0  2  0  0  0  0  0  0
  193.0250  177.6290  139.8830 C   0  0  0  0  0  3  0  0  0  0  0  0
  189.2030  177.3070  140.6360 C   0  0  0  0  0  2  0  0  0  0  0  0
  188.3080  178.3780  140.0980 C   0  0  0  0  0  0  0  0  0  0  0  0
  188.6680  179.0360  139.0860 O   0  0  0  0  0  0  0  0  0  0  0  0
  187.0190  178.6680  140.7370 C   0  0  0  0  0  0  0  0  0  0  0  0
  185.9800  178.8020  140.0330 O   0  0  0  0  0  0  0  0  0  0  0  0
  186.9530  178.7980  142.1250 O   0  0  0  0  0  0  0  0  0  0  0  0
  187.3230  177.1800  143.8520 C   0  0  0  0  0  1  0  0  0  0  0  0
  186.3070  177.8320  142.9390 C   0  0  0  0  0  2  0  0  0  0  0  0
  186.3730  175.2890  136.2630 N   0  0  0  0  0  2  0  0  0  0  0  0
  186.3450  174.2250  137.2510 C   0  0  0  0  0  2  0  0  0  0  0  0
  184.9190  173.7550  137.4460 C   0  0  0  0  0  1  0  0  0  0  0  0
  1  2  1  0  0  0  0
  2 16  1  0  0  0  0
  3  5  1  0  0  0  0
  3  1  1  0  0  0  0
  4  1  1  0  0  0  0
  4 13  1  0  0  0  0
  4  2  1  0  0  0  0
  5  9  1  0  0  0  0
  6  3  1  0  0  0  0
  7  2  1  0  0  0  0
  8  5  1  0  0  0  0
  9 30  1  0  0  0  0
  9  7  1  0  0  0  0
 10 14  1  0  0  0  0
 10 15  1  0  0  0  0
 11 12  1  0  0  0  0
 13 12  1  0  0  0  0
 14 11  1  0  0  0  0
 15 13  1  0  0  0  0
 16 17  1  0  0  0  0
 17 19  1  0  0  0  0
 17 22  1  0  0  0  0
 19 18  2  0  0  0  0
 21 20  2  0  0  0  0
 21 19  1  0  0  0  0
 23 22  1  0  0  0  0
 23 25  1  0  0  0  0
 24 23  2  0  0  0  0
 25 27  1  0  0  0  0
 26 25  2  0  0  0  0
 27 29  1  0  0  0  0
 29 28  1  0  0  0  0
 30 31  1  0  0  0  0
 31 32  1  0  0  0  0
M  END
>  <MODEL>
7

>  <REMARK>
 VINA RESULT:      -4.9      3.933      8.301
  Name = 
  12 active torsions:
  status: ('A' for Active; 'I' for Inactive)
    1  A    between atoms: C_1  and  C_5
    2  A    between atoms: C_1  and  C_24
    3  A    between atoms: C_3  and  O_15
    4  A    between atoms: C_3  and  C_22
    5  A    between atoms: C_10  and  C_28
    6  A    between atoms: N_14  and  C_21
    7  A    between atoms: N_14  and  C_29
    8  A    between atoms: O_15  and  C_26
    9  A    between atoms: C_16  and  C_20
   10  A    between atoms: C_16  and  C_24
   11  A    between atoms: C_22  and  C_27
   12  A    between atoms: C_24  and  C_27
                            x       y       z     vdW  Elec       q    Type
                         _______ _______ _______ _____ _____    ______ ____

>  <TORSDO>
F 12

$$$$
=
 OpenBabel10272402103D

 32 34  0  0  1  0  0  0  0  0999 V2000
  186.5240  177.4410  136.2490 C   0  0  2  0  0  3  0  0  0  0  0  0
  185.6710  177.5020  137.5220 C   0  0  2  0  0  0  0  0  0  0  0  0
  186.3580  176.1740  135.3870 C   0  0  2  0  0  3  0  0  0  0  0  0
  187.1440  177.1130  137.6130 C   0  0  2  0  0  3  0  0  0  0  0  0
  185.0470  175.4190  135.6160 C   0  0  1  0  0  3  0  0  0  0  0  0
  187.4690  175.3290  135.5060 O   0  0  0  0  0  1  0  0  0  0  0  0
  184.7140  176.3590  137.8940 C   0  0  0  0  0  2  0  0  0  0  0  0
  184.9860  174.1820  134.7300 C   0  0  0  0  0  1  0  0  0  0  0  0
  184.9030  175.0740  137.0940 C   0  0  1  0  0  3  0  0  0  0  0  0
  190.2330  177.0120  137.5150 C   0  0  0  0  0  2  0  0  0  0  0  0
  189.1720  176.9820  139.9410 C   0  0  0  0  0  2  0  0  0  0  0  0
  188.3640  178.2110  139.5400 C   0  0  0  0  0  2  0  0  0  0  0  0
  188.0840  178.2460  138.0350 C   0  0  0  0  0  3  0  0  0  0  0  0
  190.8450  177.0680  139.2290 S   0  0  0  0  0  0  0  0  0  0  0  0
  189.3790  178.2410  137.2190 C   0  0  0  0  0  2  0  0  0  0  0  0
  185.2980  178.9040  138.0280 C   0  0  0  0  0  2  0  0  0  0  0  0
  184.2210  178.9320  139.1190 C   0  0  2  0  0  3  0  0  0  0  0  0
  183.2490  181.0930  138.8800 O   0  0  0  0  0  0  0  0  0  0  0  0
  183.0730  179.8470  138.8000 C   0  0  0  0  0  0  0  0  0  0  0  0
  181.5430  178.6920  137.2760 C   0  0  0  0  0  2  0  0  0  0  0  0
  181.7540  179.3060  138.4320 C   0  0  0  0  0  3  0  0  0  0  0  0
  184.8130  179.1380  140.5110 C   0  0  0  0  0  2  0  0  0  0  0  0
  184.1770  178.2230  141.5090 C   0  0  0  0  0  0  0  0  0  0  0  0
  183.3790  177.3330  141.1140 O   0  0  0  0  0  0  0  0  0  0  0  0
  184.4730  178.3550  142.9410 C   0  0  0  0  0  0  0  0  0  0  0  0
  183.5490  178.6330  143.7550 O   0  0  0  0  0  0  0  0  0  0  0  0
  185.7820  178.1760  143.3920 O   0  0  0  0  0  0  0  0  0  0  0  0
  187.5120  177.4010  144.8560 C   0  0  0  0  0  1  0  0  0  0  0  0
  186.0710  177.8510  144.7430 C   0  0  0  0  0  2  0  0  0  0  0  0
  183.7500  174.2130  137.3130 N   0  0  0  0  0  2  0  0  0  0  0  0
  182.6410  175.0720  137.6920 C   0  0  0  0  0  2  0  0  0  0  0  0
  181.4020  174.6640  136.9260 C   0  0  0  0  0  1  0  0  0  0  0  0
  1  2  1  0  0  0  0
  1  4  1  0  0  0  0
  2  4  1  0  0  0  0
  2  7  1  0  0  0  0
  2 16  1  0  0  0  0
  3  6  1  0  0  0  0
  3  5  1  0  0  0  0
  3  1  1  0  0  0  0
  4 13  1  0  0  0  0
  5  9  1  0  0  0  0
  8  5  1  0  0  0  0
  9 30  1  0  0  0  0
  9  7  1  0  0  0  0
 10 14  1  0  0  0  0
 12 11  1  0  0  0  0
 13 12  1  0  0  0  0
 14 11  1  0  0  0  0
 15 10  1  0  0  0  0
 15 13  1  0  0  0  0
 16 17  1  0  0  0  0
 17 22  1  0  0  0  0
 19 18  2  0  0  0  0
 19 17  1  0  0  0  0
 20 21  2  0  0  0  0
 21 19  1  0  0  0  0
 22 23  1  0  0  0  0
 23 25  1  0  0  0  0
 24 23  2  0  0  0  0
 25 27  1  0  0  0  0
 25 26  2  0  0  0  0
 27 29  1  0  0  0  0
 29 28  1  0  0  0  0
 30 31  1  0  0  0  0
 32 31  1  0  0  0  0
M  END
>  <MODEL>
8

>  <REMARK>
 VINA RESULT:      -4.9      3.252      7.762
  Name = 
  12 active torsions:
  status: ('A' for Active; 'I' for Inactive)
    1  A    between atoms: C_1  and  C_5
    2  A    between atoms: C_1  and  C_24
    3  A    between atoms: C_3  and  O_15
    4  A    between atoms: C_3  and  C_22
    5  A    between atoms: C_10  and  C_28
    6  A    between atoms: N_14  and  C_21
    7  A    between atoms: N_14  and  C_29
    8  A    between atoms: O_15  and  C_26
    9  A    between atoms: C_16  and  C_20
   10  A    between atoms: C_16  and  C_24
   11  A    between atoms: C_22  and  C_27
   12  A    between atoms: C_24  and  C_27
                            x       y       z     vdW  Elec       q    Type
                         _______ _______ _______ _____ _____    ______ ____

>  <TORSDO>
F 12

$$$$
=
 OpenBabel10272402103D

 32 34  0  0  1  0  0  0  0  0999 V2000
  183.7130  177.2890  136.4810 C   0  0  2  0  0  3  0  0  0  0  0  0
  184.9670  177.4020  137.3570 C   0  0  2  0  0  0  0  0  0  0  0  0
  182.4010  177.7910  137.1160 C   0  0  2  0  0  3  0  0  0  0  0  0
  184.2560  176.0580  137.2180 C   0  0  2  0  0  3  0  0  0  0  0  0
  182.5910  178.7730  138.2740 C   0  0  1  0  0  3  0  0  0  0  0  0
  181.5690  176.7220  137.4750 O   0  0  0  0  0  1  0  0  0  0  0  0
  184.8960  177.9840  138.7770 C   0  0  0  0  0  2  0  0  0  0  0  0
  181.2410  179.1970  138.8360 C   0  0  0  0  0  1  0  0  0  0  0  0
  183.4860  178.1470  139.3380 C   0  0  1  0  0  3  0  0  0  0  0  0
  182.9160  173.5180  136.0710 C   0  0  0  0  0  2  0  0  0  0  0  0
  184.9160  173.0870  137.7520 C   0  0  0  0  0  2  0  0  0  0  0  0
  185.7550  174.0420  136.9080 C   0  0  0  0  0  2  0  0  0  0  0  0
  184.8920  175.0960  136.2090 C   0  0  0  0  0  3  0  0  0  0  0  0
  183.8440  172.0770  136.6810 S   0  0  0  0  0  0  0  0  0  0  0  0
  183.8410  174.4540  135.3000 C   0  0  0  0  0  2  0  0  0  0  0  0
  186.3050  177.5520  136.6190 C   0  0  0  0  0  2  0  0  0  0  0  0
  187.5120  177.8350  137.5200 C   0  0  2  0  0  3  0  0  0  0  0  0
  188.9820  179.7000  137.3300 O   0  0  0  0  0  0  0  0  0  0  0  0
  188.6030  178.6060  136.8320 C   0  0  0  0  0  0  0  0  0  0  0  0
  189.7480  176.9120  135.4830 C   0  0  0  0  0  2  0  0  0  0  0  0
  189.2000  178.1160  135.5780 C   0  0  0  0  0  3  0  0  0  0  0  0
  187.9990  176.5830  138.2470 C   0  0  0  0  0  2  0  0  0  0  0  0
  189.0670  176.9150  139.2390 C   0  0  0  0  0  0  0  0  0  0  0  0
  190.2520  176.5470  139.0220 O   0  0  0  0  0  0  0  0  0  0  0  0
  188.7480  177.6650  140.4610 C   0  0  0  0  0  0  0  0  0  0  0  0
  188.2310  178.8130  140.3820 O   0  0  0  0  0  0  0  0  0  0  0  0
  189.0260  177.0990  141.7070 O   0  0  0  0  0  0  0  0  0  0  0  0
  187.8550  176.5370  143.7190 C   0  0  0  0  0  1  0  0  0  0  0  0
  188.5020  177.6400  142.9090 C   0  0  0  0  0  2  0  0  0  0  0  0
  183.5470  178.9910  140.5210 N   0  0  0  0  0  2  0  0  0  0  0  0
  184.8520  178.7860  141.1260 C   0  0  0  0  0  2  0  0  0  0  0  0
  184.6960  178.6340  142.6240 C   0  0  0  0  0  1  0  0  0  0  0  0
  1  3  1  0  0  0  0
  1  4  1  0  0  0  0
  1  2  1  0  0  0  0
  2  7  1  0  0  0  0
  3  6  1  0  0  0  0
  3  5  1  0  0  0  0
  4  2  1  0  0  0  0
  5  8  1  0  0  0  0
  5  9  1  0  0  0  0
  7  9  1  0  0  0  0
  9 30  1  0  0  0  0
 10 14  1  0  0  0  0
 12 11  1  0  0  0  0
 13 12  1  0  0  0  0
 13  4  1  0  0  0  0
 14 11  1  0  0  0  0
 15 10  1  0  0  0  0
 15 13  1  0  0  0  0
 16  2  1  0  0  0  0
 16 17  1  0  0  0  0
 17 22  1  0  0  0  0
 19 18  2  0  0  0  0
 19 17  1  0  0  0  0
 20 21  2  0  0  0  0
 21 19  1  0  0  0  0
 22 23  1  0  0  0  0
 23 25  1  0  0  0  0
 24 23  2  0  0  0  0
 25 27  1  0  0  0  0
 26 25  2  0  0  0  0
 27 29  1  0  0  0  0
 29 28  1  0  0  0  0
 30 31  1  0  0  0  0
 31 32  1  0  0  0  0
M  END
>  <MODEL>
9

>  <REMARK>
 VINA RESULT:      -4.8      2.904      5.361
  Name = 
  12 active torsions:
  status: ('A' for Active; 'I' for Inactive)
    1  A    between atoms: C_1  and  C_5
    2  A    between atoms: C_1  and  C_24
    3  A    between atoms: C_3  and  O_15
    4  A    between atoms: C_3  and  C_22
    5  A    between atoms: C_10  and  C_28
    6  A    between atoms: N_14  and  C_21
    7  A    between atoms: N_14  and  C_29
    8  A    between atoms: O_15  and  C_26
    9  A    between atoms: C_16  and  C_20
   10  A    between atoms: C_16  and  C_24
   11  A    between atoms: C_22  and  C_27
   12  A    between atoms: C_24  and  C_27
                            x       y       z     vdW  Elec       q    Type
                         _______ _______ _______ _____ _____    ______ ____

>  <TORSDO>
F 12

$$$$
