=
 OpenBabel10272401113D

 27 30  0  0  1  0  0  0  0  0999 V2000
  188.2130  177.6790  141.7580 C   0  0  2  0  0  3  0  0  0  0  0  0
  187.3760  177.9130  142.9580 C   0  0  0  0  0  0  0  0  0  0  0  0
  189.5420  177.4490  143.7090 C   0  0  2  0  0  3  0  0  0  0  0  0
  185.7510  178.1930  147.0470 S   0  0  0  0  0  0  0  0  0  0  0  0
  187.7490  177.7950  148.9860 C   0  0  0  0  0  1  0  0  0  0  0  0
  185.9910  178.1480  143.0270 C   0  0  0  0  0  3  0  0  0  0  0  0
  188.2000  177.7330  146.5290 N   0  0  0  0  0  0  0  0  0  0  0  0
  187.5530  177.8700  145.3440 C   0  0  0  0  0  0  0  0  0  0  0  0
  187.3370  177.8880  147.5620 C   0  0  0  0  0  0  0  0  0  0  0  0
  186.1900  178.1260  145.4300 C   0  0  0  0  0  0  0  0  0  0  0  0
  189.6060  177.5730  142.2380 N   0  0  0  0  0  0  0  0  0  0  0  0
  188.1430  177.7740  144.0840 C   0  0  0  0  0  0  0  0  0  0  0  0
  185.3830  178.2670  144.2940 C   0  0  0  0  0  3  0  0  0  0  0  0
  191.2310  179.3410  143.4650 C   0  0  0  0  0  1  0  0  0  0  0  0
  191.6140  177.5310  145.1230 C   0  0  0  0  0  1  0  0  0  0  0  0
  190.5620  178.3570  144.4100 C   0  0  0  0  0  3  0  0  0  0  0  0
  188.0550  178.7670  140.6890 C   0  0  0  0  0  2  0  0  0  0  0  0
  185.8030  177.5400  137.2460 C   0  0  0  0  0  3  0  0  0  0  0  0
  187.2730  178.3320  139.4910 C   0  0  0  0  0  0  0  0  0  0  0  0
  187.9150  177.7020  138.4170 C   0  0  0  0  0  3  0  0  0  0  0  0
  187.1800  177.3060  137.2970 C   0  0  0  0  0  3  0  0  0  0  0  0
  185.1600  178.1710  138.3160 C   0  0  0  0  0  3  0  0  0  0  0  0
  185.8950  178.5670  139.4370 C   0  0  0  0  0  3  0  0  0  0  0  0
  190.1460  176.3250  141.7240 C   0  0  0  0  0  2  0  0  0  0  0  0
  190.9140  176.5840  140.4750 C   0  0  0  0  0  0  0  0  0  0  0  0
  191.7470  177.5250  140.4330 O   0  0  0  0  0  1  0  0  0  0  0  0
  190.6790  175.8150  139.3430 O   0  0  0  0  0  0  0  0  0  0  0  0
  1 17  1  6  0  0  0
  1 11  1  0  0  0  0
  1  2  1  0  0  0  0
  2  6  2  0  0  0  0
  2 12  1  0  0  0  0
  3 12  1  0  0  0  0
  3 16  1  1  0  0  0
  4  9  1  0  0  0  0
  6 13  1  0  0  0  0
  7  9  2  0  0  0  0
  8 10  1  0  0  0  0
  8  7  1  0  0  0  0
  9  5  1  0  0  0  0
 10  4  1  0  0  0  0
 11  3  1  0  0  0  0
 12  8  2  0  0  0  0
 13 10  2  0  0  0  0
 14 16  1  0  0  0  0
 16 15  1  0  0  0  0
 18 21  2  0  0  0  0
 18 22  1  0  0  0  0
 19 17  1  0  0  0  0
 20 19  2  0  0  0  0
 21 20  1  0  0  0  0
 22 23  2  0  0  0  0
 23 19  1  0  0  0  0
 24 11  1  0  0  0  0
 25 24  1  0  0  0  0
 26 25  1  0  0  0  0
 27 25  2  0  0  0  0
M  END
>  <MODEL>
1

>  <REMARK>
 VINA RESULT:      -7.8      0.000      0.000
  Name = 
  5 active torsions:
  status: ('A' for Active; 'I' for Inactive)
    1  A    between atoms: C_1  and  C_15
    2  A    between atoms: C_3  and  C_26
    3  A    between atoms: C_9  and  C_15
    4  A    between atoms: C_10  and  C_24
    5  A    between atoms: N_18  and  C_24
                            x       y       z     vdW  Elec       q    Type
                         _______ _______ _______ _____ _____    ______ ____

>  <TORSDO>
F 5

$$$$
=
 OpenBabel10272401113D

 27 30  0  0  1  0  0  0  0  0999 V2000
  188.2430  178.1280  143.8310 C   0  0  2  0  0  3  0  0  0  0  0  0
  186.8760  178.1890  143.2620 C   0  0  0  0  0  0  0  0  0  0  0  0
  188.3730  178.4600  141.4860 C   0  0  2  0  0  3  0  0  0  0  0  0
  183.3380  178.7390  140.6910 S   0  0  0  0  0  0  0  0  0  0  0  0
  184.0620  179.1430  138.0040 C   0  0  0  0  0  1  0  0  0  0  0  0
  185.6440  178.1580  143.9400 C   0  0  0  0  0  3  0  0  0  0  0  0
  185.7310  178.7800  139.8270 N   0  0  0  0  0  0  0  0  0  0  0  0
  185.7870  178.5590  141.1650 C   0  0  0  0  0  0  0  0  0  0  0  0
  184.4450  178.8980  139.4170 C   0  0  0  0  0  0  0  0  0  0  0  0
  184.5600  178.5070  141.8150 C   0  0  0  0  0  0  0  0  0  0  0  0
  189.1700  178.1130  142.6810 N   0  0  0  0  0  0  0  0  0  0  0  0
  186.9530  178.3870  141.9100 C   0  0  0  0  0  0  0  0  0  0  0  0
  184.4550  178.3100  143.1980 C   0  0  0  0  0  3  0  0  0  0  0  0
  189.8330  176.5840  140.5690 C   0  0  0  0  0  1  0  0  0  0  0  0
  188.9580  178.3430  139.0480 C   0  0  0  0  0  1  0  0  0  0  0  0
  188.6790  177.5350  140.3000 C   0  0  0  0  0  3  0  0  0  0  0  0
  188.4590  176.9260  144.7580 C   0  0  0  0  0  2  0  0  0  0  0  0
  188.9910  177.9660  148.8900 C   0  0  0  0  0  3  0  0  0  0  0  0
  188.6500  177.2940  146.1950 C   0  0  0  0  0  0  0  0  0  0  0  0
  189.9270  177.2740  146.7670 C   0  0  0  0  0  3  0  0  0  0  0  0
  190.0980  177.6110  148.1130 C   0  0  0  0  0  3  0  0  0  0  0  0
  187.7130  177.9850  148.3210 C   0  0  0  0  0  3  0  0  0  0  0  0
  187.5430  177.6490  146.9750 C   0  0  0  0  0  3  0  0  0  0  0  0
  190.1290  179.1870  142.8860 C   0  0  0  0  0  2  0  0  0  0  0  0
  191.3440  178.6550  143.5630 C   0  0  0  0  0  0  0  0  0  0  0  0
  192.0390  179.4100  144.2910 O   0  0  0  0  0  1  0  0  0  0  0  0
  191.7340  177.3390  143.3570 O   0  0  0  0  0  0  0  0  0  0  0  0
  1 17  1  6  0  0  0
  2  1  1  0  0  0  0
  2  6  1  0  0  0  0
  3 16  1  6  0  0  0
  3 12  1  0  0  0  0
  3 11  1  0  0  0  0
  4 10  1  0  0  0  0
  5  9  1  0  0  0  0
  7  8  1  0  0  0  0
  8 10  2  0  0  0  0
  8 12  1  0  0  0  0
  9  7  2  0  0  0  0
  9  4  1  0  0  0  0
 10 13  1  0  0  0  0
 11 24  1  0  0  0  0
 11  1  1  0  0  0  0
 12  2  2  0  0  0  0
 13  6  2  0  0  0  0
 15 16  1  0  0  0  0
 16 14  1  0  0  0  0
 17 19  1  0  0  0  0
 19 20  2  0  0  0  0
 19 23  1  0  0  0  0
 20 21  1  0  0  0  0
 21 18  2  0  0  0  0
 22 18  1  0  0  0  0
 23 22  2  0  0  0  0
 24 25  1  0  0  0  0
 25 26  1  0  0  0  0
 27 25  2  0  0  0  0
M  END
>  <MODEL>
2

>  <REMARK>
 VINA RESULT:      -7.4      2.260      6.370
  Name = 
  5 active torsions:
  status: ('A' for Active; 'I' for Inactive)
    1  A    between atoms: C_1  and  C_15
    2  A    between atoms: C_3  and  C_26
    3  A    between atoms: C_9  and  C_15
    4  A    between atoms: C_10  and  C_24
    5  A    between atoms: N_18  and  C_24
                            x       y       z     vdW  Elec       q    Type
                         _______ _______ _______ _____ _____    ______ ____

>  <TORSDO>
F 5

$$$$
=
 OpenBabel10272401113D

 27 30  0  0  1  0  0  0  0  0999 V2000
  187.8530  178.1830  143.6930 C   0  0  2  0  0  3  0  0  0  0  0  0
  186.9630  178.2130  142.5090 C   0  0  0  0  0  0  0  0  0  0  0  0
  189.1600  178.1470  141.7150 C   0  0  2  0  0  3  0  0  0  0  0  0
  185.2430  178.5090  138.4610 S   0  0  0  0  0  0  0  0  0  0  0  0
  187.2400  178.4680  136.4810 C   0  0  0  0  0  1  0  0  0  0  0  0
  185.5620  178.3360  142.4710 C   0  0  0  0  0  3  0  0  0  0  0  0
  187.7380  178.3190  138.9250 N   0  0  0  0  0  0  0  0  0  0  0  0
  187.1000  178.3030  140.1230 C   0  0  0  0  0  0  0  0  0  0  0  0
  186.8440  178.4260  137.9120 C   0  0  0  0  0  0  0  0  0  0  0  0
  185.7150  178.4010  140.0660 C   0  0  0  0  0  0  0  0  0  0  0  0
  189.2180  177.9540  143.1780 N   0  0  0  0  0  0  0  0  0  0  0  0
  187.7180  178.1990  141.3680 C   0  0  0  0  0  0  0  0  0  0  0  0
  184.9190  178.4230  141.2190 C   0  0  0  0  0  3  0  0  0  0  0  0
  190.2580  175.8510  141.8340 C   0  0  0  0  0  1  0  0  0  0  0  0
  191.1590  177.5870  140.3030 C   0  0  0  0  0  1  0  0  0  0  0  0
  189.9060  177.0400  140.9560 C   0  0  0  0  0  3  0  0  0  0  0  0
  187.4460  177.1290  144.7300 C   0  0  0  0  0  2  0  0  0  0  0  0
  188.3580  178.2030  148.7850 C   0  0  0  0  0  3  0  0  0  0  0  0
  187.7710  177.5070  146.1390 C   0  0  0  0  0  0  0  0  0  0  0  0
  188.9980  177.1420  146.7050 C   0  0  0  0  0  3  0  0  0  0  0  0
  189.2920  177.4910  148.0260 C   0  0  0  0  0  3  0  0  0  0  0  0
  187.1300  178.5670  148.2230 C   0  0  0  0  0  3  0  0  0  0  0  0
  186.8370  178.2180  146.9010 C   0  0  0  0  0  3  0  0  0  0  0  0
  190.0650  179.0060  143.7180 C   0  0  0  0  0  2  0  0  0  0  0  0
  191.3560  178.4250  144.1810 C   0  0  0  0  0  0  0  0  0  0  0  0
  191.4630  177.1840  144.3510 O   0  0  0  0  0  0  0  0  0  0  0  0
  192.4280  179.2590  144.4680 O   0  0  0  0  0  1  0  0  0  0  0  0
  1 17  1  1  0  0  0
  2  1  1  0  0  0  0
  3 16  1  6  0  0  0
  3 11  1  0  0  0  0
  4 10  1  0  0  0  0
  5  9  1  0  0  0  0
  6  2  1  0  0  0  0
  7  8  1  0  0  0  0
  8 12  1  0  0  0  0
  9  4  1  0  0  0  0
  9  7  2  0  0  0  0
 10  8  2  0  0  0  0
 10 13  1  0  0  0  0
 11  1  1  0  0  0  0
 11 24  1  0  0  0  0
 12  3  1  0  0  0  0
 12  2  2  0  0  0  0
 13  6  2  0  0  0  0
 15 16  1  0  0  0  0
 16 14  1  0  0  0  0
 17 19  1  0  0  0  0
 19 20  2  0  0  0  0
 19 23  1  0  0  0  0
 20 21  1  0  0  0  0
 21 18  2  0  0  0  0
 22 18  1  0  0  0  0
 23 22  2  0  0  0  0
 24 25  1  0  0  0  0
 25 26  2  0  0  0  0
 25 27  1  0  0  0  0
M  END
>  <MODEL>
3

>  <REMARK>
 VINA RESULT:      -7.2      2.431      6.555
  Name = 
  5 active torsions:
  status: ('A' for Active; 'I' for Inactive)
    1  A    between atoms: C_1  and  C_15
    2  A    between atoms: C_3  and  C_26
    3  A    between atoms: C_9  and  C_15
    4  A    between atoms: C_10  and  C_24
    5  A    between atoms: N_18  and  C_24
                            x       y       z     vdW  Elec       q    Type
                         _______ _______ _______ _____ _____    ______ ____

>  <TORSDO>
F 5

$$$$
=
 OpenBabel10272401113D

 27 30  0  0  1  0  0  0  0  0999 V2000
  187.2410  177.9860  142.2300 C   0  0  2  0  0  3  0  0  0  0  0  0
  187.4260  177.8160  143.6890 C   0  0  0  0  0  0  0  0  0  0  0  0
  189.5210  177.5290  142.6920 C   0  0  2  0  0  3  0  0  0  0  0  0
  188.9480  176.9220  147.7290 S   0  0  0  0  0  0  0  0  0  0  0  0
  191.7130  176.4050  147.7040 C   0  0  0  0  0  1  0  0  0  0  0  0
  186.4490  177.8170  144.7010 C   0  0  0  0  0  3  0  0  0  0  0  0
  190.4100  176.9660  145.6460 N   0  0  0  0  0  0  0  0  0  0  0  0
  189.1450  177.2660  145.2600 C   0  0  0  0  0  0  0  0  0  0  0  0
  190.4610  176.7520  146.9830 C   0  0  0  0  0  0  0  0  0  0  0  0
  188.1960  177.2860  146.2750 C   0  0  0  0  0  0  0  0  0  0  0  0
  188.5940  177.9880  141.6380 N   0  0  0  0  0  0  0  0  0  0  0  0
  188.7410  177.5460  143.9550 C   0  0  0  0  0  0  0  0  0  0  0  0
  186.8440  177.5550  146.0300 C   0  0  0  0  0  3  0  0  0  0  0  0
  192.0550  177.5900  142.9520 C   0  0  0  0  0  1  0  0  0  0  0  0
  190.6610  179.4220  143.8840 C   0  0  0  0  0  1  0  0  0  0  0  0
  190.7830  178.4000  142.7710 C   0  0  0  0  0  3  0  0  0  0  0  0
  186.4530  179.2500  141.8630 C   0  0  0  0  0  2  0  0  0  0  0  0
  182.6140  178.4800  140.1010 C   0  0  0  0  0  3  0  0  0  0  0  0
  185.1190  178.9760  141.2450 C   0  0  0  0  0  0  0  0  0  0  0  0
  184.9700  178.9760  139.8530 C   0  0  0  0  0  3  0  0  0  0  0  0
  183.7200  178.7270  139.2820 C   0  0  0  0  0  3  0  0  0  0  0  0
  182.7590  178.4820  141.4920 C   0  0  0  0  0  3  0  0  0  0  0  0
  184.0110  178.7290  142.0630 C   0  0  0  0  0  3  0  0  0  0  0  0
  188.6070  176.9830  140.5860 C   0  0  0  0  0  2  0  0  0  0  0  0
  188.4820  177.6430  139.2570 C   0  0  0  0  0  0  0  0  0  0  0  0
  188.1080  176.9780  138.2570 O   0  0  0  0  0  0  0  0  0  0  0  0
  188.8210  178.9820  139.1120 O   0  0  0  0  0  1  0  0  0  0  0  0
  1 17  1  1  0  0  0
  1  2  1  0  0  0  0
  2 12  2  0  0  0  0
  2  6  1  0  0  0  0
  3 16  1  1  0  0  0
  3 12  1  0  0  0  0
  6 13  2  0  0  0  0
  7  9  2  0  0  0  0
  8  7  1  0  0  0  0
  8 10  2  0  0  0  0
  9  5  1  0  0  0  0
  9  4  1  0  0  0  0
 10  4  1  0  0  0  0
 11  1  1  0  0  0  0
 11  3  1  0  0  0  0
 12  8  1  0  0  0  0
 13 10  1  0  0  0  0
 16 14  1  0  0  0  0
 16 15  1  0  0  0  0
 18 22  1  0  0  0  0
 19 17  1  0  0  0  0
 19 23  1  0  0  0  0
 20 19  2  0  0  0  0
 21 20  1  0  0  0  0
 21 18  2  0  0  0  0
 22 23  2  0  0  0  0
 24 11  1  0  0  0  0
 25 24  1  0  0  0  0
 26 25  2  0  0  0  0
 27 25  1  0  0  0  0
M  END
>  <MODEL>
4

>  <REMARK>
 VINA RESULT:      -7.2      2.036      2.832
  Name = 
  5 active torsions:
  status: ('A' for Active; 'I' for Inactive)
    1  A    between atoms: C_1  and  C_15
    2  A    between atoms: C_3  and  C_26
    3  A    between atoms: C_9  and  C_15
    4  A    between atoms: C_10  and  C_24
    5  A    between atoms: N_18  and  C_24
                            x       y       z     vdW  Elec       q    Type
                         _______ _______ _______ _____ _____    ______ ____

>  <TORSDO>
F 5

$$$$
=
 OpenBabel10272401113D

 27 30  0  0  1  0  0  0  0  0999 V2000
  188.1970  177.7980  143.7960 C   0  0  2  0  0  3  0  0  0  0  0  0
  188.5120  177.7290  142.3500 C   0  0  0  0  0  0  0  0  0  0  0  0
  190.4870  177.2540  143.5080 C   0  0  2  0  0  3  0  0  0  0  0  0
  190.4770  177.5170  138.4100 S   0  0  0  0  0  0  0  0  0  0  0  0
  193.2070  176.8820  138.6460 C   0  0  0  0  0  1  0  0  0  0  0  0
  187.6740  178.0150  141.2570 C   0  0  0  0  0  3  0  0  0  0  0  0
  191.6820  177.1050  140.6130 N   0  0  0  0  0  0  0  0  0  0  0  0
  190.3860  177.3800  140.9050 C   0  0  0  0  0  0  0  0  0  0  0  0
  191.8860  177.1420  139.2740 C   0  0  0  0  0  0  0  0  0  0  0  0
  189.5670  177.6360  139.8130 C   0  0  0  0  0  0  0  0  0  0  0  0
  189.3990  177.3160  144.5060 N   0  0  0  0  0  0  0  0  0  0  0  0
  189.8350  177.4210  142.1850 C   0  0  0  0  0  0  0  0  0  0  0  0
  188.2110  177.9580  139.9540 C   0  0  0  0  0  3  0  0  0  0  0  0
  190.4500  174.7140  143.3120 C   0  0  0  0  0  1  0  0  0  0  0  0
  191.9350  175.8170  144.9700 C   0  0  0  0  0  1  0  0  0  0  0  0
  191.2870  175.9470  143.6070 C   0  0  0  0  0  3  0  0  0  0  0  0
  186.9440  177.0010  144.1810 C   0  0  0  0  0  2  0  0  0  0  0  0
  183.3590  179.3540  144.3980 C   0  0  0  0  0  3  0  0  0  0  0  0
  185.7000  177.8270  144.2600 C   0  0  0  0  0  0  0  0  0  0  0  0
  185.2630  178.3330  145.4900 C   0  0  0  0  0  3  0  0  0  0  0  0
  184.0950  179.0970  145.5590 C   0  0  0  0  0  3  0  0  0  0  0  0
  183.7920  178.8470  143.1680 C   0  0  0  0  0  3  0  0  0  0  0  0
  184.9620  178.0840  143.1000 C   0  0  0  0  0  3  0  0  0  0  0  0
  189.7640  178.3340  145.4780 C   0  0  0  0  0  2  0  0  0  0  0  0
  189.4020  177.8760  146.8480 C   0  0  0  0  0  0  0  0  0  0  0  0
  190.2250  177.2080  147.5260 O   0  0  0  0  0  1  0  0  0  0  0  0
  188.1410  178.1480  147.3600 O   0  0  0  0  0  0  0  0  0  0  0  0
  1 17  1  6  0  0  0
  1 11  1  0  0  0  0
  2  1  1  0  0  0  0
  3 16  1  6  0  0  0
  3 11  1  0  0  0  0
  4  9  1  0  0  0  0
  4 10  1  0  0  0  0
  5  9  1  0  0  0  0
  6  2  2  0  0  0  0
  7  8  1  0  0  0  0
  8 12  2  0  0  0  0
  9  7  2  0  0  0  0
 10 13  2  0  0  0  0
 10  8  1  0  0  0  0
 11 24  1  0  0  0  0
 12  2  1  0  0  0  0
 12  3  1  0  0  0  0
 13  6  1  0  0  0  0
 14 16  1  0  0  0  0
 16 15  1  0  0  0  0
 17 19  1  0  0  0  0
 18 21  1  0  0  0  0
 19 20  1  0  0  0  0
 20 21  2  0  0  0  0
 22 18  2  0  0  0  0
 23 22  1  0  0  0  0
 23 19  2  0  0  0  0
 24 25  1  0  0  0  0
 25 27  2  0  0  0  0
 25 26  1  0  0  0  0
M  END
>  <MODEL>
5

>  <REMARK>
 VINA RESULT:      -6.9      3.372      6.086
  Name = 
  5 active torsions:
  status: ('A' for Active; 'I' for Inactive)
    1  A    between atoms: C_1  and  C_15
    2  A    between atoms: C_3  and  C_26
    3  A    between atoms: C_9  and  C_15
    4  A    between atoms: C_10  and  C_24
    5  A    between atoms: N_18  and  C_24
                            x       y       z     vdW  Elec       q    Type
                         _______ _______ _______ _____ _____    ______ ____

>  <TORSDO>
F 5

$$$$
=
 OpenBabel10272401113D

 27 30  0  0  1  0  0  0  0  0999 V2000
  189.8330  176.8970  141.6130 C   0  0  2  0  0  3  0  0  0  0  0  0
  188.4990  177.5330  141.5110 C   0  0  0  0  0  0  0  0  0  0  0  0
  188.8410  177.0100  143.7640 C   0  0  2  0  0  3  0  0  0  0  0  0
  184.4220  179.0510  142.2220 S   0  0  0  0  0  0  0  0  0  0  0  0
  183.7270  178.9160  144.9440 C   0  0  0  0  0  1  0  0  0  0  0  0
  187.8150  177.9490  140.3540 C   0  0  0  0  0  3  0  0  0  0  0  0
  185.9430  178.1720  144.0630 N   0  0  0  0  0  0  0  0  0  0  0  0
  186.6260  178.0800  142.8940 C   0  0  0  0  0  0  0  0  0  0  0  0
  184.7100  178.6930  143.8540 C   0  0  0  0  0  0  0  0  0  0  0  0
  185.9450  178.5180  141.7650 C   0  0  0  0  0  0  0  0  0  0  0  0
  190.1100  176.7440  143.0550 N   0  0  0  0  0  0  0  0  0  0  0  0
  187.9250  177.5920  142.7510 C   0  0  0  0  0  0  0  0  0  0  0  0
  186.5080  178.4640  140.4840 C   0  0  0  0  0  3  0  0  0  0  0  0
  190.2990  178.7730  144.8840 C   0  0  0  0  0  1  0  0  0  0  0  0
  189.0420  177.1330  146.2630 C   0  0  0  0  0  1  0  0  0  0  0  0
  189.0370  177.9320  144.9750 C   0  0  0  0  0  3  0  0  0  0  0  0
  190.9360  177.6860  140.8970 C   0  0  0  0  0  2  0  0  0  0  0  0
  192.4770  175.7430  137.3920 C   0  0  0  0  0  3  0  0  0  0  0  0
  191.4780  177.0050  139.6810 C   0  0  0  0  0  0  0  0  0  0  0  0
  192.8420  177.0840  139.3740 C   0  0  0  0  0  3  0  0  0  0  0  0
  193.3410  176.4530  138.2320 C   0  0  0  0  0  3  0  0  0  0  0  0
  191.1140  175.6640  137.6950 C   0  0  0  0  0  3  0  0  0  0  0  0
  190.6160  176.2950  138.8390 C   0  0  0  0  0  3  0  0  0  0  0  0
  190.4470  175.3490  143.2860 C   0  0  0  0  0  2  0  0  0  0  0  0
  191.6580  175.2580  144.1480 C   0  0  0  0  0  0  0  0  0  0  0  0
  192.2740  174.1670  144.2540 O   0  0  0  0  0  0  0  0  0  0  0  0
  192.0810  176.3660  144.8680 O   0  0  0  0  0  1  0  0  0  0  0  0
  1 17  1  1  0  0  0
  1 11  1  0  0  0  0
  2  1  1  0  0  0  0
  2 12  1  0  0  0  0
  3 16  1  1  0  0  0
  4  9  1  0  0  0  0
  6 13  1  0  0  0  0
  6  2  2  0  0  0  0
  8  7  1  0  0  0  0
  9  7  2  0  0  0  0
  9  5  1  0  0  0  0
 10  4  1  0  0  0  0
 10  8  1  0  0  0  0
 11 24  1  0  0  0  0
 11  3  1  0  0  0  0
 12  8  2  0  0  0  0
 12  3  1  0  0  0  0
 13 10  2  0  0  0  0
 14 16  1  0  0  0  0
 16 15  1  0  0  0  0
 18 22  2  0  0  0  0
 18 21  1  0  0  0  0
 19 17  1  0  0  0  0
 20 19  1  0  0  0  0
 21 20  2  0  0  0  0
 22 23  1  0  0  0  0
 23 19  2  0  0  0  0
 24 25  1  0  0  0  0
 25 26  2  0  0  0  0
 25 27  1  0  0  0  0
M  END
>  <MODEL>
6

>  <REMARK>
 VINA RESULT:      -6.9      2.431      4.101
  Name = 
  5 active torsions:
  status: ('A' for Active; 'I' for Inactive)
    1  A    between atoms: C_1  and  C_15
    2  A    between atoms: C_3  and  C_26
    3  A    between atoms: C_9  and  C_15
    4  A    between atoms: C_10  and  C_24
    5  A    between atoms: N_18  and  C_24
                            x       y       z     vdW  Elec       q    Type
                         _______ _______ _______ _____ _____    ______ ____

>  <TORSDO>
F 5

$$$$
=
 OpenBabel10272401113D

 27 30  0  0  1  0  0  0  0  0999 V2000
  188.9040  177.4800  143.2280 C   0  0  2  0  0  3  0  0  0  0  0  0
  189.3500  177.5310  141.8170 C   0  0  0  0  0  0  0  0  0  0  0  0
  187.0420  177.9010  141.8210 C   0  0  2  0  0  3  0  0  0  0  0  0
  189.6100  177.6340  137.4170 S   0  0  0  0  0  0  0  0  0  0  0  0
  187.1030  178.1220  136.2420 C   0  0  0  0  0  1  0  0  0  0  0  0
  190.6340  177.2890  141.2960 C   0  0  0  0  0  3  0  0  0  0  0  0
  187.4480  177.9820  138.7120 N   0  0  0  0  0  0  0  0  0  0  0  0
  188.4360  177.7780  139.6200 C   0  0  0  0  0  0  0  0  0  0  0  0
  187.9430  177.9340  137.4520 C   0  0  0  0  0  0  0  0  0  0  0  0
  189.7020  177.5650  139.0900 C   0  0  0  0  0  0  0  0  0  0  0  0
  187.4870  177.8980  143.2300 N   0  0  0  0  0  0  0  0  0  0  0  0
  188.2740  177.7680  141.0050 C   0  0  0  0  0  0  0  0  0  0  0  0
  190.8190  177.3150  139.8980 C   0  0  0  0  0  3  0  0  0  0  0  0
  185.8170  179.9570  142.6950 C   0  0  0  0  0  1  0  0  0  0  0  0
  185.0250  178.8130  140.6370 C   0  0  0  0  0  1  0  0  0  0  0  0
  186.2410  179.1640  141.4710 C   0  0  0  0  0  3  0  0  0  0  0  0
  189.7580  178.3430  144.1650 C   0  0  0  0  0  2  0  0  0  0  0  0
  191.4270  176.1720  147.4710 C   0  0  0  0  0  3  0  0  0  0  0  0
  190.3470  177.5900  145.3150 C   0  0  0  0  0  0  0  0  0  0  0  0
  191.4420  176.7400  145.1180 C   0  0  0  0  0  3  0  0  0  0  0  0
  191.9820  176.0330  146.1950 C   0  0  0  0  0  3  0  0  0  0  0  0
  190.3310  177.0180  147.6700 C   0  0  0  0  0  3  0  0  0  0  0  0
  189.7920  177.7270  146.5920 C   0  0  0  0  0  3  0  0  0  0  0  0
  186.7320  176.8630  143.9170 C   0  0  0  0  0  2  0  0  0  0  0  0
  186.1230  177.4230  145.1560 C   0  0  0  0  0  0  0  0  0  0  0  0
  186.7090  177.2870  146.2610 O   0  0  0  0  0  1  0  0  0  0  0  0
  184.8890  178.0550  145.0990 O   0  0  0  0  0  0  0  0  0  0  0  0
  1 11  1  0  0  0  0
  1 17  1  1  0  0  0
  2  1  1  0  0  0  0
  3 16  1  6  0  0  0
  3 11  1  0  0  0  0
  4  9  1  0  0  0  0
  4 10  1  0  0  0  0
  5  9  1  0  0  0  0
  6  2  1  0  0  0  0
  7  8  1  0  0  0  0
  8 12  1  0  0  0  0
  9  7  2  0  0  0  0
 10  8  2  0  0  0  0
 10 13  1  0  0  0  0
 11 24  1  0  0  0  0
 12  2  2  0  0  0  0
 12  3  1  0  0  0  0
 13  6  2  0  0  0  0
 15 16  1  0  0  0  0
 16 14  1  0  0  0  0
 17 19  1  0  0  0  0
 18 22  1  0  0  0  0
 19 23  1  0  0  0  0
 20 19  2  0  0  0  0
 20 21  1  0  0  0  0
 21 18  2  0  0  0  0
 23 22  2  0  0  0  0
 24 25  1  0  0  0  0
 25 26  1  0  0  0  0
 27 25  2  0  0  0  0
M  END
>  <MODEL>
7

>  <REMARK>
 VINA RESULT:      -6.8      3.406      7.425
  Name = 
  5 active torsions:
  status: ('A' for Active; 'I' for Inactive)
    1  A    between atoms: C_1  and  C_15
    2  A    between atoms: C_3  and  C_26
    3  A    between atoms: C_9  and  C_15
    4  A    between atoms: C_10  and  C_24
    5  A    between atoms: N_18  and  C_24
                            x       y       z     vdW  Elec       q    Type
                         _______ _______ _______ _____ _____    ______ ____

>  <TORSDO>
F 5

$$$$
=
 OpenBabel10272401113D

 27 30  0  0  1  0  0  0  0  0999 V2000
  188.6530  177.7170  141.1190 C   0  0  2  0  0  3  0  0  0  0  0  0
  187.3610  178.1090  141.7280 C   0  0  0  0  0  0  0  0  0  0  0  0
  188.7990  177.5290  143.4780 C   0  0  2  0  0  3  0  0  0  0  0  0
  183.9570  178.8330  144.4330 S   0  0  0  0  0  0  0  0  0  0  0  0
  184.6650  178.4210  147.1240 C   0  0  0  0  0  1  0  0  0  0  0  0
  186.1610  178.4610  141.0840 C   0  0  0  0  0  3  0  0  0  0  0  0
  186.2700  178.1360  145.2310 N   0  0  0  0  0  0  0  0  0  0  0  0
  186.3200  178.2340  143.8780 C   0  0  0  0  0  0  0  0  0  0  0  0
  185.0300  178.4390  145.6840 C   0  0  0  0  0  0  0  0  0  0  0  0
  185.1330  178.6060  143.2600 C   0  0  0  0  0  0  0  0  0  0  0  0
  189.6010  177.5350  142.2370 N   0  0  0  0  0  0  0  0  0  0  0  0
  187.4450  177.9940  143.0890 C   0  0  0  0  0  0  0  0  0  0  0  0
  185.0200  178.7260  141.8690 C   0  0  0  0  0  3  0  0  0  0  0  0
  190.6050  179.2220  144.0800 C   0  0  0  0  0  1  0  0  0  0  0  0
  189.8490  177.5540  145.7580 C   0  0  0  0  0  1  0  0  0  0  0  0
  189.4270  178.4010  144.5750 C   0  0  0  0  0  3  0  0  0  0  0  0
  189.1690  178.7290  140.0890 C   0  0  0  0  0  2  0  0  0  0  0  0
  189.7600  177.0580  136.1790 C   0  0  0  0  0  3  0  0  0  0  0  0
  189.3760  178.1550  138.7240 C   0  0  0  0  0  0  0  0  0  0  0  0
  188.6500  178.6440  137.6320 C   0  0  0  0  0  3  0  0  0  0  0  0
  188.8420  178.0970  136.3600 C   0  0  0  0  0  3  0  0  0  0  0  0
  190.4850  176.5650  137.2690 C   0  0  0  0  0  3  0  0  0  0  0  0
  190.2930  177.1140  138.5400 C   0  0  0  0  0  3  0  0  0  0  0  0
  190.1850  176.2110  142.0960 C   0  0  0  0  0  2  0  0  0  0  0  0
  191.5370  176.1880  142.7200 C   0  0  0  0  0  0  0  0  0  0  0  0
  192.4560  176.9100  142.2560 O   0  0  0  0  0  0  0  0  0  0  0  0
  191.7950  175.3370  143.7860 O   0  0  0  0  0  1  0  0  0  0  0  0
  1 17  1  6  0  0  0
  1  2  1  0  0  0  0
  1 11  1  0  0  0  0
  2 12  1  0  0  0  0
  3 16  1  1  0  0  0
  4  9  1  0  0  0  0
  6  2  2  0  0  0  0
  6 13  1  0  0  0  0
  7  9  2  0  0  0  0
  8  7  1  0  0  0  0
  9  5  1  0  0  0  0
 10  8  1  0  0  0  0
 10  4  1  0  0  0  0
 11  3  1  0  0  0  0
 12  3  1  0  0  0  0
 12  8  2  0  0  0  0
 13 10  2  0  0  0  0
 14 16  1  0  0  0  0
 16 15  1  0  0  0  0
 18 21  2  0  0  0  0
 18 22  1  0  0  0  0
 19 17  1  0  0  0  0
 20 19  2  0  0  0  0
 21 20  1  0  0  0  0
 22 23  2  0  0  0  0
 23 19  1  0  0  0  0
 24 11  1  0  0  0  0
 24 25  1  0  0  0  0
 25 27  1  0  0  0  0
 26 25  2  0  0  0  0
M  END
>  <MODEL>
8

>  <REMARK>
 VINA RESULT:      -6.8      1.967      2.610
  Name = 
  5 active torsions:
  status: ('A' for Active; 'I' for Inactive)
    1  A    between atoms: C_1  and  C_15
    2  A    between atoms: C_3  and  C_26
    3  A    between atoms: C_9  and  C_15
    4  A    between atoms: C_10  and  C_24
    5  A    between atoms: N_18  and  C_24
                            x       y       z     vdW  Elec       q    Type
                         _______ _______ _______ _____ _____    ______ ____

>  <TORSDO>
F 5

$$$$
=
 OpenBabel10272401113D

 27 30  0  0  1  0  0  0  0  0999 V2000
  188.3340  177.9650  146.0610 C   0  0  2  0  0  3  0  0  0  0  0  0
  186.9150  178.1410  145.6740 C   0  0  0  0  0  0  0  0  0  0  0  0
  188.1500  177.9610  143.6960 C   0  0  2  0  0  3  0  0  0  0  0  0
  183.1230  178.8350  143.5360 S   0  0  0  0  0  0  0  0  0  0  0  0
  183.4800  178.7750  140.7470 C   0  0  0  0  0  1  0  0  0  0  0  0
  185.8040  178.3730  146.5040 C   0  0  0  0  0  3  0  0  0  0  0  0
  185.3470  178.4260  142.3690 N   0  0  0  0  0  0  0  0  0  0  0  0
  185.5760  178.3790  143.7060 C   0  0  0  0  0  0  0  0  0  0  0  0
  184.0380  178.6680  142.1190 C   0  0  0  0  0  0  0  0  0  0  0  0
  184.4630  178.5860  144.5120 C   0  0  0  0  0  0  0  0  0  0  0  0
  189.0700  177.6670  144.8150 N   0  0  0  0  0  0  0  0  0  0  0  0
  186.8110  178.1450  144.3090 C   0  0  0  0  0  0  0  0  0  0  0  0
  184.5430  178.5910  145.9110 C   0  0  0  0  0  3  0  0  0  0  0  0
  188.9510  175.6280  143.0600 C   0  0  0  0  0  1  0  0  0  0  0  0
  188.6970  177.3790  141.3170 C   0  0  0  0  0  1  0  0  0  0  0  0
  188.1610  176.8530  142.6330 C   0  0  0  0  0  3  0  0  0  0  0  0
  188.5410  176.8780  147.1230 C   0  0  0  0  0  2  0  0  0  0  0  0
  192.6440  176.2570  148.2250 C   0  0  0  0  0  3  0  0  0  0  0  0
  189.9720  176.6610  147.4990 C   0  0  0  0  0  0  0  0  0  0  0  0
  190.6320  175.4840  147.1240 C   0  0  0  0  0  3  0  0  0  0  0  0
  191.9660  175.2840  147.4850 C   0  0  0  0  0  3  0  0  0  0  0  0
  191.9860  177.4330  148.6030 C   0  0  0  0  0  3  0  0  0  0  0  0
  190.6510  177.6330  148.2400 C   0  0  0  0  0  3  0  0  0  0  0  0
  190.1700  178.6130  144.7270 C   0  0  0  0  0  2  0  0  0  0  0  0
  191.2990  178.0040  143.9700 C   0  0  0  0  0  0  0  0  0  0  0  0
  191.6690  178.5070  142.8780 O   0  0  0  0  0  0  0  0  0  0  0  0
  191.9150  176.8560  144.4490 O   0  0  0  0  0  1  0  0  0  0  0  0
  1 17  1  1  0  0  0
  2  1  1  0  0  0  0
  2  6  1  0  0  0  0
  3 16  1  6  0  0  0
  3 12  1  0  0  0  0
  3 11  1  0  0  0  0
  4 10  1  0  0  0  0
  5  9  1  0  0  0  0
  7  8  1  0  0  0  0
  8 12  1  0  0  0  0
  8 10  2  0  0  0  0
  9  7  2  0  0  0  0
  9  4  1  0  0  0  0
 10 13  1  0  0  0  0
 11  1  1  0  0  0  0
 12  2  2  0  0  0  0
 13  6  2  0  0  0  0
 15 16  1  0  0  0  0
 16 14  1  0  0  0  0
 17 19  1  0  0  0  0
 18 22  1  0  0  0  0
 19 23  1  0  0  0  0
 20 21  1  0  0  0  0
 20 19  2  0  0  0  0
 21 18  2  0  0  0  0
 23 22  2  0  0  0  0
 24 11  1  0  0  0  0
 25 27  1  0  0  0  0
 25 24  1  0  0  0  0
 26 25  2  0  0  0  0
M  END
>  <MODEL>
9

>  <REMARK>
 VINA RESULT:      -6.8      2.428      6.430
  Name = 
  5 active torsions:
  status: ('A' for Active; 'I' for Inactive)
    1  A    between atoms: C_1  and  C_15
    2  A    between atoms: C_3  and  C_26
    3  A    between atoms: C_9  and  C_15
    4  A    between atoms: C_10  and  C_24
    5  A    between atoms: N_18  and  C_24
                            x       y       z     vdW  Elec       q    Type
                         _______ _______ _______ _____ _____    ______ ____

>  <TORSDO>
F 5

$$$$
