=
 OpenBabel10272402133D

 32 37  0  0  0  0  0  0  0  0999 V2000
  189.5860  177.1170  143.1830 C   0  0  0  0  0  0  0  0  0  0  0  0
  187.7760  177.5580  144.7730 C   0  0  0  0  0  0  0  0  0  0  0  0
  190.8900  176.6530  142.9510 C   0  0  0  0  0  3  0  0  0  0  0  0
  189.0950  177.1450  144.5120 C   0  0  0  0  0  0  0  0  0  0  0  0
  187.2980  177.6150  146.1000 C   0  0  0  0  0  0  0  0  0  0  0  0
  183.3650  178.9250  143.2020 C   0  0  0  0  0  3  0  0  0  0  0  0
  186.9180  177.8950  143.6980 C   0  0  0  0  0  0  0  0  0  0  0  0
  183.7840  178.6270  145.5680 C   0  0  0  0  0  3  0  0  0  0  0  0
  185.1090  178.2790  145.2950 C   0  0  0  0  0  0  0  0  0  0  0  0
  189.9090  176.7050  145.5700 C   0  0  0  0  0  0  0  0  0  0  0  0
  185.9700  177.9720  146.3470 C   0  0  0  0  0  3  0  0  0  0  0  0
  189.4150  176.6910  146.8790 O   0  0  0  0  0  0  0  0  0  0  0  0
  191.2040  176.2480  145.3150 C   0  0  0  0  0  3  0  0  0  0  0  0
  187.4190  177.8680  142.3890 C   0  0  0  0  0  2  0  0  0  0  0  0
  188.7430  177.5070  142.1190 C   0  0  0  0  0  0  0  0  0  0  0  0
  185.5780  178.2510  143.9580 C   0  0  0  0  0  0  0  0  0  0  0  0
  188.2270  177.3920  147.2650 C   0  0  0  0  0  0  0  0  0  0  0  0
  191.6950  176.2260  144.0090 C   0  0  0  0  0  3  0  0  0  0  0  0
  182.9130  178.9500  144.5230 C   0  0  0  0  0  3  0  0  0  0  0  0
  184.6890  178.5790  142.9200 C   0  0  0  0  0  3  0  0  0  0  0  0
  188.9030  178.1150  138.3740 C   0  0  0  0  0  0  0  0  0  0  0  0
  188.1860  178.7140  137.3910 F   0  0  0  0  0  0  0  0  0  0  0  0
  189.1970  177.5130  140.7110 C   0  0  0  0  0  0  0  0  0  0  0  0
  190.1020  177.4700  138.0570 C   0  0  0  0  0  3  0  0  0  0  0  0
  190.3910  176.8590  140.3770 C   0  0  0  0  0  3  0  0  0  0  0  0
  188.4410  178.1320  139.6950 C   0  0  0  0  0  0  0  0  0  0  0  0
  187.2270  178.7450  139.9870 O   0  0  0  0  0  1  0  0  0  0  0  0
  190.8500  176.8350  139.0590 C   0  0  0  0  0  0  0  0  0  0  0  0
  192.8210  176.4590  137.6120 C   0  0  0  0  0  1  0  0  0  0  0  0
  192.0490  176.1770  138.7710 O   0  0  0  0  0  0  0  0  0  0  0  0
  188.6060  178.7300  147.8830 C   0  0  0  0  0  2  0  0  0  0  0  0
  189.5780  178.5390  148.8660 O   0  0  0  0  0  1  0  0  0  0  0  0
  1  4  1  0  0  0  0
  2  5  1  0  0  0  0
  3  1  1  0  0  0  0
  3 18  2  0  0  0  0
  4  2  2  0  0  0  0
  4 10  1  0  0  0  0
  5 11  1  0  0  0  0
  5 17  2  0  0  0  0
  6 19  1  0  0  0  0
  7 16  2  0  0  0  0
  7  2  1  0  0  0  0
  9  8  1  0  0  0  0
  9 11  2  0  0  0  0
 10 12  1  0  0  0  0
 12 17  1  0  0  0  0
 13 10  2  0  0  0  0
 14  7  1  0  0  0  0
 15 14  1  0  0  0  0
 15  1  2  0  0  0  0
 16  9  1  0  0  0  0
 17 31  1  0  0  0  0
 18 13  1  0  0  0  0
 19  8  2  0  0  0  0
 20  6  2  0  0  0  0
 20 16  1  0  0  0  0
 21 26  1  0  0  0  0
 22 21  1  0  0  0  0
 23 15  1  0  0  0  0
 24 21  2  0  0  0  0
 24 28  1  0  0  0  0
 25 23  1  0  0  0  0
 26 27  1  0  0  0  0
 26 23  2  0  0  0  0
 28 25  2  0  0  0  0
 29 30  1  0  0  0  0
 30 28  1  0  0  0  0
 31 32  1  0  0  0  0
M  END
>  <MODEL>
1

>  <REMARK>
 VINA RESULT:     -12.1      0.000      0.000
  Name = 
  3 active torsions:
  status: ('A' for Active; 'I' for Inactive)
    1  A    between atoms: C_13  and  C_29
    2  A    between atoms: O_15  and  C_26
    3  A    between atoms: C_16  and  C_27
                            x       y       z     vdW  Elec       q    Type
                         _______ _______ _______ _____ _____    ______ ____

>  <TORSDO>
F 3

$$$$
=
 OpenBabel10272402133D

 32 37  0  0  1  0  0  0  0  0999 V2000
  190.0250  176.8300  144.1240 C   0  0  0  0  0  0  0  0  0  0  0  0
  187.9420  177.4340  145.2620 C   0  0  0  0  0  0  0  0  0  0  0  0
  191.3220  176.2980  144.2000 C   0  0  0  0  0  3  0  0  0  0  0  0
  189.2620  176.9520  145.3120 C   0  0  0  0  0  0  0  0  0  0  0  0
  187.1940  177.5840  146.4490 C   0  0  0  0  0  0  0  0  0  0  0  0
  184.0520  178.9030  142.7130 C   0  0  0  0  0  3  0  0  0  0  0  0
  187.3540  177.7490  144.0130 C   0  0  0  0  0  0  0  0  0  0  0  0
  183.9370  178.7170  145.1230 C   0  0  0  0  0  3  0  0  0  0  0  0
  185.2690  178.2970  145.1600 C   0  0  0  0  0  0  0  0  0  0  0  0
  189.8060  176.5350  146.5400 C   0  0  0  0  0  0  0  0  0  0  0  0
  185.8660  178.0120  146.3870 C   0  0  0  0  0  3  0  0  0  0  0  0
  189.0420  176.6140  147.7090 O   0  0  0  0  0  0  0  0  0  0  0  0
  191.0980  176.0090  146.5920 C   0  0  0  0  0  3  0  0  0  0  0  0
  188.1230  177.6290  142.8460 C   0  0  0  0  0  3  0  0  0  0  0  0
  189.4530  177.1970  142.8850 C   0  0  0  0  0  0  0  0  0  0  0  0
  186.0110  178.1770  143.9600 C   0  0  0  0  0  0  0  0  0  0  0  0
  187.8390  177.3850  147.7970 C   0  0  1  0  0  3  0  0  0  0  0  0
  191.8560  175.8950  145.4260 C   0  0  0  0  0  3  0  0  0  0  0  0
  183.3290  179.0190  143.9020 C   0  0  0  0  0  3  0  0  0  0  0  0
  185.3850  178.4860  142.7400 C   0  0  0  0  0  3  0  0  0  0  0  0
  192.1820  177.4980  140.2620 C   0  0  0  0  0  0  0  0  0  0  0  0
  193.4480  177.9650  140.1350 F   0  0  0  0  0  0  0  0  0  0  0  0
  190.1970  177.1070  141.6110 C   0  0  0  0  0  0  0  0  0  0  0  0
  191.5460  176.9230  139.1590 C   0  0  0  0  0  3  0  0  0  0  0  0
  189.5670  176.5430  140.4930 C   0  0  0  0  0  3  0  0  0  0  0  0
  191.5100  177.6010  141.4860 C   0  0  0  0  0  0  0  0  0  0  0  0
  192.1440  178.2110  142.5640 O   0  0  0  0  0  1  0  0  0  0  0  0
  190.2320  176.4450  139.2690 C   0  0  0  0  0  0  0  0  0  0  0  0
  188.3290  176.3620  137.6910 C   0  0  0  0  0  1  0  0  0  0  0  0
  189.5680  175.8710  138.1810 O   0  0  0  0  0  0  0  0  0  0  0  0
  188.1480  178.7370  148.4230 C   0  0  0  0  0  2  0  0  0  0  0  0
  189.4650  178.7550  148.8830 O   0  0  0  0  0  1  0  0  0  0  0  0
  1  3  2  0  0  0  0
  1  4  1  0  0  0  0
  2  4  1  0  0  0  0
  2  5  1  0  0  0  0
  3 18  1  0  0  0  0
  4 10  2  0  0  0  0
  5 17  1  0  0  0  0
  6 20  2  0  0  0  0
  6 19  1  0  0  0  0
  7  2  2  0  0  0  0
  8  9  1  0  0  0  0
  9 11  1  0  0  0  0
 10 13  1  0  0  0  0
 10 12  1  0  0  0  0
 11  5  2  0  0  0  0
 12 17  1  0  0  0  0
 14 15  2  0  0  0  0
 14  7  1  0  0  0  0
 15  1  1  0  0  0  0
 16  7  1  0  0  0  0
 16  9  2  0  0  0  0
 17 31  1  6  0  0  0
 18 13  2  0  0  0  0
 19  8  2  0  0  0  0
 20 16  1  0  0  0  0
 21 26  1  0  0  0  0
 22 21  1  0  0  0  0
 23 15  1  0  0  0  0
 24 28  1  0  0  0  0
 24 21  2  0  0  0  0
 25 23  1  0  0  0  0
 26 23  2  0  0  0  0
 26 27  1  0  0  0  0
 28 25  2  0  0  0  0
 29 30  1  0  0  0  0
 30 28  1  0  0  0  0
 31 32  1  0  0  0  0
M  END
>  <MODEL>
2

>  <REMARK>
 VINA RESULT:     -11.4      1.650      2.118
  Name = 
  3 active torsions:
  status: ('A' for Active; 'I' for Inactive)
    1  A    between atoms: C_13  and  C_29
    2  A    between atoms: O_15  and  C_26
    3  A    between atoms: C_16  and  C_27
                            x       y       z     vdW  Elec       q    Type
                         _______ _______ _______ _____ _____    ______ ____

>  <TORSDO>
F 3

$$$$
=
 OpenBabel10272402133D

 32 37  0  0  1  0  0  0  0  0999 V2000
  186.3830  178.2140  144.9890 C   0  0  0  0  0  0  0  0  0  0  0  0
  188.7610  177.7750  144.6040 C   0  0  0  0  0  0  0  0  0  0  0  0
  185.3470  178.4920  145.8940 C   0  0  0  0  0  3  0  0  0  0  0  0
  187.6930  178.0070  145.4880 C   0  0  0  0  0  0  0  0  0  0  0  0
  190.0600  177.5390  145.1030 C   0  0  0  0  0  0  0  0  0  0  0  0
  190.5330  177.4890  140.0680 C   0  0  0  0  0  3  0  0  0  0  0  0
  188.5370  177.8020  143.2060 C   0  0  0  0  0  0  0  0  0  0  0  0
  192.0040  177.2440  141.9750 C   0  0  0  0  0  3  0  0  0  0  0  0
  190.9210  177.4160  142.8400 C   0  0  0  0  0  0  0  0  0  0  0  0
  187.9380  178.0900  146.8700 C   0  0  0  0  0  0  0  0  0  0  0  0
  191.1260  177.3640  144.2180 C   0  0  0  0  0  3  0  0  0  0  0  0
  189.2370  177.9290  147.3640 O   0  0  0  0  0  0  0  0  0  0  0  0
  186.8920  178.3690  147.7520 C   0  0  0  0  0  3  0  0  0  0  0  0
  187.2340  178.0010  142.7270 C   0  0  0  0  0  3  0  0  0  0  0  0
  186.1530  178.1840  143.5950 C   0  0  0  0  0  0  0  0  0  0  0  0
  189.6200  177.6270  142.3200 C   0  0  0  0  0  0  0  0  0  0  0  0
  190.2990  177.3720  146.5820 C   0  0  1  0  0  3  0  0  0  0  0  0
  185.5990  178.5650  147.2660 C   0  0  0  0  0  3  0  0  0  0  0  0
  191.8110  177.2810  140.5910 C   0  0  0  0  0  3  0  0  0  0  0  0
  189.4430  177.6600  140.9260 C   0  0  0  0  0  3  0  0  0  0  0  0
  183.3370  178.7210  141.1050 C   0  0  0  0  0  0  0  0  0  0  0  0
  183.1500  178.8660  139.7700 F   0  0  0  0  0  0  0  0  0  0  0  0
  184.8100  178.3790  143.0090 C   0  0  0  0  0  0  0  0  0  0  0  0
  182.2370  178.7680  141.9640 C   0  0  0  0  0  3  0  0  0  0  0  0
  183.6980  178.4410  143.8610 C   0  0  0  0  0  3  0  0  0  0  0  0
  184.6250  178.5370  141.6210 C   0  0  0  0  0  0  0  0  0  0  0  0
  185.7150  178.5300  140.7560 O   0  0  0  0  0  1  0  0  0  0  0  0
  182.4130  178.6310  143.3490 C   0  0  0  0  0  0  0  0  0  0  0  0
  179.9820  178.5620  143.8040 C   0  0  0  0  0  1  0  0  0  0  0  0
  181.3310  178.6810  144.2330 O   0  0  0  0  0  0  0  0  0  0  0  0
  190.4530  175.8960  146.9140 C   0  0  0  0  0  2  0  0  0  0  0  0
  191.7700  175.6290  147.2870 O   0  0  0  0  0  1  0  0  0  0  0  0
  1  4  1  0  0  0  0
  1  3  2  0  0  0  0
  2  5  1  0  0  0  0
  2  4  1  0  0  0  0
  3 18  1  0  0  0  0
  4 10  2  0  0  0  0
  5 17  1  0  0  0  0
  6 19  2  0  0  0  0
  6 20  1  0  0  0  0
  7  2  2  0  0  0  0
  8  9  2  0  0  0  0
  9 11  1  0  0  0  0
 10 12  1  0  0  0  0
 10 13  1  0  0  0  0
 11  5  2  0  0  0  0
 14  7  1  0  0  0  0
 14 15  2  0  0  0  0
 15  1  1  0  0  0  0
 16  9  1  0  0  0  0
 16  7  1  0  0  0  0
 17 31  1  6  0  0  0
 17 12  1  0  0  0  0
 18 13  2  0  0  0  0
 19  8  1  0  0  0  0
 20 16  2  0  0  0  0
 21 26  2  0  0  0  0
 21 24  1  0  0  0  0
 22 21  1  0  0  0  0
 23 15  1  0  0  0  0
 23 25  2  0  0  0  0
 24 28  2  0  0  0  0
 26 23  1  0  0  0  0
 27 26  1  0  0  0  0
 28 25  1  0  0  0  0
 28 30  1  0  0  0  0
 29 30  1  0  0  0  0
 31 32  1  0  0  0  0
M  END
>  <MODEL>
3

>  <REMARK>
 VINA RESULT:     -11.0      2.089      6.314
  Name = 
  3 active torsions:
  status: ('A' for Active; 'I' for Inactive)
    1  A    between atoms: C_13  and  C_29
    2  A    between atoms: O_15  and  C_26
    3  A    between atoms: C_16  and  C_27
                            x       y       z     vdW  Elec       q    Type
                         _______ _______ _______ _____ _____    ______ ____

>  <TORSDO>
F 3

$$$$
=
 OpenBabel10272402133D

 32 37  0  0  1  0  0  0  0  0999 V2000
  187.4450  178.0390  142.4200 C   0  0  0  0  0  0  0  0  0  0  0  0
  185.2480  178.4460  141.4160 C   0  0  0  0  0  0  0  0  0  0  0  0
  188.8350  177.9290  142.2580 C   0  0  0  0  0  3  0  0  0  0  0  0
  186.6380  178.2810  141.2810 C   0  0  0  0  0  0  0  0  0  0  0  0
  184.4420  178.6560  140.2770 C   0  0  0  0  0  0  0  0  0  0  0  0
  181.2770  178.8760  144.2160 C   0  0  0  0  0  3  0  0  0  0  0  0
  184.6590  178.4230  142.7040 C   0  0  0  0  0  0  0  0  0  0  0  0
  181.1110  179.1070  141.8120 C   0  0  0  0  0  3  0  0  0  0  0  0
  182.4840  178.8810  141.6900 C   0  0  0  0  0  0  0  0  0  0  0  0
  187.2350  178.4140  140.0150 C   0  0  0  0  0  0  0  0  0  0  0  0
  183.0710  178.8730  140.4250 C   0  0  0  0  0  3  0  0  0  0  0  0
  186.4480  178.6950  138.8930 O   0  0  0  0  0  0  0  0  0  0  0  0
  188.6200  178.3010  139.8780 C   0  0  0  0  0  3  0  0  0  0  0  0
  185.4690  178.1770  143.8220 C   0  0  0  0  0  3  0  0  0  0  0  0
  186.8450  177.9620  143.6970 C   0  0  0  0  0  0  0  0  0  0  0  0
  183.2740  178.6470  142.8430 C   0  0  0  0  0  0  0  0  0  0  0  0
  185.0240  178.5500  138.8910 C   0  0  1  0  0  3  0  0  0  0  0  0
  189.4180  178.0540  140.9950 C   0  0  0  0  0  3  0  0  0  0  0  0
  180.5080  179.1050  143.0730 C   0  0  0  0  0  3  0  0  0  0  0  0
  182.6510  178.6470  144.1030 C   0  0  0  0  0  3  0  0  0  0  0  0
  187.8510  177.6470  147.3460 C   0  0  0  0  0  0  0  0  0  0  0  0
  187.3290  177.8360  148.5830 F   0  0  0  0  0  0  0  0  0  0  0  0
  187.6270  177.7000  144.9250 C   0  0  0  0  0  0  0  0  0  0  0  0
  189.1690  177.2040  147.2140 C   0  0  0  0  0  3  0  0  0  0  0  0
  188.9550  177.2660  144.8080 C   0  0  0  0  0  3  0  0  0  0  0  0
  187.0790  177.9060  146.2070 C   0  0  0  0  0  0  0  0  0  0  0  0
  185.7800  178.3830  146.3550 O   0  0  0  0  0  1  0  0  0  0  0  0
  189.7290  177.0150  145.9420 C   0  0  0  0  0  0  0  0  0  0  0  0
  191.8690  176.1950  146.8720 C   0  0  0  0  0  1  0  0  0  0  0  0
  191.0470  176.5790  145.7790 O   0  0  0  0  0  0  0  0  0  0  0  0
  184.6520  177.2070  138.2790 C   0  0  0  0  0  2  0  0  0  0  0  0
  185.6020  176.8430  137.3250 O   0  0  0  0  0  1  0  0  0  0  0  0
  1 15  1  0  0  0  0
  2  7  1  0  0  0  0
  3  1  1  0  0  0  0
  4  2  1  0  0  0  0
  4  1  2  0  0  0  0
  5 11  1  0  0  0  0
  5  2  2  0  0  0  0
  7 16  2  0  0  0  0
  7 14  1  0  0  0  0
  8 19  2  0  0  0  0
  9  8  1  0  0  0  0
  9 16  1  0  0  0  0
 10  4  1  0  0  0  0
 11  9  2  0  0  0  0
 12 10  1  0  0  0  0
 13 10  2  0  0  0  0
 13 18  1  0  0  0  0
 15 14  2  0  0  0  0
 15 23  1  0  0  0  0
 16 20  1  0  0  0  0
 17 31  1  1  0  0  0
 17 12  1  0  0  0  0
 17  5  1  0  0  0  0
 18  3  2  0  0  0  0
 19  6  1  0  0  0  0
 20  6  2  0  0  0  0
 21 22  1  0  0  0  0
 23 26  1  0  0  0  0
 24 21  1  0  0  0  0
 25 23  2  0  0  0  0
 25 28  1  0  0  0  0
 26 27  1  0  0  0  0
 26 21  2  0  0  0  0
 28 24  2  0  0  0  0
 30 28  1  0  0  0  0
 30 29  1  0  0  0  0
 32 31  1  0  0  0  0
M  END
>  <MODEL>
4

>  <REMARK>
 VINA RESULT:     -10.9      2.854      6.494
  Name = 
  3 active torsions:
  status: ('A' for Active; 'I' for Inactive)
    1  A    between atoms: C_13  and  C_29
    2  A    between atoms: O_15  and  C_26
    3  A    between atoms: C_16  and  C_27
                            x       y       z     vdW  Elec       q    Type
                         _______ _______ _______ _____ _____    ______ ____

>  <TORSDO>
F 3

$$$$
=
 OpenBabel10272402133D

 32 37  0  0  1  0  0  0  0  0999 V2000
  189.3190  177.6300  142.5230 C   0  0  0  0  0  0  0  0  0  0  0  0
  187.4460  178.0500  141.0020 C   0  0  0  0  0  0  0  0  0  0  0  0
  190.7000  177.4560  142.7040 C   0  0  0  0  0  3  0  0  0  0  0  0
  188.8180  177.8240  141.2120 C   0  0  0  0  0  0  0  0  0  0  0  0
  186.9440  178.2130  139.6930 C   0  0  0  0  0  0  0  0  0  0  0  0
  182.9550  178.8190  142.7430 C   0  0  0  0  0  3  0  0  0  0  0  0
  186.5690  178.1380  142.1110 C   0  0  0  0  0  0  0  0  0  0  0  0
  183.3730  178.8930  140.3600 C   0  0  0  0  0  3  0  0  0  0  0  0
  184.7230  178.6080  140.5820 C   0  0  0  0  0  0  0  0  0  0  0  0
  189.7030  177.8490  140.1200 C   0  0  0  0  0  0  0  0  0  0  0  0
  185.5890  178.4920  139.4970 C   0  0  0  0  0  3  0  0  0  0  0  0
  189.2190  178.0830  138.8280 O   0  0  0  0  0  0  0  0  0  0  0  0
  191.0730  177.6740  140.3240 C   0  0  0  0  0  3  0  0  0  0  0  0
  187.0780  177.9370  143.4020 C   0  0  0  0  0  3  0  0  0  0  0  0
  188.4320  177.6620  143.6220 C   0  0  0  0  0  0  0  0  0  0  0  0
  185.2040  178.4220  141.9020 C   0  0  0  0  0  0  0  0  0  0  0  0
  187.8300  177.9920  138.4950 C   0  0  1  0  0  3  0  0  0  0  0  0
  191.5700  177.4740  141.6120 C   0  0  0  0  0  3  0  0  0  0  0  0
  182.4910  178.9990  141.4380 C   0  0  0  0  0  3  0  0  0  0  0  0
  184.3020  178.5310  142.9750 C   0  0  0  0  0  3  0  0  0  0  0  0
  188.4860  177.4280  147.4120 C   0  0  0  0  0  0  0  0  0  0  0  0
  187.6550  177.5910  148.4710 F   0  0  0  0  0  0  0  0  0  0  0  0
  188.8860  177.4550  145.0140 C   0  0  0  0  0  0  0  0  0  0  0  0
  189.8170  177.0660  147.6300 C   0  0  0  0  0  3  0  0  0  0  0  0
  190.2230  177.1020  145.2480 C   0  0  0  0  0  3  0  0  0  0  0  0
  188.0180  177.6330  146.1090 C   0  0  0  0  0  0  0  0  0  0  0  0
  186.6990  178.0310  145.9100 O   0  0  0  0  0  1  0  0  0  0  0  0
  190.6940  176.9040  146.5480 C   0  0  0  0  0  0  0  0  0  0  0  0
  192.4630  175.7160  147.8030 C   0  0  0  0  0  1  0  0  0  0  0  0
  192.0320  176.5490  146.7360 O   0  0  0  0  0  0  0  0  0  0  0  0
  187.5420  176.6260  137.8890 C   0  0  0  0  0  2  0  0  0  0  0  0
  186.9990  176.7790  136.6130 O   0  0  0  0  0  1  0  0  0  0  0  0
  1  3  1  0  0  0  0
  1 15  1  0  0  0  0
  2  4  1  0  0  0  0
  2  7  1  0  0  0  0
  4  1  2  0  0  0  0
  5  2  2  0  0  0  0
  6 20  2  0  0  0  0
  7 14  1  0  0  0  0
  8  9  1  0  0  0  0
  8 19  2  0  0  0  0
  9 16  1  0  0  0  0
 10 13  2  0  0  0  0
 10  4  1  0  0  0  0
 11  5  1  0  0  0  0
 11  9  2  0  0  0  0
 12 10  1  0  0  0  0
 13 18  1  0  0  0  0
 14 15  2  0  0  0  0
 15 23  1  0  0  0  0
 16  7  2  0  0  0  0
 16 20  1  0  0  0  0
 17 31  1  1  0  0  0
 17 12  1  0  0  0  0
 17  5  1  0  0  0  0
 18  3  2  0  0  0  0
 19  6  1  0  0  0  0
 21 24  1  0  0  0  0
 21 22  1  0  0  0  0
 23 25  2  0  0  0  0
 23 26  1  0  0  0  0
 25 28  1  0  0  0  0
 26 21  2  0  0  0  0
 27 26  1  0  0  0  0
 28 30  1  0  0  0  0
 28 24  2  0  0  0  0
 30 29  1  0  0  0  0
 32 31  1  0  0  0  0
M  END
>  <MODEL>
5

>  <REMARK>
 VINA RESULT:     -10.5      2.645      6.385
  Name = 
  3 active torsions:
  status: ('A' for Active; 'I' for Inactive)
    1  A    between atoms: C_13  and  C_29
    2  A    between atoms: O_15  and  C_26
    3  A    between atoms: C_16  and  C_27
                            x       y       z     vdW  Elec       q    Type
                         _______ _______ _______ _____ _____    ______ ____

>  <TORSDO>
F 3

$$$$
=
 OpenBabel10272402133D

 32 37  0  0  0  0  0  0  0  0999 V2000
  184.6700  178.3520  143.1350 C   0  0  0  0  0  0  0  0  0  0  0  0
  187.0660  178.0900  143.5670 C   0  0  0  0  0  0  0  0  0  0  0  0
  183.3880  178.6440  143.6270 C   0  0  0  0  0  3  0  0  0  0  0  0
  185.7630  178.3310  144.0360 C   0  0  0  0  0  0  0  0  0  0  0  0
  188.1500  178.0400  144.4700 C   0  0  0  0  0  0  0  0  0  0  0  0
  190.1950  177.4040  139.8880 C   0  0  0  0  0  3  0  0  0  0  0  0
  187.2950  177.9210  142.1800 C   0  0  0  0  0  0  0  0  0  0  0  0
  190.9970  177.5370  142.1680 C   0  0  0  0  0  3  0  0  0  0  0  0
  189.6880  177.7150  142.6240 C   0  0  0  0  0  0  0  0  0  0  0  0
  185.5530  178.6090  145.3980 C   0  0  0  0  0  0  0  0  0  0  0  0
  189.4480  177.8550  143.9900 C   0  0  0  0  0  3  0  0  0  0  0  0
  186.6350  178.6320  146.2850 O   0  0  0  0  0  0  0  0  0  0  0  0
  184.2690  178.8980  145.8650 C   0  0  0  0  0  3  0  0  0  0  0  0
  186.2030  177.9370  141.3000 C   0  0  0  0  0  2  0  0  0  0  0  0
  184.8950  178.1270  141.7580 C   0  0  0  0  0  0  0  0  0  0  0  0
  188.6100  177.7380  141.7050 C   0  0  0  0  0  0  0  0  0  0  0  0
  187.9160  178.0830  145.9580 C   0  0  0  0  0  0  0  0  0  0  0  0
  183.1890  178.9110  144.9830 C   0  0  0  0  0  3  0  0  0  0  0  0
  191.2500  177.3830  140.8030 C   0  0  0  0  0  3  0  0  0  0  0  0
  188.8830  177.5800  140.3350 C   0  0  0  0  0  3  0  0  0  0  0  0
  182.6680  179.0520  138.8250 C   0  0  0  0  0  0  0  0  0  0  0  0
  182.5920  179.9750  137.8340 F   0  0  0  0  0  0  0  0  0  0  0  0
  183.7980  178.1220  140.7660 C   0  0  0  0  0  0  0  0  0  0  0  0
  181.6800  178.0700  138.9290 C   0  0  0  0  0  3  0  0  0  0  0  0
  182.7940  177.1490  140.8660 C   0  0  0  0  0  3  0  0  0  0  0  0
  183.7230  179.0890  139.7450 C   0  0  0  0  0  0  0  0  0  0  0  0
  184.6780  180.0970  139.6500 O   0  0  0  0  0  1  0  0  0  0  0  0
  181.7370  177.1140  139.9540 C   0  0  0  0  0  0  0  0  0  0  0  0
  180.6570  175.0210  139.1980 C   0  0  0  0  0  1  0  0  0  0  0  0
  180.7600  176.1240  140.0870 O   0  0  0  0  0  0  0  0  0  0  0  0
  188.0280  176.6800  146.5360 C   0  0  0  0  0  2  0  0  0  0  0  0
  189.1170  176.6130  147.4060 O   0  0  0  0  0  1  0  0  0  0  0  0
  1  3  1  0  0  0  0
  1  4  1  0  0  0  0
  2  4  2  0  0  0  0
  2  5  1  0  0  0  0
  3 18  2  0  0  0  0
  4 10  1  0  0  0  0
  5 17  2  0  0  0  0
  6 20  2  0  0  0  0
  6 19  1  0  0  0  0
  7  2  1  0  0  0  0
  8  9  1  0  0  0  0
  9 11  2  0  0  0  0
 10 13  2  0  0  0  0
 10 12  1  0  0  0  0
 11  5  1  0  0  0  0
 14 15  1  0  0  0  0
 14  7  1  0  0  0  0
 15  1  2  0  0  0  0
 16  7  2  0  0  0  0
 16  9  1  0  0  0  0
 17 12  1  0  0  0  0
 17 31  1  0  0  0  0
 18 13  1  0  0  0  0
 19  8  2  0  0  0  0
 20 16  1  0  0  0  0
 21 24  2  0  0  0  0
 21 26  1  0  0  0  0
 22 21  1  0  0  0  0
 23 25  1  0  0  0  0
 23 15  1  0  0  0  0
 24 28  1  0  0  0  0
 26 23  2  0  0  0  0
 27 26  1  0  0  0  0
 28 30  1  0  0  0  0
 28 25  2  0  0  0  0
 29 30  1  0  0  0  0
 31 32  1  0  0  0  0
M  END
>  <MODEL>
6

>  <REMARK>
 VINA RESULT:     -10.4      2.728      6.217
  Name = 
  3 active torsions:
  status: ('A' for Active; 'I' for Inactive)
    1  A    between atoms: C_13  and  C_29
    2  A    between atoms: O_15  and  C_26
    3  A    between atoms: C_16  and  C_27
                            x       y       z     vdW  Elec       q    Type
                         _______ _______ _______ _____ _____    ______ ____

>  <TORSDO>
F 3

$$$$
=
 OpenBabel10272402133D

 32 37  0  0  1  0  0  0  0  0999 V2000
  189.3150  177.6500  142.8530 C   0  0  0  0  0  0  0  0  0  0  0  0
  188.2860  177.8730  140.6420 C   0  0  0  0  0  0  0  0  0  0  0  0
  190.4760  177.4760  143.6230 C   0  0  0  0  0  3  0  0  0  0  0  0
  189.4230  177.6510  141.4400 C   0  0  0  0  0  0  0  0  0  0  0  0
  188.3880  177.8430  139.2350 C   0  0  0  0  0  0  0  0  0  0  0  0
  183.5620  179.0040  140.2020 C   0  0  0  0  0  3  0  0  0  0  0  0
  187.0390  178.1500  141.2540 C   0  0  0  0  0  0  0  0  0  0  0  0
  184.9360  178.6980  138.2330 C   0  0  0  0  0  3  0  0  0  0  0  0
  186.0420  178.4200  139.0410 C   0  0  0  0  0  0  0  0  0  0  0  0
  190.6790  177.4860  140.8320 C   0  0  0  0  0  0  0  0  0  0  0  0
  187.2670  178.1180  138.4490 C   0  0  0  0  0  3  0  0  0  0  0  0
  190.7970  177.5280  139.4390 O   0  0  0  0  0  0  0  0  0  0  0  0
  191.8210  177.3140  141.6180 C   0  0  0  0  0  3  0  0  0  0  0  0
  186.9470  178.1410  142.6530 C   0  0  0  0  0  3  0  0  0  0  0  0
  188.0580  177.8730  143.4590 C   0  0  0  0  0  0  0  0  0  0  0  0
  185.9140  178.4300  140.4510 C   0  0  0  0  0  0  0  0  0  0  0  0
  189.6690  177.4180  138.5640 C   0  0  1  0  0  3  0  0  0  0  0  0
  191.7190  177.3040  143.0100 C   0  0  0  0  0  3  0  0  0  0  0  0
  183.6980  178.9900  138.8120 C   0  0  0  0  0  3  0  0  0  0  0  0
  184.6610  178.7250  141.0180 C   0  0  0  0  0  3  0  0  0  0  0  0
  186.4980  178.1690  146.9080 C   0  0  0  0  0  0  0  0  0  0  0  0
  185.3040  178.4560  147.4830 F   0  0  0  0  0  0  0  0  0  0  0  0
  187.8750  177.8720  144.9260 C   0  0  0  0  0  0  0  0  0  0  0  0
  187.5990  177.8760  147.7170 C   0  0  0  0  0  3  0  0  0  0  0  0
  188.9740  177.5910  145.7500 C   0  0  0  0  0  3  0  0  0  0  0  0
  186.6320  178.1790  145.5150 C   0  0  0  0  0  0  0  0  0  0  0  0
  185.5350  178.5100  144.7250 O   0  0  0  0  0  1  0  0  0  0  0  0
  188.8450  177.5880  147.1410 C   0  0  0  0  0  0  0  0  0  0  0  0
  191.1440  176.7120  147.3920 C   0  0  0  0  0  1  0  0  0  0  0  0
  189.9640  177.2980  147.9240 O   0  0  0  0  0  0  0  0  0  0  0  0
  189.5430  175.9820  138.0780 C   0  0  0  0  0  2  0  0  0  0  0  0
  190.7030  175.2730  138.3900 O   0  0  0  0  0  1  0  0  0  0  0  0
  1 15  1  0  0  0  0
  1  3  2  0  0  0  0
  2  7  1  0  0  0  0
  2  4  1  0  0  0  0
  4  1  1  0  0  0  0
  5  2  2  0  0  0  0
  6 20  2  0  0  0  0
  7 14  1  0  0  0  0
  8 19  2  0  0  0  0
  8  9  1  0  0  0  0
  9 16  1  0  0  0  0
 10  4  2  0  0  0  0
 10 13  1  0  0  0  0
 11  9  2  0  0  0  0
 11  5  1  0  0  0  0
 12 10  1  0  0  0  0
 13 18  2  0  0  0  0
 14 15  2  0  0  0  0
 15 23  1  0  0  0  0
 16 20  1  0  0  0  0
 16  7  2  0  0  0  0
 17 31  1  1  0  0  0
 17  5  1  0  0  0  0
 17 12  1  0  0  0  0
 18  3  1  0  0  0  0
 19  6  1  0  0  0  0
 21 22  1  0  0  0  0
 21 24  1  0  0  0  0
 23 26  1  0  0  0  0
 23 25  2  0  0  0  0
 25 28  1  0  0  0  0
 26 21  2  0  0  0  0
 27 26  1  0  0  0  0
 28 24  2  0  0  0  0
 28 30  1  0  0  0  0
 29 30  1  0  0  0  0
 31 32  1  0  0  0  0
M  END
>  <MODEL>
7

>  <REMARK>
 VINA RESULT:     -10.4      2.658      6.535
  Name = 
  3 active torsions:
  status: ('A' for Active; 'I' for Inactive)
    1  A    between atoms: C_13  and  C_29
    2  A    between atoms: O_15  and  C_26
    3  A    between atoms: C_16  and  C_27
                            x       y       z     vdW  Elec       q    Type
                         _______ _______ _______ _____ _____    ______ ____

>  <TORSDO>
F 3

$$$$
=
 OpenBabel10272402133D

 32 37  0  0  1  0  0  0  0  0999 V2000
  186.2790  178.3250  139.9310 C   0  0  0  0  0  0  0  0  0  0  0  0
  187.1290  178.0770  142.2140 C   0  0  0  0  0  0  0  0  0  0  0  0
  186.5090  178.2280  138.5490 C   0  0  0  0  0  3  0  0  0  0  0  0
  187.3410  178.0370  140.8240 C   0  0  0  0  0  0  0  0  0  0  0  0
  188.1940  177.8190  143.1030 C   0  0  0  0  0  0  0  0  0  0  0  0
  184.1460  178.5610  146.0430 C   0  0  0  0  0  3  0  0  0  0  0  0
  185.8360  178.3530  142.7220 C   0  0  0  0  0  0  0  0  0  0  0  0
  186.4840  178.0250  146.3720 C   0  0  0  0  0  3  0  0  0  0  0  0
  186.6900  178.0500  144.9910 C   0  0  0  0  0  0  0  0  0  0  0  0
  188.5960  177.6540  140.3210 C   0  0  0  0  0  0  0  0  0  0  0  0
  187.9640  177.8070  144.4810 C   0  0  0  0  0  3  0  0  0  0  0  0
  189.6350  177.3270  141.2000 O   0  0  0  0  0  0  0  0  0  0  0  0
  188.8020  177.5640  138.9430 C   0  0  0  0  0  3  0  0  0  0  0  0
  184.7970  178.6420  141.8260 C   0  0  0  0  0  3  0  0  0  0  0  0
  185.0040  178.6550  140.4430 C   0  0  0  0  0  0  0  0  0  0  0  0
  185.6140  178.3340  144.1140 C   0  0  0  0  0  0  0  0  0  0  0  0
  189.6030  177.6570  142.5930 C   0  0  1  0  0  3  0  0  0  0  0  0
  187.7620  177.8550  138.0590 C   0  0  0  0  0  3  0  0  0  0  0  0
  185.2140  178.2800  146.8980 C   0  0  0  0  0  3  0  0  0  0  0  0
  184.3430  178.5890  144.6600 C   0  0  0  0  0  3  0  0  0  0  0  0
  182.0000  178.3140  138.1460 C   0  0  0  0  0  0  0  0  0  0  0  0
  181.2380  177.3490  137.5740 F   0  0  0  0  0  0  0  0  0  0  0  0
  183.8580  178.9780  139.5660 C   0  0  0  0  0  0  0  0  0  0  0  0
  181.7100  179.6580  137.8970 C   0  0  0  0  0  3  0  0  0  0  0  0
  183.5640  180.3220  139.2980 C   0  0  0  0  0  3  0  0  0  0  0  0
  183.0760  177.9680  138.9710 C   0  0  0  0  0  0  0  0  0  0  0  0
  183.3750  176.6250  139.1780 O   0  0  0  0  0  1  0  0  0  0  0  0
  182.4940  180.6700  138.4700 C   0  0  0  0  0  0  0  0  0  0  0  0
  180.9930  182.4860  137.7180 C   0  0  0  0  0  1  0  0  0  0  0  0
  182.2330  182.0220  138.2340 O   0  0  0  0  0  0  0  0  0  0  0  0
  190.3860  178.9400  142.8280 C   0  0  0  0  0  2  0  0  0  0  0  0
  191.3490  178.7310  143.8160 O   0  0  0  0  0  1  0  0  0  0  0  0
  1 15  2  0  0  0  0
  1  4  1  0  0  0  0
  2  7  1  0  0  0  0
  2  5  1  0  0  0  0
  3  1  1  0  0  0  0
  4  2  2  0  0  0  0
  5 11  2  0  0  0  0
  6 19  1  0  0  0  0
  7 16  1  0  0  0  0
  8 19  2  0  0  0  0
  9  8  1  0  0  0  0
 10  4  1  0  0  0  0
 10 12  1  0  0  0  0
 11  9  1  0  0  0  0
 12 17  1  0  0  0  0
 13 10  2  0  0  0  0
 14  7  2  0  0  0  0
 15 14  1  0  0  0  0
 16 20  1  0  0  0  0
 16  9  2  0  0  0  0
 17 31  1  6  0  0  0
 17  5  1  0  0  0  0
 18  3  2  0  0  0  0
 18 13  1  0  0  0  0
 20  6  2  0  0  0  0
 21 26  1  0  0  0  0
 22 21  1  0  0  0  0
 23 15  1  0  0  0  0
 24 21  2  0  0  0  0
 24 28  1  0  0  0  0
 25 23  1  0  0  0  0
 26 27  1  0  0  0  0
 26 23  2  0  0  0  0
 28 25  2  0  0  0  0
 29 30  1  0  0  0  0
 30 28  1  0  0  0  0
 31 32  1  0  0  0  0
M  END
>  <MODEL>
8

>  <REMARK>
 VINA RESULT:     -10.1      3.314      5.917
  Name = 
  3 active torsions:
  status: ('A' for Active; 'I' for Inactive)
    1  A    between atoms: C_13  and  C_29
    2  A    between atoms: O_15  and  C_26
    3  A    between atoms: C_16  and  C_27
                            x       y       z     vdW  Elec       q    Type
                         _______ _______ _______ _____ _____    ______ ____

>  <TORSDO>
F 3

$$$$
=
 OpenBabel10272402133D

 32 37  0  0  1  0  0  0  0  0999 V2000
  188.8130  177.7070  141.6280 C   0  0  0  0  0  0  0  0  0  0  0  0
  186.4780  178.3020  141.1880 C   0  0  0  0  0  0  0  0  0  0  0  0
  190.1230  177.5550  141.1450 C   0  0  0  0  0  3  0  0  0  0  0  0
  187.7900  178.0930  140.7260 C   0  0  0  0  0  0  0  0  0  0  0  0
  185.4540  178.6570  140.2850 C   0  0  0  0  0  0  0  0  0  0  0  0
  183.2650  178.6220  144.8440 C   0  0  0  0  0  3  0  0  0  0  0  0
  186.1900  178.1780  142.5690 C   0  0  0  0  0  0  0  0  0  0  0  0
  182.5830  179.0950  142.5690 C   0  0  0  0  0  3  0  0  0  0  0  0
  183.8780  178.8250  142.1190 C   0  0  0  0  0  0  0  0  0  0  0  0
  188.0980  178.3250  139.3740 C   0  0  0  0  0  0  0  0  0  0  0  0
  184.1660  178.9160  140.7590 C   0  0  0  0  0  3  0  0  0  0  0  0
  187.1000  178.7470  138.4890 O   0  0  0  0  0  0  0  0  0  0  0  0
  189.4080  178.1680  138.9170 C   0  0  0  0  0  3  0  0  0  0  0  0
  187.2110  177.7900  143.4490 C   0  0  0  0  0  3  0  0  0  0  0  0
  188.5090  177.5310  142.9960 C   0  0  0  0  0  0  0  0  0  0  0  0
  184.8870  178.4460  143.0380 C   0  0  0  0  0  0  0  0  0  0  0  0
  185.7050  178.6630  138.7990 C   0  0  1  0  0  3  0  0  0  0  0  0
  190.4170  177.7790  139.7980 C   0  0  0  0  0  3  0  0  0  0  0  0
  182.2770  178.9950  143.9290 C   0  0  0  0  0  3  0  0  0  0  0  0
  184.5620  178.3480  144.4020 C   0  0  0  0  0  3  0  0  0  0  0  0
  191.4300  175.7610  144.6570 C   0  0  0  0  0  0  0  0  0  0  0  0
  192.3600  174.8140  144.3790 F   0  0  0  0  0  0  0  0  0  0  0  0
  189.5260  177.1170  143.9870 C   0  0  0  0  0  0  0  0  0  0  0  0
  191.4140  176.3620  145.9180 C   0  0  0  0  0  3  0  0  0  0  0  0
  189.5140  177.7030  145.2610 C   0  0  0  0  0  3  0  0  0  0  0  0
  190.4840  176.1270  143.6920 C   0  0  0  0  0  0  0  0  0  0  0  0
  190.4900  175.4910  142.4540 O   0  0  0  0  0  1  0  0  0  0  0  0
  190.4520  177.3350  146.2270 C   0  0  0  0  0  0  0  0  0  0  0  0
  189.2050  178.0920  148.2250 C   0  0  0  0  0  1  0  0  0  0  0  0
  190.4070  177.9480  147.4820 O   0  0  0  0  0  0  0  0  0  0  0  0
  185.1220  177.4040  138.1740 C   0  0  0  0  0  2  0  0  0  0  0  0
  185.5120  177.3150  136.8380 O   0  0  0  0  0  1  0  0  0  0  0  0
  1 15  1  0  0  0  0
  2  7  1  0  0  0  0
  3  1  1  0  0  0  0
  4  2  1  0  0  0  0
  4  1  2  0  0  0  0
  5 11  1  0  0  0  0
  5  2  2  0  0  0  0
  7 16  2  0  0  0  0
  7 14  1  0  0  0  0
  8 19  2  0  0  0  0
  9  8  1  0  0  0  0
  9 16  1  0  0  0  0
 10  4  1  0  0  0  0
 11  9  2  0  0  0  0
 12 17  1  0  0  0  0
 12 10  1  0  0  0  0
 13 10  2  0  0  0  0
 13 18  1  0  0  0  0
 15 14  2  0  0  0  0
 15 23  1  0  0  0  0
 16 20  1  0  0  0  0
 17 31  1  1  0  0  0
 17  5  1  0  0  0  0
 18  3  2  0  0  0  0
 19  6  1  0  0  0  0
 20  6  2  0  0  0  0
 21 24  1  0  0  0  0
 22 21  1  0  0  0  0
 23 25  2  0  0  0  0
 24 28  2  0  0  0  0
 25 28  1  0  0  0  0
 26 23  1  0  0  0  0
 26 21  2  0  0  0  0
 27 26  1  0  0  0  0
 28 30  1  0  0  0  0
 30 29  1  0  0  0  0
 32 31  1  0  0  0  0
M  END
>  <MODEL>
9

>  <REMARK>
 VINA RESULT:     -10.1      2.327      6.223
  Name = 
  3 active torsions:
  status: ('A' for Active; 'I' for Inactive)
    1  A    between atoms: C_13  and  C_29
    2  A    between atoms: O_15  and  C_26
    3  A    between atoms: C_16  and  C_27
                            x       y       z     vdW  Elec       q    Type
                         _______ _______ _______ _____ _____    ______ ____

>  <TORSDO>
F 3

$$$$
