=
 OpenBabel10272400463D

 25 28  0  0  1  0  0  0  0  0999 V2000
  187.5110  177.9100  145.9160 C   0  0  0  0  0  0  0  0  0  0  0  0
  188.8330  177.5250  145.6780 C   0  0  0  0  0  0  0  0  0  0  0  0
  187.8730  178.0720  148.3030 C   0  0  0  0  0  3  0  0  0  0  0  0
  186.4350  178.1110  145.0780 C   0  0  0  0  0  0  0  0  0  0  0  0
  190.8130  177.4290  144.1010 C   0  0  2  0  0  0  0  0  0  0  0  0
  184.0690  179.1320  143.8890 C   0  0  0  0  0  2  0  0  0  0  0  0
  189.2060  177.6730  148.0980 C   0  0  0  0  0  3  0  0  0  0  0  0
  185.4020  178.5210  145.9010 C   0  0  0  0  0  0  0  0  0  0  0  0
  184.0300  178.8420  145.3980 C   0  0  0  0  0  2  0  0  0  0  0  0
  191.0840  176.9940  146.5740 C   0  0  0  0  0  0  0  0  0  0  0  0
  191.8410  176.7120  147.5400 O   0  0  0  0  0  0  0  0  0  0  0  0
  189.3120  177.1510  144.2990 C   0  0  0  0  0  2  0  0  0  0  0  0
  184.8860  178.0700  143.1360 C   0  0  0  0  0  2  0  0  0  0  0  0
  187.0510  178.1830  147.1850 C   0  0  0  0  0  0  0  0  0  0  0  0
  185.7870  178.5440  147.1620 O   0  0  0  0  0  0  0  0  0  0  0  0
  191.5770  176.9060  145.2330 N   0  0  0  0  0  2  0  0  0  0  0  0
  186.3550  178.0800  143.5830 C   0  0  0  0  0  2  0  0  0  0  0  0
  191.0520  178.9310  143.9960 C   0  0  0  0  0  1  0  0  0  0  0  0
  189.6880  177.3990  146.7970 C   0  0  0  0  0  0  0  0  0  0  0  0
  191.3040  176.7370  142.8300 C   0  0  0  0  0  2  0  0  0  0  0  0
  190.1980  176.5230  141.8000 C   0  0  0  0  0  2  0  0  0  0  0  0
  190.6250  177.0560  140.4420 C   0  0  0  0  0  2  0  0  0  0  0  0
  189.5190  177.8150  139.7740 C   0  0  0  0  0  0  0  0  0  0  0  0
  188.4150  178.3750  140.6020 C   0  0  0  0  0  1  0  0  0  0  0  0
  189.4100  177.8300  138.3430 S   0  0  0  0  0  0  0  0  0  0  0  0
  1 14  1  0  0  0  0
  2  1  2  0  0  0  0
  2 19  1  0  0  0  0
  4  8  2  0  0  0  0
  4  1  1  0  0  0  0
  5 18  1  6  0  0  0
  5 12  1  0  0  0  0
  5 16  1  0  0  0  0
  6  9  1  0  0  0  0
  7  3  1  0  0  0  0
  8 15  1  0  0  0  0
  9  8  1  0  0  0  0
 10 19  1  0  0  0  0
 10 11  2  0  0  0  0
 12  2  1  0  0  0  0
 13 17  1  0  0  0  0
 13  6  1  0  0  0  0
 14  3  2  0  0  0  0
 15 14  1  0  0  0  0
 16 10  1  0  0  0  0
 17  4  1  0  0  0  0
 19  7  2  0  0  0  0
 20  5  1  0  0  0  0
 21 20  1  0  0  0  0
 22 21  1  0  0  0  0
 23 22  1  0  0  0  0
 23 24  1  0  0  0  0
 25 23  2  0  0  0  0
M  END
>  <MODEL>
1

>  <REMARK>
 VINA RESULT:     -10.9      0.000      0.000
  Name = 
  4 active torsions:
  status: ('A' for Active; 'I' for Inactive)
    1  A    between atoms: C_2  and  C_21
    2  A    between atoms: C_6  and  C_15
    3  A    between atoms: C_15  and  C_25
    4  A    between atoms: C_21  and  C_25
                            x       y       z     vdW  Elec       q    Type
                         _______ _______ _______ _____ _____    ______ ____

>  <TORSDO>
F 4

$$$$
=
 OpenBabel10272400463D

 25 28  0  0  1  0  0  0  0  0999 V2000
  187.4160  177.8930  145.7850 C   0  0  0  0  0  0  0  0  0  0  0  0
  188.7360  177.4880  145.5690 C   0  0  0  0  0  0  0  0  0  0  0  0
  187.7620  178.1170  148.1700 C   0  0  0  0  0  3  0  0  0  0  0  0
  186.3490  178.0800  144.9340 C   0  0  0  0  0  0  0  0  0  0  0  0
  190.7260  177.3290  144.0100 C   0  0  2  0  0  0  0  0  0  0  0  0
  184.0010  179.0910  143.6990 C   0  0  0  0  0  2  0  0  0  0  0  0
  189.0920  177.7000  147.9870 C   0  0  0  0  0  3  0  0  0  0  0  0
  185.3130  178.5230  145.7370 C   0  0  0  0  0  0  0  0  0  0  0  0
  183.9480  178.8440  145.2140 C   0  0  0  0  0  2  0  0  0  0  0  0
  190.9750  176.9600  146.4960 C   0  0  0  0  0  0  0  0  0  0  0  0
  191.7210  176.6980  147.4750 O   0  0  0  0  0  0  0  0  0  0  0  0
  189.2210  177.0710  144.2040 C   0  0  0  0  0  2  0  0  0  0  0  0
  184.8130  178.0010  142.9820 C   0  0  0  0  0  2  0  0  0  0  0  0
  186.9490  178.2050  147.0430 C   0  0  0  0  0  0  0  0  0  0  0  0
  185.6890  178.5780  147.0000 O   0  0  0  0  0  0  0  0  0  0  0  0
  191.4770  176.8300  145.1620 N   0  0  0  0  0  2  0  0  0  0  0  0
  186.2790  178.0090  143.4400 C   0  0  0  0  0  2  0  0  0  0  0  0
  190.9810  178.8250  143.8660 C   0  0  0  0  0  1  0  0  0  0  0  0
  189.5810  177.3850  146.6970 C   0  0  0  0  0  0  0  0  0  0  0  0
  191.2200  176.5980  142.7630 C   0  0  0  0  0  2  0  0  0  0  0  0
  191.3740  177.5170  141.5530 C   0  0  0  0  0  2  0  0  0  0  0  0
  190.2130  177.3260  140.5900 C   0  0  0  0  0  2  0  0  0  0  0  0
  190.6720  176.7640  139.2790 C   0  0  0  0  0  0  0  0  0  0  0  0
  189.6630  176.2500  138.3110 C   0  0  0  0  0  1  0  0  0  0  0  0
  192.0680  176.5320  139.0370 S   0  0  0  0  0  0  0  0  0  0  0  0
  1 14  1  0  0  0  0
  2  1  2  0  0  0  0
  2 19  1  0  0  0  0
  4  8  2  0  0  0  0
  4  1  1  0  0  0  0
  5 18  1  6  0  0  0
  5 12  1  0  0  0  0
  5 16  1  0  0  0  0
  6  9  1  0  0  0  0
  7  3  1  0  0  0  0
  8 15  1  0  0  0  0
  9  8  1  0  0  0  0
 10 19  1  0  0  0  0
 10 11  2  0  0  0  0
 12  2  1  0  0  0  0
 13 17  1  0  0  0  0
 13  6  1  0  0  0  0
 14  3  2  0  0  0  0
 15 14  1  0  0  0  0
 16 10  1  0  0  0  0
 17  4  1  0  0  0  0
 19  7  2  0  0  0  0
 20  5  1  0  0  0  0
 21 20  1  0  0  0  0
 22 21  1  0  0  0  0
 23 22  1  0  0  0  0
 24 23  1  0  0  0  0
 25 23  2  0  0  0  0
M  END
>  <MODEL>
2

>  <REMARK>
 VINA RESULT:     -10.1      0.852      1.030
  Name = 
  4 active torsions:
  status: ('A' for Active; 'I' for Inactive)
    1  A    between atoms: C_2  and  C_21
    2  A    between atoms: C_6  and  C_15
    3  A    between atoms: C_15  and  C_25
    4  A    between atoms: C_21  and  C_25
                            x       y       z     vdW  Elec       q    Type
                         _______ _______ _______ _____ _____    ______ ____

>  <TORSDO>
F 4

$$$$
=
 OpenBabel10272400463D

 25 28  0  0  1  0  0  0  0  0999 V2000
  187.7520  178.2980  140.8040 C   0  0  0  0  0  0  0  0  0  0  0  0
  189.0290  177.9830  141.2760 C   0  0  0  0  0  0  0  0  0  0  0  0
  188.4620  178.1930  138.4930 C   0  0  0  0  0  3  0  0  0  0  0  0
  186.5620  178.5610  141.4460 C   0  0  0  0  0  0  0  0  0  0  0  0
  190.4840  176.9850  143.0930 C   0  0  2  0  0  0  0  0  0  0  0  0
  183.8080  178.6910  142.1220 C   0  0  0  0  0  2  0  0  0  0  0  0
  189.7610  177.8880  138.9360 C   0  0  0  0  0  3  0  0  0  0  0  0
  185.6390  178.7670  140.4370 C   0  0  0  0  0  0  0  0  0  0  0  0
  184.2020  179.0960  140.6930 C   0  0  0  0  0  2  0  0  0  0  0  0
  191.4030  177.4530  140.7880 C   0  0  0  0  0  0  0  0  0  0  0  0
  192.3780  177.4240  139.9920 O   0  0  0  0  0  0  0  0  0  0  0  0
  189.3450  177.9610  142.7490 C   0  0  0  0  0  2  0  0  0  0  0  0
  184.8520  179.1640  143.1460 C   0  0  0  0  0  2  0  0  0  0  0  0
  187.4780  178.3900  139.4580 C   0  0  0  0  0  0  0  0  0  0  0  0
  186.2110  178.6740  139.2520 O   0  0  0  0  0  0  0  0  0  0  0  0
  191.6080  177.1770  142.1770 N   0  0  0  0  0  2  0  0  0  0  0  0
  186.2130  178.4950  142.9010 C   0  0  0  0  0  2  0  0  0  0  0  0
  189.9900  175.5480  142.9710 C   0  0  0  0  0  1  0  0  0  0  0  0
  190.0490  177.7840  140.3170 C   0  0  0  0  0  0  0  0  0  0  0  0
  190.9760  177.2430  144.5160 C   0  0  0  0  0  2  0  0  0  0  0  0
  189.9610  177.9990  145.3710 C   0  0  0  0  0  2  0  0  0  0  0  0
  189.7000  177.2530  146.6700 C   0  0  0  0  0  2  0  0  0  0  0  0
  188.3550  177.5900  147.2370 C   0  0  0  0  0  0  0  0  0  0  0  0
  187.1760  177.6640  146.3300 C   0  0  0  0  0  1  0  0  0  0  0  0
  188.2320  178.0380  148.5960 S   0  0  0  0  0  0  0  0  0  0  0  0
  1  2  1  0  0  0  0
  1  4  1  0  0  0  0
  2 12  1  0  0  0  0
  3  7  2  0  0  0  0
  3 14  1  0  0  0  0
  4 17  1  0  0  0  0
  5 18  1  6  0  0  0
  5 20  1  0  0  0  0
  6 13  1  0  0  0  0
  7 19  1  0  0  0  0
  8  9  1  0  0  0  0
  8  4  2  0  0  0  0
  9  6  1  0  0  0  0
 10 16  1  0  0  0  0
 11 10  2  0  0  0  0
 12  5  1  0  0  0  0
 14  1  2  0  0  0  0
 15 14  1  0  0  0  0
 15  8  1  0  0  0  0
 16  5  1  0  0  0  0
 17 13  1  0  0  0  0
 19 10  1  0  0  0  0
 19  2  2  0  0  0  0
 20 21  1  0  0  0  0
 21 22  1  0  0  0  0
 22 23  1  0  0  0  0
 23 25  2  0  0  0  0
 24 23  1  0  0  0  0
M  END
>  <MODEL>
3

>  <REMARK>
 VINA RESULT:      -8.6      3.342      5.790
  Name = 
  4 active torsions:
  status: ('A' for Active; 'I' for Inactive)
    1  A    between atoms: C_2  and  C_21
    2  A    between atoms: C_6  and  C_15
    3  A    between atoms: C_15  and  C_25
    4  A    between atoms: C_21  and  C_25
                            x       y       z     vdW  Elec       q    Type
                         _______ _______ _______ _____ _____    ______ ____

>  <TORSDO>
F 4

$$$$
=
 OpenBabel10272400463D

 25 28  0  0  1  0  0  0  0  0999 V2000
  189.6920  177.4750  143.8130 C   0  0  0  0  0  0  0  0  0  0  0  0
  188.9450  177.7890  144.9510 C   0  0  0  0  0  0  0  0  0  0  0  0
  191.5470  176.6450  145.1270 C   0  0  0  0  0  3  0  0  0  0  0  0
  189.4340  177.6040  142.4650 C   0  0  0  0  0  0  0  0  0  0  0  0
  186.6790  178.1270  146.0310 C   0  0  2  0  0  0  0  0  0  0  0  0
  189.3150  177.1580  139.6650 C   0  0  0  0  0  2  0  0  0  0  0  0
  190.8260  176.9620  146.2920 C   0  0  0  0  0  3  0  0  0  0  0  0
  190.5450  177.0830  141.8280 C   0  0  0  0  0  0  0  0  0  0  0  0
  190.6900  177.0330  140.3390 C   0  0  0  0  0  2  0  0  0  0  0  0
  188.7680  177.8550  147.4240 C   0  0  0  0  0  0  0  0  0  0  0  0
  189.3020  177.7970  148.5630 O   0  0  0  0  0  0  0  0  0  0  0  0
  187.6070  178.4760  144.8530 C   0  0  0  0  0  2  0  0  0  0  0  0
  188.4940  178.3050  140.2740 C   0  0  0  0  0  2  0  0  0  0  0  0
  190.9460  176.9130  143.9000 C   0  0  0  0  0  0  0  0  0  0  0  0
  191.4470  176.6860  142.7050 O   0  0  0  0  0  0  0  0  0  0  0  0
  187.4000  178.2550  147.2980 N   0  0  0  0  0  2  0  0  0  0  0  0
  188.1900  178.0430  141.7570 C   0  0  0  0  0  2  0  0  0  0  0  0
  186.1800  176.6940  145.8910 C   0  0  0  0  0  1  0  0  0  0  0  0
  189.5330  177.5320  146.2100 C   0  0  0  0  0  0  0  0  0  0  0  0
  185.4920  179.0880  146.0570 C   0  0  0  0  0  2  0  0  0  0  0  0
  184.8960  179.3380  144.6730 C   0  0  0  0  0  2  0  0  0  0  0  0
  183.4230  178.9590  144.6520 C   0  0  0  0  0  2  0  0  0  0  0  0
  182.9180  178.7900  143.2520 C   0  0  0  0  0  0  0  0  0  0  0  0
  183.8870  178.5230  142.1520 C   0  0  0  0  0  1  0  0  0  0  0  0
  181.5490  179.0840  142.9340 S   0  0  0  0  0  0  0  0  0  0  0  0
  1 14  2  0  0  0  0
  1  2  1  0  0  0  0
  2 19  2  0  0  0  0
  3  7  2  0  0  0  0
  4  1  1  0  0  0  0
  5 18  1  6  0  0  0
  5 20  1  0  0  0  0
  5 16  1  0  0  0  0
  6 13  1  0  0  0  0
  6  9  1  0  0  0  0
  8  4  2  0  0  0  0
  8 15  1  0  0  0  0
  9  8  1  0  0  0  0
 10 11  2  0  0  0  0
 12  2  1  0  0  0  0
 12  5  1  0  0  0  0
 13 17  1  0  0  0  0
 14  3  1  0  0  0  0
 15 14  1  0  0  0  0
 16 10  1  0  0  0  0
 17  4  1  0  0  0  0
 19  7  1  0  0  0  0
 19 10  1  0  0  0  0
 21 20  1  0  0  0  0
 22 21  1  0  0  0  0
 23 22  1  0  0  0  0
 24 23  1  0  0  0  0
 25 23  2  0  0  0  0
M  END
>  <MODEL>
4

>  <REMARK>
 VINA RESULT:      -8.4      2.540      5.535
  Name = 
  4 active torsions:
  status: ('A' for Active; 'I' for Inactive)
    1  A    between atoms: C_2  and  C_21
    2  A    between atoms: C_6  and  C_15
    3  A    between atoms: C_15  and  C_25
    4  A    between atoms: C_21  and  C_25
                            x       y       z     vdW  Elec       q    Type
                         _______ _______ _______ _____ _____    ______ ____

>  <TORSDO>
F 4

$$$$
=
 OpenBabel10272400463D

 25 28  0  0  1  0  0  0  0  0999 V2000
  187.0970  178.0810  142.7520 C   0  0  0  0  0  0  0  0  0  0  0  0
  187.0280  177.8520  144.1290 C   0  0  0  0  0  0  0  0  0  0  0  0
  184.9250  179.1470  142.7120 C   0  0  0  0  0  3  0  0  0  0  0  0
  188.0580  177.7920  141.8080 C   0  0  0  0  0  0  0  0  0  0  0  0
  188.2300  177.5110  146.3330 C   0  0  2  0  0  0  0  0  0  0  0  0
  189.7910  177.9260  139.5640 C   0  0  0  0  0  2  0  0  0  0  0  0
  184.8190  178.9200  144.0960 C   0  0  0  0  0  3  0  0  0  0  0  0
  187.5680  178.3010  140.6200 C   0  0  0  0  0  0  0  0  0  0  0  0
  188.2990  178.1970  139.3180 C   0  0  0  0  0  2  0  0  0  0  0  0
  185.7630  178.0450  146.2540 C   0  0  0  0  0  0  0  0  0  0  0  0
  184.6870  178.2550  146.8730 O   0  0  0  0  0  0  0  0  0  0  0  0
  188.1030  177.0880  144.8580 C   0  0  0  0  0  2  0  0  0  0  0  0
  189.9940  176.8090  140.6000 C   0  0  0  0  0  2  0  0  0  0  0  0
  186.0830  178.7160  142.0700 C   0  0  0  0  0  0  0  0  0  0  0  0
  186.3760  178.8380  140.7950 O   0  0  0  0  0  0  0  0  0  0  0  0
  186.9090  177.5600  146.9600 N   0  0  0  0  0  2  0  0  0  0  0  0
  189.4290  177.2130  141.9700 C   0  0  0  0  0  2  0  0  0  0  0  0
  188.8690  178.8920  146.4220 C   0  0  0  0  0  1  0  0  0  0  0  0
  185.8610  178.2760  144.8040 C   0  0  0  0  0  0  0  0  0  0  0  0
  189.0830  176.4960  147.0920 C   0  0  0  0  0  2  0  0  0  0  0  0
  190.5060  176.9870  147.3500 C   0  0  0  0  0  2  0  0  0  0  0  0
  191.5160  176.0680  146.6800 C   0  0  0  0  0  2  0  0  0  0  0  0
  191.7180  176.4290  145.2400 C   0  0  0  0  0  0  0  0  0  0  0  0
  191.6720  177.8600  144.8320 C   0  0  0  0  0  1  0  0  0  0  0  0
  191.7500  175.4060  144.2330 S   0  0  0  0  0  0  0  0  0  0  0  0
  1  2  1  0  0  0  0
  2 19  2  0  0  0  0
  2 12  1  0  0  0  0
  3  7  2  0  0  0  0
  4 17  1  0  0  0  0
  4  1  1  0  0  0  0
  5 18  1  1  0  0  0
  5 16  1  0  0  0  0
  5 20  1  0  0  0  0
  6 13  1  0  0  0  0
  7 19  1  0  0  0  0
  8 15  1  0  0  0  0
  8  4  2  0  0  0  0
  9  6  1  0  0  0  0
  9  8  1  0  0  0  0
 10 11  2  0  0  0  0
 10 16  1  0  0  0  0
 12  5  1  0  0  0  0
 13 17  1  0  0  0  0
 14  3  1  0  0  0  0
 14  1  2  0  0  0  0
 15 14  1  0  0  0  0
 19 10  1  0  0  0  0
 20 21  1  0  0  0  0
 22 21  1  0  0  0  0
 23 22  1  0  0  0  0
 24 23  1  0  0  0  0
 25 23  2  0  0  0  0
M  END
>  <MODEL>
5

>  <REMARK>
 VINA RESULT:      -8.2      2.514      5.375
  Name = 
  4 active torsions:
  status: ('A' for Active; 'I' for Inactive)
    1  A    between atoms: C_2  and  C_21
    2  A    between atoms: C_6  and  C_15
    3  A    between atoms: C_15  and  C_25
    4  A    between atoms: C_21  and  C_25
                            x       y       z     vdW  Elec       q    Type
                         _______ _______ _______ _____ _____    ______ ____

>  <TORSDO>
F 4

$$$$
=
 OpenBabel10272400463D

 25 28  0  0  1  0  0  0  0  0999 V2000
  186.1080  178.5860  141.8550 C   0  0  0  0  0  0  0  0  0  0  0  0
  187.4520  178.3740  141.5330 C   0  0  0  0  0  0  0  0  0  0  0  0
  185.4340  178.5410  139.5310 C   0  0  0  0  0  3  0  0  0  0  0  0
  185.4540  178.7530  143.0560 C   0  0  0  0  0  0  0  0  0  0  0  0
  189.7290  177.4940  142.2070 C   0  0  2  0  0  0  0  0  0  0  0  0
  183.5270  178.6620  145.1380 C   0  0  0  0  0  2  0  0  0  0  0  0
  186.7790  178.3410  139.1740 C   0  0  0  0  0  3  0  0  0  0  0  0
  184.1180  178.8860  142.7300 C   0  0  0  0  0  0  0  0  0  0  0  0
  183.0400  179.0980  143.7470 C   0  0  0  0  0  2  0  0  0  0  0  0
  189.1930  178.0370  139.8000 C   0  0  0  0  0  0  0  0  0  0  0  0
  189.5680  178.0860  138.5990 O   0  0  0  0  0  0  0  0  0  0  0  0
  188.5270  178.3760  142.5900 C   0  0  0  0  0  2  0  0  0  0  0  0
  184.9280  179.2160  145.4400 C   0  0  0  0  0  2  0  0  0  0  0  0
  185.1330  178.6570  140.8860 C   0  0  0  0  0  0  0  0  0  0  0  0
  183.9470  178.8400  141.4230 O   0  0  0  0  0  0  0  0  0  0  0  0
  190.1470  177.7770  140.8340 N   0  0  0  0  0  2  0  0  0  0  0  0
  185.9690  178.6580  144.4590 C   0  0  0  0  0  2  0  0  0  0  0  0
  189.3460  176.0230  142.3120 C   0  0  0  0  0  1  0  0  0  0  0  0
  187.7860  178.2590  140.1650 C   0  0  0  0  0  0  0  0  0  0  0  0
  190.9050  177.7900  143.1360 C   0  0  0  0  0  2  0  0  0  0  0  0
  190.5450  177.6620  144.6150 C   0  0  0  0  0  2  0  0  0  0  0  0
  191.6290  176.8990  145.3620 C   0  0  0  0  0  2  0  0  0  0  0  0
  191.1780  176.5040  146.7340 C   0  0  0  0  0  0  0  0  0  0  0  0
  189.8360  176.9370  147.2160 C   0  0  0  0  0  1  0  0  0  0  0  0
  192.0970  175.8930  147.6530 S   0  0  0  0  0  0  0  0  0  0  0  0
  1  4  1  0  0  0  0
  2  1  1  0  0  0  0
  2 12  1  0  0  0  0
  3 14  1  0  0  0  0
  4 17  1  0  0  0  0
  5 18  1  1  0  0  0
  5 12  1  0  0  0  0
  5 20  1  0  0  0  0
  6 13  1  0  0  0  0
  7  3  2  0  0  0  0
  7 19  1  0  0  0  0
  8  4  2  0  0  0  0
  8  9  1  0  0  0  0
  9  6  1  0  0  0  0
 10 19  1  0  0  0  0
 10 16  1  0  0  0  0
 11 10  2  0  0  0  0
 14 15  1  0  0  0  0
 14  1  2  0  0  0  0
 15  8  1  0  0  0  0
 16  5  1  0  0  0  0
 17 13  1  0  0  0  0
 19  2  2  0  0  0  0
 20 21  1  0  0  0  0
 21 22  1  0  0  0  0
 22 23  1  0  0  0  0
 23 24  1  0  0  0  0
 23 25  2  0  0  0  0
M  END
>  <MODEL>
6

>  <REMARK>
 VINA RESULT:      -7.9      3.381      5.604
  Name = 
  4 active torsions:
  status: ('A' for Active; 'I' for Inactive)
    1  A    between atoms: C_2  and  C_21
    2  A    between atoms: C_6  and  C_15
    3  A    between atoms: C_15  and  C_25
    4  A    between atoms: C_21  and  C_25
                            x       y       z     vdW  Elec       q    Type
                         _______ _______ _______ _____ _____    ______ ____

>  <TORSDO>
F 4

$$$$
