=
 OpenBabel10272402033D

 32 37  0  0  1  0  0  0  0  0999 V2000
  187.5210  178.0250  141.4120 C   0  0  0  0  0  0  0  0  0  0  0  0
  185.1910  178.2890  140.7470 C   0  0  0  0  0  0  0  0  0  0  0  0
  188.9680  177.8960  141.0010 C   0  0  0  0  0  2  0  0  0  0  0  0
  186.5440  178.2190  140.4220 C   0  0  0  0  0  0  0  0  0  0  0  0
  184.2290  178.4820  139.6920 N   0  0  0  0  0  0  0  0  0  0  0  0
  181.5890  178.9010  144.1450 C   0  0  0  0  0  2  0  0  0  0  0  0
  184.7900  178.2140  142.0930 C   0  0  0  0  0  0  0  0  0  0  0  0
  181.0730  179.1430  141.7040 C   0  0  0  0  0  2  0  0  0  0  0  0
  182.5670  179.1310  141.3920 C   0  0  2  0  0  3  0  0  0  0  0  0
  186.9470  178.4310  139.0270 C   0  0  0  0  0  0  0  0  0  0  0  0
  182.7990  178.5660  139.9950 C   0  0  0  0  0  2  0  0  0  0  0  0
  186.0570  178.4890  138.0800 N   0  0  0  0  0  0  0  0  0  0  0  0
  188.3330  178.6150  138.7300 N   0  0  0  0  0  2  0  0  0  0  0  0
  185.7580  177.9740  143.0810 C   0  0  0  0  0  3  0  0  0  0  0  0
  187.1200  177.8730  142.7520 C   0  0  0  0  0  0  0  0  0  0  0  0
  183.3220  178.2950  142.4380 C   0  0  2  0  0  3  0  0  0  0  0  0
  184.6230  178.2410  138.2950 C   0  0  1  0  0  3  0  0  0  0  0  0
  189.2920  178.8120  139.8160 C   0  0  0  0  0  2  0  0  0  0  0  0
  180.8370  179.7190  143.0980 C   0  0  0  0  0  2  0  0  0  0  0  0
  183.0820  178.8870  143.8300 C   0  0  0  0  0  2  0  0  0  0  0  0
  188.5720  177.6810  146.3480 C   0  0  0  0  0  0  0  0  0  0  0  0
  191.8030  176.5310  145.2680 O   0  0  0  0  0  0  0  0  0  0  0  0
  188.2780  178.0910  147.5010 O   0  0  0  0  0  0  0  0  0  0  0  0
  190.5450  178.1500  144.1290 C   0  0  0  0  0  3  0  0  0  0  0  0
  188.1400  177.6210  143.8320 C   0  0  1  0  0  3  0  0  0  0  0  0
  189.7450  176.9340  146.1860 O   0  0  0  0  0  0  0  0  0  0  0  0
  189.3850  178.3960  143.5310 C   0  0  0  0  0  3  0  0  0  0  0  0
  187.5880  177.9210  145.2330 C   0  0  1  0  0  3  0  0  0  0  0  0
  186.3420  177.0880  145.5020 C   0  0  0  0  0  1  0  0  0  0  0  0
  190.7120  177.1560  145.1980 C   0  0  0  0  0  0  0  0  0  0  0  0
  184.2880  176.8090  137.9030 C   0  0  0  0  0  2  0  0  0  0  0  0
  185.0490  176.4290  136.7980 O   0  0  0  0  0  1  0  0  0  0  0  0
  1 15  1  0  0  0  0
  2  7  2  0  0  0  0
  3  1  1  0  0  0  0
  4  2  1  0  0  0  0
  4  1  2  0  0  0  0
  5 11  1  0  0  0  0
  5  2  1  0  0  0  0
  7 16  1  0  0  0  0
  7 14  1  0  0  0  0
  8 19  1  0  0  0  0
  9 11  1  6  0  0  0
  9  8  1  0  0  0  0
  9 16  1  0  0  0  0
 10  4  1  0  0  0  0
 12 17  1  0  0  0  0
 12 10  2  0  0  0  0
 13 10  1  0  0  0  0
 13 18  1  0  0  0  0
 15 14  2  0  0  0  0
 16 20  1  1  0  0  0
 17 31  1  1  0  0  0
 17  5  1  0  0  0  0
 18  3  1  0  0  0  0
 19  6  1  0  0  0  0
 20  6  1  0  0  0  0
 21 23  2  0  0  0  0
 24 30  1  0  0  0  0
 25 15  1  6  0  0  0
 25 28  1  0  0  0  0
 26 21  1  0  0  0  0
 27 25  1  0  0  0  0
 27 24  2  0  0  0  0
 28 29  1  1  0  0  0
 28 21  1  0  0  0  0
 30 22  2  0  0  0  0
 30 26  1  0  0  0  0
 32 31  1  0  0  0  0
M  END
>  <MODEL>
1

>  <REMARK>
 VINA RESULT:      -9.3      0.000      0.000
  Name = 
  2 active torsions:
  status: ('A' for Active; 'I' for Inactive)
    1  A    between atoms: C_13  and  C_29
    2  A    between atoms: C_16  and  C_27
                            x       y       z     vdW  Elec       q    Type
                         _______ _______ _______ _____ _____    ______ ____

>  <TORSDO>
F 2

$$$$
=
 OpenBabel10272402033D

 32 37  0  0  1  0  0  0  0  0999 V2000
  186.4710  178.1970  145.4590 C   0  0  0  0  0  0  0  0  0  0  0  0
  188.7760  177.5930  144.9460 C   0  0  0  0  0  0  0  0  0  0  0  0
  185.4310  178.5320  146.5010 C   0  0  0  0  0  2  0  0  0  0  0  0
  187.7940  177.9590  145.8650 C   0  0  0  0  0  0  0  0  0  0  0  0
  190.1170  177.3540  145.4160 N   0  0  0  0  0  0  0  0  0  0  0  0
  190.3650  177.2400  140.2300 C   0  0  0  0  0  2  0  0  0  0  0  0
  188.4570  177.5050  143.5790 C   0  0  0  0  0  0  0  0  0  0  0  0
  191.9960  177.0760  142.1250 C   0  0  0  0  0  2  0  0  0  0  0  0
  190.9130  177.5450  143.0920 C   0  0  2  0  0  3  0  0  0  0  0  0
  188.1800  178.1720  147.2640 C   0  0  0  0  0  0  0  0  0  0  0  0
  191.1750  176.9720  144.4810 C   0  0  0  0  0  2  0  0  0  0  0  0
  189.3660  177.8400  147.6840 N   0  0  0  0  0  0  0  0  0  0  0  0
  187.2450  178.7890  148.1520 N   0  0  0  0  0  2  0  0  0  0  0  0
  187.1260  177.6960  143.1750 C   0  0  0  0  0  3  0  0  0  0  0  0
  186.1280  178.0360  144.1040 C   0  0  0  0  0  0  0  0  0  0  0  0
  189.5270  177.1110  142.5900 C   0  0  2  0  0  3  0  0  0  0  0  0
  190.3560  177.1390  146.8520 C   0  0  1  0  0  3  0  0  0  0  0  0
  186.0250  179.3950  147.6200 C   0  0  0  0  0  2  0  0  0  0  0  0
  191.7430  177.6580  140.7370 C   0  0  0  0  0  2  0  0  0  0  0  0
  189.2820  177.7070  141.1990 C   0  0  0  0  0  2  0  0  0  0  0  0
  183.2330  178.9480  141.6830 C   0  0  0  0  0  0  0  0  0  0  0  0
  180.6500  178.2610  144.0870 O   0  0  0  0  0  0  0  0  0  0  0  0
  183.0830  179.5370  140.5800 O   0  0  0  0  0  0  0  0  0  0  0  0
  182.6860  179.2970  144.6180 C   0  0  0  0  0  3  0  0  0  0  0  0
  184.7080  178.2430  143.6440 C   0  0  1  0  0  3  0  0  0  0  0  0
  182.0990  178.4350  142.3240 O   0  0  0  0  0  0  0  0  0  0  0  0
  184.0070  179.1650  144.5910 C   0  0  0  0  0  3  0  0  0  0  0  0
  184.6340  178.7300  142.1890 C   0  0  1  0  0  3  0  0  0  0  0  0
  185.3350  177.7440  141.2640 C   0  0  0  0  0  1  0  0  0  0  0  0
  181.7840  178.6220  143.6750 C   0  0  0  0  0  0  0  0  0  0  0  0
  190.3230  175.6500  147.1640 C   0  0  0  0  0  2  0  0  0  0  0  0
  191.5890  175.2200  147.5620 O   0  0  0  0  0  1  0  0  0  0  0  0
  1  4  1  0  0  0  0
  1  3  1  0  0  0  0
  2  5  1  0  0  0  0
  2  4  2  0  0  0  0
  3 18  1  0  0  0  0
  4 10  1  0  0  0  0
  5 17  1  0  0  0  0
  6 19  1  0  0  0  0
  6 20  1  0  0  0  0
  7  2  1  0  0  0  0
  9  8  1  6  0  0  0
  9 11  1  0  0  0  0
 10 12  2  0  0  0  0
 10 13  1  0  0  0  0
 11  5  1  0  0  0  0
 14  7  2  0  0  0  0
 14 15  1  0  0  0  0
 15  1  2  0  0  0  0
 16 20  1  6  0  0  0
 16  9  1  0  0  0  0
 16  7  1  0  0  0  0
 17 31  1  6  0  0  0
 17 12  1  0  0  0  0
 18 13  1  0  0  0  0
 19  8  1  0  0  0  0
 21 28  1  0  0  0  0
 21 26  1  0  0  0  0
 23 21  2  0  0  0  0
 25 15  1  1  0  0  0
 25 27  1  0  0  0  0
 26 30  1  0  0  0  0
 27 24  2  0  0  0  0
 28 29  1  6  0  0  0
 28 25  1  0  0  0  0
 30 22  2  0  0  0  0
 30 24  1  0  0  0  0
 31 32  1  0  0  0  0
M  END
>  <MODEL>
2

>  <REMARK>
 VINA RESULT:      -9.1      3.614      8.105
  Name = 
  2 active torsions:
  status: ('A' for Active; 'I' for Inactive)
    1  A    between atoms: C_13  and  C_29
    2  A    between atoms: C_16  and  C_27
                            x       y       z     vdW  Elec       q    Type
                         _______ _______ _______ _____ _____    ______ ____

>  <TORSDO>
F 2

$$$$
=
 OpenBabel10272402033D

 32 37  0  0  1  0  0  0  0  0999 V2000
  190.1390  177.2250  141.1040 C   0  0  0  0  0  0  0  0  0  0  0  0
  188.4360  177.5170  139.3850 C   0  0  0  0  0  0  0  0  0  0  0  0
  191.5680  176.8830  141.4520 C   0  0  0  0  0  2  0  0  0  0  0  0
  189.7560  177.2610  139.7530 C   0  0  0  0  0  0  0  0  0  0  0  0
  188.0940  177.5370  137.9850 N   0  0  0  0  0  0  0  0  0  0  0  0
  183.8830  179.2090  140.5230 C   0  0  0  0  0  2  0  0  0  0  0  0
  187.4760  177.7950  140.3730 C   0  0  0  0  0  0  0  0  0  0  0  0
  184.5540  178.9120  138.1270 C   0  0  0  0  0  2  0  0  0  0  0  0
  186.0010  178.7020  138.5630 C   0  0  2  0  0  3  0  0  0  0  0  0
  190.7650  177.1040  138.7000 C   0  0  0  0  0  0  0  0  0  0  0  0
  186.7200  177.8080  137.5600 C   0  0  0  0  0  2  0  0  0  0  0  0
  190.4140  177.0120  137.4520 N   0  0  0  0  0  0  0  0  0  0  0  0
  192.1470  177.0970  139.0660 N   0  0  0  0  0  2  0  0  0  0  0  0
  187.8440  177.7140  141.7260 C   0  0  0  0  0  3  0  0  0  0  0  0
  189.1670  177.4250  142.1000 C   0  0  0  0  0  0  0  0  0  0  0  0
  186.0490  178.0760  139.9660 C   0  0  2  0  0  3  0  0  0  0  0  0
  189.0140  176.9420  137.0040 C   0  0  1  0  0  3  0  0  0  0  0  0
  192.5450  177.4640  140.4240 C   0  0  0  0  0  2  0  0  0  0  0  0
  183.8350  179.8170  139.1240 C   0  0  0  0  0  2  0  0  0  0  0  0
  185.3310  178.9970  140.9570 C   0  0  0  0  0  2  0  0  0  0  0  0
  188.6620  177.5570  145.9470 C   0  0  0  0  0  0  0  0  0  0  0  0
  192.0990  176.8100  146.6920 O   0  0  0  0  0  0  0  0  0  0  0  0
  187.7970  177.9650  146.7670 O   0  0  0  0  0  0  0  0  0  0  0  0
  191.4170  178.2050  144.9350 C   0  0  0  0  0  3  0  0  0  0  0  0
  189.5390  177.3510  143.5590 C   0  0  1  0  0  3  0  0  0  0  0  0
  189.8290  176.9680  146.4490 O   0  0  0  0  0  0  0  0  0  0  0  0
  190.6860  178.2730  143.8270 C   0  0  0  0  0  3  0  0  0  0  0  0
  188.3390  177.6240  144.4780 C   0  0  1  0  0  3  0  0  0  0  0  0
  187.2130  176.6420  144.1860 C   0  0  0  0  0  1  0  0  0  0  0  0
  191.1300  177.2820  146.0400 C   0  0  0  0  0  0  0  0  0  0  0  0
  188.6320  175.4910  136.7490 C   0  0  0  0  0  2  0  0  0  0  0  0
  188.4870  175.2710  135.3800 O   0  0  0  0  0  1  0  0  0  0  0  0
  1  3  1  0  0  0  0
  1 15  1  0  0  0  0
  2  4  1  0  0  0  0
  2  7  2  0  0  0  0
  4  1  2  0  0  0  0
  5  2  1  0  0  0  0
  6 20  1  0  0  0  0
  7 14  1  0  0  0  0
  8  9  1  0  0  0  0
  8 19  1  0  0  0  0
  9 11  1  6  0  0  0
  9 16  1  0  0  0  0
 10 13  1  0  0  0  0
 10  4  1  0  0  0  0
 11  5  1  0  0  0  0
 12 10  2  0  0  0  0
 13 18  1  0  0  0  0
 14 15  2  0  0  0  0
 16  7  1  0  0  0  0
 16 20  1  1  0  0  0
 17 31  1  1  0  0  0
 17 12  1  0  0  0  0
 17  5  1  0  0  0  0
 18  3  1  0  0  0  0
 19  6  1  0  0  0  0
 21 26  1  0  0  0  0
 21 23  2  0  0  0  0
 24 30  1  0  0  0  0
 25 15  1  6  0  0  0
 25 27  1  0  0  0  0
 25 28  1  0  0  0  0
 27 24  2  0  0  0  0
 28 29  1  1  0  0  0
 28 21  1  0  0  0  0
 30 26  1  0  0  0  0
 30 22  2  0  0  0  0
 32 31  1  0  0  0  0
M  END
>  <MODEL>
3

>  <REMARK>
 VINA RESULT:      -8.9      2.060      3.346
  Name = 
  2 active torsions:
  status: ('A' for Active; 'I' for Inactive)
    1  A    between atoms: C_13  and  C_29
    2  A    between atoms: C_16  and  C_27
                            x       y       z     vdW  Elec       q    Type
                         _______ _______ _______ _____ _____    ______ ____

>  <TORSDO>
F 2

$$$$
=
 OpenBabel10272402033D

 32 37  0  0  1  0  0  0  0  0999 V2000
  185.8210  178.0720  143.3980 C   0  0  0  0  0  0  0  0  0  0  0  0
  187.7840  177.8600  141.9700 C   0  0  0  0  0  0  0  0  0  0  0  0
  185.2380  178.0650  144.7910 C   0  0  0  0  0  2  0  0  0  0  0  0
  187.2070  177.9150  143.2380 C   0  0  0  0  0  0  0  0  0  0  0  0
  189.2110  177.6890  141.8600 N   0  0  0  0  0  0  0  0  0  0  0  0
  187.5000  178.6570  137.0540 C   0  0  0  0  0  2  0  0  0  0  0  0
  186.9790  178.0130  140.8280 C   0  0  0  0  0  0  0  0  0  0  0  0
  189.7270  178.3060  138.1460 C   0  0  0  0  0  2  0  0  0  0  0  0
  189.0710  178.4390  139.5170 C   0  0  2  0  0  3  0  0  0  0  0  0
  188.0830  177.8830  144.4140 C   0  0  0  0  0  0  0  0  0  0  0  0
  189.8540  177.6330  140.5470 C   0  0  0  0  0  2  0  0  0  0  0  0
  189.3490  177.6150  144.2930 N   0  0  0  0  0  0  0  0  0  0  0  0
  187.5280  178.1940  145.6950 N   0  0  0  0  0  2  0  0  0  0  0  0
  185.5880  178.1250  140.9820 C   0  0  0  0  0  3  0  0  0  0  0  0
  185.0010  178.1500  142.2580 C   0  0  0  0  0  0  0  0  0  0  0  0
  187.6130  177.9570  139.4580 C   0  0  2  0  0  3  0  0  0  0  0  0
  189.9790  177.2190  143.0240 C   0  0  1  0  0  3  0  0  0  0  0  0
  186.1780  178.7480  145.7900 C   0  0  0  0  0  2  0  0  0  0  0  0
  188.9520  179.1230  137.1160 C   0  0  0  0  0  2  0  0  0  0  0  0
  186.8450  178.7880  138.4260 C   0  0  0  0  0  2  0  0  0  0  0  0
  181.3110  178.5820  141.1290 C   0  0  0  0  0  0  0  0  0  0  0  0
  179.9930  178.4440  144.4710 O   0  0  0  0  0  0  0  0  0  0  0  0
  180.6810  178.9330  140.0970 O   0  0  0  0  0  0  0  0  0  0  0  0
  181.9860  179.5380  143.8980 C   0  0  0  0  0  3  0  0  0  0  0  0
  183.5060  178.2770  142.3980 C   0  0  1  0  0  3  0  0  0  0  0  0
  180.5790  178.2290  142.2690 O   0  0  0  0  0  0  0  0  0  0  0  0
  183.1880  179.3850  143.3520 C   0  0  0  0  0  3  0  0  0  0  0  0
  182.8090  178.4540  141.0410 C   0  0  1  0  0  3  0  0  0  0  0  0
  183.1400  177.2880  140.1180 C   0  0  0  0  0  1  0  0  0  0  0  0
  180.8300  178.6960  143.5650 C   0  0  0  0  0  0  0  0  0  0  0  0
  190.1160  175.7040  142.9730 C   0  0  0  0  0  2  0  0  0  0  0  0
  191.2720  175.3090  143.6470 O   0  0  0  0  0  1  0  0  0  0  0  0
  1  3  1  0  0  0  0
  2  4  2  0  0  0  0
  3 18  1  0  0  0  0
  4  1  1  0  0  0  0
  4 10  1  0  0  0  0
  5  2  1  0  0  0  0
  5 17  1  0  0  0  0
  6 19  1  0  0  0  0
  6 20  1  0  0  0  0
  7 14  2  0  0  0  0
  7  2  1  0  0  0  0
  9  8  1  6  0  0  0
  9 11  1  0  0  0  0
 10 13  1  0  0  0  0
 11  5  1  0  0  0  0
 12 10  2  0  0  0  0
 13 18  1  0  0  0  0
 14 15  1  0  0  0  0
 15  1  2  0  0  0  0
 16 20  1  6  0  0  0
 16  9  1  0  0  0  0
 16  7  1  0  0  0  0
 17 31  1  1  0  0  0
 17 12  1  0  0  0  0
 19  8  1  0  0  0  0
 21 26  1  0  0  0  0
 23 21  2  0  0  0  0
 25 15  1  6  0  0  0
 25 27  1  0  0  0  0
 26 30  1  0  0  0  0
 27 24  2  0  0  0  0
 28 29  1  6  0  0  0
 28 21  1  0  0  0  0
 28 25  1  0  0  0  0
 30 24  1  0  0  0  0
 30 22  2  0  0  0  0
 31 32  1  0  0  0  0
M  END
>  <MODEL>
4

>  <REMARK>
 VINA RESULT:      -8.8      3.076      7.239
  Name = 
  2 active torsions:
  status: ('A' for Active; 'I' for Inactive)
    1  A    between atoms: C_13  and  C_29
    2  A    between atoms: C_16  and  C_27
                            x       y       z     vdW  Elec       q    Type
                         _______ _______ _______ _____ _____    ______ ____

>  <TORSDO>
F 2

$$$$
=
 OpenBabel10272402033D

 32 37  0  0  1  0  0  0  0  0999 V2000
  188.6760  177.3980  138.1440 C   0  0  0  0  0  0  0  0  0  0  0  0
  188.2180  177.7960  140.5040 C   0  0  0  0  0  0  0  0  0  0  0  0
  188.2250  177.5210  136.7080 C   0  0  0  0  0  2  0  0  0  0  0  0
  187.8700  177.9340  139.1610 C   0  0  0  0  0  0  0  0  0  0  0  0
  187.3520  178.3590  141.5100 N   0  0  0  0  0  0  0  0  0  0  0  0
  191.6240  176.7780  144.0040 C   0  0  0  0  0  2  0  0  0  0  0  0
  189.4190  177.1550  140.8530 C   0  0  0  0  0  0  0  0  0  0  0  0
  189.5100  177.9760  144.6150 C   0  0  0  0  0  2  0  0  0  0  0  0
  189.1960  178.1670  143.1340 C   0  0  2  0  0  3  0  0  0  0  0  0
  186.6800  178.7200  138.8170 C   0  0  0  0  0  0  0  0  0  0  0  0
  187.6870  178.2390  142.9300 C   0  0  0  0  0  2  0  0  0  0  0  0
  185.8560  179.1180  139.7410 N   0  0  0  0  0  0  0  0  0  0  0  0
  186.4630  179.0780  137.4500 N   0  0  0  0  0  2  0  0  0  0  0  0
  190.2040  176.5780  139.8430 C   0  0  0  0  0  3  0  0  0  0  0  0
  189.8400  176.6890  138.4900 C   0  0  0  0  0  0  0  0  0  0  0  0
  189.7910  177.0140  142.3100 C   0  0  2  0  0  3  0  0  0  0  0  0
  185.9740  178.7330  141.1560 C   0  0  1  0  0  3  0  0  0  0  0  0
  187.5170  178.8580  136.4610 C   0  0  0  0  0  2  0  0  0  0  0  0
  191.0200  177.9160  144.8230 C   0  0  0  0  0  2  0  0  0  0  0  0
  191.3070  176.9690  142.5230 C   0  0  0  0  0  2  0  0  0  0  0  0
  191.3460  173.8790  136.2740 C   0  0  0  0  0  0  0  0  0  0  0  0
  193.4770  176.1100  134.4290 O   0  0  0  0  0  0  0  0  0  0  0  0
  191.4020  172.6210  136.2630 O   0  0  0  0  0  0  0  0  0  0  0  0
  193.0740  176.2960  136.7310 C   0  0  0  0  0  3  0  0  0  0  0  0
  190.7030  176.0660  137.4240 C   0  0  1  0  0  3  0  0  0  0  0  0
  191.9800  174.5820  135.2430 O   0  0  0  0  0  0  0  0  0  0  0  0
  192.1320  176.4430  137.6580 C   0  0  0  0  0  3  0  0  0  0  0  0
  190.5050  174.5460  137.3310 C   0  0  1  0  0  3  0  0  0  0  0  0
  189.0430  174.2170  137.0630 C   0  0  0  0  0  1  0  0  0  0  0  0
  192.8330  175.6780  135.4210 C   0  0  0  0  0  0  0  0  0  0  0  0
  185.0320  177.5740  141.4500 C   0  0  0  0  0  2  0  0  0  0  0  0
  184.0640  177.9710  142.3720 O   0  0  0  0  0  1  0  0  0  0  0  0
  1 15  2  0  0  0  0
  1  4  1  0  0  0  0
  2  7  1  0  0  0  0
  2  5  1  0  0  0  0
  3  1  1  0  0  0  0
  4  2  2  0  0  0  0
  5 11  1  0  0  0  0
  6 19  1  0  0  0  0
  7 16  1  0  0  0  0
  8 19  1  0  0  0  0
  9 11  1  1  0  0  0
  9  8  1  0  0  0  0
 10  4  1  0  0  0  0
 10 12  2  0  0  0  0
 12 17  1  0  0  0  0
 13 10  1  0  0  0  0
 14  7  2  0  0  0  0
 15 14  1  0  0  0  0
 16 20  1  6  0  0  0
 16  9  1  0  0  0  0
 17 31  1  6  0  0  0
 17  5  1  0  0  0  0
 18  3  1  0  0  0  0
 18 13  1  0  0  0  0
 20  6  1  0  0  0  0
 21 28  1  0  0  0  0
 22 30  2  0  0  0  0
 23 21  2  0  0  0  0
 24 27  2  0  0  0  0
 25 27  1  0  0  0  0
 25 15  1  1  0  0  0
 26 30  1  0  0  0  0
 26 21  1  0  0  0  0
 28 29  1  6  0  0  0
 28 25  1  0  0  0  0
 30 24  1  0  0  0  0
 31 32  1  0  0  0  0
M  END
>  <MODEL>
5

>  <REMARK>
 VINA RESULT:      -8.5      3.873      7.262
  Name = 
  2 active torsions:
  status: ('A' for Active; 'I' for Inactive)
    1  A    between atoms: C_13  and  C_29
    2  A    between atoms: C_16  and  C_27
                            x       y       z     vdW  Elec       q    Type
                         _______ _______ _______ _____ _____    ______ ____

>  <TORSDO>
F 2

$$$$
=
 OpenBabel10272402033D

 32 37  0  0  1  0  0  0  0  0999 V2000
  185.7060  178.4960  142.9270 C   0  0  0  0  0  0  0  0  0  0  0  0
  185.8740  178.4480  140.4960 C   0  0  0  0  0  0  0  0  0  0  0  0
  184.8610  178.7500  144.1520 C   0  0  0  0  0  2  0  0  0  0  0  0
  185.1200  178.6180  141.6560 C   0  0  0  0  0  0  0  0  0  0  0  0
  185.2260  178.5910  139.2170 N   0  0  0  0  0  0  0  0  0  0  0  0
  189.9980  176.7990  138.2250 C   0  0  0  0  0  2  0  0  0  0  0  0
  187.2320  178.0980  140.5890 C   0  0  0  0  0  0  0  0  0  0  0  0
  187.9480  177.3290  136.8850 C   0  0  0  0  0  2  0  0  0  0  0  0
  187.1400  177.4410  138.1740 C   0  0  2  0  0  3  0  0  0  0  0  0
  183.6770  178.8530  141.5340 C   0  0  0  0  0  0  0  0  0  0  0  0
  185.9820  178.4130  137.9770 C   0  0  0  0  0  2  0  0  0  0  0  0
  183.1400  179.0910  140.3740 N   0  0  0  0  0  0  0  0  0  0  0  0
  182.8640  178.7740  142.7070 N   0  0  0  0  0  2  0  0  0  0  0  0
  187.8330  178.0210  141.8560 C   0  0  0  0  0  3  0  0  0  0  0  0
  187.0820  178.2220  143.0270 C   0  0  0  0  0  0  0  0  0  0  0  0
  188.0410  177.9110  139.3270 C   0  0  2  0  0  3  0  0  0  0  0  0
  183.9160  179.2560  139.1360 C   0  0  1  0  0  3  0  0  0  0  0  0
  183.4260  178.2500  143.9510 C   0  0  0  0  0  2  0  0  0  0  0  0
  189.1000  176.3470  137.0760 C   0  0  0  0  0  2  0  0  0  0  0  0
  189.1880  176.9130  139.5130 C   0  0  0  0  0  2  0  0  0  0  0  0
  189.8980  177.4970  145.5990 C   0  0  0  0  0  0  0  0  0  0  0  0
  187.9220  178.4760  148.4390 O   0  0  0  0  0  0  0  0  0  0  0  0
  191.0010  176.8920  145.6370 O   0  0  0  0  0  0  0  0  0  0  0  0
  187.0740  177.2820  146.6070 C   0  0  0  0  0  3  0  0  0  0  0  0
  187.7480  178.1270  144.3750 C   0  0  1  0  0  3  0  0  0  0  0  0
  189.4430  178.1250  146.7650 O   0  0  0  0  0  0  0  0  0  0  0  0
  186.9030  177.2970  145.2890 C   0  0  0  0  0  3  0  0  0  0  0  0
  189.1890  177.6060  144.2750 C   0  0  1  0  0  3  0  0  0  0  0  0
  190.0140  178.5010  143.3590 C   0  0  0  0  0  1  0  0  0  0  0  0
  188.1520  178.0050  147.2940 C   0  0  0  0  0  0  0  0  0  0  0  0
  184.1060  180.7380  138.8460 C   0  0  0  0  0  2  0  0  0  0  0  0
  182.8700  181.3840  138.8460 O   0  0  0  0  0  1  0  0  0  0  0  0
  1 15  1  0  0  0  0
  1  3  1  0  0  0  0
  2  7  2  0  0  0  0
  2  4  1  0  0  0  0
  4  1  2  0  0  0  0
  5  2  1  0  0  0  0
  6 20  1  0  0  0  0
  7 14  1  0  0  0  0
  8 19  1  0  0  0  0
  9  8  1  6  0  0  0
  9 16  1  0  0  0  0
 10  4  1  0  0  0  0
 10 13  1  0  0  0  0
 11  9  1  0  0  0  0
 11  5  1  0  0  0  0
 12 10  2  0  0  0  0
 13 18  1  0  0  0  0
 14 15  2  0  0  0  0
 16 20  1  1  0  0  0
 16  7  1  0  0  0  0
 17 31  1  1  0  0  0
 17  5  1  0  0  0  0
 17 12  1  0  0  0  0
 18  3  1  0  0  0  0
 19  6  1  0  0  0  0
 21 23  2  0  0  0  0
 21 26  1  0  0  0  0
 24 30  1  0  0  0  0
 25 15  1  6  0  0  0
 25 27  1  0  0  0  0
 26 30  1  0  0  0  0
 27 24  2  0  0  0  0
 28 29  1  6  0  0  0
 28 25  1  0  0  0  0
 28 21  1  0  0  0  0
 30 22  2  0  0  0  0
 32 31  1  0  0  0  0
M  END
>  <MODEL>
6

>  <REMARK>
 VINA RESULT:      -8.4      1.847      4.953
  Name = 
  2 active torsions:
  status: ('A' for Active; 'I' for Inactive)
    1  A    between atoms: C_13  and  C_29
    2  A    between atoms: C_16  and  C_27
                            x       y       z     vdW  Elec       q    Type
                         _______ _______ _______ _____ _____    ______ ____

>  <TORSDO>
F 2

$$$$
=
 OpenBabel10272402033D

 32 37  0  0  1  0  0  0  0  0999 V2000
  189.2590  177.1390  138.9850 C   0  0  0  0  0  0  0  0  0  0  0  0
  188.6180  177.6280  141.2850 C   0  0  0  0  0  0  0  0  0  0  0  0
  188.9510  177.2590  137.5120 C   0  0  0  0  0  2  0  0  0  0  0  0
  188.4060  177.7570  139.9140 C   0  0  0  0  0  0  0  0  0  0  0  0
  187.7090  178.2770  142.1960 N   0  0  0  0  0  0  0  0  0  0  0  0
  191.6040  176.4510  145.1050 C   0  0  0  0  0  2  0  0  0  0  0  0
  189.7310  176.9100  141.7560 C   0  0  0  0  0  0  0  0  0  0  0  0
  189.5390  177.8150  145.4940 C   0  0  0  0  0  2  0  0  0  0  0  0
  189.3770  177.9920  143.9880 C   0  0  2  0  0  3  0  0  0  0  0  0
  187.3150  178.6200  139.4460 C   0  0  0  0  0  0  0  0  0  0  0  0
  187.9020  178.1690  143.6420 C   0  0  0  0  0  2  0  0  0  0  0  0
  186.4430  179.1000  140.2820 N   0  0  0  0  0  0  0  0  0  0  0  0
  187.2510  178.9580  138.0580 N   0  0  0  0  0  2  0  0  0  0  0  0
  190.5600  176.2510  140.8340 C   0  0  0  0  0  3  0  0  0  0  0  0
  190.3300  176.3550  139.4520 C   0  0  0  0  0  0  0  0  0  0  0  0
  189.9560  176.7780  143.2440 C   0  0  2  0  0  3  0  0  0  0  0  0
  186.4010  178.7430  141.7090 C   0  0  1  0  0  3  0  0  0  0  0  0
  188.3720  178.6370  137.1760 C   0  0  0  0  0  2  0  0  0  0  0  0
  191.0150  177.6500  145.8440 C   0  0  0  0  0  2  0  0  0  0  0  0
  191.4390  176.6270  143.5980 C   0  0  0  0  0  2  0  0  0  0  0  0
  193.3290  175.8700  137.0340 C   0  0  0  0  0  0  0  0  0  0  0  0
  192.4690  172.4750  136.2220 O   0  0  0  0  0  0  0  0  0  0  0  0
  194.1770  176.5830  136.4370 O   0  0  0  0  0  0  0  0  0  0  0  0
  190.8930  174.1890  136.5020 C   0  0  0  0  0  3  0  0  0  0  0  0
  191.2380  175.6440  138.4810 C   0  0  1  0  0  3  0  0  0  0  0  0
  193.3730  174.4830  136.8440 O   0  0  0  0  0  0  0  0  0  0  0  0
  190.4270  175.1040  137.3460 C   0  0  0  0  0  3  0  0  0  0  0  0
  192.3910  176.5390  138.0040 C   0  0  1  0  0  3  0  0  0  0  0  0
  193.2020  177.0370  139.1930 C   0  0  0  0  0  1  0  0  0  0  0  0
  192.2690  173.6760  136.5420 C   0  0  0  0  0  0  0  0  0  0  0  0
  185.3520  177.6640  141.9340 C   0  0  0  0  0  2  0  0  0  0  0  0
  184.4040  178.1090  142.8550 O   0  0  0  0  0  1  0  0  0  0  0  0
  1 15  2  0  0  0  0
  1  4  1  0  0  0  0
  2  7  1  0  0  0  0
  2  5  1  0  0  0  0
  3  1  1  0  0  0  0
  4  2  2  0  0  0  0
  5 11  1  0  0  0  0
  6 19  1  0  0  0  0
  7 16  1  0  0  0  0
  8 19  1  0  0  0  0
  9 11  1  1  0  0  0
  9  8  1  0  0  0  0
 10  4  1  0  0  0  0
 10 12  2  0  0  0  0
 12 17  1  0  0  0  0
 13 10  1  0  0  0  0
 14  7  2  0  0  0  0
 15 14  1  0  0  0  0
 16 20  1  6  0  0  0
 16  9  1  0  0  0  0
 17 31  1  6  0  0  0
 17  5  1  0  0  0  0
 18  3  1  0  0  0  0
 18 13  1  0  0  0  0
 20  6  1  0  0  0  0
 21 28  1  0  0  0  0
 22 30  2  0  0  0  0
 23 21  2  0  0  0  0
 24 30  1  0  0  0  0
 24 27  2  0  0  0  0
 25 15  1  1  0  0  0
 26 21  1  0  0  0  0
 27 25  1  0  0  0  0
 28 25  1  0  0  0  0
 28 29  1  1  0  0  0
 30 26  1  0  0  0  0
 31 32  1  0  0  0  0
M  END
>  <MODEL>
7

>  <REMARK>
 VINA RESULT:      -8.3      4.020      7.180
  Name = 
  2 active torsions:
  status: ('A' for Active; 'I' for Inactive)
    1  A    between atoms: C_13  and  C_29
    2  A    between atoms: C_16  and  C_27
                            x       y       z     vdW  Elec       q    Type
                         _______ _______ _______ _____ _____    ______ ____

>  <TORSDO>
F 2

$$$$
=
 OpenBabel10272402033D

 32 37  0  0  1  0  0  0  0  0999 V2000
  188.0150  178.2500  140.2520 C   0  0  0  0  0  0  0  0  0  0  0  0
  185.5780  178.2550  140.2810 C   0  0  0  0  0  0  0  0  0  0  0  0
  189.2900  178.2300  139.4450 C   0  0  0  0  0  2  0  0  0  0  0  0
  186.7820  178.2910  139.5810 C   0  0  0  0  0  0  0  0  0  0  0  0
  184.3400  178.2910  139.5430 N   0  0  0  0  0  0  0  0  0  0  0  0
  183.0470  178.7430  144.5530 C   0  0  0  0  0  2  0  0  0  0  0  0
  185.5870  178.2280  141.6870 C   0  0  0  0  0  0  0  0  0  0  0  0
  181.8360  178.7820  142.3590 C   0  0  0  0  0  2  0  0  0  0  0  0
  183.1710  178.8890  141.6290 C   0  0  2  0  0  3  0  0  0  0  0  0
  186.7470  178.4500  138.1230 C   0  0  0  0  0  0  0  0  0  0  0  0
  183.0560  178.2610  140.2440 C   0  0  0  0  0  2  0  0  0  0  0  0
  185.6240  178.3660  137.4720 N   0  0  0  0  0  0  0  0  0  0  0  0
  187.9640  178.7420  137.4320 N   0  0  0  0  0  2  0  0  0  0  0  0
  186.8150  178.1410  142.3610 C   0  0  0  0  0  3  0  0  0  0  0  0
  188.0300  178.1460  141.6550 C   0  0  0  0  0  0  0  0  0  0  0  0
  184.2770  178.1940  142.4390 C   0  0  2  0  0  3  0  0  0  0  0  0
  184.3450  178.0010  138.1010 C   0  0  1  0  0  3  0  0  0  0  0  0
  189.1650  179.0960  138.1860 C   0  0  0  0  0  2  0  0  0  0  0  0
  181.9450  179.4200  143.7410 C   0  0  0  0  0  2  0  0  0  0  0  0
  184.3820  178.8480  143.8200 C   0  0  0  0  0  2  0  0  0  0  0  0
  191.1720  176.4810  143.2150 C   0  0  0  0  0  0  0  0  0  0  0  0
  192.4970  179.5670  144.4990 O   0  0  0  0  0  0  0  0  0  0  0  0
  191.5750  175.3240  143.5040 O   0  0  0  0  0  0  0  0  0  0  0  0
  190.2170  179.0200  144.5120 C   0  0  0  0  0  3  0  0  0  0  0  0
  189.3360  178.0580  142.4020 C   0  0  1  0  0  3  0  0  0  0  0  0
  192.0090  177.5670  143.4980 O   0  0  0  0  0  0  0  0  0  0  0  0
  189.1800  178.6830  143.7530 C   0  0  0  0  0  3  0  0  0  0  0  0
  189.8650  176.6190  142.4800 C   0  0  1  0  0  3  0  0  0  0  0  0
  190.0350  176.0400  141.0810 C   0  0  0  0  0  1  0  0  0  0  0  0
  191.6130  178.7430  144.1470 C   0  0  0  0  0  0  0  0  0  0  0  0
  184.0670  176.5220  137.8710 C   0  0  0  0  0  2  0  0  0  0  0  0
  184.6080  176.1220  136.6500 O   0  0  0  0  0  1  0  0  0  0  0  0
  1 15  1  0  0  0  0
  2  7  2  0  0  0  0
  3  1  1  0  0  0  0
  4  1  2  0  0  0  0
  4  2  1  0  0  0  0
  5 11  1  0  0  0  0
  5  2  1  0  0  0  0
  7 14  1  0  0  0  0
  7 16  1  0  0  0  0
  8 19  1  0  0  0  0
  9 11  1  6  0  0  0
  9  8  1  0  0  0  0
  9 16  1  0  0  0  0
 10  4  1  0  0  0  0
 12 17  1  0  0  0  0
 12 10  2  0  0  0  0
 13 10  1  0  0  0  0
 13 18  1  0  0  0  0
 15 14  2  0  0  0  0
 16 20  1  1  0  0  0
 17 31  1  1  0  0  0
 17  5  1  0  0  0  0
 18  3  1  0  0  0  0
 19  6  1  0  0  0  0
 20  6  1  0  0  0  0
 21 26  1  0  0  0  0
 21 23  2  0  0  0  0
 25 15  1  1  0  0  0
 25 28  1  0  0  0  0
 25 27  1  0  0  0  0
 26 30  1  0  0  0  0
 27 24  2  0  0  0  0
 28 29  1  6  0  0  0
 28 21  1  0  0  0  0
 30 22  2  0  0  0  0
 30 24  1  0  0  0  0
 32 31  1  0  0  0  0
M  END
>  <MODEL>
8

>  <REMARK>
 VINA RESULT:      -8.2      1.689      2.227
  Name = 
  2 active torsions:
  status: ('A' for Active; 'I' for Inactive)
    1  A    between atoms: C_13  and  C_29
    2  A    between atoms: C_16  and  C_27
                            x       y       z     vdW  Elec       q    Type
                         _______ _______ _______ _____ _____    ______ ____

>  <TORSDO>
F 2

$$$$
=
 OpenBabel10272402033D

 32 37  0  0  1  0  0  0  0  0999 V2000
  188.5640  177.7440  143.8790 C   0  0  0  0  0  0  0  0  0  0  0  0
  186.2920  178.3520  144.5190 C   0  0  0  0  0  0  0  0  0  0  0  0
  189.9710  177.4000  144.3050 C   0  0  0  0  0  2  0  0  0  0  0  0
  187.5900  177.9770  144.8630 C   0  0  0  0  0  0  0  0  0  0  0  0
  185.3330  178.5860  145.5690 N   0  0  0  0  0  0  0  0  0  0  0  0
  182.6670  178.7450  141.1150 C   0  0  0  0  0  2  0  0  0  0  0  0
  185.9290  178.4510  143.1650 C   0  0  0  0  0  0  0  0  0  0  0  0
  182.1230  178.8920  143.5570 C   0  0  0  0  0  2  0  0  0  0  0  0
  183.5330  178.4150  143.8950 C   0  0  2  0  0  3  0  0  0  0  0  0
  187.9090  177.7530  146.2780 C   0  0  0  0  0  0  0  0  0  0  0  0
  183.9590  178.9750  145.2470 C   0  0  0  0  0  2  0  0  0  0  0  0
  187.0630  178.0810  147.2090 N   0  0  0  0  0  0  0  0  0  0  0  0
  189.1500  177.1290  146.6130 N   0  0  0  0  0  2  0  0  0  0  0  0
  186.9100  178.2640  142.1780 C   0  0  0  0  0  3  0  0  0  0  0  0
  188.2270  177.9170  142.5240 C   0  0  0  0  0  0  0  0  0  0  0  0
  184.5190  178.8530  142.8010 C   0  0  2  0  0  3  0  0  0  0  0  0
  185.8000  178.7890  146.9490 C   0  0  1  0  0  3  0  0  0  0  0  0
  189.9720  176.5270  145.5640 C   0  0  0  0  0  2  0  0  0  0  0  0
  181.6890  178.3220  142.2090 C   0  0  0  0  0  2  0  0  0  0  0  0
  184.0770  178.2690  141.4550 C   0  0  0  0  0  2  0  0  0  0  0  0
  189.6230  177.1320  138.9870 C   0  0  0  0  0  0  0  0  0  0  0  0
  193.0580  177.5690  139.9550 O   0  0  0  0  0  0  0  0  0  0  0  0
  189.2150  176.6280  137.9080 O   0  0  0  0  0  0  0  0  0  0  0  0
  191.4410  176.5410  141.3070 C   0  0  0  0  0  3  0  0  0  0  0  0
  189.2610  177.7140  141.4460 C   0  0  1  0  0  3  0  0  0  0  0  0
  190.9530  177.5670  139.0580 O   0  0  0  0  0  0  0  0  0  0  0  0
  190.2660  176.7050  141.9050 C   0  0  0  0  0  3  0  0  0  0  0  0
  188.6280  177.3410  140.0980 C   0  0  1  0  0  3  0  0  0  0  0  0
  187.6370  178.4130  139.6620 C   0  0  0  0  0  1  0  0  0  0  0  0
  191.8440  177.2670  140.0960 C   0  0  0  0  0  0  0  0  0  0  0  0
  185.9820  180.2750  147.2210 C   0  0  0  0  0  2  0  0  0  0  0  0
  185.9820  180.5100  148.5950 O   0  0  0  0  0  1  0  0  0  0  0  0
  1  3  1  0  0  0  0
  1  4  1  0  0  0  0
  2  4  2  0  0  0  0
  2  5  1  0  0  0  0
  3 18  1  0  0  0  0
  4 10  1  0  0  0  0
  5 17  1  0  0  0  0
  6 20  1  0  0  0  0
  6 19  1  0  0  0  0
  7  2  1  0  0  0  0
  9  8  1  6  0  0  0
  9 11  1  0  0  0  0
 10 13  1  0  0  0  0
 10 12  2  0  0  0  0
 11  5  1  0  0  0  0
 14 15  1  0  0  0  0
 14  7  2  0  0  0  0
 15  1  2  0  0  0  0
 16 20  1  6  0  0  0
 16  7  1  0  0  0  0
 16  9  1  0  0  0  0
 17 12  1  0  0  0  0
 17 31  1  6  0  0  0
 18 13  1  0  0  0  0
 19  8  1  0  0  0  0
 21 26  1  0  0  0  0
 21 28  1  0  0  0  0
 22 30  2  0  0  0  0
 23 21  2  0  0  0  0
 24 27  2  0  0  0  0
 25 27  1  0  0  0  0
 25 15  1  1  0  0  0
 26 30  1  0  0  0  0
 28 29  1  6  0  0  0
 28 25  1  0  0  0  0
 30 24  1  0  0  0  0
 31 32  1  0  0  0  0
M  END
>  <MODEL>
9

>  <REMARK>
 VINA RESULT:      -8.1      3.195      5.837
  Name = 
  2 active torsions:
  status: ('A' for Active; 'I' for Inactive)
    1  A    between atoms: C_13  and  C_29
    2  A    between atoms: C_16  and  C_27
                            x       y       z     vdW  Elec       q    Type
                         _______ _______ _______ _____ _____    ______ ____

>  <TORSDO>
F 2

$$$$
