=
 OpenBabel10272402123D

 32 37  0  0  1  0  0  0  0  0999 V2000
  186.7790  178.0760  145.6160 C   0  0  0  0  0  0  0  0  0  0  0  0
  189.0830  177.0560  145.2040 C   0  0  0  0  0  0  0  0  0  0  0  0
  185.8630  178.7030  146.4520 C   0  0  0  0  0  3  0  0  0  0  0  0
  188.0980  177.7040  146.0690 C   0  0  0  0  0  0  0  0  0  0  0  0
  190.4210  176.6250  145.7540 C   0  0  1  0  0  3  0  0  0  0  0  0
  192.1120  177.7150  139.9830 C   0  0  0  0  0  1  0  0  0  0  0  0
  188.8430  176.7820  143.8140 C   0  0  0  0  0  0  0  0  0  0  0  0
  191.9990  177.2520  142.3570 N   0  0  0  0  0  0  0  0  0  0  0  0
  191.2120  176.7450  143.3900 N   0  0  0  0  0  0  0  0  0  0  0  0
  188.4530  178.0080  147.3870 C   0  0  0  0  0  0  0  0  0  0  0  0
  186.3070  177.4790  142.9620 C   0  0  1  0  0  3  0  0  0  0  0  0
  191.5490  177.0390  144.7910 C   0  0  0  0  0  2  0  0  0  0  0  0
  189.7610  177.6900  147.8780 N   0  0  0  0  0  0  0  0  0  0  0  0
  187.5280  178.6410  148.2300 C   0  0  0  0  0  3  0  0  0  0  0  0
  187.5810  177.1400  143.4400 C   0  0  0  0  0  0  0  0  0  0  0  0
  186.5880  177.7630  144.3060 C   0  0  0  0  0  0  0  0  0  0  0  0
  189.9240  176.2020  142.9560 C   0  0  2  0  0  3  0  0  0  0  0  0
  190.6780  177.0740  147.1870 C   0  0  0  0  0  0  0  0  0  0  0  0
  186.2460  178.9820  147.7690 C   0  0  0  0  0  3  0  0  0  0  0  0
  191.4230  177.2300  141.2080 C   0  0  0  0  0  0  0  0  0  0  0  0
  189.7400  176.6280  141.1840 S   0  0  0  0  0  0  0  0  0  0  0  0
  191.8890  176.7850  147.8260 O   0  0  0  0  0  0  0  0  0  0  0  0
  192.4640  175.4870  147.8580 C   0  0  0  0  0  1  0  0  0  0  0  0
  186.3880  178.7570  142.1460 C   0  0  0  0  0  2  0  0  0  0  0  0
  185.9080  178.8610  139.6610 C   0  0  0  0  0  0  0  0  0  0  0  0
  184.8590  179.5300  139.8590 O   0  0  0  0  0  0  0  0  0  0  0  0
  186.2770  178.5190  138.3240 N   0  0  0  0  0  2  0  0  0  0  0  0
  186.7250  178.4530  140.7630 N   0  0  0  0  0  2  0  0  0  0  0  0
  188.6030  178.6350  137.5310 C   0  0  0  0  0  1  0  0  0  0  0  0
  187.4700  177.7380  138.0130 C   0  0  2  0  0  3  0  0  0  0  0  0
  187.1990  176.6760  137.1200 O   0  0  0  0  0  0  0  0  0  0  0  0
  188.1980  175.6960  137.2530 C   0  0  0  0  0  1  0  0  0  0  0  0
  1  4  2  0  0  0  0
  1  3  1  0  0  0  0
  2  5  1  0  0  0  0
  2  4  1  0  0  0  0
  3 19  2  0  0  0  0
  4 10  1  0  0  0  0
  5 12  1  6  0  0  0
  5 18  1  0  0  0  0
  6 20  1  0  0  0  0
  7  2  2  0  0  0  0
  8  9  1  0  0  0  0
  9 12  1  0  0  0  0
 10 13  1  0  0  0  0
 10 14  2  0  0  0  0
 11 24  1  6  0  0  0
 11 15  1  0  0  0  0
 11 16  1  0  0  0  0
 15  7  1  0  0  0  0
 15 16  2  0  0  0  0
 16  1  1  0  0  0  0
 17 21  1  6  0  0  0
 17  9  1  0  0  0  0
 17  7  1  0  0  0  0
 18 22  1  0  0  0  0
 18 13  2  0  0  0  0
 19 14  1  0  0  0  0
 20  8  2  0  0  0  0
 21 20  1  0  0  0  0
 22 23  1  0  0  0  0
 25 26  2  0  0  0  0
 25 28  1  0  0  0  0
 27 25  1  0  0  0  0
 28 24  1  0  0  0  0
 30 29  1  6  0  0  0
 30 27  1  0  0  0  0
 31 32  1  0  0  0  0
 31 30  1  0  0  0  0
M  END
>  <MODEL>
1

>  <REMARK>
 VINA RESULT:     -10.3      0.000      0.000
  Name = 
  5 active torsions:
  status: ('A' for Active; 'I' for Inactive)
    1  A    between atoms: O_13  and  C_29
    2  A    between atoms: O_15  and  C_26
    3  A    between atoms: C_16  and  C_23
    4  A    between atoms: N_19  and  C_26
    5  A    between atoms: N_22  and  C_23
                            x       y       z     vdW  Elec       q    Type
                         _______ _______ _______ _____ _____    ______ ____

>  <TORSDO>
F 5

$$$$
=
 OpenBabel10272402123D

 32 37  0  0  1  0  0  0  0  0999 V2000
  186.6280  178.1740  145.3500 C   0  0  0  0  0  0  0  0  0  0  0  0
  188.9130  177.0770  145.0420 C   0  0  0  0  0  0  0  0  0  0  0  0
  185.6890  178.8140  146.1500 C   0  0  0  0  0  3  0  0  0  0  0  0
  187.9040  177.7390  145.8680 C   0  0  0  0  0  0  0  0  0  0  0  0
  190.1990  176.5800  145.6560 C   0  0  1  0  0  3  0  0  0  0  0  0
  192.2650  177.7580  140.0270 C   0  0  0  0  0  1  0  0  0  0  0  0
  188.7440  176.8500  143.6340 C   0  0  0  0  0  0  0  0  0  0  0  0
  191.9960  177.2360  142.3750 N   0  0  0  0  0  0  0  0  0  0  0  0
  191.1310  176.7330  143.3460 N   0  0  0  0  0  0  0  0  0  0  0  0
  188.1910  177.9940  147.2130 C   0  0  0  0  0  0  0  0  0  0  0  0
  186.2910  177.6680  142.6580 C   0  0  1  0  0  3  0  0  0  0  0  0
  191.3960  176.9750  144.7720 C   0  0  0  0  0  2  0  0  0  0  0  0
  189.4550  177.6120  147.7690 N   0  0  0  0  0  0  0  0  0  0  0  0
  187.2420  178.6390  148.0190 C   0  0  0  0  0  3  0  0  0  0  0  0
  187.5210  177.2670  143.1980 C   0  0  0  0  0  0  0  0  0  0  0  0
  186.5020  177.9050  144.0230 C   0  0  0  0  0  0  0  0  0  0  0  0
  189.8520  176.2520  142.8230 C   0  0  2  0  0  3  0  0  0  0  0  0
  190.3880  176.9800  147.1130 C   0  0  0  0  0  0  0  0  0  0  0  0
  186.0030  179.0420  147.4950 C   0  0  0  0  0  3  0  0  0  0  0  0
  191.4880  177.2680  141.1940 C   0  0  0  0  0  0  0  0  0  0  0  0
  189.7870  176.7320  141.0560 S   0  0  0  0  0  0  0  0  0  0  0  0
  191.5470  176.6270  147.8130 O   0  0  0  0  0  0  0  0  0  0  0  0
  192.1990  175.3740  147.6620 C   0  0  0  0  0  1  0  0  0  0  0  0
  186.4670  178.9640  141.8850 C   0  0  0  0  0  2  0  0  0  0  0  0
  185.5180  178.8120  139.5410 C   0  0  0  0  0  0  0  0  0  0  0  0
  186.5990  178.3410  139.0990 O   0  0  0  0  0  0  0  0  0  0  0  0
  184.4250  179.0160  138.6440 N   0  0  0  0  0  2  0  0  0  0  0  0
  185.3820  179.1340  140.9290 N   0  0  0  0  0  2  0  0  0  0  0  0
  181.9810  178.7810  138.4860 C   0  0  0  0  0  1  0  0  0  0  0  0
  183.1450  179.5670  139.0760 C   0  0  2  0  0  3  0  0  0  0  0  0
  183.0460  180.9550  138.8270 O   0  0  0  0  0  0  0  0  0  0  0  0
  181.7200  181.2690  138.4840 C   0  0  0  0  0  1  0  0  0  0  0  0
  1  4  2  0  0  0  0
  1  3  1  0  0  0  0
  2  5  1  0  0  0  0
  2  4  1  0  0  0  0
  3 19  2  0  0  0  0
  4 10  1  0  0  0  0
  5 12  1  6  0  0  0
  5 18  1  0  0  0  0
  6 20  1  0  0  0  0
  7  2  2  0  0  0  0
  8  9  1  0  0  0  0
  9 12  1  0  0  0  0
 10 13  1  0  0  0  0
 10 14  2  0  0  0  0
 11 24  1  6  0  0  0
 11 15  1  0  0  0  0
 11 16  1  0  0  0  0
 15  7  1  0  0  0  0
 15 16  2  0  0  0  0
 16  1  1  0  0  0  0
 17 21  1  6  0  0  0
 17  9  1  0  0  0  0
 17  7  1  0  0  0  0
 18 13  2  0  0  0  0
 18 22  1  0  0  0  0
 19 14  1  0  0  0  0
 20  8  2  0  0  0  0
 21 20  1  0  0  0  0
 23 22  1  0  0  0  0
 25 28  1  0  0  0  0
 26 25  2  0  0  0  0
 27 30  1  0  0  0  0
 27 25  1  0  0  0  0
 28 24  1  0  0  0  0
 30 29  1  6  0  0  0
 31 30  1  0  0  0  0
 32 31  1  0  0  0  0
M  END
>  <MODEL>
2

>  <REMARK>
 VINA RESULT:     -10.0      1.474      2.463
  Name = 
  5 active torsions:
  status: ('A' for Active; 'I' for Inactive)
    1  A    between atoms: O_13  and  C_29
    2  A    between atoms: O_15  and  C_26
    3  A    between atoms: C_16  and  C_23
    4  A    between atoms: N_19  and  C_26
    5  A    between atoms: N_22  and  C_23
                            x       y       z     vdW  Elec       q    Type
                         _______ _______ _______ _____ _____    ______ ____

>  <TORSDO>
F 5

$$$$
=
 OpenBabel10272402123D

 32 37  0  0  1  0  0  0  0  0999 V2000
  185.6030  178.7840  143.0610 C   0  0  0  0  0  0  0  0  0  0  0  0
  184.3190  178.7740  140.8540 C   0  0  0  0  0  0  0  0  0  0  0  0
  185.6240  178.7920  144.4510 C   0  0  0  0  0  3  0  0  0  0  0  0
  184.3670  178.7960  142.3160 C   0  0  0  0  0  0  0  0  0  0  0  0
  182.9990  178.8600  140.1290 C   0  0  1  0  0  3  0  0  0  0  0  0
  186.0940  175.5810  136.0050 C   0  0  0  0  0  1  0  0  0  0  0  0
  185.4960  178.6850  140.0350 C   0  0  0  0  0  0  0  0  0  0  0  0
  184.4240  176.7420  137.3170 N   0  0  0  0  0  0  0  0  0  0  0  0
  184.1940  177.7730  138.2270 N   0  0  0  0  0  0  0  0  0  0  0  0
  183.1650  178.7980  143.0310 C   0  0  0  0  0  0  0  0  0  0  0  0
  187.8580  178.6830  141.4720 C   0  0  1  0  0  3  0  0  0  0  0  0
  182.9440  177.8160  138.9990 C   0  0  0  0  0  2  0  0  0  0  0  0
  181.9100  178.7770  142.3400 N   0  0  0  0  0  0  0  0  0  0  0  0
  183.1880  178.8060  144.4330 C   0  0  0  0  0  3  0  0  0  0  0  0
  186.6350  178.6890  140.7850 C   0  0  0  0  0  0  0  0  0  0  0  0
  186.6870  178.7360  142.2420 C   0  0  0  0  0  0  0  0  0  0  0  0
  185.3790  178.5700  138.5470 C   0  0  2  0  0  3  0  0  0  0  0  0
  181.7820  178.8010  141.0430 C   0  0  0  0  0  0  0  0  0  0  0  0
  184.4040  178.8060  145.1360 C   0  0  0  0  0  3  0  0  0  0  0  0
  185.6580  176.6160  136.9770 C   0  0  0  0  0  0  0  0  0  0  0  0
  186.8100  177.7250  137.7770 S   0  0  0  0  0  0  0  0  0  0  0  0
  180.4840  178.8330  140.5200 O   0  0  0  0  0  0  0  0  0  0  0  0
  179.9820  179.9110  139.7430 C   0  0  0  0  0  1  0  0  0  0  0  0
  188.4220  177.2740  141.5040 C   0  0  0  0  0  2  0  0  0  0  0  0
  190.7160  177.2690  142.5800 C   0  0  0  0  0  0  0  0  0  0  0  0
  191.2620  177.5930  141.4920 O   0  0  0  0  0  0  0  0  0  0  0  0
  191.5280  177.0740  143.7390 N   0  0  0  0  0  2  0  0  0  0  0  0
  189.2960  177.1060  142.6560 N   0  0  0  0  0  2  0  0  0  0  0  0
  190.1040  177.7990  145.6100 C   0  0  0  0  0  1  0  0  0  0  0  0
  190.9720  176.6880  145.0320 C   0  0  2  0  0  3  0  0  0  0  0  0
  191.9670  176.2490  145.9350 O   0  0  0  0  0  0  0  0  0  0  0  0
  191.4860  176.3770  147.2490 C   0  0  0  0  0  1  0  0  0  0  0  0
  1  3  1  0  0  0  0
  2  4  1  0  0  0  0
  3 19  2  0  0  0  0
  4 10  1  0  0  0  0
  4  1  2  0  0  0  0
  5 12  1  6  0  0  0
  5  2  1  0  0  0  0
  5 18  1  0  0  0  0
  6 20  1  0  0  0  0
  7 15  1  0  0  0  0
  7  2  2  0  0  0  0
  8  9  1  0  0  0  0
  9 17  1  0  0  0  0
  9 12  1  0  0  0  0
 10 14  2  0  0  0  0
 11 24  1  1  0  0  0
 11 16  1  0  0  0  0
 13 10  1  0  0  0  0
 14 19  1  0  0  0  0
 15 11  1  0  0  0  0
 15 16  2  0  0  0  0
 16  1  1  0  0  0  0
 17 21  1  1  0  0  0
 17  7  1  0  0  0  0
 18 13  2  0  0  0  0
 20  8  2  0  0  0  0
 20 21  1  0  0  0  0
 22 18  1  0  0  0  0
 23 22  1  0  0  0  0
 24 28  1  0  0  0  0
 25 28  1  0  0  0  0
 25 27  1  0  0  0  0
 26 25  2  0  0  0  0
 27 30  1  0  0  0  0
 30 29  1  1  0  0  0
 30 31  1  0  0  0  0
 31 32  1  0  0  0  0
M  END
>  <MODEL>
3

>  <REMARK>
 VINA RESULT:      -8.3      2.874      7.721
  Name = 
  5 active torsions:
  status: ('A' for Active; 'I' for Inactive)
    1  A    between atoms: O_13  and  C_29
    2  A    between atoms: O_15  and  C_26
    3  A    between atoms: C_16  and  C_23
    4  A    between atoms: N_19  and  C_26
    5  A    between atoms: N_22  and  C_23
                            x       y       z     vdW  Elec       q    Type
                         _______ _______ _______ _____ _____    ______ ____

>  <TORSDO>
F 5

$$$$
=
 OpenBabel10272402123D

 32 37  0  0  1  0  0  0  0  0999 V2000
  189.3580  177.6900  142.2010 C   0  0  0  0  0  0  0  0  0  0  0  0
  186.8900  178.3400  142.2620 C   0  0  0  0  0  0  0  0  0  0  0  0
  190.5120  177.2510  142.8400 C   0  0  0  0  0  3  0  0  0  0  0  0
  188.1190  177.8930  142.9150 C   0  0  0  0  0  0  0  0  0  0  0  0
  185.6440  178.6040  143.0720 C   0  0  1  0  0  3  0  0  0  0  0  0
  182.9880  176.9450  137.8240 C   0  0  0  0  0  1  0  0  0  0  0  0
  186.7940  178.5640  140.8460 C   0  0  0  0  0  0  0  0  0  0  0  0
  183.5150  177.5580  140.1060 N   0  0  0  0  0  0  0  0  0  0  0  0
  184.4110  178.2330  140.9350 N   0  0  0  0  0  0  0  0  0  0  0  0
  188.0950  177.6180  144.2860 C   0  0  0  0  0  0  0  0  0  0  0  0
  189.1750  178.1910  139.4930 C   0  0  1  0  0  3  0  0  0  0  0  0
  184.4190  177.9760  142.3820 C   0  0  0  0  0  2  0  0  0  0  0  0
  186.8840  177.7730  145.0350 N   0  0  0  0  0  0  0  0  0  0  0  0
  189.2610  177.1760  144.9290 C   0  0  0  0  0  3  0  0  0  0  0  0
  187.9910  178.3710  140.2210 C   0  0  0  0  0  0  0  0  0  0  0  0
  189.2250  177.9490  140.8730 C   0  0  0  0  0  0  0  0  0  0  0  0
  185.4830  178.9300  140.2220 C   0  0  2  0  0  3  0  0  0  0  0  0
  185.7600  178.2080  144.5380 C   0  0  0  0  0  0  0  0  0  0  0  0
  190.4570  176.9980  144.2160 C   0  0  0  0  0  3  0  0  0  0  0  0
  183.8310  177.5950  138.8600 C   0  0  0  0  0  0  0  0  0  0  0  0
  185.3610  178.4320  138.4630 S   0  0  0  0  0  0  0  0  0  0  0  0
  184.6780  178.3550  145.4130 O   0  0  0  0  0  0  0  0  0  0  0  0
  184.8130  178.3670  146.8260 C   0  0  0  0  0  1  0  0  0  0  0  0
  189.1250  176.8690  138.7480 C   0  0  0  0  0  2  0  0  0  0  0  0
  190.7620  175.2060  137.7620 C   0  0  0  0  0  0  0  0  0  0  0  0
  189.8690  174.3210  137.6900 O   0  0  0  0  0  0  0  0  0  0  0  0
  192.0870  174.8990  137.3250 N   0  0  0  0  0  2  0  0  0  0  0  0
  190.4520  176.5070  138.2710 N   0  0  0  0  0  2  0  0  0  0  0  0
  193.7420  176.1480  136.0000 C   0  0  0  0  0  1  0  0  0  0  0  0
  193.1790  175.8670  137.3870 C   0  0  2  0  0  3  0  0  0  0  0  0
  194.1770  175.4900  138.3140 O   0  0  0  0  0  0  0  0  0  0  0  0
  194.9500  174.4530  137.7630 C   0  0  0  0  0  1  0  0  0  0  0  0
  1  3  2  0  0  0  0
  1  4  1  0  0  0  0
  2  4  1  0  0  0  0
  2  5  1  0  0  0  0
  3 19  1  0  0  0  0
  4 10  2  0  0  0  0
  5 12  1  6  0  0  0
  5 18  1  0  0  0  0
  6 20  1  0  0  0  0
  7  2  2  0  0  0  0
  8  9  1  0  0  0  0
  9 12  1  0  0  0  0
 10 14  1  0  0  0  0
 10 13  1  0  0  0  0
 11 24  1  6  0  0  0
 11 15  1  0  0  0  0
 11 16  1  0  0  0  0
 15  7  1  0  0  0  0
 15 16  2  0  0  0  0
 16  1  1  0  0  0  0
 17 21  1  6  0  0  0
 17  7  1  0  0  0  0
 17  9  1  0  0  0  0
 18 13  2  0  0  0  0
 18 22  1  0  0  0  0
 19 14  2  0  0  0  0
 20  8  2  0  0  0  0
 21 20  1  0  0  0  0
 22 23  1  0  0  0  0
 25 28  1  0  0  0  0
 26 25  2  0  0  0  0
 27 30  1  0  0  0  0
 27 25  1  0  0  0  0
 28 24  1  0  0  0  0
 30 29  1  6  0  0  0
 30 31  1  0  0  0  0
 32 31  1  0  0  0  0
M  END
>  <MODEL>
4

>  <REMARK>
 VINA RESULT:      -8.2      3.229      6.090
  Name = 
  5 active torsions:
  status: ('A' for Active; 'I' for Inactive)
    1  A    between atoms: O_13  and  C_29
    2  A    between atoms: O_15  and  C_26
    3  A    between atoms: C_16  and  C_23
    4  A    between atoms: N_19  and  C_26
    5  A    between atoms: N_22  and  C_23
                            x       y       z     vdW  Elec       q    Type
                         _______ _______ _______ _____ _____    ______ ____

>  <TORSDO>
F 5

$$$$
=
 OpenBabel10272402123D

 32 37  0  0  1  0  0  0  0  0999 V2000
  185.8130  178.6560  142.6540 C   0  0  0  0  0  0  0  0  0  0  0  0
  185.2990  178.5190  140.1570 C   0  0  0  0  0  0  0  0  0  0  0  0
  185.3910  178.7510  143.9750 C   0  0  0  0  0  3  0  0  0  0  0  0
  184.8790  178.6330  141.5540 C   0  0  0  0  0  0  0  0  0  0  0  0
  184.2810  178.5720  139.0440 C   0  0  1  0  0  3  0  0  0  0  0  0
  188.4340  175.0130  136.3190 C   0  0  0  0  0  1  0  0  0  0  0  0
  186.6730  178.3690  139.7640 C   0  0  0  0  0  0  0  0  0  0  0  0
  186.4660  176.2690  136.9600 N   0  0  0  0  0  0  0  0  0  0  0  0
  185.9880  177.3580  137.6900 N   0  0  0  0  0  0  0  0  0  0  0  0
  183.5130  178.6900  141.8460 C   0  0  0  0  0  0  0  0  0  0  0  0
  188.4530  178.4350  141.8780 C   0  0  1  0  0  3  0  0  0  0  0  0
  184.5590  177.4600  138.0180 C   0  0  0  0  0  2  0  0  0  0  0  0
  182.5430  178.6380  140.7930 N   0  0  0  0  0  0  0  0  0  0  0  0
  183.0890  178.7860  143.1790 C   0  0  0  0  0  3  0  0  0  0  0  0
  187.5130  178.4100  140.8370 C   0  0  0  0  0  0  0  0  0  0  0  0
  187.1000  178.5470  142.2290 C   0  0  0  0  0  0  0  0  0  0  0  0
  187.0320  178.1620  138.3250 C   0  0  2  0  0  3  0  0  0  0  0  0
  182.8360  178.5820  139.5240 C   0  0  0  0  0  0  0  0  0  0  0  0
  184.0170  178.8200  144.2330 C   0  0  0  0  0  3  0  0  0  0  0  0
  187.7400  176.1110  137.0400 C   0  0  0  0  0  0  0  0  0  0  0  0
  188.6100  177.2570  138.1020 S   0  0  0  0  0  0  0  0  0  0  0  0
  181.7740  178.5920  138.6120 O   0  0  0  0  0  0  0  0  0  0  0  0
  181.4620  179.7080  137.7900 C   0  0  0  0  0  1  0  0  0  0  0  0
  188.9370  177.0260  142.1680 C   0  0  0  0  0  2  0  0  0  0  0  0
  190.7740  177.2650  143.8960 C   0  0  0  0  0  0  0  0  0  0  0  0
  191.5840  177.6800  143.0250 O   0  0  0  0  0  0  0  0  0  0  0  0
  191.2090  177.1380  145.2510 N   0  0  0  0  0  2  0  0  0  0  0  0
  189.4300  176.9320  143.5350 N   0  0  0  0  0  2  0  0  0  0  0  0
  189.2280  177.6580  146.6140 C   0  0  0  0  0  1  0  0  0  0  0  0
  190.3350  176.6540  146.3150 C   0  0  2  0  0  3  0  0  0  0  0  0
  191.0550  176.2770  147.4720 O   0  0  0  0  0  0  0  0  0  0  0  0
  192.3150  175.7850  147.0900 C   0  0  0  0  0  1  0  0  0  0  0  0
  1  3  1  0  0  0  0
  2  4  1  0  0  0  0
  3 19  2  0  0  0  0
  4 10  1  0  0  0  0
  4  1  2  0  0  0  0
  5 12  1  6  0  0  0
  5 18  1  0  0  0  0
  5  2  1  0  0  0  0
  6 20  1  0  0  0  0
  7  2  2  0  0  0  0
  7 15  1  0  0  0  0
  8 20  2  0  0  0  0
  8  9  1  0  0  0  0
  9 12  1  0  0  0  0
  9 17  1  0  0  0  0
 10 14  2  0  0  0  0
 11 24  1  1  0  0  0
 11 16  1  0  0  0  0
 13 10  1  0  0  0  0
 14 19  1  0  0  0  0
 15 11  1  0  0  0  0
 15 16  2  0  0  0  0
 16  1  1  0  0  0  0
 17 21  1  1  0  0  0
 17  7  1  0  0  0  0
 18 13  2  0  0  0  0
 20 21  1  0  0  0  0
 22 18  1  0  0  0  0
 23 22  1  0  0  0  0
 24 28  1  0  0  0  0
 25 27  1  0  0  0  0
 26 25  2  0  0  0  0
 27 30  1  0  0  0  0
 28 25  1  0  0  0  0
 30 29  1  1  0  0  0
 30 31  1  0  0  0  0
 32 31  1  0  0  0  0
M  END
>  <MODEL>
5

>  <REMARK>
 VINA RESULT:      -8.0      2.347      7.754
  Name = 
  5 active torsions:
  status: ('A' for Active; 'I' for Inactive)
    1  A    between atoms: O_13  and  C_29
    2  A    between atoms: O_15  and  C_26
    3  A    between atoms: C_16  and  C_23
    4  A    between atoms: N_19  and  C_26
    5  A    between atoms: N_22  and  C_23
                            x       y       z     vdW  Elec       q    Type
                         _______ _______ _______ _____ _____    ______ ____

>  <TORSDO>
F 5

$$$$
=
 OpenBabel10272402123D

 32 37  0  0  1  0  0  0  0  0999 V2000
  186.2380  178.5240  143.4430 C   0  0  0  0  0  0  0  0  0  0  0  0
  185.9870  178.6380  140.9050 C   0  0  0  0  0  0  0  0  0  0  0  0
  185.6810  178.5050  144.7170 C   0  0  0  0  0  3  0  0  0  0  0  0
  185.4250  178.6300  142.2550 C   0  0  0  0  0  0  0  0  0  0  0  0
  185.0930  178.8240  139.7040 C   0  0  1  0  0  3  0  0  0  0  0  0
  189.4460  175.4250  137.0880 C   0  0  0  0  0  1  0  0  0  0  0  0
  187.3910  178.4870  140.6420 C   0  0  0  0  0  0  0  0  0  0  0  0
  187.4450  176.6690  137.6420 N   0  0  0  0  0  0  0  0  0  0  0  0
  186.9120  177.6960  138.4200 N   0  0  0  0  0  0  0  0  0  0  0  0
  184.0360  178.6970  142.4100 C   0  0  0  0  0  0  0  0  0  0  0  0
  188.9400  178.3050  142.9250 C   0  0  1  0  0  3  0  0  0  0  0  0
  185.4580  177.8060  138.6080 C   0  0  0  0  0  2  0  0  0  0  0  0
  183.1820  178.7710  141.2620 N   0  0  0  0  0  0  0  0  0  0  0  0
  183.4760  178.6780  143.6950 C   0  0  0  0  0  3  0  0  0  0  0  0
  188.1150  178.4030  141.7960 C   0  0  0  0  0  0  0  0  0  0  0  0
  187.5600  178.4200  143.1440 C   0  0  0  0  0  0  0  0  0  0  0  0
  187.8970  178.4080  139.2350 C   0  0  2  0  0  3  0  0  0  0  0  0
  183.6050  178.8270  140.0300 C   0  0  0  0  0  0  0  0  0  0  0  0
  184.2890  178.5860  144.8360 C   0  0  0  0  0  3  0  0  0  0  0  0
  188.7000  176.4690  137.8370 C   0  0  0  0  0  0  0  0  0  0  0  0
  189.4730  177.4850  139.0890 S   0  0  0  0  0  0  0  0  0  0  0  0
  182.6450  178.9530  139.0200 O   0  0  0  0  0  0  0  0  0  0  0  0
  182.2250  180.2040  138.4940 C   0  0  0  0  0  1  0  0  0  0  0  0
  189.3670  176.8620  143.1250 C   0  0  0  0  0  2  0  0  0  0  0  0
  191.3080  175.9320  144.4620 C   0  0  0  0  0  0  0  0  0  0  0  0
  191.7590  175.3330  143.4500 O   0  0  0  0  0  0  0  0  0  0  0  0
  191.9990  175.8190  145.7070 N   0  0  0  0  0  2  0  0  0  0  0  0
  190.1210  176.7250  144.3630 N   0  0  0  0  0  2  0  0  0  0  0  0
  192.4090  176.1030  148.1160 C   0  0  0  0  0  1  0  0  0  0  0  0
  191.5340  176.4740  146.9260 C   0  0  2  0  0  3  0  0  0  0  0  0
  190.1600  176.2460  147.1670 O   0  0  0  0  0  0  0  0  0  0  0  0
  189.5960  177.3970  147.7440 C   0  0  0  0  0  1  0  0  0  0  0  0
  1  3  1  0  0  0  0
  2  4  1  0  0  0  0
  3 19  2  0  0  0  0
  4 10  1  0  0  0  0
  4  1  2  0  0  0  0
  5 12  1  6  0  0  0
  5 18  1  0  0  0  0
  5  2  1  0  0  0  0
  6 20  1  0  0  0  0
  7  2  2  0  0  0  0
  7 15  1  0  0  0  0
  8 20  2  0  0  0  0
  8  9  1  0  0  0  0
  9 12  1  0  0  0  0
  9 17  1  0  0  0  0
 10 14  2  0  0  0  0
 11 24  1  6  0  0  0
 11 16  1  0  0  0  0
 13 10  1  0  0  0  0
 14 19  1  0  0  0  0
 15 11  1  0  0  0  0
 15 16  2  0  0  0  0
 16  1  1  0  0  0  0
 17 21  1  1  0  0  0
 17  7  1  0  0  0  0
 18 13  2  0  0  0  0
 20 21  1  0  0  0  0
 22 18  1  0  0  0  0
 23 22  1  0  0  0  0
 24 28  1  0  0  0  0
 25 27  1  0  0  0  0
 26 25  2  0  0  0  0
 27 30  1  0  0  0  0
 28 25  1  0  0  0  0
 30 31  1  0  0  0  0
 30 29  1  1  0  0  0
 31 32  1  0  0  0  0
M  END
>  <MODEL>
6

>  <REMARK>
 VINA RESULT:      -7.5      2.188      7.483
  Name = 
  5 active torsions:
  status: ('A' for Active; 'I' for Inactive)
    1  A    between atoms: O_13  and  C_29
    2  A    between atoms: O_15  and  C_26
    3  A    between atoms: C_16  and  C_23
    4  A    between atoms: N_19  and  C_26
    5  A    between atoms: N_22  and  C_23
                            x       y       z     vdW  Elec       q    Type
                         _______ _______ _______ _____ _____    ______ ____

>  <TORSDO>
F 5

$$$$
=
 OpenBabel10272402123D

 32 37  0  0  1  0  0  0  0  0999 V2000
  185.8130  178.6330  143.4300 C   0  0  0  0  0  0  0  0  0  0  0  0
  184.3660  178.7490  141.3290 C   0  0  0  0  0  0  0  0  0  0  0  0
  185.9410  178.5980  144.8130 C   0  0  0  0  0  3  0  0  0  0  0  0
  184.5260  178.7250  142.7830 C   0  0  0  0  0  0  0  0  0  0  0  0
  183.0000  178.9190  140.7110 C   0  0  1  0  0  3  0  0  0  0  0  0
  185.6090  175.6240  136.2750 C   0  0  0  0  0  1  0  0  0  0  0  0
  185.4720  178.6300  140.4200 C   0  0  0  0  0  0  0  0  0  0  0  0
  184.1020  176.8220  137.7430 N   0  0  0  0  0  0  0  0  0  0  0  0
  183.9930  177.8350  138.6950 N   0  0  0  0  0  0  0  0  0  0  0  0
  183.3840  178.7620  143.5890 C   0  0  0  0  0  0  0  0  0  0  0  0
  187.9330  178.4740  141.6690 C   0  0  1  0  0  3  0  0  0  0  0  0
  182.8090  177.9120  139.5620 C   0  0  0  0  0  2  0  0  0  0  0  0
  182.0800  178.8210  142.9970 N   0  0  0  0  0  0  0  0  0  0  0  0
  183.5140  178.7270  144.9850 C   0  0  0  0  0  3  0  0  0  0  0  0
  186.6640  178.5580  141.0790 C   0  0  0  0  0  0  0  0  0  0  0  0
  186.8280  178.5590  142.5280 C   0  0  0  0  0  0  0  0  0  0  0  0
  185.2360  178.5660  138.9430 C   0  0  2  0  0  3  0  0  0  0  0  0
  181.8550  178.8900  141.7150 C   0  0  0  0  0  0  0  0  0  0  0  0
  184.7780  178.6490  145.5910 C   0  0  0  0  0  3  0  0  0  0  0  0
  185.2990  176.6480  137.3050 C   0  0  0  0  0  0  0  0  0  0  0  0
  186.5620  177.6780  138.0420 S   0  0  0  0  0  0  0  0  0  0  0  0
  180.5250  178.9970  141.2950 O   0  0  0  0  0  0  0  0  0  0  0  0
  179.9840  180.1730  140.7100 C   0  0  0  0  0  1  0  0  0  0  0  0
  188.4290  177.0400  141.6200 C   0  0  0  0  0  2  0  0  0  0  0  0
  190.7210  177.0940  140.5410 C   0  0  0  0  0  0  0  0  0  0  0  0
  191.2540  177.4700  141.6180 O   0  0  0  0  0  0  0  0  0  0  0  0
  191.5380  176.9070  139.3840 N   0  0  0  0  0  2  0  0  0  0  0  0
  189.3120  176.8490  140.4780 N   0  0  0  0  0  2  0  0  0  0  0  0
  190.1070  177.5660  137.4940 C   0  0  0  0  0  1  0  0  0  0  0  0
  190.9940  176.4840  138.0970 C   0  0  2  0  0  3  0  0  0  0  0  0
  190.3470  175.2300  138.1750 O   0  0  0  0  0  0  0  0  0  0  0  0
  189.3290  175.1750  137.2070 C   0  0  0  0  0  1  0  0  0  0  0  0
  1  3  1  0  0  0  0
  2  4  1  0  0  0  0
  3 19  2  0  0  0  0
  4  1  2  0  0  0  0
  4 10  1  0  0  0  0
  5 12  1  6  0  0  0
  5  2  1  0  0  0  0
  5 18  1  0  0  0  0
  6 20  1  0  0  0  0
  7 15  1  0  0  0  0
  7  2  2  0  0  0  0
  8  9  1  0  0  0  0
  9 17  1  0  0  0  0
  9 12  1  0  0  0  0
 10 14  2  0  0  0  0
 11 24  1  1  0  0  0
 11 16  1  0  0  0  0
 13 10  1  0  0  0  0
 14 19  1  0  0  0  0
 15 11  1  0  0  0  0
 15 16  2  0  0  0  0
 16  1  1  0  0  0  0
 17 21  1  6  0  0  0
 17  7  1  0  0  0  0
 18 13  2  0  0  0  0
 20  8  2  0  0  0  0
 20 21  1  0  0  0  0
 22 18  1  0  0  0  0
 23 22  1  0  0  0  0
 25 26  2  0  0  0  0
 27 25  1  0  0  0  0
 28 25  1  0  0  0  0
 28 24  1  0  0  0  0
 30 29  1  1  0  0  0
 30 31  1  0  0  0  0
 30 27  1  0  0  0  0
 32 31  1  0  0  0  0
M  END
>  <MODEL>
7

>  <REMARK>
 VINA RESULT:      -7.5      3.556      6.791
  Name = 
  5 active torsions:
  status: ('A' for Active; 'I' for Inactive)
    1  A    between atoms: O_13  and  C_29
    2  A    between atoms: O_15  and  C_26
    3  A    between atoms: C_16  and  C_23
    4  A    between atoms: N_19  and  C_26
    5  A    between atoms: N_22  and  C_23
                            x       y       z     vdW  Elec       q    Type
                         _______ _______ _______ _____ _____    ______ ____

>  <TORSDO>
F 5

$$$$
=
 OpenBabel10272402123D

 32 37  0  0  1  0  0  0  0  0999 V2000
  185.4530  178.8500  142.2510 C   0  0  0  0  0  0  0  0  0  0  0  0
  185.0560  178.4270  139.7650 C   0  0  0  0  0  0  0  0  0  0  0  0
  184.9710  179.0340  143.5410 C   0  0  0  0  0  3  0  0  0  0  0  0
  184.5710  178.6370  141.1280 C   0  0  0  0  0  0  0  0  0  0  0  0
  184.0840  178.2810  138.6190 C   0  0  1  0  0  3  0  0  0  0  0  0
  188.6310  174.8560  136.4000 C   0  0  0  0  0  1  0  0  0  0  0  0
  186.4520  178.3610  139.4330 C   0  0  0  0  0  0  0  0  0  0  0  0
  186.5400  175.9900  136.8480 N   0  0  0  0  0  0  0  0  0  0  0  0
  185.9420  177.0970  137.4490 N   0  0  0  0  0  0  0  0  0  0  0  0
  183.1940  178.6020  141.3690 C   0  0  0  0  0  0  0  0  0  0  0  0
  188.1320  178.7880  141.5860 C   0  0  1  0  0  3  0  0  0  0  0  0
  184.4970  177.1030  137.7190 C   0  0  0  0  0  2  0  0  0  0  0  0
  182.2760  178.3620  140.2950 N   0  0  0  0  0  0  0  0  0  0  0  0
  182.7080  178.7880  142.6710 C   0  0  0  0  0  3  0  0  0  0  0  0
  187.2420  178.5790  140.5240 C   0  0  0  0  0  0  0  0  0  0  0  0
  186.7610  178.8140  141.8800 C   0  0  0  0  0  0  0  0  0  0  0  0
  186.8870  178.0480  138.0350 C   0  0  2  0  0  3  0  0  0  0  0  0
  182.6240  178.2100  139.0480 C   0  0  0  0  0  0  0  0  0  0  0  0
  183.5870  179.0050  143.7460 C   0  0  0  0  0  3  0  0  0  0  0  0
  187.8180  175.9530  136.9850 C   0  0  0  0  0  0  0  0  0  0  0  0
  188.5430  177.2690  137.9550 S   0  0  0  0  0  0  0  0  0  0  0  0
  181.6030  178.0380  138.1060 O   0  0  0  0  0  0  0  0  0  0  0  0
  181.4400  178.8760  136.9710 C   0  0  0  0  0  1  0  0  0  0  0  0
  188.7220  177.4620  142.0320 C   0  0  0  0  0  2  0  0  0  0  0  0
  188.1740  176.8890  144.4380 C   0  0  0  0  0  0  0  0  0  0  0  0
  187.1300  176.2770  144.0880 O   0  0  0  0  0  0  0  0  0  0  0  0
  188.5070  176.9670  145.8250 N   0  0  0  0  0  2  0  0  0  0  0  0
  189.0210  177.4950  143.4560 N   0  0  0  0  0  2  0  0  0  0  0  0
  190.9550  176.8600  146.0410 C   0  0  0  0  0  1  0  0  0  0  0  0
  189.6920  177.6680  146.3100 C   0  0  2  0  0  3  0  0  0  0  0  0
  189.5700  178.0530  147.6650 O   0  0  0  0  0  0  0  0  0  0  0  0
  188.3000  177.6810  148.1370 C   0  0  0  0  0  1  0  0  0  0  0  0
  1  3  1  0  0  0  0
  2  4  1  0  0  0  0
  3 19  2  0  0  0  0
  4 10  1  0  0  0  0
  4  1  2  0  0  0  0
  5 12  1  1  0  0  0
  5 18  1  0  0  0  0
  5  2  1  0  0  0  0
  6 20  1  0  0  0  0
  7  2  2  0  0  0  0
  7 15  1  0  0  0  0
  8 20  2  0  0  0  0
  8  9  1  0  0  0  0
  9 12  1  0  0  0  0
  9 17  1  0  0  0  0
 10 14  2  0  0  0  0
 11 16  1  0  0  0  0
 11 24  1  1  0  0  0
 13 10  1  0  0  0  0
 14 19  1  0  0  0  0
 15 11  1  0  0  0  0
 15 16  2  0  0  0  0
 16  1  1  0  0  0  0
 17 21  1  1  0  0  0
 17  7  1  0  0  0  0
 18 13  2  0  0  0  0
 20 21  1  0  0  0  0
 22 18  1  0  0  0  0
 23 22  1  0  0  0  0
 24 28  1  0  0  0  0
 25 27  1  0  0  0  0
 26 25  2  0  0  0  0
 27 30  1  0  0  0  0
 28 25  1  0  0  0  0
 30 29  1  1  0  0  0
 30 31  1  0  0  0  0
 31 32  1  0  0  0  0
M  END
>  <MODEL>
8

>  <REMARK>
 VINA RESULT:      -7.5      2.652      7.868
  Name = 
  5 active torsions:
  status: ('A' for Active; 'I' for Inactive)
    1  A    between atoms: O_13  and  C_29
    2  A    between atoms: O_15  and  C_26
    3  A    between atoms: C_16  and  C_23
    4  A    between atoms: N_19  and  C_26
    5  A    between atoms: N_22  and  C_23
                            x       y       z     vdW  Elec       q    Type
                         _______ _______ _______ _____ _____    ______ ____

>  <TORSDO>
F 5

$$$$
=
 OpenBabel10272402123D

 32 37  0  0  1  0  0  0  0  0999 V2000
  189.2730  177.6220  142.3640 C   0  0  0  0  0  0  0  0  0  0  0  0
  186.8410  178.3920  142.4790 C   0  0  0  0  0  0  0  0  0  0  0  0
  190.4260  177.1540  142.9820 C   0  0  0  0  0  3  0  0  0  0  0  0
  188.0710  177.9130  143.1090 C   0  0  0  0  0  0  0  0  0  0  0  0
  185.6380  178.7470  143.3180 C   0  0  1  0  0  3  0  0  0  0  0  0
  182.7270  177.0140  138.2330 C   0  0  0  0  0  1  0  0  0  0  0  0
  186.7060  178.5650  141.0590 C   0  0  0  0  0  0  0  0  0  0  0  0
  183.3600  177.6900  140.4700 N   0  0  0  0  0  0  0  0  0  0  0  0
  184.3160  178.3520  141.2400 N   0  0  0  0  0  0  0  0  0  0  0  0
  188.0810  177.6930  144.4900 C   0  0  0  0  0  0  0  0  0  0  0  0
  189.0190  178.0260  139.6450 C   0  0  1  0  0  3  0  0  0  0  0  0
  184.3620  178.1530  142.6960 C   0  0  0  0  0  2  0  0  0  0  0  0
  186.9050  177.9350  145.2720 N   0  0  0  0  0  0  0  0  0  0  0  0
  189.2460  177.2220  145.1130 C   0  0  0  0  0  3  0  0  0  0  0  0
  187.8710  178.2900  140.4040 C   0  0  0  0  0  0  0  0  0  0  0  0
  189.1060  177.8360  141.0320 C   0  0  0  0  0  0  0  0  0  0  0  0
  185.3930  178.9690  140.4650 C   0  0  2  0  0  3  0  0  0  0  0  0
  185.7860  178.4030  144.7950 C   0  0  0  0  0  0  0  0  0  0  0  0
  190.4070  176.9580  144.3680 C   0  0  0  0  0  3  0  0  0  0  0  0
  183.6340  177.6630  139.2140 C   0  0  0  0  0  0  0  0  0  0  0  0
  185.1870  178.4090  138.7320 S   0  0  0  0  0  0  0  0  0  0  0  0
  184.7430  178.6370  145.6980 O   0  0  0  0  0  0  0  0  0  0  0  0
  184.8570  178.4130  147.0960 C   0  0  0  0  0  1  0  0  0  0  0  0
  188.8820  176.6800  138.9560 C   0  0  0  0  0  2  0  0  0  0  0  0
  189.5490  176.9410  136.5260 C   0  0  0  0  0  0  0  0  0  0  0  0
  190.7700  176.8280  136.8160 O   0  0  0  0  0  0  0  0  0  0  0  0
  189.1700  177.1390  135.1630 N   0  0  0  0  0  2  0  0  0  0  0  0
  188.5520  176.8630  137.5500 N   0  0  0  0  0  2  0  0  0  0  0  0
  187.1070  178.4400  135.4870 C   0  0  0  0  0  1  0  0  0  0  0  0
  187.7780  177.2890  134.7480 C   0  0  2  0  0  3  0  0  0  0  0  0
  187.0540  176.0800  134.8510 O   0  0  0  0  0  0  0  0  0  0  0  0
  185.7700  176.3520  135.3530 C   0  0  0  0  0  1  0  0  0  0  0  0
  1  3  2  0  0  0  0
  1  4  1  0  0  0  0
  2  4  1  0  0  0  0
  2  5  1  0  0  0  0
  3 19  1  0  0  0  0
  4 10  2  0  0  0  0
  5 12  1  6  0  0  0
  5 18  1  0  0  0  0
  6 20  1  0  0  0  0
  7  2  2  0  0  0  0
  8  9  1  0  0  0  0
  9 12  1  0  0  0  0
 10 14  1  0  0  0  0
 10 13  1  0  0  0  0
 11 24  1  6  0  0  0
 11 15  1  0  0  0  0
 11 16  1  0  0  0  0
 15 16  2  0  0  0  0
 15  7  1  0  0  0  0
 16  1  1  0  0  0  0
 17 21  1  6  0  0  0
 17  7  1  0  0  0  0
 17  9  1  0  0  0  0
 18 13  2  0  0  0  0
 18 22  1  0  0  0  0
 19 14  2  0  0  0  0
 20  8  2  0  0  0  0
 21 20  1  0  0  0  0
 22 23  1  0  0  0  0
 25 26  2  0  0  0  0
 25 28  1  0  0  0  0
 27 25  1  0  0  0  0
 28 24  1  0  0  0  0
 30 31  1  0  0  0  0
 30 27  1  0  0  0  0
 30 29  1  1  0  0  0
 31 32  1  0  0  0  0
M  END
>  <MODEL>
9

>  <REMARK>
 VINA RESULT:      -7.4      3.081      5.530
  Name = 
  5 active torsions:
  status: ('A' for Active; 'I' for Inactive)
    1  A    between atoms: O_13  and  C_29
    2  A    between atoms: O_15  and  C_26
    3  A    between atoms: C_16  and  C_23
    4  A    between atoms: N_19  and  C_26
    5  A    between atoms: N_22  and  C_23
                            x       y       z     vdW  Elec       q    Type
                         _______ _______ _______ _____ _____    ______ ____

>  <TORSDO>
F 5

$$$$
