=
 OpenBabel10272415293D

 34 38  0  0  1  0  0  0  0  0999 V2000
  189.6970  176.1500  144.0950 C   0  0  1  0  0  3  0  0  0  0  0  0
  187.4000  177.6220  146.6590 C   0  0  0  0  0  3  0  0  0  0  0  0
  189.7300  177.4540  146.6470 O   0  0  0  0  0  0  0  0  0  0  0  0
  190.5140  176.7480  141.7370 C   0  0  2  0  0  3  0  0  0  0  0  0
  189.7700  175.7410  142.6170 C   0  0  0  0  0  2  0  0  0  0  0  0
  191.6250  177.7490  143.7700 N   0  0  0  0  0  0  0  0  0  0  0  0
  190.8430  178.9850  143.7800 C   0  0  0  0  0  1  0  0  0  0  0  0
  191.8050  177.2710  142.3930 C   0  0  0  0  0  2  0  0  0  0  0  0
  190.9550  177.1130  146.0600 C   0  0  0  0  0  0  0  0  0  0  0  0
  191.0370  176.6960  144.6170 C   0  0  1  0  0  3  0  0  0  0  0  0
  192.0080  177.1800  146.7450 O   0  0  0  0  0  0  0  0  0  0  0  0
  186.0240  177.4620  146.1070 C   0  0  0  0  0  2  0  0  0  0  0  0
  185.7740  178.4070  144.9730 C   0  0  0  0  0  0  0  0  0  0  0  0
  186.4810  178.3290  143.8470 C   0  0  0  0  0  3  0  0  0  0  0  0
  188.5110  177.3790  145.9620 C   0  0  0  0  0  0  0  0  0  0  0  0
  187.6350  177.4390  143.6150 C   0  0  0  0  0  3  0  0  0  0  0  0
  188.5150  176.9860  144.5260 C   0  0  0  0  0  0  0  0  0  0  0  0
  184.7520  179.3580  145.0480 O   0  0  0  0  0  0  0  0  0  0  0  0
  182.5720  178.8220  144.1700 C   0  0  0  0  0  1  0  0  0  0  0  0
  183.8510  179.6150  143.9780 C   0  0  0  0  0  2  0  0  0  0  0  0
  189.5920  177.8620  141.2330 C   0  0  0  0  0  2  0  0  0  0  0  0
  187.2120  178.4550  139.3850 O   0  0  0  0  0  0  0  0  0  0  0  0
  190.5190  177.0160  139.0100 C   0  0  0  0  0  2  0  0  0  0  0  0
  187.7010  175.4550  136.1710 C   0  0  1  0  0  3  0  0  0  0  0  0
  187.1540  176.1930  137.4010 C   0  0  0  0  0  2  0  0  0  0  0  0
  188.2680  176.7490  138.1610 N   0  0  0  0  0  0  0  0  0  0  0  0
  189.9320  175.2390  137.3320 C   0  0  0  0  0  3  0  0  0  0  0  0
  189.5910  176.2520  138.1240 C   0  0  0  0  0  0  0  0  0  0  0  0
  188.8700  174.5240  136.5370 C   0  0  0  0  0  2  0  0  0  0  0  0
  189.5960  178.0380  139.7110 C   0  0  1  0  0  3  0  0  0  0  0  0
  188.2480  177.7960  139.1060 C   0  0  0  0  0  0  0  0  0  0  0  0
  186.6020  174.7140  135.4090 C   0  0  0  0  0  2  0  0  0  0  0  0
  185.4220  174.3130  136.2870 C   0  0  0  0  0  2  0  0  0  0  0  0
  185.5670  172.9370  136.7270 N   0  0  0  0  0  1  0  0  0  0  0  0
  1  5  1  6  0  0  0
  1 17  1  0  0  0  0
  1 10  1  0  0  0  0
  4 21  1  1  0  0  0
  4  8  1  0  0  0  0
  4  5  1  0  0  0  0
  6  7  1  0  0  0  0
  6 10  1  0  0  0  0
  8  6  1  0  0  0  0
  9  3  1  0  0  0  0
  9 11  2  0  0  0  0
 10  9  1  1  0  0  0
 12  2  1  0  0  0  0
 13 18  1  0  0  0  0
 13 12  1  0  0  0  0
 14 13  2  0  0  0  0
 15  3  1  0  0  0  0
 15  2  2  0  0  0  0
 16 14  1  0  0  0  0
 16 17  2  0  0  0  0
 17 15  1  0  0  0  0
 20 19  1  0  0  0  0
 20 18  1  0  0  0  0
 23 30  1  0  0  0  0
 24 32  1  1  0  0  0
 24 29  1  0  0  0  0
 24 25  1  0  0  0  0
 25 26  1  0  0  0  0
 26 31  1  0  0  0  0
 27 28  2  0  0  0  0
 28 26  1  0  0  0  0
 28 23  1  0  0  0  0
 29 27  1  0  0  0  0
 30 21  1  1  0  0  0
 31 22  2  0  0  0  0
 31 30  1  0  0  0  0
 32 33  1  0  0  0  0
 33 34  1  0  0  0  0
M  END
>  <MODEL>
1

>  <REMARK>
 VINA RESULT:      -9.3      0.000      0.000
  Name = 
  6 active torsions:
  status: ('A' for Active; 'I' for Inactive)
    1  A    between atoms: O_3  and  C_24
    2  A    between atoms: O_3  and  C_25
    3  A    between atoms: C_7  and  C_11
    4  A    between atoms: C_8  and  C_18
    5  A    between atoms: C_11  and  C_15
    6  A    between atoms: C_18  and  C_30
                            x       y       z     vdW  Elec       q    Type
                         _______ _______ _______ _____ _____    ______ ____

>  <TORSDO>
F 6

$$$$
=
 OpenBabel10272415293D

 34 38  0  0  1  0  0  0  0  0999 V2000
  181.2610  177.6080  138.5410 C   0  0  1  0  0  3  0  0  0  0  0  0
  182.6380  177.1740  135.0860 C   0  0  0  0  0  3  0  0  0  0  0  0
  181.4430  178.9520  136.0160 O   0  0  0  0  0  0  0  0  0  0  0  0
  182.1890  178.0300  140.8960 C   0  0  2  0  0  3  0  0  0  0  0  0
  181.3990  177.0920  139.9810 C   0  0  0  0  0  2  0  0  0  0  0  0
  181.8080  179.9520  139.3060 N   0  0  0  0  0  0  0  0  0  0  0  0
  183.1760  179.9990  138.7910 C   0  0  0  0  0  1  0  0  0  0  0  0
  181.8060  179.5080  140.7060 C   0  0  0  0  0  2  0  0  0  0  0  0
  180.8060  179.6110  137.0750 C   0  0  0  0  0  0  0  0  0  0  0  0
  180.9210  179.1070  138.4880 C   0  0  1  0  0  3  0  0  0  0  0  0
  180.1460  180.6570  136.8440 O   0  0  0  0  0  0  0  0  0  0  0  0
  183.3220  175.8490  135.0890 C   0  0  0  0  0  2  0  0  0  0  0  0
  184.6010  175.8930  135.8660 C   0  0  0  0  0  0  0  0  0  0  0  0
  184.6020  176.1510  137.1720 C   0  0  0  0  0  3  0  0  0  0  0  0
  182.1710  177.7690  136.1860 C   0  0  0  0  0  0  0  0  0  0  0  0
  183.4240  176.5390  137.9730 C   0  0  0  0  0  3  0  0  0  0  0  0
  182.3390  177.2160  137.5580 C   0  0  0  0  0  0  0  0  0  0  0  0
  185.8230  175.6070  135.2480 O   0  0  0  0  0  0  0  0  0  0  0  0
  186.4020  177.8260  134.5020 C   0  0  0  0  0  1  0  0  0  0  0  0
  186.8870  176.5470  135.1610 C   0  0  0  0  0  2  0  0  0  0  0  0
  183.6970  177.7750  140.8150 C   0  0  0  0  0  2  0  0  0  0  0  0
  186.5530  178.7840  140.3020 O   0  0  0  0  0  0  0  0  0  0  0  0
  184.3920  178.4060  143.1900 C   0  0  0  0  0  2  0  0  0  0  0  0
  188.5560  178.0560  144.1780 C   0  0  1  0  0  3  0  0  0  0  0  0
  188.1490  177.9250  142.7040 C   0  0  0  0  0  2  0  0  0  0  0  0
  186.7230  178.2020  142.5730 N   0  0  0  0  0  0  0  0  0  0  0  0
  186.1460  177.6920  144.8410 C   0  0  0  0  0  3  0  0  0  0  0  0
  185.7800  178.0570  143.6150 C   0  0  0  0  0  0  0  0  0  0  0  0
  187.5800  177.3110  145.1070 C   0  0  0  0  0  2  0  0  0  0  0  0
  184.5390  178.7170  141.6830 C   0  0  1  0  0  3  0  0  0  0  0  0
  186.0060  178.5760  141.4180 C   0  0  0  0  0  0  0  0  0  0  0  0
  190.0040  177.6290  144.4170 C   0  0  0  0  0  2  0  0  0  0  0  0
  190.2490  177.0750  145.8160 C   0  0  0  0  0  2  0  0  0  0  0  0
  191.6740  177.0130  146.0900 N   0  0  0  0  0  1  0  0  0  0  0  0
  1  5  1  1  0  0  0
  2 12  1  0  0  0  0
  2 15  2  0  0  0  0
  3 15  1  0  0  0  0
  3  9  1  0  0  0  0
  4 21  1  6  0  0  0
  5  4  1  0  0  0  0
  6  8  1  0  0  0  0
  7  6  1  0  0  0  0
  8  4  1  0  0  0  0
 10  9  1  6  0  0  0
 10  1  1  0  0  0  0
 10  6  1  0  0  0  0
 11  9  2  0  0  0  0
 12 13  1  0  0  0  0
 13 14  2  0  0  0  0
 14 16  1  0  0  0  0
 15 17  1  0  0  0  0
 17 16  2  0  0  0  0
 17  1  1  0  0  0  0
 18 13  1  0  0  0  0
 19 20  1  0  0  0  0
 20 18  1  0  0  0  0
 22 31  2  0  0  0  0
 23 28  1  0  0  0  0
 24 32  1  6  0  0  0
 24 29  1  0  0  0  0
 25 24  1  0  0  0  0
 26 25  1  0  0  0  0
 26 28  1  0  0  0  0
 27 29  1  0  0  0  0
 28 27  2  0  0  0  0
 30 21  1  6  0  0  0
 30 23  1  0  0  0  0
 31 30  1  0  0  0  0
 31 26  1  0  0  0  0
 32 33  1  0  0  0  0
 33 34  1  0  0  0  0
M  END
>  <MODEL>
2

>  <REMARK>
 VINA RESULT:      -7.0      4.011      9.692
  Name = 
  6 active torsions:
  status: ('A' for Active; 'I' for Inactive)
    1  A    between atoms: O_3  and  C_24
    2  A    between atoms: O_3  and  C_25
    3  A    between atoms: C_7  and  C_11
    4  A    between atoms: C_8  and  C_18
    5  A    between atoms: C_11  and  C_15
    6  A    between atoms: C_18  and  C_30
                            x       y       z     vdW  Elec       q    Type
                         _______ _______ _______ _____ _____    ______ ____

>  <TORSDO>
F 6

$$$$
=
 OpenBabel10272415293D

 34 38  0  0  1  0  0  0  0  0999 V2000
  186.8600  178.2980  137.0710 C   0  0  1  0  0  3  0  0  0  0  0  0
  183.1590  177.7350  137.0310 C   0  0  0  0  0  3  0  0  0  0  0  0
  184.8420  176.7600  135.7380 O   0  0  0  0  0  0  0  0  0  0  0  0
  188.8280  177.7560  138.6270 C   0  0  2  0  0  3  0  0  0  0  0  0
  187.9990  178.8460  137.9440 C   0  0  0  0  0  2  0  0  0  0  0  0
  187.9900  176.0420  136.9760 N   0  0  0  0  0  0  0  0  0  0  0  0
  187.1010  175.3500  137.9090 C   0  0  0  0  0  1  0  0  0  0  0  0
  189.1550  176.5810  137.6880 C   0  0  0  0  0  2  0  0  0  0  0  0
  186.1800  176.5560  135.3770 C   0  0  0  0  0  0  0  0  0  0  0  0
  187.3040  177.1010  136.2150 C   0  0  1  0  0  3  0  0  0  0  0  0
  186.4460  175.8840  134.3470 O   0  0  0  0  0  0  0  0  0  0  0  0
  182.6050  178.6220  138.0940 C   0  0  0  0  0  2  0  0  0  0  0  0
  182.9230  178.1040  139.4620 C   0  0  0  0  0  0  0  0  0  0  0  0
  184.1830  178.0060  139.8820 C   0  0  0  0  0  3  0  0  0  0  0  0
  184.4630  177.5180  136.8520 C   0  0  0  0  0  0  0  0  0  0  0  0
  185.3850  178.2540  139.0630 C   0  0  0  0  0  3  0  0  0  0  0  0
  185.5220  178.0800  137.7370 C   0  0  0  0  0  0  0  0  0  0  0  0
  181.9000  177.7650  140.3530 O   0  0  0  0  0  0  0  0  0  0  0  0
  181.4590  175.5530  139.4990 C   0  0  0  0  0  1  0  0  0  0  0  0
  180.8650  176.8440  140.0320 C   0  0  0  0  0  2  0  0  0  0  0  0
  188.2140  177.3180  139.9590 C   0  0  0  0  0  2  0  0  0  0  0  0
  190.7180  177.7320  141.6890 O   0  0  0  0  0  0  0  0  0  0  0  0
  187.1730  178.4270  142.0100 C   0  0  0  0  0  2  0  0  0  0  0  0
  189.0770  177.7360  145.7970 C   0  0  1  0  0  3  0  0  0  0  0  0
  189.8140  177.2930  144.5250 C   0  0  0  0  0  2  0  0  0  0  0  0
  189.0610  177.7330  143.3560 N   0  0  0  0  0  0  0  0  0  0  0  0
  186.9430  177.9110  144.4590 C   0  0  0  0  0  3  0  0  0  0  0  0
  187.6740  178.0000  143.3510 C   0  0  0  0  0  0  0  0  0  0  0  0
  187.5750  177.4050  145.7300 C   0  0  0  0  0  2  0  0  0  0  0  0
  188.4200  178.3170  141.1030 C   0  0  1  0  0  3  0  0  0  0  0  0
  189.5180  177.9000  142.0330 C   0  0  0  0  0  0  0  0  0  0  0  0
  189.7260  177.1770  147.0630 C   0  0  0  0  0  2  0  0  0  0  0  0
  191.0010  176.3870  146.7910 C   0  0  0  0  0  2  0  0  0  0  0  0
  192.0470  176.7860  147.7160 N   0  0  0  0  0  1  0  0  0  0  0  0
  1 17  1  0  0  0  0
  1  5  1  1  0  0  0
  2 12  1  0  0  0  0
  3 15  1  0  0  0  0
  4 21  1  1  0  0  0
  5  4  1  0  0  0  0
  6  8  1  0  0  0  0
  6  7  1  0  0  0  0
  8  4  1  0  0  0  0
  9  3  1  0  0  0  0
 10  9  1  1  0  0  0
 10  6  1  0  0  0  0
 10  1  1  0  0  0  0
 11  9  2  0  0  0  0
 12 13  1  0  0  0  0
 13 14  2  0  0  0  0
 13 18  1  0  0  0  0
 15  2  2  0  0  0  0
 15 17  1  0  0  0  0
 16 14  1  0  0  0  0
 17 16  2  0  0  0  0
 19 20  1  0  0  0  0
 20 18  1  0  0  0  0
 22 31  2  0  0  0  0
 23 28  1  0  0  0  0
 24 32  1  1  0  0  0
 25 24  1  0  0  0  0
 26 25  1  0  0  0  0
 27 29  1  0  0  0  0
 28 26  1  0  0  0  0
 28 27  2  0  0  0  0
 29 24  1  0  0  0  0
 30 21  1  6  0  0  0
 30 23  1  0  0  0  0
 30 31  1  0  0  0  0
 31 26  1  0  0  0  0
 33 32  1  0  0  0  0
 33 34  1  0  0  0  0
M  END
>  <MODEL>
3

>  <REMARK>
 VINA RESULT:      -6.7      3.054      8.152
  Name = 
  6 active torsions:
  status: ('A' for Active; 'I' for Inactive)
    1  A    between atoms: O_3  and  C_24
    2  A    between atoms: O_3  and  C_25
    3  A    between atoms: C_7  and  C_11
    4  A    between atoms: C_8  and  C_18
    5  A    between atoms: C_11  and  C_15
    6  A    between atoms: C_18  and  C_30
                            x       y       z     vdW  Elec       q    Type
                         _______ _______ _______ _____ _____    ______ ____

>  <TORSDO>
F 6

$$$$
=
 OpenBabel10272415293D

 34 38  0  0  1  0  0  0  0  0999 V2000
  189.2080  176.4800  135.5440 C   0  0  1  0  0  3  0  0  0  0  0  0
  186.6350  173.9150  134.6390 C   0  0  0  0  0  3  0  0  0  0  0  0
  188.9670  173.7950  134.5690 O   0  0  0  0  0  0  0  0  0  0  0  0
  190.1120  177.5610  137.6890 C   0  0  2  0  0  3  0  0  0  0  0  0
  189.4080  177.7730  136.3470 C   0  0  0  0  0  2  0  0  0  0  0  0
  191.0020  175.3340  136.9030 N   0  0  0  0  0  0  0  0  0  0  0  0
  190.1150  174.5140  137.7270 C   0  0  0  0  0  1  0  0  0  0  0  0
  191.3080  176.5970  137.5860 C   0  0  0  0  0  2  0  0  0  0  0  0
  190.2510  174.3110  134.7850 C   0  0  0  0  0  0  0  0  0  0  0  0
  190.4590  175.5850  135.5560 C   0  0  1  0  0  3  0  0  0  0  0  0
  191.2500  173.6830  134.3460 O   0  0  0  0  0  0  0  0  0  0  0  0
  185.3160  174.5540  134.9110 C   0  0  0  0  0  2  0  0  0  0  0  0
  185.0530  174.6660  136.3810 C   0  0  0  0  0  0  0  0  0  0  0  0
  185.8330  175.4120  137.1620 C   0  0  0  0  0  3  0  0  0  0  0  0
  187.8050  174.4460  135.0000 C   0  0  0  0  0  0  0  0  0  0  0  0
  187.0730  176.0920  136.7420 C   0  0  0  0  0  3  0  0  0  0  0  0
  187.9320  175.7070  135.7810 C   0  0  0  0  0  0  0  0  0  0  0  0
  183.9480  174.0340  136.9590 O   0  0  0  0  0  0  0  0  0  0  0  0
  183.4600  171.6730  136.9740 C   0  0  0  0  0  1  0  0  0  0  0  0
  183.2080  173.0110  136.3040 C   0  0  0  0  0  2  0  0  0  0  0  0
  189.1280  177.1940  138.8020 C   0  0  0  0  0  2  0  0  0  0  0  0
  191.1380  177.3730  141.1180 O   0  0  0  0  0  0  0  0  0  0  0  0
  187.7060  178.3960  140.5490 C   0  0  0  0  0  2  0  0  0  0  0  0
  188.5160  177.5310  144.6770 C   0  0  1  0  0  3  0  0  0  0  0  0
  189.5080  177.0210  143.6230 C   0  0  0  0  0  2  0  0  0  0  0  0
  189.1200  177.5290  142.3120 N   0  0  0  0  0  0  0  0  0  0  0  0
  186.8160  177.9040  142.8470 C   0  0  0  0  0  3  0  0  0  0  0  0
  187.8090  177.9240  141.9620 C   0  0  0  0  0  0  0  0  0  0  0  0
  187.0570  177.3420  144.2250 C   0  0  0  0  0  2  0  0  0  0  0  0
  189.1270  178.1700  139.9840 C   0  0  1  0  0  3  0  0  0  0  0  0
  189.9100  177.6520  141.1510 C   0  0  0  0  0  0  0  0  0  0  0  0
  188.7690  176.9150  146.0530 C   0  0  0  0  0  2  0  0  0  0  0  0
  189.3450  177.9040  147.0610 C   0  0  0  0  0  2  0  0  0  0  0  0
  188.4340  178.0680  148.1800 N   0  0  0  0  0  1  0  0  0  0  0  0
  1 10  1  0  0  0  0
  1 17  1  0  0  0  0
  1  5  1  1  0  0  0
  2 12  1  0  0  0  0
  2 15  2  0  0  0  0
  3  9  1  0  0  0  0
  3 15  1  0  0  0  0
  4 21  1  1  0  0  0
  5  4  1  0  0  0  0
  6  8  1  0  0  0  0
  6  7  1  0  0  0  0
  8  4  1  0  0  0  0
 10  9  1  1  0  0  0
 10  6  1  0  0  0  0
 11  9  2  0  0  0  0
 12 13  1  0  0  0  0
 13 18  1  0  0  0  0
 13 14  2  0  0  0  0
 15 17  1  0  0  0  0
 16 14  1  0  0  0  0
 17 16  2  0  0  0  0
 20 18  1  0  0  0  0
 20 19  1  0  0  0  0
 22 31  2  0  0  0  0
 23 28  1  0  0  0  0
 24 32  1  1  0  0  0
 25 24  1  0  0  0  0
 26 25  1  0  0  0  0
 27 29  1  0  0  0  0
 28 26  1  0  0  0  0
 28 27  2  0  0  0  0
 29 24  1  0  0  0  0
 30 21  1  6  0  0  0
 30 23  1  0  0  0  0
 30 31  1  0  0  0  0
 31 26  1  0  0  0  0
 32 33  1  0  0  0  0
 33 34  1  0  0  0  0
M  END
>  <MODEL>
4

>  <REMARK>
 VINA RESULT:      -6.7      2.877      8.686
  Name = 
  6 active torsions:
  status: ('A' for Active; 'I' for Inactive)
    1  A    between atoms: O_3  and  C_24
    2  A    between atoms: O_3  and  C_25
    3  A    between atoms: C_7  and  C_11
    4  A    between atoms: C_8  and  C_18
    5  A    between atoms: C_11  and  C_15
    6  A    between atoms: C_18  and  C_30
                            x       y       z     vdW  Elec       q    Type
                         _______ _______ _______ _____ _____    ______ ____

>  <TORSDO>
F 6

$$$$
=
 OpenBabel10272415293D

 34 38  0  0  1  0  0  0  0  0999 V2000
  188.5150  178.5560  137.5500 C   0  0  1  0  0  3  0  0  0  0  0  0
  187.8790  178.3030  141.2310 C   0  0  0  0  0  3  0  0  0  0  0  0
  186.3820  178.2470  139.4390 O   0  0  0  0  0  0  0  0  0  0  0  0
  189.5440  177.0880  135.7140 C   0  0  2  0  0  3  0  0  0  0  0  0
  189.6160  178.4040  136.4910 C   0  0  0  0  0  2  0  0  0  0  0  0
  187.1350  176.7810  136.4000 N   0  0  0  0  0  0  0  0  0  0  0  0
  187.3840  175.7040  137.3580 C   0  0  0  0  0  1  0  0  0  0  0  0
  188.1070  176.7190  135.3010 C   0  0  0  0  0  2  0  0  0  0  0  0
  186.0660  178.2460  138.0750 C   0  0  0  0  0  0  0  0  0  0  0  0
  187.1370  178.1140  137.0280 C   0  0  1  0  0  3  0  0  0  0  0  0
  184.8620  178.3330  137.7200 O   0  0  0  0  0  0  0  0  0  0  0  0
  189.2210  178.3790  141.8780 C   0  0  0  0  0  2  0  0  0  0  0  0
  190.0020  177.1190  141.6700 C   0  0  0  0  0  0  0  0  0  0  0  0
  190.3610  176.7270  140.4480 C   0  0  0  0  0  3  0  0  0  0  0  0
  187.6970  178.1820  139.9150 C   0  0  0  0  0  0  0  0  0  0  0  0
  189.9520  177.3700  139.1840 C   0  0  0  0  0  3  0  0  0  0  0  0
  188.8110  178.0370  138.9370 C   0  0  0  0  0  0  0  0  0  0  0  0
  190.4240  176.3520  142.7600 O   0  0  0  0  0  0  0  0  0  0  0  0
  191.4960  177.5080  144.5850 C   0  0  0  0  0  1  0  0  0  0  0  0
  190.2590  176.7660  144.1110 C   0  0  0  0  0  2  0  0  0  0  0  0
  190.2810  175.9550  136.4330 C   0  0  0  0  0  2  0  0  0  0  0  0
  191.4540  173.6180  134.8210 O   0  0  0  0  0  0  0  0  0  0  0  0
  192.7480  176.1610  137.0590 C   0  0  0  0  0  2  0  0  0  0  0  0
  195.0640  172.5460  137.1420 C   0  0  1  0  0  3  0  0  0  0  0  0
  193.6550  172.4890  136.5330 C   0  0  0  0  0  2  0  0  0  0  0  0
  193.0980  173.8360  136.4860 N   0  0  0  0  0  0  0  0  0  0  0  0
  194.4710  174.7500  138.2220 C   0  0  0  0  0  3  0  0  0  0  0  0
  193.4960  174.8980  137.3290 C   0  0  0  0  0  0  0  0  0  0  0  0
  195.0960  173.3930  138.4260 C   0  0  0  0  0  2  0  0  0  0  0  0
  191.7280  175.7560  135.9700 C   0  0  1  0  0  3  0  0  0  0  0  0
  192.0430  174.3200  135.6850 C   0  0  0  0  0  0  0  0  0  0  0  0
  195.6520  171.1530  137.3650 C   0  0  0  0  0  2  0  0  0  0  0  0
  197.1720  171.1130  137.2520 C   0  0  0  0  0  2  0  0  0  0  0  0
  197.5760  170.1420  136.2510 N   0  0  0  0  0  1  0  0  0  0  0  0
  1  5  1  6  0  0  0
  1 17  1  0  0  0  0
  2 12  1  0  0  0  0
  3 15  1  0  0  0  0
  4 21  1  1  0  0  0
  4  5  1  0  0  0  0
  6 10  1  0  0  0  0
  6  7  1  0  0  0  0
  8  4  1  0  0  0  0
  8  6  1  0  0  0  0
  9  3  1  0  0  0  0
 10  1  1  0  0  0  0
 10  9  1  1  0  0  0
 11  9  2  0  0  0  0
 13 12  1  0  0  0  0
 13 18  1  0  0  0  0
 14 13  2  0  0  0  0
 15  2  2  0  0  0  0
 16 14  1  0  0  0  0
 17 16  2  0  0  0  0
 17 15  1  0  0  0  0
 18 20  1  0  0  0  0
 20 19  1  0  0  0  0
 22 31  2  0  0  0  0
 23 28  1  0  0  0  0
 24 32  1  1  0  0  0
 24 29  1  0  0  0  0
 25 24  1  0  0  0  0
 26 25  1  0  0  0  0
 26 28  1  0  0  0  0
 27 29  1  0  0  0  0
 28 27  2  0  0  0  0
 30 21  1  1  0  0  0
 30 23  1  0  0  0  0
 31 30  1  0  0  0  0
 31 26  1  0  0  0  0
 33 32  1  0  0  0  0
 34 33  1  0  0  0  0
M  END
>  <MODEL>
5

>  <REMARK>
 VINA RESULT:      -6.4      4.070      7.450
  Name = 
  6 active torsions:
  status: ('A' for Active; 'I' for Inactive)
    1  A    between atoms: O_3  and  C_24
    2  A    between atoms: O_3  and  C_25
    3  A    between atoms: C_7  and  C_11
    4  A    between atoms: C_8  and  C_18
    5  A    between atoms: C_11  and  C_15
    6  A    between atoms: C_18  and  C_30
                            x       y       z     vdW  Elec       q    Type
                         _______ _______ _______ _____ _____    ______ ____

>  <TORSDO>
F 6

$$$$
