=
 OpenBabel10272400113D

 34 38  0  0  1  0  0  0  0  0999 V2000
  189.6650  177.2680  146.4290 C   0  0  0  0  0  0  0  0  0  0  0  0
  191.1170  176.1050  144.8710 C   0  0  0  0  0  0  0  0  0  0  0  0
  189.0660  177.3190  144.0460 C   0  0  0  0  0  0  0  0  0  0  0  0
  188.4120  177.6440  141.7160 C   0  0  0  0  0  0  0  0  0  0  0  0
  190.5660  177.0010  147.4620 C   0  0  0  0  0  3  0  0  0  0  0  0
  192.0020  175.8360  145.9190 C   0  0  0  0  0  3  0  0  0  0  0  0
  190.8600  177.5320  142.2400 C   0  0  0  0  0  2  0  0  0  0  0  0
  189.9710  176.9170  145.0860 C   0  0  0  0  0  0  0  0  0  0  0  0
  191.0890  177.1020  140.7990 C   0  0  0  0  0  2  0  0  0  0  0  0
  188.6830  177.5720  140.2380 C   0  0  0  0  0  2  0  0  0  0  0  0
  191.7450  176.3080  147.2040 C   0  0  0  0  0  3  0  0  0  0  0  0
  187.7630  177.7630  144.4190 C   0  0  0  0  0  0  0  0  0  0  0  0
  188.4380  177.8300  146.7510 C   0  0  0  0  0  3  0  0  0  0  0  0
  191.3160  175.4300  143.7120 F   0  0  0  0  0  0  0  0  0  0  0  0
  187.1460  177.9050  142.1160 N   0  0  0  0  0  0  0  0  0  0  0  0
  186.7860  177.9960  143.4210 C   0  0  0  0  0  0  0  0  0  0  0  0
  190.1410  177.8800  139.8950 C   0  0  2  0  0  3  0  0  0  0  0  0
  189.4190  177.3810  142.6700 C   0  0  0  0  0  0  0  0  0  0  0  0
  187.4870  178.0420  145.7630 C   0  0  0  0  0  3  0  0  0  0  0  0
  183.0890  178.6620  142.9360 C   0  0  0  0  0  0  0  0  0  0  0  0
  182.6680  178.9130  144.2440 C   0  0  0  0  0  3  0  0  0  0  0  0
  185.3710  178.3450  143.7210 C   0  0  0  0  0  0  0  0  0  0  0  0
  183.5890  178.8720  145.2940 C   0  0  0  0  0  3  0  0  0  0  0  0
  184.4320  178.3730  142.6780 C   0  0  0  0  0  3  0  0  0  0  0  0
  184.9320  178.5850  145.0330 C   0  0  0  0  0  3  0  0  0  0  0  0
  182.1520  178.6960  141.8680 N   0  0  0  0  0  1  0  0  0  0  0  0
  190.4270  177.6550  138.4760 N   0  0  0  0  0  2  0  0  0  0  0  0
  189.2060  177.3230  137.7470 C   0  0  0  0  0  2  0  0  0  0  0  0
  189.0320  179.6750  137.3650 O   0  0  0  0  0  1  0  0  0  0  0  0
  188.8730  178.4290  136.7570 C   0  0  2  0  0  3  0  0  0  0  0  0
  187.4590  178.2850  136.1880 C   0  0  0  0  0  2  0  0  0  0  0  0
  186.0400  178.7930  138.1800 O   0  0  0  0  0  1  0  0  0  0  0  0
  186.4610  177.8780  137.2250 C   0  0  0  0  0  0  0  0  0  0  0  0
  185.9850  176.7130  137.2180 O   0  0  0  0  0  0  0  0  0  0  0  0
  1 13  1  0  0  0  0
  1  5  2  0  0  0  0
  2  8  2  0  0  0  0
  2  6  1  0  0  0  0
  3 12  1  0  0  0  0
  3  8  1  0  0  0  0
  4 15  2  0  0  0  0
  4 18  1  0  0  0  0
  6 11  2  0  0  0  0
  7 18  1  0  0  0  0
  8  1  1  0  0  0  0
  9  7  1  0  0  0  0
 10  4  1  0  0  0  0
 11  5  1  0  0  0  0
 12 19  1  0  0  0  0
 14  2  1  0  0  0  0
 15 16  1  0  0  0  0
 16 22  1  0  0  0  0
 16 12  2  0  0  0  0
 17 27  1  6  0  0  0
 17 10  1  0  0  0  0
 17  9  1  0  0  0  0
 18  3  2  0  0  0  0
 19 13  2  0  0  0  0
 20 21  1  0  0  0  0
 21 23  2  0  0  0  0
 22 25  2  0  0  0  0
 24 20  2  0  0  0  0
 24 22  1  0  0  0  0
 25 23  1  0  0  0  0
 26 20  1  0  0  0  0
 28 27  1  0  0  0  0
 30 29  1  1  0  0  0
 30 28  1  0  0  0  0
 31 30  1  0  0  0  0
 31 33  1  0  0  0  0
 33 32  1  0  0  0  0
 34 33  2  0  0  0  0
M  END
>  <MODEL>
1

>  <REMARK>
 VINA RESULT:     -11.2      0.000      0.000
  Name = 
  6 active torsions:
  status: ('A' for Active; 'I' for Inactive)
    1  A    between atoms: N_3  and  C_13
    2  A    between atoms: N_3  and  C_29
    3  A    between atoms: C_12  and  C_28
    4  A    between atoms: C_13  and  C_33
    5  A    between atoms: C_20  and  C_22
    6  A    between atoms: C_22  and  C_33
                            x       y       z     vdW  Elec       q    Type
                         _______ _______ _______ _____ _____    ______ ____

>  <TORSDO>
F 6

$$$$
=
 OpenBabel10272400113D

 34 38  0  0  1  0  0  0  0  0999 V2000
  187.1010  178.3250  147.0230 C   0  0  0  0  0  0  0  0  0  0  0  0
  189.0060  177.1290  146.1150 C   0  0  0  0  0  0  0  0  0  0  0  0
  187.1980  178.0020  144.5890 C   0  0  0  0  0  0  0  0  0  0  0  0
  187.2110  177.9500  142.1470 C   0  0  0  0  0  0  0  0  0  0  0  0
  187.6870  178.2920  148.2900 C   0  0  0  0  0  3  0  0  0  0  0  0
  189.5730  177.0940  147.3920 C   0  0  0  0  0  3  0  0  0  0  0  0
  189.4120  178.1660  143.3240 C   0  0  0  0  0  2  0  0  0  0  0  0
  187.7960  177.8370  145.8830 C   0  0  0  0  0  0  0  0  0  0  0  0
  190.0680  177.5780  142.0840 C   0  0  0  0  0  2  0  0  0  0  0  0
  187.8930  177.7150  140.8270 C   0  0  0  0  0  2  0  0  0  0  0  0
  188.9330  177.6990  148.4710 C   0  0  0  0  0  3  0  0  0  0  0  0
  185.8170  178.3510  144.5220 C   0  0  0  0  0  0  0  0  0  0  0  0
  185.7980  178.7930  146.9100 C   0  0  0  0  0  3  0  0  0  0  0  0
  189.5680  176.3340  145.1720 F   0  0  0  0  0  0  0  0  0  0  0  0
  185.8690  178.1260  142.1440 N   0  0  0  0  0  0  0  0  0  0  0  0
  185.1490  178.3480  143.2730 C   0  0  0  0  0  0  0  0  0  0  0  0
  189.3660  178.1280  140.8480 C   0  0  2  0  0  3  0  0  0  0  0  0
  187.9220  177.9200  143.3670 C   0  0  0  0  0  0  0  0  0  0  0  0
  185.1550  178.7720  145.6800 C   0  0  0  0  0  3  0  0  0  0  0  0
  181.7510  178.8010  141.6640 C   0  0  0  0  0  0  0  0  0  0  0  0
  180.9200  178.9340  142.7790 C   0  0  0  0  0  3  0  0  0  0  0  0
  183.6880  178.5810  143.1210 C   0  0  0  0  0  0  0  0  0  0  0  0
  181.4640  178.8820  144.0650 C   0  0  0  0  0  3  0  0  0  0  0  0
  183.1260  178.6200  141.8360 C   0  0  0  0  0  3  0  0  0  0  0  0
  182.8400  178.7010  144.2340 C   0  0  0  0  0  3  0  0  0  0  0  0
  181.1970  178.8470  140.3560 N   0  0  0  0  0  1  0  0  0  0  0  0
  190.0560  177.7510  139.6130 N   0  0  0  0  0  2  0  0  0  0  0  0
  189.1030  177.2970  138.6030 C   0  0  0  0  0  2  0  0  0  0  0  0
  189.0550  179.5880  137.9280 O   0  0  0  0  0  1  0  0  0  0  0  0
  189.0660  178.2800  137.4430 C   0  0  2  0  0  3  0  0  0  0  0  0
  187.8670  178.0390  136.5220 C   0  0  0  0  0  2  0  0  0  0  0  0
  186.0130  178.7980  138.0140 O   0  0  0  0  0  1  0  0  0  0  0  0
  186.6040  177.7790  137.2800 C   0  0  0  0  0  0  0  0  0  0  0  0
  186.0630  176.6440  137.2320 O   0  0  0  0  0  0  0  0  0  0  0  0
  1  5  2  0  0  0  0
  2  6  1  0  0  0  0
  3  8  1  0  0  0  0
  4 18  1  0  0  0  0
  5 11  1  0  0  0  0
  6 11  2  0  0  0  0
  7 18  1  0  0  0  0
  8  2  2  0  0  0  0
  8  1  1  0  0  0  0
  9  7  1  0  0  0  0
 10 17  1  0  0  0  0
 10  4  1  0  0  0  0
 12  3  1  0  0  0  0
 12 19  1  0  0  0  0
 13  1  1  0  0  0  0
 14  2  1  0  0  0  0
 15  4  2  0  0  0  0
 15 16  1  0  0  0  0
 16 12  2  0  0  0  0
 17 27  1  6  0  0  0
 17  9  1  0  0  0  0
 18  3  2  0  0  0  0
 19 13  2  0  0  0  0
 20 24  2  0  0  0  0
 20 21  1  0  0  0  0
 21 23  2  0  0  0  0
 22 16  1  0  0  0  0
 22 25  2  0  0  0  0
 23 25  1  0  0  0  0
 24 22  1  0  0  0  0
 26 20  1  0  0  0  0
 28 27  1  0  0  0  0
 30 29  1  1  0  0  0
 30 28  1  0  0  0  0
 31 33  1  0  0  0  0
 31 30  1  0  0  0  0
 33 32  1  0  0  0  0
 34 33  2  0  0  0  0
M  END
>  <MODEL>
2

>  <REMARK>
 VINA RESULT:     -10.9      1.285      1.969
  Name = 
  6 active torsions:
  status: ('A' for Active; 'I' for Inactive)
    1  A    between atoms: N_3  and  C_13
    2  A    between atoms: N_3  and  C_29
    3  A    between atoms: C_12  and  C_28
    4  A    between atoms: C_13  and  C_33
    5  A    between atoms: C_20  and  C_22
    6  A    between atoms: C_22  and  C_33
                            x       y       z     vdW  Elec       q    Type
                         _______ _______ _______ _____ _____    ______ ____

>  <TORSDO>
F 6

$$$$
=
 OpenBabel10272400113D

 34 38  0  0  1  0  0  0  0  0999 V2000
  189.6500  177.2490  146.3190 C   0  0  0  0  0  0  0  0  0  0  0  0
  191.1020  176.0800  144.7660 C   0  0  0  0  0  0  0  0  0  0  0  0
  189.0560  177.2980  143.9360 C   0  0  0  0  0  0  0  0  0  0  0  0
  188.4070  177.6220  141.6030 C   0  0  0  0  0  0  0  0  0  0  0  0
  190.5480  176.9810  147.3550 C   0  0  0  0  0  3  0  0  0  0  0  0
  191.9840  175.8100  145.8170 C   0  0  0  0  0  3  0  0  0  0  0  0
  190.8530  177.5050  142.1320 C   0  0  0  0  0  2  0  0  0  0  0  0
  189.9570  176.8950  144.9780 C   0  0  0  0  0  0  0  0  0  0  0  0
  191.0840  177.0720  140.6930 C   0  0  0  0  0  2  0  0  0  0  0  0
  188.6810  177.5470  140.1260 C   0  0  0  0  0  2  0  0  0  0  0  0
  191.7260  176.2840  147.1000 C   0  0  0  0  0  3  0  0  0  0  0  0
  187.7530  177.7460  144.3050 C   0  0  0  0  0  0  0  0  0  0  0  0
  188.4230  177.8150  146.6390 C   0  0  0  0  0  3  0  0  0  0  0  0
  191.3010  175.4030  143.6090 F   0  0  0  0  0  0  0  0  0  0  0  0
  187.1410  177.8870  142.0010 N   0  0  0  0  0  0  0  0  0  0  0  0
  186.7780  177.9810  143.3050 C   0  0  0  0  0  0  0  0  0  0  0  0
  190.1400  177.8510  139.7860 C   0  0  2  0  0  3  0  0  0  0  0  0
  189.4110  177.3570  142.5600 C   0  0  0  0  0  0  0  0  0  0  0  0
  187.4750  178.0280  145.6480 C   0  0  0  0  0  3  0  0  0  0  0  0
  183.0840  178.6520  142.8130 C   0  0  0  0  0  0  0  0  0  0  0  0
  182.6610  178.9100  144.1190 C   0  0  0  0  0  3  0  0  0  0  0  0
  185.3640  178.3330  143.6020 C   0  0  0  0  0  0  0  0  0  0  0  0
  183.5810  178.8710  145.1700 C   0  0  0  0  0  3  0  0  0  0  0  0
  184.4270  178.3600  142.5580 C   0  0  0  0  0  3  0  0  0  0  0  0
  184.9230  178.5790  144.9130 C   0  0  0  0  0  3  0  0  0  0  0  0
  182.1470  178.6840  141.7440 N   0  0  0  0  0  1  0  0  0  0  0  0
  190.4290  177.6240  138.3680 N   0  0  0  0  0  2  0  0  0  0  0  0
  189.7610  176.4160  137.8900 C   0  0  0  0  0  2  0  0  0  0  0  0
  191.1120  174.4610  138.1370 O   0  0  0  0  0  1  0  0  0  0  0  0
  190.7730  175.4810  137.2460 C   0  0  2  0  0  3  0  0  0  0  0  0
  192.0260  176.2240  136.7780 C   0  0  0  0  0  2  0  0  0  0  0  0
  193.9320  174.6210  136.9760 O   0  0  0  0  0  0  0  0  0  0  0  0
  193.2680  175.7420  137.4570 C   0  0  0  0  0  0  0  0  0  0  0  0
  193.7250  176.3640  138.4500 O   0  0  0  0  0  1  0  0  0  0  0  0
  1 13  1  0  0  0  0
  1  5  2  0  0  0  0
  2  8  2  0  0  0  0
  2  6  1  0  0  0  0
  3 12  1  0  0  0  0
  3  8  1  0  0  0  0
  4 15  2  0  0  0  0
  4 18  1  0  0  0  0
  6 11  2  0  0  0  0
  7 18  1  0  0  0  0
  8  1  1  0  0  0  0
  9  7  1  0  0  0  0
 10  4  1  0  0  0  0
 11  5  1  0  0  0  0
 12 19  1  0  0  0  0
 14  2  1  0  0  0  0
 15 16  1  0  0  0  0
 16 22  1  0  0  0  0
 16 12  2  0  0  0  0
 17 27  1  6  0  0  0
 17 10  1  0  0  0  0
 17  9  1  0  0  0  0
 18  3  2  0  0  0  0
 19 13  2  0  0  0  0
 20 21  1  0  0  0  0
 21 23  2  0  0  0  0
 22 25  2  0  0  0  0
 24 20  2  0  0  0  0
 24 22  1  0  0  0  0
 25 23  1  0  0  0  0
 26 20  1  0  0  0  0
 28 27  1  0  0  0  0
 30 28  1  0  0  0  0
 30 29  1  1  0  0  0
 31 30  1  0  0  0  0
 31 33  1  0  0  0  0
 32 33  2  0  0  0  0
 33 34  1  0  0  0  0
M  END
>  <MODEL>
3

>  <REMARK>
 VINA RESULT:     -10.9      2.110      2.793
  Name = 
  6 active torsions:
  status: ('A' for Active; 'I' for Inactive)
    1  A    between atoms: N_3  and  C_13
    2  A    between atoms: N_3  and  C_29
    3  A    between atoms: C_12  and  C_28
    4  A    between atoms: C_13  and  C_33
    5  A    between atoms: C_20  and  C_22
    6  A    between atoms: C_22  and  C_33
                            x       y       z     vdW  Elec       q    Type
                         _______ _______ _______ _____ _____    ______ ____

>  <TORSDO>
F 6

$$$$
=
 OpenBabel10272400113D

 34 38  0  0  1  0  0  0  0  0999 V2000
  187.0640  178.4190  147.0970 C   0  0  0  0  0  0  0  0  0  0  0  0
  189.0470  177.1430  146.5240 C   0  0  0  0  0  0  0  0  0  0  0  0
  187.4650  177.9280  144.7230 C   0  0  0  0  0  0  0  0  0  0  0  0
  187.7880  177.7080  142.3120 C   0  0  0  0  0  0  0  0  0  0  0  0
  187.4840  178.4670  148.4280 C   0  0  0  0  0  3  0  0  0  0  0  0
  189.4450  177.1900  147.8630 C   0  0  0  0  0  3  0  0  0  0  0  0
  189.8250  177.9810  143.7460 C   0  0  0  0  0  2  0  0  0  0  0  0
  187.8890  177.8460  146.0920 C   0  0  0  0  0  0  0  0  0  0  0  0
  190.6220  177.3020  142.6420 C   0  0  0  0  0  2  0  0  0  0  0  0
  188.6290  177.3750  141.1100 C   0  0  0  0  0  2  0  0  0  0  0  0
  188.6850  177.8750  148.8070 C   0  0  0  0  0  3  0  0  0  0  0  0
  186.1110  178.2860  144.4560 C   0  0  0  0  0  0  0  0  0  0  0  0
  185.7960  178.8910  146.7870 C   0  0  0  0  0  3  0  0  0  0  0  0
  189.7090  176.2790  145.7170 F   0  0  0  0  0  0  0  0  0  0  0  0
  186.4620  177.8980  142.1250 N   0  0  0  0  0  0  0  0  0  0  0  0
  185.6080  178.2040  143.1340 C   0  0  0  0  0  0  0  0  0  0  0  0
  190.0940  177.7730  141.2920 C   0  0  2  0  0  3  0  0  0  0  0  0
  188.3370  177.7550  143.6120 C   0  0  0  0  0  0  0  0  0  0  0  0
  185.3140  178.7930  145.4890 C   0  0  0  0  0  3  0  0  0  0  0  0
  182.4170  178.4170  141.1060 C   0  0  0  0  0  0  0  0  0  0  0  0
  181.4840  178.7940  142.0760 C   0  0  0  0  0  3  0  0  0  0  0  0
  184.1830  178.4420  142.7810 C   0  0  0  0  0  0  0  0  0  0  0  0
  181.8920  178.9860  143.3980 C   0  0  0  0  0  3  0  0  0  0  0  0
  183.7570  178.2370  141.4590 C   0  0  0  0  0  3  0  0  0  0  0  0
  183.2320  178.8060  143.7490 C   0  0  0  0  0  3  0  0  0  0  0  0
  182.0020  178.2150  139.7620 N   0  0  0  0  0  1  0  0  0  0  0  0
  190.9290  177.3050  140.1840 N   0  0  0  0  0  2  0  0  0  0  0  0
  190.1110  176.6860  139.1430 C   0  0  0  0  0  2  0  0  0  0  0  0
  190.9200  174.6980  138.0940 O   0  0  0  0  0  1  0  0  0  0  0  0
  191.0030  176.0910  138.0650 C   0  0  2  0  0  3  0  0  0  0  0  0
  192.4580  176.5450  138.2060 C   0  0  0  0  0  2  0  0  0  0  0  0
  194.6290  175.7780  137.2350 O   0  0  0  0  0  1  0  0  0  0  0  0
  193.3020  176.1400  137.0400 C   0  0  0  0  0  0  0  0  0  0  0  0
  192.8050  176.1030  135.8850 O   0  0  0  0  0  0  0  0  0  0  0  0
  1  5  2  0  0  0  0
  2  6  1  0  0  0  0
  3  8  1  0  0  0  0
  4 18  1  0  0  0  0
  5 11  1  0  0  0  0
  6 11  2  0  0  0  0
  8  2  2  0  0  0  0
  8  1  1  0  0  0  0
  9  7  1  0  0  0  0
 10 17  1  0  0  0  0
 10  4  1  0  0  0  0
 12  3  1  0  0  0  0
 12 19  1  0  0  0  0
 13  1  1  0  0  0  0
 14  2  1  0  0  0  0
 15  4  2  0  0  0  0
 15 16  1  0  0  0  0
 16 12  2  0  0  0  0
 17 27  1  6  0  0  0
 17  9  1  0  0  0  0
 18  7  1  0  0  0  0
 18  3  2  0  0  0  0
 19 13  2  0  0  0  0
 20 24  2  0  0  0  0
 20 21  1  0  0  0  0
 21 23  2  0  0  0  0
 22 16  1  0  0  0  0
 22 25  2  0  0  0  0
 23 25  1  0  0  0  0
 24 22  1  0  0  0  0
 26 20  1  0  0  0  0
 28 27  1  0  0  0  0
 30 29  1  1  0  0  0
 30 31  1  0  0  0  0
 30 28  1  0  0  0  0
 33 32  1  0  0  0  0
 33 31  1  0  0  0  0
 34 33  2  0  0  0  0
M  END
>  <MODEL>
4

>  <REMARK>
 VINA RESULT:     -10.7      2.474      3.410
  Name = 
  6 active torsions:
  status: ('A' for Active; 'I' for Inactive)
    1  A    between atoms: N_3  and  C_13
    2  A    between atoms: N_3  and  C_29
    3  A    between atoms: C_12  and  C_28
    4  A    between atoms: C_13  and  C_33
    5  A    between atoms: C_20  and  C_22
    6  A    between atoms: C_22  and  C_33
                            x       y       z     vdW  Elec       q    Type
                         _______ _______ _______ _____ _____    ______ ____

>  <TORSDO>
F 6

$$$$
=
 OpenBabel10272400113D

 34 38  0  0  1  0  0  0  0  0999 V2000
  186.9620  178.2180  146.8720 C   0  0  0  0  0  0  0  0  0  0  0  0
  188.8600  177.0800  145.8770 C   0  0  0  0  0  0  0  0  0  0  0  0
  187.0190  178.0090  144.4240 C   0  0  0  0  0  0  0  0  0  0  0  0
  186.9890  178.0720  141.9830 C   0  0  0  0  0  0  0  0  0  0  0  0
  187.5710  178.1300  148.1260 C   0  0  0  0  0  3  0  0  0  0  0  0
  189.4490  176.9900  147.1410 C   0  0  0  0  0  3  0  0  0  0  0  0
  189.2090  178.2500  143.1310 C   0  0  0  0  0  2  0  0  0  0  0  0
  187.6400  177.7880  145.6990 C   0  0  0  0  0  0  0  0  0  0  0  0
  189.8470  177.7260  141.8540 C   0  0  0  0  0  2  0  0  0  0  0  0
  187.6500  177.9040  140.6420 C   0  0  0  0  0  2  0  0  0  0  0  0
  188.8240  177.5390  148.2570 C   0  0  0  0  0  3  0  0  0  0  0  0
  185.6350  178.3500  144.3980 C   0  0  0  0  0  0  0  0  0  0  0  0
  185.6540  178.6790  146.8040 C   0  0  0  0  0  3  0  0  0  0  0  0
  189.4100  176.3350  144.8880 F   0  0  0  0  0  0  0  0  0  0  0  0
  185.6470  178.2370  142.0120 N   0  0  0  0  0  0  0  0  0  0  0  0
  184.9450  178.4000  143.1620 C   0  0  0  0  0  0  0  0  0  0  0  0
  189.1190  178.3270  140.6570 C   0  0  2  0  0  3  0  0  0  0  0  0
  187.7210  177.9910  143.1870 C   0  0  0  0  0  0  0  0  0  0  0  0
  184.9900  178.7110  145.5860 C   0  0  0  0  0  3  0  0  0  0  0  0
  181.5110  178.8770  141.6360 C   0  0  0  0  0  0  0  0  0  0  0  0
  180.7030  178.9740  142.7710 C   0  0  0  0  0  3  0  0  0  0  0  0
  183.4800  178.6280  143.0460 C   0  0  0  0  0  0  0  0  0  0  0  0
  181.2740  178.8890  144.0430 C   0  0  0  0  0  3  0  0  0  0  0  0
  182.8910  178.7000  141.7740 C   0  0  0  0  0  3  0  0  0  0  0  0
  182.6530  178.7120  144.1790 C   0  0  0  0  0  3  0  0  0  0  0  0
  180.9310  178.9560  140.3410 N   0  0  0  0  0  1  0  0  0  0  0  0
  189.7910  178.0140  139.3940 N   0  0  0  0  0  2  0  0  0  0  0  0
  190.9690  177.1820  139.6240 C   0  0  0  0  0  2  0  0  0  0  0  0
  192.0700  176.4280  137.6420 O   0  0  0  0  0  1  0  0  0  0  0  0
  191.0640  176.1050  138.5540 C   0  0  2  0  0  3  0  0  0  0  0  0
  189.7310  175.8930  137.8320 C   0  0  0  0  0  2  0  0  0  0  0  0
  189.2180  174.7150  135.6900 O   0  0  0  0  0  0  0  0  0  0  0  0
  189.7280  174.6640  136.9800 C   0  0  0  0  0  0  0  0  0  0  0  0
  190.2100  173.5900  137.4230 O   0  0  0  0  0  1  0  0  0  0  0  0
  1  5  2  0  0  0  0
  2  6  1  0  0  0  0
  3  8  1  0  0  0  0
  4 15  2  0  0  0  0
  4 18  1  0  0  0  0
  5 11  1  0  0  0  0
  6 11  2  0  0  0  0
  7 18  1  0  0  0  0
  8  2  2  0  0  0  0
  8  1  1  0  0  0  0
  9  7  1  0  0  0  0
 10 17  1  0  0  0  0
 10  4  1  0  0  0  0
 12  3  1  0  0  0  0
 12 19  1  0  0  0  0
 13  1  1  0  0  0  0
 14  2  1  0  0  0  0
 15 16  1  0  0  0  0
 16 12  2  0  0  0  0
 17 27  1  6  0  0  0
 17  9  1  0  0  0  0
 18  3  2  0  0  0  0
 19 13  2  0  0  0  0
 20 24  2  0  0  0  0
 20 21  1  0  0  0  0
 21 23  2  0  0  0  0
 22 16  1  0  0  0  0
 22 25  2  0  0  0  0
 23 25  1  0  0  0  0
 24 22  1  0  0  0  0
 26 20  1  0  0  0  0
 27 28  1  0  0  0  0
 30 29  1  6  0  0  0
 30 28  1  0  0  0  0
 31 30  1  0  0  0  0
 32 33  2  0  0  0  0
 33 34  1  0  0  0  0
 33 31  1  0  0  0  0
M  END
>  <MODEL>
5

>  <REMARK>
 VINA RESULT:     -10.4      2.185      2.854
  Name = 
  6 active torsions:
  status: ('A' for Active; 'I' for Inactive)
    1  A    between atoms: N_3  and  C_13
    2  A    between atoms: N_3  and  C_29
    3  A    between atoms: C_12  and  C_28
    4  A    between atoms: C_13  and  C_33
    5  A    between atoms: C_20  and  C_22
    6  A    between atoms: C_22  and  C_33
                            x       y       z     vdW  Elec       q    Type
                         _______ _______ _______ _____ _____    ______ ____

>  <TORSDO>
F 6

$$$$
=
 OpenBabel10272400113D

 34 38  0  0  1  0  0  0  0  0999 V2000
  191.1290  176.3180  145.1390 C   0  0  0  0  0  0  0  0  0  0  0  0
  189.7510  177.5460  146.7130 C   0  0  0  0  0  0  0  0  0  0  0  0
  189.0380  177.3040  144.3060 C   0  0  0  0  0  0  0  0  0  0  0  0
  186.9190  178.0390  143.3390 C   0  0  0  0  0  0  0  0  0  0  0  0
  191.9780  175.9410  146.1820 C   0  0  0  0  0  3  0  0  0  0  0  0
  190.6170  177.1690  147.7430 C   0  0  0  0  0  3  0  0  0  0  0  0
  186.9200  177.3040  145.7350 C   0  0  0  0  0  2  0  0  0  0  0  0
  189.9340  177.0430  145.3960 C   0  0  0  0  0  0  0  0  0  0  0  0
  185.6760  178.1570  145.9360 C   0  0  0  0  0  2  0  0  0  0  0  0
  185.5190  178.5750  143.4610 C   0  0  0  0  0  2  0  0  0  0  0  0
  191.7100  176.3450  147.4860 C   0  0  0  0  0  3  0  0  0  0  0  0
  189.5180  177.1120  142.9770 C   0  0  0  0  0  0  0  0  0  0  0  0
  191.5090  176.0200  143.8370 C   0  0  0  0  0  3  0  0  0  0  0  0
  188.8520  178.5210  146.9930 F   0  0  0  0  0  0  0  0  0  0  0  0
  187.4750  177.9920  142.1060 N   0  0  0  0  0  0  0  0  0  0  0  0
  188.7280  177.5260  141.8760 C   0  0  0  0  0  0  0  0  0  0  0  0
  184.7950  178.0420  144.6980 C   0  0  2  0  0  3  0  0  0  0  0  0
  187.6710  177.6600  144.4730 C   0  0  0  0  0  0  0  0  0  0  0  0
  190.7290  176.4430  142.7700 C   0  0  0  0  0  3  0  0  0  0  0  0
  189.1520  178.4150  138.2190 C   0  0  0  0  0  0  0  0  0  0  0  0
  190.1070  177.4830  137.8050 C   0  0  0  0  0  3  0  0  0  0  0  0
  189.1950  177.4770  140.4650 C   0  0  0  0  0  0  0  0  0  0  0  0
  190.6160  176.5540  138.7160 C   0  0  0  0  0  3  0  0  0  0  0  0
  188.7040  178.4140  139.5430 C   0  0  0  0  0  3  0  0  0  0  0  0
  190.1660  176.5550  140.0390 C   0  0  0  0  0  3  0  0  0  0  0  0
  188.6390  179.3650  137.2950 N   0  0  0  0  0  1  0  0  0  0  0  0
  183.4940  178.6880  144.8900 N   0  0  0  0  0  2  0  0  0  0  0  0
  183.1730  179.5540  143.7570 C   0  0  0  0  0  2  0  0  0  0  0  0
  181.1130  178.3920  144.0990 O   0  0  0  0  0  1  0  0  0  0  0  0
  181.8150  179.1790  143.1840 C   0  0  2  0  0  3  0  0  0  0  0  0
  181.9370  178.4580  141.8390 C   0  0  0  0  0  2  0  0  0  0  0  0
  180.3270  180.1920  141.0390 O   0  0  0  0  0  1  0  0  0  0  0  0
  181.2150  179.1680  140.7390 C   0  0  0  0  0  0  0  0  0  0  0  0
  181.4300  178.8550  139.5400 O   0  0  0  0  0  0  0  0  0  0  0  0
  1  8  1  0  0  0  0
  1  5  2  0  0  0  0
  2 14  1  0  0  0  0
  2  6  1  0  0  0  0
  3 18  1  0  0  0  0
  3  8  1  0  0  0  0
  4 10  1  0  0  0  0
  4 18  2  0  0  0  0
  5 11  1  0  0  0  0
  7  9  1  0  0  0  0
  8  2  2  0  0  0  0
 10 17  1  0  0  0  0
 11  6  2  0  0  0  0
 12  3  2  0  0  0  0
 13  1  1  0  0  0  0
 15  4  1  0  0  0  0
 16 15  2  0  0  0  0
 16 12  1  0  0  0  0
 17 27  1  1  0  0  0
 17  9  1  0  0  0  0
 18  7  1  0  0  0  0
 19 12  1  0  0  0  0
 19 13  2  0  0  0  0
 20 24  1  0  0  0  0
 21 20  2  0  0  0  0
 21 23  1  0  0  0  0
 22 16  1  0  0  0  0
 23 25  2  0  0  0  0
 24 22  2  0  0  0  0
 25 22  1  0  0  0  0
 26 20  1  0  0  0  0
 28 27  1  0  0  0  0
 30 28  1  0  0  0  0
 30 29  1  1  0  0  0
 31 30  1  0  0  0  0
 33 32  1  0  0  0  0
 33 31  1  0  0  0  0
 34 33  2  0  0  0  0
M  END
>  <MODEL>
6

>  <REMARK>
 VINA RESULT:     -10.4      2.425      6.067
  Name = 
  6 active torsions:
  status: ('A' for Active; 'I' for Inactive)
    1  A    between atoms: N_3  and  C_13
    2  A    between atoms: N_3  and  C_29
    3  A    between atoms: C_12  and  C_28
    4  A    between atoms: C_13  and  C_33
    5  A    between atoms: C_20  and  C_22
    6  A    between atoms: C_22  and  C_33
                            x       y       z     vdW  Elec       q    Type
                         _______ _______ _______ _____ _____    ______ ____

>  <TORSDO>
F 6

$$$$
=
 OpenBabel10272400113D

 34 38  0  0  1  0  0  0  0  0999 V2000
  188.7630  177.3020  146.2020 C   0  0  0  0  0  0  0  0  0  0  0  0
  186.9330  178.6610  147.0330 C   0  0  0  0  0  0  0  0  0  0  0  0
  187.0770  178.0670  144.5850 C   0  0  0  0  0  0  0  0  0  0  0  0
  185.4110  178.5660  142.8700 C   0  0  0  0  0  0  0  0  0  0  0  0
  189.2090  177.1080  147.5110 C   0  0  0  0  0  3  0  0  0  0  0  0
  187.3990  178.4660  148.3350 C   0  0  0  0  0  3  0  0  0  0  0  0
  184.6010  178.1560  145.2060 C   0  0  0  0  0  2  0  0  0  0  0  0
  187.5520  177.9970  145.9380 C   0  0  0  0  0  0  0  0  0  0  0  0
  183.3620  178.9670  144.8560 C   0  0  0  0  0  2  0  0  0  0  0  0
  184.0530  179.0450  142.4390 C   0  0  0  0  0  2  0  0  0  0  0  0
  188.5140  177.6680  148.5790 C   0  0  0  0  0  3  0  0  0  0  0  0
  187.9790  177.7250  143.5350 C   0  0  0  0  0  0  0  0  0  0  0  0
  189.5610  176.8520  145.1580 C   0  0  0  0  0  3  0  0  0  0  0  0
  185.9920  179.6200  146.8540 F   0  0  0  0  0  0  0  0  0  0  0  0
  186.3520  178.3820  141.9150 N   0  0  0  0  0  0  0  0  0  0  0  0
  187.6100  177.9510  142.1870 C   0  0  0  0  0  0  0  0  0  0  0  0
  182.9520  178.6480  143.4240 C   0  0  2  0  0  3  0  0  0  0  0  0
  185.7350  178.3770  144.2320 C   0  0  0  0  0  0  0  0  0  0  0  0
  189.1890  177.0920  143.8430 C   0  0  0  0  0  3  0  0  0  0  0  0
  189.1610  178.2680  138.7470 C   0  0  0  0  0  0  0  0  0  0  0  0
  190.2770  177.4350  138.8560 C   0  0  0  0  0  3  0  0  0  0  0  0
  188.5270  177.7370  141.0360 C   0  0  0  0  0  0  0  0  0  0  0  0
  190.5280  176.7590  140.0530 C   0  0  0  0  0  3  0  0  0  0  0  0
  188.2950  178.4220  139.8330 C   0  0  0  0  0  3  0  0  0  0  0  0
  189.6600  176.9140  141.1370 C   0  0  0  0  0  3  0  0  0  0  0  0
  188.9090  178.9620  137.5320 N   0  0  0  0  0  1  0  0  0  0  0  0
  181.6640  179.2500  143.0750 N   0  0  0  0  0  2  0  0  0  0  0  0
  181.0690  178.5740  141.9250 C   0  0  0  0  0  2  0  0  0  0  0  0
  179.9820  180.1440  140.4890 O   0  0  0  0  0  1  0  0  0  0  0  0
  181.1780  179.4530  140.6890 C   0  0  2  0  0  3  0  0  0  0  0  0
  181.5480  178.6470  139.4410 C   0  0  0  0  0  2  0  0  0  0  0  0
  183.2580  180.4170  139.0110 O   0  0  0  0  0  1  0  0  0  0  0  0
  182.8220  179.1130  138.8130 C   0  0  0  0  0  0  0  0  0  0  0  0
  183.5130  178.3180  138.1240 O   0  0  0  0  0  0  0  0  0  0  0  0
  1  5  2  0  0  0  0
  2  6  1  0  0  0  0
  3  8  1  0  0  0  0
  4 18  2  0  0  0  0
  5 11  1  0  0  0  0
  6 11  2  0  0  0  0
  8  1  1  0  0  0  0
  8  2  2  0  0  0  0
  9  7  1  0  0  0  0
 10  4  1  0  0  0  0
 10 17  1  0  0  0  0
 12 19  1  0  0  0  0
 12  3  2  0  0  0  0
 13  1  1  0  0  0  0
 14  2  1  0  0  0  0
 15 16  2  0  0  0  0
 15  4  1  0  0  0  0
 16 12  1  0  0  0  0
 17 27  1  6  0  0  0
 17  9  1  0  0  0  0
 18  3  1  0  0  0  0
 18  7  1  0  0  0  0
 19 13  2  0  0  0  0
 20 21  2  0  0  0  0
 20 24  1  0  0  0  0
 21 23  1  0  0  0  0
 22 25  1  0  0  0  0
 22 16  1  0  0  0  0
 23 25  2  0  0  0  0
 24 22  2  0  0  0  0
 26 20  1  0  0  0  0
 28 27  1  0  0  0  0
 30 29  1  6  0  0  0
 30 28  1  0  0  0  0
 31 30  1  0  0  0  0
 33 32  1  0  0  0  0
 33 31  1  0  0  0  0
 34 33  2  0  0  0  0
M  END
>  <MODEL>
7

>  <REMARK>
 VINA RESULT:     -10.4      2.404      5.989
  Name = 
  6 active torsions:
  status: ('A' for Active; 'I' for Inactive)
    1  A    between atoms: N_3  and  C_13
    2  A    between atoms: N_3  and  C_29
    3  A    between atoms: C_12  and  C_28
    4  A    between atoms: C_13  and  C_33
    5  A    between atoms: C_20  and  C_22
    6  A    between atoms: C_22  and  C_33
                            x       y       z     vdW  Elec       q    Type
                         _______ _______ _______ _____ _____    ______ ____

>  <TORSDO>
F 6

$$$$
=
 OpenBabel10272400113D

 34 38  0  0  1  0  0  0  0  0999 V2000
  189.8220  177.1590  146.4230 C   0  0  0  0  0  0  0  0  0  0  0  0
  191.4890  175.9870  145.1050 C   0  0  0  0  0  0  0  0  0  0  0  0
  189.5570  177.1550  143.9800 C   0  0  0  0  0  0  0  0  0  0  0  0
  189.2270  177.4260  141.5750 C   0  0  0  0  0  0  0  0  0  0  0  0
  190.5750  176.9250  147.5760 C   0  0  0  0  0  3  0  0  0  0  0  0
  192.2240  175.7520  146.2700 C   0  0  0  0  0  3  0  0  0  0  0  0
  191.5800  177.3600  142.4330 C   0  0  0  0  0  2  0  0  0  0  0  0
  190.3140  176.7860  145.1420 C   0  0  0  0  0  0  0  0  0  0  0  0
  192.0110  176.9050  141.0470 C   0  0  0  0  0  2  0  0  0  0  0  0
  189.7000  177.3290  140.1510 C   0  0  0  0  0  2  0  0  0  0  0  0
  191.7870  176.2440  147.4970 C   0  0  0  0  0  3  0  0  0  0  0  0
  188.2100  177.5860  144.1600 C   0  0  0  0  0  0  0  0  0  0  0  0
  188.5550  177.7090  146.5610 C   0  0  0  0  0  3  0  0  0  0  0  0
  191.8530  175.2940  143.9990 F   0  0  0  0  0  0  0  0  0  0  0  0
  187.9150  177.6760  141.7920 N   0  0  0  0  0  0  0  0  0  0  0  0
  187.3770  177.7870  143.0330 C   0  0  0  0  0  0  0  0  0  0  0  0
  191.1880  177.6520  140.0050 C   0  0  2  0  0  3  0  0  0  0  0  0
  190.0960  177.1950  142.6640 C   0  0  0  0  0  0  0  0  0  0  0  0
  187.7480  177.8870  145.4470 C   0  0  0  0  0  3  0  0  0  0  0  0
  184.0280  178.7840  144.4930 C   0  0  0  0  0  0  0  0  0  0  0  0
  183.2220  178.8390  143.3530 C   0  0  0  0  0  3  0  0  0  0  0  0
  185.9300  178.1190  143.1280 C   0  0  0  0  0  0  0  0  0  0  0  0
  183.7650  178.5450  142.1000 C   0  0  0  0  0  3  0  0  0  0  0  0
  185.3760  178.4320  144.3790 C   0  0  0  0  0  3  0  0  0  0  0  0
  185.1130  178.1930  141.9880 C   0  0  0  0  0  3  0  0  0  0  0  0
  183.4780  179.0890  145.7670 N   0  0  0  0  0  1  0  0  0  0  0  0
  191.6700  177.4040  138.6450 N   0  0  0  0  0  2  0  0  0  0  0  0
  192.8240  176.5100  138.6580 C   0  0  0  0  0  2  0  0  0  0  0  0
  194.0350  176.4500  136.6000 O   0  0  0  0  0  1  0  0  0  0  0  0
  192.9880  175.8490  137.2980 C   0  0  2  0  0  3  0  0  0  0  0  0
  191.6970  175.8970  136.4770 C   0  0  0  0  0  2  0  0  0  0  0  0
  189.4570  174.7980  136.3550 O   0  0  0  0  0  0  0  0  0  0  0  0
  190.7760  174.7600  136.7860 C   0  0  0  0  0  0  0  0  0  0  0  0
  191.2010  173.7580  137.4170 O   0  0  0  0  0  1  0  0  0  0  0  0
  1 13  1  0  0  0  0
  1  5  2  0  0  0  0
  2  8  2  0  0  0  0
  2  6  1  0  0  0  0
  3 12  1  0  0  0  0
  3  8  1  0  0  0  0
  4 15  2  0  0  0  0
  4 18  1  0  0  0  0
  6 11  2  0  0  0  0
  7 18  1  0  0  0  0
  8  1  1  0  0  0  0
  9  7  1  0  0  0  0
 10  4  1  0  0  0  0
 11  5  1  0  0  0  0
 12 19  1  0  0  0  0
 14  2  1  0  0  0  0
 15 16  1  0  0  0  0
 16 22  1  0  0  0  0
 16 12  2  0  0  0  0
 17 27  1  6  0  0  0
 17 10  1  0  0  0  0
 17  9  1  0  0  0  0
 18  3  2  0  0  0  0
 19 13  2  0  0  0  0
 20 26  1  0  0  0  0
 21 20  2  0  0  0  0
 22 24  2  0  0  0  0
 23 21  1  0  0  0  0
 24 20  1  0  0  0  0
 25 23  2  0  0  0  0
 25 22  1  0  0  0  0
 27 28  1  0  0  0  0
 30 29  1  6  0  0  0
 30 28  1  0  0  0  0
 31 33  1  0  0  0  0
 31 30  1  0  0  0  0
 32 33  2  0  0  0  0
 33 34  1  0  0  0  0
M  END
>  <MODEL>
8

>  <REMARK>
 VINA RESULT:      -9.9      2.191      2.708
  Name = 
  6 active torsions:
  status: ('A' for Active; 'I' for Inactive)
    1  A    between atoms: N_3  and  C_13
    2  A    between atoms: N_3  and  C_29
    3  A    between atoms: C_12  and  C_28
    4  A    between atoms: C_13  and  C_33
    5  A    between atoms: C_20  and  C_22
    6  A    between atoms: C_22  and  C_33
                            x       y       z     vdW  Elec       q    Type
                         _______ _______ _______ _____ _____    ______ ____

>  <TORSDO>
F 6

$$$$
=
 OpenBabel10272400113D

 34 38  0  0  1  0  0  0  0  0999 V2000
  185.6480  177.9710  143.0350 C   0  0  0  0  0  0  0  0  0  0  0  0
  186.1100  178.7890  140.7980 C   0  0  0  0  0  0  0  0  0  0  0  0
  187.9410  177.7420  142.1820 C   0  0  0  0  0  0  0  0  0  0  0  0
  190.2180  177.2540  141.4450 C   0  0  0  0  0  0  0  0  0  0  0  0
  184.2900  178.2380  142.8490 C   0  0  0  0  0  3  0  0  0  0  0  0
  184.7490  179.0600  140.6330 C   0  0  0  0  0  3  0  0  0  0  0  0
  188.3850  177.1350  139.7410 C   0  0  0  0  0  2  0  0  0  0  0  0
  186.5780  178.1420  141.9750 C   0  0  0  0  0  0  0  0  0  0  0  0
  189.4400  177.3830  138.6740 C   0  0  0  0  0  2  0  0  0  0  0  0
  191.2730  177.1400  140.3790 C   0  0  0  0  0  2  0  0  0  0  0  0
  183.8360  178.7580  141.6400 C   0  0  0  0  0  3  0  0  0  0  0  0
  188.3760  177.4940  143.5170 C   0  0  0  0  0  0  0  0  0  0  0  0
  186.0790  177.5920  144.3000 C   0  0  0  0  0  3  0  0  0  0  0  0
  186.9570  179.3110  139.8780 F   0  0  0  0  0  0  0  0  0  0  0  0
  190.6120  177.1850  142.7380 N   0  0  0  0  0  0  0  0  0  0  0  0
  189.7500  177.2730  143.7810 C   0  0  0  0  0  0  0  0  0  0  0  0
  190.7100  176.6300  139.0520 C   0  0  2  0  0  3  0  0  0  0  0  0
  188.8630  177.4970  141.1280 C   0  0  0  0  0  0  0  0  0  0  0  0
  187.4300  177.3900  144.5430 C   0  0  0  0  0  3  0  0  0  0  0  0
  190.1020  177.5170  147.5440 C   0  0  0  0  0  0  0  0  0  0  0  0
  191.2800  176.8010  147.7700 C   0  0  0  0  0  3  0  0  0  0  0  0
  190.3100  177.1250  145.1510 C   0  0  0  0  0  0  0  0  0  0  0  0
  191.9710  176.2380  146.6940 C   0  0  0  0  0  3  0  0  0  0  0  0
  189.6180  177.6730  146.2420 C   0  0  0  0  0  3  0  0  0  0  0  0
  191.4850  176.3950  145.3940 C   0  0  0  0  0  3  0  0  0  0  0  0
  189.3940  178.0850  148.6380 N   0  0  0  0  0  1  0  0  0  0  0  0
  191.7100  176.6720  137.9830 N   0  0  0  0  0  2  0  0  0  0  0  0
  192.2750  175.3450  137.7480 C   0  0  0  0  0  2  0  0  0  0  0  0
  194.2440  176.4010  136.9040 O   0  0  0  0  0  1  0  0  0  0  0  0
  193.7940  175.4120  137.7790 C   0  0  2  0  0  3  0  0  0  0  0  0
  194.4360  174.0640  137.4430 C   0  0  0  0  0  2  0  0  0  0  0  0
  195.8550  174.3640  139.4770 O   0  0  0  0  0  1  0  0  0  0  0  0
  195.2320  173.5070  138.5800 C   0  0  0  0  0  0  0  0  0  0  0  0
  195.3170  172.2620  138.7400 O   0  0  0  0  0  0  0  0  0  0  0  0
  1 13  1  0  0  0  0
  2  8  1  0  0  0  0
  3 12  1  0  0  0  0
  4 15  2  0  0  0  0
  5  1  1  0  0  0  0
  6  2  2  0  0  0  0
  6 11  1  0  0  0  0
  7 18  1  0  0  0  0
  8  3  1  0  0  0  0
  8  1  2  0  0  0  0
  9 17  1  0  0  0  0
  9  7  1  0  0  0  0
 10  4  1  0  0  0  0
 11  5  2  0  0  0  0
 12 16  2  0  0  0  0
 12 19  1  0  0  0  0
 13 19  2  0  0  0  0
 14  2  1  0  0  0  0
 15 16  1  0  0  0  0
 16 22  1  0  0  0  0
 17 27  1  6  0  0  0
 17 10  1  0  0  0  0
 18  4  1  0  0  0  0
 18  3  2  0  0  0  0
 20 21  1  0  0  0  0
 20 26  1  0  0  0  0
 22 25  2  0  0  0  0
 22 24  1  0  0  0  0
 23 21  2  0  0  0  0
 24 20  2  0  0  0  0
 25 23  1  0  0  0  0
 28 30  1  0  0  0  0
 28 27  1  0  0  0  0
 30 29  1  6  0  0  0
 31 30  1  0  0  0  0
 31 33  1  0  0  0  0
 33 34  2  0  0  0  0
 33 32  1  0  0  0  0
M  END
>  <MODEL>
9

>  <REMARK>
 VINA RESULT:      -9.5      3.648      6.455
  Name = 
  6 active torsions:
  status: ('A' for Active; 'I' for Inactive)
    1  A    between atoms: N_3  and  C_13
    2  A    between atoms: N_3  and  C_29
    3  A    between atoms: C_12  and  C_28
    4  A    between atoms: C_13  and  C_33
    5  A    between atoms: C_20  and  C_22
    6  A    between atoms: C_22  and  C_33
                            x       y       z     vdW  Elec       q    Type
                         _______ _______ _______ _____ _____    ______ ____

>  <TORSDO>
F 6

$$$$
