=
 OpenBabel10272413563D

 30 38  0  0  1  0  0  0  0  0999 V2000
  188.3570  177.7950  139.2550 C   0  0  0  0  0  0  0  0  0  0  0  0
  189.5010  175.9390  137.9800 C   0  0  0  0  0  0  0  0  0  0  0  0
  191.8350  177.3260  141.7380 C   0  0  0  0  0  2  0  0  0  0  0  0
  188.3060  177.8860  140.6720 C   0  0  0  0  0  0  0  0  0  0  0  0
  187.2340  178.1390  138.4820 C   0  0  0  0  0  3  0  0  0  0  0  0
  184.4800  179.1800  140.9460 S   0  0  0  0  0  0  0  0  0  0  0  0
  187.4060  177.0800  143.3250 C   0  0  1  0  0  0  0  0  0  0  0  0
  186.0050  178.6250  140.5000 C   0  0  0  0  0  0  0  0  0  0  0  0
  184.9340  178.9150  138.4630 N   0  0  0  0  0  0  0  0  0  0  0  0
  188.8370  177.2810  143.8280 C   0  0  2  0  0  3  0  0  0  0  0  0
  191.2160  177.6410  143.0910 C   0  0  1  0  0  3  0  0  0  0  0  0
  186.0660  178.5500  139.1180 C   0  0  0  0  0  0  0  0  0  0  0  0
  187.0960  178.2940  141.3050 C   0  0  0  0  0  0  0  0  0  0  0  0
  190.5330  175.1470  137.9190 N   0  0  0  0  0  0  0  0  0  0  0  0
  188.7750  177.9350  145.1910 C   0  0  0  0  0  2  0  0  0  0  0  0
  186.6710  176.8050  144.6250 C   0  0  1  0  0  3  0  0  0  0  0  0
  182.6190  179.7380  138.9150 C   0  0  0  0  0  1  0  0  0  0  0  0
  188.3090  175.5510  137.3050 N   0  0  0  0  0  1  0  0  0  0  0  0
  190.6740  176.9850  140.8190 C   0  0  1  0  0  3  0  0  0  0  0  0
  192.0760  176.9100  138.7100 C   0  0  0  0  0  2  0  0  0  0  0  0
  183.9690  179.2850  139.3370 C   0  0  0  0  0  0  0  0  0  0  0  0
  189.6140  177.3420  138.5500 C   0  0  2  0  0  3  0  0  0  0  0  0
  189.4990  177.5720  141.4410 N   0  0  0  0  0  0  0  0  0  0  0  0
  191.9340  178.8160  143.7220 C   0  0  0  0  0  1  0  0  0  0  0  0
  189.7650  178.0000  142.8190 C   0  0  1  0  0  3  0  0  0  0  0  0
  187.4270  177.5190  145.7460 C   0  0  0  0  0  2  0  0  0  0  0  0
  186.0740  177.7940  143.6600 C   0  0  1  0  0  3  0  0  0  0  0  0
  191.8310  175.4140  138.5390 C   0  0  0  0  0  2  0  0  0  0  0  0
  190.8780  177.5510  139.4080 C   0  0  1  0  0  3  0  0  0  0  0  0
  187.0760  178.4780  142.7850 C   0  0  1  0  0  3  0  0  0  0  0  0
  1  4  1  0  0  0  0
  2 22  1  0  0  0  0
  3 11  1  0  0  0  0
  4 13  2  0  0  0  0
  4 23  1  0  0  0  0
  5 12  1  0  0  0  0
  5  1  2  0  0  0  0
  7 27  1  0  0  0  0
  7 10  1  0  0  0  0
  7 16  1  0  0  0  0
  8  6  1  0  0  0  0
  8 13  1  0  0  0  0
  9 12  1  0  0  0  0
  9 21  2  0  0  0  0
 10 15  1  0  0  0  0
 11 24  1  0  0  0  0
 12  8  2  0  0  0  0
 13 30  1  0  0  0  0
 14  2  2  0  0  0  0
 14 28  1  0  0  0  0
 15 26  1  0  0  0  0
 16 26  1  0  0  0  0
 17 21  1  0  0  0  0
 18  2  1  0  0  0  0
 19 23  1  0  0  0  0
 19  3  1  0  0  0  0
 20 29  1  0  0  0  0
 21  6  1  0  0  0  0
 22  1  1  0  0  0  0
 22 29  1  0  0  0  0
 23 25  1  0  0  0  0
 25 11  1  0  0  0  0
 25 10  1  0  0  0  0
 27 16  1  0  0  0  0
 28 20  1  0  0  0  0
 29 19  1  0  0  0  0
 30  7  1  0  0  0  0
 30 27  1  0  0  0  0
M  END
>  <MODEL>
1

>  <REMARK>
 VINA RESULT:      -9.9      0.000      0.000
  Name = 
  0 active torsions:
  status: ('A' for Active; 'I' for Inactive)
                            x       y       z     vdW  Elec       q    Type
                         _______ _______ _______ _____ _____    ______ ____

>  <TORSDO>
F 0

$$$$
=
 OpenBabel10272413563D

 30 38  0  0  1  0  0  0  0  0999 V2000
  186.0660  178.6120  141.8880 C   0  0  0  0  0  0  0  0  0  0  0  0
  186.7420  177.5910  144.0970 C   0  0  0  0  0  0  0  0  0  0  0  0
  182.3370  179.0350  143.9860 C   0  0  0  0  0  2  0  0  0  0  0  0
  184.8060  178.4160  141.2610 C   0  0  0  0  0  0  0  0  0  0  0  0
  187.2430  178.6460  141.1190 C   0  0  0  0  0  3  0  0  0  0  0  0
  186.1850  178.1040  137.4680 S   0  0  0  0  0  0  0  0  0  0  0  0
  182.7980  176.8570  139.8340 C   0  0  1  0  0  0  0  0  0  0  0  0
  185.9400  178.2550  139.1260 C   0  0  0  0  0  0  0  0  0  0  0  0
  188.2370  178.4910  138.9100 N   0  0  0  0  0  0  0  0  0  0  0  0
  181.7290  177.4840  140.7340 C   0  0  2  0  0  3  0  0  0  0  0  0
  181.3770  178.8400  142.8240 C   0  0  1  0  0  3  0  0  0  0  0  0
  187.1630  178.4640  139.7410 C   0  0  0  0  0  0  0  0  0  0  0  0
  184.7480  178.2150  139.8520 C   0  0  0  0  0  0  0  0  0  0  0  0
  186.3610  177.2700  145.3000 N   0  0  0  0  0  0  0  0  0  0  0  0
  180.5200  177.8040  139.8830 C   0  0  0  0  0  2  0  0  0  0  0  0
  181.9380  176.0910  138.8440 C   0  0  1  0  0  3  0  0  0  0  0  0
  188.8120  178.2870  136.4870 C   0  0  0  0  0  1  0  0  0  0  0  0
  187.8640  176.9160  143.5380 N   0  0  0  0  0  1  0  0  0  0  0  0
  183.6660  178.4580  143.5290 C   0  0  1  0  0  3  0  0  0  0  0  0
  184.9750  179.3050  145.5270 C   0  0  0  0  0  2  0  0  0  0  0  0
  187.8560  178.3040  137.6250 C   0  0  0  0  0  0  0  0  0  0  0  0
  186.1680  178.8030  143.3830 C   0  0  2  0  0  3  0  0  0  0  0  0
  183.6030  178.4360  142.0770 N   0  0  0  0  0  0  0  0  0  0  0  0
  180.4910  180.0600  142.6800 C   0  0  0  0  0  1  0  0  0  0  0  0
  182.2400  178.6710  141.5860 C   0  0  1  0  0  3  0  0  0  0  0  0
  180.5970  176.8170  138.7350 C   0  0  0  0  0  2  0  0  0  0  0  0
  183.0600  176.9440  138.3110 C   0  0  1  0  0  3  0  0  0  0  0  0
  185.2440  177.8860  146.0170 C   0  0  0  0  0  2  0  0  0  0  0  0
  184.8510  179.3090  144.0040 C   0  0  1  0  0  3  0  0  0  0  0  0
  183.4170  178.1020  139.1870 C   0  0  1  0  0  3  0  0  0  0  0  0
  1 22  1  0  0  0  0
  2 14  2  0  0  0  0
  4  1  1  0  0  0  0
  4 23  1  0  0  0  0
  5  1  2  0  0  0  0
  6 21  1  0  0  0  0
  6  8  1  0  0  0  0
  7 10  1  0  0  0  0
  8 12  2  0  0  0  0
  8 13  1  0  0  0  0
  9 12  1  0  0  0  0
 10 25  1  0  0  0  0
 11  3  1  0  0  0  0
 12  5  1  0  0  0  0
 13  4  2  0  0  0  0
 14 28  1  0  0  0  0
 15 10  1  0  0  0  0
 16  7  1  0  0  0  0
 17 21  1  0  0  0  0
 18  2  1  0  0  0  0
 19  3  1  0  0  0  0
 19 29  1  0  0  0  0
 20 28  1  0  0  0  0
 21  9  2  0  0  0  0
 22 29  1  0  0  0  0
 22  2  1  0  0  0  0
 23 19  1  0  0  0  0
 24 11  1  0  0  0  0
 25 23  1  0  0  0  0
 25 11  1  0  0  0  0
 26 16  1  0  0  0  0
 26 15  1  0  0  0  0
 27 16  1  0  0  0  0
 27 30  1  0  0  0  0
 27  7  1  0  0  0  0
 29 20  1  0  0  0  0
 30  7  1  0  0  0  0
 30 13  1  0  0  0  0
M  END
>  <MODEL>
2

>  <REMARK>
 VINA RESULT:      -8.4      2.917      7.068
  Name = 
  0 active torsions:
  status: ('A' for Active; 'I' for Inactive)
                            x       y       z     vdW  Elec       q    Type
                         _______ _______ _______ _____ _____    ______ ____

>  <TORSDO>
F 0

$$$$
=
 OpenBabel10272413563D

 30 38  0  0  1  0  0  0  0  0999 V2000
  186.1580  177.9440  145.3700 C   0  0  0  0  0  0  0  0  0  0  0  0
  187.0310  179.0780  147.4520 C   0  0  0  0  0  0  0  0  0  0  0  0
  190.2050  176.4960  145.2700 C   0  0  0  0  0  2  0  0  0  0  0  0
  186.8920  177.8010  144.1620 C   0  0  0  0  0  0  0  0  0  0  0  0
  184.7840  178.2420  145.3340 C   0  0  0  0  0  3  0  0  0  0  0  0
  183.8200  178.5310  141.6290 S   0  0  0  0  0  0  0  0  0  0  0  0
  188.1280  178.7780  141.7100 C   0  0  1  0  0  0  0  0  0  0  0  0
  184.8690  178.2950  142.9230 C   0  0  0  0  0  0  0  0  0  0  0  0
  182.8330  178.6930  143.9610 N   0  0  0  0  0  0  0  0  0  0  0  0
  189.3280  177.8730  142.0000 C   0  0  2  0  0  3  0  0  0  0  0  0
  190.4090  176.4410  143.7640 C   0  0  1  0  0  3  0  0  0  0  0  0
  184.1550  178.4160  144.1040 C   0  0  0  0  0  0  0  0  0  0  0  0
  186.2330  177.9990  142.9140 C   0  0  0  0  0  0  0  0  0  0  0  0
  188.0590  179.2660  148.2290 N   0  0  0  0  0  0  0  0  0  0  0  0
  189.7790  177.2490  140.6980 C   0  0  0  0  0  2  0  0  0  0  0  0
  188.4780  179.2970  140.3260 C   0  0  1  0  0  3  0  0  0  0  0  0
  181.1210  179.0810  142.1840 C   0  0  0  0  0  1  0  0  0  0  0  0
  185.9820  180.0400  147.4710 N   0  0  0  0  0  1  0  0  0  0  0  0
  189.0180  177.4180  145.4950 C   0  0  1  0  0  3  0  0  0  0  0  0
  188.8230  176.9280  147.9730 C   0  0  0  0  0  2  0  0  0  0  0  0
  182.5000  178.7880  142.6530 C   0  0  0  0  0  0  0  0  0  0  0  0
  186.8280  177.7660  146.7130 C   0  0  2  0  0  3  0  0  0  0  0  0
  188.3000  177.4430  144.2320 N   0  0  0  0  0  0  0  0  0  0  0  0
  190.7620  175.0280  143.3460 C   0  0  0  0  0  1  0  0  0  0  0  0
  189.0870  176.8550  143.1420 C   0  0  1  0  0  3  0  0  0  0  0  0
  189.3360  178.2370  139.6360 C   0  0  0  0  0  2  0  0  0  0  0  0
  187.0820  178.7880  140.5700 C   0  0  1  0  0  3  0  0  0  0  0  0
  189.2030  178.3600  148.3380 C   0  0  0  0  0  2  0  0  0  0  0  0
  188.1090  176.9130  146.6230 C   0  0  1  0  0  3  0  0  0  0  0  0
  186.9850  177.7580  141.6490 C   0  0  1  0  0  3  0  0  0  0  0  0
  1 22  1  0  0  0  0
  2 18  1  0  0  0  0
  2 14  2  0  0  0  0
  3 19  1  0  0  0  0
  4 23  1  0  0  0  0
  4  1  2  0  0  0  0
  5  1  1  0  0  0  0
  6 21  1  0  0  0  0
  6  8  1  0  0  0  0
  7 10  1  0  0  0  0
  8 12  1  0  0  0  0
  9 12  1  0  0  0  0
 10 25  1  0  0  0  0
 11  3  1  0  0  0  0
 12  5  2  0  0  0  0
 13  8  2  0  0  0  0
 13  4  1  0  0  0  0
 14 28  1  0  0  0  0
 15 10  1  0  0  0  0
 16 27  1  0  0  0  0
 16  7  1  0  0  0  0
 17 21  1  0  0  0  0
 19 29  1  0  0  0  0
 20 28  1  0  0  0  0
 21  9  2  0  0  0  0
 22  2  1  0  0  0  0
 23 19  1  0  0  0  0
 24 11  1  0  0  0  0
 25 11  1  0  0  0  0
 25 23  1  0  0  0  0
 26 16  1  0  0  0  0
 26 15  1  0  0  0  0
 27 30  1  0  0  0  0
 27  7  1  0  0  0  0
 29 22  1  0  0  0  0
 29 20  1  0  0  0  0
 30  7  1  0  0  0  0
 30 13  1  0  0  0  0
M  END
>  <MODEL>
3

>  <REMARK>
 VINA RESULT:      -8.2      2.849      6.063
  Name = 
  0 active torsions:
  status: ('A' for Active; 'I' for Inactive)
                            x       y       z     vdW  Elec       q    Type
                         _______ _______ _______ _____ _____    ______ ____

>  <TORSDO>
F 0

$$$$
=
 OpenBabel10272413563D

 30 38  0  0  1  0  0  0  0  0999 V2000
  187.9280  177.2570  137.8130 C   0  0  0  0  0  0  0  0  0  0  0  0
  188.2740  175.2250  136.3520 C   0  0  0  0  0  0  0  0  0  0  0  0
  192.0620  176.4870  138.7100 C   0  0  0  0  0  2  0  0  0  0  0  0
  188.4730  177.4150  139.1160 C   0  0  0  0  0  0  0  0  0  0  0  0
  186.6230  177.6980  137.5330 C   0  0  0  0  0  3  0  0  0  0  0  0
  185.2320  179.1630  140.7970 S   0  0  0  0  0  0  0  0  0  0  0  0
  188.6740  176.8360  141.9660 C   0  0  1  0  0  0  0  0  0  0  0  0
  186.3820  178.4130  139.8240 C   0  0  0  0  0  0  0  0  0  0  0  0
  184.5990  178.7410  138.3760 N   0  0  0  0  0  0  0  0  0  0  0  0
  190.1980  176.8870  141.8280 C   0  0  2  0  0  3  0  0  0  0  0  0
  192.0850  176.9310  140.1640 C   0  0  1  0  0  3  0  0  0  0  0  0
  185.8630  178.2720  138.5480 C   0  0  0  0  0  0  0  0  0  0  0  0
  187.6730  177.9900  140.1450 C   0  0  0  0  0  0  0  0  0  0  0  0
  189.1130  174.3150  135.9500 N   0  0  0  0  0  0  0  0  0  0  0  0
  190.7610  177.6020  143.0370 C   0  0  0  0  0  2  0  0  0  0  0  0
  188.5180  176.7060  143.4710 C   0  0  1  0  0  3  0  0  0  0  0  0
  182.7600  179.8510  139.6520 C   0  0  0  0  0  1  0  0  0  0  0  0
  186.8800  174.9540  136.2540 N   0  0  0  0  0  1  0  0  0  0  0  0
  190.6000  176.2460  138.3730 C   0  0  1  0  0  3  0  0  0  0  0  0
  190.9970  175.9150  135.8920 C   0  0  0  0  0  2  0  0  0  0  0  0
  184.1180  179.2600  139.5300 C   0  0  0  0  0  0  0  0  0  0  0  0
  188.7380  176.6290  136.7030 C   0  0  2  0  0  3  0  0  0  0  0  0
  189.8430  176.9950  139.3620 N   0  0  0  0  0  0  0  0  0  0  0  0
  193.1030  178.0380  140.3460 C   0  0  0  0  0  1  0  0  0  0  0  0
  190.6900  177.4470  140.4710 C   0  0  1  0  0  3  0  0  0  0  0  0
  189.7290  177.3720  144.1230 C   0  0  0  0  0  2  0  0  0  0  0  0
  187.6690  177.7170  142.7460 C   0  0  1  0  0  3  0  0  0  0  0  0
  190.5700  174.4530  135.9670 C   0  0  0  0  0  2  0  0  0  0  0  0
  190.2560  176.7230  136.9560 C   0  0  1  0  0  3  0  0  0  0  0  0
  188.2800  178.2380  141.4850 C   0  0  1  0  0  3  0  0  0  0  0  0
  1  4  1  0  0  0  0
  2 22  1  0  0  0  0
  3 11  1  0  0  0  0
  4 23  1  0  0  0  0
  4 13  2  0  0  0  0
  5  1  2  0  0  0  0
  5 12  1  0  0  0  0
  7 27  1  0  0  0  0
  7 16  1  0  0  0  0
  8 13  1  0  0  0  0
  8  6  1  0  0  0  0
  9 12  1  0  0  0  0
  9 21  2  0  0  0  0
 10  7  1  0  0  0  0
 10 15  1  0  0  0  0
 11 24  1  0  0  0  0
 11 25  1  0  0  0  0
 12  8  2  0  0  0  0
 13 30  1  0  0  0  0
 14 28  1  0  0  0  0
 14  2  2  0  0  0  0
 15 26  1  0  0  0  0
 16 26  1  0  0  0  0
 18  2  1  0  0  0  0
 19  3  1  0  0  0  0
 19 23  1  0  0  0  0
 20 28  1  0  0  0  0
 20 29  1  0  0  0  0
 21 17  1  0  0  0  0
 21  6  1  0  0  0  0
 22 29  1  0  0  0  0
 22  1  1  0  0  0  0
 23 25  1  0  0  0  0
 25 10  1  0  0  0  0
 27 16  1  0  0  0  0
 29 19  1  0  0  0  0
 30  7  1  0  0  0  0
 30 27  1  0  0  0  0
M  END
>  <MODEL>
4

>  <REMARK>
 VINA RESULT:      -7.4      1.389      2.201
  Name = 
  0 active torsions:
  status: ('A' for Active; 'I' for Inactive)
                            x       y       z     vdW  Elec       q    Type
                         _______ _______ _______ _____ _____    ______ ____

>  <TORSDO>
F 0

$$$$
=
 OpenBabel10272413563D

 30 38  0  0  1  0  0  0  0  0999 V2000
  187.5240  178.2280  140.7060 C   0  0  0  0  0  0  0  0  0  0  0  0
  186.8920  177.6120  143.0730 C   0  0  0  0  0  0  0  0  0  0  0  0
  183.4010  179.4440  140.6340 C   0  0  0  0  0  2  0  0  0  0  0  0
  186.6870  178.0380  139.5740 C   0  0  0  0  0  0  0  0  0  0  0  0
  188.9060  177.9860  140.6160 C   0  0  0  0  0  3  0  0  0  0  0  0
  189.5850  176.8260  137.0190 S   0  0  0  0  0  0  0  0  0  0  0  0
  185.3200  176.4350  137.5590 C   0  0  1  0  0  0  0  0  0  0  0  0
  188.6300  177.3340  138.3090 C   0  0  0  0  0  0  0  0  0  0  0  0
  190.7640  177.2870  139.2190 N   0  0  0  0  0  0  0  0  0  0  0  0
  184.0950  177.3360  137.7300 C   0  0  2  0  0  3  0  0  0  0  0  0
  183.0730  179.1160  139.1860 C   0  0  1  0  0  3  0  0  0  0  0  0
  189.4430  177.5370  139.4120 C   0  0  0  0  0  0  0  0  0  0  0  0
  187.2550  177.5630  138.3560 C   0  0  0  0  0  0  0  0  0  0  0  0
  185.9440  177.5820  143.9650 N   0  0  0  0  0  0  0  0  0  0  0  0
  183.5020  177.5990  136.3630 C   0  0  0  0  0  2  0  0  0  0  0  0
  184.8920  175.5760  136.3820 C   0  0  1  0  0  3  0  0  0  0  0  0
  192.3480  176.5380  137.4380 C   0  0  0  0  0  1  0  0  0  0  0  0
  187.9970  176.7270  143.2280 N   0  0  0  0  0  1  0  0  0  0  0  0
  184.6560  178.6550  140.9650 C   0  0  1  0  0  3  0  0  0  0  0  0
  185.0190  179.7510  143.2200 C   0  0  0  0  0  2  0  0  0  0  0  0
  190.9960  176.8830  137.9480 C   0  0  0  0  0  0  0  0  0  0  0  0
  186.9540  178.7070  142.0210 C   0  0  2  0  0  3  0  0  0  0  0  0
  185.2700  178.3460  139.6850 N   0  0  0  0  0  0  0  0  0  0  0  0
  182.6010  180.3660  138.4710 C   0  0  0  0  0  1  0  0  0  0  0  0
  184.3630  178.6140  138.5630 C   0  0  1  0  0  3  0  0  0  0  0  0
  183.9180  176.3970  135.5370 C   0  0  0  0  0  2  0  0  0  0  0  0
  186.2700  176.1850  136.3630 C   0  0  1  0  0  3  0  0  0  0  0  0
  184.7590  178.4400  143.9560 C   0  0  0  0  0  2  0  0  0  0  0  0
  185.6200  179.4590  141.8460 C   0  0  1  0  0  3  0  0  0  0  0  0
  186.3900  177.4540  137.1450 C   0  0  1  0  0  3  0  0  0  0  0  0
  1 22  1  0  0  0  0
  2 18  1  0  0  0  0
  2 14  2  0  0  0  0
  3 19  1  0  0  0  0
  4 23  1  0  0  0  0
  4  1  2  0  0  0  0
  5  1  1  0  0  0  0
  6 21  1  0  0  0  0
  6  8  1  0  0  0  0
  7 10  1  0  0  0  0
  8 13  2  0  0  0  0
  8 12  1  0  0  0  0
  9 12  1  0  0  0  0
 10 25  1  0  0  0  0
 11  3  1  0  0  0  0
 12  5  2  0  0  0  0
 13  4  1  0  0  0  0
 15 10  1  0  0  0  0
 16  7  1  0  0  0  0
 17 21  1  0  0  0  0
 19 29  1  0  0  0  0
 20 28  1  0  0  0  0
 21  9  2  0  0  0  0
 22  2  1  0  0  0  0
 23 19  1  0  0  0  0
 24 11  1  0  0  0  0
 25 11  1  0  0  0  0
 25 23  1  0  0  0  0
 26 15  1  0  0  0  0
 26 16  1  0  0  0  0
 27 16  1  0  0  0  0
 27 30  1  0  0  0  0
 27  7  1  0  0  0  0
 28 14  1  0  0  0  0
 29 22  1  0  0  0  0
 29 20  1  0  0  0  0
 30  7  1  0  0  0  0
 30 13  1  0  0  0  0
M  END
>  <MODEL>
5

>  <REMARK>
 VINA RESULT:      -7.0      2.464      7.135
  Name = 
  0 active torsions:
  status: ('A' for Active; 'I' for Inactive)
                            x       y       z     vdW  Elec       q    Type
                         _______ _______ _______ _____ _____    ______ ____

>  <TORSDO>
F 0

$$$$
