=
 OpenBabel10272415123D

 34 37  0  0  1  0  0  0  0  0999 V2000
  185.2230  178.8590  142.8290 C   0  0  1  0  0  3  0  0  0  0  0  0
  183.6500  178.9630  145.5320 N   0  0  0  0  0  1  0  0  0  0  0  0
  183.1670  178.8280  140.6200 C   0  0  0  0  0  2  0  0  0  0  0  0
  185.5480  179.2560  141.3840 C   0  0  0  0  0  2  0  0  0  0  0  0
  182.8480  178.7960  142.0440 N   0  0  0  0  0  0  0  0  0  0  0  0
  181.6120  178.7880  142.5820 C   0  0  0  0  0  3  0  0  0  0  0  0
  184.6510  178.5090  140.3880 C   0  0  2  0  0  3  0  0  0  0  0  0
  183.0630  178.9000  144.2370 C   0  0  0  0  0  0  0  0  0  0  0  0
  183.7380  178.8900  143.0440 C   0  0  0  0  0  0  0  0  0  0  0  0
  181.7070  178.8450  143.9710 C   0  0  0  0  0  3  0  0  0  0  0  0
  185.0700  178.7600  138.9380 C   0  0  0  0  0  2  0  0  0  0  0  0
  187.4810  176.5330  137.0240 C   0  0  0  0  0  3  0  0  0  0  0  0
  187.4700  178.1360  139.3260 C   0  0  0  0  0  3  0  0  0  0  0  0
  190.9070  176.0410  138.1960 C   0  0  0  0  0  0  0  0  0  0  0  0
  189.7630  175.9650  137.4570 N   0  0  0  0  0  0  0  0  0  0  0  0
  188.6360  176.6390  137.8050 C   0  0  0  0  0  0  0  0  0  0  0  0
  189.7850  177.5440  139.7310 C   0  0  0  0  0  3  0  0  0  0  0  0
  188.6270  177.4460  138.9620 C   0  0  0  0  0  0  0  0  0  0  0  0
  190.9300  176.8420  139.3500 C   0  0  0  0  0  3  0  0  0  0  0  0
  186.3140  178.0280  138.5410 C   0  0  0  0  0  0  0  0  0  0  0  0
  186.3230  177.2260  137.3920 C   0  0  0  0  0  3  0  0  0  0  0  0
  192.0750  175.3040  137.7930 N   0  0  0  0  0  0  0  0  0  0  0  0
  191.9680  173.9970  137.1620 C   0  0  0  0  0  1  0  0  0  0  0  0
  193.4060  175.8440  138.0220 C   0  0  0  0  0  1  0  0  0  0  0  0
  185.7080  177.5730  143.0840 O   0  0  0  0  0  0  0  0  0  0  0  0
  186.9760  177.7690  143.6320 C   0  0  0  0  0  2  0  0  0  0  0  0
  187.9550  176.7990  142.9990 C   0  0  0  0  0  2  0  0  0  0  0  0
  189.2320  176.7170  143.8210 C   0  0  0  0  0  2  0  0  0  0  0  0
  189.5350  178.0430  144.5070 C   0  0  2  0  0  3  0  0  0  0  0  0
  190.7280  178.7320  143.8660 C   0  0  0  0  0  1  0  0  0  0  0  0
  189.7840  177.8330  145.9950 C   0  0  0  0  0  2  0  0  0  0  0  0
  188.9070  176.8800  146.5220 O   0  0  0  0  0  0  0  0  0  0  0  0
  188.5040  178.0170  148.5680 C   0  0  0  0  0  1  0  0  0  0  0  0
  187.9510  177.6230  147.2150 C   0  0  0  0  0  2  0  0  0  0  0  0
  1  9  1  0  0  0  0
  1 25  1  6  0  0  0
  3  5  1  0  0  0  0
  4  1  1  0  0  0  0
  5  6  1  0  0  0  0
  5  9  1  0  0  0  0
  6 10  2  0  0  0  0
  7 11  1  6  0  0  0
  7  3  1  0  0  0  0
  7  4  1  0  0  0  0
  8  2  1  0  0  0  0
  9  8  2  0  0  0  0
 10  8  1  0  0  0  0
 12 21  2  0  0  0  0
 12 16  1  0  0  0  0
 14 19  1  0  0  0  0
 15 16  1  0  0  0  0
 15 14  2  0  0  0  0
 16 18  2  0  0  0  0
 18 13  1  0  0  0  0
 18 17  1  0  0  0  0
 19 17  2  0  0  0  0
 20 11  1  0  0  0  0
 20 13  2  0  0  0  0
 21 20  1  0  0  0  0
 22 24  1  0  0  0  0
 22 14  1  0  0  0  0
 23 22  1  0  0  0  0
 25 26  1  0  0  0  0
 27 26  1  0  0  0  0
 27 28  1  0  0  0  0
 28 29  1  0  0  0  0
 29 30  1  6  0  0  0
 29 31  1  0  0  0  0
 31 32  1  0  0  0  0
 32 34  1  0  0  0  0
 34 33  1  0  0  0  0
M  END
>  <MODEL>
1

>  <REMARK>
 VINA RESULT:      -7.8      0.000      0.000
  Name = 
  11 active torsions:
  status: ('A' for Active; 'I' for Inactive)
    1  A    between atoms: C_1  and  O_34
    2  A    between atoms: C_2  and  C_23
    3  A    between atoms: C_2  and  C_32
    4  A    between atoms: O_3  and  C_24
    5  A    between atoms: O_3  and  C_27
    6  A    between atoms: C_7  and  N_11
    7  A    between atoms: C_17  and  C_18
    8  A    between atoms: C_18  and  C_30
    9  A    between atoms: C_23  and  C_25
   10  A    between atoms: C_25  and  C_27
   11  A    between atoms: C_32  and  O_34
                            x       y       z     vdW  Elec       q    Type
                         _______ _______ _______ _____ _____    ______ ____

>  <TORSDO>
F 11

$$$$
=
 OpenBabel10272415123D

 34 37  0  0  1  0  0  0  0  0999 V2000
  184.2700  178.4090  141.3850 C   0  0  1  0  0  3  0  0  0  0  0  0
  183.1360  178.3920  138.4700 N   0  0  0  0  0  1  0  0  0  0  0  0
  181.9880  179.1660  143.2100 C   0  0  0  0  0  2  0  0  0  0  0  0
  184.2700  178.1030  142.8880 C   0  0  0  0  0  2  0  0  0  0  0  0
  181.9000  179.1200  141.7530 N   0  0  0  0  0  0  0  0  0  0  0  0
  180.7990  179.3640  141.0150 C   0  0  0  0  0  3  0  0  0  0  0  0
  183.4550  179.1460  143.6660 C   0  0  2  0  0  3  0  0  0  0  0  0
  182.4010  178.7320  139.6400 C   0  0  0  0  0  0  0  0  0  0  0  0
  182.8730  178.7090  140.9260 C   0  0  0  0  0  0  0  0  0  0  0  0
  181.0780  179.1370  139.6690 C   0  0  0  0  0  3  0  0  0  0  0  0
  183.5800  178.9590  145.1790 C   0  0  0  0  0  2  0  0  0  0  0  0
  186.6000  178.2820  147.3820 C   0  0  0  0  0  3  0  0  0  0  0  0
  185.8820  178.0970  144.6770 C   0  0  0  0  0  3  0  0  0  0  0  0
  189.7170  177.0210  145.9500 C   0  0  0  0  0  0  0  0  0  0  0  0
  188.7820  177.4700  146.8370 N   0  0  0  0  0  0  0  0  0  0  0  0
  187.5300  177.8230  146.4440 C   0  0  0  0  0  0  0  0  0  0  0  0
  188.1020  177.2700  144.1610 C   0  0  0  0  0  3  0  0  0  0  0  0
  187.1660  177.7300  145.0850 C   0  0  0  0  0  0  0  0  0  0  0  0
  189.3800  176.9130  144.5910 C   0  0  0  0  0  3  0  0  0  0  0  0
  184.9530  178.5560  145.6190 C   0  0  0  0  0  0  0  0  0  0  0  0
  185.3140  178.6480  146.9700 C   0  0  0  0  0  3  0  0  0  0  0  0
  191.0320  176.6650  146.4100 N   0  0  0  0  0  0  0  0  0  0  0  0
  191.9630  175.9360  145.5600 C   0  0  0  0  0  1  0  0  0  0  0  0
  191.4650  177.0130  147.7540 C   0  0  0  0  0  1  0  0  0  0  0  0
  185.0960  179.5060  141.1290 O   0  0  0  0  0  0  0  0  0  0  0  0
  186.3910  179.0480  141.3730 C   0  0  0  0  0  2  0  0  0  0  0  0
  186.9600  178.4410  140.1050 C   0  0  0  0  0  2  0  0  0  0  0  0
  188.4060  178.0210  140.3170 C   0  0  0  0  0  2  0  0  0  0  0  0
  189.2510  178.3000  139.0810 C   0  0  2  0  0  3  0  0  0  0  0  0
  188.3780  178.5360  137.8600 C   0  0  0  0  0  1  0  0  0  0  0  0
  190.2220  177.1540  138.8230 C   0  0  0  0  0  2  0  0  0  0  0  0
  190.6370  176.5680  140.0220 O   0  0  0  0  0  0  0  0  0  0  0  0
  191.7600  177.5430  141.8740 C   0  0  0  0  0  1  0  0  0  0  0  0
  191.7840  177.2740  140.3840 C   0  0  0  0  0  2  0  0  0  0  0  0
  1 25  1  1  0  0  0
  1  4  1  0  0  0  0
  2  8  1  0  0  0  0
  3  7  1  0  0  0  0
  4  7  1  0  0  0  0
  5  3  1  0  0  0  0
  6  5  1  0  0  0  0
  7 11  1  1  0  0  0
  8 10  1  0  0  0  0
  8  9  2  0  0  0  0
  9  1  1  0  0  0  0
  9  5  1  0  0  0  0
 10  6  2  0  0  0  0
 11 20  1  0  0  0  0
 13 18  2  0  0  0  0
 13 20  1  0  0  0  0
 14 22  1  0  0  0  0
 14 15  2  0  0  0  0
 16 15  1  0  0  0  0
 16 12  2  0  0  0  0
 17 19  2  0  0  0  0
 17 18  1  0  0  0  0
 18 16  1  0  0  0  0
 19 14  1  0  0  0  0
 20 21  2  0  0  0  0
 21 12  1  0  0  0  0
 22 24  1  0  0  0  0
 23 22  1  0  0  0  0
 25 26  1  0  0  0  0
 27 28  1  0  0  0  0
 27 26  1  0  0  0  0
 29 30  1  6  0  0  0
 29 28  1  0  0  0  0
 31 29  1  0  0  0  0
 31 32  1  0  0  0  0
 32 34  1  0  0  0  0
 34 33  1  0  0  0  0
M  END
>  <MODEL>
2

>  <REMARK>
 VINA RESULT:      -7.8      2.865      6.330
  Name = 
  11 active torsions:
  status: ('A' for Active; 'I' for Inactive)
    1  A    between atoms: C_1  and  O_34
    2  A    between atoms: C_2  and  C_23
    3  A    between atoms: C_2  and  C_32
    4  A    between atoms: O_3  and  C_24
    5  A    between atoms: O_3  and  C_27
    6  A    between atoms: C_7  and  N_11
    7  A    between atoms: C_17  and  C_18
    8  A    between atoms: C_18  and  C_30
    9  A    between atoms: C_23  and  C_25
   10  A    between atoms: C_25  and  C_27
   11  A    between atoms: C_32  and  O_34
                            x       y       z     vdW  Elec       q    Type
                         _______ _______ _______ _____ _____    ______ ____

>  <TORSDO>
F 11

$$$$
=
 OpenBabel10272415123D

 34 37  0  0  1  0  0  0  0  0999 V2000
  189.0790  177.4690  144.2620 C   0  0  1  0  0  3  0  0  0  0  0  0
  192.0260  176.4190  144.3020 N   0  0  0  0  0  1  0  0  0  0  0  0
  188.1880  177.6870  147.1370 C   0  0  0  0  0  2  0  0  0  0  0  0
  187.9000  178.3450  144.7040 C   0  0  0  0  0  2  0  0  0  0  0  0
  189.4800  177.1580  146.7120 N   0  0  0  0  0  0  0  0  0  0  0  0
  190.4700  176.7320  147.5220 C   0  0  0  0  0  3  0  0  0  0  0  0
  187.2160  177.7660  145.9500 C   0  0  2  0  0  3  0  0  0  0  0  0
  191.2100  176.6330  145.4480 C   0  0  0  0  0  0  0  0  0  0  0  0
  189.9310  177.1260  145.4490 C   0  0  0  0  0  0  0  0  0  0  0  0
  191.5810  176.3830  146.7570 C   0  0  0  0  0  3  0  0  0  0  0  0
  185.9380  178.5270  146.3080 C   0  0  0  0  0  2  0  0  0  0  0  0
  182.6830  178.8680  144.3790 C   0  0  0  0  0  3  0  0  0  0  0  0
  185.4180  178.5360  143.8540 C   0  0  0  0  0  3  0  0  0  0  0  0
  182.6530  178.7690  140.7260 C   0  0  0  0  0  0  0  0  0  0  0  0
  182.2510  178.8530  142.0270 N   0  0  0  0  0  0  0  0  0  0  0  0
  183.1330  178.7810  143.0580 C   0  0  0  0  0  0  0  0  0  0  0  0
  184.9450  178.5320  141.4760 C   0  0  0  0  0  3  0  0  0  0  0  0
  184.5090  178.6150  142.7970 C   0  0  0  0  0  0  0  0  0  0  0  0
  184.0180  178.6100  140.4360 C   0  0  0  0  0  3  0  0  0  0  0  0
  184.9630  178.6230  145.1760 C   0  0  0  0  0  0  0  0  0  0  0  0
  183.5970  178.7880  145.4350 C   0  0  0  0  0  3  0  0  0  0  0  0
  181.6820  178.8430  139.6670 N   0  0  0  0  0  0  0  0  0  0  0  0
  181.8010  179.8200  138.5940 C   0  0  0  0  0  1  0  0  0  0  0  0
  180.5380  177.9460  139.6490 C   0  0  0  0  0  1  0  0  0  0  0  0
  188.5990  176.2960  143.6730 O   0  0  0  0  0  0  0  0  0  0  0  0
  188.1060  176.6930  142.4300 C   0  0  0  0  0  2  0  0  0  0  0  0
  189.2500  177.1950  141.5690 C   0  0  0  0  0  2  0  0  0  0  0  0
  188.7170  177.8670  140.3140 C   0  0  0  0  0  2  0  0  0  0  0  0
  189.3130  177.2460  139.0570 C   0  0  2  0  0  3  0  0  0  0  0  0
  190.7040  176.6950  139.3230 C   0  0  0  0  0  1  0  0  0  0  0  0
  189.3560  178.2630  137.9230 C   0  0  0  0  0  2  0  0  0  0  0  0
  188.1760  179.0100  137.8730 O   0  0  0  0  0  0  0  0  0  0  0  0
  186.0890  177.9770  137.4020 C   0  0  0  0  0  1  0  0  0  0  0  0
  187.4280  178.4230  136.8520 C   0  0  0  0  0  2  0  0  0  0  0  0
  1 25  1  1  0  0  0
  1  4  1  0  0  0  0
  1  9  1  0  0  0  0
  2  8  1  0  0  0  0
  4  7  1  0  0  0  0
  5  3  1  0  0  0  0
  5  6  1  0  0  0  0
  7 11  1  1  0  0  0
  7  3  1  0  0  0  0
  8  9  2  0  0  0  0
  8 10  1  0  0  0  0
  9  5  1  0  0  0  0
 10  6  2  0  0  0  0
 12 21  1  0  0  0  0
 13 20  1  0  0  0  0
 14 15  2  0  0  0  0
 15 16  1  0  0  0  0
 16 12  2  0  0  0  0
 17 18  1  0  0  0  0
 18 16  1  0  0  0  0
 18 13  2  0  0  0  0
 19 14  1  0  0  0  0
 19 17  2  0  0  0  0
 20 21  2  0  0  0  0
 20 11  1  0  0  0  0
 22 14  1  0  0  0  0
 23 22  1  0  0  0  0
 24 22  1  0  0  0  0
 26 25  1  0  0  0  0
 27 26  1  0  0  0  0
 28 27  1  0  0  0  0
 29 30  1  1  0  0  0
 29 28  1  0  0  0  0
 31 29  1  0  0  0  0
 32 31  1  0  0  0  0
 34 33  1  0  0  0  0
 34 32  1  0  0  0  0
M  END
>  <MODEL>
3

>  <REMARK>
 VINA RESULT:      -7.8      2.406      7.974
  Name = 
  11 active torsions:
  status: ('A' for Active; 'I' for Inactive)
    1  A    between atoms: C_1  and  O_34
    2  A    between atoms: C_2  and  C_23
    3  A    between atoms: C_2  and  C_32
    4  A    between atoms: O_3  and  C_24
    5  A    between atoms: O_3  and  C_27
    6  A    between atoms: C_7  and  N_11
    7  A    between atoms: C_17  and  C_18
    8  A    between atoms: C_18  and  C_30
    9  A    between atoms: C_23  and  C_25
   10  A    between atoms: C_25  and  C_27
   11  A    between atoms: C_32  and  O_34
                            x       y       z     vdW  Elec       q    Type
                         _______ _______ _______ _____ _____    ______ ____

>  <TORSDO>
F 11

$$$$
=
 OpenBabel10272415123D

 34 37  0  0  1  0  0  0  0  0999 V2000
  184.0110  178.4490  141.2240 C   0  0  1  0  0  3  0  0  0  0  0  0
  182.8260  178.4630  138.3280 N   0  0  0  0  0  1  0  0  0  0  0  0
  181.7550  179.1630  143.0980 C   0  0  0  0  0  2  0  0  0  0  0  0
  184.0390  178.1230  142.7220 C   0  0  0  0  0  2  0  0  0  0  0  0
  181.6420  179.1360  141.6420 N   0  0  0  0  0  0  0  0  0  0  0  0
  180.5260  179.3810  140.9270 C   0  0  0  0  0  3  0  0  0  0  0  0
  183.2290  179.1490  143.5280 C   0  0  2  0  0  3  0  0  0  0  0  0
  182.1090  178.7810  139.5160 C   0  0  0  0  0  0  0  0  0  0  0  0
  182.6040  178.7450  140.7930 C   0  0  0  0  0  0  0  0  0  0  0  0
  180.7840  179.1750  139.5740 C   0  0  0  0  0  3  0  0  0  0  0  0
  183.3820  178.9430  145.0360 C   0  0  0  0  0  2  0  0  0  0  0  0
  186.4870  178.4120  147.1610 C   0  0  0  0  0  3  0  0  0  0  0  0
  185.6620  178.0380  144.5070 C   0  0  0  0  0  3  0  0  0  0  0  0
  189.5430  177.0390  145.7000 C   0  0  0  0  0  0  0  0  0  0  0  0
  188.6450  177.5540  146.5890 N   0  0  0  0  0  0  0  0  0  0  0  0
  187.3780  177.8840  146.2220 C   0  0  0  0  0  0  0  0  0  0  0  0
  187.8580  177.1670  143.9630 C   0  0  0  0  0  3  0  0  0  0  0  0
  186.9600  177.6960  144.8890 C   0  0  0  0  0  0  0  0  0  0  0  0
  189.1520  176.8360  144.3670 C   0  0  0  0  0  3  0  0  0  0  0  0
  184.7710  178.5670  145.4500 C   0  0  0  0  0  0  0  0  0  0  0  0
  185.1860  178.7540  146.7750 C   0  0  0  0  0  3  0  0  0  0  0  0
  190.8750  176.7120  146.1320 N   0  0  0  0  0  0  0  0  0  0  0  0
  191.8890  176.2580  145.1910 C   0  0  0  0  0  1  0  0  0  0  0  0
  191.2430  176.8110  147.5360 C   0  0  0  0  0  1  0  0  0  0  0  0
  184.8240  179.5570  140.9680 O   0  0  0  0  0  0  0  0  0  0  0  0
  186.0760  179.2090  141.4750 C   0  0  0  0  0  2  0  0  0  0  0  0
  186.8370  178.4090  140.4350 C   0  0  0  0  0  2  0  0  0  0  0  0
  188.3350  178.4970  140.6850 C   0  0  0  0  0  2  0  0  0  0  0  0
  189.0640  177.2870  140.1180 C   0  0  2  0  0  3  0  0  0  0  0  0
  190.5060  177.2410  140.5950 C   0  0  0  0  0  1  0  0  0  0  0  0
  189.0120  177.2920  138.5950 C   0  0  0  0  0  2  0  0  0  0  0  0
  189.3280  178.5560  138.0860 O   0  0  0  0  0  0  0  0  0  0  0  0
  189.4190  176.9920  136.3010 C   0  0  0  0  0  1  0  0  0  0  0  0
  189.1750  178.4310  136.7050 C   0  0  0  0  0  2  0  0  0  0  0  0
  1 25  1  1  0  0  0
  1  4  1  0  0  0  0
  2  8  1  0  0  0  0
  3  7  1  0  0  0  0
  4  7  1  0  0  0  0
  5  3  1  0  0  0  0
  6  5  1  0  0  0  0
  7 11  1  1  0  0  0
  8 10  1  0  0  0  0
  8  9  2  0  0  0  0
  9  1  1  0  0  0  0
  9  5  1  0  0  0  0
 10  6  2  0  0  0  0
 11 20  1  0  0  0  0
 13 18  2  0  0  0  0
 13 20  1  0  0  0  0
 14 22  1  0  0  0  0
 14 15  2  0  0  0  0
 16 15  1  0  0  0  0
 16 12  2  0  0  0  0
 17 19  2  0  0  0  0
 17 18  1  0  0  0  0
 18 16  1  0  0  0  0
 19 14  1  0  0  0  0
 20 21  2  0  0  0  0
 21 12  1  0  0  0  0
 22 24  1  0  0  0  0
 23 22  1  0  0  0  0
 25 26  1  0  0  0  0
 27 28  1  0  0  0  0
 27 26  1  0  0  0  0
 29 30  1  6  0  0  0
 29 28  1  0  0  0  0
 31 29  1  0  0  0  0
 32 31  1  0  0  0  0
 33 34  1  0  0  0  0
 34 32  1  0  0  0  0
M  END
>  <MODEL>
4

>  <REMARK>
 VINA RESULT:      -7.8      2.995      6.585
  Name = 
  11 active torsions:
  status: ('A' for Active; 'I' for Inactive)
    1  A    between atoms: C_1  and  O_34
    2  A    between atoms: C_2  and  C_23
    3  A    between atoms: C_2  and  C_32
    4  A    between atoms: O_3  and  C_24
    5  A    between atoms: O_3  and  C_27
    6  A    between atoms: C_7  and  N_11
    7  A    between atoms: C_17  and  C_18
    8  A    between atoms: C_18  and  C_30
    9  A    between atoms: C_23  and  C_25
   10  A    between atoms: C_25  and  C_27
   11  A    between atoms: C_32  and  O_34
                            x       y       z     vdW  Elec       q    Type
                         _______ _______ _______ _____ _____    ______ ____

>  <TORSDO>
F 11

$$$$
=
 OpenBabel10272415123D

 34 37  0  0  1  0  0  0  0  0999 V2000
  183.6010  178.3920  140.9550 C   0  0  1  0  0  3  0  0  0  0  0  0
  181.8660  178.6060  138.3600 N   0  0  0  0  0  1  0  0  0  0  0  0
  181.8480  179.2560  143.2550 C   0  0  0  0  0  2  0  0  0  0  0  0
  183.8980  178.0190  142.4130 C   0  0  0  0  0  2  0  0  0  0  0  0
  181.4430  179.2840  141.8530 N   0  0  0  0  0  0  0  0  0  0  0  0
  180.2360  179.6550  141.3820 C   0  0  0  0  0  3  0  0  0  0  0  0
  183.3700  179.0900  143.3780 C   0  0  2  0  0  3  0  0  0  0  0  0
  181.4370  178.9530  139.6720 C   0  0  0  0  0  0  0  0  0  0  0  0
  182.1720  178.8310  140.8220 C   0  0  0  0  0  0  0  0  0  0  0  0
  180.1950  179.4670  140.0020 C   0  0  0  0  0  3  0  0  0  0  0  0
  183.8020  178.8240  144.8210 C   0  0  0  0  0  2  0  0  0  0  0  0
  187.3030  177.6550  143.9180 C   0  0  0  0  0  3  0  0  0  0  0  0
  185.8190  178.2880  146.2130 C   0  0  0  0  0  3  0  0  0  0  0  0
  189.7960  177.0300  146.5160 C   0  0  0  0  0  0  0  0  0  0  0  0
  189.1850  177.1450  145.3010 N   0  0  0  0  0  0  0  0  0  0  0  0
  187.8950  177.5530  145.1810 C   0  0  0  0  0  0  0  0  0  0  0  0
  187.7500  177.7680  147.5850 C   0  0  0  0  0  3  0  0  0  0  0  0
  187.1470  177.8730  146.3330 C   0  0  0  0  0  0  0  0  0  0  0  0
  189.0770  177.3480  147.6800 C   0  0  0  0  0  3  0  0  0  0  0  0
  185.2290  178.3890  144.9470 C   0  0  0  0  0  0  0  0  0  0  0  0
  185.9720  178.0720  143.8020 C   0  0  0  0  0  3  0  0  0  0  0  0
  191.1610  176.5870  146.5960 N   0  0  0  0  0  0  0  0  0  0  0  0
  191.8630  176.5140  147.8700 C   0  0  0  0  0  1  0  0  0  0  0  0
  191.8890  176.2130  145.3940 C   0  0  0  0  0  1  0  0  0  0  0  0
  184.4500  179.4270  140.5520 O   0  0  0  0  0  0  0  0  0  0  0  0
  185.6200  178.7900  140.1340 C   0  0  0  0  0  2  0  0  0  0  0  0
  185.5900  178.6170  138.6270 C   0  0  0  0  0  2  0  0  0  0  0  0
  186.7300  177.7210  138.1710 C   0  0  0  0  0  2  0  0  0  0  0  0
  188.0820  178.3000  138.5660 C   0  0  2  0  0  3  0  0  0  0  0  0
  188.8500  178.7830  137.3470 C   0  0  0  0  0  1  0  0  0  0  0  0
  188.9030  177.2710  139.3340 C   0  0  0  0  0  2  0  0  0  0  0  0
  189.4920  177.8420  140.4670 O   0  0  0  0  0  0  0  0  0  0  0  0
  191.3410  177.3750  141.8830 C   0  0  0  0  0  1  0  0  0  0  0  0
  190.2090  176.8010  141.0570 C   0  0  0  0  0  2  0  0  0  0  0  0
  1 25  1  1  0  0  0
  1  4  1  0  0  0  0
  2  8  1  0  0  0  0
  3  7  1  0  0  0  0
  4  7  1  0  0  0  0
  5  3  1  0  0  0  0
  6  5  1  0  0  0  0
  7 11  1  1  0  0  0
  8 10  1  0  0  0  0
  8  9  2  0  0  0  0
  9  1  1  0  0  0  0
  9  5  1  0  0  0  0
 10  6  2  0  0  0  0
 11 20  1  0  0  0  0
 12 16  1  0  0  0  0
 13 18  1  0  0  0  0
 14 22  1  0  0  0  0
 14 19  1  0  0  0  0
 15 14  2  0  0  0  0
 16 15  1  0  0  0  0
 16 18  2  0  0  0  0
 17 19  2  0  0  0  0
 18 17  1  0  0  0  0
 20 13  2  0  0  0  0
 21 12  2  0  0  0  0
 21 20  1  0  0  0  0
 22 23  1  0  0  0  0
 24 22  1  0  0  0  0
 26 25  1  0  0  0  0
 27 26  1  0  0  0  0
 28 29  1  0  0  0  0
 28 27  1  0  0  0  0
 29 30  1  6  0  0  0
 29 31  1  0  0  0  0
 31 32  1  0  0  0  0
 32 34  1  0  0  0  0
 34 33  1  0  0  0  0
M  END
>  <MODEL>
5

>  <REMARK>
 VINA RESULT:      -7.7      2.940      6.331
  Name = 
  11 active torsions:
  status: ('A' for Active; 'I' for Inactive)
    1  A    between atoms: C_1  and  O_34
    2  A    between atoms: C_2  and  C_23
    3  A    between atoms: C_2  and  C_32
    4  A    between atoms: O_3  and  C_24
    5  A    between atoms: O_3  and  C_27
    6  A    between atoms: C_7  and  N_11
    7  A    between atoms: C_17  and  C_18
    8  A    between atoms: C_18  and  C_30
    9  A    between atoms: C_23  and  C_25
   10  A    between atoms: C_25  and  C_27
   11  A    between atoms: C_32  and  O_34
                            x       y       z     vdW  Elec       q    Type
                         _______ _______ _______ _____ _____    ______ ____

>  <TORSDO>
F 11

$$$$
=
 OpenBabel10272415123D

 34 37  0  0  1  0  0  0  0  0999 V2000
  186.0130  177.6700  137.2740 C   0  0  1  0  0  3  0  0  0  0  0  0
  183.8050  176.0100  135.8060 N   0  0  0  0  0  1  0  0  0  0  0  0
  188.3990  175.8530  137.6090 C   0  0  0  0  0  2  0  0  0  0  0  0
  187.4310  178.1970  137.5270 C   0  0  0  0  0  2  0  0  0  0  0  0
  187.1200  175.4390  137.0380 N   0  0  0  0  0  0  0  0  0  0  0  0
  186.8270  174.2200  136.5460 C   0  0  0  0  0  3  0  0  0  0  0  0
  188.2570  177.1940  138.3440 C   0  0  2  0  0  3  0  0  0  0  0  0
  185.0840  175.5220  136.1930 C   0  0  0  0  0  0  0  0  0  0  0  0
  186.0740  176.2460  136.8040 C   0  0  0  0  0  0  0  0  0  0  0  0
  185.5410  174.2290  136.0090 C   0  0  0  0  0  3  0  0  0  0  0  0
  189.6150  177.7680  138.7520 C   0  0  0  0  0  2  0  0  0  0  0  0
  191.5220  177.2420  141.9960 C   0  0  0  0  0  3  0  0  0  0  0  0
  188.8800  177.6460  141.1480 C   0  0  0  0  0  3  0  0  0  0  0  0
  189.7710  177.1500  145.2020 C   0  0  0  0  0  0  0  0  0  0  0  0
  190.7550  177.1200  144.2570 N   0  0  0  0  0  0  0  0  0  0  0  0
  190.4870  177.2810  142.9350 C   0  0  0  0  0  0  0  0  0  0  0  0
  188.1380  177.5250  143.4520 C   0  0  0  0  0  3  0  0  0  0  0  0
  189.1600  177.4860  142.5060 C   0  0  0  0  0  0  0  0  0  0  0  0
  188.4410  177.3580  144.8040 C   0  0  0  0  0  3  0  0  0  0  0  0
  189.9190  177.6060  140.2090 C   0  0  0  0  0  0  0  0  0  0  0  0
  191.2380  177.4030  140.6350 C   0  0  0  0  0  3  0  0  0  0  0  0
  190.1010  176.9680  146.5900 N   0  0  0  0  0  0  0  0  0  0  0  0
  191.4380  176.5700  147.0070 C   0  0  0  0  0  1  0  0  0  0  0  0
  189.0950  177.1630  147.6210 C   0  0  0  0  0  1  0  0  0  0  0  0
  185.2660  177.7450  138.4530 O   0  0  0  0  0  0  0  0  0  0  0  0
  184.6370  178.9890  138.4030 C   0  0  0  0  0  2  0  0  0  0  0  0
  184.1260  179.3530  139.7840 C   0  0  0  0  0  2  0  0  0  0  0  0
  185.1300  178.9430  140.8500 C   0  0  0  0  0  2  0  0  0  0  0  0
  184.4300  178.4380  142.1050 C   0  0  2  0  0  3  0  0  0  0  0  0
  182.9190  178.4870  141.9490 C   0  0  0  0  0  1  0  0  0  0  0  0
  184.8610  179.2460  143.3230 C   0  0  0  0  0  2  0  0  0  0  0  0
  183.7530  179.6590  144.0690 O   0  0  0  0  0  0  0  0  0  0  0  0
  185.2850  178.9680  145.7480 C   0  0  0  0  0  1  0  0  0  0  0  0
  183.8490  178.9510  145.2670 C   0  0  0  0  0  2  0  0  0  0  0  0
  1  4  1  0  0  0  0
  1 25  1  1  0  0  0
  2  8  1  0  0  0  0
  3  7  1  0  0  0  0
  4  7  1  0  0  0  0
  5  3  1  0  0  0  0
  6  5  1  0  0  0  0
  7 11  1  6  0  0  0
  8  9  2  0  0  0  0
  9  5  1  0  0  0  0
  9  1  1  0  0  0  0
 10  8  1  0  0  0  0
 10  6  2  0  0  0  0
 11 20  1  0  0  0  0
 12 16  1  0  0  0  0
 13 18  1  0  0  0  0
 14 22  1  0  0  0  0
 15 14  2  0  0  0  0
 16 15  1  0  0  0  0
 17 19  2  0  0  0  0
 18 16  2  0  0  0  0
 18 17  1  0  0  0  0
 19 14  1  0  0  0  0
 20 21  1  0  0  0  0
 20 13  2  0  0  0  0
 21 12  2  0  0  0  0
 22 23  1  0  0  0  0
 22 24  1  0  0  0  0
 26 25  1  0  0  0  0
 26 27  1  0  0  0  0
 27 28  1  0  0  0  0
 28 29  1  0  0  0  0
 29 30  1  6  0  0  0
 29 31  1  0  0  0  0
 31 32  1  0  0  0  0
 32 34  1  0  0  0  0
 34 33  1  0  0  0  0
M  END
>  <MODEL>
6

>  <REMARK>
 VINA RESULT:      -7.7      2.711      6.721
  Name = 
  11 active torsions:
  status: ('A' for Active; 'I' for Inactive)
    1  A    between atoms: C_1  and  O_34
    2  A    between atoms: C_2  and  C_23
    3  A    between atoms: C_2  and  C_32
    4  A    between atoms: O_3  and  C_24
    5  A    between atoms: O_3  and  C_27
    6  A    between atoms: C_7  and  N_11
    7  A    between atoms: C_17  and  C_18
    8  A    between atoms: C_18  and  C_30
    9  A    between atoms: C_23  and  C_25
   10  A    between atoms: C_25  and  C_27
   11  A    between atoms: C_32  and  O_34
                            x       y       z     vdW  Elec       q    Type
                         _______ _______ _______ _____ _____    ______ ____

>  <TORSDO>
F 11

$$$$
=
 OpenBabel10272415123D

 34 37  0  0  1  0  0  0  0  0999 V2000
  188.6260  177.5430  144.4080 C   0  0  1  0  0  3  0  0  0  0  0  0
  191.5630  176.6500  145.0150 N   0  0  0  0  0  1  0  0  0  0  0  0
  187.2760  177.9820  147.0720 C   0  0  0  0  0  2  0  0  0  0  0  0
  187.3620  178.3970  144.5700 C   0  0  0  0  0  2  0  0  0  0  0  0
  188.6380  177.4810  146.9100 N   0  0  0  0  0  0  0  0  0  0  0  0
  189.4980  177.1810  147.9030 C   0  0  0  0  0  3  0  0  0  0  0  0
  186.5070  177.9030  145.7450 C   0  0  2  0  0  3  0  0  0  0  0  0
  190.5660  176.9280  145.9910 C   0  0  0  0  0  0  0  0  0  0  0  0
  189.2880  177.3550  145.7430 C   0  0  0  0  0  0  0  0  0  0  0  0
  190.7300  176.8180  147.3610 C   0  0  0  0  0  3  0  0  0  0  0  0
  185.1620  178.6290  145.8200 C   0  0  0  0  0  2  0  0  0  0  0  0
  182.3890  178.8180  143.2300 C   0  0  0  0  0  3  0  0  0  0  0  0
  185.1910  178.7370  143.3140 C   0  0  0  0  0  3  0  0  0  0  0  0
  183.1650  178.9270  139.6610 C   0  0  0  0  0  0  0  0  0  0  0  0
  182.4830  178.9030  140.8430 N   0  0  0  0  0  0  0  0  0  0  0  0
  183.1220  178.8440  142.0400 C   0  0  0  0  0  0  0  0  0  0  0  0
  185.2500  178.8320  140.8920 C   0  0  0  0  0  3  0  0  0  0  0  0
  184.5310  178.8040  142.0850 C   0  0  0  0  0  0  0  0  0  0  0  0
  184.5690  178.8940  139.6760 C   0  0  0  0  0  3  0  0  0  0  0  0
  184.4530  178.7110  144.5040 C   0  0  0  0  0  0  0  0  0  0  0  0
  183.0540  178.7510  144.4600 C   0  0  0  0  0  3  0  0  0  0  0  0
  182.4470  178.9840  138.4170 N   0  0  0  0  0  0  0  0  0  0  0  0
  181.5320  180.0760  138.1160 C   0  0  0  0  0  1  0  0  0  0  0  0
  182.6040  177.9330  137.4230 C   0  0  0  0  0  1  0  0  0  0  0  0
  188.2880  176.2990  143.8710 O   0  0  0  0  0  0  0  0  0  0  0  0
  189.2150  176.0840  142.8500 C   0  0  0  0  0  2  0  0  0  0  0  0
  188.9830  177.0890  141.7370 C   0  0  0  0  0  2  0  0  0  0  0  0
  190.2510  177.2850  140.9220 C   0  0  0  0  0  2  0  0  0  0  0  0
  189.9320  177.6750  139.4850 C   0  0  2  0  0  3  0  0  0  0  0  0
  188.6370  178.4670  139.4060 C   0  0  0  0  0  1  0  0  0  0  0  0
  189.8490  176.4380  138.5980 C   0  0  0  0  0  2  0  0  0  0  0  0
  190.9190  175.5720  138.8430 O   0  0  0  0  0  0  0  0  0  0  0  0
  192.9740  176.3910  137.9800 C   0  0  0  0  0  1  0  0  0  0  0  0
  191.6970  175.6330  137.6870 C   0  0  0  0  0  2  0  0  0  0  0  0
  1 25  1  1  0  0  0
  1  4  1  0  0  0  0
  1  9  1  0  0  0  0
  2  8  1  0  0  0  0
  4  7  1  0  0  0  0
  5  3  1  0  0  0  0
  5  6  1  0  0  0  0
  7 11  1  1  0  0  0
  7  3  1  0  0  0  0
  8 10  1  0  0  0  0
  9  8  2  0  0  0  0
  9  5  1  0  0  0  0
 10  6  2  0  0  0  0
 12 21  1  0  0  0  0
 13 20  1  0  0  0  0
 14 19  1  0  0  0  0
 14 15  2  0  0  0  0
 15 16  1  0  0  0  0
 16 18  1  0  0  0  0
 16 12  2  0  0  0  0
 17 18  1  0  0  0  0
 18 13  2  0  0  0  0
 19 17  2  0  0  0  0
 20 11  1  0  0  0  0
 21 20  2  0  0  0  0
 22 14  1  0  0  0  0
 23 22  1  0  0  0  0
 24 22  1  0  0  0  0
 26 25  1  0  0  0  0
 27 26  1  0  0  0  0
 28 27  1  0  0  0  0
 29 30  1  1  0  0  0
 29 28  1  0  0  0  0
 31 32  1  0  0  0  0
 31 29  1  0  0  0  0
 34 33  1  0  0  0  0
 34 32  1  0  0  0  0
M  END
>  <MODEL>
7

>  <REMARK>
 VINA RESULT:      -7.6      2.514      7.469
  Name = 
  11 active torsions:
  status: ('A' for Active; 'I' for Inactive)
    1  A    between atoms: C_1  and  O_34
    2  A    between atoms: C_2  and  C_23
    3  A    between atoms: C_2  and  C_32
    4  A    between atoms: O_3  and  C_24
    5  A    between atoms: O_3  and  C_27
    6  A    between atoms: C_7  and  N_11
    7  A    between atoms: C_17  and  C_18
    8  A    between atoms: C_18  and  C_30
    9  A    between atoms: C_23  and  C_25
   10  A    between atoms: C_25  and  C_27
   11  A    between atoms: C_32  and  O_34
                            x       y       z     vdW  Elec       q    Type
                         _______ _______ _______ _____ _____    ______ ____

>  <TORSDO>
F 11

$$$$
=
 OpenBabel10272415123D

 34 37  0  0  1  0  0  0  0  0999 V2000
  188.5520  177.7340  137.5260 C   0  0  1  0  0  3  0  0  0  0  0  0
  187.1920  176.8120  134.8640 N   0  0  0  0  0  1  0  0  0  0  0  0
  190.7570  175.7580  138.1140 C   0  0  0  0  0  2  0  0  0  0  0  0
  189.7260  178.0510  138.4600 C   0  0  0  0  0  2  0  0  0  0  0  0
  189.8240  175.6450  136.9970 N   0  0  0  0  0  0  0  0  0  0  0  0
  189.8280  174.6840  136.0520 C   0  0  0  0  0  3  0  0  0  0  0  0
  190.2510  176.7800  139.1430 C   0  0  2  0  0  3  0  0  0  0  0  0
  188.2600  176.1400  135.5210 C   0  0  0  0  0  0  0  0  0  0  0  0
  188.8900  176.5500  136.6670 C   0  0  0  0  0  0  0  0  0  0  0  0
  188.8450  174.9580  135.1030 C   0  0  0  0  0  3  0  0  0  0  0  0
  191.3070  177.0940  140.2040 C   0  0  0  0  0  2  0  0  0  0  0  0
  191.0100  178.0910  143.8580 C   0  0  0  0  0  3  0  0  0  0  0  0
  189.3810  177.0780  141.8120 C   0  0  0  0  0  3  0  0  0  0  0  0
  187.8290  177.7800  145.6300 C   0  0  0  0  0  0  0  0  0  0  0  0
  189.1380  178.0370  145.3450 N   0  0  0  0  0  0  0  0  0  0  0  0
  189.6620  177.8180  144.1110 C   0  0  0  0  0  0  0  0  0  0  0  0
  187.5030  177.0430  143.3440 C   0  0  0  0  0  3  0  0  0  0  0  0
  188.8450  177.3090  143.0800 C   0  0  0  0  0  0  0  0  0  0  0  0
  186.9900  177.2780  144.6210 C   0  0  0  0  0  3  0  0  0  0  0  0
  190.7320  177.3520  141.5620 C   0  0  0  0  0  0  0  0  0  0  0  0
  191.5430  177.8580  142.5860 C   0  0  0  0  0  3  0  0  0  0  0  0
  187.3190  178.0210  146.9530 N   0  0  0  0  0  0  0  0  0  0  0  0
  185.9840  178.5610  147.1660 C   0  0  0  0  0  1  0  0  0  0  0  0
  188.1380  177.7450  148.1230 C   0  0  0  0  0  1  0  0  0  0  0  0
  187.4110  177.4550  138.2830 O   0  0  0  0  0  0  0  0  0  0  0  0
  186.4720  178.4050  137.8810 C   0  0  0  0  0  2  0  0  0  0  0  0
  185.1370  178.1070  138.5380 C   0  0  0  0  0  2  0  0  0  0  0  0
  185.0610  178.7570  139.9100 C   0  0  0  0  0  2  0  0  0  0  0  0
  183.8960  178.2060  140.7210 C   0  0  2  0  0  3  0  0  0  0  0  0
  182.5860  178.8620  140.3150 C   0  0  0  0  0  1  0  0  0  0  0  0
  184.1410  178.3970  142.2130 C   0  0  0  0  0  2  0  0  0  0  0  0
  184.8690  179.5650  142.4570 O   0  0  0  0  0  0  0  0  0  0  0  0
  183.4130  179.0950  144.2730 C   0  0  0  0  0  1  0  0  0  0  0  0
  184.6340  179.8560  143.8010 C   0  0  0  0  0  2  0  0  0  0  0  0
  1 25  1  1  0  0  0
  1  4  1  0  0  0  0
  2  8  1  0  0  0  0
  3  7  1  0  0  0  0
  4  7  1  0  0  0  0
  5  3  1  0  0  0  0
  6  5  1  0  0  0  0
  7 11  1  1  0  0  0
  8  9  2  0  0  0  0
  9  5  1  0  0  0  0
  9  1  1  0  0  0  0
 10  8  1  0  0  0  0
 10  6  2  0  0  0  0
 11 20  1  0  0  0  0
 12 16  1  0  0  0  0
 13 18  1  0  0  0  0
 14 22  1  0  0  0  0
 15 14  1  0  0  0  0
 16 15  2  0  0  0  0
 17 19  1  0  0  0  0
 18 17  2  0  0  0  0
 18 16  1  0  0  0  0
 19 14  2  0  0  0  0
 20 13  2  0  0  0  0
 20 21  1  0  0  0  0
 21 12  2  0  0  0  0
 22 23  1  0  0  0  0
 22 24  1  0  0  0  0
 26 25  1  0  0  0  0
 26 27  1  0  0  0  0
 27 28  1  0  0  0  0
 28 29  1  0  0  0  0
 29 30  1  6  0  0  0
 29 31  1  0  0  0  0
 31 32  1  0  0  0  0
 32 34  1  0  0  0  0
 34 33  1  0  0  0  0
M  END
>  <MODEL>
8

>  <REMARK>
 VINA RESULT:      -7.5      2.179      7.892
  Name = 
  11 active torsions:
  status: ('A' for Active; 'I' for Inactive)
    1  A    between atoms: C_1  and  O_34
    2  A    between atoms: C_2  and  C_23
    3  A    between atoms: C_2  and  C_32
    4  A    between atoms: O_3  and  C_24
    5  A    between atoms: O_3  and  C_27
    6  A    between atoms: C_7  and  N_11
    7  A    between atoms: C_17  and  C_18
    8  A    between atoms: C_18  and  C_30
    9  A    between atoms: C_23  and  C_25
   10  A    between atoms: C_25  and  C_27
   11  A    between atoms: C_32  and  O_34
                            x       y       z     vdW  Elec       q    Type
                         _______ _______ _______ _____ _____    ______ ____

>  <TORSDO>
F 11

$$$$
=
 OpenBabel10272415123D

 34 37  0  0  1  0  0  0  0  0999 V2000
  183.5180  178.2710  141.0280 C   0  0  1  0  0  3  0  0  0  0  0  0
  181.6840  178.2120  138.4930 N   0  0  0  0  0  1  0  0  0  0  0  0
  181.7810  179.1190  143.3460 C   0  0  0  0  0  2  0  0  0  0  0  0
  183.8920  178.0000  142.4900 C   0  0  0  0  0  2  0  0  0  0  0  0
  181.3270  179.0410  141.9610 N   0  0  0  0  0  0  0  0  0  0  0  0
  180.0800  179.2910  141.5170 C   0  0  0  0  0  3  0  0  0  0  0  0
  183.3140  179.0780  143.4190 C   0  0  2  0  0  3  0  0  0  0  0  0
  181.2730  178.5940  139.8010 C   0  0  0  0  0  0  0  0  0  0  0  0
  182.0550  178.5910  140.9270 C   0  0  0  0  0  0  0  0  0  0  0  0
  180.0070  179.0280  140.1510 C   0  0  0  0  0  3  0  0  0  0  0  0
  183.8140  178.9230  144.8570 C   0  0  0  0  0  2  0  0  0  0  0  0
  187.2410  177.6080  143.8770 C   0  0  0  0  0  3  0  0  0  0  0  0
  185.8690  178.3900  146.1940 C   0  0  0  0  0  3  0  0  0  0  0  0
  189.8160  177.0270  146.4040 C   0  0  0  0  0  0  0  0  0  0  0  0
  189.1620  177.1040  145.2090 N   0  0  0  0  0  0  0  0  0  0  0  0
  187.8800  177.5460  145.1190 C   0  0  0  0  0  0  0  0  0  0  0  0
  187.8360  177.8750  147.5140 C   0  0  0  0  0  3  0  0  0  0  0  0
  187.1880  177.9410  146.2820 C   0  0  0  0  0  0  0  0  0  0  0  0
  189.1540  177.4190  147.5790 C   0  0  0  0  0  3  0  0  0  0  0  0
  185.2320  178.4510  144.9480 C   0  0  0  0  0  0  0  0  0  0  0  0
  185.9200  178.0590  143.7920 C   0  0  0  0  0  3  0  0  0  0  0  0
  191.1710  176.5460  146.4520 N   0  0  0  0  0  0  0  0  0  0  0  0
  191.8090  176.1980  147.7140 C   0  0  0  0  0  1  0  0  0  0  0  0
  191.9510  176.4100  145.2330 C   0  0  0  0  0  1  0  0  0  0  0  0
  184.2680  179.3450  140.5410 O   0  0  0  0  0  0  0  0  0  0  0  0
  185.4260  178.7680  140.0180 C   0  0  0  0  0  2  0  0  0  0  0  0
  185.2180  178.4630  138.5470 C   0  0  0  0  0  2  0  0  0  0  0  0
  186.5050  177.9480  137.9220 C   0  0  0  0  0  2  0  0  0  0  0  0
  186.2660  177.4240  136.5120 C   0  0  2  0  0  3  0  0  0  0  0  0
  184.7840  177.2060  136.2520 C   0  0  0  0  0  1  0  0  0  0  0  0
  187.0380  176.1300  136.2820 C   0  0  0  0  0  2  0  0  0  0  0  0
  186.8820  175.2530  137.3590 O   0  0  0  0  0  0  0  0  0  0  0  0
  185.1030  173.6790  137.3650 C   0  0  0  0  0  1  0  0  0  0  0  0
  186.4490  174.0580  136.7840 C   0  0  0  0  0  2  0  0  0  0  0  0
  1 25  1  1  0  0  0
  1  4  1  0  0  0  0
  2  8  1  0  0  0  0
  3  7  1  0  0  0  0
  4  7  1  0  0  0  0
  5  3  1  0  0  0  0
  6  5  1  0  0  0  0
  7 11  1  1  0  0  0
  8 10  1  0  0  0  0
  8  9  2  0  0  0  0
  9  1  1  0  0  0  0
  9  5  1  0  0  0  0
 10  6  2  0  0  0  0
 11 20  1  0  0  0  0
 12 16  1  0  0  0  0
 13 18  1  0  0  0  0
 14 22  1  0  0  0  0
 14 19  1  0  0  0  0
 15 14  2  0  0  0  0
 16 15  1  0  0  0  0
 16 18  2  0  0  0  0
 17 19  2  0  0  0  0
 18 17  1  0  0  0  0
 20 13  2  0  0  0  0
 21 12  2  0  0  0  0
 21 20  1  0  0  0  0
 22 23  1  0  0  0  0
 24 22  1  0  0  0  0
 26 25  1  0  0  0  0
 27 26  1  0  0  0  0
 28 27  1  0  0  0  0
 29 30  1  1  0  0  0
 29 28  1  0  0  0  0
 31 29  1  0  0  0  0
 31 32  1  0  0  0  0
 34 32  1  0  0  0  0
 34 33  1  0  0  0  0
M  END
>  <MODEL>
9

>  <REMARK>
 VINA RESULT:      -7.1      3.422      7.140
  Name = 
  11 active torsions:
  status: ('A' for Active; 'I' for Inactive)
    1  A    between atoms: C_1  and  O_34
    2  A    between atoms: C_2  and  C_23
    3  A    between atoms: C_2  and  C_32
    4  A    between atoms: O_3  and  C_24
    5  A    between atoms: O_3  and  C_27
    6  A    between atoms: C_7  and  N_11
    7  A    between atoms: C_17  and  C_18
    8  A    between atoms: C_18  and  C_30
    9  A    between atoms: C_23  and  C_25
   10  A    between atoms: C_25  and  C_27
   11  A    between atoms: C_32  and  O_34
                            x       y       z     vdW  Elec       q    Type
                         _______ _______ _______ _____ _____    ______ ____

>  <TORSDO>
F 11

$$$$
