=
 OpenBabel10272400503D

 25 29  0  0  1  0  0  0  0  0999 V2000
  186.8710  178.1420  144.6980 C   0  0  0  0  0  0  0  0  0  0  0  0
  188.1000  177.7100  144.1940 C   0  0  0  0  0  0  0  0  0  0  0  0
  187.4920  177.5240  146.9530 C   0  0  0  0  0  3  0  0  0  0  0  0
  185.7650  178.8480  144.0010 C   0  0  2  0  0  3  0  0  0  0  0  0
  182.9060  178.8340  143.6620 C   0  0  0  0  0  3  0  0  0  0  0  0
  188.7210  177.0510  146.4650 C   0  0  0  0  0  3  0  0  0  0  0  0
  184.7910  179.0140  145.1350 C   0  0  0  0  0  0  0  0  0  0  0  0
  183.3720  179.2440  144.8490 C   0  0  0  0  0  3  0  0  0  0  0  0
  190.2790  176.6350  144.5910 N   0  0  0  0  0  0  0  0  0  0  0  0
  191.4870  176.6970  145.3980 C   0  0  0  0  0  1  0  0  0  0  0  0
  188.4150  177.8800  142.8060 N   0  0  0  0  0  2  0  0  0  0  0  0
  183.7900  178.1270  142.6980 C   0  0  0  0  0  3  0  0  0  0  0  0
  186.5900  178.0730  146.0460 C   0  0  0  0  0  0  0  0  0  0  0  0
  185.2550  178.5880  146.3070 C   0  0  0  0  0  3  0  0  0  0  0  0
  190.3960  176.0590  142.9220 S   0  0  0  0  0  0  0  0  0  0  0  0
  185.1200  178.0730  142.8810 C   0  0  0  0  0  3  0  0  0  0  0  0
  189.7540  177.6350  142.2770 C   0  0  1  0  0  3  0  0  0  0  0  0
  189.0280  177.1310  145.0890 C   0  0  0  0  0  0  0  0  0  0  0  0
  190.7100  176.9000  138.6890 C   0  0  0  0  0  0  0  0  0  0  0  0
  189.7320  177.6310  140.7830 C   0  0  0  0  0  0  0  0  0  0  0  0
  190.7170  176.9240  140.0880 C   0  0  0  0  0  3  0  0  0  0  0  0
  191.9470  176.0160  137.8240 Cl  0  0  0  0  0  0  0  0  0  0  0  0
  188.7330  178.3130  140.0720 C   0  0  0  0  0  3  0  0  0  0  0  0
  189.7150  177.5830  137.9830 C   0  0  0  0  0  3  0  0  0  0  0  0
  188.7260  178.2890  138.6750 C   0  0  0  0  0  3  0  0  0  0  0  0
  1 13  1  0  0  0  0
  2  1  2  0  0  0  0
  2 18  1  0  0  0  0
  4 16  1  6  0  0  0
  4  1  1  0  0  0  0
  4  7  1  0  0  0  0
  5  8  2  0  0  0  0
  6  3  1  0  0  0  0
  7 14  2  0  0  0  0
  8  7  1  0  0  0  0
  9 18  1  0  0  0  0
  9 10  1  0  0  0  0
 11  2  1  0  0  0  0
 12 16  2  0  0  0  0
 12  5  1  0  0  0  0
 13 14  1  0  0  0  0
 13  3  2  0  0  0  0
 15  9  1  0  0  0  0
 17 20  1  6  0  0  0
 17 11  1  0  0  0  0
 17 15  1  0  0  0  0
 18  6  2  0  0  0  0
 19 21  1  0  0  0  0
 21 20  2  0  0  0  0
 22 19  1  0  0  0  0
 23 20  1  0  0  0  0
 24 25  1  0  0  0  0
 24 19  2  0  0  0  0
 25 23  2  0  0  0  0
M  END
>  <MODEL>
1

>  <REMARK>
 VINA RESULT:     -11.0      0.000      0.000
  Name = 
  1 active torsions:
  status: ('A' for Active; 'I' for Inactive)
    1  A    between atoms: C_6  and  C_23
                            x       y       z     vdW  Elec       q    Type
                         _______ _______ _______ _____ _____    ______ ____

>  <TORSDO>
F 1

$$$$
=
 OpenBabel10272400503D

 25 29  0  0  1  0  0  0  0  0999 V2000
  186.9570  178.1270  144.6990 C   0  0  0  0  0  0  0  0  0  0  0  0
  188.1810  177.6640  144.2110 C   0  0  0  0  0  0  0  0  0  0  0  0
  187.5700  177.5810  146.9740 C   0  0  0  0  0  3  0  0  0  0  0  0
  185.8590  178.8210  143.9760 C   0  0  2  0  0  3  0  0  0  0  0  0
  183.0000  178.8260  143.6360 C   0  0  0  0  0  3  0  0  0  0  0  0
  188.7940  177.0780  146.5040 C   0  0  0  0  0  3  0  0  0  0  0  0
  184.8860  179.0360  145.1030 C   0  0  0  0  0  0  0  0  0  0  0  0
  183.4700  179.2720  144.8080 C   0  0  0  0  0  3  0  0  0  0  0  0
  190.3480  176.5800  144.6480 N   0  0  0  0  0  0  0  0  0  0  0  0
  191.5560  176.6560  145.4530 C   0  0  0  0  0  1  0  0  0  0  0  0
  188.4990  177.7820  142.8180 N   0  0  0  0  0  2  0  0  0  0  0  0
  183.8760  178.0760  142.6970 C   0  0  0  0  0  3  0  0  0  0  0  0
  186.6740  178.1090  146.0480 C   0  0  0  0  0  0  0  0  0  0  0  0
  185.3450  178.6470  146.2900 C   0  0  0  0  0  3  0  0  0  0  0  0
  190.4590  175.9450  143.0000 S   0  0  0  0  0  0  0  0  0  0  0  0
  185.2070  178.0140  142.8830 C   0  0  0  0  0  3  0  0  0  0  0  0
  189.8350  177.5040  142.2990 C   0  0  1  0  0  3  0  0  0  0  0  0
  189.1030  177.1060  145.1260 C   0  0  0  0  0  0  0  0  0  0  0  0
  188.6020  177.7500  138.7290 C   0  0  0  0  0  0  0  0  0  0  0  0
  189.8140  177.4480  140.8070 C   0  0  0  0  0  0  0  0  0  0  0  0
  188.6400  177.7870  140.1270 C   0  0  0  0  0  3  0  0  0  0  0  0
  187.1300  178.1730  137.8840 Cl  0  0  0  0  0  0  0  0  0  0  0  0
  190.9550  177.0760  140.0800 C   0  0  0  0  0  3  0  0  0  0  0  0
  189.7400  177.3750  138.0080 C   0  0  0  0  0  3  0  0  0  0  0  0
  190.9160  177.0380  138.6840 C   0  0  0  0  0  3  0  0  0  0  0  0
  1 13  1  0  0  0  0
  2  1  2  0  0  0  0
  2 18  1  0  0  0  0
  4 16  1  6  0  0  0
  4  1  1  0  0  0  0
  4  7  1  0  0  0  0
  5  8  2  0  0  0  0
  6  3  1  0  0  0  0
  7 14  2  0  0  0  0
  8  7  1  0  0  0  0
  9 18  1  0  0  0  0
  9 10  1  0  0  0  0
 11  2  1  0  0  0  0
 12 16  2  0  0  0  0
 12  5  1  0  0  0  0
 13 14  1  0  0  0  0
 13  3  2  0  0  0  0
 15  9  1  0  0  0  0
 17 20  1  6  0  0  0
 17 11  1  0  0  0  0
 17 15  1  0  0  0  0
 18  6  2  0  0  0  0
 19 21  1  0  0  0  0
 21 20  2  0  0  0  0
 22 19  1  0  0  0  0
 23 20  1  0  0  0  0
 24 25  1  0  0  0  0
 24 19  2  0  0  0  0
 25 23  2  0  0  0  0
M  END
>  <MODEL>
2

>  <REMARK>
 VINA RESULT:     -10.8      1.075      1.431
  Name = 
  1 active torsions:
  status: ('A' for Active; 'I' for Inactive)
    1  A    between atoms: C_6  and  C_23
                            x       y       z     vdW  Elec       q    Type
                         _______ _______ _______ _____ _____    ______ ____

>  <TORSDO>
F 1

$$$$
=
 OpenBabel10272400503D

 25 29  0  0  1  0  0  0  0  0999 V2000
  186.6580  178.0400  142.2750 C   0  0  0  0  0  0  0  0  0  0  0  0
  188.0290  177.7850  142.3630 C   0  0  0  0  0  0  0  0  0  0  0  0
  186.8040  178.4270  139.8920 C   0  0  0  0  0  3  0  0  0  0  0  0
  185.6110  177.9140  143.3220 C   0  0  2  0  0  3  0  0  0  0  0  0
  183.3590  179.2920  144.4710 C   0  0  0  0  0  3  0  0  0  0  0  0
  188.1890  178.2100  139.9600 C   0  0  0  0  0  3  0  0  0  0  0  0
  184.3930  178.3190  142.5380 C   0  0  0  0  0  0  0  0  0  0  0  0
  183.1960  178.7880  143.2410 C   0  0  0  0  0  3  0  0  0  0  0  0
  190.2280  177.6910  141.2580 N   0  0  0  0  0  0  0  0  0  0  0  0
  190.9570  177.1040  140.1450 C   0  0  0  0  0  1  0  0  0  0  0  0
  188.6170  177.3910  143.6090 N   0  0  0  0  0  2  0  0  0  0  0  0
  184.7140  179.4150  145.0730 C   0  0  0  0  0  3  0  0  0  0  0  0
  186.0620  178.3260  141.0660 C   0  0  0  0  0  0  0  0  0  0  0  0
  184.6360  178.5430  141.2480 C   0  0  0  0  0  3  0  0  0  0  0  0
  191.0940  178.0240  142.7650 S   0  0  0  0  0  0  0  0  0  0  0  0
  185.7840  178.8280  144.5080 C   0  0  0  0  0  3  0  0  0  0  0  0
  189.9950  176.9190  143.7040 C   0  0  1  0  0  3  0  0  0  0  0  0
  188.8110  177.9000  141.1900 C   0  0  0  0  0  0  0  0  0  0  0  0
  189.9850  177.3240  147.4680 C   0  0  0  0  0  0  0  0  0  0  0  0
  190.4190  176.8330  145.1340 C   0  0  0  0  0  0  0  0  0  0  0  0
  189.6100  177.4010  146.1220 C   0  0  0  0  0  3  0  0  0  0  0  0
  188.9690  178.0380  148.7000 Cl  0  0  0  0  0  0  0  0  0  0  0  0
  191.6070  176.1800  145.4980 C   0  0  0  0  0  3  0  0  0  0  0  0
  191.1700  176.6760  147.8280 C   0  0  0  0  0  3  0  0  0  0  0  0
  191.9810  176.1040  146.8430 C   0  0  0  0  0  3  0  0  0  0  0  0
  1  2  1  0  0  0  0
  1  4  1  0  0  0  0
  2 11  1  0  0  0  0
  3  6  2  0  0  0  0
  3 13  1  0  0  0  0
  4 16  1  1  0  0  0
  5 12  1  0  0  0  0
  6 18  1  0  0  0  0
  7  8  1  0  0  0  0
  7  4  1  0  0  0  0
  8  5  2  0  0  0  0
  9 15  1  0  0  0  0
 10  9  1  0  0  0  0
 11 17  1  0  0  0  0
 13 14  1  0  0  0  0
 13  1  2  0  0  0  0
 14  7  2  0  0  0  0
 15 17  1  0  0  0  0
 16 12  2  0  0  0  0
 17 20  1  1  0  0  0
 18  9  1  0  0  0  0
 18  2  2  0  0  0  0
 19 24  1  0  0  0  0
 19 22  1  0  0  0  0
 20 23  2  0  0  0  0
 20 21  1  0  0  0  0
 21 19  2  0  0  0  0
 23 25  1  0  0  0  0
 25 24  2  0  0  0  0
M  END
>  <MODEL>
3

>  <REMARK>
 VINA RESULT:     -10.2      2.674      5.422
  Name = 
  1 active torsions:
  status: ('A' for Active; 'I' for Inactive)
    1  A    between atoms: C_6  and  C_23
                            x       y       z     vdW  Elec       q    Type
                         _______ _______ _______ _____ _____    ______ ____

>  <TORSDO>
F 1

$$$$
=
 OpenBabel10272400503D

 25 29  0  0  1  0  0  0  0  0999 V2000
  186.5260  178.2610  143.7980 C   0  0  0  0  0  0  0  0  0  0  0  0
  187.6190  177.9520  142.9860 C   0  0  0  0  0  0  0  0  0  0  0  0
  187.6670  177.4590  145.7730 C   0  0  0  0  0  3  0  0  0  0  0  0
  185.2680  178.9710  143.4490 C   0  0  2  0  0  3  0  0  0  0  0  0
  182.4090  178.8300  143.7620 C   0  0  0  0  0  3  0  0  0  0  0  0
  188.7650  177.1060  144.9730 C   0  0  0  0  0  3  0  0  0  0  0  0
  184.5750  178.9680  144.7840 C   0  0  0  0  0  0  0  0  0  0  0  0
  183.1220  179.1460  144.8510 C   0  0  0  0  0  3  0  0  0  0  0  0
  189.8640  176.9660  142.7630 N   0  0  0  0  0  0  0  0  0  0  0  0
  191.2230  177.0150  143.2800 C   0  0  0  0  0  1  0  0  0  0  0  0
  187.6020  178.2750  141.5900 N   0  0  0  0  0  2  0  0  0  0  0  0
  183.0690  178.2730  142.5520 C   0  0  0  0  0  3  0  0  0  0  0  0
  186.5630  178.0440  145.1580 C   0  0  0  0  0  0  0  0  0  0  0  0
  185.3090  178.4550  145.7680 C   0  0  0  0  0  3  0  0  0  0  0  0
  189.6130  176.5660  141.0580 S   0  0  0  0  0  0  0  0  0  0  0  0
  184.4080  178.2750  142.4240 C   0  0  0  0  0  3  0  0  0  0  0  0
  188.7900  178.1590  140.7500 C   0  0  1  0  0  3  0  0  0  0  0  0
  188.7460  177.3390  143.5800 C   0  0  0  0  0  0  0  0  0  0  0  0
  186.7770  178.0810  137.5450 C   0  0  0  0  0  0  0  0  0  0  0  0
  188.4260  178.3030  139.3080 C   0  0  0  0  0  0  0  0  0  0  0  0
  187.1410  177.9460  138.8890 C   0  0  0  0  0  3  0  0  0  0  0  0
  185.1680  177.6310  137.0260 Cl  0  0  0  0  0  0  0  0  0  0  0  0
  189.3480  178.8010  138.3750 C   0  0  0  0  0  3  0  0  0  0  0  0
  187.6990  178.5750  136.6170 C   0  0  0  0  0  3  0  0  0  0  0  0
  188.9850  178.9350  137.0320 C   0  0  0  0  0  3  0  0  0  0  0  0
  1 13  1  0  0  0  0
  2 18  1  0  0  0  0
  2  1  2  0  0  0  0
  4 16  1  6  0  0  0
  4  1  1  0  0  0  0
  4  7  1  0  0  0  0
  5  8  2  0  0  0  0
  6  3  1  0  0  0  0
  7  8  1  0  0  0  0
  7 14  2  0  0  0  0
  9 10  1  0  0  0  0
  9 18  1  0  0  0  0
 11  2  1  0  0  0  0
 12  5  1  0  0  0  0
 13 14  1  0  0  0  0
 13  3  2  0  0  0  0
 15  9  1  0  0  0  0
 16 12  2  0  0  0  0
 17 20  1  6  0  0  0
 17 15  1  0  0  0  0
 17 11  1  0  0  0  0
 18  6  2  0  0  0  0
 19 21  1  0  0  0  0
 21 20  2  0  0  0  0
 22 19  1  0  0  0  0
 23 20  1  0  0  0  0
 24 25  1  0  0  0  0
 24 19  2  0  0  0  0
 25 23  2  0  0  0  0
M  END
>  <MODEL>
4

>  <REMARK>
 VINA RESULT:     -10.1      1.897      2.291
  Name = 
  1 active torsions:
  status: ('A' for Active; 'I' for Inactive)
    1  A    between atoms: C_6  and  C_23
                            x       y       z     vdW  Elec       q    Type
                         _______ _______ _______ _____ _____    ______ ____

>  <TORSDO>
F 1

$$$$
=
 OpenBabel10272400503D

 25 29  0  0  1  0  0  0  0  0999 V2000
  189.0090  177.3200  143.3990 C   0  0  0  0  0  0  0  0  0  0  0  0
  187.9900  177.6490  144.2960 C   0  0  0  0  0  0  0  0  0  0  0  0
  190.6470  177.2200  145.1760 C   0  0  0  0  0  3  0  0  0  0  0  0
  188.9200  177.0180  141.9470 C   0  0  2  0  0  3  0  0  0  0  0  0
  190.1570  177.6110  139.4150 C   0  0  0  0  0  3  0  0  0  0  0  0
  189.6470  177.5840  146.0920 C   0  0  0  0  0  3  0  0  0  0  0  0
  190.3660  176.7370  141.6390 C   0  0  0  0  0  0  0  0  0  0  0  0
  190.8500  176.8350  140.2590 C   0  0  0  0  0  3  0  0  0  0  0  0
  187.3060  178.1940  146.5970 N   0  0  0  0  0  0  0  0  0  0  0  0
  187.3320  177.7200  147.9720 C   0  0  0  0  0  1  0  0  0  0  0  0
  186.6390  177.7910  143.8400 N   0  0  0  0  0  2  0  0  0  0  0  0
  188.9730  178.3800  139.8810 C   0  0  0  0  0  3  0  0  0  0  0  0
  190.2950  177.0870  143.8350 C   0  0  0  0  0  0  0  0  0  0  0  0
  191.1560  176.7600  142.7100 C   0  0  0  0  0  3  0  0  0  0  0  0
  185.9220  179.1520  146.0500 S   0  0  0  0  0  0  0  0  0  0  0  0
  188.4260  178.1550  141.0890 C   0  0  0  0  0  3  0  0  0  0  0  0
  185.5170  177.9300  144.7640 C   0  0  1  0  0  3  0  0  0  0  0  0
  188.3220  177.8100  145.6610 C   0  0  0  0  0  0  0  0  0  0  0  0
  183.1290  178.6560  141.9180 C   0  0  0  0  0  0  0  0  0  0  0  0
  184.2780  178.3220  144.0260 C   0  0  0  0  0  0  0  0  0  0  0  0
  184.2810  178.3010  142.6280 C   0  0  0  0  0  3  0  0  0  0  0  0
  183.1380  178.6290  140.1690 Cl  0  0  0  0  0  0  0  0  0  0  0  0
  183.1140  178.6960  144.7140 C   0  0  0  0  0  3  0  0  0  0  0  0
  181.9710  179.0310  142.6060 C   0  0  0  0  0  3  0  0  0  0  0  0
  181.9640  179.0510  144.0040 C   0  0  0  0  0  3  0  0  0  0  0  0
  1 13  2  0  0  0  0
  1  2  1  0  0  0  0
  2 18  2  0  0  0  0
  3  6  2  0  0  0  0
  4 16  1  6  0  0  0
  4  1  1  0  0  0  0
  5 12  1  0  0  0  0
  5  8  2  0  0  0  0
  7  4  1  0  0  0  0
  7 14  2  0  0  0  0
  8  7  1  0  0  0  0
  9 10  1  0  0  0  0
 11  2  1  0  0  0  0
 11 17  1  0  0  0  0
 12 16  2  0  0  0  0
 13  3  1  0  0  0  0
 14 13  1  0  0  0  0
 15  9  1  0  0  0  0
 17 20  1  6  0  0  0
 17 15  1  0  0  0  0
 18  6  1  0  0  0  0
 18  9  1  0  0  0  0
 19 24  2  0  0  0  0
 19 21  1  0  0  0  0
 20 23  1  0  0  0  0
 21 20  2  0  0  0  0
 22 19  1  0  0  0  0
 24 25  1  0  0  0  0
 25 23  2  0  0  0  0
M  END
>  <MODEL>
5

>  <REMARK>
 VINA RESULT:      -9.8      2.646      6.113
  Name = 
  1 active torsions:
  status: ('A' for Active; 'I' for Inactive)
    1  A    between atoms: C_6  and  C_23
                            x       y       z     vdW  Elec       q    Type
                         _______ _______ _______ _____ _____    ______ ____

>  <TORSDO>
F 1

$$$$
=
 OpenBabel10272400503D

 25 29  0  0  1  0  0  0  0  0999 V2000
  187.6990  177.5790  145.4230 C   0  0  0  0  0  0  0  0  0  0  0  0
  186.9290  177.9710  144.3250 C   0  0  0  0  0  0  0  0  0  0  0  0
  185.9590  178.2290  146.9730 C   0  0  0  0  0  3  0  0  0  0  0  0
  189.0120  176.8850  145.4490 C   0  0  2  0  0  3  0  0  0  0  0  0
  191.6070  176.9610  146.6950 C   0  0  0  0  0  3  0  0  0  0  0  0
  185.1800  178.6620  145.8880 C   0  0  0  0  0  3  0  0  0  0  0  0
  189.2280  176.7670  146.9330 C   0  0  0  0  0  0  0  0  0  0  0  0
  190.5800  176.5650  147.4590 C   0  0  0  0  0  3  0  0  0  0  0  0
  184.8670  179.0010  143.4600 N   0  0  0  0  0  0  0  0  0  0  0  0
  183.4150  178.9280  143.4950 C   0  0  0  0  0  1  0  0  0  0  0  0
  187.4090  177.7650  142.9900 N   0  0  0  0  0  2  0  0  0  0  0  0
  191.3720  177.6260  145.3860 C   0  0  0  0  0  3  0  0  0  0  0  0
  187.2130  177.6830  146.7080 C   0  0  0  0  0  0  0  0  0  0  0  0
  188.2030  177.2060  147.6600 C   0  0  0  0  0  3  0  0  0  0  0  0
  185.6590  179.5390  141.9720 S   0  0  0  0  0  0  0  0  0  0  0  0
  190.1500  177.6520  144.8260 C   0  0  0  0  0  3  0  0  0  0  0  0
  186.5610  177.9660  141.8190 C   0  0  1  0  0  3  0  0  0  0  0  0
  185.6600  178.5470  144.5650 C   0  0  0  0  0  0  0  0  0  0  0  0
  189.5230  177.5820  139.4950 C   0  0  0  0  0  0  0  0  0  0  0  0
  187.3810  177.9390  140.5710 C   0  0  0  0  0  0  0  0  0  0  0  0
  188.7400  177.6210  140.6530 C   0  0  0  0  0  3  0  0  0  0  0  0
  191.2240  177.1860  139.6030 Cl  0  0  0  0  0  0  0  0  0  0  0  0
  186.8050  178.2130  139.3210 C   0  0  0  0  0  3  0  0  0  0  0  0
  188.9470  177.8590  138.2500 C   0  0  0  0  0  3  0  0  0  0  0  0
  187.5880  178.1740  138.1640 C   0  0  0  0  0  3  0  0  0  0  0  0
  1  4  1  0  0  0  0
  1 13  1  0  0  0  0
  2 18  1  0  0  0  0
  2  1  2  0  0  0  0
  4 16  1  1  0  0  0
  4  7  1  0  0  0  0
  5  8  2  0  0  0  0
  6  3  1  0  0  0  0
  7  8  1  0  0  0  0
  7 14  2  0  0  0  0
  9 10  1  0  0  0  0
  9 18  1  0  0  0  0
 11  2  1  0  0  0  0
 12  5  1  0  0  0  0
 13  3  2  0  0  0  0
 13 14  1  0  0  0  0
 15  9  1  0  0  0  0
 16 12  2  0  0  0  0
 17 20  1  6  0  0  0
 17 15  1  0  0  0  0
 17 11  1  0  0  0  0
 18  6  2  0  0  0  0
 19 22  1  0  0  0  0
 19 21  1  0  0  0  0
 20 21  2  0  0  0  0
 23 20  1  0  0  0  0
 24 19  2  0  0  0  0
 25 24  1  0  0  0  0
 25 23  2  0  0  0  0
M  END
>  <MODEL>
6

>  <REMARK>
 VINA RESULT:      -9.6      1.836      4.573
  Name = 
  1 active torsions:
  status: ('A' for Active; 'I' for Inactive)
    1  A    between atoms: C_6  and  C_23
                            x       y       z     vdW  Elec       q    Type
                         _______ _______ _______ _____ _____    ______ ____

>  <TORSDO>
F 1

$$$$
=
 OpenBabel10272400503D

 25 29  0  0  1  0  0  0  0  0999 V2000
  186.3350  178.1370  142.2150 C   0  0  0  0  0  0  0  0  0  0  0  0
  187.6980  177.9380  142.4480 C   0  0  0  0  0  0  0  0  0  0  0  0
  186.7070  178.4430  139.8450 C   0  0  0  0  0  3  0  0  0  0  0  0
  185.1930  178.0100  143.1560 C   0  0  2  0  0  3  0  0  0  0  0  0
  182.7910  179.3430  144.0200 C   0  0  0  0  0  3  0  0  0  0  0  0
  188.0850  178.2810  140.0590 C   0  0  0  0  0  3  0  0  0  0  0  0
  184.0470  178.3400  142.2390 C   0  0  0  0  0  0  0  0  0  0  0  0
  182.7700  178.7890  142.8010 C   0  0  0  0  0  3  0  0  0  0  0  0
  189.9990  177.8860  141.5730 N   0  0  0  0  0  0  0  0  0  0  0  0
  190.8560  177.2880  140.5620 C   0  0  0  0  0  1  0  0  0  0  0  0
  188.1700  177.6120  143.7620 N   0  0  0  0  0  2  0  0  0  0  0  0
  184.0730  179.5380  144.7480 C   0  0  0  0  0  3  0  0  0  0  0  0
  185.8550  178.3560  140.9420 C   0  0  0  0  0  0  0  0  0  0  0  0
  184.4110  178.5260  140.9730 C   0  0  0  0  0  3  0  0  0  0  0  0
  190.6970  178.3060  143.1430 S   0  0  0  0  0  0  0  0  0  0  0  0
  185.2140  178.9720  144.3160 C   0  0  0  0  0  3  0  0  0  0  0  0
  189.5470  177.1960  144.0120 C   0  0  1  0  0  3  0  0  0  0  0  0
  188.5900  178.0390  141.3550 C   0  0  0  0  0  0  0  0  0  0  0  0
  191.2850  176.5510  147.3120 C   0  0  0  0  0  0  0  0  0  0  0  0
  189.8280  177.1780  145.4800 C   0  0  0  0  0  0  0  0  0  0  0  0
  190.9990  176.5710  145.9430 C   0  0  0  0  0  3  0  0  0  0  0  0
  192.7510  175.7880  147.8870 Cl  0  0  0  0  0  0  0  0  0  0  0  0
  188.9440  177.7710  146.3930 C   0  0  0  0  0  3  0  0  0  0  0  0
  190.4010  177.1400  148.2210 C   0  0  0  0  0  3  0  0  0  0  0  0
  189.2300  177.7500  147.7610 C   0  0  0  0  0  3  0  0  0  0  0  0
  1  2  1  0  0  0  0
  1  4  1  0  0  0  0
  2 11  1  0  0  0  0
  3  6  2  0  0  0  0
  3 13  1  0  0  0  0
  4 16  1  1  0  0  0
  5 12  1  0  0  0  0
  6 18  1  0  0  0  0
  7  8  1  0  0  0  0
  7  4  1  0  0  0  0
  8  5  2  0  0  0  0
  9 15  1  0  0  0  0
 10  9  1  0  0  0  0
 11 17  1  0  0  0  0
 13 14  1  0  0  0  0
 13  1  2  0  0  0  0
 14  7  2  0  0  0  0
 15 17  1  0  0  0  0
 16 12  2  0  0  0  0
 17 20  1  1  0  0  0
 18  9  1  0  0  0  0
 18  2  2  0  0  0  0
 19 22  1  0  0  0  0
 19 24  1  0  0  0  0
 20 21  1  0  0  0  0
 20 23  2  0  0  0  0
 21 19  2  0  0  0  0
 23 25  1  0  0  0  0
 25 24  2  0  0  0  0
M  END
>  <MODEL>
7

>  <REMARK>
 VINA RESULT:      -9.5      2.491      5.321
  Name = 
  1 active torsions:
  status: ('A' for Active; 'I' for Inactive)
    1  A    between atoms: C_6  and  C_23
                            x       y       z     vdW  Elec       q    Type
                         _______ _______ _______ _____ _____    ______ ____

>  <TORSDO>
F 1

$$$$
=
 OpenBabel10272400503D

 25 29  0  0  1  0  0  0  0  0999 V2000
  187.7940  177.5450  145.1230 C   0  0  0  0  0  0  0  0  0  0  0  0
  187.0750  177.9160  143.9850 C   0  0  0  0  0  0  0  0  0  0  0  0
  185.9440  178.1200  146.5720 C   0  0  0  0  0  3  0  0  0  0  0  0
  189.1270  176.8980  145.2220 C   0  0  2  0  0  3  0  0  0  0  0  0
  191.6410  177.0580  146.6190 C   0  0  0  0  0  3  0  0  0  0  0  0
  185.2140  178.5320  145.4460 C   0  0  0  0  0  3  0  0  0  0  0  0
  189.2600  176.7770  146.7160 C   0  0  0  0  0  0  0  0  0  0  0  0
  190.5860  176.6200  147.3200 C   0  0  0  0  0  3  0  0  0  0  0  0
  185.0300  178.8780  143.0060 N   0  0  0  0  0  0  0  0  0  0  0  0
  183.5830  178.7520  142.9550 C   0  0  0  0  0  1  0  0  0  0  0  0
  187.6390  177.7370  142.6790 N   0  0  0  0  0  2  0  0  0  0  0  0
  191.4590  177.7240  145.3020 C   0  0  0  0  0  3  0  0  0  0  0  0
  187.2300  177.6210  146.3790 C   0  0  0  0  0  0  0  0  0  0  0  0
  188.1800  177.1730  147.3840 C   0  0  0  0  0  3  0  0  0  0  0  0
  185.8870  179.4540  141.5690 S   0  0  0  0  0  0  0  0  0  0  0  0
  190.2710  177.7100  144.6710 C   0  0  0  0  0  3  0  0  0  0  0  0
  186.8540  177.9160  141.4620 C   0  0  1  0  0  3  0  0  0  0  0  0
  185.7740  178.4440  144.1530 C   0  0  0  0  0  0  0  0  0  0  0  0
  188.0160  178.2300  137.8730 C   0  0  0  0  0  0  0  0  0  0  0  0
  187.7450  177.9280  140.2630 C   0  0  0  0  0  0  0  0  0  0  0  0
  187.1970  178.2060  139.0070 C   0  0  0  0  0  3  0  0  0  0  0  0
  187.3240  178.5770  136.3040 Cl  0  0  0  0  0  0  0  0  0  0  0  0
  189.1210  177.6790  140.3810 C   0  0  0  0  0  3  0  0  0  0  0  0
  189.3860  177.9790  137.9940 C   0  0  0  0  0  3  0  0  0  0  0  0
  189.9380  177.7030  139.2480 C   0  0  0  0  0  3  0  0  0  0  0  0
  1  4  1  0  0  0  0
  1 13  1  0  0  0  0
  2 18  1  0  0  0  0
  2  1  2  0  0  0  0
  4 16  1  1  0  0  0
  4  7  1  0  0  0  0
  5  8  2  0  0  0  0
  6  3  1  0  0  0  0
  7  8  1  0  0  0  0
  7 14  2  0  0  0  0
  9 18  1  0  0  0  0
 10  9  1  0  0  0  0
 11  2  1  0  0  0  0
 12  5  1  0  0  0  0
 13  3  2  0  0  0  0
 13 14  1  0  0  0  0
 15  9  1  0  0  0  0
 16 12  2  0  0  0  0
 17 20  1  6  0  0  0
 17 15  1  0  0  0  0
 17 11  1  0  0  0  0
 18  6  2  0  0  0  0
 19 24  2  0  0  0  0
 19 21  1  0  0  0  0
 20 23  1  0  0  0  0
 21 20  2  0  0  0  0
 22 19  1  0  0  0  0
 24 25  1  0  0  0  0
 25 23  2  0  0  0  0
M  END
>  <MODEL>
8

>  <REMARK>
 VINA RESULT:      -9.5      2.035      4.704
  Name = 
  1 active torsions:
  status: ('A' for Active; 'I' for Inactive)
    1  A    between atoms: C_6  and  C_23
                            x       y       z     vdW  Elec       q    Type
                         _______ _______ _______ _____ _____    ______ ____

>  <TORSDO>
F 1

$$$$
=
 OpenBabel10272400503D

 25 29  0  0  1  0  0  0  0  0999 V2000
  187.6580  177.6800  145.3330 C   0  0  0  0  0  0  0  0  0  0  0  0
  186.5740  178.0660  144.5410 C   0  0  0  0  0  0  0  0  0  0  0  0
  186.4250  178.1120  147.3680 C   0  0  0  0  0  3  0  0  0  0  0  0
  188.9580  177.0900  144.9210 C   0  0  2  0  0  3  0  0  0  0  0  0
  191.7980  177.3030  145.3520 C   0  0  0  0  0  3  0  0  0  0  0  0
  185.3340  178.5380  146.5950 C   0  0  0  0  0  3  0  0  0  0  0  0
  189.6130  176.9130  146.2640 C   0  0  0  0  0  0  0  0  0  0  0  0
  191.0710  176.7900  146.3540 C   0  0  0  0  0  3  0  0  0  0  0  0
  184.2910  178.9770  144.3970 N   0  0  0  0  0  0  0  0  0  0  0  0
  182.9230  178.7880  144.8520 C   0  0  0  0  0  1  0  0  0  0  0  0
  186.6460  177.9670  143.1130 N   0  0  0  0  0  2  0  0  0  0  0  0
  191.1440  178.0150  144.2220 C   0  0  0  0  0  3  0  0  0  0  0  0
  187.5730  177.6790  146.7080 C   0  0  0  0  0  0  0  0  0  0  0  0
  188.8280  177.2330  147.2900 C   0  0  0  0  0  3  0  0  0  0  0  0
  184.5700  179.6500  142.7850 S   0  0  0  0  0  0  0  0  0  0  0  0
  189.8120  177.9740  144.0490 C   0  0  0  0  0  3  0  0  0  0  0  0
  185.4770  178.1620  142.2610 C   0  0  1  0  0  3  0  0  0  0  0  0
  185.4030  178.5290  145.1840 C   0  0  0  0  0  0  0  0  0  0  0  0
  187.6520  178.3650  139.1700 C   0  0  0  0  0  0  0  0  0  0  0  0
  185.8870  178.2630  140.8280 C   0  0  0  0  0  0  0  0  0  0  0  0
  187.2480  178.2800  140.5060 C   0  0  0  0  0  3  0  0  0  0  0  0
  189.3570  178.3870  138.7740 Cl  0  0  0  0  0  0  0  0  0  0  0  0
  184.9300  178.3280  139.8040 C   0  0  0  0  0  3  0  0  0  0  0  0
  186.6960  178.4330  138.1520 C   0  0  0  0  0  3  0  0  0  0  0  0
  185.3350  178.4140  138.4690 C   0  0  0  0  0  3  0  0  0  0  0  0
  1 13  1  0  0  0  0
  2 18  1  0  0  0  0
  2  1  2  0  0  0  0
  4 16  1  6  0  0  0
  4  1  1  0  0  0  0
  4  7  1  0  0  0  0
  5  8  2  0  0  0  0
  6  3  1  0  0  0  0
  7  8  1  0  0  0  0
  7 14  2  0  0  0  0
  9 10  1  0  0  0  0
  9 18  1  0  0  0  0
 11  2  1  0  0  0  0
 12  5  1  0  0  0  0
 13 14  1  0  0  0  0
 13  3  2  0  0  0  0
 15  9  1  0  0  0  0
 16 12  2  0  0  0  0
 17 20  1  6  0  0  0
 17 15  1  0  0  0  0
 17 11  1  0  0  0  0
 18  6  2  0  0  0  0
 19 21  1  0  0  0  0
 21 20  2  0  0  0  0
 22 19  1  0  0  0  0
 23 20  1  0  0  0  0
 24 25  1  0  0  0  0
 24 19  2  0  0  0  0
 25 23  2  0  0  0  0
M  END
>  <MODEL>
9

>  <REMARK>
 VINA RESULT:      -9.3      2.334      4.917
  Name = 
  1 active torsions:
  status: ('A' for Active; 'I' for Inactive)
    1  A    between atoms: C_6  and  C_23
                            x       y       z     vdW  Elec       q    Type
                         _______ _______ _______ _____ _____    ______ ____

>  <TORSDO>
F 1

$$$$
