=
 OpenBabel10272413093D

 32 37  0  0  1  0  0  0  0  0999 V2000
  186.8250  177.6430  143.8250 C   0  0  2  0  0  3  0  0  0  0  0  0
  188.7690  177.2130  142.3380 C   0  0  2  0  0  3  0  0  0  0  0  0
  186.3050  178.3700  145.0580 C   0  0  0  0  0  2  0  0  0  0  0  0
  188.3470  177.8560  143.6730 C   0  0  2  0  0  3  0  0  0  0  0  0
  190.2480  176.9150  142.1290 C   0  0  0  0  0  0  0  0  0  0  0  0
  188.7820  178.8160  137.5060 C   0  0  0  0  0  2  0  0  0  0  0  0
  188.1590  178.1060  141.2510 C   0  0  2  0  0  3  0  0  0  0  0  0
  190.8910  177.2030  138.2440 S   0  0  0  0  0  0  0  0  0  0  0  0
  190.1820  177.8610  139.8040 C   0  0  2  0  0  3  0  0  0  0  0  0
  190.9980  176.0330  143.0910 C   0  0  2  0  0  3  0  0  0  0  0  0
  189.0960  177.3920  144.9390 C   0  0  1  0  0  3  0  0  0  0  0  0
  190.8430  177.1490  140.9510 C   0  0  0  0  0  3  0  0  0  0  0  0
  190.5440  177.8430  144.8590 C   0  0  0  0  0  2  0  0  0  0  0  0
  188.5010  178.0520  146.1850 C   0  0  0  0  0  2  0  0  0  0  0  0
  186.6550  178.0980  141.3720 C   0  0  0  0  0  3  0  0  0  0  0  0
  190.2380  174.7560  143.4070 C   0  0  0  0  0  1  0  0  0  0  0  0
  186.0340  177.9740  142.5580 C   0  0  0  0  0  0  0  0  0  0  0  0
  188.6500  177.7440  139.8480 C   0  0  2  0  0  3  0  0  0  0  0  0
  191.4650  176.7330  144.3670 C   0  0  0  0  0  2  0  0  0  0  0  0
  187.0000  177.8110  146.2900 C   0  0  0  0  0  2  0  0  0  0  0  0
  189.4630  177.5090  137.1430 C   0  0  0  0  0  2  0  0  0  0  0  0
  188.0060  178.6870  138.8160 C   0  0  0  0  0  2  0  0  0  0  0  0
  182.4260  179.4630  142.8350 C   0  0  2  0  0  3  0  0  0  0  0  0
  181.4100  178.6260  144.0390 Cl  0  0  0  0  0  0  0  0  0  0  0  0
  184.5270  177.9340  142.5390 C   0  0  2  0  0  3  0  0  0  0  0  0
  182.0220  179.0560  141.4180 C   0  0  0  0  0  2  0  0  0  0  0  0
  184.0120  177.5940  141.1400 C   0  0  0  0  0  2  0  0  0  0  0  0
  183.8780  179.1840  143.1000 C   0  0  0  0  0  0  0  0  0  0  0  0
  184.4900  179.9130  143.8680 O   0  0  0  0  0  0  0  0  0  0  0  0
  182.4920  177.6390  141.0890 C   0  0  2  0  0  3  0  0  0  0  0  0
  182.6650  175.9310  139.2820 C   0  0  0  0  0  1  0  0  0  0  0  0
  182.0270  177.2430  139.6990 C   0  0  0  0  0  2  0  0  0  0  0  0
  1  3  1  1  0  0  0
  2  5  1  6  0  0  0
  2  4  1  0  0  0  0
  3 20  1  0  0  0  0
  4  1  1  0  0  0  0
  4 11  1  0  0  0  0
  5 10  1  0  0  0  0
  6 22  1  0  0  0  0
  7 15  1  0  0  0  0
  7  2  1  0  0  0  0
  8  9  1  0  0  0  0
  9 18  1  0  0  0  0
  9 12  1  0  0  0  0
 10 16  1  0  0  0  0
 10 19  1  0  0  0  0
 11 14  1  0  0  0  0
 12  5  2  0  0  0  0
 13 11  1  0  0  0  0
 14 20  1  0  0  0  0
 15 17  2  0  0  0  0
 17  1  1  0  0  0  0
 18  7  1  0  0  0  0
 19 13  1  0  0  0  0
 21  6  1  0  0  0  0
 21  8  1  0  0  0  0
 22 18  1  0  0  0  0
 23 28  1  0  0  0  0
 23 24  1  0  0  0  0
 25 17  1  0  0  0  0
 25 28  1  0  0  0  0
 26 23  1  0  0  0  0
 27 25  1  0  0  0  0
 28 29  2  0  0  0  0
 30 27  1  0  0  0  0
 30 26  1  0  0  0  0
 31 32  1  0  0  0  0
 32 30  1  0  0  0  0
M  END
>  <MODEL>
1

>  <REMARK>
 VINA RESULT:      -9.1      0.000      0.000
  Name = 
  2 active torsions:
  status: ('A' for Active; 'I' for Inactive)
    1  A    between atoms: C_15  and  C_26
    2  A    between atoms: C_16  and  C_27
                            x       y       z     vdW  Elec       q    Type
                         _______ _______ _______ _____ _____    ______ ____

>  <TORSDO>
F 2

$$$$
=
 OpenBabel10272413093D

 32 37  0  0  1  0  0  0  0  0999 V2000
  185.5310  178.2530  142.5740 C   0  0  2  0  0  3  0  0  0  0  0  0
  187.7570  177.5130  141.7550 C   0  0  2  0  0  3  0  0  0  0  0  0
  184.7670  179.1320  143.5550 C   0  0  0  0  0  2  0  0  0  0  0  0
  187.0460  178.3080  142.8670 C   0  0  2  0  0  3  0  0  0  0  0  0
  189.1890  177.0600  142.0100 C   0  0  0  0  0  0  0  0  0  0  0  0
  189.3460  178.6720  137.0590 C   0  0  0  0  0  2  0  0  0  0  0  0
  187.5940  178.3580  140.4870 C   0  0  2  0  0  3  0  0  0  0  0  0
  190.9510  176.9410  138.4780 S   0  0  0  0  0  0  0  0  0  0  0  0
  189.9040  177.7980  139.7200 C   0  0  2  0  0  3  0  0  0  0  0  0
  189.5240  176.2000  143.2000 C   0  0  2  0  0  3  0  0  0  0  0  0
  187.3410  177.8900  144.3220 C   0  0  1  0  0  3  0  0  0  0  0  0
  190.1200  177.1310  141.0490 C   0  0  0  0  0  3  0  0  0  0  0  0
  188.7930  178.1940  144.6480 C   0  0  0  0  0  2  0  0  0  0  0  0
  186.4930  178.7100  145.2960 C   0  0  0  0  0  2  0  0  0  0  0  0
  186.1280  178.5030  140.1590 C   0  0  0  0  0  3  0  0  0  0  0  0
  188.5620  175.0320  143.3500 C   0  0  0  0  0  1  0  0  0  0  0  0
  185.1820  178.5430  141.1130 C   0  0  0  0  0  0  0  0  0  0  0  0
  188.4220  177.8290  139.3150 C   0  0  2  0  0  3  0  0  0  0  0  0
  189.6810  176.9630  144.5150 C   0  0  0  0  0  2  0  0  0  0  0  0
  185.0080  178.6220  144.9670 C   0  0  0  0  0  2  0  0  0  0  0  0
  189.9460  177.2810  136.9900 C   0  0  0  0  0  2  0  0  0  0  0  0
  188.2160  178.7340  138.0860 C   0  0  0  0  0  2  0  0  0  0  0  0
  182.2910  179.4410  138.6330 C   0  0  2  0  0  3  0  0  0  0  0  0
  181.0610  180.5160  139.3480 Cl  0  0  0  0  0  0  0  0  0  0  0  0
  183.7500  178.6430  140.6520 C   0  0  2  0  0  3  0  0  0  0  0  0
  181.7650  178.0090  138.5430 C   0  0  0  0  0  2  0  0  0  0  0  0
  183.1420  177.2520  140.4690 C   0  0  0  0  0  2  0  0  0  0  0  0
  183.5660  179.5160  139.4250 C   0  0  0  0  0  0  0  0  0  0  0  0
  184.3920  180.3690  139.1370 O   0  0  0  0  0  0  0  0  0  0  0  0
  181.7260  177.3410  139.9180 C   0  0  2  0  0  3  0  0  0  0  0  0
  181.4370  175.3600  138.4340 C   0  0  0  0  0  1  0  0  0  0  0  0
  181.1460  175.9430  139.8040 C   0  0  0  0  0  2  0  0  0  0  0  0
  1  4  1  0  0  0  0
  1  3  1  1  0  0  0
  2  5  1  1  0  0  0
  2  4  1  0  0  0  0
  3 20  1  0  0  0  0
  4 11  1  0  0  0  0
  5 10  1  0  0  0  0
  6 22  1  0  0  0  0
  7  2  1  0  0  0  0
  8  9  1  0  0  0  0
  9 12  1  0  0  0  0
 10 16  1  0  0  0  0
 10 19  1  0  0  0  0
 11 13  1  0  0  0  0
 11 14  1  0  0  0  0
 12  5  2  0  0  0  0
 15  7  1  0  0  0  0
 15 17  2  0  0  0  0
 17  1  1  0  0  0  0
 18  9  1  0  0  0  0
 18  7  1  0  0  0  0
 19 13  1  0  0  0  0
 20 14  1  0  0  0  0
 21  6  1  0  0  0  0
 21  8  1  0  0  0  0
 22 18  1  0  0  0  0
 23 24  1  0  0  0  0
 23 28  1  0  0  0  0
 25 17  1  0  0  0  0
 26 23  1  0  0  0  0
 26 30  1  0  0  0  0
 27 25  1  0  0  0  0
 28 25  1  0  0  0  0
 29 28  2  0  0  0  0
 30 27  1  0  0  0  0
 31 32  1  0  0  0  0
 32 30  1  0  0  0  0
M  END
>  <MODEL>
2

>  <REMARK>
 VINA RESULT:      -8.5      1.685      2.177
  Name = 
  2 active torsions:
  status: ('A' for Active; 'I' for Inactive)
    1  A    between atoms: C_15  and  C_26
    2  A    between atoms: C_16  and  C_27
                            x       y       z     vdW  Elec       q    Type
                         _______ _______ _______ _____ _____    ______ ____

>  <TORSDO>
F 2

$$$$
=
 OpenBabel10272413093D

 32 37  0  0  1  0  0  0  0  0999 V2000
  188.6250  177.8450  143.9890 C   0  0  2  0  0  3  0  0  0  0  0  0
  186.2760  178.4390  144.5370 C   0  0  2  0  0  3  0  0  0  0  0  0
  189.7970  176.9110  144.2650 C   0  0  0  0  0  2  0  0  0  0  0  0
  187.4650  177.5580  144.9670 C   0  0  2  0  0  3  0  0  0  0  0  0
  185.1580  178.6650  145.5460 C   0  0  0  0  0  0  0  0  0  0  0  0
  182.5640  177.9120  141.0920 C   0  0  0  0  0  2  0  0  0  0  0  0
  185.7960  177.8470  143.2070 C   0  0  2  0  0  3  0  0  0  0  0  0
  181.8570  179.1690  143.4390 S   0  0  0  0  0  0  0  0  0  0  0  0
  183.4030  178.2470  143.8010 C   0  0  2  0  0  3  0  0  0  0  0  0
  185.4500  179.2630  146.8970 C   0  0  2  0  0  3  0  0  0  0  0  0
  187.9340  177.6840  146.4300 C   0  0  1  0  0  3  0  0  0  0  0  0
  183.8710  178.6470  145.1720 C   0  0  0  0  0  3  0  0  0  0  0  0
  186.8490  177.1550  147.3520 C   0  0  0  0  0  2  0  0  0  0  0  0
  189.1720  176.8180  146.6710 C   0  0  0  0  0  2  0  0  0  0  0  0
  186.9000  177.9390  142.1820 C   0  0  0  0  0  3  0  0  0  0  0  0
  186.3340  180.4960  146.7970 C   0  0  0  0  0  1  0  0  0  0  0  0
  188.1990  177.8520  142.5210 C   0  0  0  0  0  0  0  0  0  0  0  0
  184.4800  178.4640  142.7280 C   0  0  2  0  0  3  0  0  0  0  0  0
  185.9900  178.2740  147.9290 C   0  0  0  0  0  2  0  0  0  0  0  0
  190.2880  177.1400  145.6850 C   0  0  0  0  0  2  0  0  0  0  0  0
  181.9840  179.2120  141.6150 C   0  0  0  0  0  2  0  0  0  0  0  0
  184.0580  177.8130  141.3980 C   0  0  0  0  0  2  0  0  0  0  0  0
  190.8060  176.6140  139.8780 C   0  0  2  0  0  3  0  0  0  0  0  0
  192.4010  177.3940  140.0460 Cl  0  0  0  0  0  0  0  0  0  0  0  0
  189.2060  178.0050  141.4100 C   0  0  2  0  0  3  0  0  0  0  0  0
  190.0480  177.1950  138.6850 C   0  0  0  0  0  2  0  0  0  0  0  0
  188.5350  178.5260  140.1390 C   0  0  0  0  0  2  0  0  0  0  0  0
  190.0250  176.7540  141.1540 C   0  0  0  0  0  0  0  0  0  0  0  0
  190.1560  175.9070  142.0240 O   0  0  0  0  0  0  0  0  0  0  0  0
  189.5250  178.6000  138.9850 C   0  0  2  0  0  3  0  0  0  0  0  0
  188.9680  178.2270  136.5850 C   0  0  0  0  0  1  0  0  0  0  0  0
  188.8290  179.1720  137.7640 C   0  0  0  0  0  2  0  0  0  0  0  0
  1  3  1  6  0  0  0
  1  4  1  0  0  0  0
  2  4  1  0  0  0  0
  2  5  1  1  0  0  0
  3 20  1  0  0  0  0
  4 11  1  0  0  0  0
  5 10  1  0  0  0  0
  6 22  1  0  0  0  0
  6 21  1  0  0  0  0
  7  2  1  0  0  0  0
  8  9  1  0  0  0  0
  9 12  1  0  0  0  0
 10 19  1  0  0  0  0
 11 14  1  0  0  0  0
 11 13  1  0  0  0  0
 12  5  2  0  0  0  0
 13 19  1  0  0  0  0
 15 17  2  0  0  0  0
 15  7  1  0  0  0  0
 16 10  1  0  0  0  0
 17  1  1  0  0  0  0
 18  7  1  0  0  0  0
 18  9  1  0  0  0  0
 20 14  1  0  0  0  0
 21  8  1  0  0  0  0
 22 18  1  0  0  0  0
 23 24  1  0  0  0  0
 23 28  1  0  0  0  0
 25 17  1  0  0  0  0
 26 30  1  0  0  0  0
 26 23  1  0  0  0  0
 27 25  1  0  0  0  0
 28 25  1  0  0  0  0
 28 29  2  0  0  0  0
 30 27  1  0  0  0  0
 31 32  1  0  0  0  0
 32 30  1  0  0  0  0
M  END
>  <MODEL>
3

>  <REMARK>
 VINA RESULT:      -8.0      3.292      6.415
  Name = 
  2 active torsions:
  status: ('A' for Active; 'I' for Inactive)
    1  A    between atoms: C_15  and  C_26
    2  A    between atoms: C_16  and  C_27
                            x       y       z     vdW  Elec       q    Type
                         _______ _______ _______ _____ _____    ______ ____

>  <TORSDO>
F 2

$$$$
=
 OpenBabel10272413093D

 32 37  0  0  1  0  0  0  0  0999 V2000
  187.1100  178.0660  139.7300 C   0  0  2  0  0  3  0  0  0  0  0  0
  185.1750  177.6370  138.2320 C   0  0  2  0  0  3  0  0  0  0  0  0
  188.4780  178.7200  139.8830 C   0  0  0  0  0  2  0  0  0  0  0  0
  186.6120  178.1910  138.2730 C   0  0  2  0  0  3  0  0  0  0  0  0
  184.5970  177.2610  136.8730 C   0  0  0  0  0  0  0  0  0  0  0  0
  180.5970  179.6340  139.2190 C   0  0  0  0  0  2  0  0  0  0  0  0
  184.3270  178.6550  139.0020 C   0  0  2  0  0  3  0  0  0  0  0  0
  180.6990  177.8310  137.1380 S   0  0  0  0  0  0  0  0  0  0  0  0
  182.4240  178.4010  137.4040 C   0  0  2  0  0  3  0  0  0  0  0  0
  185.2910  176.2550  135.9940 C   0  0  2  0  0  3  0  0  0  0  0  0
  187.6270  177.5750  137.2890 C   0  0  1  0  0  3  0  0  0  0  0  0
  183.3290  177.5530  136.5540 C   0  0  0  0  0  3  0  0  0  0  0  0
  187.2310  177.9360  135.8680 C   0  0  0  0  0  2  0  0  0  0  0  0
  189.0200  178.1660  137.5190 C   0  0  0  0  0  2  0  0  0  0  0  0
  184.8050  178.7360  140.4320 C   0  0  0  0  0  3  0  0  0  0  0  0
  185.6960  175.0080  136.7630 C   0  0  0  0  0  1  0  0  0  0  0  0
  186.0950  178.5530  140.7650 C   0  0  0  0  0  0  0  0  0  0  0  0
  182.8260  178.3810  138.8870 C   0  0  2  0  0  3  0  0  0  0  0  0
  186.4610  176.8130  135.1840 C   0  0  0  0  0  2  0  0  0  0  0  0
  189.4670  178.0150  138.9670 C   0  0  0  0  0  2  0  0  0  0  0  0
  179.9970  178.3210  138.7540 C   0  0  0  0  0  2  0  0  0  0  0  0
  182.0440  179.4480  139.6740 C   0  0  0  0  0  2  0  0  0  0  0  0
  185.4850  178.0060  144.5920 C   0  0  2  0  0  3  0  0  0  0  0  0
  185.6250  179.5060  145.5470 Cl  0  0  0  0  0  0  0  0  0  0  0  0
  186.4370  178.6130  142.2330 C   0  0  2  0  0  3  0  0  0  0  0  0
  186.7220  177.1300  144.7840 C   0  0  0  0  0  2  0  0  0  0  0  0
  187.6330  177.7150  142.5470 C   0  0  0  0  0  2  0  0  0  0  0  0
  185.2560  178.3360  143.1430 C   0  0  0  0  0  0  0  0  0  0  0  0
  184.1120  178.4930  142.7460 O   0  0  0  0  0  0  0  0  0  0  0  0
  187.9300  177.6990  144.0400 C   0  0  2  0  0  3  0  0  0  0  0  0
  189.5350  176.0740  143.0430 C   0  0  0  0  0  1  0  0  0  0  0  0
  189.1550  176.8400  144.2970 C   0  0  0  0  0  2  0  0  0  0  0  0
  1  3  1  6  0  0  0
  1 17  1  0  0  0  0
  2  5  1  6  0  0  0
  2  4  1  0  0  0  0
  2  7  1  0  0  0  0
  4  1  1  0  0  0  0
  6 22  1  0  0  0  0
  7 15  1  0  0  0  0
  8  9  1  0  0  0  0
  8 21  1  0  0  0  0
  9 18  1  0  0  0  0
 10 16  1  0  0  0  0
 10  5  1  0  0  0  0
 11 14  1  0  0  0  0
 11  4  1  0  0  0  0
 12  5  2  0  0  0  0
 12  9  1  0  0  0  0
 13 11  1  0  0  0  0
 14 20  1  0  0  0  0
 15 17  2  0  0  0  0
 17 25  1  0  0  0  0
 18  7  1  0  0  0  0
 18 22  1  0  0  0  0
 19 13  1  0  0  0  0
 19 10  1  0  0  0  0
 20  3  1  0  0  0  0
 21  6  1  0  0  0  0
 23 26  1  0  0  0  0
 23 24  1  0  0  0  0
 25 27  1  0  0  0  0
 25 28  1  0  0  0  0
 27 30  1  0  0  0  0
 28 23  1  0  0  0  0
 29 28  2  0  0  0  0
 30 32  1  0  0  0  0
 30 26  1  0  0  0  0
 31 32  1  0  0  0  0
M  END
>  <MODEL>
4

>  <REMARK>
 VINA RESULT:      -7.9      2.895      6.839
  Name = 
  2 active torsions:
  status: ('A' for Active; 'I' for Inactive)
    1  A    between atoms: C_15  and  C_26
    2  A    between atoms: C_16  and  C_27
                            x       y       z     vdW  Elec       q    Type
                         _______ _______ _______ _____ _____    ______ ____

>  <TORSDO>
F 2

$$$$
=
 OpenBabel10272413093D

 32 37  0  0  1  0  0  0  0  0999 V2000
  183.7360  178.2690  142.2730 C   0  0  2  0  0  3  0  0  0  0  0  0
  186.1560  177.9510  142.7380 C   0  0  2  0  0  3  0  0  0  0  0  0
  182.4970  179.1220  142.5170 C   0  0  0  0  0  2  0  0  0  0  0  0
  184.9120  178.7660  143.1420 C   0  0  2  0  0  3  0  0  0  0  0  0
  187.3400  177.9390  143.6960 C   0  0  0  0  0  0  0  0  0  0  0  0
  189.6230  178.4130  139.0380 C   0  0  0  0  0  2  0  0  0  0  0  0
  186.5100  178.4290  141.3250 C   0  0  2  0  0  3  0  0  0  0  0  0
  190.5630  177.4950  141.4590 S   0  0  0  0  0  0  0  0  0  0  0  0
  188.9580  178.3120  141.8130 C   0  0  2  0  0  3  0  0  0  0  0  0
  187.1740  177.4730  145.1180 C   0  0  2  0  0  3  0  0  0  0  0  0
  184.5320  178.7650  144.6360 C   0  0  1  0  0  3  0  0  0  0  0  0
  188.5980  178.0290  143.2450 C   0  0  0  0  0  3  0  0  0  0  0  0
  185.6070  179.4870  145.4290 C   0  0  0  0  0  2  0  0  0  0  0  0
  183.2310  179.5390  144.8570 C   0  0  0  0  0  2  0  0  0  0  0  0
  185.3690  178.1260  140.3850 C   0  0  0  0  0  3  0  0  0  0  0  0
  186.4060  176.1640  145.2050 C   0  0  0  0  0  1  0  0  0  0  0  0
  184.0870  178.1350  140.7900 C   0  0  0  0  0  0  0  0  0  0  0  0
  187.8520  177.8810  140.8370 C   0  0  2  0  0  3  0  0  0  0  0  0
  186.5950  178.5200  146.0700 C   0  0  0  0  0  2  0  0  0  0  0  0
  182.1020  179.0110  143.9810 C   0  0  0  0  0  2  0  0  0  0  0  0
  190.3490  177.2360  139.6620 C   0  0  0  0  0  2  0  0  0  0  0  0
  188.1430  178.4130  139.4220 C   0  0  0  0  0  2  0  0  0  0  0  0
  182.0950  178.5080  137.4430 C   0  0  2  0  0  3  0  0  0  0  0  0
  180.3330  178.6430  137.6850 Cl  0  0  0  0  0  0  0  0  0  0  0  0
  183.0440  177.7690  139.7650 C   0  0  2  0  0  3  0  0  0  0  0  0
  182.4610  177.1160  136.9330 C   0  0  0  0  0  2  0  0  0  0  0  0
  183.3530  176.4080  139.1410 C   0  0  0  0  0  2  0  0  0  0  0  0
  182.8180  178.8420  138.7170 C   0  0  0  0  0  0  0  0  0  0  0  0
  183.1120  180.0060  138.9440 O   0  0  0  0  0  0  0  0  0  0  0  0
  182.3560  176.0690  138.0420 C   0  0  2  0  0  3  0  0  0  0  0  0
  184.1590  174.4140  137.5730 C   0  0  0  0  0  1  0  0  0  0  0  0
  182.6690  174.6890  137.4910 C   0  0  0  0  0  2  0  0  0  0  0  0
  1  3  1  6  0  0  0
  1  4  1  0  0  0  0
  2  4  1  0  0  0  0
  2  5  1  1  0  0  0
  3 20  1  0  0  0  0
  4 11  1  0  0  0  0
  5 10  1  0  0  0  0
  6 22  1  0  0  0  0
  6 21  1  0  0  0  0
  7  2  1  0  0  0  0
  8  9  1  0  0  0  0
  9 12  1  0  0  0  0
 10 16  1  0  0  0  0
 10 19  1  0  0  0  0
 11 14  1  0  0  0  0
 11 13  1  0  0  0  0
 12  5  2  0  0  0  0
 13 19  1  0  0  0  0
 15 17  2  0  0  0  0
 15  7  1  0  0  0  0
 17  1  1  0  0  0  0
 18  7  1  0  0  0  0
 18  9  1  0  0  0  0
 20 14  1  0  0  0  0
 21  8  1  0  0  0  0
 22 18  1  0  0  0  0
 23 24  1  0  0  0  0
 23 28  1  0  0  0  0
 25 17  1  0  0  0  0
 26 23  1  0  0  0  0
 26 30  1  0  0  0  0
 27 25  1  0  0  0  0
 28 29  2  0  0  0  0
 28 25  1  0  0  0  0
 30 27  1  0  0  0  0
 32 31  1  0  0  0  0
 32 30  1  0  0  0  0
M  END
>  <MODEL>
5

>  <REMARK>
 VINA RESULT:      -7.7      2.191      3.917
  Name = 
  2 active torsions:
  status: ('A' for Active; 'I' for Inactive)
    1  A    between atoms: C_15  and  C_26
    2  A    between atoms: C_16  and  C_27
                            x       y       z     vdW  Elec       q    Type
                         _______ _______ _______ _____ _____    ______ ____

>  <TORSDO>
F 2

$$$$
=
 OpenBabel10272413093D

 32 37  0  0  1  0  0  0  0  0999 V2000
  185.5680  178.3500  142.6950 C   0  0  2  0  0  3  0  0  0  0  0  0
  187.7430  177.5490  141.8020 C   0  0  2  0  0  3  0  0  0  0  0  0
  184.8610  179.2420  143.7080 C   0  0  0  0  0  2  0  0  0  0  0  0
  187.0920  178.3540  142.9430 C   0  0  2  0  0  3  0  0  0  0  0  0
  189.1670  177.0490  142.0080 C   0  0  0  0  0  0  0  0  0  0  0  0
  189.2250  178.7090  137.0710 C   0  0  0  0  0  2  0  0  0  0  0  0
  187.5690  178.4130  140.5480 C   0  0  2  0  0  3  0  0  0  0  0  0
  190.8170  176.9130  138.4230 S   0  0  0  0  0  0  0  0  0  0  0  0
  189.8360  177.7890  139.7050 C   0  0  2  0  0  3  0  0  0  0  0  0
  189.5100  176.1660  143.1790 C   0  0  2  0  0  3  0  0  0  0  0  0
  187.4170  177.9110  144.3840 C   0  0  1  0  0  3  0  0  0  0  0  0
  190.0710  177.1010  141.0200 C   0  0  0  0  0  3  0  0  0  0  0  0
  188.8870  178.1660  144.6680 C   0  0  0  0  0  2  0  0  0  0  0  0
  186.6250  178.7470  145.3920 C   0  0  0  0  0  2  0  0  0  0  0  0
  186.0990  178.6080  140.2660 C   0  0  0  0  0  3  0  0  0  0  0  0
  188.5170  175.0280  143.3470 C   0  0  0  0  0  1  0  0  0  0  0  0
  185.1840  178.6670  141.2490 C   0  0  0  0  0  0  0  0  0  0  0  0
  188.3440  177.8710  139.3460 C   0  0  2  0  0  3  0  0  0  0  0  0
  189.7320  176.9100  144.4960 C   0  0  0  0  0  2  0  0  0  0  0  0
  185.1290  178.7090  145.1070 C   0  0  0  0  0  2  0  0  0  0  0  0
  189.7780  177.3010  136.9700 C   0  0  0  0  0  2  0  0  0  0  0  0
  188.1290  178.7950  138.1330 C   0  0  0  0  0  2  0  0  0  0  0  0
  181.9040  177.6980  139.3480 C   0  0  2  0  0  3  0  0  0  0  0  0
  181.2660  179.0160  138.3290 Cl  0  0  0  0  0  0  0  0  0  0  0  0
  183.7420  178.8170  140.8330 C   0  0  2  0  0  3  0  0  0  0  0  0
  181.0700  177.5510  140.6200 C   0  0  0  0  0  2  0  0  0  0  0  0
  182.8110  178.6240  142.0310 C   0  0  0  0  0  2  0  0  0  0  0  0
  183.3540  177.9400  139.6590 C   0  0  0  0  0  0  0  0  0  0  0  0
  184.2030  177.5220  138.8860 O   0  0  0  0  0  0  0  0  0  0  0  0
  181.3510  178.6850  141.6050 C   0  0  2  0  0  3  0  0  0  0  0  0
  181.2720  178.7880  144.0940 C   0  0  0  0  0  1  0  0  0  0  0  0
  180.4670  178.5440  142.8310 C   0  0  0  0  0  2  0  0  0  0  0  0
  1  4  1  0  0  0  0
  1  3  1  1  0  0  0
  2  5  1  1  0  0  0
  2  4  1  0  0  0  0
  3 20  1  0  0  0  0
  4 11  1  0  0  0  0
  5 10  1  0  0  0  0
  6 22  1  0  0  0  0
  7  2  1  0  0  0  0
  8  9  1  0  0  0  0
  9 12  1  0  0  0  0
 10 16  1  0  0  0  0
 10 19  1  0  0  0  0
 11 13  1  0  0  0  0
 11 14  1  0  0  0  0
 12  5  2  0  0  0  0
 15  7  1  0  0  0  0
 15 17  2  0  0  0  0
 17  1  1  0  0  0  0
 18  9  1  0  0  0  0
 18  7  1  0  0  0  0
 19 13  1  0  0  0  0
 20 14  1  0  0  0  0
 21  6  1  0  0  0  0
 21  8  1  0  0  0  0
 22 18  1  0  0  0  0
 23 28  1  0  0  0  0
 23 26  1  0  0  0  0
 24 23  1  0  0  0  0
 25 17  1  0  0  0  0
 25 27  1  0  0  0  0
 26 30  1  0  0  0  0
 28 25  1  0  0  0  0
 29 28  2  0  0  0  0
 30 27  1  0  0  0  0
 30 32  1  0  0  0  0
 32 31  1  0  0  0  0
M  END
>  <MODEL>
6

>  <REMARK>
 VINA RESULT:      -7.3      1.772      2.499
  Name = 
  2 active torsions:
  status: ('A' for Active; 'I' for Inactive)
    1  A    between atoms: C_15  and  C_26
    2  A    between atoms: C_16  and  C_27
                            x       y       z     vdW  Elec       q    Type
                         _______ _______ _______ _____ _____    ______ ____

>  <TORSDO>
F 2

$$$$
=
 OpenBabel10272413093D

 32 37  0  0  1  0  0  0  0  0999 V2000
  190.0800  176.8920  140.2510 C   0  0  2  0  0  3  0  0  0  0  0  0
  188.1870  176.9690  138.6440 C   0  0  2  0  0  3  0  0  0  0  0  0
  191.5250  177.2850  140.5330 C   0  0  0  0  0  2  0  0  0  0  0  0
  189.6900  177.2660  138.8050 C   0  0  2  0  0  3  0  0  0  0  0  0
  187.6320  176.8550  137.2300 C   0  0  0  0  0  0  0  0  0  0  0  0
  183.9460  179.5790  139.7050 C   0  0  0  0  0  2  0  0  0  0  0  0
  187.4740  178.0190  139.5030 C   0  0  2  0  0  3  0  0  0  0  0  0
  183.8700  178.0360  137.4240 S   0  0  0  0  0  0  0  0  0  0  0  0
  185.6470  178.2730  137.8180 C   0  0  2  0  0  3  0  0  0  0  0  0
  188.2010  175.8540  136.2590 C   0  0  2  0  0  3  0  0  0  0  0  0
  190.6450  176.6060  137.7890 C   0  0  1  0  0  3  0  0  0  0  0  0
  186.4480  177.3900  136.9040 C   0  0  0  0  0  3  0  0  0  0  0  0
  190.3920  177.1890  136.4100 C   0  0  0  0  0  2  0  0  0  0  0  0
  192.1000  176.9240  138.1390 C   0  0  0  0  0  2  0  0  0  0  0  0
  187.8790  177.8540  140.9480 C   0  0  0  0  0  3  0  0  0  0  0  0
  188.3550  174.4760  136.8830 C   0  0  0  0  0  1  0  0  0  0  0  0
  189.1020  177.4200  141.3020 C   0  0  0  0  0  0  0  0  0  0  0  0
  185.9570  178.0160  139.3010 C   0  0  2  0  0  3  0  0  0  0  0  0
  189.4890  176.2970  135.5660 C   0  0  0  0  0  2  0  0  0  0  0  0
  192.4360  176.5350  139.5730 C   0  0  0  0  0  2  0  0  0  0  0  0
  183.1680  178.4470  139.0610 C   0  0  0  0  0  2  0  0  0  0  0  0
  185.3160  179.1010  140.1850 C   0  0  0  0  0  2  0  0  0  0  0  0
  190.4940  178.4470  144.8120 C   0  0  2  0  0  3  0  0  0  0  0  0
  191.5800  177.2230  145.5230 Cl  0  0  0  0  0  0  0  0  0  0  0  0
  189.3660  177.2530  142.7770 C   0  0  2  0  0  3  0  0  0  0  0  0
  189.1280  178.4140  145.4950 C   0  0  0  0  0  2  0  0  0  0  0  0
  188.0570  177.2690  143.5670 C   0  0  0  0  0  2  0  0  0  0  0  0
  190.3800  178.2370  143.3280 C   0  0  0  0  0  0  0  0  0  0  0  0
  191.1910  178.7760  142.5900 O   0  0  0  0  0  0  0  0  0  0  0  0
  188.3180  177.1910  145.0640 C   0  0  2  0  0  3  0  0  0  0  0  0
  185.9760  178.0400  145.1040 C   0  0  0  0  0  1  0  0  0  0  0  0
  186.9920  177.1550  145.8020 C   0  0  0  0  0  2  0  0  0  0  0  0
  1  3  1  1  0  0  0
  1 17  1  0  0  0  0
  2  5  1  6  0  0  0
  2  4  1  0  0  0  0
  2  7  1  0  0  0  0
  4  1  1  0  0  0  0
  6 22  1  0  0  0  0
  7 15  1  0  0  0  0
  8  9  1  0  0  0  0
  8 21  1  0  0  0  0
  9 18  1  0  0  0  0
 10 16  1  0  0  0  0
 10  5  1  0  0  0  0
 11 14  1  0  0  0  0
 11  4  1  0  0  0  0
 12  5  2  0  0  0  0
 12  9  1  0  0  0  0
 13 11  1  0  0  0  0
 14 20  1  0  0  0  0
 15 17  2  0  0  0  0
 17 25  1  0  0  0  0
 18  7  1  0  0  0  0
 18 22  1  0  0  0  0
 19 10  1  0  0  0  0
 19 13  1  0  0  0  0
 20  3  1  0  0  0  0
 21  6  1  0  0  0  0
 23 26  1  0  0  0  0
 23 24  1  0  0  0  0
 25 28  1  0  0  0  0
 25 27  1  0  0  0  0
 27 30  1  0  0  0  0
 28 23  1  0  0  0  0
 29 28  2  0  0  0  0
 30 26  1  0  0  0  0
 30 32  1  0  0  0  0
 31 32  1  0  0  0  0
M  END
>  <MODEL>
7

>  <REMARK>
 VINA RESULT:      -7.2      3.080      6.539
  Name = 
  2 active torsions:
  status: ('A' for Active; 'I' for Inactive)
    1  A    between atoms: C_15  and  C_26
    2  A    between atoms: C_16  and  C_27
                            x       y       z     vdW  Elec       q    Type
                         _______ _______ _______ _____ _____    ______ ____

>  <TORSDO>
F 2

$$$$
=
 OpenBabel10272413093D

 32 37  0  0  1  0  0  0  0  0999 V2000
  191.0050  176.4510  138.9070 C   0  0  2  0  0  3  0  0  0  0  0  0
  188.9360  176.0240  137.5990 C   0  0  2  0  0  3  0  0  0  0  0  0
  192.4450  176.9490  138.8800 C   0  0  0  0  0  2  0  0  0  0  0  0
  190.4260  176.3980  137.4760 C   0  0  2  0  0  3  0  0  0  0  0  0
  188.2280  175.5060  136.3540 C   0  0  0  0  0  0  0  0  0  0  0  0
  184.6900  178.6990  138.4570 C   0  0  0  0  0  2  0  0  0  0  0  0
  188.2630  177.2490  138.2270 C   0  0  2  0  0  3  0  0  0  0  0  0
  184.4460  176.5840  136.7080 S   0  0  0  0  0  0  0  0  0  0  0  0
  186.2390  176.9730  136.7890 C   0  0  2  0  0  3  0  0  0  0  0  0
  188.7430  174.2930  135.6250 C   0  0  2  0  0  3  0  0  0  0  0  0
  191.2950  175.5120  136.5620 C   0  0  1  0  0  3  0  0  0  0  0  0
  186.9820  175.8950  136.0520 C   0  0  0  0  0  3  0  0  0  0  0  0
  190.8460  175.6820  135.1220 C   0  0  0  0  0  2  0  0  0  0  0  0
  192.7580  175.9570  136.6200 C   0  0  0  0  0  2  0  0  0  0  0  0
  188.8440  177.5020  139.5970 C   0  0  0  0  0  3  0  0  0  0  0  0
  189.0570  173.1480  136.5730 C   0  0  0  0  0  1  0  0  0  0  0  0
  190.1250  177.2200  139.8930 C   0  0  0  0  0  0  0  0  0  0  0  0
  186.7360  177.1450  138.2330 C   0  0  2  0  0  3  0  0  0  0  0  0
  189.9090  174.5660  134.6760 C   0  0  0  0  0  2  0  0  0  0  0  0
  193.2840  175.9900  138.0500 C   0  0  0  0  0  2  0  0  0  0  0  0
  183.9160  177.4110  138.2500 C   0  0  0  0  0  2  0  0  0  0  0  0
  186.1340  178.4130  138.8650 C   0  0  0  0  0  2  0  0  0  0  0  0
  189.6930  178.3400  143.6180 C   0  0  2  0  0  3  0  0  0  0  0  0
  190.8550  179.5990  144.1120 Cl  0  0  0  0  0  0  0  0  0  0  0  0
  190.5710  177.4750  141.3110 C   0  0  2  0  0  3  0  0  0  0  0  0
  190.0940  176.9830  144.1960 C   0  0  0  0  0  2  0  0  0  0  0  0
  190.9390  176.1640  142.0070 C   0  0  0  0  0  2  0  0  0  0  0  0
  189.5850  178.2960  142.1200 C   0  0  0  0  0  0  0  0  0  0  0  0
  188.7730  179.0210  141.5630 O   0  0  0  0  0  0  0  0  0  0  0  0
  191.3040  176.4010  143.4650 C   0  0  2  0  0  3  0  0  0  0  0  0
  191.9830  175.2700  145.5790 C   0  0  0  0  0  1  0  0  0  0  0  0
  191.7130  175.0830  144.0980 C   0  0  0  0  0  2  0  0  0  0  0  0
  1  3  1  6  0  0  0
  1 17  1  0  0  0  0
  2  5  1  6  0  0  0
  2  7  1  0  0  0  0
  4  2  1  0  0  0  0
  4  1  1  0  0  0  0
  6 22  1  0  0  0  0
  7 18  1  0  0  0  0
  7 15  1  0  0  0  0
  8  9  1  0  0  0  0
  8 21  1  0  0  0  0
  9 18  1  0  0  0  0
 10  5  1  0  0  0  0
 10 16  1  0  0  0  0
 11 14  1  0  0  0  0
 11  4  1  0  0  0  0
 12  5  2  0  0  0  0
 12  9  1  0  0  0  0
 13 11  1  0  0  0  0
 14 20  1  0  0  0  0
 15 17  2  0  0  0  0
 17 25  1  0  0  0  0
 18 22  1  0  0  0  0
 19 13  1  0  0  0  0
 19 10  1  0  0  0  0
 20  3  1  0  0  0  0
 21  6  1  0  0  0  0
 23 24  1  0  0  0  0
 23 26  1  0  0  0  0
 25 27  1  0  0  0  0
 25 28  1  0  0  0  0
 27 30  1  0  0  0  0
 28 23  1  0  0  0  0
 29 28  2  0  0  0  0
 30 32  1  0  0  0  0
 30 26  1  0  0  0  0
 32 31  1  0  0  0  0
M  END
>  <MODEL>
8

>  <REMARK>
 VINA RESULT:      -6.9      3.334      7.415
  Name = 
  2 active torsions:
  status: ('A' for Active; 'I' for Inactive)
    1  A    between atoms: C_15  and  C_26
    2  A    between atoms: C_16  and  C_27
                            x       y       z     vdW  Elec       q    Type
                         _______ _______ _______ _____ _____    ______ ____

>  <TORSDO>
F 2

$$$$
=
 OpenBabel10272413093D

 32 37  0  0  1  0  0  0  0  0999 V2000
  183.8770  178.3700  141.9550 C   0  0  2  0  0  3  0  0  0  0  0  0
  186.3150  177.9250  142.1240 C   0  0  2  0  0  3  0  0  0  0  0  0
  182.7030  179.2140  142.4340 C   0  0  0  0  0  2  0  0  0  0  0  0
  185.1510  178.7110  142.7570 C   0  0  2  0  0  3  0  0  0  0  0  0
  187.5850  177.7500  142.9470 C   0  0  0  0  0  0  0  0  0  0  0  0
  189.4220  178.7920  138.1850 C   0  0  0  0  0  2  0  0  0  0  0  0
  186.5500  178.5810  140.7590 C   0  0  2  0  0  3  0  0  0  0  0  0
  190.5550  177.5270  140.3540 S   0  0  0  0  0  0  0  0  0  0  0  0
  189.0260  178.3320  140.9750 C   0  0  2  0  0  3  0  0  0  0  0  0
  187.5400  177.0990  144.3030 C   0  0  2  0  0  3  0  0  0  0  0  0
  184.9180  178.5160  144.2690 C   0  0  1  0  0  3  0  0  0  0  0  0
  188.7970  177.8660  142.3850 C   0  0  0  0  0  3  0  0  0  0  0  0
  186.0940  179.0940  145.0370 C   0  0  0  0  0  2  0  0  0  0  0  0
  183.6780  179.2880  144.7230 C   0  0  0  0  0  2  0  0  0  0  0  0
  185.3120  178.4400  139.9080 C   0  0  0  0  0  3  0  0  0  0  0  0
  186.7320  175.8120  144.2930 C   0  0  0  0  0  1  0  0  0  0  0  0
  184.0760  178.4290  140.4390 C   0  0  0  0  0  0  0  0  0  0  0  0
  187.8150  178.0680  140.0670 C   0  0  2  0  0  3  0  0  0  0  0  0
  187.1000  178.0220  145.4400 C   0  0  0  0  0  2  0  0  0  0  0  0
  182.4480  178.9150  143.9040 C   0  0  0  0  0  2  0  0  0  0  0  0
  190.1570  177.5220  138.5690 C   0  0  0  0  0  2  0  0  0  0  0  0
  187.9880  178.7800  138.7130 C   0  0  0  0  0  2  0  0  0  0  0  0
  180.7610  176.8070  139.1400 C   0  0  2  0  0  3  0  0  0  0  0  0
  180.9010  176.1480  137.4880 Cl  0  0  0  0  0  0  0  0  0  0  0  0
  182.9240  178.2350  139.4860 C   0  0  2  0  0  3  0  0  0  0  0  0
  179.9830  178.1230  139.1290 C   0  0  0  0  0  2  0  0  0  0  0  0
  182.0390  179.4810  139.4470 C   0  0  0  0  0  2  0  0  0  0  0  0
  182.1250  176.9730  139.7480 C   0  0  0  0  0  0  0  0  0  0  0  0
  182.6230  176.0330  140.3490 O   0  0  0  0  0  0  0  0  0  0  0  0
  180.8240  179.2630  138.5560 C   0  0  2  0  0  3  0  0  0  0  0  0
  180.9200  181.7490  138.4000 C   0  0  0  0  0  1  0  0  0  0  0  0
  180.0070  180.5420  138.5050 C   0  0  0  0  0  2  0  0  0  0  0  0
  1  3  1  1  0  0  0
  1  4  1  0  0  0  0
  2  4  1  0  0  0  0
  2  5  1  1  0  0  0
  3 20  1  0  0  0  0
  4 11  1  0  0  0  0
  5 10  1  0  0  0  0
  6 21  1  0  0  0  0
  6 22  1  0  0  0  0
  7  2  1  0  0  0  0
  8  9  1  0  0  0  0
  9 12  1  0  0  0  0
 10 19  1  0  0  0  0
 11 14  1  0  0  0  0
 11 13  1  0  0  0  0
 12  5  2  0  0  0  0
 13 19  1  0  0  0  0
 15 17  2  0  0  0  0
 15  7  1  0  0  0  0
 16 10  1  0  0  0  0
 17  1  1  0  0  0  0
 18  7  1  0  0  0  0
 18  9  1  0  0  0  0
 20 14  1  0  0  0  0
 21  8  1  0  0  0  0
 22 18  1  0  0  0  0
 23 28  1  0  0  0  0
 24 23  1  0  0  0  0
 25 28  1  0  0  0  0
 25 17  1  0  0  0  0
 26 23  1  0  0  0  0
 27 25  1  0  0  0  0
 28 29  2  0  0  0  0
 30 26  1  0  0  0  0
 30 27  1  0  0  0  0
 31 32  1  0  0  0  0
 32 30  1  0  0  0  0
M  END
>  <MODEL>
9

>  <REMARK>
 VINA RESULT:      -6.6      2.265      3.798
  Name = 
  2 active torsions:
  status: ('A' for Active; 'I' for Inactive)
    1  A    between atoms: C_15  and  C_26
    2  A    between atoms: C_16  and  C_27
                            x       y       z     vdW  Elec       q    Type
                         _______ _______ _______ _____ _____    ______ ____

>  <TORSDO>
F 2

$$$$
