=
 OpenBabel10272401163D

 55 60  0  0  1  0  0  0  0  0999 V2000
  190.5570  175.9050  138.5770 C   0  0  0  0  0  3  0  0  0  0  0  0
  186.1010  177.4260  137.9570 C   0  0  0  0  0  2  0  0  0  0  0  0
  185.2430  176.1130  134.6930 C   0  0  0  0  0  1  0  0  0  0  0  0
  188.5680  172.1530  135.6030 C   0  0  1  0  0  0  0  0  0  0  0  0
  188.2270  170.7410  135.3420 C   0  0  0  0  0  2  0  0  0  0  0  0
  187.1530  175.3940  135.9870 C   0  0  0  0  0  0  0  0  0  0  0  0
  188.1010  171.7330  134.3460 O   0  0  0  0  0  0  0  0  0  0  0  0
  191.5780  176.5450  140.7360 C   0  0  0  0  0  3  0  0  0  0  0  0
  187.5480  173.0350  136.3120 C   0  0  2  0  0  3  0  0  0  0  0  0
  189.3760  178.1610  141.3800 C   0  0  0  0  0  0  0  0  0  0  0  0
  189.4470  175.5530  137.9310 C   0  0  0  0  0  3  0  0  0  0  0  0
  189.4190  177.4700  140.1600 C   0  0  0  0  0  3  0  0  0  0  0  0
  190.3650  173.5640  136.6520 C   0  0  2  0  0  3  0  0  0  0  0  0
  186.3430  178.7320  138.6840 C   0  0  0  0  0  2  0  0  0  0  0  0
  190.0360  172.5620  135.5410 C   0  0  0  0  0  2  0  0  0  0  0  0
  186.3330  177.6310  136.4690 C   0  0  0  0  0  2  0  0  0  0  0  0
  186.2780  176.3310  135.7370 C   0  0  0  0  0  0  0  0  0  0  0  0
  191.5350  177.2190  141.9610 C   0  0  0  0  0  3  0  0  0  0  0  0
  186.4930  178.4810  140.1710 C   0  0  1  0  0  3  0  0  0  0  0  0
  190.5130  176.6550  139.8380 C   0  0  0  0  0  0  0  0  0  0  0  0
  188.0160  174.4580  136.2740 C   0  0  0  0  0  0  0  0  0  0  0  0
  189.4450  174.8150  136.6210 C   0  0  1  0  0  3  0  0  0  0  0  0
  187.4150  179.5460  140.7420 C   0  0  0  0  0  2  0  0  0  0  0  0
  188.3060  179.0010  141.7120 O   0  0  0  0  0  0  0  0  0  0  0  0
  190.4320  178.0180  142.2850 C   0  0  0  0  0  3  0  0  0  0  0  0
  192.2990  174.5720  135.4290 C   0  0  0  0  0  3  0  0  0  0  0  0
  194.5230  174.6600  136.3990 C   0  0  0  0  0  0  0  0  0  0  0  0
  192.6900  173.6560  137.6350 C   0  0  0  0  0  3  0  0  0  0  0  0
  194.0360  174.0200  137.5470 C   0  0  0  0  0  3  0  0  0  0  0  0
  193.6460  174.9350  135.3420 C   0  0  0  0  0  3  0  0  0  0  0  0
  191.8170  173.9280  136.5730 C   0  0  0  0  0  0  0  0  0  0  0  0
  195.9390  175.0510  136.3040 C   0  0  0  0  0  0  0  0  0  0  0  0
  196.8500  174.2130  136.5380 O   0  0  0  0  0  1  0  0  0  0  0  0
  196.2830  176.3520  135.9530 O   0  0  0  0  0  0  0  0  0  0  0  0
  187.4160  172.6260  137.6410 O   0  0  0  0  0  0  0  0  0  0  0  0
  186.1180  172.6270  137.8600 O   0  0  0  0  0  1  0  0  0  0  0  0
  185.1320  178.5420  140.8440 C   0  0  0  0  0  2  0  0  0  0  0  0
  185.2100  179.3260  142.1480 C   0  0  0  0  0  2  0  0  0  0  0  0
  184.6600  177.2010  143.0450 F   0  0  0  0  0  0  0  0  0  0  0  0
  185.2700  178.4010  143.3680 C   0  0  0  0  0  0  0  0  0  0  0  0
  186.6010  178.1570  143.6740 F   0  0  0  0  0  0  0  0  0  0  0  0
  184.5400  179.0380  144.5840 C   0  0  2  0  0  0  0  0  0  0  0  0
  184.3660  180.3900  144.3230 F   0  0  0  0  0  0  0  0  0  0  0  0
  184.8490  177.9660  146.9030 C   0  0  0  0  0  2  0  0  0  0  0  0
  185.7980  180.1360  146.4740 O   0  0  0  0  0  1  0  0  0  0  0  0
  185.3880  178.9380  145.8760 C   0  0  2  0  0  0  0  0  0  0  0  0
  186.1800  177.6720  146.2100 C   0  0  1  0  0  3  0  0  0  0  0  0
  187.3350  177.9210  147.1390 C   0  0  0  0  0  0  0  0  0  0  0  0
  187.1300  178.1940  148.3120 O   0  0  0  0  0  0  0  0  0  0  0  0
  188.7360  177.8850  146.6240 C   0  0  0  0  0  2  0  0  0  0  0  0
  188.7900  177.1350  145.4470 O   0  0  0  0  0  1  0  0  0  0  0  0
  183.2210  178.4910  144.7560 O   0  0  0  0  0  0  0  0  0  0  0  0
  182.0670  178.8120  144.0250 C   0  0  0  0  0  0  0  0  0  0  0  0
  180.9240  178.7890  144.5520 O   0  0  0  0  0  1  0  0  0  0  0  0
  182.1900  179.1690  142.6900 O   0  0  0  0  0  0  0  0  0  0  0  0
  1 20  1  0  0  0  0
  2 14  1  0  0  0  0
  3 17  1  0  0  0  0
  4  5  1  1  0  0  0
  4  9  1  0  0  0  0
  6 21  2  0  0  0  0
  7  5  1  0  0  0  0
  7  4  1  0  0  0  0
  8 18  1  0  0  0  0
  9 35  1  1  0  0  0
 10 24  1  0  0  0  0
 10 25  1  0  0  0  0
 11  1  2  0  0  0  0
 12 10  2  0  0  0  0
 13 31  1  6  0  0  0
 14 19  1  0  0  0  0
 15  4  1  0  0  0  0
 15 13  1  0  0  0  0
 16  2  1  0  0  0  0
 17  6  2  0  0  0  0
 17 16  1  0  0  0  0
 18 25  2  0  0  0  0
 19 23  1  0  0  0  0
 19 37  1  1  0  0  0
 20 12  1  0  0  0  0
 20  8  2  0  0  0  0
 21  9  1  0  0  0  0
 21 22  1  0  0  0  0
 22 13  1  0  0  0  0
 22 11  1  1  0  0  0
 23 24  1  0  0  0  0
 26 31  1  0  0  0  0
 27 29  2  0  0  0  0
 29 28  1  0  0  0  0
 30 26  2  0  0  0  0
 30 27  1  0  0  0  0
 31 28  2  0  0  0  0
 32 27  1  0  0  0  0
 32 33  1  0  0  0  0
 34 32  2  0  0  0  0
 35 36  1  0  0  0  0
 37 38  1  0  0  0  0
 38 40  1  0  0  0  0
 39 40  1  0  0  0  0
 40 41  1  0  0  0  0
 40 42  1  0  0  0  0
 42 43  1  6  0  0  0
 42 52  1  0  0  0  0
 42 46  1  0  0  0  0
 46 47  1  0  0  0  0
 46 45  1  1  0  0  0
 46 44  1  0  0  0  0
 47 44  1  0  0  0  0
 47 48  1  1  0  0  0
 48 49  2  0  0  0  0
 50 48  1  0  0  0  0
 51 50  1  0  0  0  0
 53 54  1  0  0  0  0
 53 52  1  0  0  0  0
 55 53  2  0  0  0  0
M  END
>  <MODEL>
1

>  <REMARK>
 VINA RESULT:      -6.1      0.000      0.000
  Name = 
  12 active torsions:
  status: ('A' for Active; 'I' for Inactive)
    1  A    between atoms: C_1  and  O_53
    2  A    between atoms: C_6  and  C_14
    3  A    between atoms: C_6  and  C_20
    4  A    between atoms: C_6  and  O_53
    5  A    between atoms: C_8  and  C_22
    6  A    between atoms: C_8  and  C_43
    7  A    between atoms: O_9  and  C_26
    8  A    between atoms: C_10  and  C_32
    9  A    between atoms: C_11  and  C_29
   10  A    between atoms: C_20  and  C_22
   11  A    between atoms: C_29  and  C_38
   12  A    between atoms: C_33  and  C_52
                            x       y       z     vdW  Elec       q    Type
                         _______ _______ _______ _____ _____    ______ ____

>  <TORSDO>
F 12

$$$$
=
 OpenBabel10272401163D

 55 60  0  0  1  0  0  0  0  0999 V2000
  189.9910  176.1880  138.4560 C   0  0  0  0  0  3  0  0  0  0  0  0
  185.3800  177.2370  138.0040 C   0  0  0  0  0  2  0  0  0  0  0  0
  184.5370  175.8100  134.7830 C   0  0  0  0  0  1  0  0  0  0  0  0
  188.2860  172.2220  135.5850 C   0  0  1  0  0  0  0  0  0  0  0  0
  188.0830  170.7800  135.3450 C   0  0  0  0  0  2  0  0  0  0  0  0
  186.5590  175.3040  136.0050 C   0  0  0  0  0  0  0  0  0  0  0  0
  187.8170  171.7440  134.3500 O   0  0  0  0  0  0  0  0  0  0  0  0
  191.0230  176.9520  140.5690 C   0  0  0  0  0  3  0  0  0  0  0  0
  187.2080  173.0020  136.3280 C   0  0  2  0  0  3  0  0  0  0  0  0
  188.6920  178.3390  141.2900 C   0  0  0  0  0  0  0  0  0  0  0  0
  188.8990  175.7180  137.8560 C   0  0  0  0  0  3  0  0  0  0  0  0
  188.7590  177.6430  140.0730 C   0  0  0  0  0  3  0  0  0  0  0  0
  189.9670  173.8210  136.5540 C   0  0  2  0  0  3  0  0  0  0  0  0
  185.5150  178.5670  138.7120 C   0  0  0  0  0  2  0  0  0  0  0  0
  189.7000  172.7790  135.4630 C   0  0  0  0  0  2  0  0  0  0  0  0
  185.5320  177.4500  136.5060 C   0  0  0  0  0  2  0  0  0  0  0  0
  185.5840  176.1430  135.7850 C   0  0  0  0  0  0  0  0  0  0  0  0
  190.9570  177.6290  141.7910 C   0  0  0  0  0  3  0  0  0  0  0  0
  185.7470  178.3480  140.1940 C   0  0  1  0  0  3  0  0  0  0  0  0
  189.9180  176.9420  139.7130 C   0  0  0  0  0  0  0  0  0  0  0  0
  187.5260  174.4650  136.2640 C   0  0  0  0  0  0  0  0  0  0  0  0
  188.9220  174.9700  136.5520 C   0  0  1  0  0  3  0  0  0  0  0  0
  186.5750  179.5080  140.7220 C   0  0  0  0  0  2  0  0  0  0  0  0
  187.5550  179.0670  141.6590 O   0  0  0  0  0  0  0  0  0  0  0  0
  189.7920  178.3130  142.1540 C   0  0  0  0  0  3  0  0  0  0  0  0
  191.6200  175.4230  135.5780 C   0  0  0  0  0  3  0  0  0  0  0  0
  193.9760  175.3430  136.1560 C   0  0  0  0  0  0  0  0  0  0  0  0
  192.4250  173.7500  137.1300 C   0  0  0  0  0  3  0  0  0  0  0  0
  193.7220  174.2540  137.0000 C   0  0  0  0  0  3  0  0  0  0  0  0
  192.9170  175.9250  135.4470 C   0  0  0  0  0  3  0  0  0  0  0  0
  191.3690  174.3310  136.4150 C   0  0  0  0  0  0  0  0  0  0  0  0
  195.3400  175.8820  136.0200 C   0  0  0  0  0  0  0  0  0  0  0  0
  196.3410  175.1360  136.1920 O   0  0  0  0  0  1  0  0  0  0  0  0
  195.5350  177.2200  135.6970 O   0  0  0  0  0  0  0  0  0  0  0  0
  187.1710  172.5950  137.6640 O   0  0  0  0  0  0  0  0  0  0  0  0
  186.0270  173.0610  138.1200 O   0  0  0  0  0  1  0  0  0  0  0  0
  184.4140  178.2750  140.9200 C   0  0  0  0  0  2  0  0  0  0  0  0
  183.3880  179.1830  140.2560 C   0  0  0  0  0  2  0  0  0  0  0  0
  181.9890  177.6030  141.3380 F   0  0  0  0  0  0  0  0  0  0  0  0
  181.9560  178.6800  140.4680 C   0  0  0  0  0  0  0  0  0  0  0  0
  181.2100  179.6970  141.0450 F   0  0  0  0  0  0  0  0  0  0  0  0
  181.3190  178.2330  139.1220 C   0  0  2  0  0  0  0  0  0  0  0  0
  179.9870  178.6200  139.1260 F   0  0  0  0  0  0  0  0  0  0  0  0
  180.1690  175.9840  139.6150 C   0  0  0  0  0  2  0  0  0  0  0  0
  182.5440  176.0310  139.2230 O   0  0  0  0  0  1  0  0  0  0  0  0
  181.3370  176.6930  138.9650 C   0  0  2  0  0  0  0  0  0  0  0  0
  180.3070  175.9720  138.0930 C   0  0  1  0  0  3  0  0  0  0  0  0
  180.7750  174.6280  137.6070 C   0  0  0  0  0  0  0  0  0  0  0  0
  180.7630  173.6660  138.3590 O   0  0  0  0  0  0  0  0  0  0  0  0
  181.3040  174.4730  136.2180 C   0  0  0  0  0  2  0  0  0  0  0  0
  182.3390  173.5360  136.2070 O   0  0  0  0  0  1  0  0  0  0  0  0
  181.9260  178.9000  138.0010 O   0  0  0  0  0  0  0  0  0  0  0  0
  181.2940  179.3240  136.8220 C   0  0  0  0  0  0  0  0  0  0  0  0
  181.1800  178.5650  135.8250 O   0  0  0  0  0  0  0  0  0  0  0  0
  180.7790  180.6110  136.7560 O   0  0  0  0  0  1  0  0  0  0  0  0
  1 20  1  0  0  0  0
  2 14  1  0  0  0  0
  3 17  1  0  0  0  0
  4  5  1  1  0  0  0
  4  9  1  0  0  0  0
  6 21  2  0  0  0  0
  7  5  1  0  0  0  0
  7  4  1  0  0  0  0
  8 18  1  0  0  0  0
  9 35  1  1  0  0  0
 10 24  1  0  0  0  0
 10 25  1  0  0  0  0
 11  1  2  0  0  0  0
 12 10  2  0  0  0  0
 13 31  1  6  0  0  0
 14 19  1  0  0  0  0
 15  4  1  0  0  0  0
 15 13  1  0  0  0  0
 16  2  1  0  0  0  0
 17  6  2  0  0  0  0
 17 16  1  0  0  0  0
 18 25  2  0  0  0  0
 19 23  1  0  0  0  0
 19 37  1  1  0  0  0
 20 12  1  0  0  0  0
 20  8  2  0  0  0  0
 21  9  1  0  0  0  0
 21 22  1  0  0  0  0
 22 13  1  0  0  0  0
 22 11  1  1  0  0  0
 23 24  1  0  0  0  0
 26 31  1  0  0  0  0
 27 29  2  0  0  0  0
 29 28  1  0  0  0  0
 30 26  2  0  0  0  0
 30 27  1  0  0  0  0
 31 28  2  0  0  0  0
 32 27  1  0  0  0  0
 32 33  1  0  0  0  0
 34 32  2  0  0  0  0
 35 36  1  0  0  0  0
 38 40  1  0  0  0  0
 38 37  1  0  0  0  0
 40 41  1  0  0  0  0
 40 39  1  0  0  0  0
 42 43  1  1  0  0  0
 42 40  1  0  0  0  0
 46 42  1  0  0  0  0
 46 45  1  1  0  0  0
 46 44  1  0  0  0  0
 47 48  1  1  0  0  0
 47 46  1  0  0  0  0
 47 44  1  0  0  0  0
 48 49  2  0  0  0  0
 50 48  1  0  0  0  0
 51 50  1  0  0  0  0
 52 42  1  0  0  0  0
 53 52  1  0  0  0  0
 54 53  2  0  0  0  0
 55 53  1  0  0  0  0
M  END
>  <MODEL>
2

>  <REMARK>
 VINA RESULT:      -5.8      2.920      4.958
  Name = 
  12 active torsions:
  status: ('A' for Active; 'I' for Inactive)
    1  A    between atoms: C_1  and  O_53
    2  A    between atoms: C_6  and  C_14
    3  A    between atoms: C_6  and  C_20
    4  A    between atoms: C_6  and  O_53
    5  A    between atoms: C_8  and  C_22
    6  A    between atoms: C_8  and  C_43
    7  A    between atoms: O_9  and  C_26
    8  A    between atoms: C_10  and  C_32
    9  A    between atoms: C_11  and  C_29
   10  A    between atoms: C_20  and  C_22
   11  A    between atoms: C_29  and  C_38
   12  A    between atoms: C_33  and  C_52
                            x       y       z     vdW  Elec       q    Type
                         _______ _______ _______ _____ _____    ______ ____

>  <TORSDO>
F 12

$$$$
=
 OpenBabel10272401163D

 55 60  0  0  1  0  0  0  0  0999 V2000
  187.7240  176.1450  138.2480 C   0  0  0  0  0  3  0  0  0  0  0  0
  192.3810  175.3410  137.7790 C   0  0  0  0  0  2  0  0  0  0  0  0
  193.8600  177.8860  139.8880 C   0  0  0  0  0  1  0  0  0  0  0  0
  189.5290  177.7010  142.8520 C   0  0  1  0  0  0  0  0  0  0  0  0
  189.5670  177.6370  144.3260 C   0  0  0  0  0  2  0  0  0  0  0  0
  191.5240  177.2710  139.9380 C   0  0  0  0  0  0  0  0  0  0  0  0
  190.2460  178.6440  143.6090 O   0  0  0  0  0  0  0  0  0  0  0  0
  186.2730  174.5920  136.9840 C   0  0  0  0  0  3  0  0  0  0  0  0
  190.4640  176.7990  142.0540 C   0  0  2  0  0  3  0  0  0  0  0  0
  188.4950  173.4280  135.7250 C   0  0  0  0  0  0  0  0  0  0  0  0
  188.8540  176.3040  138.9350 C   0  0  0  0  0  3  0  0  0  0  0  0
  188.6640  174.4820  136.6350 C   0  0  0  0  0  3  0  0  0  0  0  0
  187.9130  177.5520  140.9330 C   0  0  2  0  0  3  0  0  0  0  0  0
  192.2610  174.9250  136.3280 C   0  0  0  0  0  2  0  0  0  0  0  0
  188.3090  178.3320  142.1900 C   0  0  0  0  0  2  0  0  0  0  0  0
  192.6890  176.8280  137.8500 C   0  0  0  0  0  2  0  0  0  0  0  0
  192.6400  177.3150  139.2610 C   0  0  0  0  0  0  0  0  0  0  0  0
  186.0990  173.5310  136.0900 C   0  0  0  0  0  3  0  0  0  0  0  0
  191.5940  173.5680  136.2280 C   0  0  1  0  0  3  0  0  0  0  0  0
  187.5580  175.0610  137.2730 C   0  0  0  0  0  0  0  0  0  0  0  0
  190.4070  177.1870  140.6080 C   0  0  0  0  0  0  0  0  0  0  0  0
  189.0800  177.4190  139.9180 C   0  0  1  0  0  3  0  0  0  0  0  0
  190.8400  173.5060  134.9090 C   0  0  0  0  0  2  0  0  0  0  0  0
  189.5820  172.8530  135.0570 O   0  0  0  0  0  0  0  0  0  0  0  0
  187.2080  172.9460  135.4690 C   0  0  0  0  0  3  0  0  0  0  0  0
  185.6580  178.6110  141.1510 C   0  0  0  0  0  3  0  0  0  0  0  0
  184.4280  179.4150  139.2190 C   0  0  0  0  0  0  0  0  0  0  0  0
  186.6080  178.3850  138.9370 C   0  0  0  0  0  3  0  0  0  0  0  0
  185.4770  178.9960  138.3900 C   0  0  0  0  0  3  0  0  0  0  0  0
  184.5260  179.2190  140.6030 C   0  0  0  0  0  3  0  0  0  0  0  0
  186.7010  178.1870  140.3210 C   0  0  0  0  0  0  0  0  0  0  0  0
  183.2360  180.0640  138.6480 C   0  0  0  0  0  0  0  0  0  0  0  0
  182.3410  179.3770  138.0880 O   0  0  0  0  0  0  0  0  0  0  0  0
  183.0880  181.4450  138.7250 O   0  0  0  0  0  1  0  0  0  0  0  0
  190.0640  175.4680  142.1930 O   0  0  0  0  0  0  0  0  0  0  0  0
  190.8650  174.9750  143.1130 O   0  0  0  0  0  1  0  0  0  0  0  0
  192.6430  172.4710  136.2900 C   0  0  0  0  0  2  0  0  0  0  0  0
  193.9120  172.8970  135.5640 C   0  0  0  0  0  2  0  0  0  0  0  0
  194.4950  170.6460  136.0340 F   0  0  0  0  0  0  0  0  0  0  0  0
  195.0470  171.8850  135.7550 C   0  0  0  0  0  0  0  0  0  0  0  0
  195.7660  171.7970  134.5720 F   0  0  0  0  0  0  0  0  0  0  0  0
  195.9770  172.3080  136.9270 C   0  0  2  0  0  0  0  0  0  0  0  0
  195.2870  172.1160  138.1160 F   0  0  0  0  0  0  0  0  0  0  0  0
  197.8190  174.0960  136.7550 C   0  0  0  0  0  2  0  0  0  0  0  0
  195.7160  174.6690  137.7750 O   0  0  0  0  0  1  0  0  0  0  0  0
  196.3370  173.8130  136.8570 C   0  0  2  0  0  0  0  0  0  0  0  0
  196.9020  174.4360  135.5800 C   0  0  1  0  0  3  0  0  0  0  0  0
  196.6720  175.9180  135.4880 C   0  0  0  0  0  0  0  0  0  0  0  0
  197.4750  176.6940  135.9820 O   0  0  0  0  0  0  0  0  0  0  0  0
  195.4370  176.4490  134.8360 C   0  0  0  0  0  2  0  0  0  0  0  0
  195.0640  177.6530  135.4370 O   0  0  0  0  0  1  0  0  0  0  0  0
  197.1460  171.4730  137.0040 O   0  0  0  0  0  0  0  0  0  0  0  0
  197.1950  170.1100  137.3350 C   0  0  0  0  0  0  0  0  0  0  0  0
  198.1100  169.3600  136.9070 O   0  0  0  0  0  0  0  0  0  0  0  0
  196.2140  169.5790  138.1600 O   0  0  0  0  0  1  0  0  0  0  0  0
  1 11  2  0  0  0  0
  2 16  1  0  0  0  0
  4 15  1  6  0  0  0
  4  7  1  0  0  0  0
  4  5  1  0  0  0  0
  6 21  2  0  0  0  0
  7  5  1  0  0  0  0
  8 20  1  0  0  0  0
  9 35  1  6  0  0  0
  9  4  1  0  0  0  0
 10 12  1  0  0  0  0
 12 20  2  0  0  0  0
 13 31  1  6  0  0  0
 13 15  1  0  0  0  0
 14  2  1  0  0  0  0
 16 17  1  0  0  0  0
 17  3  1  0  0  0  0
 17  6  2  0  0  0  0
 18  8  2  0  0  0  0
 19 37  1  6  0  0  0
 19 14  1  0  0  0  0
 20  1  1  0  0  0  0
 21  9  1  0  0  0  0
 22 11  1  6  0  0  0
 22 21  1  0  0  0  0
 22 13  1  0  0  0  0
 23 24  1  0  0  0  0
 23 19  1  0  0  0  0
 24 10  1  0  0  0  0
 25 10  2  0  0  0  0
 25 18  1  0  0  0  0
 27 30  2  0  0  0  0
 28 31  1  0  0  0  0
 29 28  2  0  0  0  0
 29 27  1  0  0  0  0
 30 26  1  0  0  0  0
 31 26  2  0  0  0  0
 32 34  1  0  0  0  0
 32 27  1  0  0  0  0
 33 32  2  0  0  0  0
 35 36  1  0  0  0  0
 38 40  1  0  0  0  0
 38 37  1  0  0  0  0
 40 39  1  0  0  0  0
 40 42  1  0  0  0  0
 41 40  1  0  0  0  0
 42 52  1  0  0  0  0
 42 43  1  1  0  0  0
 44 46  1  0  0  0  0
 46 42  1  0  0  0  0
 46 45  1  1  0  0  0
 47 48  1  1  0  0  0
 47 44  1  0  0  0  0
 47 46  1  0  0  0  0
 48 49  2  0  0  0  0
 50 51  1  0  0  0  0
 50 48  1  0  0  0  0
 52 53  1  0  0  0  0
 53 55  1  0  0  0  0
 54 53  2  0  0  0  0
M  END
>  <MODEL>
3

>  <REMARK>
 VINA RESULT:      -5.1      4.161     11.494
  Name = 
  12 active torsions:
  status: ('A' for Active; 'I' for Inactive)
    1  A    between atoms: C_1  and  O_53
    2  A    between atoms: C_6  and  C_14
    3  A    between atoms: C_6  and  C_20
    4  A    between atoms: C_6  and  O_53
    5  A    between atoms: C_8  and  C_22
    6  A    between atoms: C_8  and  C_43
    7  A    between atoms: O_9  and  C_26
    8  A    between atoms: C_10  and  C_32
    9  A    between atoms: C_11  and  C_29
   10  A    between atoms: C_20  and  C_22
   11  A    between atoms: C_29  and  C_38
   12  A    between atoms: C_33  and  C_52
                            x       y       z     vdW  Elec       q    Type
                         _______ _______ _______ _____ _____    ______ ____

>  <TORSDO>
F 12

$$$$
=
 OpenBabel10272401163D

 55 60  0  0  1  0  0  0  0  0999 V2000
  187.4700  176.2390  138.2650 C   0  0  0  0  0  3  0  0  0  0  0  0
  192.0940  175.3430  137.6570 C   0  0  0  0  0  2  0  0  0  0  0  0
  193.6850  177.8270  139.7570 C   0  0  0  0  0  1  0  0  0  0  0  0
  189.4350  177.6930  142.8370 C   0  0  1  0  0  0  0  0  0  0  0  0
  189.5110  177.6090  144.3090 C   0  0  0  0  0  2  0  0  0  0  0  0
  191.3390  177.2610  139.8630 C   0  0  0  0  0  0  0  0  0  0  0  0
  190.1920  178.6110  143.5860 O   0  0  0  0  0  0  0  0  0  0  0  0
  185.9520  174.7350  137.0220 C   0  0  0  0  0  3  0  0  0  0  0  0
  190.3270  176.7840  142.0020 C   0  0  2  0  0  3  0  0  0  0  0  0
  188.1130  173.5410  135.6860 C   0  0  0  0  0  0  0  0  0  0  0  0
  188.6220  176.3650  138.9220 C   0  0  0  0  0  3  0  0  0  0  0  0
  188.3300  174.5790  136.6050 C   0  0  0  0  0  3  0  0  0  0  0  0
  187.7630  177.6050  140.9620 C   0  0  2  0  0  3  0  0  0  0  0  0
  191.9260  174.9500  136.2050 C   0  0  0  0  0  2  0  0  0  0  0  0
  188.2110  178.3590  142.2180 C   0  0  0  0  0  2  0  0  0  0  0  0
  192.4360  176.8220  137.7380 C   0  0  0  0  0  2  0  0  0  0  0  0
  192.4360  177.2900  139.1560 C   0  0  0  0  0  0  0  0  0  0  0  0
  185.7300  173.6900  136.1190 C   0  0  0  0  0  3  0  0  0  0  0  0
  191.2270  173.6090  136.1050 C   0  0  1  0  0  3  0  0  0  0  0  0
  187.2540  175.1730  137.2810 C   0  0  0  0  0  0  0  0  0  0  0  0
  190.2390  177.1920  140.5630 C   0  0  0  0  0  0  0  0  0  0  0  0
  188.8990  177.4610  139.9130 C   0  0  1  0  0  3  0  0  0  0  0  0
  190.4350  173.5800  134.8070 C   0  0  0  0  0  2  0  0  0  0  0  0
  189.1680  172.9520  134.9810 O   0  0  0  0  0  0  0  0  0  0  0  0
  186.8090  173.0900  135.4600 C   0  0  0  0  0  3  0  0  0  0  0  0
  186.4880  178.5240  139.0170 C   0  0  0  0  0  3  0  0  0  0  0  0
  184.2770  179.4920  139.2770 C   0  0  0  0  0  0  0  0  0  0  0  0
  185.4660  178.6270  141.2080 C   0  0  0  0  0  3  0  0  0  0  0  0
  184.3370  179.2330  140.6530 C   0  0  0  0  0  3  0  0  0  0  0  0
  185.3590  179.1330  138.4630 C   0  0  0  0  0  3  0  0  0  0  0  0
  186.5490  178.2740  140.3920 C   0  0  0  0  0  0  0  0  0  0  0  0
  183.0870  180.1250  138.6850 C   0  0  0  0  0  0  0  0  0  0  0  0
  182.1870  179.4220  138.1530 O   0  0  0  0  0  0  0  0  0  0  0  0
  182.9440  181.5080  138.7130 O   0  0  0  0  0  1  0  0  0  0  0  0
  189.9020  175.4590  142.1340 O   0  0  0  0  0  0  0  0  0  0  0  0
  190.6970  174.9460  143.0500 O   0  0  0  0  0  1  0  0  0  0  0  0
  192.2530  172.4880  136.1240 C   0  0  0  0  0  2  0  0  0  0  0  0
  193.5690  172.9530  135.5140 C   0  0  0  0  0  2  0  0  0  0  0  0
  194.6800  173.4960  137.5370 F   0  0  0  0  0  0  0  0  0  0  0  0
  194.7600  172.6630  136.4330 C   0  0  0  0  0  0  0  0  0  0  0  0
  194.6790  171.3460  136.8620 F   0  0  0  0  0  0  0  0  0  0  0  0
  196.1050  172.9140  135.6960 C   0  0  2  0  0  0  0  0  0  0  0  0
  196.1810  172.0340  134.6260 F   0  0  0  0  0  0  0  0  0  0  0  0
  198.0500  171.3320  136.2770 C   0  0  0  0  0  2  0  0  0  0  0  0
  197.1440  172.7620  137.9890 O   0  0  0  0  0  1  0  0  0  0  0  0
  197.3210  172.6160  136.6070 C   0  0  2  0  0  0  0  0  0  0  0  0
  198.7510  172.6740  136.0670 C   0  0  1  0  0  3  0  0  0  0  0  0
  199.7810  172.9140  137.1350 C   0  0  0  0  0  0  0  0  0  0  0  0
  200.2310  171.9760  137.7740 O   0  0  0  0  0  0  0  0  0  0  0  0
  200.2230  174.3050  137.4550 C   0  0  0  0  0  2  0  0  0  0  0  0
  199.4690  174.8110  138.5150 O   0  0  0  0  0  1  0  0  0  0  0  0
  196.1610  174.2360  135.1320 O   0  0  0  0  0  0  0  0  0  0  0  0
  196.3640  175.4430  135.8170 C   0  0  0  0  0  0  0  0  0  0  0  0
  197.5210  175.8860  136.0450 O   0  0  0  0  0  0  0  0  0  0  0  0
  195.2640  176.1690  136.2510 O   0  0  0  0  0  1  0  0  0  0  0  0
  1 11  2  0  0  0  0
  2 16  1  0  0  0  0
  4 15  1  6  0  0  0
  4  7  1  0  0  0  0
  4  5  1  0  0  0  0
  6 21  2  0  0  0  0
  7  5  1  0  0  0  0
  8 20  1  0  0  0  0
  9 35  1  6  0  0  0
  9  4  1  0  0  0  0
 10 12  1  0  0  0  0
 12 20  2  0  0  0  0
 13 31  1  6  0  0  0
 13 15  1  0  0  0  0
 14  2  1  0  0  0  0
 16 17  1  0  0  0  0
 17  3  1  0  0  0  0
 17  6  2  0  0  0  0
 18  8  2  0  0  0  0
 19 37  1  6  0  0  0
 19 14  1  0  0  0  0
 20  1  1  0  0  0  0
 21  9  1  0  0  0  0
 22 11  1  6  0  0  0
 22 21  1  0  0  0  0
 22 13  1  0  0  0  0
 23 24  1  0  0  0  0
 23 19  1  0  0  0  0
 24 10  1  0  0  0  0
 25 10  2  0  0  0  0
 25 18  1  0  0  0  0
 26 31  1  0  0  0  0
 27 29  2  0  0  0  0
 29 28  1  0  0  0  0
 30 26  2  0  0  0  0
 30 27  1  0  0  0  0
 31 28  2  0  0  0  0
 32 34  1  0  0  0  0
 32 27  1  0  0  0  0
 33 32  2  0  0  0  0
 35 36  1  0  0  0  0
 38 37  1  0  0  0  0
 38 40  1  0  0  0  0
 40 41  1  0  0  0  0
 40 39  1  0  0  0  0
 42 43  1  6  0  0  0
 42 40  1  0  0  0  0
 42 46  1  0  0  0  0
 44 46  1  0  0  0  0
 46 45  1  1  0  0  0
 47 44  1  0  0  0  0
 47 46  1  0  0  0  0
 47 48  1  1  0  0  0
 48 50  1  0  0  0  0
 48 49  2  0  0  0  0
 50 51  1  0  0  0  0
 52 42  1  0  0  0  0
 52 53  1  0  0  0  0
 53 54  2  0  0  0  0
 53 55  1  0  0  0  0
M  END
>  <MODEL>
4

>  <REMARK>
 VINA RESULT:      -5.0      3.998     11.543
  Name = 
  12 active torsions:
  status: ('A' for Active; 'I' for Inactive)
    1  A    between atoms: C_1  and  O_53
    2  A    between atoms: C_6  and  C_14
    3  A    between atoms: C_6  and  C_20
    4  A    between atoms: C_6  and  O_53
    5  A    between atoms: C_8  and  C_22
    6  A    between atoms: C_8  and  C_43
    7  A    between atoms: O_9  and  C_26
    8  A    between atoms: C_10  and  C_32
    9  A    between atoms: C_11  and  C_29
   10  A    between atoms: C_20  and  C_22
   11  A    between atoms: C_29  and  C_38
   12  A    between atoms: C_33  and  C_52
                            x       y       z     vdW  Elec       q    Type
                         _______ _______ _______ _____ _____    ______ ____

>  <TORSDO>
F 12

$$$$
=
 OpenBabel10272401163D

 55 60  0  0  1  0  0  0  0  0999 V2000
  189.9560  176.4600  138.4090 C   0  0  0  0  0  3  0  0  0  0  0  0
  185.5140  177.9280  139.2250 C   0  0  0  0  0  2  0  0  0  0  0  0
  183.8100  177.1120  136.1350 C   0  0  0  0  0  1  0  0  0  0  0  0
  187.2070  173.1570  135.5090 C   0  0  1  0  0  0  0  0  0  0  0  0
  186.7910  171.7930  135.1270 C   0  0  0  0  0  2  0  0  0  0  0  0
  185.9840  176.2570  136.7540 C   0  0  0  0  0  0  0  0  0  0  0  0
  186.4200  172.9230  134.3680 O   0  0  0  0  0  0  0  0  0  0  0  0
  191.5180  176.7880  140.2980 C   0  0  0  0  0  3  0  0  0  0  0  0
  186.4200  173.8890  136.5890 C   0  0  2  0  0  3  0  0  0  0  0  0
  189.5830  178.2200  141.7420 C   0  0  0  0  0  0  0  0  0  0  0  0
  188.7110  176.1800  138.0290 C   0  0  0  0  0  3  0  0  0  0  0  0
  189.2950  177.7270  140.4600 C   0  0  0  0  0  3  0  0  0  0  0  0
  189.2340  174.4400  136.2580 C   0  0  2  0  0  3  0  0  0  0  0  0
  185.9560  179.1120  140.0580 C   0  0  0  0  0  2  0  0  0  0  0  0
  188.6110  173.6130  135.1300 C   0  0  0  0  0  2  0  0  0  0  0  0
  185.3480  178.3680  137.7790 C   0  0  0  0  0  2  0  0  0  0  0  0
  185.0860  177.1950  136.8920 C   0  0  0  0  0  0  0  0  0  0  0  0
  191.8070  177.2620  141.5810 C   0  0  0  0  0  3  0  0  0  0  0  0
  186.4880  178.6390  141.3950 C   0  0  1  0  0  3  0  0  0  0  0  0
  190.2550  177.0040  139.7380 C   0  0  0  0  0  0  0  0  0  0  0  0
  186.8810  175.3130  136.6540 C   0  0  0  0  0  0  0  0  0  0  0  0
  188.3550  175.6540  136.6660 C   0  0  1  0  0  3  0  0  0  0  0  0
  187.5420  179.6290  141.8650 C   0  0  0  0  0  2  0  0  0  0  0  0
  188.6500  178.9660  142.4690 O   0  0  0  0  0  0  0  0  0  0  0  0
  190.8390  177.9690  142.3040 C   0  0  0  0  0  3  0  0  0  0  0  0
  190.7930  175.6540  134.7260 C   0  0  0  0  0  3  0  0  0  0  0  0
  193.1920  175.6830  135.0990 C   0  0  0  0  0  0  0  0  0  0  0  0
  191.7340  174.4750  136.6190 C   0  0  0  0  0  3  0  0  0  0  0  0
  193.0140  174.8870  136.2390 C   0  0  0  0  0  3  0  0  0  0  0  0
  192.0740  176.0640  134.3460 C   0  0  0  0  0  3  0  0  0  0  0  0
  190.6190  174.8540  135.8600 C   0  0  0  0  0  0  0  0  0  0  0  0
  194.5380  176.1240  134.6980 C   0  0  0  0  0  0  0  0  0  0  0  0
  195.4090  175.2840  134.3500 O   0  0  0  0  0  0  0  0  0  0  0  0
  194.8590  177.4780  134.6980 O   0  0  0  0  0  1  0  0  0  0  0  0
  186.6370  173.2760  137.8250 O   0  0  0  0  0  0  0  0  0  0  0  0
  185.5180  172.6300  138.0760 O   0  0  0  0  0  1  0  0  0  0  0  0
  185.3530  178.5560  142.4030 C   0  0  0  0  0  2  0  0  0  0  0  0
  185.7010  179.3230  143.6710 C   0  0  0  0  0  2  0  0  0  0  0  0
  185.2990  179.3990  146.0070 F   0  0  0  0  0  0  0  0  0  0  0  0
  185.3600  178.5250  144.9340 C   0  0  0  0  0  0  0  0  0  0  0  0
  184.1150  177.9390  144.7650 F   0  0  0  0  0  0  0  0  0  0  0  0
  186.4390  177.4430  145.2150 C   0  0  2  0  0  0  0  0  0  0  0  0
  185.8380  176.4060  145.9160 F   0  0  0  0  0  0  0  0  0  0  0  0
  187.1230  178.4650  147.4760 C   0  0  0  0  0  2  0  0  0  0  0  0
  188.4830  178.8850  145.5350 O   0  0  0  0  0  1  0  0  0  0  0  0
  187.5770  177.9880  146.1140 C   0  0  2  0  0  0  0  0  0  0  0  0
  188.0280  177.2370  147.3680 C   0  0  1  0  0  3  0  0  0  0  0  0
  189.4330  177.5670  147.7870 C   0  0  0  0  0  0  0  0  0  0  0  0
  189.6410  178.4830  148.5660 O   0  0  0  0  0  0  0  0  0  0  0  0
  190.5860  176.8090  147.2140 C   0  0  0  0  0  2  0  0  0  0  0  0
  191.7050  176.9530  148.0360 O   0  0  0  0  0  1  0  0  0  0  0  0
  186.9400  176.8650  143.9970 O   0  0  0  0  0  0  0  0  0  0  0  0
  188.1430  176.1630  143.8220 C   0  0  0  0  0  0  0  0  0  0  0  0
  188.3630  175.4770  142.7900 O   0  0  0  0  0  0  0  0  0  0  0  0
  189.1150  176.2330  144.8100 O   0  0  0  0  0  1  0  0  0  0  0  0
  1 20  1  0  0  0  0
  2 14  1  0  0  0  0
  3 17  1  0  0  0  0
  4  5  1  1  0  0  0
  4  9  1  0  0  0  0
  6 17  2  0  0  0  0
  7  5  1  0  0  0  0
  7  4  1  0  0  0  0
  8 18  1  0  0  0  0
  9 21  1  0  0  0  0
  9 35  1  1  0  0  0
 10 25  1  0  0  0  0
 10 24  1  0  0  0  0
 11  1  2  0  0  0  0
 12 10  2  0  0  0  0
 13 31  1  6  0  0  0
 13 22  1  0  0  0  0
 14 19  1  0  0  0  0
 15  4  1  0  0  0  0
 15 13  1  0  0  0  0
 16  2  1  0  0  0  0
 17 16  1  0  0  0  0
 18 25  2  0  0  0  0
 19 23  1  0  0  0  0
 19 37  1  1  0  0  0
 20  8  2  0  0  0  0
 20 12  1  0  0  0  0
 21 22  1  0  0  0  0
 21  6  2  0  0  0  0
 22 11  1  1  0  0  0
 23 24  1  0  0  0  0
 26 31  1  0  0  0  0
 27 29  2  0  0  0  0
 29 28  1  0  0  0  0
 30 26  2  0  0  0  0
 30 27  1  0  0  0  0
 31 28  2  0  0  0  0
 32 34  1  0  0  0  0
 32 27  1  0  0  0  0
 33 32  2  0  0  0  0
 35 36  1  0  0  0  0
 37 38  1  0  0  0  0
 38 40  1  0  0  0  0
 40 42  1  0  0  0  0
 40 39  1  0  0  0  0
 41 40  1  0  0  0  0
 42 43  1  1  0  0  0
 42 46  1  0  0  0  0
 46 45  1  6  0  0  0
 46 47  1  0  0  0  0
 46 44  1  0  0  0  0
 47 44  1  0  0  0  0
 47 48  1  1  0  0  0
 48 49  2  0  0  0  0
 50 48  1  0  0  0  0
 50 51  1  0  0  0  0
 52 42  1  0  0  0  0
 53 52  1  0  0  0  0
 53 55  1  0  0  0  0
 54 53  2  0  0  0  0
M  END
>  <MODEL>
5

>  <REMARK>
 VINA RESULT:      -4.7      1.955      2.679
  Name = 
  12 active torsions:
  status: ('A' for Active; 'I' for Inactive)
    1  A    between atoms: C_1  and  O_53
    2  A    between atoms: C_6  and  C_14
    3  A    between atoms: C_6  and  C_20
    4  A    between atoms: C_6  and  O_53
    5  A    between atoms: C_8  and  C_22
    6  A    between atoms: C_8  and  C_43
    7  A    between atoms: O_9  and  C_26
    8  A    between atoms: C_10  and  C_32
    9  A    between atoms: C_11  and  C_29
   10  A    between atoms: C_20  and  C_22
   11  A    between atoms: C_29  and  C_38
   12  A    between atoms: C_33  and  C_52
                            x       y       z     vdW  Elec       q    Type
                         _______ _______ _______ _____ _____    ______ ____

>  <TORSDO>
F 12

$$$$
=
 OpenBabel10272401163D

 55 60  0  0  1  0  0  0  0  0999 V2000
  190.7690  175.8470  138.2140 C   0  0  0  0  0  3  0  0  0  0  0  0
  186.2430  177.2270  137.8050 C   0  0  0  0  0  2  0  0  0  0  0  0
  185.2170  175.7230  134.6740 C   0  0  0  0  0  1  0  0  0  0  0  0
  188.6990  171.8960  135.5710 C   0  0  1  0  0  0  0  0  0  0  0  0
  188.3810  170.4650  135.4050 C   0  0  0  0  0  2  0  0  0  0  0  0
  187.2230  175.1190  135.8780 C   0  0  0  0  0  0  0  0  0  0  0  0
  188.1650  171.3990  134.3700 O   0  0  0  0  0  0  0  0  0  0  0  0
  191.9070  176.6260  140.2670 C   0  0  0  0  0  3  0  0  0  0  0  0
  187.7020  172.7910  136.2980 C   0  0  2  0  0  3  0  0  0  0  0  0
  189.7060  178.2210  140.9670 C   0  0  0  0  0  0  0  0  0  0  0  0
  189.6310  175.4360  137.6590 C   0  0  0  0  0  3  0  0  0  0  0  0
  189.6910  177.4670  139.7840 C   0  0  0  0  0  3  0  0  0  0  0  0
  190.5190  173.4040  136.4280 C   0  0  2  0  0  3  0  0  0  0  0  0
  186.4950  178.5750  138.4460 C   0  0  0  0  0  2  0  0  0  0  0  0
  190.1480  172.3360  135.3940 C   0  0  0  0  0  2  0  0  0  0  0  0
  186.3750  177.3590  136.2960 C   0  0  0  0  0  2  0  0  0  0  0  0
  186.3090  176.0200  135.6370 C   0  0  0  0  0  0  0  0  0  0  0  0
  191.9220  177.3620  141.4560 C   0  0  0  0  0  3  0  0  0  0  0  0
  186.7450  178.4070  139.9310 C   0  0  1  0  0  3  0  0  0  0  0  0
  190.7850  176.6620  139.4340 C   0  0  0  0  0  0  0  0  0  0  0  0
  188.1280  174.2200  136.1570 C   0  0  0  0  0  0  0  0  0  0  0  0
  189.5660  174.6290  136.3920 C   0  0  1  0  0  3  0  0  0  0  0  0
  187.6720  179.5230  140.3870 C   0  0  0  0  0  2  0  0  0  0  0  0
  188.6370  179.0510  141.3230 O   0  0  0  0  0  0  0  0  0  0  0  0
  190.8210  178.1510  141.8080 C   0  0  0  0  0  3  0  0  0  0  0  0
  192.9000  173.4170  137.1940 C   0  0  0  0  0  3  0  0  0  0  0  0
  194.6560  174.4820  135.9010 C   0  0  0  0  0  0  0  0  0  0  0  0
  192.3630  174.5150  135.1060 C   0  0  0  0  0  3  0  0  0  0  0  0
  193.7080  174.8560  134.9400 C   0  0  0  0  0  3  0  0  0  0  0  0
  194.2440  173.7590  137.0280 C   0  0  0  0  0  3  0  0  0  0  0  0
  191.9530  173.7970  136.2370 C   0  0  0  0  0  0  0  0  0  0  0  0
  196.0760  174.8330  135.7270 C   0  0  0  0  0  0  0  0  0  0  0  0
  196.8150  174.1480  134.9720 O   0  0  0  0  0  0  0  0  0  0  0  0
  196.6120  175.9280  136.3960 O   0  0  0  0  0  1  0  0  0  0  0  0
  187.6650  172.4500  137.6520 O   0  0  0  0  0  0  0  0  0  0  0  0
  186.4010  172.5870  137.9940 O   0  0  0  0  0  1  0  0  0  0  0  0
  185.4280  178.4720  140.6870 C   0  0  0  0  0  2  0  0  0  0  0  0
  185.5350  179.4180  141.8750 C   0  0  0  0  0  2  0  0  0  0  0  0
  184.2040  179.9710  143.7580 F   0  0  0  0  0  0  0  0  0  0  0  0
  184.7670  178.8950  143.0940 C   0  0  0  0  0  0  0  0  0  0  0  0
  183.7500  178.0610  142.6530 F   0  0  0  0  0  0  0  0  0  0  0  0
  185.7150  178.1330  144.0620 C   0  0  2  0  0  0  0  0  0  0  0  0
  185.2080  176.8540  144.2450 F   0  0  0  0  0  0  0  0  0  0  0  0
  184.6220  178.4110  146.3760 C   0  0  0  0  0  2  0  0  0  0  0  0
  186.0100  180.1770  145.5100 O   0  0  0  0  0  1  0  0  0  0  0  0
  185.7620  178.8000  145.4590 C   0  0  2  0  0  0  0  0  0  0  0  0
  186.0490  177.9820  146.7200 C   0  0  1  0  0  3  0  0  0  0  0  0
  186.5990  178.8050  147.8510 C   0  0  0  0  0  0  0  0  0  0  0  0
  185.9920  179.7890  148.2450 O   0  0  0  0  0  0  0  0  0  0  0  0
  187.9150  178.4550  148.4660 C   0  0  0  0  0  2  0  0  0  0  0  0
  187.8070  177.2510  149.1640 O   0  0  0  0  0  1  0  0  0  0  0  0
  187.0270  177.9660  143.4970 O   0  0  0  0  0  0  0  0  0  0  0  0
  188.0560  177.1380  143.9710 C   0  0  0  0  0  0  0  0  0  0  0  0
  188.7540  177.4570  144.9690 O   0  0  0  0  0  1  0  0  0  0  0  0
  188.3080  175.9350  143.3250 O   0  0  0  0  0  0  0  0  0  0  0  0
  1 20  1  0  0  0  0
  2 14  1  0  0  0  0
  3 17  1  0  0  0  0
  4 15  1  1  0  0  0
  4  9  1  0  0  0  0
  5  4  1  0  0  0  0
  6 21  2  0  0  0  0
  7  5  1  0  0  0  0
  7  4  1  0  0  0  0
  8 18  1  0  0  0  0
  9 35  1  1  0  0  0
 10 24  1  0  0  0  0
 10 25  1  0  0  0  0
 11  1  2  0  0  0  0
 12 10  2  0  0  0  0
 13 31  1  6  0  0  0
 14 19  1  0  0  0  0
 15 13  1  0  0  0  0
 16  2  1  0  0  0  0
 17  6  2  0  0  0  0
 17 16  1  0  0  0  0
 18 25  2  0  0  0  0
 19 23  1  0  0  0  0
 19 37  1  1  0  0  0
 20 12  1  0  0  0  0
 20  8  2  0  0  0  0
 21  9  1  0  0  0  0
 21 22  1  0  0  0  0
 22 13  1  0  0  0  0
 22 11  1  1  0  0  0
 23 24  1  0  0  0  0
 27 30  2  0  0  0  0
 28 31  1  0  0  0  0
 29 28  2  0  0  0  0
 29 27  1  0  0  0  0
 30 26  1  0  0  0  0
 31 26  2  0  0  0  0
 32 27  1  0  0  0  0
 32 34  1  0  0  0  0
 33 32  2  0  0  0  0
 35 36  1  0  0  0  0
 37 38  1  0  0  0  0
 38 40  1  0  0  0  0
 40 39  1  0  0  0  0
 40 42  1  0  0  0  0
 41 40  1  0  0  0  0
 42 43  1  1  0  0  0
 42 46  1  0  0  0  0
 44 47  1  0  0  0  0
 46 45  1  1  0  0  0
 46 44  1  0  0  0  0
 46 47  1  0  0  0  0
 47 48  1  1  0  0  0
 48 49  2  0  0  0  0
 48 50  1  0  0  0  0
 50 51  1  0  0  0  0
 52 53  1  0  0  0  0
 52 42  1  0  0  0  0
 53 54  1  0  0  0  0
 55 53  2  0  0  0  0
M  END
>  <MODEL>
6

>  <REMARK>
 VINA RESULT:      -4.5      1.355      2.175
  Name = 
  12 active torsions:
  status: ('A' for Active; 'I' for Inactive)
    1  A    between atoms: C_1  and  O_53
    2  A    between atoms: C_6  and  C_14
    3  A    between atoms: C_6  and  C_20
    4  A    between atoms: C_6  and  O_53
    5  A    between atoms: C_8  and  C_22
    6  A    between atoms: C_8  and  C_43
    7  A    between atoms: O_9  and  C_26
    8  A    between atoms: C_10  and  C_32
    9  A    between atoms: C_11  and  C_29
   10  A    between atoms: C_20  and  C_22
   11  A    between atoms: C_29  and  C_38
   12  A    between atoms: C_33  and  C_52
                            x       y       z     vdW  Elec       q    Type
                         _______ _______ _______ _____ _____    ______ ____

>  <TORSDO>
F 12

$$$$
=
 OpenBabel10272401163D

 55 60  0  0  1  0  0  0  0  0999 V2000
  186.7430  177.1070  138.6160 C   0  0  0  0  0  3  0  0  0  0  0  0
  187.9250  173.7360  135.4860 C   0  0  0  0  0  2  0  0  0  0  0  0
  184.7080  172.5250  134.3460 C   0  0  0  0  0  1  0  0  0  0  0  0
  182.7630  177.3080  135.3000 C   0  0  1  0  0  0  0  0  0  0  0  0
  181.8960  178.0280  134.3470 C   0  0  0  0  0  2  0  0  0  0  0  0
  185.0260  174.5770  135.5800 C   0  0  0  0  0  0  0  0  0  0  0  0
  181.5960  176.7200  134.7820 O   0  0  0  0  0  0  0  0  0  0  0  0
  188.6610  178.2690  139.6580 C   0  0  0  0  0  3  0  0  0  0  0  0
  184.0150  176.6160  134.7760 C   0  0  2  0  0  3  0  0  0  0  0  0
  190.4780  176.5020  138.4540 C   0  0  0  0  0  0  0  0  0  0  0  0
  186.2550  176.5230  137.5230 C   0  0  0  0  0  3  0  0  0  0  0  0
  189.0980  176.3510  138.2510 C   0  0  0  0  0  3  0  0  0  0  0  0
  183.9830  177.6510  137.4700 C   0  0  2  0  0  3  0  0  0  0  0  0
  189.1460  173.3020  136.2680 C   0  0  0  0  0  2  0  0  0  0  0  0
  182.6140  177.6210  136.7850 C   0  0  0  0  0  2  0  0  0  0  0  0
  186.7380  172.8800  135.8950 C   0  0  0  0  0  2  0  0  0  0  0  0
  185.4760  173.3890  135.2800 C   0  0  0  0  0  0  0  0  0  0  0  0
  190.0360  178.4350  139.8520 C   0  0  0  0  0  3  0  0  0  0  0  0
  190.2290  174.3570  136.1710 C   0  0  1  0  0  3  0  0  0  0  0  0
  188.1870  177.2370  138.8440 C   0  0  0  0  0  0  0  0  0  0  0  0
  184.6110  175.7810  135.8690 C   0  0  0  0  0  0  0  0  0  0  0  0
  184.7850  176.3370  137.2650 C   0  0  1  0  0  3  0  0  0  0  0  0
  191.0570  174.3070  137.4450 C   0  0  0  0  0  2  0  0  0  0  0  0
  191.4040  175.6150  137.8940 O   0  0  0  0  0  0  0  0  0  0  0  0
  190.9410  177.5590  139.2450 C   0  0  0  0  0  3  0  0  0  0  0  0
  183.2110  177.0370  139.7680 C   0  0  0  0  0  3  0  0  0  0  0  0
  183.4730  178.5430  141.6540 C   0  0  0  0  0  0  0  0  0  0  0  0
  184.2340  179.2060  139.4460 C   0  0  0  0  0  3  0  0  0  0  0  0
  184.0700  179.4850  140.8050 C   0  0  0  0  0  3  0  0  0  0  0  0
  183.0460  177.3170  141.1270 C   0  0  0  0  0  3  0  0  0  0  0  0
  183.8010  177.9810  138.9220 C   0  0  0  0  0  0  0  0  0  0  0  0
  183.3040  178.8290  143.0880 C   0  0  0  0  0  0  0  0  0  0  0  0
  182.1780  179.1640  143.5440 O   0  0  0  0  0  0  0  0  0  0  0  0
  184.3880  178.7310  143.9540 O   0  0  0  0  0  1  0  0  0  0  0  0
  184.9450  177.5760  134.3690 O   0  0  0  0  0  0  0  0  0  0  0  0
  186.0950  176.9340  134.3460 O   0  0  0  0  0  1  0  0  0  0  0  0
  191.1060  174.0870  134.9590 C   0  0  0  0  0  2  0  0  0  0  0  0
  192.1760  173.0540  135.2880 C   0  0  0  0  0  2  0  0  0  0  0  0
  194.3300  173.3700  134.3490 F   0  0  0  0  0  0  0  0  0  0  0  0
  193.5580  173.6940  135.4530 C   0  0  0  0  0  0  0  0  0  0  0  0
  193.4050  175.0720  135.5010 F   0  0  0  0  0  0  0  0  0  0  0  0
  194.2590  173.1780  136.7400 C   0  0  2  0  0  0  0  0  0  0  0  0
  193.3490  173.2460  137.7840 F   0  0  0  0  0  0  0  0  0  0  0  0
  195.6550  174.2350  138.6260 C   0  0  0  0  0  2  0  0  0  0  0  0
  195.6030  175.2940  136.4650 O   0  0  0  0  0  1  0  0  0  0  0  0
  195.4610  174.0720  137.1350 C   0  0  2  0  0  0  0  0  0  0  0  0
  196.7030  173.4830  137.8050 C   0  0  1  0  0  3  0  0  0  0  0  0
  197.9370  174.3200  137.6130 C   0  0  0  0  0  0  0  0  0  0  0  0
  198.2290  175.1780  138.4320 O   0  0  0  0  0  0  0  0  0  0  0  0
  198.7840  174.1430  136.3950 C   0  0  0  0  0  2  0  0  0  0  0  0
  199.7350  175.1640  136.3260 O   0  0  0  0  0  1  0  0  0  0  0  0
  194.6300  171.7930  136.6220 O   0  0  0  0  0  0  0  0  0  0  0  0
  195.2140  171.1620  135.5120 C   0  0  0  0  0  0  0  0  0  0  0  0
  194.5200  170.5450  134.6630 O   0  0  0  0  0  0  0  0  0  0  0  0
  196.5900  171.2250  135.3460 O   0  0  0  0  0  1  0  0  0  0  0  0
  1 20  1  0  0  0  0
  2 16  1  0  0  0  0
  2 14  1  0  0  0  0
  3 17  1  0  0  0  0
  4  5  1  6  0  0  0
  4 15  1  0  0  0  0
  5  7  1  0  0  0  0
  6 21  2  0  0  0  0
  7  4  1  0  0  0  0
  8 18  1  0  0  0  0
  9 35  1  1  0  0  0
  9  4  1  0  0  0  0
  9 21  1  0  0  0  0
 10 25  1  0  0  0  0
 11  1  2  0  0  0  0
 12 10  2  0  0  0  0
 12 20  1  0  0  0  0
 13 31  1  1  0  0  0
 15 13  1  0  0  0  0
 17  6  2  0  0  0  0
 17 16  1  0  0  0  0
 19 37  1  6  0  0  0
 19 14  1  0  0  0  0
 19 23  1  0  0  0  0
 20  8  2  0  0  0  0
 21 22  1  0  0  0  0
 22 13  1  0  0  0  0
 22 11  1  6  0  0  0
 23 24  1  0  0  0  0
 24 10  1  0  0  0  0
 25 18  2  0  0  0  0
 26 30  1  0  0  0  0
 27 32  1  0  0  0  0
 28 29  2  0  0  0  0
 29 27  1  0  0  0  0
 30 27  2  0  0  0  0
 31 28  1  0  0  0  0
 31 26  2  0  0  0  0
 32 33  2  0  0  0  0
 32 34  1  0  0  0  0
 36 35  1  0  0  0  0
 37 38  1  0  0  0  0
 38 40  1  0  0  0  0
 39 40  1  0  0  0  0
 40 41  1  0  0  0  0
 40 42  1  0  0  0  0
 42 46  1  0  0  0  0
 42 43  1  1  0  0  0
 46 45  1  6  0  0  0
 46 47  1  0  0  0  0
 46 44  1  0  0  0  0
 47 48  1  6  0  0  0
 47 44  1  0  0  0  0
 48 49  2  0  0  0  0
 50 48  1  0  0  0  0
 51 50  1  0  0  0  0
 52 42  1  0  0  0  0
 53 52  1  0  0  0  0
 54 53  2  0  0  0  0
 55 53  1  0  0  0  0
M  END
>  <MODEL>
7

>  <REMARK>
 VINA RESULT:      -4.3      3.798     10.678
  Name = 
  12 active torsions:
  status: ('A' for Active; 'I' for Inactive)
    1  A    between atoms: C_1  and  O_53
    2  A    between atoms: C_6  and  C_14
    3  A    between atoms: C_6  and  C_20
    4  A    between atoms: C_6  and  O_53
    5  A    between atoms: C_8  and  C_22
    6  A    between atoms: C_8  and  C_43
    7  A    between atoms: O_9  and  C_26
    8  A    between atoms: C_10  and  C_32
    9  A    between atoms: C_11  and  C_29
   10  A    between atoms: C_20  and  C_22
   11  A    between atoms: C_29  and  C_38
   12  A    between atoms: C_33  and  C_52
                            x       y       z     vdW  Elec       q    Type
                         _______ _______ _______ _____ _____    ______ ____

>  <TORSDO>
F 12

$$$$
=
 OpenBabel10272401163D

 55 60  0  0  1  0  0  0  0  0999 V2000
  187.1380  177.1050  138.9050 C   0  0  0  0  0  3  0  0  0  0  0  0
  188.4700  173.8320  135.7310 C   0  0  0  0  0  2  0  0  0  0  0  0
  185.3130  172.6930  134.3680 C   0  0  0  0  0  1  0  0  0  0  0  0
  183.3560  177.4600  135.3760 C   0  0  1  0  0  0  0  0  0  0  0  0
  182.5520  178.2220  134.4010 C   0  0  0  0  0  2  0  0  0  0  0  0
  185.5770  174.6990  135.6890 C   0  0  0  0  0  0  0  0  0  0  0  0
  182.2160  176.9030  134.7730 O   0  0  0  0  0  0  0  0  0  0  0  0
  189.0020  178.2110  140.0950 C   0  0  0  0  0  3  0  0  0  0  0  0
  184.6310  176.7750  134.9010 C   0  0  2  0  0  3  0  0  0  0  0  0
  190.8710  176.4670  138.9350 C   0  0  0  0  0  0  0  0  0  0  0  0
  186.7080  176.5630  137.7660 C   0  0  0  0  0  3  0  0  0  0  0  0
  189.5040  176.3380  138.6490 C   0  0  0  0  0  3  0  0  0  0  0  0
  184.4530  177.7160  137.6240 C   0  0  2  0  0  3  0  0  0  0  0  0
  189.6400  173.3590  136.5660 C   0  0  0  0  0  2  0  0  0  0  0  0
  183.1250  177.7230  136.8600 C   0  0  0  0  0  2  0  0  0  0  0  0
  187.2540  172.9740  136.0420 C   0  0  0  0  0  2  0  0  0  0  0  0
  186.0340  173.5170  135.3740 C   0  0  0  0  0  0  0  0  0  0  0  0
  190.3650  178.3560  140.3720 C   0  0  0  0  0  3  0  0  0  0  0  0
  190.7360  174.4060  136.5680 C   0  0  1  0  0  3  0  0  0  0  0  0
  188.5670  177.2120  139.2190 C   0  0  0  0  0  0  0  0  0  0  0  0
  185.1560  175.8960  135.9960 C   0  0  0  0  0  0  0  0  0  0  0  0
  185.2540  176.4020  137.4180 C   0  0  1  0  0  3  0  0  0  0  0  0
  191.4890  174.3030  137.8850 C   0  0  0  0  0  2  0  0  0  0  0  0
  191.8210  175.5910  138.3980 O   0  0  0  0  0  0  0  0  0  0  0  0
  191.2970  177.4910  139.7870 C   0  0  0  0  0  3  0  0  0  0  0  0
  183.2650  177.2100  139.7650 C   0  0  0  0  0  3  0  0  0  0  0  0
  183.6950  178.4660  141.7970 C   0  0  0  0  0  0  0  0  0  0  0  0
  184.8750  179.0170  139.7480 C   0  0  0  0  0  3  0  0  0  0  0  0
  184.6270  179.2490  141.1030 C   0  0  0  0  0  3  0  0  0  0  0  0
  183.0170  177.4450  141.1200 C   0  0  0  0  0  3  0  0  0  0  0  0
  184.1910  177.9980  139.0730 C   0  0  0  0  0  0  0  0  0  0  0  0
  183.4350  178.7040  143.2270 C   0  0  0  0  0  0  0  0  0  0  0  0
  184.3480  178.5350  144.0780 O   0  0  0  0  0  1  0  0  0  0  0  0
  182.1770  179.1190  143.6490 O   0  0  0  0  0  0  0  0  0  0  0  0
  185.5910  177.7380  134.5810 O   0  0  0  0  0  0  0  0  0  0  0  0
  186.6870  177.0480  134.3460 O   0  0  0  0  0  1  0  0  0  0  0  0
  191.6790  174.1680  135.3990 C   0  0  0  0  0  2  0  0  0  0  0  0
  192.8400  173.2750  135.8160 C   0  0  0  0  0  2  0  0  0  0  0  0
  194.6890  173.5750  134.3620 F   0  0  0  0  0  0  0  0  0  0  0  0
  194.1940  173.9580  135.5980 C   0  0  0  0  0  0  0  0  0  0  0  0
  194.0020  175.3320  135.5950 F   0  0  0  0  0  0  0  0  0  0  0  0
  195.2060  173.5520  136.7050 C   0  0  2  0  0  0  0  0  0  0  0  0
  196.4520  174.0510  136.3540 F   0  0  0  0  0  0  0  0  0  0  0  0
  196.4250  171.5510  137.7700 C   0  0  0  0  0  2  0  0  0  0  0  0
  195.3940  171.2870  135.6110 O   0  0  0  0  0  1  0  0  0  0  0  0
  195.3540  172.0130  136.8080 C   0  0  2  0  0  0  0  0  0  0  0  0
  194.9570  171.2610  138.0790 C   0  0  1  0  0  3  0  0  0  0  0  0
  194.6330  169.8130  137.8380 C   0  0  0  0  0  0  0  0  0  0  0  0
  193.9480  169.4900  136.8790 O   0  0  0  0  0  0  0  0  0  0  0  0
  195.1030  168.7670  138.7940 C   0  0  0  0  0  2  0  0  0  0  0  0
  194.5280  168.9780  140.0490 O   0  0  0  0  0  1  0  0  0  0  0  0
  194.8760  174.1510  137.9710 O   0  0  0  0  0  0  0  0  0  0  0  0
  195.7700  174.6020  138.9540 C   0  0  0  0  0  0  0  0  0  0  0  0
  196.8530  174.0040  139.1860 O   0  0  0  0  0  0  0  0  0  0  0  0
  195.4530  175.7370  139.6860 O   0  0  0  0  0  1  0  0  0  0  0  0
  1 20  1  0  0  0  0
  2 16  1  0  0  0  0
  2 14  1  0  0  0  0
  3 17  1  0  0  0  0
  4  5  1  6  0  0  0
  4 15  1  0  0  0  0
  5  7  1  0  0  0  0
  6 21  2  0  0  0  0
  7  4  1  0  0  0  0
  8 18  1  0  0  0  0
  9 35  1  1  0  0  0
  9  4  1  0  0  0  0
  9 21  1  0  0  0  0
 10 25  1  0  0  0  0
 11  1  2  0  0  0  0
 12 10  2  0  0  0  0
 12 20  1  0  0  0  0
 13 31  1  1  0  0  0
 14 19  1  0  0  0  0
 15 13  1  0  0  0  0
 17  6  2  0  0  0  0
 17 16  1  0  0  0  0
 19 37  1  6  0  0  0
 19 23  1  0  0  0  0
 20  8  2  0  0  0  0
 21 22  1  0  0  0  0
 22 13  1  0  0  0  0
 22 11  1  6  0  0  0
 23 24  1  0  0  0  0
 24 10  1  0  0  0  0
 25 18  2  0  0  0  0
 26 30  1  0  0  0  0
 27 32  1  0  0  0  0
 28 29  2  0  0  0  0
 29 27  1  0  0  0  0
 30 27  2  0  0  0  0
 31 28  1  0  0  0  0
 31 26  2  0  0  0  0
 32 34  2  0  0  0  0
 32 33  1  0  0  0  0
 36 35  1  0  0  0  0
 37 38  1  0  0  0  0
 39 40  1  0  0  0  0
 40 38  1  0  0  0  0
 40 42  1  0  0  0  0
 41 40  1  0  0  0  0
 42 43  1  6  0  0  0
 42 46  1  0  0  0  0
 42 52  1  0  0  0  0
 44 47  1  0  0  0  0
 46 45  1  6  0  0  0
 46 44  1  0  0  0  0
 46 47  1  0  0  0  0
 47 48  1  6  0  0  0
 48 50  1  0  0  0  0
 49 48  2  0  0  0  0
 50 51  1  0  0  0  0
 52 53  1  0  0  0  0
 53 54  2  0  0  0  0
 53 55  1  0  0  0  0
M  END
>  <MODEL>
8

>  <REMARK>
 VINA RESULT:      -4.2      4.042     10.479
  Name = 
  12 active torsions:
  status: ('A' for Active; 'I' for Inactive)
    1  A    between atoms: C_1  and  O_53
    2  A    between atoms: C_6  and  C_14
    3  A    between atoms: C_6  and  C_20
    4  A    between atoms: C_6  and  O_53
    5  A    between atoms: C_8  and  C_22
    6  A    between atoms: C_8  and  C_43
    7  A    between atoms: O_9  and  C_26
    8  A    between atoms: C_10  and  C_32
    9  A    between atoms: C_11  and  C_29
   10  A    between atoms: C_20  and  C_22
   11  A    between atoms: C_29  and  C_38
   12  A    between atoms: C_33  and  C_52
                            x       y       z     vdW  Elec       q    Type
                         _______ _______ _______ _____ _____    ______ ____

>  <TORSDO>
F 12

$$$$
=
 OpenBabel10272401163D

 55 60  0  0  1  0  0  0  0  0999 V2000
  187.1790  177.3090  139.1300 C   0  0  0  0  0  3  0  0  0  0  0  0
  191.7400  177.0530  140.4290 C   0  0  0  0  0  2  0  0  0  0  0  0
  191.7970  178.8840  143.5530 C   0  0  0  0  0  1  0  0  0  0  0  0
  186.8090  177.4240  144.3000 C   0  0  1  0  0  0  0  0  0  0  0  0
  186.3120  176.8900  145.5830 C   0  0  0  0  0  2  0  0  0  0  0  0
  189.7810  178.1110  142.4690 C   0  0  0  0  0  0  0  0  0  0  0  0
  186.9920  178.1230  145.5060 O   0  0  0  0  0  0  0  0  0  0  0  0
  186.6380  176.1430  137.0180 C   0  0  0  0  0  3  0  0  0  0  0  0
  188.1310  176.9020  143.7510 C   0  0  2  0  0  3  0  0  0  0  0  0
  189.3510  175.6200  136.5280 C   0  0  0  0  0  0  0  0  0  0  0  0
  187.9190  177.3220  140.2370 C   0  0  0  0  0  3  0  0  0  0  0  0
  188.9590  176.3330  137.6710 C   0  0  0  0  0  3  0  0  0  0  0  0
  186.0790  177.7820  141.9220 C   0  0  2  0  0  3  0  0  0  0  0  0
  192.2490  177.1220  139.0050 C   0  0  0  0  0  2  0  0  0  0  0  0
  185.8200  178.1410  143.3880 C   0  0  0  0  0  2  0  0  0  0  0  0
  191.6970  178.4560  141.0130 C   0  0  0  0  0  2  0  0  0  0  0  0
  191.0350  178.4560  142.3510 C   0  0  0  0  0  0  0  0  0  0  0  0
  187.0200  175.4180  135.8850 C   0  0  0  0  0  3  0  0  0  0  0  0
  191.9510  175.8240  138.2820 C   0  0  1  0  0  3  0  0  0  0  0  0
  187.6040  176.5890  137.9240 C   0  0  0  0  0  0  0  0  0  0  0  0
  188.5360  177.7310  142.5700 C   0  0  0  0  0  0  0  0  0  0  0  0
  187.5400  178.0730  141.4830 C   0  0  1  0  0  3  0  0  0  0  0  0
  191.7650  176.1340  136.8050 C   0  0  0  0  0  2  0  0  0  0  0  0
  190.6990  175.3750  136.2410 O   0  0  0  0  0  0  0  0  0  0  0  0
  188.3730  175.1500  135.6460 C   0  0  0  0  0  3  0  0  0  0  0  0
  185.5220  179.1910  139.9330 C   0  0  0  0  0  3  0  0  0  0  0  0
  183.2340  179.7930  139.3890 C   0  0  0  0  0  0  0  0  0  0  0  0
  183.7080  178.4310  141.3420 C   0  0  0  0  0  3  0  0  0  0  0  0
  182.7910  179.0810  140.5120 C   0  0  0  0  0  3  0  0  0  0  0  0
  184.6040  179.8420  139.1040 C   0  0  0  0  0  3  0  0  0  0  0  0
  185.0780  178.4870  141.0570 C   0  0  0  0  0  0  0  0  0  0  0  0
  182.2710  180.4740  138.5080 C   0  0  0  0  0  0  0  0  0  0  0  0
  182.1540  181.7280  138.5390 O   0  0  0  0  0  1  0  0  0  0  0  0
  181.4830  179.7370  137.6310 O   0  0  0  0  0  0  0  0  0  0  0  0
  187.9820  175.5720  143.3530 O   0  0  0  0  0  0  0  0  0  0  0  0
  189.1750  175.2180  142.9240 O   0  0  0  0  0  1  0  0  0  0  0  0
  193.0990  174.8480  138.4770 C   0  0  0  0  0  2  0  0  0  0  0  0
  193.9760  174.7910  137.2340 C   0  0  0  0  0  2  0  0  0  0  0  0
  192.8320  172.7380  136.9170 F   0  0  0  0  0  0  0  0  0  0  0  0
  194.0240  173.3830  136.6320 C   0  0  0  0  0  0  0  0  0  0  0  0
  194.1530  173.4930  135.2550 F   0  0  0  0  0  0  0  0  0  0  0  0
  195.2050  172.5650  137.2250 C   0  0  2  0  0  0  0  0  0  0  0  0
  194.9970  172.4360  138.5910 F   0  0  0  0  0  0  0  0  0  0  0  0
  197.5420  172.5870  136.1470 C   0  0  0  0  0  2  0  0  0  0  0  0
  197.1810  173.7930  138.1990 O   0  0  0  0  0  1  0  0  0  0  0  0
  196.5570  173.3000  137.0460 C   0  0  2  0  0  0  0  0  0  0  0  0
  196.9490  173.9260  135.7070 C   0  0  1  0  0  3  0  0  0  0  0  0
  197.9600  175.0300  135.8390 C   0  0  0  0  0  0  0  0  0  0  0  0
  197.5960  176.1660  136.0990 O   0  0  0  0  0  0  0  0  0  0  0  0
  199.4090  174.7560  135.6030 C   0  0  0  0  0  2  0  0  0  0  0  0
  200.0930  174.7310  136.8200 O   0  0  0  0  0  1  0  0  0  0  0  0
  195.2410  171.2270  136.6980 O   0  0  0  0  0  0  0  0  0  0  0  0
  195.3770  170.0330  137.4220 C   0  0  0  0  0  0  0  0  0  0  0  0
  196.5070  169.5350  137.6680 O   0  0  0  0  0  0  0  0  0  0  0  0
  194.2380  169.3880  137.8830 O   0  0  0  0  0  1  0  0  0  0  0  0
  1 11  2  0  0  0  0
  2 16  1  0  0  0  0
  4 15  1  6  0  0  0
  4  7  1  0  0  0  0
  4  5  1  0  0  0  0
  6 21  2  0  0  0  0
  7  5  1  0  0  0  0
  8 20  1  0  0  0  0
  9 35  1  6  0  0  0
  9  4  1  0  0  0  0
 10 12  1  0  0  0  0
 12 20  2  0  0  0  0
 13 31  1  6  0  0  0
 13 15  1  0  0  0  0
 14  2  1  0  0  0  0
 16 17  1  0  0  0  0
 17  6  2  0  0  0  0
 17  3  1  0  0  0  0
 18  8  2  0  0  0  0
 19 37  1  6  0  0  0
 19 14  1  0  0  0  0
 20  1  1  0  0  0  0
 21  9  1  0  0  0  0
 22 11  1  6  0  0  0
 22 13  1  0  0  0  0
 22 21  1  0  0  0  0
 23 19  1  0  0  0  0
 24 10  1  0  0  0  0
 24 23  1  0  0  0  0
 25 18  1  0  0  0  0
 25 10  2  0  0  0  0
 26 31  1  0  0  0  0
 27 29  2  0  0  0  0
 29 28  1  0  0  0  0
 30 27  1  0  0  0  0
 30 26  2  0  0  0  0
 31 28  2  0  0  0  0
 32 33  1  0  0  0  0
 32 27  1  0  0  0  0
 34 32  2  0  0  0  0
 36 35  1  0  0  0  0
 38 37  1  0  0  0  0
 40 39  1  0  0  0  0
 40 42  1  0  0  0  0
 40 38  1  0  0  0  0
 41 40  1  0  0  0  0
 42 43  1  1  0  0  0
 44 46  1  0  0  0  0
 46 42  1  0  0  0  0
 46 45  1  1  0  0  0
 47 48  1  1  0  0  0
 47 44  1  0  0  0  0
 47 46  1  0  0  0  0
 48 49  2  0  0  0  0
 50 48  1  0  0  0  0
 50 51  1  0  0  0  0
 52 42  1  0  0  0  0
 52 53  1  0  0  0  0
 53 54  2  0  0  0  0
 53 55  1  0  0  0  0
M  END
>  <MODEL>
9

>  <REMARK>
 VINA RESULT:      -4.1      3.701     11.502
  Name = 
  12 active torsions:
  status: ('A' for Active; 'I' for Inactive)
    1  A    between atoms: C_1  and  O_53
    2  A    between atoms: C_6  and  C_14
    3  A    between atoms: C_6  and  C_20
    4  A    between atoms: C_6  and  O_53
    5  A    between atoms: C_8  and  C_22
    6  A    between atoms: C_8  and  C_43
    7  A    between atoms: O_9  and  C_26
    8  A    between atoms: C_10  and  C_32
    9  A    between atoms: C_11  and  C_29
   10  A    between atoms: C_20  and  C_22
   11  A    between atoms: C_29  and  C_38
   12  A    between atoms: C_33  and  C_52
                            x       y       z     vdW  Elec       q    Type
                         _______ _______ _______ _____ _____    ______ ____

>  <TORSDO>
F 12

$$$$
