=
 OpenBabel10272415203D

 34 40  0  0  0  0  0  0  0  0999 V2000
  186.7940  178.4080  140.7260 C   0  0  0  0  0  0  0  0  0  0  0  0
  187.4650  178.5250  137.1240 C   0  0  0  0  0  2  0  0  0  0  0  0
  185.4890  178.6170  138.3050 N   0  0  0  0  0  0  0  0  0  0  0  0
  186.0310  178.3570  142.7660 C   0  0  0  0  0  0  0  0  0  0  0  0
  187.1490  178.1980  142.1010 N   0  0  0  0  0  0  0  0  0  0  0  0
  183.5240  178.7580  142.0080 C   0  0  0  0  0  3  0  0  0  0  0  0
  182.7600  178.8900  140.8180 C   0  0  0  0  0  3  0  0  0  0  0  0
  184.9100  178.6470  141.8670 C   0  0  0  0  0  0  0  0  0  0  0  0
  185.9110  178.2130  144.1860 N   0  0  0  0  0  2  0  0  0  0  0  0
  184.7810  178.7210  139.4640 C   0  0  0  0  0  0  0  0  0  0  0  0
  185.4740  178.6580  140.6430 C   0  0  0  0  0  0  0  0  0  0  0  0
  183.3850  178.8660  139.5400 C   0  0  0  0  0  3  0  0  0  0  0  0
  188.9360  178.6540  136.9170 C   0  0  0  0  0  2  0  0  0  0  0  0
  189.7030  177.4730  137.3970 C   0  0  0  0  0  0  0  0  0  0  0  0
  189.6510  177.0890  138.6710 C   0  0  0  0  0  3  0  0  0  0  0  0
  186.8530  178.4090  138.3070 C   0  0  0  0  0  0  0  0  0  0  0  0
  188.7550  177.6310  139.7090 C   0  0  0  0  0  2  0  0  0  0  0  0
  187.5430  178.1920  139.5600 C   0  0  0  0  0  0  0  0  0  0  0  0
  187.8310  177.6970  147.3740 C   0  0  0  0  0  3  0  0  0  0  0  0
  188.2200  177.5550  144.6020 C   0  0  0  0  0  3  0  0  0  0  0  0
  191.3890  176.6730  147.2250 C   0  0  0  0  0  0  0  0  0  0  0  0
  190.1340  177.0400  147.7340 C   0  0  0  0  0  3  0  0  0  0  0  0
  189.0790  177.3330  146.8660 C   0  0  0  0  0  0  0  0  0  0  0  0
  190.5250  176.8970  144.9610 C   0  0  0  0  0  3  0  0  0  0  0  0
  189.2750  177.2610  145.4690 C   0  0  0  0  0  0  0  0  0  0  0  0
  191.5750  176.6040  145.8350 C   0  0  0  0  0  3  0  0  0  0  0  0
  186.9680  177.9200  145.1090 C   0  0  0  0  0  0  0  0  0  0  0  0
  186.7800  177.9890  146.4990 C   0  0  0  0  0  3  0  0  0  0  0  0
  192.5010  176.3640  148.1410 C   0  0  0  0  0  0  0  0  0  0  0  0
  193.1860  175.3190  147.9800 O   0  0  0  0  0  0  0  0  0  0  0  0
  192.8160  177.2440  149.2170 N   0  0  0  0  0  1  0  0  0  0  0  0
  190.5920  176.7350  136.4390 C   0  0  0  0  0  3  0  0  0  0  0  0
  190.7420  175.2810  136.8590 C   0  0  0  0  0  2  0  0  0  0  0  0
  189.8190  175.6390  135.7190 C   0  0  0  0  0  2  0  0  0  0  0  0
  1  5  1  0  0  0  0
  2 16  1  0  0  0  0
  3 16  2  0  0  0  0
  3 10  1  0  0  0  0
  4  9  1  0  0  0  0
  5  4  2  0  0  0  0
  7  6  2  0  0  0  0
  8  6  1  0  0  0  0
  8  4  1  0  0  0  0
  9 27  1  0  0  0  0
 10 12  2  0  0  0  0
 10 11  1  0  0  0  0
 11  1  1  0  0  0  0
 11  8  2  0  0  0  0
 12  7  1  0  0  0  0
 13  2  1  0  0  0  0
 13 14  1  0  0  0  0
 14 15  2  0  0  0  0
 15 17  1  0  0  0  0
 16 18  1  0  0  0  0
 18 17  1  0  0  0  0
 18  1  2  0  0  0  0
 20 27  2  0  0  0  0
 20 25  1  0  0  0  0
 21 22  1  0  0  0  0
 21 29  1  0  0  0  0
 23 19  1  0  0  0  0
 23 22  2  0  0  0  0
 24 25  2  0  0  0  0
 24 26  1  0  0  0  0
 25 23  1  0  0  0  0
 26 21  2  0  0  0  0
 27 28  1  0  0  0  0
 28 19  2  0  0  0  0
 29 31  1  0  0  0  0
 30 29  2  0  0  0  0
 32 33  1  0  0  0  0
 32 14  1  0  0  0  0
 34 32  1  0  0  0  0
 34 33  1  0  0  0  0
M  END
>  <MODEL>
1

>  <REMARK>
 VINA RESULT:     -11.2      0.000      0.000
  Name = 
  3 active torsions:
  status: ('A' for Active; 'I' for Inactive)
    1  A    between atoms: C_3  and  C_25
    2  A    between atoms: C_7  and  C_11
    3  A    between atoms: N_18  and  C_30
                            x       y       z     vdW  Elec       q    Type
                         _______ _______ _______ _____ _____    ______ ____

>  <TORSDO>
F 3

$$$$
=
 OpenBabel10272415203D

 34 40  0  0  0  0  0  0  0  0999 V2000
  186.9930  178.1390  144.0000 C   0  0  0  0  0  0  0  0  0  0  0  0
  183.6440  179.0190  145.2020 C   0  0  0  0  0  2  0  0  0  0  0  0
  185.5100  178.2680  146.3230 N   0  0  0  0  0  0  0  0  0  0  0  0
  189.0530  177.5280  143.6460 C   0  0  0  0  0  0  0  0  0  0  0  0
  187.9690  177.8530  142.9870 N   0  0  0  0  0  0  0  0  0  0  0  0
  189.5610  177.1820  146.2240 C   0  0  0  0  0  3  0  0  0  0  0  0
  188.8920  177.2310  147.4760 C   0  0  0  0  0  3  0  0  0  0  0  0
  188.8300  177.5610  145.0950 C   0  0  0  0  0  0  0  0  0  0  0  0
  190.2860  177.1380  143.0290 N   0  0  0  0  0  2  0  0  0  0  0  0
  186.8350  177.9530  146.3840 C   0  0  0  0  0  0  0  0  0  0  0  0
  187.5430  177.9450  145.2130 C   0  0  0  0  0  0  0  0  0  0  0  0
  187.5230  177.6120  147.5610 C   0  0  0  0  0  3  0  0  0  0  0  0
  182.8900  179.6610  144.0870 C   0  0  0  0  0  2  0  0  0  0  0  0
  182.6420  178.7440  142.9410 C   0  0  0  0  0  0  0  0  0  0  0  0
  183.6500  178.1750  142.2820 C   0  0  0  0  0  3  0  0  0  0  0  0
  184.8840  178.5280  145.1220 C   0  0  0  0  0  0  0  0  0  0  0  0
  185.0750  178.2240  142.6600 C   0  0  0  0  0  2  0  0  0  0  0  0
  185.6140  178.3650  143.8820 C   0  0  0  0  0  0  0  0  0  0  0  0
  192.0910  177.1290  139.7340 C   0  0  0  0  0  3  0  0  0  0  0  0
  189.4860  176.8940  140.7400 C   0  0  0  0  0  3  0  0  0  0  0  0
  190.1710  176.6990  136.5930 C   0  0  0  0  0  0  0  0  0  0  0  0
  191.2450  176.8830  137.4770 C   0  0  0  0  0  3  0  0  0  0  0  0
  191.0210  176.9470  138.8550 C   0  0  0  0  0  0  0  0  0  0  0  0
  188.6380  176.6470  138.4830 C   0  0  0  0  0  3  0  0  0  0  0  0
  189.7080  176.8290  139.3620 C   0  0  0  0  0  0  0  0  0  0  0  0
  188.8690  176.5820  137.1060 C   0  0  0  0  0  3  0  0  0  0  0  0
  190.5570  177.0770  141.6220 C   0  0  0  0  0  0  0  0  0  0  0  0
  191.8590  177.1930  141.1110 C   0  0  0  0  0  3  0  0  0  0  0  0
  190.4070  176.6300  135.1410 C   0  0  0  0  0  0  0  0  0  0  0  0
  189.6790  177.2810  134.3460 O   0  0  0  0  0  0  0  0  0  0  0  0
  191.4630  175.8280  134.6200 N   0  0  0  0  0  1  0  0  0  0  0  0
  181.2320  178.4980  142.4880 C   0  0  0  0  0  3  0  0  0  0  0  0
  180.3390  179.6720  142.8570 C   0  0  0  0  0  2  0  0  0  0  0  0
  180.8180  179.5160  141.4340 C   0  0  0  0  0  2  0  0  0  0  0  0
  1 11  1  0  0  0  0
  3 10  1  0  0  0  0
  4  8  1  0  0  0  0
  5  4  2  0  0  0  0
  5  1  1  0  0  0  0
  6  7  1  0  0  0  0
  7 12  2  0  0  0  0
  8 11  1  0  0  0  0
  8  6  2  0  0  0  0
  9  4  1  0  0  0  0
 10 12  1  0  0  0  0
 11 10  2  0  0  0  0
 13  2  1  0  0  0  0
 14 13  1  0  0  0  0
 15 17  1  0  0  0  0
 15 14  2  0  0  0  0
 16  2  1  0  0  0  0
 16  3  2  0  0  0  0
 17 18  1  0  0  0  0
 18  1  2  0  0  0  0
 18 16  1  0  0  0  0
 19 28  1  0  0  0  0
 20 27  1  0  0  0  0
 21 26  1  0  0  0  0
 21 22  2  0  0  0  0
 22 23  1  0  0  0  0
 23 25  1  0  0  0  0
 23 19  2  0  0  0  0
 24 25  1  0  0  0  0
 25 20  2  0  0  0  0
 26 24  2  0  0  0  0
 27  9  1  0  0  0  0
 28 27  2  0  0  0  0
 29 21  1  0  0  0  0
 30 29  2  0  0  0  0
 31 29  1  0  0  0  0
 32 33  1  0  0  0  0
 32 14  1  0  0  0  0
 34 32  1  0  0  0  0
 34 33  1  0  0  0  0
M  END
>  <MODEL>
2

>  <REMARK>
 VINA RESULT:     -10.5      3.315      8.538
  Name = 
  3 active torsions:
  status: ('A' for Active; 'I' for Inactive)
    1  A    between atoms: C_3  and  C_25
    2  A    between atoms: C_7  and  C_11
    3  A    between atoms: N_18  and  C_30
                            x       y       z     vdW  Elec       q    Type
                         _______ _______ _______ _____ _____    ______ ____

>  <TORSDO>
F 3

$$$$
=
 OpenBabel10272415203D

 34 40  0  0  0  0  0  0  0  0999 V2000
  185.5780  178.4040  143.2150 C   0  0  0  0  0  0  0  0  0  0  0  0
  181.9810  179.0730  143.4380 C   0  0  0  0  0  2  0  0  0  0  0  0
  183.5590  178.6900  145.0720 N   0  0  0  0  0  0  0  0  0  0  0  0
  187.7000  177.9760  143.4590 C   0  0  0  0  0  0  0  0  0  0  0  0
  186.7940  178.0880  142.5200 N   0  0  0  0  0  0  0  0  0  0  0  0
  187.5730  178.0460  146.1050 C   0  0  0  0  0  3  0  0  0  0  0  0
  186.6110  178.1940  147.1400 C   0  0  0  0  0  3  0  0  0  0  0  0
  187.1210  178.1850  144.7900 C   0  0  0  0  0  0  0  0  0  0  0  0
  189.0730  177.6410  143.2200 N   0  0  0  0  0  2  0  0  0  0  0  0
  184.8450  178.5310  145.4940 C   0  0  0  0  0  0  0  0  0  0  0  0
  185.8220  178.4400  144.5390 C   0  0  0  0  0  0  0  0  0  0  0  0
  185.2410  178.4320  146.8380 C   0  0  0  0  0  3  0  0  0  0  0  0
  181.4850  179.4690  142.0890 C   0  0  0  0  0  2  0  0  0  0  0  0
  181.5970  178.3820  141.0790 C   0  0  0  0  0  0  0  0  0  0  0  0
  182.7750  177.8410  140.7760 C   0  0  0  0  0  3  0  0  0  0  0  0
  183.2340  178.7120  143.7320 C   0  0  0  0  0  0  0  0  0  0  0  0
  184.0540  178.0950  141.4650 C   0  0  0  0  0  2  0  0  0  0  0  0
  184.2600  178.4610  142.7420 C   0  0  0  0  0  0  0  0  0  0  0  0
  191.6550  177.1350  140.5380 C   0  0  0  0  0  3  0  0  0  0  0  0
  188.8690  177.2550  140.8220 C   0  0  0  0  0  3  0  0  0  0  0  0
  190.5760  176.5900  137.0350 C   0  0  0  0  0  0  0  0  0  0  0  0
  191.3980  176.7530  138.1600 C   0  0  0  0  0  3  0  0  0  0  0  0
  190.8350  176.9740  139.4190 C   0  0  0  0  0  0  0  0  0  0  0  0
  188.6110  176.8720  138.4430 C   0  0  0  0  0  3  0  0  0  0  0  0
  189.4310  177.0340  139.5630 C   0  0  0  0  0  0  0  0  0  0  0  0
  189.1810  176.6520  137.1860 C   0  0  0  0  0  3  0  0  0  0  0  0
  189.6890  177.4170  141.9450 C   0  0  0  0  0  0  0  0  0  0  0  0
  191.0830  177.3550  141.7950 C   0  0  0  0  0  3  0  0  0  0  0  0
  191.1700  176.3570  135.7070 C   0  0  0  0  0  0  0  0  0  0  0  0
  192.3210  175.8570  135.6040 O   0  0  0  0  0  0  0  0  0  0  0  0
  190.4480  176.6920  134.5250 N   0  0  0  0  0  1  0  0  0  0  0  0
  180.3660  177.9250  140.3520 C   0  0  0  0  0  3  0  0  0  0  0  0
  180.6830  176.7400  139.4530 C   0  0  0  0  0  2  0  0  0  0  0  0
  179.9820  176.5130  140.7710 C   0  0  0  0  0  2  0  0  0  0  0  0
  1 11  1  0  0  0  0
  2 16  1  0  0  0  0
  3 10  1  0  0  0  0
  4  8  1  0  0  0  0
  5  1  1  0  0  0  0
  5  4  2  0  0  0  0
  6  7  1  0  0  0  0
  8  6  2  0  0  0  0
  9  4  1  0  0  0  0
 10 12  1  0  0  0  0
 11  8  1  0  0  0  0
 11 10  2  0  0  0  0
 12  7  2  0  0  0  0
 13  2  1  0  0  0  0
 14 13  1  0  0  0  0
 15 14  2  0  0  0  0
 15 17  1  0  0  0  0
 16  3  2  0  0  0  0
 17 18  1  0  0  0  0
 18  1  2  0  0  0  0
 18 16  1  0  0  0  0
 19 28  1  0  0  0  0
 20 27  1  0  0  0  0
 21 26  1  0  0  0  0
 21 22  2  0  0  0  0
 22 23  1  0  0  0  0
 23 25  1  0  0  0  0
 23 19  2  0  0  0  0
 24 25  1  0  0  0  0
 25 20  2  0  0  0  0
 26 24  2  0  0  0  0
 27  9  1  0  0  0  0
 28 27  2  0  0  0  0
 29 21  1  0  0  0  0
 30 29  2  0  0  0  0
 31 29  1  0  0  0  0
 32 34  1  0  0  0  0
 32 14  1  0  0  0  0
 33 32  1  0  0  0  0
 33 34  1  0  0  0  0
M  END
>  <MODEL>
3

>  <REMARK>
 VINA RESULT:     -10.0      3.311      7.856
  Name = 
  3 active torsions:
  status: ('A' for Active; 'I' for Inactive)
    1  A    between atoms: C_3  and  C_25
    2  A    between atoms: C_7  and  C_11
    3  A    between atoms: N_18  and  C_30
                            x       y       z     vdW  Elec       q    Type
                         _______ _______ _______ _____ _____    ______ ____

>  <TORSDO>
F 3

$$$$
=
 OpenBabel10272415203D

 34 40  0  0  0  0  0  0  0  0999 V2000
  188.0740  177.5590  144.4720 C   0  0  0  0  0  0  0  0  0  0  0  0
  191.5880  176.7680  143.7930 C   0  0  0  0  0  2  0  0  0  0  0  0
  190.5050  177.3100  145.7520 N   0  0  0  0  0  0  0  0  0  0  0  0
  186.1010  178.0810  145.2330 C   0  0  0  0  0  0  0  0  0  0  0  0
  186.7250  177.8780  144.0990 N   0  0  0  0  0  0  0  0  0  0  0  0
  186.9180  178.1690  147.7510 C   0  0  0  0  0  3  0  0  0  0  0  0
  188.1150  178.0470  148.5070 C   0  0  0  0  0  3  0  0  0  0  0  0
  187.0050  177.9330  146.3770 C   0  0  0  0  0  0  0  0  0  0  0  0
  184.7210  178.4530  145.3380 N   0  0  0  0  0  2  0  0  0  0  0  0
  189.3790  177.5430  146.4830 C   0  0  0  0  0  0  0  0  0  0  0  0
  188.1870  177.6130  145.8130 C   0  0  0  0  0  0  0  0  0  0  0  0
  189.3530  177.7390  147.8740 C   0  0  0  0  0  3  0  0  0  0  0  0
  191.7030  176.2720  142.3920 C   0  0  0  0  0  2  0  0  0  0  0  0
  191.3520  177.2990  141.3740 C   0  0  0  0  0  0  0  0  0  0  0  0
  190.1470  177.8650  141.3530 C   0  0  0  0  0  3  0  0  0  0  0  0
  190.4640  177.1940  144.3790 C   0  0  0  0  0  0  0  0  0  0  0  0
  189.0900  177.7030  142.3680 C   0  0  0  0  0  2  0  0  0  0  0  0
  189.2200  177.4230  143.6760 C   0  0  0  0  0  0  0  0  0  0  0  0
  181.5410  178.9520  143.3990 C   0  0  0  0  0  3  0  0  0  0  0  0
  184.2870  178.6230  142.9450 C   0  0  0  0  0  3  0  0  0  0  0  0
  181.6570  179.1150  139.6990 C   0  0  0  0  0  0  0  0  0  0  0  0
  181.1640  179.1150  141.0120 C   0  0  0  0  0  3  0  0  0  0  0  0
  182.0340  178.9520  142.0930 C   0  0  0  0  0  0  0  0  0  0  0  0
  183.9110  178.7860  140.5570 C   0  0  0  0  0  3  0  0  0  0  0  0
  183.4180  178.7860  141.8640 C   0  0  0  0  0  0  0  0  0  0  0  0
  183.0350  178.9500  139.4810 C   0  0  0  0  0  3  0  0  0  0  0  0
  183.7960  178.6230  144.2560 C   0  0  0  0  0  0  0  0  0  0  0  0
  182.4190  178.7880  144.4750 C   0  0  0  0  0  3  0  0  0  0  0  0
  180.7400  179.2880  138.5600 C   0  0  0  0  0  0  0  0  0  0  0  0
  180.5080  178.3280  137.7780 O   0  0  0  0  0  0  0  0  0  0  0  0
  180.1020  180.5410  138.3310 N   0  0  0  0  0  1  0  0  0  0  0  0
  192.3570  177.6630  140.3200 C   0  0  0  0  0  3  0  0  0  0  0  0
  193.3750  176.5480  140.1420 C   0  0  0  0  0  2  0  0  0  0  0  0
  192.2640  176.7150  139.1330 C   0  0  0  0  0  2  0  0  0  0  0  0
  1 11  1  0  0  0  0
  2 16  1  0  0  0  0
  3 10  1  0  0  0  0
  4  9  1  0  0  0  0
  4  8  1  0  0  0  0
  5  1  1  0  0  0  0
  5  4  2  0  0  0  0
  6  7  1  0  0  0  0
  8  6  2  0  0  0  0
 10 12  1  0  0  0  0
 11  8  1  0  0  0  0
 11 10  2  0  0  0  0
 12  7  2  0  0  0  0
 13  2  1  0  0  0  0
 14 13  1  0  0  0  0
 15 14  2  0  0  0  0
 15 17  1  0  0  0  0
 16  3  2  0  0  0  0
 17 18  1  0  0  0  0
 18 16  1  0  0  0  0
 18  1  2  0  0  0  0
 19 28  1  0  0  0  0
 20 27  1  0  0  0  0
 21 22  2  0  0  0  0
 22 23  1  0  0  0  0
 23 19  2  0  0  0  0
 24 25  1  0  0  0  0
 25 23  1  0  0  0  0
 25 20  2  0  0  0  0
 26 21  1  0  0  0  0
 26 24  2  0  0  0  0
 27 28  2  0  0  0  0
 27  9  1  0  0  0  0
 29 21  1  0  0  0  0
 30 29  2  0  0  0  0
 31 29  1  0  0  0  0
 32 14  1  0  0  0  0
 33 32  1  0  0  0  0
 34 33  1  0  0  0  0
 34 32  1  0  0  0  0
M  END
>  <MODEL>
4

>  <REMARK>
 VINA RESULT:      -9.9      3.845      8.165
  Name = 
  3 active torsions:
  status: ('A' for Active; 'I' for Inactive)
    1  A    between atoms: C_3  and  C_25
    2  A    between atoms: C_7  and  C_11
    3  A    between atoms: N_18  and  C_30
                            x       y       z     vdW  Elec       q    Type
                         _______ _______ _______ _____ _____    ______ ____

>  <TORSDO>
F 3

$$$$
=
 OpenBabel10272415203D

 34 40  0  0  0  0  0  0  0  0999 V2000
  190.3850  176.9620  137.6110 C   0  0  0  0  0  0  0  0  0  0  0  0
  192.6440  175.7920  134.9730 C   0  0  0  0  0  2  0  0  0  0  0  0
  190.4380  176.4500  134.9010 N   0  0  0  0  0  0  0  0  0  0  0  0
  188.7820  177.6720  138.9050 C   0  0  0  0  0  0  0  0  0  0  0  0
  190.0030  177.2010  138.9740 N   0  0  0  0  0  0  0  0  0  0  0  0
  187.0900  178.0070  136.8930 C   0  0  0  0  0  3  0  0  0  0  0  0
  187.0190  177.7930  135.4910 C   0  0  0  0  0  3  0  0  0  0  0  0
  188.3100  177.7360  137.5180 C   0  0  0  0  0  0  0  0  0  0  0  0
  187.9900  178.0300  140.0440 N   0  0  0  0  0  2  0  0  0  0  0  0
  189.3250  177.0010  135.4620 C   0  0  0  0  0  0  0  0  0  0  0  0
  189.3580  177.2820  136.8010 C   0  0  0  0  0  0  0  0  0  0  0  0
  188.1350  177.2830  134.7690 C   0  0  0  0  0  3  0  0  0  0  0  0
  194.0260  175.7160  135.5270 C   0  0  0  0  0  2  0  0  0  0  0  0
  194.1690  174.7060  136.6110 C   0  0  0  0  0  0  0  0  0  0  0  0
  193.4440  174.7830  137.7250 C   0  0  0  0  0  3  0  0  0  0  0  0
  191.5480  176.1370  135.6570 C   0  0  0  0  0  0  0  0  0  0  0  0
  192.3350  175.7200  137.9800 C   0  0  0  0  0  2  0  0  0  0  0  0
  191.5070  176.3000  137.0940 C   0  0  0  0  0  0  0  0  0  0  0  0
  190.1090  177.9860  143.1460 C   0  0  0  0  0  3  0  0  0  0  0  0
  187.4080  177.8640  142.4050 C   0  0  0  0  0  3  0  0  0  0  0  0
  188.4890  177.7040  146.4680 C   0  0  0  0  0  0  0  0  0  0  0  0
  189.4780  177.8180  145.4790 C   0  0  0  0  0  3  0  0  0  0  0  0
  189.1230  177.8720  144.1290 C   0  0  0  0  0  0  0  0  0  0  0  0
  186.7760  177.6960  144.7380 C   0  0  0  0  0  3  0  0  0  0  0  0
  187.7630  177.8100  143.7550 C   0  0  0  0  0  0  0  0  0  0  0  0
  187.1390  177.6440  146.0870 C   0  0  0  0  0  3  0  0  0  0  0  0
  188.3950  177.9780  141.4180 C   0  0  0  0  0  0  0  0  0  0  0  0
  189.7450  178.0390  141.7980 C   0  0  0  0  0  3  0  0  0  0  0  0
  188.8640  177.6490  147.8910 C   0  0  0  0  0  0  0  0  0  0  0  0
  190.0750  177.5890  148.2290 O   0  0  0  0  0  0  0  0  0  0  0  0
  187.8600  177.6640  148.9020 N   0  0  0  0  0  1  0  0  0  0  0  0
  195.1880  173.6130  136.4670 C   0  0  0  0  0  3  0  0  0  0  0  0
  194.9810  172.5440  137.5280 C   0  0  0  0  0  2  0  0  0  0  0  0
  194.5180  172.2920  136.1130 C   0  0  0  0  0  2  0  0  0  0  0  0
  1  5  1  0  0  0  0
  2 13  1  0  0  0  0
  2 16  1  0  0  0  0
  3 10  2  0  0  0  0
  3 16  1  0  0  0  0
  4  5  2  0  0  0  0
  4  9  1  0  0  0  0
  6  8  2  0  0  0  0
  7  6  1  0  0  0  0
  8  4  1  0  0  0  0
  9 27  1  0  0  0  0
 10 11  1  0  0  0  0
 11  8  1  0  0  0  0
 11  1  2  0  0  0  0
 12 10  1  0  0  0  0
 12  7  2  0  0  0  0
 13 14  1  0  0  0  0
 14 15  2  0  0  0  0
 15 17  1  0  0  0  0
 16 18  2  0  0  0  0
 18  1  1  0  0  0  0
 18 17  1  0  0  0  0
 19 23  1  0  0  0  0
 20 25  1  0  0  0  0
 21 29  1  0  0  0  0
 22 21  2  0  0  0  0
 23 22  1  0  0  0  0
 24 26  2  0  0  0  0
 25 23  2  0  0  0  0
 25 24  1  0  0  0  0
 26 21  1  0  0  0  0
 27 28  1  0  0  0  0
 27 20  2  0  0  0  0
 28 19  2  0  0  0  0
 29 30  2  0  0  0  0
 29 31  1  0  0  0  0
 32 14  1  0  0  0  0
 32 33  1  0  0  0  0
 34 32  1  0  0  0  0
 34 33  1  0  0  0  0
M  END
>  <MODEL>
5

>  <REMARK>
 VINA RESULT:      -9.8      2.770      5.015
  Name = 
  3 active torsions:
  status: ('A' for Active; 'I' for Inactive)
    1  A    between atoms: C_3  and  C_25
    2  A    between atoms: C_7  and  C_11
    3  A    between atoms: N_18  and  C_30
                            x       y       z     vdW  Elec       q    Type
                         _______ _______ _______ _____ _____    ______ ____

>  <TORSDO>
F 3

$$$$
=
 OpenBabel10272415203D

 34 40  0  0  0  0  0  0  0  0999 V2000
  187.5290  177.6310  143.8370 C   0  0  0  0  0  0  0  0  0  0  0  0
  188.2390  177.1060  147.3940 C   0  0  0  0  0  2  0  0  0  0  0  0
  186.4950  178.1750  146.3360 N   0  0  0  0  0  0  0  0  0  0  0  0
  186.8040  178.1350  141.8450 C   0  0  0  0  0  0  0  0  0  0  0  0
  187.8520  177.6170  142.4380 N   0  0  0  0  0  0  0  0  0  0  0  0
  184.5720  179.2310  142.7600 C   0  0  0  0  0  3  0  0  0  0  0  0
  183.9470  179.5450  143.9960 C   0  0  0  0  0  3  0  0  0  0  0  0
  185.7780  178.5270  142.8160 C   0  0  0  0  0  0  0  0  0  0  0  0
  186.6970  178.3390  140.4310 N   0  0  0  0  0  2  0  0  0  0  0  0
  185.7820  178.5100  145.2230 C   0  0  0  0  0  0  0  0  0  0  0  0
  186.3110  178.1800  144.0040 C   0  0  0  0  0  0  0  0  0  0  0  0
  184.5530  179.1910  145.2340 C   0  0  0  0  0  3  0  0  0  0  0  0
  189.3820  176.1560  147.5170 C   0  0  0  0  0  2  0  0  0  0  0  0
  190.6540  176.6920  146.9610 C   0  0  0  0  0  0  0  0  0  0  0  0
  190.7500  177.0520  145.6830 C   0  0  0  0  0  3  0  0  0  0  0  0
  187.7290  177.5660  146.2470 C   0  0  0  0  0  0  0  0  0  0  0  0
  189.6410  177.1330  144.7150 C   0  0  0  0  0  2  0  0  0  0  0  0
  188.3380  177.3650  144.9500 C   0  0  0  0  0  0  0  0  0  0  0  0
  188.3510  177.6750  137.1230 C   0  0  0  0  0  3  0  0  0  0  0  0
  188.9460  177.5920  139.8610 C   0  0  0  0  0  3  0  0  0  0  0  0
  191.8770  176.5370  137.0320 C   0  0  0  0  0  0  0  0  0  0  0  0
  190.5980  176.9310  136.6090 C   0  0  0  0  0  3  0  0  0  0  0  0
  189.6220  177.2820  137.5460 C   0  0  0  0  0  0  0  0  0  0  0  0
  191.1950  176.8490  139.3480 C   0  0  0  0  0  3  0  0  0  0  0  0
  189.9220  177.2410  138.9250 C   0  0  0  0  0  0  0  0  0  0  0  0
  192.1660  176.4990  138.4060 C   0  0  0  0  0  3  0  0  0  0  0  0
  187.6710  177.9860  139.4390 C   0  0  0  0  0  0  0  0  0  0  0  0
  187.3800  178.0250  138.0660 C   0  0  0  0  0  3  0  0  0  0  0  0
  192.9050  176.1670  136.0450 C   0  0  0  0  0  0  0  0  0  0  0  0
  192.5910  175.5210  135.0110 O   0  0  0  0  0  0  0  0  0  0  0  0
  194.2660  176.5380  136.2470 N   0  0  0  0  0  1  0  0  0  0  0  0
  191.8640  176.7760  147.8460 C   0  0  0  0  0  3  0  0  0  0  0  0
  192.0710  175.4700  148.5960 C   0  0  0  0  0  2  0  0  0  0  0  0
  192.9320  175.7880  147.3970 C   0  0  0  0  0  2  0  0  0  0  0  0
  1 11  2  0  0  0  0
  1 18  1  0  0  0  0
  2 13  1  0  0  0  0
  4  5  2  0  0  0  0
  4  8  1  0  0  0  0
  5  1  1  0  0  0  0
  6  8  2  0  0  0  0
  6  7  1  0  0  0  0
  7 12  2  0  0  0  0
  8 11  1  0  0  0  0
  9  4  1  0  0  0  0
 10 12  1  0  0  0  0
 10  3  2  0  0  0  0
 11 10  1  0  0  0  0
 14 13  1  0  0  0  0
 14 32  1  0  0  0  0
 15 14  2  0  0  0  0
 16  3  1  0  0  0  0
 16  2  1  0  0  0  0
 17 18  1  0  0  0  0
 17 15  1  0  0  0  0
 18 16  2  0  0  0  0
 19 23  2  0  0  0  0
 19 28  1  0  0  0  0
 21 26  1  0  0  0  0
 22 21  2  0  0  0  0
 22 23  1  0  0  0  0
 23 25  1  0  0  0  0
 25 24  1  0  0  0  0
 25 20  2  0  0  0  0
 26 24  2  0  0  0  0
 27 20  1  0  0  0  0
 27  9  1  0  0  0  0
 28 27  2  0  0  0  0
 29 31  1  0  0  0  0
 29 21  1  0  0  0  0
 30 29  2  0  0  0  0
 32 33  1  0  0  0  0
 34 32  1  0  0  0  0
 34 33  1  0  0  0  0
M  END
>  <MODEL>
6

>  <REMARK>
 VINA RESULT:      -9.7      3.017      8.158
  Name = 
  3 active torsions:
  status: ('A' for Active; 'I' for Inactive)
    1  A    between atoms: C_3  and  C_25
    2  A    between atoms: C_7  and  C_11
    3  A    between atoms: N_18  and  C_30
                            x       y       z     vdW  Elec       q    Type
                         _______ _______ _______ _____ _____    ______ ____

>  <TORSDO>
F 3

$$$$
=
 OpenBabel10272415203D

 34 40  0  0  0  0  0  0  0  0999 V2000
  189.6560  177.2280  140.7750 C   0  0  0  0  0  0  0  0  0  0  0  0
  191.0130  177.9600  144.1010 C   0  0  0  0  0  2  0  0  0  0  0  0
  192.0590  177.4880  142.1040 N   0  0  0  0  0  0  0  0  0  0  0  0
  189.2120  176.7500  138.6970 C   0  0  0  0  0  0  0  0  0  0  0  0
  188.6070  176.9130  139.8480 N   0  0  0  0  0  0  0  0  0  0  0  0
  191.7650  176.7280  137.9890 C   0  0  0  0  0  3  0  0  0  0  0  0
  193.0530  176.8590  138.5750 C   0  0  0  0  0  3  0  0  0  0  0  0
  190.6620  176.9230  138.8250 C   0  0  0  0  0  0  0  0  0  0  0  0
  188.5460  176.3970  137.4790 N   0  0  0  0  0  2  0  0  0  0  0  0
  192.0520  177.2890  140.7560 C   0  0  0  0  0  0  0  0  0  0  0  0
  190.8370  177.2120  140.1300 C   0  0  0  0  0  0  0  0  0  0  0  0
  193.2020  177.1340  139.9630 C   0  0  0  0  0  3  0  0  0  0  0  0
  189.8980  178.4130  144.9820 C   0  0  0  0  0  2  0  0  0  0  0  0
  188.8750  177.3610  145.2230 C   0  0  0  0  0  0  0  0  0  0  0  0
  188.2030  176.8080  144.2150 C   0  0  0  0  0  3  0  0  0  0  0  0
  190.8890  177.5640  142.8300 C   0  0  0  0  0  0  0  0  0  0  0  0
  188.4640  177.0120  142.7790 C   0  0  0  0  0  2  0  0  0  0  0  0
  189.6210  177.3280  142.1730 C   0  0  0  0  0  0  0  0  0  0  0  0
  184.8880  177.0670  136.9400 C   0  0  0  0  0  3  0  0  0  0  0  0
  186.6290  174.9010  137.3080 C   0  0  0  0  0  3  0  0  0  0  0  0
  182.5080  174.2300  136.7860 C   0  0  0  0  0  0  0  0  0  0  0  0
  183.0160  175.5380  136.7770 C   0  0  0  0  0  3  0  0  0  0  0  0
  184.3840  175.7650  136.9500 C   0  0  0  0  0  0  0  0  0  0  0  0
  184.7570  173.3710  137.1450 C   0  0  0  0  0  3  0  0  0  0  0  0
  185.2610  174.6740  137.1350 C   0  0  0  0  0  0  0  0  0  0  0  0
  183.3880  173.1510  136.9710 C   0  0  0  0  0  3  0  0  0  0  0  0
  187.1360  176.2060  137.2990 C   0  0  0  0  0  0  0  0  0  0  0  0
  186.2580  177.2860  137.1140 C   0  0  0  0  0  3  0  0  0  0  0  0
  181.0660  173.9920  136.6030 C   0  0  0  0  0  0  0  0  0  0  0  0
  180.3950  174.7160  135.8210 O   0  0  0  0  0  0  0  0  0  0  0  0
  180.4150  172.9380  137.3080 N   0  0  0  0  0  1  0  0  0  0  0  0
  188.5570  176.9550  146.6330 C   0  0  0  0  0  3  0  0  0  0  0  0
  188.9820  178.0390  147.6110 C   0  0  0  0  0  2  0  0  0  0  0  0
  187.5240  177.8900  147.2460 C   0  0  0  0  0  2  0  0  0  0  0  0
  1 18  1  0  0  0  0
  2 13  1  0  0  0  0
  3 16  1  0  0  0  0
  4  8  1  0  0  0  0
  4  5  2  0  0  0  0
  5  1  1  0  0  0  0
  6  7  1  0  0  0  0
  6  8  2  0  0  0  0
  7 12  2  0  0  0  0
  8 11  1  0  0  0  0
  9  4  1  0  0  0  0
 10  3  2  0  0  0  0
 11 10  1  0  0  0  0
 11  1  2  0  0  0  0
 12 10  1  0  0  0  0
 13 14  1  0  0  0  0
 14 32  1  0  0  0  0
 15 14  2  0  0  0  0
 16  2  1  0  0  0  0
 17 15  1  0  0  0  0
 18 17  1  0  0  0  0
 18 16  2  0  0  0  0
 19 23  2  0  0  0  0
 19 28  1  0  0  0  0
 21 26  1  0  0  0  0
 22 21  2  0  0  0  0
 22 23  1  0  0  0  0
 23 25  1  0  0  0  0
 25 24  1  0  0  0  0
 25 20  2  0  0  0  0
 26 24  2  0  0  0  0
 27 20  1  0  0  0  0
 27  9  1  0  0  0  0
 28 27  2  0  0  0  0
 29 21  1  0  0  0  0
 29 31  1  0  0  0  0
 30 29  2  0  0  0  0
 32 34  1  0  0  0  0
 32 33  1  0  0  0  0
 34 33  1  0  0  0  0
M  END
>  <MODEL>
7

>  <REMARK>
 VINA RESULT:      -9.6      4.558      9.900
  Name = 
  3 active torsions:
  status: ('A' for Active; 'I' for Inactive)
    1  A    between atoms: C_3  and  C_25
    2  A    between atoms: C_7  and  C_11
    3  A    between atoms: N_18  and  C_30
                            x       y       z     vdW  Elec       q    Type
                         _______ _______ _______ _____ _____    ______ ____

>  <TORSDO>
F 3

$$$$
=
 OpenBabel10272415203D

 34 40  0  0  0  0  0  0  0  0999 V2000
  189.7050  177.5610  141.1470 C   0  0  0  0  0  0  0  0  0  0  0  0
  191.1510  177.8020  144.5060 C   0  0  0  0  0  2  0  0  0  0  0  0
  192.1120  177.3140  142.4710 N   0  0  0  0  0  0  0  0  0  0  0  0
  189.1950  177.3240  139.0430 C   0  0  0  0  0  0  0  0  0  0  0  0
  188.6210  177.4980  140.2080 N   0  0  0  0  0  0  0  0  0  0  0  0
  191.7120  176.9290  138.3130 C   0  0  0  0  0  3  0  0  0  0  0  0
  193.0010  176.7980  138.8950 C   0  0  0  0  0  3  0  0  0  0  0  0
  190.6540  177.2410  139.1700 C   0  0  0  0  0  0  0  0  0  0  0  0
  188.4840  177.1800  137.8070 N   0  0  0  0  0  2  0  0  0  0  0  0
  192.0770  177.2230  141.1120 C   0  0  0  0  0  0  0  0  0  0  0  0
  190.8690  177.3970  140.4920 C   0  0  0  0  0  0  0  0  0  0  0  0
  193.1880  176.9380  140.2990 C   0  0  0  0  0  3  0  0  0  0  0  0
  190.1250  178.3670  145.4290 C   0  0  0  0  0  2  0  0  0  0  0  0
  188.9380  177.4840  145.5990 C   0  0  0  0  0  0  0  0  0  0  0  0
  188.1880  177.1300  144.5580 C   0  0  0  0  0  3  0  0  0  0  0  0
  190.9680  177.5300  143.2110 C   0  0  0  0  0  0  0  0  0  0  0  0
  188.4850  177.3960  143.1390 C   0  0  0  0  0  2  0  0  0  0  0  0
  189.6820  177.5590  142.5490 C   0  0  0  0  0  0  0  0  0  0  0  0
  185.0050  176.4790  136.5730 C   0  0  0  0  0  3  0  0  0  0  0  0
  186.3310  178.1740  138.3690 C   0  0  0  0  0  3  0  0  0  0  0  0
  182.1570  178.4350  137.9130 C   0  0  0  0  0  0  0  0  0  0  0  0
  182.8900  177.5010  137.1670 C   0  0  0  0  0  3  0  0  0  0  0  0
  184.2770  177.4110  137.3160 C   0  0  0  0  0  0  0  0  0  0  0  0
  184.2160  179.1960  138.9640 C   0  0  0  0  0  3  0  0  0  0  0  0
  184.9450  178.2650  138.2210 C   0  0  0  0  0  0  0  0  0  0  0  0
  182.8290  179.2810  138.8100 C   0  0  0  0  0  3  0  0  0  0  0  0
  187.0630  177.2420  137.6250 C   0  0  0  0  0  0  0  0  0  0  0  0
  186.3920  176.3960  136.7280 C   0  0  0  0  0  3  0  0  0  0  0  0
  180.6950  178.5290  137.7560 C   0  0  0  0  0  0  0  0  0  0  0  0
  179.9820  177.4930  137.8040 O   0  0  0  0  0  0  0  0  0  0  0  0
  180.0720  179.7940  137.5500 N   0  0  0  0  0  1  0  0  0  0  0  0
  188.5510  177.0310  146.9770 C   0  0  0  0  0  3  0  0  0  0  0  0
  189.0490  178.0160  148.0240 C   0  0  0  0  0  2  0  0  0  0  0  0
  187.5930  178.0220  147.6230 C   0  0  0  0  0  2  0  0  0  0  0  0
  1 18  1  0  0  0  0
  2 13  1  0  0  0  0
  3 16  1  0  0  0  0
  4  8  1  0  0  0  0
  4  5  2  0  0  0  0
  5  1  1  0  0  0  0
  6  7  1  0  0  0  0
  6  8  2  0  0  0  0
  7 12  2  0  0  0  0
  8 11  1  0  0  0  0
  9  4  1  0  0  0  0
 10  3  2  0  0  0  0
 11 10  1  0  0  0  0
 11  1  2  0  0  0  0
 12 10  1  0  0  0  0
 13 14  1  0  0  0  0
 14 32  1  0  0  0  0
 15 14  2  0  0  0  0
 16  2  1  0  0  0  0
 17 15  1  0  0  0  0
 18 17  1  0  0  0  0
 18 16  2  0  0  0  0
 19 28  2  0  0  0  0
 19 23  1  0  0  0  0
 21 26  1  0  0  0  0
 22 23  1  0  0  0  0
 22 21  2  0  0  0  0
 23 25  2  0  0  0  0
 25 20  1  0  0  0  0
 25 24  1  0  0  0  0
 26 24  2  0  0  0  0
 27  9  1  0  0  0  0
 27 20  2  0  0  0  0
 28 27  1  0  0  0  0
 29 30  2  0  0  0  0
 29 21  1  0  0  0  0
 31 29  1  0  0  0  0
 32 34  1  0  0  0  0
 32 33  1  0  0  0  0
 34 33  1  0  0  0  0
M  END
>  <MODEL>
8

>  <REMARK>
 VINA RESULT:      -9.6      3.778      9.703
  Name = 
  3 active torsions:
  status: ('A' for Active; 'I' for Inactive)
    1  A    between atoms: C_3  and  C_25
    2  A    between atoms: C_7  and  C_11
    3  A    between atoms: N_18  and  C_30
                            x       y       z     vdW  Elec       q    Type
                         _______ _______ _______ _____ _____    ______ ____

>  <TORSDO>
F 3

$$$$
=
 OpenBabel10272415203D

 34 40  0  0  0  0  0  0  0  0999 V2000
  185.3320  178.1630  138.9320 C   0  0  0  0  0  0  0  0  0  0  0  0
  186.9800  177.7830  135.6800 C   0  0  0  0  0  2  0  0  0  0  0  0
  184.7510  177.8150  136.2580 N   0  0  0  0  0  0  0  0  0  0  0  0
  184.0320  178.3450  140.6700 C   0  0  0  0  0  0  0  0  0  0  0  0
  185.3000  178.2230  140.3650 N   0  0  0  0  0  0  0  0  0  0  0  0
  181.8170  178.3010  139.2160 C   0  0  0  0  0  3  0  0  0  0  0  0
  181.4110  178.1430  137.8640 C   0  0  0  0  0  3  0  0  0  0  0  0
  183.1900  178.3440  139.4690 C   0  0  0  0  0  0  0  0  0  0  0  0
  183.5270  178.4180  142.0090 N   0  0  0  0  0  2  0  0  0  0  0  0
  183.7380  178.0140  137.1480 C   0  0  0  0  0  0  0  0  0  0  0  0
  184.0740  178.2290  138.4580 C   0  0  0  0  0  0  0  0  0  0  0  0
  182.3710  177.9930  136.8240 C   0  0  0  0  0  3  0  0  0  0  0  0
  188.4350  178.0600  135.8470 C   0  0  0  0  0  2  0  0  0  0  0  0
  189.1240  177.0780  136.7270 C   0  0  0  0  0  0  0  0  0  0  0  0
  188.7440  176.9000  137.9910 C   0  0  0  0  0  3  0  0  0  0  0  0
  186.0700  177.7820  136.6590 C   0  0  0  0  0  0  0  0  0  0  0  0
  187.5540  177.4850  138.6340 C   0  0  0  0  0  2  0  0  0  0  0  0
  186.3930  177.8590  138.0680 C   0  0  0  0  0  0  0  0  0  0  0  0
  184.5730  178.9020  145.5850 C   0  0  0  0  0  3  0  0  0  0  0  0
  185.5950  177.8820  143.1820 C   0  0  0  0  0  3  0  0  0  0  0  0
  187.9470  177.8170  146.6700 C   0  0  0  0  0  0  0  0  0  0  0  0
  186.6490  178.3490  146.7050 C   0  0  0  0  0  3  0  0  0  0  0  0
  185.8640  178.3720  145.5480 C   0  0  0  0  0  0  0  0  0  0  0  0
  187.6710  177.3280  144.3010 C   0  0  0  0  0  3  0  0  0  0  0  0
  186.3790  177.8580  144.3380 C   0  0  0  0  0  0  0  0  0  0  0  0
  188.4500  177.3080  145.4620 C   0  0  0  0  0  3  0  0  0  0  0  0
  184.3000  178.4130  143.2160 C   0  0  0  0  0  0  0  0  0  0  0  0
  183.7950  178.9210  144.4230 C   0  0  0  0  0  3  0  0  0  0  0  0
  188.7730  177.7920  147.8890 C   0  0  0  0  0  0  0  0  0  0  0  0
  188.3090  178.2150  148.9810 O   0  0  0  0  0  0  0  0  0  0  0  0
  190.1050  177.2870  147.8470 N   0  0  0  0  0  1  0  0  0  0  0  0
  190.3010  176.3130  136.1950 C   0  0  0  0  0  3  0  0  0  0  0  0
  190.3770  174.9350  136.8340 C   0  0  0  0  0  2  0  0  0  0  0  0
  189.8430  175.0800  135.4290 C   0  0  0  0  0  2  0  0  0  0  0  0
  1  5  1  0  0  0  0
  2 13  1  0  0  0  0
  2 16  1  0  0  0  0
  3 16  2  0  0  0  0
  3 10  1  0  0  0  0
  4  9  1  0  0  0  0
  5  4  2  0  0  0  0
  6  8  1  0  0  0  0
  7  6  2  0  0  0  0
  8  4  1  0  0  0  0
  9 27  1  0  0  0  0
 10 11  1  0  0  0  0
 11  1  1  0  0  0  0
 11  8  2  0  0  0  0
 12 10  2  0  0  0  0
 12  7  1  0  0  0  0
 13 14  1  0  0  0  0
 14 15  2  0  0  0  0
 15 17  1  0  0  0  0
 16 18  1  0  0  0  0
 18 17  1  0  0  0  0
 18  1  2  0  0  0  0
 20 27  2  0  0  0  0
 20 25  1  0  0  0  0
 21 22  1  0  0  0  0
 21 29  1  0  0  0  0
 23 19  1  0  0  0  0
 23 22  2  0  0  0  0
 24 25  2  0  0  0  0
 24 26  1  0  0  0  0
 25 23  1  0  0  0  0
 26 21  2  0  0  0  0
 27 28  1  0  0  0  0
 28 19  2  0  0  0  0
 29 30  2  0  0  0  0
 31 29  1  0  0  0  0
 32 14  1  0  0  0  0
 32 33  1  0  0  0  0
 34 32  1  0  0  0  0
 34 33  1  0  0  0  0
M  END
>  <MODEL>
9

>  <REMARK>
 VINA RESULT:      -9.6      2.013      2.902
  Name = 
  3 active torsions:
  status: ('A' for Active; 'I' for Inactive)
    1  A    between atoms: C_3  and  C_25
    2  A    between atoms: C_7  and  C_11
    3  A    between atoms: N_18  and  C_30
                            x       y       z     vdW  Elec       q    Type
                         _______ _______ _______ _____ _____    ______ ____

>  <TORSDO>
F 3

$$$$
