=
 OpenBabel10272401553D

 28 31  0  0  1  0  0  0  0  0999 V2000
  190.4910  176.9480  142.6080 N   0  0  0  0  0  0  0  0  0  0  0  0
  189.9740  177.3320  141.3160 C   0  0  0  0  0  0  0  0  0  0  0  0
  188.7390  177.5110  141.1430 O   0  0  0  0  0  0  0  0  0  0  0  0
  189.3010  177.8460  144.5560 C   0  0  1  0  0  3  0  0  0  0  0  0
  188.4040  175.7890  143.3280 C   0  0  0  0  0  1  0  0  0  0  0  0
  191.6890  179.0490  143.7560 S   0  0  0  0  0  0  0  0  0  0  0  0
  190.5880  178.4740  145.0990 C   0  0  0  0  0  2  0  0  0  0  0  0
  191.8240  177.4050  142.9740 C   0  0  0  0  0  2  0  0  0  0  0  0
  189.6350  176.5900  143.7420 C   0  0  1  0  0  3  0  0  0  0  0  0
  188.8620  176.7980  146.8120 C   0  0  0  0  0  1  0  0  0  0  0  0
  188.3800  177.5480  145.6550 N   0  0  0  0  0  0  0  0  0  0  0  0
  184.4510  178.2190  141.8770 C   0  0  0  0  0  1  0  0  0  0  0  0
  184.3370  178.7610  145.4510 C   0  0  0  0  0  0  0  0  0  0  0  0
  186.3330  177.9930  144.3320 C   0  0  0  0  0  3  0  0  0  0  0  0
  183.0040  178.9370  143.8180 C   0  0  0  0  0  0  0  0  0  0  0  0
  185.0020  178.3980  144.3170 C   0  0  0  0  0  0  0  0  0  0  0  0
  186.2980  178.3430  146.7520 C   0  0  0  0  0  3  0  0  0  0  0  0
  183.0670  179.1080  145.1650 N   0  0  0  0  0  0  0  0  0  0  0  0
  184.9510  178.7480  146.6990 C   0  0  0  0  0  3  0  0  0  0  0  0
  181.7670  179.2020  143.0290 C   0  0  0  0  0  1  0  0  0  0  0  0
  184.1680  178.5040  143.2750 N   0  0  0  0  0  0  0  0  0  0  0  0
  187.0010  177.9630  145.5780 C   0  0  0  0  0  0  0  0  0  0  0  0
  190.8940  177.5120  140.1520 C   0  0  0  0  0  2  0  0  0  0  0  0
  189.6280  177.6130  137.9710 N   0  0  0  0  0  0  0  0  0  0  0  0
  190.4470  175.6030  138.8000 O   0  0  0  0  0  0  0  0  0  0  0  0
  190.3290  176.8460  138.9450 C   0  0  0  0  0  0  0  0  0  0  0  0
  188.8620  177.7520  136.6990 C   0  0  0  0  0  2  0  0  0  0  0  0
  189.0880  178.8950  137.4350 C   0  0  0  0  0  2  0  0  0  0  0  0
  1  8  1  0  0  0  0
  1  9  1  0  0  0  0
  2  1  1  0  0  0  0
  3  2  2  0  0  0  0
  4  7  1  0  0  0  0
  4 11  1  1  0  0  0
  6  7  1  0  0  0  0
  8  6  1  0  0  0  0
  9  5  1  6  0  0  0
  9  4  1  0  0  0  0
 11 10  1  0  0  0  0
 12 21  1  0  0  0  0
 13 19  1  0  0  0  0
 14 22  2  0  0  0  0
 15 18  2  0  0  0  0
 16 14  1  0  0  0  0
 16 13  2  0  0  0  0
 18 13  1  0  0  0  0
 19 17  2  0  0  0  0
 20 15  1  0  0  0  0
 21 15  1  0  0  0  0
 21 16  1  0  0  0  0
 22 11  1  0  0  0  0
 22 17  1  0  0  0  0
 23  2  1  0  0  0  0
 24 26  1  0  0  0  0
 25 26  2  0  0  0  0
 26 23  1  0  0  0  0
 27 28  1  0  0  0  0
 27 24  1  0  0  0  0
 28 24  1  0  0  0  0
M  END
>  <MODEL>
1

>  <REMARK>
 VINA RESULT:      -9.1      0.000      0.000
  Name = 
  4 active torsions:
  status: ('A' for Active; 'I' for Inactive)
    1  A    between atoms: C_2  and  C_3
    2  A    between atoms: C_3  and  C_11
    3  A    between atoms: C_16  and  N_20
    4  A    between atoms: N_20  and  C_25
                            x       y       z     vdW  Elec       q    Type
                         _______ _______ _______ _____ _____    ______ ____

>  <TORSDO>
F 4

$$$$
=
 OpenBabel10272401553D

 28 31  0  0  1  0  0  0  0  0999 V2000
  184.1970  177.9030  137.7970 N   0  0  0  0  0  0  0  0  0  0  0  0
  185.6340  177.9090  137.6740 C   0  0  0  0  0  0  0  0  0  0  0  0
  186.3580  178.4110  138.5740 O   0  0  0  0  0  0  0  0  0  0  0  0
  183.3110  177.6720  140.0730 C   0  0  1  0  0  3  0  0  0  0  0  0
  184.1060  179.9490  139.2210 C   0  0  0  0  0  1  0  0  0  0  0  0
  183.3560  175.4360  138.4040 S   0  0  0  0  0  0  0  0  0  0  0  0
  182.4980  176.4390  139.6710 C   0  0  0  0  0  2  0  0  0  0  0  0
  183.4630  176.8000  137.1960 C   0  0  0  0  0  2  0  0  0  0  0  0
  183.4800  178.6040  138.8670 C   0  0  1  0  0  3  0  0  0  0  0  0
  181.3460  178.9470  141.0190 C   0  0  0  0  0  1  0  0  0  0  0  0
  182.6700  178.3570  141.1980 N   0  0  0  0  0  0  0  0  0  0  0  0
  187.5890  177.2390  143.3700 C   0  0  0  0  0  1  0  0  0  0  0  0
  184.6660  178.7180  144.9050 C   0  0  0  0  0  0  0  0  0  0  0  0
  184.6940  178.0370  142.5890 C   0  0  0  0  0  3  0  0  0  0  0  0
  186.6280  178.1960  145.5010 C   0  0  0  0  0  0  0  0  0  0  0  0
  185.3090  178.1780  143.8300 C   0  0  0  0  0  0  0  0  0  0  0  0
  182.6980  179.0350  143.5880 C   0  0  0  0  0  3  0  0  0  0  0  0
  185.4790  178.7420  145.9800 N   0  0  0  0  0  0  0  0  0  0  0  0
  183.3510  179.1630  144.8270 C   0  0  0  0  0  3  0  0  0  0  0  0
  187.8440  178.0100  146.3430 C   0  0  0  0  0  1  0  0  0  0  0  0
  186.5530  177.8440  144.1950 N   0  0  0  0  0  0  0  0  0  0  0  0
  183.3560  178.4750  142.4610 C   0  0  0  0  0  0  0  0  0  0  0  0
  186.2950  177.3290  136.4650 C   0  0  0  0  0  2  0  0  0  0  0  0
  188.5480  176.4110  137.1410 N   0  0  0  0  0  0  0  0  0  0  0  0
  186.6970  175.0240  136.9110 O   0  0  0  0  0  0  0  0  0  0  0  0
  187.1700  176.1880  136.8580 C   0  0  0  0  0  0  0  0  0  0  0  0
  189.9100  175.9430  137.5230 C   0  0  0  0  0  2  0  0  0  0  0  0
  189.7440  177.2890  137.2800 C   0  0  0  0  0  2  0  0  0  0  0  0
  1  9  1  0  0  0  0
  2  1  1  0  0  0  0
  2  3  2  0  0  0  0
  4 11  1  1  0  0  0
  6  7  1  0  0  0  0
  7  4  1  0  0  0  0
  8  1  1  0  0  0  0
  8  6  1  0  0  0  0
  9  5  1  1  0  0  0
  9  4  1  0  0  0  0
 10 11  1  0  0  0  0
 11 22  1  0  0  0  0
 12 21  1  0  0  0  0
 13 18  1  0  0  0  0
 14 16  1  0  0  0  0
 15 18  2  0  0  0  0
 15 20  1  0  0  0  0
 16 21  1  0  0  0  0
 16 13  2  0  0  0  0
 17 19  2  0  0  0  0
 19 13  1  0  0  0  0
 21 15  1  0  0  0  0
 22 14  2  0  0  0  0
 22 17  1  0  0  0  0
 23 26  1  0  0  0  0
 23  2  1  0  0  0  0
 24 28  1  0  0  0  0
 24 27  1  0  0  0  0
 26 25  2  0  0  0  0
 26 24  1  0  0  0  0
 28 27  1  0  0  0  0
M  END
>  <MODEL>
2

>  <REMARK>
 VINA RESULT:      -7.9      3.254      5.904
  Name = 
  4 active torsions:
  status: ('A' for Active; 'I' for Inactive)
    1  A    between atoms: C_2  and  C_3
    2  A    between atoms: C_3  and  C_11
    3  A    between atoms: C_16  and  N_20
    4  A    between atoms: N_20  and  C_25
                            x       y       z     vdW  Elec       q    Type
                         _______ _______ _______ _____ _____    ______ ____

>  <TORSDO>
F 4

$$$$
=
 OpenBabel10272401553D

 28 31  0  0  1  0  0  0  0  0999 V2000
  185.4660  178.8190  139.7730 N   0  0  0  0  0  0  0  0  0  0  0  0
  186.7420  178.2010  139.5040 C   0  0  0  0  0  0  0  0  0  0  0  0
  187.5120  177.8720  140.4450 O   0  0  0  0  0  0  0  0  0  0  0  0
  184.3310  178.0960  141.8240 C   0  0  1  0  0  3  0  0  0  0  0  0
  186.1890  179.8500  141.9260 C   0  0  0  0  0  1  0  0  0  0  0  0
  183.5050  177.0410  139.3760 S   0  0  0  0  0  0  0  0  0  0  0  0
  183.0830  177.6890  141.0340 C   0  0  0  0  0  2  0  0  0  0  0  0
  184.3710  178.5590  138.8500 C   0  0  0  0  0  2  0  0  0  0  0  0
  185.0490  179.2480  141.1110 C   0  0  1  0  0  3  0  0  0  0  0  0
  182.6350  178.9930  143.4680 C   0  0  0  0  0  1  0  0  0  0  0  0
  183.9660  178.4540  143.1970 N   0  0  0  0  0  0  0  0  0  0  0  0
  189.0780  176.5980  143.9560 C   0  0  0  0  0  1  0  0  0  0  0  0
  186.7650  178.0370  146.3350 C   0  0  0  0  0  0  0  0  0  0  0  0
  186.1970  177.7460  144.0070 C   0  0  0  0  0  3  0  0  0  0  0  0
  188.7340  177.2670  146.3680 C   0  0  0  0  0  0  0  0  0  0  0  0
  187.0840  177.6310  145.0730 C   0  0  0  0  0  0  0  0  0  0  0  0
  184.6030  178.7260  145.5820 C   0  0  0  0  0  3  0  0  0  0  0  0
  187.7930  177.8180  147.1780 N   0  0  0  0  0  0  0  0  0  0  0  0
  185.5260  178.5940  146.6360 C   0  0  0  0  0  3  0  0  0  0  0  0
  190.0770  176.8460  146.8610 C   0  0  0  0  0  1  0  0  0  0  0  0
  188.3300  177.1410  145.0800 N   0  0  0  0  0  0  0  0  0  0  0  0
  184.9240  178.3070  144.2640 C   0  0  0  0  0  0  0  0  0  0  0  0
  187.1820  177.9490  138.0980 C   0  0  0  0  0  2  0  0  0  0  0  0
  189.6050  177.2650  137.9230 N   0  0  0  0  0  0  0  0  0  0  0  0
  188.9730  179.5000  137.8550 O   0  0  0  0  0  0  0  0  0  0  0  0
  188.6230  178.2950  137.9420 C   0  0  0  0  0  0  0  0  0  0  0  0
  191.0130  176.7830  137.8380 C   0  0  0  0  0  2  0  0  0  0  0  0
  190.0230  175.8340  137.9770 C   0  0  0  0  0  2  0  0  0  0  0  0
  1  9  1  0  0  0  0
  2  1  1  0  0  0  0
  2  3  2  0  0  0  0
  4 11  1  1  0  0  0
  6  7  1  0  0  0  0
  7  4  1  0  0  0  0
  8  6  1  0  0  0  0
  8  1  1  0  0  0  0
  9  4  1  0  0  0  0
  9  5  1  1  0  0  0
 11 10  1  0  0  0  0
 11 22  1  0  0  0  0
 12 21  1  0  0  0  0
 13 19  1  0  0  0  0
 13 18  1  0  0  0  0
 14 22  2  0  0  0  0
 14 16  1  0  0  0  0
 15 20  1  0  0  0  0
 15 18  2  0  0  0  0
 16 21  1  0  0  0  0
 16 13  2  0  0  0  0
 17 19  2  0  0  0  0
 21 15  1  0  0  0  0
 22 17  1  0  0  0  0
 23  2  1  0  0  0  0
 24 26  1  0  0  0  0
 24 28  1  0  0  0  0
 25 26  2  0  0  0  0
 26 23  1  0  0  0  0
 27 24  1  0  0  0  0
 27 28  1  0  0  0  0
M  END
>  <MODEL>
3

>  <REMARK>
 VINA RESULT:      -7.2      2.451      5.198
  Name = 
  4 active torsions:
  status: ('A' for Active; 'I' for Inactive)
    1  A    between atoms: C_2  and  C_3
    2  A    between atoms: C_3  and  C_11
    3  A    between atoms: C_16  and  N_20
    4  A    between atoms: N_20  and  C_25
                            x       y       z     vdW  Elec       q    Type
                         _______ _______ _______ _____ _____    ______ ____

>  <TORSDO>
F 4

$$$$
=
 OpenBabel10272401553D

 28 31  0  0  1  0  0  0  0  0999 V2000
  189.3290  177.9990  142.6310 N   0  0  0  0  0  0  0  0  0  0  0  0
  188.6930  177.0020  143.4580 C   0  0  0  0  0  0  0  0  0  0  0  0
  187.8570  176.1960  142.9710 O   0  0  0  0  0  0  0  0  0  0  0  0
  189.7630  177.3540  140.3050 C   0  0  1  0  0  3  0  0  0  0  0  0
  187.4390  178.1550  141.0110 C   0  0  0  0  0  1  0  0  0  0  0  0
  191.8610  177.2830  142.1440 S   0  0  0  0  0  0  0  0  0  0  0  0
  191.2550  177.6610  140.4600 C   0  0  0  0  0  2  0  0  0  0  0  0
  190.6840  178.4070  142.9700 C   0  0  0  0  0  2  0  0  0  0  0  0
  188.9440  178.2520  141.2400 C   0  0  1  0  0  3  0  0  0  0  0  0
  189.2880  178.8540  138.3290 C   0  0  0  0  0  1  0  0  0  0  0  0
  189.3550  177.5140  138.9070 N   0  0  0  0  0  0  0  0  0  0  0  0
  184.8880  175.2980  136.6070 C   0  0  0  0  0  1  0  0  0  0  0  0
  188.3120  174.1330  136.5970 C   0  0  0  0  0  0  0  0  0  0  0  0
  187.6500  176.1640  137.7210 C   0  0  0  0  0  3  0  0  0  0  0  0
  186.4580  173.4870  135.8100 C   0  0  0  0  0  0  0  0  0  0  0  0
  187.3570  175.0360  136.9600 C   0  0  0  0  0  0  0  0  0  0  0  0
  189.9780  175.4140  137.7370 C   0  0  0  0  0  3  0  0  0  0  0  0
  187.7710  173.1390  135.8670 N   0  0  0  0  0  0  0  0  0  0  0  0
  189.6440  174.2840  136.9660 C   0  0  0  0  0  3  0  0  0  0  0  0
  185.4380  172.6720  135.0910 C   0  0  0  0  0  1  0  0  0  0  0  0
  186.1780  174.6390  136.4670 N   0  0  0  0  0  0  0  0  0  0  0  0
  188.9920  176.3610  138.1210 C   0  0  0  0  0  0  0  0  0  0  0  0
  189.0060  176.9140  144.9170 C   0  0  0  0  0  2  0  0  0  0  0  0
  188.1780  177.8800  147.0980 N   0  0  0  0  0  0  0  0  0  0  0  0
  186.9180  178.0370  145.1510 O   0  0  0  0  0  0  0  0  0  0  0  0
  187.9770  177.6470  145.7070 C   0  0  0  0  0  0  0  0  0  0  0  0
  187.7540  178.4140  148.4230 C   0  0  0  0  0  2  0  0  0  0  0  0
  188.9730  177.7750  148.3550 C   0  0  0  0  0  2  0  0  0  0  0  0
  1  8  1  0  0  0  0
  1  2  1  0  0  0  0
  2 23  1  0  0  0  0
  3  2  2  0  0  0  0
  4 11  1  6  0  0  0
  4  7  1  0  0  0  0
  4  9  1  0  0  0  0
  6  8  1  0  0  0  0
  7  6  1  0  0  0  0
  9  5  1  1  0  0  0
  9  1  1  0  0  0  0
 10 11  1  0  0  0  0
 13 16  2  0  0  0  0
 13 19  1  0  0  0  0
 14 22  2  0  0  0  0
 15 18  2  0  0  0  0
 15 21  1  0  0  0  0
 16 14  1  0  0  0  0
 17 22  1  0  0  0  0
 18 13  1  0  0  0  0
 19 17  2  0  0  0  0
 20 15  1  0  0  0  0
 21 12  1  0  0  0  0
 21 16  1  0  0  0  0
 22 11  1  0  0  0  0
 23 26  1  0  0  0  0
 24 28  1  0  0  0  0
 24 27  1  0  0  0  0
 25 26  2  0  0  0  0
 26 24  1  0  0  0  0
 28 27  1  0  0  0  0
M  END
>  <MODEL>
4

>  <REMARK>
 VINA RESULT:      -6.8      2.958      7.790
  Name = 
  4 active torsions:
  status: ('A' for Active; 'I' for Inactive)
    1  A    between atoms: C_2  and  C_3
    2  A    between atoms: C_3  and  C_11
    3  A    between atoms: C_16  and  N_20
    4  A    between atoms: N_20  and  C_25
                            x       y       z     vdW  Elec       q    Type
                         _______ _______ _______ _____ _____    ______ ____

>  <TORSDO>
F 4

$$$$
=
 OpenBabel10272401553D

 28 31  0  0  1  0  0  0  0  0999 V2000
  189.2850  178.0420  142.6480 N   0  0  0  0  0  0  0  0  0  0  0  0
  188.6150  177.0570  143.4620 C   0  0  0  0  0  0  0  0  0  0  0  0
  187.7280  176.3080  142.9720 O   0  0  0  0  0  0  0  0  0  0  0  0
  189.6370  177.4380  140.2970 C   0  0  1  0  0  3  0  0  0  0  0  0
  187.3730  178.3390  141.0740 C   0  0  0  0  0  1  0  0  0  0  0  0
  191.7650  177.2090  142.0870 S   0  0  0  0  0  0  0  0  0  0  0  0
  191.1460  177.6630  140.4270 C   0  0  0  0  0  2  0  0  0  0  0  0
  190.6660  178.3690  142.9680 C   0  0  0  0  0  2  0  0  0  0  0  0
  188.8860  178.3520  141.2720 C   0  0  1  0  0  3  0  0  0  0  0  0
  189.1260  179.0210  138.3960 C   0  0  0  0  0  1  0  0  0  0  0  0
  189.2100  177.6580  138.9130 N   0  0  0  0  0  0  0  0  0  0  0  0
  191.6030  173.4220  136.3650 C   0  0  0  0  0  1  0  0  0  0  0  0
  188.1170  174.3780  136.4820 C   0  0  0  0  0  0  0  0  0  0  0  0
  189.8330  175.6420  137.6160 C   0  0  0  0  0  3  0  0  0  0  0  0
  189.2670  172.8380  135.6010 C   0  0  0  0  0  0  0  0  0  0  0  0
  189.4230  174.5760  136.8190 C   0  0  0  0  0  0  0  0  0  0  0  0
  187.4860  176.3210  137.7230 C   0  0  0  0  0  3  0  0  0  0  0  0
  187.9880  173.2820  135.7090 N   0  0  0  0  0  0  0  0  0  0  0  0
  187.1090  175.2330  136.9160 C   0  0  0  0  0  3  0  0  0  0  0  0
  189.6350  171.6210  134.8220 C   0  0  0  0  0  1  0  0  0  0  0  0
  190.1630  173.6060  136.2680 N   0  0  0  0  0  0  0  0  0  0  0  0
  188.8440  176.5380  138.0810 C   0  0  0  0  0  0  0  0  0  0  0  0
  188.9520  176.9120  144.9110 C   0  0  0  0  0  2  0  0  0  0  0  0
  188.2220  177.8800  147.1250 N   0  0  0  0  0  0  0  0  0  0  0  0
  186.8870  178.0540  145.2320 O   0  0  0  0  0  0  0  0  0  0  0  0
  187.9630  177.6530  145.7440 C   0  0  0  0  0  0  0  0  0  0  0  0
  187.8570  178.4140  148.4680 C   0  0  0  0  0  2  0  0  0  0  0  0
  189.0660  177.7640  148.3490 C   0  0  0  0  0  2  0  0  0  0  0  0
  1  8  1  0  0  0  0
  1  2  1  0  0  0  0
  2 23  1  0  0  0  0
  3  2  2  0  0  0  0
  4 11  1  6  0  0  0
  4  7  1  0  0  0  0
  4  9  1  0  0  0  0
  6  8  1  0  0  0  0
  7  6  1  0  0  0  0
  9  5  1  1  0  0  0
  9  1  1  0  0  0  0
 10 11  1  0  0  0  0
 13 16  2  0  0  0  0
 13 19  1  0  0  0  0
 14 22  2  0  0  0  0
 15 18  2  0  0  0  0
 15 21  1  0  0  0  0
 16 14  1  0  0  0  0
 17 22  1  0  0  0  0
 18 13  1  0  0  0  0
 19 17  2  0  0  0  0
 20 15  1  0  0  0  0
 21 12  1  0  0  0  0
 21 16  1  0  0  0  0
 22 11  1  0  0  0  0
 23 26  1  0  0  0  0
 24 28  1  0  0  0  0
 24 27  1  0  0  0  0
 25 26  2  0  0  0  0
 26 24  1  0  0  0  0
 28 27  1  0  0  0  0
M  END
>  <MODEL>
5

>  <REMARK>
 VINA RESULT:      -6.8      2.947      8.270
  Name = 
  4 active torsions:
  status: ('A' for Active; 'I' for Inactive)
    1  A    between atoms: C_2  and  C_3
    2  A    between atoms: C_3  and  C_11
    3  A    between atoms: C_16  and  N_20
    4  A    between atoms: N_20  and  C_25
                            x       y       z     vdW  Elec       q    Type
                         _______ _______ _______ _____ _____    ______ ____

>  <TORSDO>
F 4

$$$$
=
 OpenBabel10272401553D

 28 31  0  0  1  0  0  0  0  0999 V2000
  189.2630  176.6730  143.8920 N   0  0  0  0  0  0  0  0  0  0  0  0
  189.7550  177.4080  145.0320 C   0  0  0  0  0  0  0  0  0  0  0  0
  190.8280  178.0640  144.9630 O   0  0  0  0  0  0  0  0  0  0  0  0
  189.7260  177.6570  141.6930 C   0  0  1  0  0  3  0  0  0  0  0  0
  191.5220  176.2960  142.9020 C   0  0  0  0  0  1  0  0  0  0  0  0
  187.1880  177.9720  142.8110 S   0  0  0  0  0  0  0  0  0  0  0  0
  188.2350  177.6660  141.3420 C   0  0  0  0  0  2  0  0  0  0  0  0
  187.8230  176.5330  143.7370 C   0  0  0  0  0  2  0  0  0  0  0  0
  190.0310  176.5030  142.6540 C   0  0  1  0  0  3  0  0  0  0  0  0
  191.9870  177.6630  140.5670 C   0  0  0  0  0  1  0  0  0  0  0  0
  190.5320  177.5720  140.4730 N   0  0  0  0  0  0  0  0  0  0  0  0
  189.3050  173.6290  136.8520 C   0  0  0  0  0  1  0  0  0  0  0  0
  188.6450  177.1830  136.7120 C   0  0  0  0  0  0  0  0  0  0  0  0
  189.7860  176.1620  138.5790 C   0  0  0  0  0  3  0  0  0  0  0  0
  188.2860  175.4960  135.4880 C   0  0  0  0  0  0  0  0  0  0  0  0
  189.1540  176.0850  137.3400 C   0  0  0  0  0  0  0  0  0  0  0  0
  189.3570  178.5690  138.5250 C   0  0  0  0  0  3  0  0  0  0  0  0
  188.0880  176.8390  135.5350 N   0  0  0  0  0  0  0  0  0  0  0  0
  188.7240  178.4530  137.2730 C   0  0  0  0  0  3  0  0  0  0  0  0
  187.8310  174.6520  134.3470 C   0  0  0  0  0  1  0  0  0  0  0  0
  188.9330  175.0090  136.5750 N   0  0  0  0  0  0  0  0  0  0  0  0
  189.8920  177.4330  139.1890 C   0  0  0  0  0  0  0  0  0  0  0  0
  189.0050  177.3960  146.3250 C   0  0  0  0  0  2  0  0  0  0  0  0
  191.1030  176.5060  147.4110 N   0  0  0  0  0  0  0  0  0  0  0  0
  189.7340  178.0370  148.4990 O   0  0  0  0  0  0  0  0  0  0  0  0
  189.9580  177.3510  147.4690 C   0  0  0  0  0  0  0  0  0  0  0  0
  192.3480  175.9270  147.9900 C   0  0  0  0  0  2  0  0  0  0  0  0
  191.9820  175.5150  146.7270 C   0  0  0  0  0  2  0  0  0  0  0  0
  1  2  1  0  0  0  0
  2 23  1  0  0  0  0
  3  2  2  0  0  0  0
  4 11  1  6  0  0  0
  4  9  1  0  0  0  0
  6  8  1  0  0  0  0
  7  4  1  0  0  0  0
  7  6  1  0  0  0  0
  8  1  1  0  0  0  0
  9  5  1  1  0  0  0
  9  1  1  0  0  0  0
 11 10  1  0  0  0  0
 13 19  2  0  0  0  0
 13 16  1  0  0  0  0
 14 22  1  0  0  0  0
 15 18  2  0  0  0  0
 15 21  1  0  0  0  0
 16 14  2  0  0  0  0
 17 22  2  0  0  0  0
 18 13  1  0  0  0  0
 19 17  1  0  0  0  0
 20 15  1  0  0  0  0
 21 12  1  0  0  0  0
 21 16  1  0  0  0  0
 22 11  1  0  0  0  0
 23 26  1  0  0  0  0
 24 26  1  0  0  0  0
 24 27  1  0  0  0  0
 26 25  2  0  0  0  0
 28 24  1  0  0  0  0
 28 27  1  0  0  0  0
M  END
>  <MODEL>
6

>  <REMARK>
 VINA RESULT:      -6.7      3.498      7.828
  Name = 
  4 active torsions:
  status: ('A' for Active; 'I' for Inactive)
    1  A    between atoms: C_2  and  C_3
    2  A    between atoms: C_3  and  C_11
    3  A    between atoms: C_16  and  N_20
    4  A    between atoms: N_20  and  C_25
                            x       y       z     vdW  Elec       q    Type
                         _______ _______ _______ _____ _____    ______ ____

>  <TORSDO>
F 4

$$$$
=
 OpenBabel10272401553D

 28 31  0  0  1  0  0  0  0  0999 V2000
  189.8380  176.3180  136.8010 N   0  0  0  0  0  0  0  0  0  0  0  0
  189.1400  175.0630  136.6560 C   0  0  0  0  0  0  0  0  0  0  0  0
  189.2480  174.1590  137.5270 O   0  0  0  0  0  0  0  0  0  0  0  0
  190.1220  177.1340  139.0970 C   0  0  1  0  0  3  0  0  0  0  0  0
  191.7020  175.3590  138.1520 C   0  0  0  0  0  1  0  0  0  0  0  0
  188.1070  178.2320  137.5100 S   0  0  0  0  0  0  0  0  0  0  0  0
  189.4300  178.4560  138.7520 C   0  0  0  0  0  2  0  0  0  0  0  0
  189.2160  177.5140  136.2520 C   0  0  0  0  0  2  0  0  0  0  0  0
  190.8240  176.5710  137.8560 C   0  0  1  0  0  3  0  0  0  0  0  0
  192.4740  177.5450  139.9210 C   0  0  0  0  0  1  0  0  0  0  0  0
  191.0590  177.3270  140.2070 N   0  0  0  0  0  0  0  0  0  0  0  0
  186.3820  177.9450  143.0190 C   0  0  0  0  0  1  0  0  0  0  0  0
  189.7040  177.1450  144.2050 C   0  0  0  0  0  0  0  0  0  0  0  0
  189.2290  177.5090  141.8670 C   0  0  0  0  0  3  0  0  0  0  0  0
  187.7870  177.4310  145.0540 C   0  0  0  0  0  0  0  0  0  0  0  0
  188.8310  177.4360  143.1990 C   0  0  0  0  0  0  0  0  0  0  0  0
  191.4890  176.9660  142.6270 C   0  0  0  0  0  3  0  0  0  0  0  0
  189.0690  177.1350  145.3940 N   0  0  0  0  0  0  0  0  0  0  0  0
  191.0510  176.9010  143.9620 C   0  0  0  0  0  3  0  0  0  0  0  0
  186.6900  177.5340  146.0570 C   0  0  0  0  0  1  0  0  0  0  0  0
  187.6130  177.6190  143.7230 N   0  0  0  0  0  0  0  0  0  0  0  0
  190.5900  177.2690  141.5690 C   0  0  0  0  0  0  0  0  0  0  0  0
  188.2820  174.8050  135.4600 C   0  0  0  0  0  2  0  0  0  0  0  0
  186.1590  174.1400  136.6520 N   0  0  0  0  0  0  0  0  0  0  0  0
  186.2440  176.0260  135.2970 O   0  0  0  0  0  0  0  0  0  0  0  0
  186.8500  175.0420  135.7950 C   0  0  0  0  0  0  0  0  0  0  0  0
  184.9430  173.6760  137.3780 C   0  0  0  0  0  2  0  0  0  0  0  0
  186.0910  172.9260  137.5150 C   0  0  0  0  0  2  0  0  0  0  0  0
  1  9  1  0  0  0  0
  2  1  1  0  0  0  0
  2  3  2  0  0  0  0
  4 11  1  1  0  0  0
  6  7  1  0  0  0  0
  7  4  1  0  0  0  0
  8  1  1  0  0  0  0
  8  6  1  0  0  0  0
  9  5  1  1  0  0  0
  9  4  1  0  0  0  0
 10 11  1  0  0  0  0
 11 22  1  0  0  0  0
 12 21  1  0  0  0  0
 13 18  1  0  0  0  0
 14 16  1  0  0  0  0
 15 18  2  0  0  0  0
 15 20  1  0  0  0  0
 16 21  1  0  0  0  0
 16 13  2  0  0  0  0
 17 19  2  0  0  0  0
 19 13  1  0  0  0  0
 21 15  1  0  0  0  0
 22 14  2  0  0  0  0
 22 17  1  0  0  0  0
 23 26  1  0  0  0  0
 23  2  1  0  0  0  0
 24 27  1  0  0  0  0
 24 28  1  0  0  0  0
 25 26  2  0  0  0  0
 26 24  1  0  0  0  0
 27 28  1  0  0  0  0
M  END
>  <MODEL>
7

>  <REMARK>
 VINA RESULT:      -6.6      2.944      5.790
  Name = 
  4 active torsions:
  status: ('A' for Active; 'I' for Inactive)
    1  A    between atoms: C_2  and  C_3
    2  A    between atoms: C_3  and  C_11
    3  A    between atoms: C_16  and  N_20
    4  A    between atoms: N_20  and  C_25
                            x       y       z     vdW  Elec       q    Type
                         _______ _______ _______ _____ _____    ______ ____

>  <TORSDO>
F 4

$$$$
=
 OpenBabel10272401553D

 28 31  0  0  1  0  0  0  0  0999 V2000
  190.1600  175.2380  136.2470 N   0  0  0  0  0  0  0  0  0  0  0  0
  190.8510  174.0200  136.5940 C   0  0  0  0  0  0  0  0  0  0  0  0
  191.4100  173.8920  137.7160 O   0  0  0  0  0  0  0  0  0  0  0  0
  189.0390  176.4050  138.0900 C   0  0  1  0  0  3  0  0  0  0  0  0
  191.5540  176.6910  137.7190 C   0  0  0  0  0  1  0  0  0  0  0  0
  187.5170  174.8350  136.3570 S   0  0  0  0  0  0  0  0  0  0  0  0
  187.6980  176.3590  137.3530 C   0  0  0  0  0  2  0  0  0  0  0  0
  189.0120  175.1430  135.3570 C   0  0  0  0  0  2  0  0  0  0  0  0
  190.1910  176.4440  137.0790 C   0  0  1  0  0  3  0  0  0  0  0  0
  189.1180  178.9050  138.4440 C   0  0  0  0  0  1  0  0  0  0  0  0
  189.0780  177.5550  138.9980 N   0  0  0  0  0  0  0  0  0  0  0  0
  185.8670  178.3540  143.3810 C   0  0  0  0  0  1  0  0  0  0  0  0
  189.1900  176.9400  143.1770 C   0  0  0  0  0  0  0  0  0  0  0  0
  188.0060  177.7220  141.2240 C   0  0  0  0  0  3  0  0  0  0  0  0
  187.7740  177.3470  144.6950 C   0  0  0  0  0  0  0  0  0  0  0  0
  188.0900  177.4980  142.5960 C   0  0  0  0  0  0  0  0  0  0  0  0
  190.2510  176.7700  141.0420 C   0  0  0  0  0  3  0  0  0  0  0  0
  189.0180  176.8320  144.5090 N   0  0  0  0  0  0  0  0  0  0  0  0
  190.3010  176.5590  142.4330 C   0  0  0  0  0  3  0  0  0  0  0  0
  187.1330  177.4410  146.0380 C   0  0  0  0  0  1  0  0  0  0  0  0
  187.1850  177.7600  143.5470 N   0  0  0  0  0  0  0  0  0  0  0  0
  189.1110  177.3500  140.4250 C   0  0  0  0  0  0  0  0  0  0  0  0
  190.9300  172.8870  135.6230 C   0  0  0  0  0  2  0  0  0  0  0  0
  193.2930  173.4460  134.9370 N   0  0  0  0  0  0  0  0  0  0  0  0
  192.7090  171.3040  135.6230 O   0  0  0  0  0  0  0  0  0  0  0  0
  192.3500  172.4910  135.4100 C   0  0  0  0  0  0  0  0  0  0  0  0
  194.6620  173.8500  134.5060 C   0  0  0  0  0  2  0  0  0  0  0  0
  193.6770  174.8140  134.4840 C   0  0  0  0  0  2  0  0  0  0  0  0
  1  2  1  0  0  0  0
  1  9  1  0  0  0  0
  2  3  2  0  0  0  0
  4 11  1  6  0  0  0
  6  7  1  0  0  0  0
  7  4  1  0  0  0  0
  8  1  1  0  0  0  0
  8  6  1  0  0  0  0
  9  5  1  1  0  0  0
  9  4  1  0  0  0  0
 10 11  1  0  0  0  0
 11 22  1  0  0  0  0
 12 21  1  0  0  0  0
 13 18  1  0  0  0  0
 14 16  2  0  0  0  0
 15 20  1  0  0  0  0
 16 13  1  0  0  0  0
 16 21  1  0  0  0  0
 17 19  1  0  0  0  0
 18 15  2  0  0  0  0
 19 13  2  0  0  0  0
 21 15  1  0  0  0  0
 22 17  2  0  0  0  0
 22 14  1  0  0  0  0
 23  2  1  0  0  0  0
 24 26  1  0  0  0  0
 26 25  2  0  0  0  0
 26 23  1  0  0  0  0
 27 24  1  0  0  0  0
 28 27  1  0  0  0  0
 28 24  1  0  0  0  0
M  END
>  <MODEL>
8

>  <REMARK>
 VINA RESULT:      -6.6      3.705      6.432
  Name = 
  4 active torsions:
  status: ('A' for Active; 'I' for Inactive)
    1  A    between atoms: C_2  and  C_3
    2  A    between atoms: C_3  and  C_11
    3  A    between atoms: C_16  and  N_20
    4  A    between atoms: N_20  and  C_25
                            x       y       z     vdW  Elec       q    Type
                         _______ _______ _______ _____ _____    ______ ____

>  <TORSDO>
F 4

$$$$
=
 OpenBabel10272401553D

 28 31  0  0  1  0  0  0  0  0999 V2000
  186.9880  175.5640  135.9160 N   0  0  0  0  0  0  0  0  0  0  0  0
  186.9760  174.1710  136.2920 C   0  0  0  0  0  0  0  0  0  0  0  0
  187.7540  173.7350  137.1820 O   0  0  0  0  0  0  0  0  0  0  0  0
  187.4920  177.1600  137.7100 C   0  0  1  0  0  3  0  0  0  0  0  0
  189.3830  175.9170  136.5170 C   0  0  0  0  0  1  0  0  0  0  0  0
  184.8370  176.7890  136.9350 S   0  0  0  0  0  0  0  0  0  0  0  0
  186.1820  177.9120  137.4590 C   0  0  0  0  0  2  0  0  0  0  0  0
  185.7370  176.1650  135.4750 C   0  0  0  0  0  2  0  0  0  0  0  0
  187.9850  176.5190  136.4070 C   0  0  1  0  0  3  0  0  0  0  0  0
  188.9920  179.1800  137.4800 C   0  0  0  0  0  1  0  0  0  0  0  0
  188.4940  178.0640  138.2800 N   0  0  0  0  0  0  0  0  0  0  0  0
  186.6900  177.9500  143.4660 C   0  0  0  0  0  1  0  0  0  0  0  0
  190.0140  177.3740  142.1620 C   0  0  0  0  0  0  0  0  0  0  0  0
  188.1470  177.9070  140.7280 C   0  0  0  0  0  3  0  0  0  0  0  0
  189.0800  177.3880  144.0600 C   0  0  0  0  0  0  0  0  0  0  0  0
  188.6950  177.6710  141.9860 C   0  0  0  0  0  0  0  0  0  0  0  0
  190.3790  177.5220  139.8050 C   0  0  0  0  0  3  0  0  0  0  0  0
  190.2870  177.1900  143.4690 N   0  0  0  0  0  0  0  0  0  0  0  0
  190.8980  177.2890  141.0920 C   0  0  0  0  0  3  0  0  0  0  0  0
  188.8780  177.2880  145.5340 C   0  0  0  0  0  1  0  0  0  0  0  0
  188.0910  177.6820  143.1800 N   0  0  0  0  0  0  0  0  0  0  0  0
  189.0070  177.8320  139.6080 C   0  0  0  0  0  0  0  0  0  0  0  0
  186.0460  173.2110  135.6220 C   0  0  0  0  0  2  0  0  0  0  0  0
  184.2620  171.5530  136.2840 N   0  0  0  0  0  0  0  0  0  0  0  0
  184.8790  173.2910  137.6970 O   0  0  0  0  0  0  0  0  0  0  0  0
  185.0470  172.6970  136.6010 C   0  0  0  0  0  0  0  0  0  0  0  0
  183.2110  170.5430  136.5970 C   0  0  0  0  0  2  0  0  0  0  0  0
  183.8500  170.4410  135.3800 C   0  0  0  0  0  2  0  0  0  0  0  0
  1  2  1  0  0  0  0
  1  9  1  0  0  0  0
  2  3  2  0  0  0  0
  4 11  1  6  0  0  0
  6  7  1  0  0  0  0
  7  4  1  0  0  0  0
  8  1  1  0  0  0  0
  8  6  1  0  0  0  0
  9  5  1  1  0  0  0
  9  4  1  0  0  0  0
 10 11  1  0  0  0  0
 11 22  1  0  0  0  0
 13 18  1  0  0  0  0
 14 16  2  0  0  0  0
 15 20  1  0  0  0  0
 16 13  1  0  0  0  0
 16 21  1  0  0  0  0
 17 19  1  0  0  0  0
 18 15  2  0  0  0  0
 19 13  2  0  0  0  0
 21 12  1  0  0  0  0
 21 15  1  0  0  0  0
 22 17  2  0  0  0  0
 22 14  1  0  0  0  0
 23  2  1  0  0  0  0
 23 26  1  0  0  0  0
 24 27  1  0  0  0  0
 24 26  1  0  0  0  0
 26 25  2  0  0  0  0
 28 24  1  0  0  0  0
 28 27  1  0  0  0  0
M  END
>  <MODEL>
9

>  <REMARK>
 VINA RESULT:      -6.5      4.382      7.442
  Name = 
  4 active torsions:
  status: ('A' for Active; 'I' for Inactive)
    1  A    between atoms: C_2  and  C_3
    2  A    between atoms: C_3  and  C_11
    3  A    between atoms: C_16  and  N_20
    4  A    between atoms: N_20  and  C_25
                            x       y       z     vdW  Elec       q    Type
                         _______ _______ _______ _____ _____    ______ ____

>  <TORSDO>
F 4

$$$$
