=
 OpenBabel10272402043D

 32 38  0  0  1  0  0  0  0  0999 V2000
  190.0310  177.1960  141.2700 C   0  0  1  0  0  3  0  0  0  0  0  0
  187.7710  177.6750  142.3570 C   0  0  0  0  0  0  0  0  0  0  0  0
  191.4370  177.5830  141.6480 C   0  0  0  0  0  3  0  0  0  0  0  0
  189.1080  177.2700  142.4720 C   0  0  0  0  0  0  0  0  0  0  0  0
  186.9470  177.6870  143.5010 C   0  0  0  0  0  0  0  0  0  0  0  0
  183.8820  179.3670  139.6830 C   0  0  0  0  0  2  0  0  0  0  0  0
  187.2480  178.0460  140.9910 C   0  0  2  0  0  3  0  0  0  0  0  0
  183.7290  178.8630  142.0220 O   0  0  0  0  0  0  0  0  0  0  0  0
  184.9580  178.1760  142.0230 C   0  0  2  0  0  3  0  0  0  0  0  0
  189.6180  176.9290  143.7340 C   0  0  0  0  0  0  0  0  0  0  0  0
  185.5390  178.2170  143.4310 C   0  0  0  0  0  2  0  0  0  0  0  0
  188.8080  176.9460  144.8230 N   0  0  0  0  0  0  0  0  0  0  0  0
  191.0640  176.5350  143.8700 C   0  0  0  0  0  2  0  0  0  0  0  0
  188.3290  178.8280  140.2490 C   0  0  0  0  0  2  0  0  0  0  0  0
  189.5600  177.9410  140.0000 C   0  0  2  0  0  3  0  0  0  0  0  0
  185.9380  178.8340  141.0340 C   0  0  2  0  0  3  0  0  0  0  0  0
  187.4980  177.3060  144.7410 C   0  0  0  0  0  0  0  0  0  0  0  0
  191.9170  177.2730  142.8630 C   0  0  0  0  0  3  0  0  0  0  0  0
  183.1230  178.6210  140.7770 C   0  0  0  0  0  2  0  0  0  0  0  0
  185.3110  178.8410  139.6370 C   0  0  0  0  0  2  0  0  0  0  0  0
  187.9280  176.4100  136.7430 C   0  0  2  0  0  3  0  0  0  0  0  0
  191.2350  175.6210  135.8020 C   0  0  0  0  0  1  0  0  0  0  0  0
  186.4760  175.9780  136.7560 C   0  0  0  0  0  1  0  0  0  0  0  0
  190.9090  175.1210  138.2800 C   0  0  0  0  0  2  0  0  0  0  0  0
  189.3010  176.9500  138.8520 C   0  0  2  0  0  3  0  0  0  0  0  0
  188.8320  175.1750  136.7790 C   0  0  0  0  0  2  0  0  0  0  0  0
  190.5800  176.5980  138.0810 C   0  0  2  0  0  3  0  0  0  0  0  0
  188.1850  177.4080  137.8850 C   0  0  1  0  0  3  0  0  0  0  0  0
  188.4750  178.7780  137.2910 C   0  0  0  0  0  1  0  0  0  0  0  0
  190.2900  175.5810  136.9840 C   0  0  2  0  0  0  0  0  0  0  0  0
  186.6860  177.3380  145.9930 C   0  0  0  0  0  2  0  0  0  0  0  0
  187.5000  177.6820  147.0720 O   0  0  0  0  0  1  0  0  0  0  0  0
  1  3  1  1  0  0  0
  1  4  1  0  0  0  0
  2  4  2  0  0  0  0
  2  5  1  0  0  0  0
  3 18  2  0  0  0  0
  4 10  1  0  0  0  0
  5 17  2  0  0  0  0
  6 19  1  0  0  0  0
  7 14  1  1  0  0  0
  7 16  1  0  0  0  0
  7  2  1  0  0  0  0
  8  9  1  0  0  0  0
  9 11  1  1  0  0  0
 10 13  1  0  0  0  0
 10 12  2  0  0  0  0
 11  5  1  0  0  0  0
 15 14  1  1  0  0  0
 15  1  1  0  0  0  0
 16 20  1  6  0  0  0
 16  9  1  0  0  0  0
 17 12  1  0  0  0  0
 17 31  1  0  0  0  0
 18 13  1  0  0  0  0
 19  8  1  0  0  0  0
 20  6  1  0  0  0  0
 21 23  1  1  0  0  0
 21 26  1  0  0  0  0
 21 28  1  0  0  0  0
 25 15  1  1  0  0  0
 26 30  1  0  0  0  0
 27 24  1  1  0  0  0
 27 25  1  0  0  0  0
 28 29  1  6  0  0  0
 28 25  1  0  0  0  0
 30 22  1  6  0  0  0
 30 27  1  0  0  0  0
 30 24  1  0  0  0  0
 31 32  1  0  0  0  0
M  END
>  <MODEL>
1

>  <REMARK>
 VINA RESULT:      -9.2      0.000      0.000
  Name = 
  2 active torsions:
  status: ('A' for Active; 'I' for Inactive)
    1  A    between atoms: C_13  and  CA_29
    2  A    between atoms: C_16  and  C_27
                            x       y       z     vdW  Elec       q    Type
                         _______ _______ _______ _____ _____    ______ ____

>  <TORSDO>
F 2

$$$$
=
 OpenBabel10272402043D

 32 38  0  0  1  0  0  0  0  0999 V2000
  187.7930  177.8160  139.6780 C   0  0  1  0  0  3  0  0  0  0  0  0
  187.7510  177.7320  142.2300 C   0  0  0  0  0  0  0  0  0  0  0  0
  188.7960  178.3700  138.7020 C   0  0  0  0  0  3  0  0  0  0  0  0
  188.4400  177.5440  141.0230 C   0  0  0  0  0  0  0  0  0  0  0  0
  188.3880  177.4260  143.4500 C   0  0  0  0  0  0  0  0  0  0  0  0
  183.7060  179.1430  144.8340 C   0  0  0  0  0  2  0  0  0  0  0  0
  186.3240  178.2190  142.1740 C   0  0  2  0  0  3  0  0  0  0  0  0
  185.6770  178.2610  145.8740 O   0  0  0  0  0  0  0  0  0  0  0  0
  186.1970  177.7990  144.6500 C   0  0  2  0  0  3  0  0  0  0  0  0
  189.7710  177.1000  141.0520 C   0  0  0  0  0  0  0  0  0  0  0  0
  187.7150  177.7160  144.7660 C   0  0  0  0  0  2  0  0  0  0  0  0
  190.3660  176.8110  142.2370 N   0  0  0  0  0  0  0  0  0  0  0  0
  190.5290  176.9390  139.7630 C   0  0  0  0  0  2  0  0  0  0  0  0
  186.2110  179.2780  141.0800 C   0  0  0  0  0  2  0  0  0  0  0  0
  186.4980  178.6610  139.7020 C   0  0  2  0  0  3  0  0  0  0  0  0
  185.8120  178.7590  143.5100 C   0  0  2  0  0  3  0  0  0  0  0  0
  189.7160  176.9530  143.4240 C   0  0  0  0  0  0  0  0  0  0  0  0
  190.0740  177.9580  138.7430 C   0  0  0  0  0  3  0  0  0  0  0  0
  184.2800  178.1180  145.8080 C   0  0  0  0  0  2  0  0  0  0  0  0
  184.2860  178.8790  143.4500 C   0  0  0  0  0  2  0  0  0  0  0  0
  182.7370  177.5990  139.1150 C   0  0  2  0  0  3  0  0  0  0  0  0
  183.7550  176.8720  135.8170 C   0  0  0  0  0  1  0  0  0  0  0  0
  181.8720  177.1990  140.2930 C   0  0  0  0  0  1  0  0  0  0  0  0
  185.5300  176.0610  137.4580 C   0  0  0  0  0  2  0  0  0  0  0  0
  185.2980  177.8330  139.2090 C   0  0  2  0  0  3  0  0  0  0  0  0
  183.1330  176.3520  138.3210 C   0  0  0  0  0  2  0  0  0  0  0  0
  185.3560  177.5580  137.7000 C   0  0  2  0  0  3  0  0  0  0  0  0
  183.9320  178.4350  139.6070 C   0  0  1  0  0  3  0  0  0  0  0  0
  183.7750  179.8650  139.1100 C   0  0  0  0  0  1  0  0  0  0  0  0
  184.1770  176.6980  137.2610 C   0  0  2  0  0  0  0  0  0  0  0  0
  190.4560  176.6520  144.6860 C   0  0  0  0  0  2  0  0  0  0  0  0
  191.4510  177.6080  144.8850 O   0  0  0  0  0  1  0  0  0  0  0  0
  1  3  1  6  0  0  0
  1 15  1  0  0  0  0
  1  4  1  0  0  0  0
  2  5  1  0  0  0  0
  3 18  2  0  0  0  0
  4 10  1  0  0  0  0
  4  2  2  0  0  0  0
  5 11  1  0  0  0  0
  6 19  1  0  0  0  0
  7 14  1  6  0  0  0
  7  2  1  0  0  0  0
  7 16  1  0  0  0  0
  9 11  1  1  0  0  0
  9  8  1  0  0  0  0
 10 12  2  0  0  0  0
 12 17  1  0  0  0  0
 13 10  1  0  0  0  0
 15 14  1  1  0  0  0
 16 20  1  6  0  0  0
 16  9  1  0  0  0  0
 17  5  2  0  0  0  0
 17 31  1  0  0  0  0
 18 13  1  0  0  0  0
 19  8  1  0  0  0  0
 20  6  1  0  0  0  0
 21 28  1  0  0  0  0
 21 23  1  1  0  0  0
 25 28  1  0  0  0  0
 25 15  1  6  0  0  0
 26 21  1  0  0  0  0
 27 24  1  1  0  0  0
 27 25  1  0  0  0  0
 28 29  1  6  0  0  0
 30 22  1  6  0  0  0
 30 24  1  0  0  0  0
 30 27  1  0  0  0  0
 30 26  1  0  0  0  0
 31 32  1  0  0  0  0
M  END
>  <MODEL>
2

>  <REMARK>
 VINA RESULT:      -8.4      1.926      4.259
  Name = 
  2 active torsions:
  status: ('A' for Active; 'I' for Inactive)
    1  A    between atoms: C_13  and  CA_29
    2  A    between atoms: C_16  and  C_27
                            x       y       z     vdW  Elec       q    Type
                         _______ _______ _______ _____ _____    ______ ____

>  <TORSDO>
F 2

$$$$
=
 OpenBabel10272402043D

 32 38  0  0  1  0  0  0  0  0999 V2000
  186.2090  178.1090  138.6560 C   0  0  1  0  0  3  0  0  0  0  0  0
  186.8790  178.1900  141.1180 C   0  0  0  0  0  0  0  0  0  0  0  0
  186.8070  178.7380  137.4250 C   0  0  0  0  0  3  0  0  0  0  0  0
  187.2340  178.0250  139.7720 C   0  0  0  0  0  0  0  0  0  0  0  0
  187.8650  178.0630  142.1180 C   0  0  0  0  0  0  0  0  0  0  0  0
  183.5260  179.1640  144.7170 C   0  0  0  0  0  2  0  0  0  0  0  0
  185.4320  178.4580  141.4530 C   0  0  2  0  0  3  0  0  0  0  0  0
  185.8200  178.6510  145.1840 O   0  0  0  0  0  0  0  0  0  0  0  0
  186.0540  178.1900  143.8740 C   0  0  2  0  0  3  0  0  0  0  0  0
  188.5750  177.7840  139.4380 C   0  0  0  0  0  0  0  0  0  0  0  0
  187.5380  178.3380  143.5630 C   0  0  0  0  0  2  0  0  0  0  0  0
  189.5090  177.6650  140.4150 N   0  0  0  0  0  0  0  0  0  0  0  0
  188.9680  177.6510  137.9920 C   0  0  0  0  0  2  0  0  0  0  0  0
  184.8580  179.4140  140.4090 C   0  0  0  0  0  2  0  0  0  0  0  0
  184.8530  178.7540  139.0210 C   0  0  2  0  0  3  0  0  0  0  0  0
  185.2240  179.0050  142.8660 C   0  0  2  0  0  3  0  0  0  0  0  0
  189.1930  177.7890  141.7330 C   0  0  0  0  0  0  0  0  0  0  0  0
  188.0960  178.5220  137.1160 C   0  0  0  0  0  3  0  0  0  0  0  0
  184.5000  178.3020  145.5150 C   0  0  0  0  0  2  0  0  0  0  0  0
  183.7410  178.8960  143.2320 C   0  0  0  0  0  2  0  0  0  0  0  0
  181.1870  177.2820  139.1240 C   0  0  2  0  0  3  0  0  0  0  0  0
  182.0450  175.6960  136.0920 C   0  0  0  0  0  1  0  0  0  0  0  0
  180.4490  177.1820  140.4430 C   0  0  0  0  0  1  0  0  0  0  0  0
  184.0010  175.5430  137.7200 C   0  0  0  0  0  2  0  0  0  0  0  0
  183.7120  177.7290  138.9020 C   0  0  2  0  0  3  0  0  0  0  0  0
  181.6520  175.8900  138.6880 C   0  0  0  0  0  2  0  0  0  0  0  0
  183.6930  177.0270  137.5380 C   0  0  2  0  0  3  0  0  0  0  0  0
  182.3220  178.3140  139.2390 C   0  0  1  0  0  3  0  0  0  0  0  0
  181.9870  179.5190  138.3700 C   0  0  0  0  0  1  0  0  0  0  0  0
  182.5800  175.9880  137.4790 C   0  0  2  0  0  0  0  0  0  0  0  0
  190.2870  177.6850  142.7440 C   0  0  0  0  0  2  0  0  0  0  0  0
  191.4640  177.2730  142.1200 O   0  0  0  0  0  1  0  0  0  0  0  0
  1  3  1  6  0  0  0
  1 15  1  0  0  0  0
  1  4  1  0  0  0  0
  2  7  1  0  0  0  0
  2  5  1  0  0  0  0
  4  2  2  0  0  0  0
  5 11  1  0  0  0  0
  6 19  1  0  0  0  0
  7 14  1  6  0  0  0
  7 16  1  0  0  0  0
  8 19  1  0  0  0  0
  9 11  1  6  0  0  0
  9  8  1  0  0  0  0
 10  4  1  0  0  0  0
 10 12  2  0  0  0  0
 12 17  1  0  0  0  0
 13 10  1  0  0  0  0
 15 14  1  1  0  0  0
 16 20  1  1  0  0  0
 16  9  1  0  0  0  0
 17  5  2  0  0  0  0
 17 31  1  0  0  0  0
 18  3  2  0  0  0  0
 18 13  1  0  0  0  0
 20  6  1  0  0  0  0
 21 28  1  0  0  0  0
 21 23  1  1  0  0  0
 25 15  1  6  0  0  0
 25 28  1  0  0  0  0
 26 21  1  0  0  0  0
 27 24  1  1  0  0  0
 27 25  1  0  0  0  0
 28 29  1  6  0  0  0
 30 22  1  6  0  0  0
 30 27  1  0  0  0  0
 30 24  1  0  0  0  0
 30 26  1  0  0  0  0
 32 31  1  0  0  0  0
M  END
>  <MODEL>
3

>  <REMARK>
 VINA RESULT:      -8.0      2.474      5.392
  Name = 
  2 active torsions:
  status: ('A' for Active; 'I' for Inactive)
    1  A    between atoms: C_13  and  CA_29
    2  A    between atoms: C_16  and  C_27
                            x       y       z     vdW  Elec       q    Type
                         _______ _______ _______ _____ _____    ______ ____

>  <TORSDO>
F 2

$$$$
=
 OpenBabel10272402043D

 32 38  0  0  1  0  0  0  0  0999 V2000
  190.3890  177.2220  140.0160 C   0  0  1  0  0  3  0  0  0  0  0  0
  188.9450  177.6130  142.0850 C   0  0  0  0  0  0  0  0  0  0  0  0
  191.7850  177.6610  139.6600 C   0  0  0  0  0  3  0  0  0  0  0  0
  190.1780  177.2580  141.5190 C   0  0  0  0  0  0  0  0  0  0  0  0
  188.7920  177.5910  143.4870 C   0  0  0  0  0  0  0  0  0  0  0  0
  184.1910  179.1620  141.7100 C   0  0  0  0  0  2  0  0  0  0  0  0
  187.8050  177.9670  141.1630 C   0  0  2  0  0  3  0  0  0  0  0  0
  185.2280  178.6470  143.8090 O   0  0  0  0  0  0  0  0  0  0  0  0
  186.3190  178.0080  143.1900 C   0  0  2  0  0  3  0  0  0  0  0  0
  191.2540  176.9340  142.3580 C   0  0  0  0  0  0  0  0  0  0  0  0
  187.5160  178.0680  144.1310 C   0  0  0  0  0  2  0  0  0  0  0  0
  191.0860  176.9190  143.7050 N   0  0  0  0  0  0  0  0  0  0  0  0
  192.5900  176.5950  141.7560 C   0  0  0  0  0  2  0  0  0  0  0  0
  188.3540  178.7900  140.0000 C   0  0  0  0  0  2  0  0  0  0  0  0
  189.3290  177.9510  139.1590 C   0  0  2  0  0  3  0  0  0  0  0  0
  186.6620  178.7040  141.8610 C   0  0  2  0  0  3  0  0  0  0  0  0
  189.8950  177.2290  144.2860 C   0  0  0  0  0  0  0  0  0  0  0  0
  192.8120  177.3670  140.4750 C   0  0  0  0  0  3  0  0  0  0  0  0
  184.0940  178.3850  143.0200 C   0  0  0  0  0  2  0  0  0  0  0  0
  185.4270  178.6900  140.9540 C   0  0  0  0  0  2  0  0  0  0  0  0
  186.5330  176.5410  136.7500 C   0  0  2  0  0  3  0  0  0  0  0  0
  189.2060  175.1000  134.9550 C   0  0  0  0  0  1  0  0  0  0  0  0
  185.1110  176.3840  137.2500 C   0  0  0  0  0  1  0  0  0  0  0  0
  189.6110  174.8280  137.4570 C   0  0  0  0  0  2  0  0  0  0  0  0
  188.5700  176.9530  138.2670 C   0  0  2  0  0  3  0  0  0  0  0  0
  187.1990  175.1650  136.6560 C   0  0  0  0  0  2  0  0  0  0  0  0
  189.4680  176.3240  137.1940 C   0  0  2  0  0  3  0  0  0  0  0  0
  187.2900  177.5450  137.6350 C   0  0  1  0  0  3  0  0  0  0  0  0
  187.5840  178.7990  136.8240 C   0  0  0  0  0  1  0  0  0  0  0  0
  188.6910  175.3090  136.3640 C   0  0  2  0  0  0  0  0  0  0  0  0
  189.8050  177.2280  145.7760 C   0  0  0  0  0  2  0  0  0  0  0  0
  191.0160  176.8000  146.3190 O   0  0  0  0  0  1  0  0  0  0  0  0
  1  3  1  1  0  0  0
  1  4  1  0  0  0  0
  2  5  1  0  0  0  0
  3 18  2  0  0  0  0
  4  2  2  0  0  0  0
  4 10  1  0  0  0  0
  5 11  1  0  0  0  0
  5 17  2  0  0  0  0
  6 19  1  0  0  0  0
  7 14  1  6  0  0  0
  7 16  1  0  0  0  0
  7  2  1  0  0  0  0
  9  8  1  0  0  0  0
  9 11  1  1  0  0  0
 10 12  2  0  0  0  0
 12 17  1  0  0  0  0
 13 10  1  0  0  0  0
 15 14  1  1  0  0  0
 15  1  1  0  0  0  0
 16 20  1  6  0  0  0
 16  9  1  0  0  0  0
 17 31  1  0  0  0  0
 18 13  1  0  0  0  0
 19  8  1  0  0  0  0
 20  6  1  0  0  0  0
 21 23  1  1  0  0  0
 21 28  1  0  0  0  0
 25 15  1  6  0  0  0
 26 21  1  0  0  0  0
 27 24  1  1  0  0  0
 27 25  1  0  0  0  0
 28 29  1  6  0  0  0
 28 25  1  0  0  0  0
 30 22  1  6  0  0  0
 30 26  1  0  0  0  0
 30 27  1  0  0  0  0
 30 24  1  0  0  0  0
 31 32  1  0  0  0  0
M  END
>  <MODEL>
4

>  <REMARK>
 VINA RESULT:      -7.7      1.434      1.907
  Name = 
  2 active torsions:
  status: ('A' for Active; 'I' for Inactive)
    1  A    between atoms: C_13  and  CA_29
    2  A    between atoms: C_16  and  C_27
                            x       y       z     vdW  Elec       q    Type
                         _______ _______ _______ _____ _____    ______ ____

>  <TORSDO>
F 2

$$$$
=
 OpenBabel10272402043D

 32 38  0  0  1  0  0  0  0  0999 V2000
  184.6740  178.6660  142.8580 C   0  0  1  0  0  3  0  0  0  0  0  0
  183.7290  178.1550  140.5420 C   0  0  0  0  0  0  0  0  0  0  0  0
  184.2540  179.6380  143.9290 C   0  0  0  0  0  3  0  0  0  0  0  0
  183.5240  178.3740  141.9110 C   0  0  0  0  0  0  0  0  0  0  0  0
  182.6300  177.8480  139.7140 C   0  0  0  0  0  0  0  0  0  0  0  0
  186.6880  177.8930  136.5030 C   0  0  0  0  0  2  0  0  0  0  0  0
  185.1390  178.2130  140.0080 C   0  0  2  0  0  3  0  0  0  0  0  0
  184.3330  177.4570  136.4180 O   0  0  0  0  0  0  0  0  0  0  0  0
  184.2300  177.3720  137.8190 C   0  0  2  0  0  3  0  0  0  0  0  0
  182.2210  178.3340  142.4280 C   0  0  0  0  0  0  0  0  0  0  0  0
  182.8000  177.7120  138.2240 C   0  0  0  0  0  2  0  0  0  0  0  0
  181.1750  178.0370  141.6150 N   0  0  0  0  0  0  0  0  0  0  0  0
  181.9910  178.6120  143.8880 C   0  0  0  0  0  2  0  0  0  0  0  0
  185.8760  179.3600  140.6950 C   0  0  0  0  0  2  0  0  0  0  0  0
  186.0090  179.0870  142.2030 C   0  0  2  0  0  3  0  0  0  0  0  0
  185.2090  178.3550  138.4860 C   0  0  2  0  0  3  0  0  0  0  0  0
  181.3430  177.7880  140.2870 C   0  0  0  0  0  0  0  0  0  0  0  0
  183.0000  179.6110  144.4090 C   0  0  0  0  0  3  0  0  0  0  0  0
  185.5880  176.9310  136.0640 C   0  0  0  0  0  2  0  0  0  0  0  0
  186.6330  178.0390  138.0180 C   0  0  0  0  0  2  0  0  0  0  0  0
  189.4750  177.2090  141.9190 C   0  0  2  0  0  3  0  0  0  0  0  0
  189.3470  177.0400  145.4400 C   0  0  0  0  0  1  0  0  0  0  0  0
  189.8540  176.5110  140.6290 C   0  0  0  0  0  1  0  0  0  0  0  0
  187.0410  176.5380  144.4760 C   0  0  0  0  0  2  0  0  0  0  0  0
  187.1040  178.0410  142.4780 C   0  0  2  0  0  3  0  0  0  0  0  0
  189.0830  176.1680  142.9710 C   0  0  0  0  0  2  0  0  0  0  0  0
  187.4390  177.9220  143.9710 C   0  0  2  0  0  3  0  0  0  0  0  0
  188.3860  178.2600  141.6430 C   0  0  1  0  0  3  0  0  0  0  0  0
  188.9720  179.6490  141.8550 C   0  0  0  0  0  1  0  0  0  0  0  0
  188.4920  176.8460  144.2060 C   0  0  2  0  0  0  0  0  0  0  0  0
  180.1360  177.5100  139.4540 C   0  0  0  0  0  2  0  0  0  0  0  0
  179.9820  176.1330  139.2970 O   0  0  0  0  0  1  0  0  0  0  0  0
  1  3  1  1  0  0  0
  2  4  1  0  0  0  0
  3 18  2  0  0  0  0
  4 10  2  0  0  0  0
  4  1  1  0  0  0  0
  5 17  1  0  0  0  0
  5  2  2  0  0  0  0
  6 20  1  0  0  0  0
  7  2  1  0  0  0  0
  7 14  1  1  0  0  0
  8  9  1  0  0  0  0
  9 11  1  6  0  0  0
  9 16  1  0  0  0  0
 10 13  1  0  0  0  0
 11  5  1  0  0  0  0
 12 10  1  0  0  0  0
 13 18  1  0  0  0  0
 15 14  1  6  0  0  0
 15  1  1  0  0  0  0
 16 20  1  6  0  0  0
 16  7  1  0  0  0  0
 17 12  2  0  0  0  0
 19  8  1  0  0  0  0
 19  6  1  0  0  0  0
 21 23  1  6  0  0  0
 21 26  1  0  0  0  0
 25 15  1  1  0  0  0
 25 27  1  0  0  0  0
 26 30  1  0  0  0  0
 27 30  1  0  0  0  0
 27 24  1  1  0  0  0
 28 29  1  1  0  0  0
 28 21  1  0  0  0  0
 28 25  1  0  0  0  0
 30 24  1  0  0  0  0
 30 22  1  1  0  0  0
 31 17  1  0  0  0  0
 32 31  1  0  0  0  0
M  END
>  <MODEL>
5

>  <REMARK>
 VINA RESULT:      -7.0      3.255      6.461
  Name = 
  2 active torsions:
  status: ('A' for Active; 'I' for Inactive)
    1  A    between atoms: C_13  and  CA_29
    2  A    between atoms: C_16  and  C_27
                            x       y       z     vdW  Elec       q    Type
                         _______ _______ _______ _____ _____    ______ ____

>  <TORSDO>
F 2

$$$$
=
 OpenBabel10272402043D

 32 38  0  0  1  0  0  0  0  0999 V2000
  187.0440  177.4780  136.7270 C   0  0  1  0  0  3  0  0  0  0  0  0
  189.0250  176.9520  138.2500 C   0  0  0  0  0  0  0  0  0  0  0  0
  186.9530  178.1490  135.3820 C   0  0  0  0  0  3  0  0  0  0  0  0
  188.4440  176.9470  136.9740 C   0  0  0  0  0  0  0  0  0  0  0  0
  190.3140  176.4100  138.4300 C   0  0  0  0  0  0  0  0  0  0  0  0
  188.9420  178.0640  143.1380 C   0  0  0  0  0  2  0  0  0  0  0  0
  188.2230  177.5040  139.4020 C   0  0  2  0  0  3  0  0  0  0  0  0
  190.7770  176.9280  142.0950 O   0  0  0  0  0  0  0  0  0  0  0  0
  190.0380  176.6640  140.9270 C   0  0  2  0  0  3  0  0  0  0  0  0
  189.1760  176.4470  135.8860 C   0  0  0  0  0  0  0  0  0  0  0  0
  191.0080  176.4960  139.7640 C   0  0  0  0  0  2  0  0  0  0  0  0
  190.4150  175.9290  136.0800 N   0  0  0  0  0  0  0  0  0  0  0  0
  188.5740  176.4800  134.5080 C   0  0  0  0  0  2  0  0  0  0  0  0
  187.4670  178.7410  138.9250 C   0  0  0  0  0  2  0  0  0  0  0  0
  186.4420  178.3610  137.8440 C   0  0  2  0  0  3  0  0  0  0  0  0
  189.0690  177.8240  140.6360 C   0  0  2  0  0  3  0  0  0  0  0  0
  190.9960  175.8910  137.3100 C   0  0  0  0  0  0  0  0  0  0  0  0
  187.6690  177.6800  134.3460 C   0  0  0  0  0  3  0  0  0  0  0  0
  189.8800  176.8610  143.1750 C   0  0  0  0  0  2  0  0  0  0  0  0
  188.1440  178.0200  141.8410 C   0  0  0  0  0  2  0  0  0  0  0  0
  183.2280  177.9030  140.0980 C   0  0  2  0  0  3  0  0  0  0  0  0
  181.7920  176.4030  137.2470 C   0  0  0  0  0  1  0  0  0  0  0  0
  183.3580  177.8920  141.6070 C   0  0  0  0  0  1  0  0  0  0  0  0
  184.1990  175.6070  137.5100 C   0  0  0  0  0  2  0  0  0  0  0  0
  185.2080  177.6860  138.4680 C   0  0  2  0  0  3  0  0  0  0  0  0
  182.9830  176.4790  139.5920 C   0  0  0  0  0  2  0  0  0  0  0  0
  184.2460  177.1290  137.4100 C   0  0  2  0  0  3  0  0  0  0  0  0
  184.4570  178.5870  139.4740 C   0  0  1  0  0  3  0  0  0  0  0  0
  184.0260  179.9040  138.8440 C   0  0  0  0  0  1  0  0  0  0  0  0
  183.0640  176.4280  138.0680 C   0  0  2  0  0  0  0  0  0  0  0  0
  192.3790  175.3420  137.4310 C   0  0  0  0  0  2  0  0  0  0  0  0
  192.3550  173.9620  137.2350 O   0  0  0  0  0  1  0  0  0  0  0  0
  1  3  1  6  0  0  0
  1  4  1  0  0  0  0
  1 15  1  0  0  0  0
  2  5  1  0  0  0  0
  2  7  1  0  0  0  0
  4  2  2  0  0  0  0
  5 11  1  0  0  0  0
  6 19  1  0  0  0  0
  7 14  1  6  0  0  0
  7 16  1  0  0  0  0
  8 19  1  0  0  0  0
  9 11  1  6  0  0  0
  9  8  1  0  0  0  0
 10 12  2  0  0  0  0
 10  4  1  0  0  0  0
 12 17  1  0  0  0  0
 13 10  1  0  0  0  0
 15 14  1  1  0  0  0
 16  9  1  0  0  0  0
 16 20  1  1  0  0  0
 17 31  1  0  0  0  0
 17  5  2  0  0  0  0
 18 13  1  0  0  0  0
 18  3  2  0  0  0  0
 20  6  1  0  0  0  0
 21 23  1  1  0  0  0
 24 30  1  0  0  0  0
 25 15  1  6  0  0  0
 25 28  1  0  0  0  0
 26 21  1  0  0  0  0
 27 24  1  6  0  0  0
 27 30  1  0  0  0  0
 27 25  1  0  0  0  0
 28 29  1  6  0  0  0
 28 21  1  0  0  0  0
 30 22  1  6  0  0  0
 30 26  1  0  0  0  0
 32 31  1  0  0  0  0
M  END
>  <MODEL>
6

>  <REMARK>
 VINA RESULT:      -7.0      3.240      6.832
  Name = 
  2 active torsions:
  status: ('A' for Active; 'I' for Inactive)
    1  A    between atoms: C_13  and  CA_29
    2  A    between atoms: C_16  and  C_27
                            x       y       z     vdW  Elec       q    Type
                         _______ _______ _______ _____ _____    ______ ____

>  <TORSDO>
F 2

$$$$
=
 OpenBabel10272402043D

 32 38  0  0  1  0  0  0  0  0999 V2000
  189.8240  176.2580  137.3220 C   0  0  1  0  0  3  0  0  0  0  0  0
  189.1940  177.3340  139.5500 C   0  0  0  0  0  0  0  0  0  0  0  0
  191.0020  176.4500  136.4040 C   0  0  0  0  0  3  0  0  0  0  0  0
  190.1520  176.7230  138.7280 C   0  0  0  0  0  0  0  0  0  0  0  0
  189.5420  177.7110  140.8630 C   0  0  0  0  0  0  0  0  0  0  0  0
  184.5980  179.1630  140.3720 C   0  0  0  0  0  2  0  0  0  0  0  0
  187.8000  177.5290  139.0060 C   0  0  2  0  0  3  0  0  0  0  0  0
  186.3090  179.1470  142.0510 O   0  0  0  0  0  0  0  0  0  0  0  0
  187.1190  178.2620  141.3130 C   0  0  2  0  0  3  0  0  0  0  0  0
  191.4570  176.5410  139.2100 C   0  0  0  0  0  0  0  0  0  0  0  0
  188.5700  178.4640  141.7330 C   0  0  0  0  0  2  0  0  0  0  0  0
  191.7720  176.9100  140.4770 N   0  0  0  0  0  0  0  0  0  0  0  0
  192.4990  175.9260  138.3170 C   0  0  0  0  0  2  0  0  0  0  0  0
  187.8990  177.9480  137.5410 C   0  0  0  0  0  2  0  0  0  0  0  0
  188.5250  176.8220  136.7010 C   0  0  2  0  0  3  0  0  0  0  0  0
  186.9690  178.5330  139.8050 C   0  0  2  0  0  3  0  0  0  0  0  0
  190.8580  177.4780  141.3110 C   0  0  0  0  0  0  0  0  0  0  0  0
  192.2520  176.2930  136.8720 C   0  0  0  0  0  3  0  0  0  0  0  0
  184.9730  178.7870  141.8030 C   0  0  0  0  0  2  0  0  0  0  0  0
  185.4950  178.3890  139.4140 C   0  0  0  0  0  2  0  0  0  0  0  0
  185.2380  175.0320  135.4320 C   0  0  2  0  0  3  0  0  0  0  0  0
  187.3890  172.4270  134.4190 C   0  0  0  0  0  1  0  0  0  0  0  0
  183.8950  175.4110  136.0220 C   0  0  0  0  0  1  0  0  0  0  0  0
  188.1010  173.2790  136.7140 C   0  0  0  0  0  2  0  0  0  0  0  0
  187.5080  175.6950  136.4470 C   0  0  2  0  0  3  0  0  0  0  0  0
  185.6750  173.6720  135.9820 C   0  0  0  0  0  2  0  0  0  0  0  0
  188.1430  174.4750  135.7670 C   0  0  2  0  0  3  0  0  0  0  0  0
  186.2520  176.1620  135.6780 C   0  0  1  0  0  3  0  0  0  0  0  0
  186.6090  176.8070  134.3460 C   0  0  0  0  0  1  0  0  0  0  0  0
  187.1150  173.3650  135.5760 C   0  0  2  0  0  0  0  0  0  0  0  0
  191.2970  177.8930  142.6760 C   0  0  0  0  0  2  0  0  0  0  0  0
  191.4950  176.7630  143.4700 O   0  0  0  0  0  1  0  0  0  0  0  0
  1  3  1  6  0  0  0
  1  4  1  0  0  0  0
  2  5  1  0  0  0  0
  3 18  2  0  0  0  0
  4 10  1  0  0  0  0
  4  2  2  0  0  0  0
  5 17  2  0  0  0  0
  5 11  1  0  0  0  0
  6 19  1  0  0  0  0
  7 14  1  6  0  0  0
  7  2  1  0  0  0  0
  7 16  1  0  0  0  0
  9 11  1  1  0  0  0
  9  8  1  0  0  0  0
 10 12  2  0  0  0  0
 12 17  1  0  0  0  0
 13 10  1  0  0  0  0
 15  1  1  0  0  0  0
 15 14  1  1  0  0  0
 16 20  1  6  0  0  0
 16  9  1  0  0  0  0
 17 31  1  0  0  0  0
 18 13  1  0  0  0  0
 19  8  1  0  0  0  0
 20  6  1  0  0  0  0
 21 28  1  0  0  0  0
 21 26  1  0  0  0  0
 21 23  1  1  0  0  0
 25 15  1  6  0  0  0
 27 25  1  0  0  0  0
 27 24  1  1  0  0  0
 28 29  1  6  0  0  0
 28 25  1  0  0  0  0
 30 22  1  6  0  0  0
 30 27  1  0  0  0  0
 30 26  1  0  0  0  0
 30 24  1  0  0  0  0
 31 32  1  0  0  0  0
M  END
>  <MODEL>
7

>  <REMARK>
 VINA RESULT:      -6.8      2.096      3.921
  Name = 
  2 active torsions:
  status: ('A' for Active; 'I' for Inactive)
    1  A    between atoms: C_13  and  CA_29
    2  A    between atoms: C_16  and  C_27
                            x       y       z     vdW  Elec       q    Type
                         _______ _______ _______ _____ _____    ______ ____

>  <TORSDO>
F 2

$$$$
=
 OpenBabel10272402043D

 32 38  0  0  1  0  0  0  0  0999 V2000
  186.8030  178.3350  140.9130 C   0  0  1  0  0  3  0  0  0  0  0  0
  187.9130  177.3830  138.8200 C   0  0  0  0  0  0  0  0  0  0  0  0
  185.7960  179.4370  141.1110 C   0  0  0  0  0  3  0  0  0  0  0  0
  186.7580  177.8090  139.4900 C   0  0  0  0  0  0  0  0  0  0  0  0
  187.8080  176.8660  137.5120 C   0  0  0  0  0  0  0  0  0  0  0  0
  192.8710  176.6770  138.5710 C   0  0  0  0  0  2  0  0  0  0  0  0
  189.2330  177.4550  139.5460 C   0  0  2  0  0  3  0  0  0  0  0  0
  191.3810  176.0630  136.7970 O   0  0  0  0  0  0  0  0  0  0  0  0
  190.2420  176.2030  137.6130 C   0  0  2  0  0  3  0  0  0  0  0  0
  185.5210  177.7600  138.8300 C   0  0  0  0  0  0  0  0  0  0  0  0
  189.0390  176.5000  136.7260 C   0  0  0  0  0  2  0  0  0  0  0  0
  185.4400  177.2590  137.5710 N   0  0  0  0  0  0  0  0  0  0  0  0
  184.2850  178.2570  139.5290 C   0  0  0  0  0  2  0  0  0  0  0  0
  189.2770  178.7490  140.3550 C   0  0  0  0  0  2  0  0  0  0  0  0
  188.1960  178.7370  141.4480 C   0  0  2  0  0  3  0  0  0  0  0  0
  190.4450  177.3490  138.6200 C   0  0  2  0  0  3  0  0  0  0  0  0
  186.5380  176.8090  136.9030 C   0  0  0  0  0  0  0  0  0  0  0  0
  184.6190  179.3980  140.4630 C   0  0  0  0  0  3  0  0  0  0  0  0
  192.4170  175.5790  137.6130 C   0  0  0  0  0  2  0  0  0  0  0  0
  191.6950  177.0640  139.4590 C   0  0  0  0  0  2  0  0  0  0  0  0
  190.5220  177.0140  144.1380 C   0  0  2  0  0  3  0  0  0  0  0  0
  187.8800  177.6210  146.3950 C   0  0  0  0  0  1  0  0  0  0  0  0
  191.6190  176.0670  143.6950 C   0  0  0  0  0  1  0  0  0  0  0  0
  186.9350  176.8070  144.1710 C   0  0  0  0  0  2  0  0  0  0  0  0
  188.6100  177.8330  142.6230 C   0  0  2  0  0  3  0  0  0  0  0  0
  189.3640  176.2130  144.7380 C   0  0  0  0  0  2  0  0  0  0  0  0
  187.7500  178.0630  143.8720 C   0  0  2  0  0  3  0  0  0  0  0  0
  190.1140  177.9240  142.9670 C   0  0  1  0  0  3  0  0  0  0  0  0
  190.5410  179.3520  143.2760 C   0  0  0  0  0  1  0  0  0  0  0  0
  188.1610  177.1170  144.9950 C   0  0  2  0  0  0  0  0  0  0  0  0
  186.3700  176.3110  135.5060 C   0  0  0  0  0  2  0  0  0  0  0  0
  186.2020  177.3910  134.6390 O   0  0  0  0  0  1  0  0  0  0  0  0
  1  3  1  6  0  0  0
  1 15  1  0  0  0  0
  2  4  1  0  0  0  0
  2  7  1  0  0  0  0
  4  1  1  0  0  0  0
  5  2  2  0  0  0  0
  6 20  1  0  0  0  0
  7 14  1  6  0  0  0
  8  9  1  0  0  0  0
  8 19  1  0  0  0  0
  9 11  1  6  0  0  0
  9 16  1  0  0  0  0
 10  4  2  0  0  0  0
 10 13  1  0  0  0  0
 11  5  1  0  0  0  0
 12 10  1  0  0  0  0
 13 18  1  0  0  0  0
 15 14  1  6  0  0  0
 16 20  1  1  0  0  0
 16  7  1  0  0  0  0
 17  5  1  0  0  0  0
 17 12  2  0  0  0  0
 18  3  2  0  0  0  0
 19  6  1  0  0  0  0
 21 23  1  6  0  0  0
 21 26  1  0  0  0  0
 24 30  1  0  0  0  0
 25 15  1  6  0  0  0
 25 28  1  0  0  0  0
 25 27  1  0  0  0  0
 26 30  1  0  0  0  0
 27 24  1  6  0  0  0
 27 30  1  0  0  0  0
 28 29  1  1  0  0  0
 28 21  1  0  0  0  0
 30 22  1  1  0  0  0
 31 17  1  0  0  0  0
 32 31  1  0  0  0  0
M  END
>  <MODEL>
8

>  <REMARK>
 VINA RESULT:      -6.7      3.048      7.386
  Name = 
  2 active torsions:
  status: ('A' for Active; 'I' for Inactive)
    1  A    between atoms: C_13  and  CA_29
    2  A    between atoms: C_16  and  C_27
                            x       y       z     vdW  Elec       q    Type
                         _______ _______ _______ _____ _____    ______ ____

>  <TORSDO>
F 2

$$$$
=
 OpenBabel10272402043D

 32 38  0  0  1  0  0  0  0  0999 V2000
  185.9900  178.2700  139.7620 C   0  0  1  0  0  3  0  0  0  0  0  0
  187.3270  177.1620  137.8900 C   0  0  0  0  0  0  0  0  0  0  0  0
  185.0060  179.4100  139.7630 C   0  0  0  0  0  3  0  0  0  0  0  0
  186.1100  177.6610  138.3770 C   0  0  0  0  0  0  0  0  0  0  0  0
  187.3730  176.5700  136.6110 C   0  0  0  0  0  0  0  0  0  0  0  0
  192.2460  176.3030  138.3330 C   0  0  0  0  0  2  0  0  0  0  0  0
  188.5430  177.2410  138.7780 C   0  0  2  0  0  3  0  0  0  0  0  0
  190.9770  175.6250  136.4160 O   0  0  0  0  0  0  0  0  0  0  0  0
  189.7490  175.8460  137.0680 C   0  0  2  0  0  3  0  0  0  0  0  0
  184.9680  177.6060  137.5650 C   0  0  0  0  0  0  0  0  0  0  0  0
  188.6820  176.1220  136.0150 C   0  0  0  0  0  2  0  0  0  0  0  0
  185.0330  177.0320  136.3370 N   0  0  0  0  0  0  0  0  0  0  0  0
  183.6710  178.1790  138.0670 C   0  0  0  0  0  2  0  0  0  0  0  0
  188.5290  178.5800  139.5110 C   0  0  0  0  0  2  0  0  0  0  0  0
  187.3160  178.6650  140.4520 C   0  0  2  0  0  3  0  0  0  0  0  0
  189.8610  177.0450  138.0260 C   0  0  2  0  0  3  0  0  0  0  0  0
  186.1910  176.5120  135.8450 C   0  0  0  0  0  0  0  0  0  0  0  0
  183.9220  179.3650  138.9700 C   0  0  0  0  0  3  0  0  0  0  0  0
  191.8820  175.1620  137.3880 C   0  0  0  0  0  2  0  0  0  0  0  0
  190.9800  176.7770  139.0360 C   0  0  0  0  0  2  0  0  0  0  0  0
  189.2540  176.7780  143.3320 C   0  0  2  0  0  3  0  0  0  0  0  0
  186.8340  178.1730  145.4850 C   0  0  0  0  0  1  0  0  0  0  0  0
  190.1170  175.5760  143.0030 C   0  0  0  0  0  1  0  0  0  0  0  0
  185.7070  177.3500  143.3520 C   0  0  0  0  0  2  0  0  0  0  0  0
  187.5420  177.8230  141.7200 C   0  0  2  0  0  3  0  0  0  0  0  0
  187.9590  176.3120  144.0030 C   0  0  0  0  0  2  0  0  0  0  0  0
  186.7670  178.3630  142.9290 C   0  0  2  0  0  3  0  0  0  0  0  0
  189.0350  177.6250  142.0670 C   0  0  1  0  0  3  0  0  0  0  0  0
  189.7620  178.9520  142.2270 C   0  0  0  0  0  1  0  0  0  0  0  0
  186.9810  177.4750  144.1500 C   0  0  2  0  0  0  0  0  0  0  0  0
  186.1870  175.9340  134.4680 C   0  0  0  0  0  2  0  0  0  0  0  0
  185.8070  174.5940  134.5220 O   0  0  0  0  0  1  0  0  0  0  0  0
  1  3  1  6  0  0  0
  1 15  1  0  0  0  0
  2  4  1  0  0  0  0
  2  7  1  0  0  0  0
  4  1  1  0  0  0  0
  5  2  2  0  0  0  0
  6 20  1  0  0  0  0
  7 14  1  6  0  0  0
  8  9  1  0  0  0  0
  8 19  1  0  0  0  0
  9 11  1  6  0  0  0
  9 16  1  0  0  0  0
 10 13  1  0  0  0  0
 10  4  2  0  0  0  0
 11  5  1  0  0  0  0
 12 10  1  0  0  0  0
 13 18  1  0  0  0  0
 15 14  1  6  0  0  0
 16  7  1  0  0  0  0
 16 20  1  1  0  0  0
 17 12  2  0  0  0  0
 17  5  1  0  0  0  0
 18  3  2  0  0  0  0
 19  6  1  0  0  0  0
 21 23  1  6  0  0  0
 21 26  1  0  0  0  0
 24 30  1  0  0  0  0
 25 15  1  6  0  0  0
 25 28  1  0  0  0  0
 25 27  1  0  0  0  0
 26 30  1  0  0  0  0
 27 24  1  6  0  0  0
 27 30  1  0  0  0  0
 28 29  1  1  0  0  0
 28 21  1  0  0  0  0
 30 22  1  1  0  0  0
 31 32  1  0  0  0  0
 31 17  1  0  0  0  0
M  END
>  <MODEL>
9

>  <REMARK>
 VINA RESULT:      -6.6      3.271      7.582
  Name = 
  2 active torsions:
  status: ('A' for Active; 'I' for Inactive)
    1  A    between atoms: C_13  and  CA_29
    2  A    between atoms: C_16  and  C_27
                            x       y       z     vdW  Elec       q    Type
                         _______ _______ _______ _____ _____    ______ ____

>  <TORSDO>
F 2

$$$$
