=
 OpenBabel10272401143D

 27 31  0  0  0  0  0  0  0  0999 V2000
  187.7570  177.5630  144.2590 N   0  0  0  0  0  0  0  0  0  0  0  0
  187.5350  178.0040  141.9400 C   0  0  0  0  0  0  0  0  0  0  0  0
  191.0310  177.0400  142.6610 C   0  0  0  0  0  3  0  0  0  0  0  0
  186.9430  178.4600  140.7340 N   0  0  0  0  0  0  0  0  0  0  0  0
  191.2150  176.6180  145.0490 C   0  0  0  0  0  0  0  0  0  0  0  0
  186.9570  177.9530  143.2200 C   0  0  0  0  0  0  0  0  0  0  0  0
  189.1700  177.8330  140.3580 N   0  0  0  0  0  0  0  0  0  0  0  0
  189.0750  177.2460  144.0930 C   0  0  0  0  0  0  0  0  0  0  0  0
  188.8360  177.6500  141.7330 C   0  0  0  0  0  0  0  0  0  0  0  0
  191.8020  176.6980  143.7750 C   0  0  0  0  0  3  0  0  0  0  0  0
  187.9800  178.3850  139.7010 C   0  0  0  0  0  3  0  0  0  0  0  0
  189.8530  176.8990  145.2000 C   0  0  0  0  0  3  0  0  0  0  0  0
  189.6650  177.2980  142.8060 C   0  0  0  0  0  0  0  0  0  0  0  0
  191.5280  177.4820  139.7870 C   0  0  0  0  0  3  0  0  0  0  0  0
  192.1730  175.8630  138.1070 C   0  0  0  0  0  3  0  0  0  0  0  0
  190.8310  175.5260  137.9170 C   0  0  0  0  0  3  0  0  0  0  0  0
  189.8370  176.1660  138.6640 C   0  0  0  0  0  3  0  0  0  0  0  0
  190.1810  177.1370  139.6150 C   0  0  0  0  0  0  0  0  0  0  0  0
  192.5220  176.8430  139.0410 C   0  0  0  0  0  3  0  0  0  0  0  0
  182.8680  178.9800  144.0540 C   0  0  0  0  0  3  0  0  0  0  0  0
  185.5400  178.3090  143.4900 C   0  0  0  0  0  0  0  0  0  0  0  0
  184.5750  178.3210  142.4700 C   0  0  0  0  0  3  0  0  0  0  0  0
  183.2460  178.6560  142.7490 C   0  0  0  0  0  3  0  0  0  0  0  0
  183.8170  178.9700  145.0780 C   0  0  0  0  0  3  0  0  0  0  0  0
  185.1450  178.6360  144.7970 C   0  0  0  0  0  3  0  0  0  0  0  0
  191.5050  176.5070  147.5030 C   0  0  0  0  0  1  0  0  0  0  0  0
  191.9620  176.2700  146.1790 O   0  0  0  0  0  0  0  0  0  0  0  0
  2  6  1  0  0  0  0
  3 13  2  0  0  0  0
  3 10  1  0  0  0  0
  4  2  1  0  0  0  0
  5 12  1  0  0  0  0
  5 27  1  0  0  0  0
  6 21  1  0  0  0  0
  6  1  2  0  0  0  0
  7  9  1  0  0  0  0
  8  1  1  0  0  0  0
  8 12  2  0  0  0  0
  9  2  2  0  0  0  0
  9 13  1  0  0  0  0
 10  5  2  0  0  0  0
 11  7  1  0  0  0  0
 11  4  2  0  0  0  0
 13  8  1  0  0  0  0
 15 19  1  0  0  0  0
 16 15  2  0  0  0  0
 16 17  1  0  0  0  0
 17 18  2  0  0  0  0
 18 14  1  0  0  0  0
 18  7  1  0  0  0  0
 19 14  2  0  0  0  0
 20 24  1  0  0  0  0
 21 25  1  0  0  0  0
 22 23  1  0  0  0  0
 22 21  2  0  0  0  0
 23 20  2  0  0  0  0
 25 24  2  0  0  0  0
 27 26  1  0  0  0  0
M  END
>  <MODEL>
1

>  <REMARK>
 VINA RESULT:      -9.5      0.000      0.000
  Name = 
  3 active torsions:
  status: ('A' for Active; 'I' for Inactive)
    1  A    between atoms: C_9  and  C_15
    2  A    between atoms: C_13  and  O_22
    3  A    between atoms: C_14  and  N_17
                            x       y       z     vdW  Elec       q    Type
                         _______ _______ _______ _____ _____    ______ ____

>  <TORSDO>
F 3

$$$$
=
 OpenBabel10272401143D

 27 31  0  0  0  0  0  0  0  0999 V2000
  187.4350  177.9130  141.2360 N   0  0  0  0  0  0  0  0  0  0  0  0
  189.7750  177.5390  141.3230 C   0  0  0  0  0  0  0  0  0  0  0  0
  188.4390  177.6710  144.7690 C   0  0  0  0  0  3  0  0  0  0  0  0
  191.1150  177.4450  140.8650 N   0  0  0  0  0  0  0  0  0  0  0  0
  186.0440  178.0750  144.6290 C   0  0  0  0  0  0  0  0  0  0  0  0
  188.6160  177.7630  140.5610 C   0  0  0  0  0  0  0  0  0  0  0  0
  191.0400  177.2540  143.2000 N   0  0  0  0  0  0  0  0  0  0  0  0
  187.3570  177.8680  142.5980 C   0  0  0  0  0  0  0  0  0  0  0  0
  189.7240  177.4420  142.6830 C   0  0  0  0  0  0  0  0  0  0  0  0
  187.2070  177.8820  145.3940 C   0  0  0  0  0  3  0  0  0  0  0  0
  191.9560  177.2860  142.0550 C   0  0  0  0  0  3  0  0  0  0  0  0
  186.1290  178.0730  143.2320 C   0  0  0  0  0  3  0  0  0  0  0  0
  188.5220  177.6450  143.3730 C   0  0  0  0  0  0  0  0  0  0  0  0
  191.3550  177.3300  145.6310 C   0  0  0  0  0  3  0  0  0  0  0  0
  192.1900  175.4050  146.8370 C   0  0  0  0  0  3  0  0  0  0  0  0
  192.2540  174.6840  145.6420 C   0  0  0  0  0  3  0  0  0  0  0  0
  191.8670  175.2870  144.4410 C   0  0  0  0  0  3  0  0  0  0  0  0
  191.4000  176.6090  144.4310 C   0  0  0  0  0  0  0  0  0  0  0  0
  191.7420  176.7290  146.8320 C   0  0  0  0  0  3  0  0  0  0  0  0
  188.6210  177.9730  136.2680 C   0  0  0  0  0  3  0  0  0  0  0  0
  188.6200  177.8540  139.0780 C   0  0  0  0  0  0  0  0  0  0  0  0
  188.9970  179.0310  138.4110 C   0  0  0  0  0  3  0  0  0  0  0  0
  188.9970  179.0920  137.0150 C   0  0  0  0  0  3  0  0  0  0  0  0
  188.2460  176.7950  136.9180 C   0  0  0  0  0  3  0  0  0  0  0  0
  188.2460  176.7380  138.3140 C   0  0  0  0  0  3  0  0  0  0  0  0
  183.8230  179.1600  144.6900 C   0  0  0  0  0  1  0  0  0  0  0  0
  184.7990  178.2810  145.2300 O   0  0  0  0  0  0  0  0  0  0  0  0
  1  8  1  0  0  0  0
  2  9  2  0  0  0  0
  3 10  1  0  0  0  0
  4  2  1  0  0  0  0
  4 11  2  0  0  0  0
  5 27  1  0  0  0  0
  5 10  2  0  0  0  0
  6  1  2  0  0  0  0
  6  2  1  0  0  0  0
  7 18  1  0  0  0  0
  8 12  2  0  0  0  0
  8 13  1  0  0  0  0
  9  7  1  0  0  0  0
  9 13  1  0  0  0  0
 11  7  1  0  0  0  0
 12  5  1  0  0  0  0
 13  3  2  0  0  0  0
 14 19  1  0  0  0  0
 16 15  1  0  0  0  0
 17 16  2  0  0  0  0
 18 17  1  0  0  0  0
 18 14  2  0  0  0  0
 19 15  2  0  0  0  0
 20 24  2  0  0  0  0
 20 23  1  0  0  0  0
 21  6  1  0  0  0  0
 22 21  1  0  0  0  0
 23 22  2  0  0  0  0
 24 25  1  0  0  0  0
 25 21  2  0  0  0  0
 26 27  1  0  0  0  0
M  END
>  <MODEL>
2

>  <REMARK>
 VINA RESULT:      -9.5      2.246      6.001
  Name = 
  3 active torsions:
  status: ('A' for Active; 'I' for Inactive)
    1  A    between atoms: C_9  and  C_15
    2  A    between atoms: C_13  and  O_22
    3  A    between atoms: C_14  and  N_17
                            x       y       z     vdW  Elec       q    Type
                         _______ _______ _______ _____ _____    ______ ____

>  <TORSDO>
F 3

$$$$
=
 OpenBabel10272401143D

 27 31  0  0  0  0  0  0  0  0999 V2000
  188.5790  177.5960  143.0440 N   0  0  0  0  0  0  0  0  0  0  0  0
  186.3350  178.2470  143.4450 C   0  0  0  0  0  0  0  0  0  0  0  0
  186.9890  178.3330  139.8070 C   0  0  0  0  0  3  0  0  0  0  0  0
  185.1890  178.6520  144.1780 N   0  0  0  0  0  0  0  0  0  0  0  0
  189.3040  177.6780  139.4460 C   0  0  0  0  0  0  0  0  0  0  0  0
  187.5860  177.8500  143.9490 C   0  0  0  0  0  0  0  0  0  0  0  0
  184.7770  178.8040  141.8760 N   0  0  0  0  0  0  0  0  0  0  0  0
  188.3980  177.7290  141.6970 C   0  0  0  0  0  0  0  0  0  0  0  0
  186.1080  178.3460  142.1040 C   0  0  0  0  0  0  0  0  0  0  0  0
  188.0630  178.1040  138.9430 C   0  0  0  0  0  3  0  0  0  0  0  0
  184.1760  179.0400  143.1930 C   0  0  0  0  0  3  0  0  0  0  0  0
  189.4640  177.4980  140.8240 C   0  0  0  0  0  3  0  0  0  0  0  0
  187.1410  178.1320  141.1830 C   0  0  0  0  0  0  0  0  0  0  0  0
  183.3260  177.3260  140.5620 C   0  0  0  0  0  3  0  0  0  0  0  0
  182.4600  178.0240  138.4130 C   0  0  0  0  0  3  0  0  0  0  0  0
  183.1110  179.2530  138.5490 C   0  0  0  0  0  3  0  0  0  0  0  0
  183.8690  179.5180  139.6940 C   0  0  0  0  0  3  0  0  0  0  0  0
  183.9680  178.5620  140.7150 C   0  0  0  0  0  0  0  0  0  0  0  0
  182.5690  177.0590  139.4180 C   0  0  0  0  0  3  0  0  0  0  0  0
  188.4600  177.4100  148.1340 C   0  0  0  0  0  3  0  0  0  0  0  0
  187.8730  177.7090  145.4000 C   0  0  0  0  0  0  0  0  0  0  0  0
  186.9470  178.1050  146.3780 C   0  0  0  0  0  3  0  0  0  0  0  0
  187.2390  177.9590  147.7380 C   0  0  0  0  0  3  0  0  0  0  0  0
  189.3900  177.0090  147.1720 C   0  0  0  0  0  3  0  0  0  0  0  0
  189.0960  177.1580  145.8140 C   0  0  0  0  0  3  0  0  0  0  0  0
  191.2820  176.3450  138.7940 C   0  0  0  0  0  1  0  0  0  0  0  0
  190.3910  177.4350  138.6020 O   0  0  0  0  0  0  0  0  0  0  0  0
  1  6  1  0  0  0  0
  2  6  2  0  0  0  0
  2  4  1  0  0  0  0
  3 13  1  0  0  0  0
  5 12  2  0  0  0  0
  6 21  1  0  0  0  0
  7  9  1  0  0  0  0
  7 11  1  0  0  0  0
  8  1  2  0  0  0  0
  9  2  1  0  0  0  0
 10  5  1  0  0  0  0
 10  3  2  0  0  0  0
 11  4  2  0  0  0  0
 12  8  1  0  0  0  0
 13  8  1  0  0  0  0
 13  9  2  0  0  0  0
 14 18  1  0  0  0  0
 15 16  2  0  0  0  0
 15 19  1  0  0  0  0
 16 17  1  0  0  0  0
 17 18  2  0  0  0  0
 18  7  1  0  0  0  0
 19 14  2  0  0  0  0
 21 25  2  0  0  0  0
 21 22  1  0  0  0  0
 22 23  2  0  0  0  0
 23 20  1  0  0  0  0
 24 20  2  0  0  0  0
 25 24  1  0  0  0  0
 27 26  1  0  0  0  0
 27  5  1  0  0  0  0
M  END
>  <MODEL>
3

>  <REMARK>
 VINA RESULT:      -8.9      2.710      5.976
  Name = 
  3 active torsions:
  status: ('A' for Active; 'I' for Inactive)
    1  A    between atoms: C_9  and  C_15
    2  A    between atoms: C_13  and  O_22
    3  A    between atoms: C_14  and  N_17
                            x       y       z     vdW  Elec       q    Type
                         _______ _______ _______ _____ _____    ______ ____

>  <TORSDO>
F 3

$$$$
=
 OpenBabel10272401143D

 27 31  0  0  0  0  0  0  0  0999 V2000
  187.2630  177.9940  144.3070 N   0  0  0  0  0  0  0  0  0  0  0  0
  188.9310  177.3550  142.7470 C   0  0  0  0  0  0  0  0  0  0  0  0
  185.8140  178.1570  140.9280 C   0  0  0  0  0  3  0  0  0  0  0  0
  190.1590  176.8280  142.2700 N   0  0  0  0  0  0  0  0  0  0  0  0
  184.1290  178.7860  142.5660 C   0  0  0  0  0  0  0  0  0  0  0  0
  188.5410  177.5610  144.0820 C   0  0  0  0  0  0  0  0  0  0  0  0
  188.7150  177.2750  140.4780 N   0  0  0  0  0  0  0  0  0  0  0  0
  186.3720  178.2090  143.2950 C   0  0  0  0  0  0  0  0  0  0  0  0
  188.0800  177.6050  141.7120 C   0  0  0  0  0  0  0  0  0  0  0  0
  184.5080  178.5510  141.2340 C   0  0  0  0  0  3  0  0  0  0  0  0
  190.0400  176.7410  140.8110 C   0  0  0  0  0  3  0  0  0  0  0  0
  185.0650  178.6080  143.5910 C   0  0  0  0  0  3  0  0  0  0  0  0
  186.7570  178.0010  141.9480 C   0  0  0  0  0  0  0  0  0  0  0  0
  187.3860  177.3100  138.4180 C   0  0  0  0  0  3  0  0  0  0  0  0
  187.9240  178.8370  136.6180 C   0  0  0  0  0  3  0  0  0  0  0  0
  188.9820  179.3510  137.3700 C   0  0  0  0  0  3  0  0  0  0  0  0
  189.2420  178.8460  138.6480 C   0  0  0  0  0  3  0  0  0  0  0  0
  188.4340  177.8330  139.1860 C   0  0  0  0  0  0  0  0  0  0  0  0
  187.1260  177.8140  137.1400 C   0  0  0  0  0  3  0  0  0  0  0  0
  191.1060  176.8940  147.4650 C   0  0  0  0  0  3  0  0  0  0  0  0
  189.4410  177.3230  145.2400 C   0  0  0  0  0  0  0  0  0  0  0  0
  190.7780  176.9320  145.0690 C   0  0  0  0  0  3  0  0  0  0  0  0
  191.6070  176.7170  146.1740 C   0  0  0  0  0  3  0  0  0  0  0  0
  189.7780  177.2850  147.6520 C   0  0  0  0  0  3  0  0  0  0  0  0
  188.9520  177.4980  146.5450 C   0  0  0  0  0  3  0  0  0  0  0  0
  182.1910  178.7890  144.1020 C   0  0  0  0  0  1  0  0  0  0  0  0
  182.8330  179.1880  142.8990 O   0  0  0  0  0  0  0  0  0  0  0  0
  2  6  2  0  0  0  0
  3 10  2  0  0  0  0
  3 13  1  0  0  0  0
  4  2  1  0  0  0  0
  5 27  1  0  0  0  0
  5 12  2  0  0  0  0
  6  1  1  0  0  0  0
  6 21  1  0  0  0  0
  7 11  1  0  0  0  0
  7  9  1  0  0  0  0
  8 12  1  0  0  0  0
  8  1  2  0  0  0  0
  9 13  2  0  0  0  0
  9  2  1  0  0  0  0
 10  5  1  0  0  0  0
 11  4  2  0  0  0  0
 13  8  1  0  0  0  0
 14 18  1  0  0  0  0
 15 19  1  0  0  0  0
 15 16  2  0  0  0  0
 16 17  1  0  0  0  0
 17 18  2  0  0  0  0
 18  7  1  0  0  0  0
 19 14  2  0  0  0  0
 20 24  1  0  0  0  0
 21 25  1  0  0  0  0
 22 21  2  0  0  0  0
 22 23  1  0  0  0  0
 23 20  2  0  0  0  0
 25 24  2  0  0  0  0
 27 26  1  0  0  0  0
M  END
>  <MODEL>
4

>  <REMARK>
 VINA RESULT:      -8.8      2.506      5.615
  Name = 
  3 active torsions:
  status: ('A' for Active; 'I' for Inactive)
    1  A    between atoms: C_9  and  C_15
    2  A    between atoms: C_13  and  O_22
    3  A    between atoms: C_14  and  N_17
                            x       y       z     vdW  Elec       q    Type
                         _______ _______ _______ _____ _____    ______ ____

>  <TORSDO>
F 3

$$$$
=
 OpenBabel10272401143D

 27 31  0  0  0  0  0  0  0  0999 V2000
  187.9540  177.9100  142.6720 N   0  0  0  0  0  0  0  0  0  0  0  0
  186.0880  178.3940  141.2910 C   0  0  0  0  0  0  0  0  0  0  0  0
  189.0740  177.9060  139.1660 C   0  0  0  0  0  3  0  0  0  0  0  0
  184.7740  178.8030  140.9420 N   0  0  0  0  0  0  0  0  0  0  0  0
  190.9630  177.4330  140.6230 C   0  0  0  0  0  0  0  0  0  0  0  0
  186.6240  178.2190  142.5780 C   0  0  0  0  0  0  0  0  0  0  0  0
  186.0720  178.5070  139.0130 N   0  0  0  0  0  0  0  0  0  0  0  0
  188.7580  177.7870  141.5750 C   0  0  0  0  0  0  0  0  0  0  0  0
  186.8530  178.2330  140.1740 C   0  0  0  0  0  0  0  0  0  0  0  0
  190.4340  177.6380  139.3370 C   0  0  0  0  0  3  0  0  0  0  0  0
  184.7410  178.9090  139.4810 C   0  0  0  0  0  3  0  0  0  0  0  0
  190.1190  177.5140  141.7370 C   0  0  0  0  0  3  0  0  0  0  0  0
  188.2240  177.9650  140.2750 C   0  0  0  0  0  0  0  0  0  0  0  0
  185.8320  176.6940  137.3790 C   0  0  0  0  0  3  0  0  0  0  0  0
  186.7460  176.9030  135.1480 C   0  0  0  0  0  3  0  0  0  0  0  0
  187.2080  178.1850  135.4570 C   0  0  0  0  0  3  0  0  0  0  0  0
  186.9800  178.7220  136.7270 C   0  0  0  0  0  3  0  0  0  0  0  0
  186.2760  177.9860  137.6920 C   0  0  0  0  0  0  0  0  0  0  0  0
  186.0600  176.1560  136.1100 C   0  0  0  0  0  3  0  0  0  0  0  0
  184.3460  178.6060  146.2020 C   0  0  0  0  0  3  0  0  0  0  0  0
  185.8240  178.3630  143.8220 C   0  0  0  0  0  0  0  0  0  0  0  0
  184.5290  178.9050  143.8080 C   0  0  0  0  0  3  0  0  0  0  0  0
  183.7940  179.0280  144.9910 C   0  0  0  0  0  3  0  0  0  0  0  0
  185.6320  178.0640  146.2310 C   0  0  0  0  0  3  0  0  0  0  0  0
  186.3660  177.9430  145.0470 C   0  0  0  0  0  3  0  0  0  0  0  0
  193.2740  177.2070  139.7730 C   0  0  0  0  0  1  0  0  0  0  0  0
  192.3180  177.1550  140.8220 O   0  0  0  0  0  0  0  0  0  0  0  0
  2  6  2  0  0  0  0
  3 10  2  0  0  0  0
  3 13  1  0  0  0  0
  4  2  1  0  0  0  0
  5 27  1  0  0  0  0
  5 12  2  0  0  0  0
  6  1  1  0  0  0  0
  6 21  1  0  0  0  0
  7 11  1  0  0  0  0
  7  9  1  0  0  0  0
  8 12  1  0  0  0  0
  8  1  2  0  0  0  0
  9 13  2  0  0  0  0
  9  2  1  0  0  0  0
 10  5  1  0  0  0  0
 11  4  2  0  0  0  0
 13  8  1  0  0  0  0
 14 18  1  0  0  0  0
 15 16  2  0  0  0  0
 15 19  1  0  0  0  0
 16 17  1  0  0  0  0
 17 18  2  0  0  0  0
 18  7  1  0  0  0  0
 19 14  2  0  0  0  0
 20 24  1  0  0  0  0
 21 25  1  0  0  0  0
 22 21  2  0  0  0  0
 22 23  1  0  0  0  0
 23 20  2  0  0  0  0
 25 24  2  0  0  0  0
 26 27  1  0  0  0  0
M  END
>  <MODEL>
5

>  <REMARK>
 VINA RESULT:      -8.4      2.443      4.020
  Name = 
  3 active torsions:
  status: ('A' for Active; 'I' for Inactive)
    1  A    between atoms: C_9  and  C_15
    2  A    between atoms: C_13  and  O_22
    3  A    between atoms: C_14  and  N_17
                            x       y       z     vdW  Elec       q    Type
                         _______ _______ _______ _____ _____    ______ ____

>  <TORSDO>
F 3

$$$$
=
 OpenBabel10272401143D

 27 31  0  0  0  0  0  0  0  0999 V2000
  186.4140  177.8020  144.0220 N   0  0  0  0  0  0  0  0  0  0  0  0
  186.7610  178.2360  141.7170 C   0  0  0  0  0  0  0  0  0  0  0  0
  190.0090  177.4660  143.3080 C   0  0  0  0  0  3  0  0  0  0  0  0
  186.4690  178.6620  140.3960 N   0  0  0  0  0  0  0  0  0  0  0  0
  189.6070  177.0480  145.6700 C   0  0  0  0  0  0  0  0  0  0  0  0
  185.8820  178.1490  142.8110 C   0  0  0  0  0  0  0  0  0  0  0  0
  188.7490  178.1600  140.6010 N   0  0  0  0  0  0  0  0  0  0  0  0
  187.7460  177.5590  144.1970 C   0  0  0  0  0  0  0  0  0  0  0  0
  188.0890  177.9550  141.8490 C   0  0  0  0  0  0  0  0  0  0  0  0
  190.4910  177.1640  144.5840 C   0  0  0  0  0  3  0  0  0  0  0  0
  187.7360  178.6470  139.6590 C   0  0  0  0  0  3  0  0  0  0  0  0
  188.2370  177.2520  145.4690 C   0  0  0  0  0  3  0  0  0  0  0  0
  188.6380  177.6480  143.1000 C   0  0  0  0  0  0  0  0  0  0  0  0
  191.1830  177.8820  140.7120 C   0  0  0  0  0  3  0  0  0  0  0  0
  192.3300  176.3700  139.2100 C   0  0  0  0  0  3  0  0  0  0  0  0
  191.1090  176.0210  138.6280 C   0  0  0  0  0  3  0  0  0  0  0  0
  189.9240  176.6010  139.0900 C   0  0  0  0  0  3  0  0  0  0  0  0
  189.9520  177.5240  140.1460 C   0  0  0  0  0  0  0  0  0  0  0  0
  192.3680  177.3020  140.2510 C   0  0  0  0  0  3  0  0  0  0  0  0
  181.6730  178.9440  142.4650 C   0  0  0  0  0  3  0  0  0  0  0  0
  184.4260  178.4250  142.7100 C   0  0  0  0  0  0  0  0  0  0  0  0
  183.6740  178.8380  143.8210 C   0  0  0  0  0  3  0  0  0  0  0  0
  182.3050  179.0950  143.7010 C   0  0  0  0  0  3  0  0  0  0  0  0
  182.4090  178.5360  141.3500 C   0  0  0  0  0  3  0  0  0  0  0  0
  183.7770  178.2790  141.4740 C   0  0  0  0  0  3  0  0  0  0  0  0
  191.4360  176.7840  147.3140 C   0  0  0  0  0  1  0  0  0  0  0  0
  190.0620  176.7400  146.9560 O   0  0  0  0  0  0  0  0  0  0  0  0
  1  8  1  0  0  0  0
  2  9  2  0  0  0  0
  2  6  1  0  0  0  0
  3 10  1  0  0  0  0
  4  2  1  0  0  0  0
  5 27  1  0  0  0  0
  6  1  2  0  0  0  0
  7  9  1  0  0  0  0
  8 12  2  0  0  0  0
  9 13  1  0  0  0  0
 10  5  2  0  0  0  0
 11  4  2  0  0  0  0
 11  7  1  0  0  0  0
 12  5  1  0  0  0  0
 13  3  2  0  0  0  0
 13  8  1  0  0  0  0
 15 19  2  0  0  0  0
 16 17  2  0  0  0  0
 16 15  1  0  0  0  0
 17 18  1  0  0  0  0
 18  7  1  0  0  0  0
 18 14  2  0  0  0  0
 19 14  1  0  0  0  0
 20 23  1  0  0  0  0
 21  6  1  0  0  0  0
 21 22  1  0  0  0  0
 23 22  2  0  0  0  0
 24 25  1  0  0  0  0
 24 20  2  0  0  0  0
 25 21  2  0  0  0  0
 27 26  1  0  0  0  0
M  END
>  <MODEL>
6

>  <REMARK>
 VINA RESULT:      -8.4      1.030      1.601
  Name = 
  3 active torsions:
  status: ('A' for Active; 'I' for Inactive)
    1  A    between atoms: C_9  and  C_15
    2  A    between atoms: C_13  and  O_22
    3  A    between atoms: C_14  and  N_17
                            x       y       z     vdW  Elec       q    Type
                         _______ _______ _______ _____ _____    ______ ____

>  <TORSDO>
F 3

$$$$
=
 OpenBabel10272401143D

 27 31  0  0  0  0  0  0  0  0999 V2000
  185.7540  178.7990  139.6280 N   0  0  0  0  0  0  0  0  0  0  0  0
  184.3020  178.7550  141.5020 C   0  0  0  0  0  0  0  0  0  0  0  0
  187.6880  177.7230  142.5690 C   0  0  0  0  0  3  0  0  0  0  0  0
  183.0830  178.7810  142.2280 N   0  0  0  0  0  0  0  0  0  0  0  0
  189.1360  177.7640  140.6150 C   0  0  0  0  0  0  0  0  0  0  0  0
  184.4920  178.9730  140.1270 C   0  0  0  0  0  0  0  0  0  0  0  0
  184.8610  178.2150  143.6460 N   0  0  0  0  0  0  0  0  0  0  0  0
  186.8050  178.4120  140.4090 C   0  0  0  0  0  0  0  0  0  0  0  0
  185.3400  178.4120  142.3170 C   0  0  0  0  0  0  0  0  0  0  0  0
  188.9400  177.5160  141.9840 C   0  0  0  0  0  3  0  0  0  0  0  0
  183.4080  178.4130  143.6090 C   0  0  0  0  0  3  0  0  0  0  0  0
  188.0620  178.2070  139.8330 C   0  0  0  0  0  3  0  0  0  0  0  0
  186.6200  178.1870  141.7960 C   0  0  0  0  0  0  0  0  0  0  0  0
  186.6350  177.4570  145.1600 C   0  0  0  0  0  3  0  0  0  0  0  0
  187.0170  178.5640  147.2790 C   0  0  0  0  0  3  0  0  0  0  0  0
  185.9810  179.4580  146.9990 C   0  0  0  0  0  3  0  0  0  0  0  0
  185.2730  179.3530  145.7980 C   0  0  0  0  0  3  0  0  0  0  0  0
  185.6060  178.3620  144.8640 C   0  0  0  0  0  0  0  0  0  0  0  0
  187.3430  177.5620  146.3610 C   0  0  0  0  0  3  0  0  0  0  0  0
  181.3280  180.0690  137.4320 C   0  0  0  0  0  3  0  0  0  0  0  0
  183.3960  179.3680  139.2040 C   0  0  0  0  0  0  0  0  0  0  0  0
  182.8730  180.6710  139.1940 C   0  0  0  0  0  3  0  0  0  0  0  0
  181.8440  181.0200  138.3150 C   0  0  0  0  0  3  0  0  0  0  0  0
  181.8400  178.7700  137.4290 C   0  0  0  0  0  3  0  0  0  0  0  0
  182.8680  178.4230  138.3100 C   0  0  0  0  0  3  0  0  0  0  0  0
  191.5590  177.2910  140.7440 C   0  0  0  0  0  1  0  0  0  0  0  0
  190.3790  177.5730  140.0060 O   0  0  0  0  0  0  0  0  0  0  0  0
  1  6  2  0  0  0  0
  1  8  1  0  0  0  0
  2  4  1  0  0  0  0
  2  9  2  0  0  0  0
  4 11  2  0  0  0  0
  5 10  2  0  0  0  0
  6  2  1  0  0  0  0
  7 18  1  0  0  0  0
  8 13  1  0  0  0  0
  9  7  1  0  0  0  0
 10  3  1  0  0  0  0
 11  7  1  0  0  0  0
 12  8  2  0  0  0  0
 12  5  1  0  0  0  0
 13  9  1  0  0  0  0
 13  3  2  0  0  0  0
 14 19  1  0  0  0  0
 16 15  1  0  0  0  0
 17 16  2  0  0  0  0
 18 14  2  0  0  0  0
 18 17  1  0  0  0  0
 19 15  2  0  0  0  0
 20 23  1  0  0  0  0
 21  6  1  0  0  0  0
 22 21  1  0  0  0  0
 23 22  2  0  0  0  0
 24 20  2  0  0  0  0
 24 25  1  0  0  0  0
 25 21  2  0  0  0  0
 27  5  1  0  0  0  0
 27 26  1  0  0  0  0
M  END
>  <MODEL>
7

>  <REMARK>
 VINA RESULT:      -8.4      3.083      6.343
  Name = 
  3 active torsions:
  status: ('A' for Active; 'I' for Inactive)
    1  A    between atoms: C_9  and  C_15
    2  A    between atoms: C_13  and  O_22
    3  A    between atoms: C_14  and  N_17
                            x       y       z     vdW  Elec       q    Type
                         _______ _______ _______ _____ _____    ______ ____

>  <TORSDO>
F 3

$$$$
=
 OpenBabel10272401143D

 27 31  0  0  0  0  0  0  0  0999 V2000
  185.9340  178.3060  144.4370 N   0  0  0  0  0  0  0  0  0  0  0  0
  187.8890  177.7170  143.2320 C   0  0  0  0  0  0  0  0  0  0  0  0
  185.1080  178.2370  140.8510 C   0  0  0  0  0  3  0  0  0  0  0  0
  189.2110  177.2540  143.0060 N   0  0  0  0  0  0  0  0  0  0  0  0
  183.1230  178.8180  142.1320 C   0  0  0  0  0  0  0  0  0  0  0  0
  187.2550  177.9500  144.4640 C   0  0  0  0  0  0  0  0  0  0  0  0
  188.0890  177.5320  140.9670 N   0  0  0  0  0  0  0  0  0  0  0  0
  185.2280  178.4210  143.2750 C   0  0  0  0  0  0  0  0  0  0  0  0
  187.2240  177.8680  142.0510 C   0  0  0  0  0  0  0  0  0  0  0  0
  183.7480  178.5550  140.9010 C   0  0  0  0  0  3  0  0  0  0  0  0
  189.3610  177.1010  141.5560 C   0  0  0  0  0  3  0  0  0  0  0  0
  183.8690  178.7430  143.3140 C   0  0  0  0  0  3  0  0  0  0  0  0
  185.8600  178.1840  142.0290 C   0  0  0  0  0  0  0  0  0  0  0  0
  186.9260  177.6580  138.8120 C   0  0  0  0  0  3  0  0  0  0  0  0
  187.8850  178.8710  136.9510 C   0  0  0  0  0  3  0  0  0  0  0  0
  188.9820  179.2200  137.7430 C   0  0  0  0  0  3  0  0  0  0  0  0
  189.0490  178.7880  139.0720 C   0  0  0  0  0  3  0  0  0  0  0  0
  188.0130  178.0180  139.6190 C   0  0  0  0  0  0  0  0  0  0  0  0
  186.8580  178.0880  137.4850 C   0  0  0  0  0  3  0  0  0  0  0  0
  189.2070  177.5950  148.2770 C   0  0  0  0  0  3  0  0  0  0  0  0
  187.9440  177.8190  145.7740 C   0  0  0  0  0  0  0  0  0  0  0  0
  189.2810  177.4010  145.8660 C   0  0  0  0  0  3  0  0  0  0  0  0
  189.9100  177.2880  147.1100 C   0  0  0  0  0  3  0  0  0  0  0  0
  187.8770  178.0140  148.2000 C   0  0  0  0  0  3  0  0  0  0  0  0
  187.2510  178.1250  146.9560 C   0  0  0  0  0  3  0  0  0  0  0  0
  180.9980  178.9570  143.3890 C   0  0  0  0  0  1  0  0  0  0  0  0
  181.7670  179.1460  142.2090 O   0  0  0  0  0  0  0  0  0  0  0  0
  1  6  1  0  0  0  0
  2  6  2  0  0  0  0
  3 10  2  0  0  0  0
  3 13  1  0  0  0  0
  4  2  1  0  0  0  0
  5 27  1  0  0  0  0
  5 12  2  0  0  0  0
  6 21  1  0  0  0  0
  7 11  1  0  0  0  0
  7  9  1  0  0  0  0
  8 12  1  0  0  0  0
  8  1  2  0  0  0  0
  9  2  1  0  0  0  0
 10  5  1  0  0  0  0
 11  4  2  0  0  0  0
 13  9  2  0  0  0  0
 13  8  1  0  0  0  0
 14 18  1  0  0  0  0
 15 19  1  0  0  0  0
 15 16  2  0  0  0  0
 16 17  1  0  0  0  0
 17 18  2  0  0  0  0
 18  7  1  0  0  0  0
 19 14  2  0  0  0  0
 21 22  2  0  0  0  0
 21 25  1  0  0  0  0
 22 23  1  0  0  0  0
 23 20  2  0  0  0  0
 24 20  1  0  0  0  0
 25 24  2  0  0  0  0
 27 26  1  0  0  0  0
M  END
>  <MODEL>
8

>  <REMARK>
 VINA RESULT:      -8.3      3.012      5.733
  Name = 
  3 active torsions:
  status: ('A' for Active; 'I' for Inactive)
    1  A    between atoms: C_9  and  C_15
    2  A    between atoms: C_13  and  O_22
    3  A    between atoms: C_14  and  N_17
                            x       y       z     vdW  Elec       q    Type
                         _______ _______ _______ _____ _____    ______ ____

>  <TORSDO>
F 3

$$$$
=
 OpenBabel10272401143D

 27 31  0  0  0  0  0  0  0  0999 V2000
  190.5090  177.0250  141.3070 N   0  0  0  0  0  0  0  0  0  0  0  0
  188.3260  177.7530  140.7370 C   0  0  0  0  0  0  0  0  0  0  0  0
  190.2600  177.1790  137.6380 C   0  0  0  0  0  3  0  0  0  0  0  0
  187.0240  178.2890  140.9160 N   0  0  0  0  0  0  0  0  0  0  0  0
  192.4940  176.4550  138.2710 C   0  0  0  0  0  0  0  0  0  0  0  0
  189.2760  177.4450  141.7250 C   0  0  0  0  0  0  0  0  0  0  0  0
  187.4870  178.0270  138.6330 N   0  0  0  0  0  0  0  0  0  0  0  0
  190.8390  176.9160  139.9860 C   0  0  0  0  0  0  0  0  0  0  0  0
  188.6080  177.6100  139.4100 C   0  0  0  0  0  0  0  0  0  0  0  0
  191.5540  176.7920  137.2820 C   0  0  0  0  0  3  0  0  0  0  0  0
  186.4680  178.5000  139.5770 C   0  0  0  0  0  3  0  0  0  0  0  0
  192.1300  176.5250  139.6210 C   0  0  0  0  0  3  0  0  0  0  0  0
  189.8870  177.2280  138.9850 C   0  0  0  0  0  0  0  0  0  0  0  0
  186.7700  176.2510  137.1030 C   0  0  0  0  0  3  0  0  0  0  0  0
  186.5490  176.6700  134.7290 C   0  0  0  0  0  3  0  0  0  0  0  0
  186.9330  177.9980  134.9280 C   0  0  0  0  0  3  0  0  0  0  0  0
  187.2350  178.4540  136.2150 C   0  0  0  0  0  3  0  0  0  0  0  0
  187.1400  177.5860  137.3130 C   0  0  0  0  0  0  0  0  0  0  0  0
  186.4690  175.7950  135.8160 C   0  0  0  0  0  3  0  0  0  0  0  0
  188.5480  177.7990  145.9460 C   0  0  0  0  0  3  0  0  0  0  0  0
  189.0060  177.5640  143.1810 C   0  0  0  0  0  0  0  0  0  0  0  0
  187.7630  177.2170  143.7330 C   0  0  0  0  0  3  0  0  0  0  0  0
  187.5340  177.3350  145.1070 C   0  0  0  0  0  3  0  0  0  0  0  0
  189.7910  178.1460  145.4120 C   0  0  0  0  0  3  0  0  0  0  0  0
  190.0170  178.0280  144.0380 C   0  0  0  0  0  3  0  0  0  0  0  0
  194.1450  174.7000  137.7170 C   0  0  0  0  0  1  0  0  0  0  0  0
  193.7930  176.0580  137.9420 O   0  0  0  0  0  0  0  0  0  0  0  0
  1  6  1  0  0  0  0
  2  4  1  0  0  0  0
  2  6  2  0  0  0  0
  3 13  1  0  0  0  0
  5 12  2  0  0  0  0
  6 21  1  0  0  0  0
  7  9  1  0  0  0  0
  7 11  1  0  0  0  0
  8  1  2  0  0  0  0
  9  2  1  0  0  0  0
 10  3  2  0  0  0  0
 10  5  1  0  0  0  0
 11  4  2  0  0  0  0
 12  8  1  0  0  0  0
 13  9  2  0  0  0  0
 13  8  1  0  0  0  0
 14 18  1  0  0  0  0
 15 16  2  0  0  0  0
 15 19  1  0  0  0  0
 16 17  1  0  0  0  0
 17 18  2  0  0  0  0
 18  7  1  0  0  0  0
 19 14  2  0  0  0  0
 21 22  2  0  0  0  0
 21 25  1  0  0  0  0
 22 23  1  0  0  0  0
 23 20  2  0  0  0  0
 24 20  1  0  0  0  0
 25 24  2  0  0  0  0
 26 27  1  0  0  0  0
 27  5  1  0  0  0  0
M  END
>  <MODEL>
9

>  <REMARK>
 VINA RESULT:      -8.3      2.807      5.236
  Name = 
  3 active torsions:
  status: ('A' for Active; 'I' for Inactive)
    1  A    between atoms: C_9  and  C_15
    2  A    between atoms: C_13  and  O_22
    3  A    between atoms: C_14  and  N_17
                            x       y       z     vdW  Elec       q    Type
                         _______ _______ _______ _____ _____    ______ ____

>  <TORSDO>
F 3

$$$$
