=
 OpenBabel10272402133D

 32 36  0  0  1  0  0  0  0  0999 V2000
  183.0120  177.5840  139.6330 C   0  0  0  0  0  0  0  0  0  0  0  0
  182.3090  179.6630  138.3920 C   0  0  2  0  0  3  0  0  0  0  0  0
  182.7790  176.2650  140.0340 C   0  0  0  0  0  3  0  0  0  0  0  0
  182.1450  178.2030  138.7210 C   0  0  0  0  0  0  0  0  0  0  0  0
  181.9550  179.9490  136.9450 C   0  0  0  0  0  2  0  0  0  0  0  0
  183.6380  180.3070  138.8220 C   0  0  0  0  0  2  0  0  0  0  0  0
  181.0750  177.4730  138.1620 C   0  0  0  0  0  0  0  0  0  0  0  0
  180.2450  178.0200  137.0290 C   0  0  0  0  0  2  0  0  0  0  0  0
  180.8570  176.1520  138.5680 C   0  0  0  0  0  3  0  0  0  0  0  0
  184.7060  179.3600  139.1710 N   0  0  0  0  0  0  0  0  0  0  0  0
  184.2570  178.2950  140.0850 C   0  0  1  0  0  3  0  0  0  0  0  0
  180.5030  179.5110  136.7240 C   0  0  2  0  0  3  0  0  0  0  0  0
  181.6940  175.5550  139.5130 C   0  0  0  0  0  3  0  0  0  0  0  0
  185.8410  178.1810  143.3680 C   0  0  0  0  0  0  0  0  0  0  0  0
  183.3240  179.1020  145.8100 F   0  0  0  0  0  0  0  0  0  0  0  0
  186.9930  177.4670  143.3650 F   0  0  0  0  0  0  0  0  0  0  0  0
  182.9310  179.0290  143.5640 N   0  0  0  0  0  0  0  0  0  0  0  0
  184.2860  178.7170  141.5300 C   0  0  0  0  0  0  0  0  0  0  0  0
  185.0370  178.1020  144.4240 C   0  0  0  0  0  3  0  0  0  0  0  0
  183.1130  178.7340  142.1670 C   0  0  0  0  0  3  0  0  0  0  0  0
  185.5480  179.1210  142.2450 C   0  0  2  0  0  3  0  0  0  0  0  0
  186.6380  179.2160  141.4000 F   0  0  0  0  0  0  0  0  0  0  0  0
  183.7450  178.8060  144.5570 C   0  0  0  0  0  0  0  0  0  0  0  0
  179.9820  179.9190  135.4770 O   0  0  0  0  0  0  0  0  0  0  0  0
  180.2430  181.2880  135.3030 C   0  0  0  0  0  1  0  0  0  0  0  0
  185.2400  178.7700  137.9480 C   0  0  0  0  0  2  0  0  0  0  0  0
  186.2230  176.5660  137.3910 C   0  0  0  0  0  2  0  0  0  0  0  0
  188.3940  177.4940  137.1710 C   0  0  0  0  0  2  0  0  0  0  0  0
  187.6540  178.4100  138.0240 N   0  0  0  0  0  0  0  0  0  0  0  0
  188.3550  178.4650  139.2930 C   0  0  0  0  0  1  0  0  0  0  0  0
  187.3890  176.6340  136.4470 C   0  0  0  0  0  2  0  0  0  0  0  0
  186.3550  177.7890  138.2770 C   0  0  1  0  0  3  0  0  0  0  0  0
  1  3  1  0  0  0  0
  1 11  1  0  0  0  0
  2  5  1  6  0  0  0
  2  4  1  0  0  0  0
  2  6  1  0  0  0  0
  4  1  2  0  0  0  0
  6 10  1  0  0  0  0
  7  9  2  0  0  0  0
  7  4  1  0  0  0  0
  8  7  1  0  0  0  0
  9 13  1  0  0  0  0
 10 11  1  0  0  0  0
 11 18  1  1  0  0  0
 12 24  1  6  0  0  0
 12  5  1  0  0  0  0
 12  8  1  0  0  0  0
 13  3  2  0  0  0  0
 14 19  2  0  0  0  0
 16 14  1  0  0  0  0
 17 23  2  0  0  0  0
 18 20  2  0  0  0  0
 18 21  1  0  0  0  0
 19 23  1  0  0  0  0
 20 17  1  0  0  0  0
 21 22  1  6  0  0  0
 21 14  1  0  0  0  0
 23 15  1  0  0  0  0
 25 24  1  0  0  0  0
 26 10  1  0  0  0  0
 27 32  1  0  0  0  0
 28 29  1  0  0  0  0
 29 32  1  0  0  0  0
 29 30  1  0  0  0  0
 31 28  1  0  0  0  0
 31 27  1  0  0  0  0
 32 26  1  6  0  0  0
M  END
>  <MODEL>
1

>  <REMARK>
 VINA RESULT:      -6.1      0.000      0.000
  Name = 
  4 active torsions:
  status: ('A' for Active; 'I' for Inactive)
    1  A    between atoms: O_13  and  C_29
    2  A    between atoms: C_16  and  C_27
    3  A    between atoms: N_24  and  C_28
    4  A    between atoms: C_28  and  C_32
                            x       y       z     vdW  Elec       q    Type
                         _______ _______ _______ _____ _____    ______ ____

>  <TORSDO>
F 4

$$$$
=
 OpenBabel10272402133D

 32 36  0  0  1  0  0  0  0  0999 V2000
  187.8200  174.8200  136.7390 C   0  0  0  0  0  0  0  0  0  0  0  0
  189.7900  175.9710  135.6660 C   0  0  2  0  0  3  0  0  0  0  0  0
  187.0390  173.6790  136.9490 C   0  0  0  0  0  3  0  0  0  0  0  0
  189.0170  174.7270  136.0140 C   0  0  0  0  0  0  0  0  0  0  0  0
  191.2850  175.7170  135.6800 C   0  0  0  0  0  2  0  0  0  0  0  0
  189.3930  177.2480  136.4270 C   0  0  0  0  0  2  0  0  0  0  0  0
  189.4620  173.4710  135.5510 C   0  0  0  0  0  0  0  0  0  0  0  0
  190.8330  173.2850  134.9530 C   0  0  0  0  0  2  0  0  0  0  0  0
  188.6740  172.3370  135.7720 C   0  0  0  0  0  3  0  0  0  0  0  0
  188.5720  177.0290  137.6270 N   0  0  0  0  0  0  0  0  0  0  0  0
  187.4380  176.1180  137.3930 C   0  0  1  0  0  3  0  0  0  0  0  0
  191.5790  174.6050  134.6670 C   0  0  2  0  0  3  0  0  0  0  0  0
  187.4580  172.4420  136.4530 C   0  0  0  0  0  3  0  0  0  0  0  0
  183.9680  177.1970  137.7010 C   0  0  0  0  0  0  0  0  0  0  0  0
  182.7150  177.7650  134.3460 F   0  0  0  0  0  0  0  0  0  0  0  0
  183.4370  176.8990  138.9120 F   0  0  0  0  0  0  0  0  0  0  0  0
  184.8520  177.1050  134.7970 N   0  0  0  0  0  0  0  0  0  0  0  0
  186.2380  176.8200  136.8140 C   0  0  0  0  0  0  0  0  0  0  0  0
  183.2040  177.0900  136.6180 C   0  0  0  0  0  3  0  0  0  0  0  0
  185.9880  176.5980  135.5220 C   0  0  0  0  0  3  0  0  0  0  0  0
  185.3560  177.7410  137.6150 C   0  0  2  0  0  3  0  0  0  0  0  0
  185.8530  177.9960  138.8790 F   0  0  0  0  0  0  0  0  0  0  0  0
  183.6530  177.3620  135.2370 C   0  0  0  0  0  0  0  0  0  0  0  0
  192.9580  174.4210  134.4280 O   0  0  0  0  0  0  0  0  0  0  0  0
  193.6750  175.4150  135.1150 C   0  0  0  0  0  1  0  0  0  0  0  0
  189.4180  176.5030  138.6940 C   0  0  0  0  0  2  0  0  0  0  0  0
  188.6410  178.3870  140.1010 C   0  0  0  0  0  2  0  0  0  0  0  0
  189.9120  177.6360  141.9570 C   0  0  0  0  0  2  0  0  0  0  0  0
  190.5510  177.0690  140.7810 N   0  0  0  0  0  0  0  0  0  0  0  0
  191.9110  177.5770  140.7530 C   0  0  0  0  0  1  0  0  0  0  0  0
  188.5190  178.0540  141.5610 C   0  0  0  0  0  2  0  0  0  0  0  0
  189.8610  177.6250  139.6200 C   0  0  1  0  0  3  0  0  0  0  0  0
  1  3  1  0  0  0  0
  1 11  1  0  0  0  0
  2  5  1  1  0  0  0
  2  4  1  0  0  0  0
  2  6  1  0  0  0  0
  4  1  2  0  0  0  0
  6 10  1  0  0  0  0
  7  9  2  0  0  0  0
  7  4  1  0  0  0  0
  8  7  1  0  0  0  0
  9 13  1  0  0  0  0
 10 26  1  0  0  0  0
 11 18  1  6  0  0  0
 11 10  1  0  0  0  0
 12 24  1  1  0  0  0
 12  8  1  0  0  0  0
 12  5  1  0  0  0  0
 13  3  2  0  0  0  0
 14 16  1  0  0  0  0
 15 23  1  0  0  0  0
 17 23  2  0  0  0  0
 17 20  1  0  0  0  0
 18 21  1  0  0  0  0
 19 14  2  0  0  0  0
 20 18  2  0  0  0  0
 21 14  1  0  0  0  0
 21 22  1  1  0  0  0
 23 19  1  0  0  0  0
 24 25  1  0  0  0  0
 27 31  1  0  0  0  0
 29 28  1  0  0  0  0
 30 29  1  0  0  0  0
 31 28  1  0  0  0  0
 32 26  1  6  0  0  0
 32 27  1  0  0  0  0
 32 29  1  0  0  0  0
M  END
>  <MODEL>
2

>  <REMARK>
 VINA RESULT:      -5.7      4.441      8.008
  Name = 
  4 active torsions:
  status: ('A' for Active; 'I' for Inactive)
    1  A    between atoms: O_13  and  C_29
    2  A    between atoms: C_16  and  C_27
    3  A    between atoms: N_24  and  C_28
    4  A    between atoms: C_28  and  C_32
                            x       y       z     vdW  Elec       q    Type
                         _______ _______ _______ _____ _____    ______ ____

>  <TORSDO>
F 4

$$$$
=
 OpenBabel10272402133D

 32 36  0  0  1  0  0  0  0  0999 V2000
  183.1690  177.2820  138.3500 C   0  0  0  0  0  0  0  0  0  0  0  0
  185.4060  178.4420  138.2860 C   0  0  2  0  0  3  0  0  0  0  0  0
  182.3220  176.2410  137.9550 C   0  0  0  0  0  3  0  0  0  0  0  0
  184.5230  177.2620  137.9840 C   0  0  0  0  0  0  0  0  0  0  0  0
  186.8210  178.0070  138.6150 C   0  0  0  0  0  2  0  0  0  0  0  0
  184.8470  179.4650  139.2890 C   0  0  0  0  0  2  0  0  0  0  0  0
  185.0410  176.1610  137.2700 C   0  0  0  0  0  0  0  0  0  0  0  0
  186.5200  175.9920  137.0340 C   0  0  0  0  0  2  0  0  0  0  0  0
  184.1840  175.1240  136.8850 C   0  0  0  0  0  3  0  0  0  0  0  0
  183.7020  178.9970  140.0840 N   0  0  0  0  0  0  0  0  0  0  0  0
  182.6560  178.3550  139.2680 C   0  0  1  0  0  3  0  0  0  0  0  0
  187.3620  177.2290  137.4100 C   0  0  2  0  0  3  0  0  0  0  0  0
  182.8260  175.1720  137.2100 C   0  0  0  0  0  3  0  0  0  0  0  0
  180.2520  179.2200  136.6660 C   0  0  0  0  0  0  0  0  0  0  0  0
  180.0900  182.8400  136.5100 F   0  0  0  0  0  0  0  0  0  0  0  0
  180.0030  178.1870  135.8240 F   0  0  0  0  0  0  0  0  0  0  0  0
  181.4070  181.7000  137.9850 N   0  0  0  0  0  0  0  0  0  0  0  0
  181.7050  179.3480  138.6550 C   0  0  0  0  0  0  0  0  0  0  0  0
  180.3140  180.4540  136.1730 C   0  0  0  0  0  3  0  0  0  0  0  0
  182.1240  180.6140  138.6000 C   0  0  0  0  0  3  0  0  0  0  0  0
  180.3430  178.9730  138.1360 C   0  0  2  0  0  3  0  0  0  0  0  0
  179.9980  177.6660  138.4260 F   0  0  0  0  0  0  0  0  0  0  0  0
  180.5950  181.6680  136.9660 C   0  0  0  0  0  0  0  0  0  0  0  0
  188.7430  176.9510  137.5020 O   0  0  0  0  0  0  0  0  0  0  0  0
  189.4620  178.0950  137.1160 C   0  0  0  0  0  1  0  0  0  0  0  0
  184.1760  178.0660  141.1030 C   0  0  0  0  0  2  0  0  0  0  0  0
  184.3280  179.3790  143.1970 C   0  0  0  0  0  2  0  0  0  0  0  0
  186.0190  177.9610  144.0640 C   0  0  0  0  0  2  0  0  0  0  0  0
  186.0720  177.8060  142.6200 N   0  0  0  0  0  0  0  0  0  0  0  0
  187.3990  178.2190  142.1990 C   0  0  0  0  0  1  0  0  0  0  0  0
  184.6810  178.5650  144.4090 C   0  0  0  0  0  2  0  0  0  0  0  0
  185.1250  178.7700  142.0610 C   0  0  1  0  0  3  0  0  0  0  0  0
  1 11  1  0  0  0  0
  2  5  1  1  0  0  0
  2  6  1  0  0  0  0
  3  1  2  0  0  0  0
  4  2  1  0  0  0  0
  4  1  1  0  0  0  0
  6 10  1  0  0  0  0
  7  4  2  0  0  0  0
  8  7  1  0  0  0  0
  8 12  1  0  0  0  0
  9 13  2  0  0  0  0
  9  7  1  0  0  0  0
 10 26  1  0  0  0  0
 11 18  1  6  0  0  0
 11 10  1  0  0  0  0
 12 24  1  1  0  0  0
 12  5  1  0  0  0  0
 13  3  1  0  0  0  0
 14 21  1  0  0  0  0
 15 23  1  0  0  0  0
 16 14  1  0  0  0  0
 17 20  1  0  0  0  0
 19 14  2  0  0  0  0
 19 23  1  0  0  0  0
 20 18  2  0  0  0  0
 21 22  1  6  0  0  0
 21 18  1  0  0  0  0
 23 17  2  0  0  0  0
 25 24  1  0  0  0  0
 27 31  1  0  0  0  0
 28 31  1  0  0  0  0
 29 28  1  0  0  0  0
 30 29  1  0  0  0  0
 32 26  1  6  0  0  0
 32 29  1  0  0  0  0
 32 27  1  0  0  0  0
M  END
>  <MODEL>
3

>  <REMARK>
 VINA RESULT:      -5.6      3.436      6.275
  Name = 
  4 active torsions:
  status: ('A' for Active; 'I' for Inactive)
    1  A    between atoms: O_13  and  C_29
    2  A    between atoms: C_16  and  C_27
    3  A    between atoms: N_24  and  C_28
    4  A    between atoms: C_28  and  C_32
                            x       y       z     vdW  Elec       q    Type
                         _______ _______ _______ _____ _____    ______ ____

>  <TORSDO>
F 4

$$$$
=
 OpenBabel10272402133D

 32 36  0  0  1  0  0  0  0  0999 V2000
  190.9540  175.8190  137.5320 C   0  0  0  0  0  0  0  0  0  0  0  0
  189.7600  176.3050  135.3660 C   0  0  2  0  0  3  0  0  0  0  0  0
  191.2870  176.1630  138.8460 C   0  0  0  0  0  3  0  0  0  0  0  0
  190.0200  176.5860  136.8210 C   0  0  0  0  0  0  0  0  0  0  0  0
  188.3090  176.5530  135.0020 C   0  0  0  0  0  2  0  0  0  0  0  0
  190.2900  174.9630  134.8320 C   0  0  0  0  0  2  0  0  0  0  0  0
  189.3720  177.6680  137.4540 C   0  0  0  0  0  0  0  0  0  0  0  0
  188.2180  178.3910  136.8080 C   0  0  0  0  0  2  0  0  0  0  0  0
  189.7120  177.9990  138.7700 C   0  0  0  0  0  3  0  0  0  0  0  0
  190.6610  173.9840  135.8640 N   0  0  0  0  0  0  0  0  0  0  0  0
  191.5040  174.5570  136.9280 C   0  0  1  0  0  3  0  0  0  0  0  0
  187.9890  178.0150  135.3300 C   0  0  2  0  0  3  0  0  0  0  0  0
  190.6780  177.2620  139.4580 C   0  0  0  0  0  3  0  0  0  0  0  0
  194.9120  173.3820  137.4800 C   0  0  0  0  0  0  0  0  0  0  0  0
  197.1490  175.8740  136.0880 F   0  0  0  0  0  0  0  0  0  0  0  0
  194.9820  172.4200  138.4320 F   0  0  0  0  0  0  0  0  0  0  0  0
  194.8740  176.0400  136.0110 N   0  0  0  0  0  0  0  0  0  0  0  0
  192.9640  174.5840  136.5620 C   0  0  0  0  0  0  0  0  0  0  0  0
  195.8820  174.2880  137.4060 C   0  0  0  0  0  3  0  0  0  0  0  0
  193.4870  175.7850  136.3010 C   0  0  0  0  0  3  0  0  0  0  0  0
  193.8140  173.3450  136.4680 C   0  0  2  0  0  3  0  0  0  0  0  0
  193.0810  172.1800  136.5960 F   0  0  0  0  0  0  0  0  0  0  0  0
  195.9270  175.4010  136.4360 C   0  0  0  0  0  0  0  0  0  0  0  0
  186.7320  178.4330  134.8410 O   0  0  0  0  0  0  0  0  0  0  0  0
  186.0090  177.3020  134.4250 C   0  0  0  0  0  1  0  0  0  0  0  0
  189.4460  173.4200  136.4450 C   0  0  0  0  0  2  0  0  0  0  0  0
  189.1020  171.4660  134.9630 C   0  0  0  0  0  2  0  0  0  0  0  0
  186.8210  171.2880  135.5850 C   0  0  0  0  0  2  0  0  0  0  0  0
  187.2010  172.6660  135.8540 N   0  0  0  0  0  0  0  0  0  0  0  0
  186.3450  173.5070  135.0370 C   0  0  0  0  0  1  0  0  0  0  0  0
  188.0890  170.4800  135.4710 C   0  0  0  0  0  2  0  0  0  0  0  0
  188.5650  172.8280  135.3560 C   0  0  1  0  0  3  0  0  0  0  0  0
  1  3  1  0  0  0  0
  2  6  1  1  0  0  0
  2  4  1  0  0  0  0
  3 13  2  0  0  0  0
  4  7  1  0  0  0  0
  4  1  2  0  0  0  0
  5 12  1  0  0  0  0
  5  2  1  0  0  0  0
  6 10  1  0  0  0  0
  7  9  2  0  0  0  0
  8  7  1  0  0  0  0
  9 13  1  0  0  0  0
 10 26  1  0  0  0  0
 10 11  1  0  0  0  0
 11 18  1  6  0  0  0
 11  1  1  0  0  0  0
 12 24  1  1  0  0  0
 12  8  1  0  0  0  0
 14 16  1  0  0  0  0
 15 23  1  0  0  0  0
 17 20  1  0  0  0  0
 17 23  2  0  0  0  0
 19 14  2  0  0  0  0
 20 18  2  0  0  0  0
 21 18  1  0  0  0  0
 21 22  1  1  0  0  0
 21 14  1  0  0  0  0
 23 19  1  0  0  0  0
 25 24  1  0  0  0  0
 27 32  1  0  0  0  0
 27 31  1  0  0  0  0
 28 29  1  0  0  0  0
 30 29  1  0  0  0  0
 31 28  1  0  0  0  0
 32 29  1  0  0  0  0
 32 26  1  1  0  0  0
M  END
>  <MODEL>
4

>  <REMARK>
 VINA RESULT:      -5.4      6.893      9.712
  Name = 
  4 active torsions:
  status: ('A' for Active; 'I' for Inactive)
    1  A    between atoms: O_13  and  C_29
    2  A    between atoms: C_16  and  C_27
    3  A    between atoms: N_24  and  C_28
    4  A    between atoms: C_28  and  C_32
                            x       y       z     vdW  Elec       q    Type
                         _______ _______ _______ _____ _____    ______ ____

>  <TORSDO>
F 4

$$$$
=
 OpenBabel10272402133D

 32 36  0  0  1  0  0  0  0  0999 V2000
  183.0530  176.8980  138.0930 C   0  0  0  0  0  0  0  0  0  0  0  0
  181.0230  175.5160  138.6580 C   0  0  2  0  0  3  0  0  0  0  0  0
  184.3560  177.0070  137.5970 C   0  0  0  0  0  3  0  0  0  0  0  0
  182.3680  175.6780  138.0050 C   0  0  0  0  0  0  0  0  0  0  0  0
  180.1190  174.6030  137.8510 C   0  0  0  0  0  2  0  0  0  0  0  0
  180.3240  176.8140  139.0970 C   0  0  0  0  0  2  0  0  0  0  0  0
  182.9730  174.5780  137.3590 C   0  0  0  0  0  0  0  0  0  0  0  0
  182.2070  173.3160  137.0550 C   0  0  0  0  0  2  0  0  0  0  0  0
  184.2750  174.7020  136.8630 C   0  0  0  0  0  3  0  0  0  0  0  0
  180.8770  178.0470  138.5170 N   0  0  0  0  0  0  0  0  0  0  0  0
  182.3460  178.1200  138.6090 C   0  0  1  0  0  3  0  0  0  0  0  0
  180.8190  173.2460  137.7250 C   0  0  2  0  0  3  0  0  0  0  0  0
  184.9720  175.9050  136.9970 C   0  0  0  0  0  3  0  0  0  0  0  0
  185.0740  178.8400  140.9190 C   0  0  0  0  0  0  0  0  0  0  0  0
  183.6470  179.0210  144.2480 F   0  0  0  0  0  0  0  0  0  0  0  0
  186.2910  178.5770  140.3840 F   0  0  0  0  0  0  0  0  0  0  0  0
  182.4130  178.6300  142.3680 N   0  0  0  0  0  0  0  0  0  0  0  0
  182.8200  178.6440  139.9380 C   0  0  0  0  0  0  0  0  0  0  0  0
  184.8630  178.5720  142.2040 C   0  0  0  0  0  3  0  0  0  0  0  0
  182.0920  178.3020  141.0040 C   0  0  0  0  0  3  0  0  0  0  0  0
  184.0330  179.5220  140.0930 C   0  0  2  0  0  3  0  0  0  0  0  0
  184.5650  179.9220  138.8820 F   0  0  0  0  0  0  0  0  0  0  0  0
  183.5860  178.7890  142.9140 C   0  0  0  0  0  0  0  0  0  0  0  0
  179.9910  172.2410  137.1790 O   0  0  0  0  0  0  0  0  0  0  0  0
  180.6400  171.6700  136.0720 C   0  0  0  0  0  1  0  0  0  0  0  0
  180.4630  178.1440  137.1200 C   0  0  0  0  0  2  0  0  0  0  0  0
  181.2100  179.1190  134.9700 C   0  0  0  0  0  2  0  0  0  0  0  0
  180.0440  181.1420  135.3840 C   0  0  0  0  0  2  0  0  0  0  0  0
  180.2720  180.5390  136.6870 N   0  0  0  0  0  0  0  0  0  0  0  0
  181.0670  181.4810  137.4550 C   0  0  0  0  0  1  0  0  0  0  0  0
  180.2210  180.0630  134.3460 C   0  0  0  0  0  2  0  0  0  0  0  0
  181.1020  179.3580  136.4630 C   0  0  1  0  0  3  0  0  0  0  0  0
  1 11  1  0  0  0  0
  2  5  1  6  0  0  0
  2  6  1  0  0  0  0
  3  1  2  0  0  0  0
  4  1  1  0  0  0  0
  4  2  1  0  0  0  0
  7  4  2  0  0  0  0
  8  7  1  0  0  0  0
  8 12  1  0  0  0  0
  9 13  2  0  0  0  0
  9  7  1  0  0  0  0
 10 11  1  0  0  0  0
 10  6  1  0  0  0  0
 11 18  1  1  0  0  0
 12 24  1  6  0  0  0
 12  5  1  0  0  0  0
 13  3  1  0  0  0  0
 14 19  2  0  0  0  0
 16 14  1  0  0  0  0
 17 23  2  0  0  0  0
 18 21  1  0  0  0  0
 18 20  2  0  0  0  0
 19 23  1  0  0  0  0
 20 17  1  0  0  0  0
 21 22  1  6  0  0  0
 21 14  1  0  0  0  0
 23 15  1  0  0  0  0
 25 24  1  0  0  0  0
 26 10  1  0  0  0  0
 27 32  1  0  0  0  0
 28 29  1  0  0  0  0
 29 30  1  0  0  0  0
 31 27  1  0  0  0  0
 31 28  1  0  0  0  0
 32 29  1  0  0  0  0
 32 26  1  1  0  0  0
M  END
>  <MODEL>
5

>  <REMARK>
 VINA RESULT:      -5.4      2.617      5.046
  Name = 
  4 active torsions:
  status: ('A' for Active; 'I' for Inactive)
    1  A    between atoms: O_13  and  C_29
    2  A    between atoms: C_16  and  C_27
    3  A    between atoms: N_24  and  C_28
    4  A    between atoms: C_28  and  C_32
                            x       y       z     vdW  Elec       q    Type
                         _______ _______ _______ _____ _____    ______ ____

>  <TORSDO>
F 4

$$$$
=
 OpenBabel10272402133D

 32 36  0  0  1  0  0  0  0  0999 V2000
  181.8060  178.1510  137.1100 C   0  0  0  0  0  0  0  0  0  0  0  0
  181.9150  177.6240  139.5720 C   0  0  2  0  0  3  0  0  0  0  0  0
  181.2870  178.8900  136.0420 C   0  0  0  0  0  3  0  0  0  0  0  0
  181.4740  178.4960  138.4280 C   0  0  0  0  0  0  0  0  0  0  0  0
  182.2350  178.4460  140.8060 C   0  0  0  0  0  2  0  0  0  0  0  0
  183.0010  176.5830  139.2490 C   0  0  0  0  0  2  0  0  0  0  0  0
  180.6670  179.6270  138.6760 C   0  0  0  0  0  0  0  0  0  0  0  0
  180.4540  180.1590  140.0700 C   0  0  0  0  0  2  0  0  0  0  0  0
  180.1590  180.3600  137.5990 C   0  0  0  0  0  3  0  0  0  0  0  0
  183.7150  176.8000  137.9830 N   0  0  0  0  0  0  0  0  0  0  0  0
  182.8130  177.0670  136.8490 C   0  0  1  0  0  3  0  0  0  0  0  0
  180.9730  179.2290  141.1850 C   0  0  2  0  0  3  0  0  0  0  0  0
  180.4520  179.9840  136.2860 C   0  0  0  0  0  3  0  0  0  0  0  0
  181.0710  173.8800  137.1800 C   0  0  0  0  0  0  0  0  0  0  0  0
  182.0290  171.8300  134.3460 F   0  0  0  0  0  0  0  0  0  0  0  0
  180.6110  173.6670  138.4370 F   0  0  0  0  0  0  0  0  0  0  0  0
  182.7770  173.9620  134.6680 N   0  0  0  0  0  0  0  0  0  0  0  0
  182.2770  175.8060  136.2230 C   0  0  0  0  0  0  0  0  0  0  0  0
  181.5550  172.8520  136.4870 C   0  0  0  0  0  3  0  0  0  0  0  0
  183.0630  175.2110  135.3230 C   0  0  0  0  0  3  0  0  0  0  0  0
  180.9270  175.2290  136.5570 C   0  0  2  0  0  3  0  0  0  0  0  0
  180.1750  176.0570  137.3700 F   0  0  0  0  0  0  0  0  0  0  0  0
  182.1050  172.9400  135.1190 C   0  0  0  0  0  0  0  0  0  0  0  0
  181.0720  179.8690  142.4400 O   0  0  0  0  0  0  0  0  0  0  0  0
  181.9110  179.1100  143.2720 C   0  0  0  0  0  1  0  0  0  0  0  0
  184.6480  177.9110  138.1450 C   0  0  0  0  0  2  0  0  0  0  0  0
  186.1690  177.0870  136.3740 C   0  0  0  0  0  2  0  0  0  0  0  0
  187.8150  178.7060  136.9160 C   0  0  0  0  0  2  0  0  0  0  0  0
  187.0050  178.5450  138.1120 N   0  0  0  0  0  0  0  0  0  0  0  0
  187.8940  178.0890  139.1660 C   0  0  0  0  0  1  0  0  0  0  0  0
  187.0270  178.1540  135.7550 C   0  0  0  0  0  2  0  0  0  0  0  0
  186.0670  177.4580  137.8400 C   0  0  1  0  0  3  0  0  0  0  0  0
  1  4  1  0  0  0  0
  2  6  1  6  0  0  0
  2  5  1  0  0  0  0
  3 13  1  0  0  0  0
  3  1  2  0  0  0  0
  4  7  2  0  0  0  0
  4  2  1  0  0  0  0
  5 12  1  0  0  0  0
  7  8  1  0  0  0  0
  8 12  1  0  0  0  0
  9  7  1  0  0  0  0
 10 26  1  0  0  0  0
 10  6  1  0  0  0  0
 11 18  1  1  0  0  0
 11  1  1  0  0  0  0
 11 10  1  0  0  0  0
 12 24  1  1  0  0  0
 13  9  2  0  0  0  0
 14 16  1  0  0  0  0
 15 23  1  0  0  0  0
 17 23  2  0  0  0  0
 17 20  1  0  0  0  0
 18 21  1  0  0  0  0
 19 14  2  0  0  0  0
 20 18  2  0  0  0  0
 21 14  1  0  0  0  0
 21 22  1  1  0  0  0
 23 19  1  0  0  0  0
 24 25  1  0  0  0  0
 27 32  1  0  0  0  0
 28 29  1  0  0  0  0
 29 30  1  0  0  0  0
 31 27  1  0  0  0  0
 31 28  1  0  0  0  0
 32 29  1  0  0  0  0
 32 26  1  6  0  0  0
M  END
>  <MODEL>
6

>  <REMARK>
 VINA RESULT:      -5.2      3.947      6.196
  Name = 
  4 active torsions:
  status: ('A' for Active; 'I' for Inactive)
    1  A    between atoms: O_13  and  C_29
    2  A    between atoms: C_16  and  C_27
    3  A    between atoms: N_24  and  C_28
    4  A    between atoms: C_28  and  C_32
                            x       y       z     vdW  Elec       q    Type
                         _______ _______ _______ _____ _____    ______ ____

>  <TORSDO>
F 4

$$$$
=
 OpenBabel10272402133D

 32 36  0  0  1  0  0  0  0  0999 V2000
  185.6400  177.9470  138.8170 C   0  0  0  0  0  0  0  0  0  0  0  0
  183.4190  176.7640  138.9650 C   0  0  2  0  0  3  0  0  0  0  0  0
  186.9240  178.0710  138.2750 C   0  0  0  0  0  3  0  0  0  0  0  0
  184.7490  176.9980  138.2990 C   0  0  0  0  0  0  0  0  0  0  0  0
  182.3410  176.4310  137.9520 C   0  0  0  0  0  2  0  0  0  0  0  0
  182.9760  177.8310  139.9810 C   0  0  0  0  0  2  0  0  0  0  0  0
  185.1270  176.2110  137.1900 C   0  0  0  0  0  0  0  0  0  0  0  0
  184.1400  175.3290  136.4680 C   0  0  0  0  0  2  0  0  0  0  0  0
  186.4120  176.3480  136.6540 C   0  0  0  0  0  3  0  0  0  0  0  0
  183.7170  179.1000  139.9160 N   0  0  0  0  0  0  0  0  0  0  0  0
  185.1780  178.9140  139.8710 C   0  0  1  0  0  3  0  0  0  0  0  0
  182.7860  175.1760  137.1920 C   0  0  2  0  0  3  0  0  0  0  0  0
  187.3140  177.2620  137.2050 C   0  0  0  0  0  3  0  0  0  0  0  0
  187.7770  177.5050  142.0060 C   0  0  0  0  0  0  0  0  0  0  0  0
  186.4700  177.4330  145.3880 F   0  0  0  0  0  0  0  0  0  0  0  0
  188.7210  176.8330  141.3020 F   0  0  0  0  0  0  0  0  0  0  0  0
  185.3040  178.2490  143.6050 N   0  0  0  0  0  0  0  0  0  0  0  0
  185.7840  178.7380  141.2380 C   0  0  0  0  0  0  0  0  0  0  0  0
  187.3960  177.0300  143.1890 C   0  0  0  0  0  3  0  0  0  0  0  0
  184.9310  178.5210  142.2410 C   0  0  0  0  0  3  0  0  0  0  0  0
  187.2650  178.8130  141.4990 C   0  0  2  0  0  3  0  0  0  0  0  0
  187.9860  179.2150  140.3910 F   0  0  0  0  0  0  0  0  0  0  0  0
  186.3680  177.6450  144.0540 C   0  0  0  0  0  0  0  0  0  0  0  0
  181.7750  174.6370  136.3680 O   0  0  0  0  0  0  0  0  0  0  0  0
  180.7940  174.0450  137.1810 C   0  0  0  0  0  1  0  0  0  0  0  0
  183.2770  179.8490  138.7430 C   0  0  0  0  0  2  0  0  0  0  0  0
  181.8420  181.8640  138.6270 C   0  0  0  0  0  2  0  0  0  0  0  0
  180.1950  180.7220  137.3590 C   0  0  0  0  0  2  0  0  0  0  0  0
  180.9360  179.6920  138.0700 N   0  0  0  0  0  0  0  0  0  0  0  0
  179.9840  178.9940  138.9150 C   0  0  0  0  0  1  0  0  0  0  0  0
  181.0370  181.9730  137.3630 C   0  0  0  0  0  2  0  0  0  0  0  0
  181.8700  180.3850  138.9560 C   0  0  1  0  0  3  0  0  0  0  0  0
  1 11  1  0  0  0  0
  2  5  1  6  0  0  0
  2  6  1  0  0  0  0
  3  1  2  0  0  0  0
  4  1  1  0  0  0  0
  4  2  1  0  0  0  0
  7  4  2  0  0  0  0
  8  7  1  0  0  0  0
  8 12  1  0  0  0  0
  9  7  1  0  0  0  0
  9 13  2  0  0  0  0
 10  6  1  0  0  0  0
 11 10  1  0  0  0  0
 11 18  1  1  0  0  0
 12 24  1  6  0  0  0
 12  5  1  0  0  0  0
 13  3  1  0  0  0  0
 14 19  2  0  0  0  0
 16 14  1  0  0  0  0
 17 23  2  0  0  0  0
 18 21  1  0  0  0  0
 18 20  2  0  0  0  0
 19 23  1  0  0  0  0
 20 17  1  0  0  0  0
 21 22  1  6  0  0  0
 21 14  1  0  0  0  0
 23 15  1  0  0  0  0
 24 25  1  0  0  0  0
 26 10  1  0  0  0  0
 27 32  1  0  0  0  0
 28 31  1  0  0  0  0
 28 29  1  0  0  0  0
 29 30  1  0  0  0  0
 29 32  1  0  0  0  0
 31 27  1  0  0  0  0
 32 26  1  6  0  0  0
M  END
>  <MODEL>
7

>  <REMARK>
 VINA RESULT:      -5.1      2.066      4.712
  Name = 
  4 active torsions:
  status: ('A' for Active; 'I' for Inactive)
    1  A    between atoms: O_13  and  C_29
    2  A    between atoms: C_16  and  C_27
    3  A    between atoms: N_24  and  C_28
    4  A    between atoms: C_28  and  C_32
                            x       y       z     vdW  Elec       q    Type
                         _______ _______ _______ _____ _____    ______ ____

>  <TORSDO>
F 4

$$$$
=
 OpenBabel10272402133D

 32 36  0  0  1  0  0  0  0  0999 V2000
  185.2250  178.4130  139.0860 C   0  0  0  0  0  0  0  0  0  0  0  0
  183.2120  177.1070  138.3130 C   0  0  2  0  0  3  0  0  0  0  0  0
  186.5750  178.7580  138.9680 C   0  0  0  0  0  3  0  0  0  0  0  0
  184.6240  177.5930  138.1210 C   0  0  0  0  0  0  0  0  0  0  0  0
  182.4750  177.0030  136.9920 C   0  0  0  0  0  2  0  0  0  0  0  0
  182.3930  177.8230  139.4010 C   0  0  0  0  0  2  0  0  0  0  0  0
  185.3670  177.1670  136.9990 C   0  0  0  0  0  0  0  0  0  0  0  0
  184.7160  176.4630  135.8360 C   0  0  0  0  0  2  0  0  0  0  0  0
  186.7150  177.5230  136.8910 C   0  0  0  0  0  3  0  0  0  0  0  0
  182.9540  179.1010  139.8630 N   0  0  0  0  0  0  0  0  0  0  0  0
  184.3910  179.0220  140.1780 C   0  0  1  0  0  3  0  0  0  0  0  0
  183.2570  176.0360  136.0960 C   0  0  2  0  0  3  0  0  0  0  0  0
  187.3230  178.3000  137.8800 C   0  0  0  0  0  3  0  0  0  0  0  0
  183.9020  179.3020  143.7810 C   0  0  0  0  0  0  0  0  0  0  0  0
  186.6390  177.5410  145.3800 F   0  0  0  0  0  0  0  0  0  0  0  0
  183.0480  180.3010  144.1140 F   0  0  0  0  0  0  0  0  0  0  0  0
  186.3830  177.6820  143.1160 N   0  0  0  0  0  0  0  0  0  0  0  0
  184.6540  178.5110  141.5700 C   0  0  0  0  0  0  0  0  0  0  0  0
  184.9610  179.0760  144.5540 C   0  0  0  0  0  3  0  0  0  0  0  0
  185.9040  178.1250  141.8330 C   0  0  0  0  0  3  0  0  0  0  0  0
  183.5860  178.4100  142.6260 C   0  0  2  0  0  3  0  0  0  0  0  0
  182.3210  178.6830  142.1400 F   0  0  0  0  0  0  0  0  0  0  0  0
  185.9820  178.0380  144.3040 C   0  0  0  0  0  0  0  0  0  0  0  0
  182.5630  175.6880  134.9160 O   0  0  0  0  0  0  0  0  0  0  0  0
  181.3890  176.4550  134.8360 C   0  0  0  0  0  1  0  0  0  0  0  0
  182.7270  180.1190  138.8410 C   0  0  0  0  0  2  0  0  0  0  0  0
  180.4630  180.8760  139.4990 C   0  0  0  0  0  2  0  0  0  0  0  0
  180.0840  181.8640  137.3770 C   0  0  0  0  0  2  0  0  0  0  0  0
  181.1070  180.8530  137.1680 N   0  0  0  0  0  0  0  0  0  0  0  0
  180.5710  179.9010  136.2120 C   0  0  0  0  0  1  0  0  0  0  0  0
  180.0340  182.1630  138.8540 C   0  0  0  0  0  2  0  0  0  0  0  0
  181.2610  180.1450  138.4380 C   0  0  1  0  0  3  0  0  0  0  0  0
  1 11  1  0  0  0  0
  2  5  1  6  0  0  0
  2  6  1  0  0  0  0
  3  1  1  0  0  0  0
  4  2  1  0  0  0  0
  4  1  2  0  0  0  0
  6 10  1  0  0  0  0
  7  4  1  0  0  0  0
  8 12  1  0  0  0  0
  8  7  1  0  0  0  0
  9  7  2  0  0  0  0
  9 13  1  0  0  0  0
 10 11  1  0  0  0  0
 11 18  1  1  0  0  0
 12 24  1  6  0  0  0
 12  5  1  0  0  0  0
 13  3  2  0  0  0  0
 14 16  1  0  0  0  0
 14 19  2  0  0  0  0
 17 23  2  0  0  0  0
 18 20  2  0  0  0  0
 18 21  1  0  0  0  0
 20 17  1  0  0  0  0
 21 22  1  6  0  0  0
 21 14  1  0  0  0  0
 23 19  1  0  0  0  0
 23 15  1  0  0  0  0
 25 24  1  0  0  0  0
 26 10  1  0  0  0  0
 28 31  1  0  0  0  0
 29 28  1  0  0  0  0
 29 32  1  0  0  0  0
 30 29  1  0  0  0  0
 31 27  1  0  0  0  0
 32 26  1  1  0  0  0
 32 27  1  0  0  0  0
M  END
>  <MODEL>
8

>  <REMARK>
 VINA RESULT:      -5.1      2.192      4.843
  Name = 
  4 active torsions:
  status: ('A' for Active; 'I' for Inactive)
    1  A    between atoms: O_13  and  C_29
    2  A    between atoms: C_16  and  C_27
    3  A    between atoms: N_24  and  C_28
    4  A    between atoms: C_28  and  C_32
                            x       y       z     vdW  Elec       q    Type
                         _______ _______ _______ _____ _____    ______ ____

>  <TORSDO>
F 4

$$$$
=
 OpenBabel10272402133D

 32 36  0  0  1  0  0  0  0  0999 V2000
  186.4080  175.6650  136.0280 C   0  0  0  0  0  0  0  0  0  0  0  0
  184.5490  174.6340  137.3810 C   0  0  2  0  0  3  0  0  0  0  0  0
  187.5330  175.5410  135.2060 C   0  0  0  0  0  3  0  0  0  0  0  0
  185.6750  174.5260  136.3890 C   0  0  0  0  0  0  0  0  0  0  0  0
  183.4240  173.6710  137.0530 C   0  0  0  0  0  2  0  0  0  0  0  0
  184.0480  176.0570  137.6830 C   0  0  0  0  0  2  0  0  0  0  0  0
  186.0370  173.2640  135.8710 C   0  0  0  0  0  0  0  0  0  0  0  0
  185.1650  172.0490  136.0590 C   0  0  0  0  0  2  0  0  0  0  0  0
  187.1620  173.1550  135.0470 C   0  0  0  0  0  3  0  0  0  0  0  0
  184.4760  177.0850  136.7230 N   0  0  0  0  0  0  0  0  0  0  0  0
  185.9170  177.0300  136.4210 C   0  0  1  0  0  3  0  0  0  0  0  0
  184.0070  172.2540  137.0570 C   0  0  2  0  0  3  0  0  0  0  0  0
  187.9180  174.2860  134.7290 C   0  0  0  0  0  3  0  0  0  0  0  0
  189.1810  177.7770  137.8660 C   0  0  0  0  0  0  0  0  0  0  0  0
  188.6130  179.0090  141.2290 F   0  0  0  0  0  0  0  0  0  0  0  0
  190.1950  177.1750  137.1980 F   0  0  0  0  0  0  0  0  0  0  0  0
  186.9320  178.4080  139.8080 N   0  0  0  0  0  0  0  0  0  0  0  0
  186.7530  177.7640  137.4370 C   0  0  0  0  0  0  0  0  0  0  0  0
  189.2480  177.8690  139.1920 C   0  0  0  0  0  3  0  0  0  0  0  0
  186.2600  177.8260  138.6760 C   0  0  0  0  0  3  0  0  0  0  0  0
  188.0680  178.4170  137.1050 C   0  0  2  0  0  3  0  0  0  0  0  0
  188.3450  178.4100  135.7500 F   0  0  0  0  0  0  0  0  0  0  0  0
  188.2110  178.4780  140.0490 C   0  0  0  0  0  0  0  0  0  0  0  0
  183.0210  171.2460  136.9760 O   0  0  0  0  0  0  0  0  0  0  0  0
  183.4740  170.2370  136.1090 C   0  0  0  0  0  1  0  0  0  0  0  0
  183.7060  176.9380  135.4920 C   0  0  0  0  0  2  0  0  0  0  0  0
  181.8560  178.4580  136.1230 C   0  0  0  0  0  2  0  0  0  0  0  0
  180.4940  177.6760  134.3460 C   0  0  0  0  0  2  0  0  0  0  0  0
  181.4530  176.6150  134.6090 N   0  0  0  0  0  0  0  0  0  0  0  0
  180.6890  175.4390  134.9840 C   0  0  0  0  0  1  0  0  0  0  0  0
  181.0350  178.9410  134.9610 C   0  0  0  0  0  2  0  0  0  0  0  0
  182.2170  177.0240  135.7860 C   0  0  1  0  0  3  0  0  0  0  0  0
  1  4  1  0  0  0  0
  1 11  1  0  0  0  0
  2  5  1  6  0  0  0
  2  6  1  0  0  0  0
  3  1  2  0  0  0  0
  4  2  1  0  0  0  0
  5 12  1  0  0  0  0
  7  8  1  0  0  0  0
  7  4  2  0  0  0  0
  8 12  1  0  0  0  0
  9  7  1  0  0  0  0
 10  6  1  0  0  0  0
 11 10  1  0  0  0  0
 11 18  1  1  0  0  0
 12 24  1  6  0  0  0
 13  9  2  0  0  0  0
 13  3  1  0  0  0  0
 14 19  2  0  0  0  0
 16 14  1  0  0  0  0
 17 23  2  0  0  0  0
 18 20  2  0  0  0  0
 19 23  1  0  0  0  0
 20 17  1  0  0  0  0
 21 22  1  6  0  0  0
 21 18  1  0  0  0  0
 21 14  1  0  0  0  0
 23 15  1  0  0  0  0
 25 24  1  0  0  0  0
 26 10  1  0  0  0  0
 28 29  1  0  0  0  0
 28 31  1  0  0  0  0
 29 30  1  0  0  0  0
 29 32  1  0  0  0  0
 31 27  1  0  0  0  0
 32 26  1  6  0  0  0
 32 27  1  0  0  0  0
M  END
>  <MODEL>
9

>  <REMARK>
 VINA RESULT:      -5.0      3.629      6.693
  Name = 
  4 active torsions:
  status: ('A' for Active; 'I' for Inactive)
    1  A    between atoms: O_13  and  C_29
    2  A    between atoms: C_16  and  C_27
    3  A    between atoms: N_24  and  C_28
    4  A    between atoms: C_28  and  C_32
                            x       y       z     vdW  Elec       q    Type
                         _______ _______ _______ _____ _____    ______ ____

>  <TORSDO>
F 4

$$$$
