=
 OpenBabel10272401393D

 55 63  0  0  1  0  0  0  0  0999 V2000
  181.0160  178.8170  141.7560 C   0  0  0  0  0  3  0  0  0  0  0  0
  182.8440  178.6940  143.8660 C   0  0  0  0  0  0  0  0  0  0  0  0
  183.2990  178.9000  142.5570 C   0  0  0  0  0  3  0  0  0  0  0  0
  180.5640  178.5960  143.0610 C   0  0  0  0  0  3  0  0  0  0  0  0
  182.3880  178.9530  141.4970 C   0  0  0  0  0  0  0  0  0  0  0  0
  181.4780  178.5340  144.1140 C   0  0  0  0  0  3  0  0  0  0  0  0
  182.8920  179.2400  140.1150 C   0  0  2  0  0  3  0  0  0  0  0  0
  182.4510  175.8180  139.2440 C   0  0  0  0  0  1  0  0  0  0  0  0
  184.3080  176.1140  137.6280 C   0  0  2  0  0  3  0  0  0  0  0  0
  182.0280  178.5470  139.0740 C   0  0  2  0  0  3  0  0  0  0  0  0
  182.8720  176.5120  137.9470 C   0  0  2  0  0  3  0  0  0  0  0  0
  184.6070  178.7110  139.8860 S   0  0  0  0  0  0  0  0  0  0  0  0
  185.0640  177.3540  137.5020 N   0  0  0  0  0  0  0  0  0  0  0  0
  182.8470  177.9880  137.9880 N   0  0  2  0  0  0  0  0  0  0  0  0
  184.2420  178.4010  138.1230 C   0  0  1  0  0  3  0  0  0  0  0  0
  184.7730  173.8300  136.6840 C   0  0  0  0  0  1  0  0  0  0  0  0
  184.4250  175.2700  136.3520 C   0  0  0  0  0  3  0  0  0  0  0  0
  183.1650  175.3200  135.4980 C   0  0  0  0  0  1  0  0  0  0  0  0
  180.3650  178.9360  137.2510 C   0  0  0  0  0  1  0  0  0  0  0  0
  180.9530  179.4930  138.5340 C   0  0  2  0  0  3  0  0  0  0  0  0
  181.4890  180.9030  138.3060 C   0  0  0  0  0  2  0  0  0  0  0  0
  180.3890  181.9290  138.5030 C   0  0  0  0  0  1  0  0  0  0  0  0
  186.4660  177.2840  137.9580 C   0  0  0  0  0  2  0  0  0  0  0  0
  188.8990  177.8120  137.5690 C   0  0  0  0  0  2  0  0  0  0  0  0
  187.4590  177.3250  135.6810 C   0  0  0  0  0  2  0  0  0  0  0  0
  188.8800  177.4130  135.1710 C   0  0  0  0  0  2  0  0  0  0  0  0
  189.7680  177.3810  136.4010 C   0  0  2  0  0  3  0  0  0  0  0  0
  187.4800  177.9790  137.0410 C   0  0  1  0  0  3  0  0  0  0  0  0
  191.5510  175.7360  137.1430 C   0  0  0  0  0  0  0  0  0  0  0  0
  191.9500  174.3220  137.3750 C   0  0  0  0  0  1  0  0  0  0  0  0
  190.2410  176.0230  136.6450 N   0  0  0  0  0  2  0  0  0  0  0  0
  192.3660  176.6660  137.3890 O   0  0  0  0  0  0  0  0  0  0  0  0
  183.8060  178.6790  145.0010 C   0  0  0  0  0  2  0  0  0  0  0  0
  185.2300  178.9000  144.5110 C   0  0  0  0  0  2  0  0  0  0  0  0
  185.8580  177.5690  144.1180 C   0  0  0  0  0  2  0  0  0  0  0  0
  186.7950  177.0860  145.2150 C   0  0  0  0  0  2  0  0  0  0  0  0
  189.3640  177.9420  143.9290 C   0  0  2  0  0  0  0  0  0  0  0  0
  190.9250  177.6500  141.4940 C   0  0  2  0  0  3  0  0  0  0  0  0
  189.7820  176.6300  141.8270 C   0  0  2  0  0  0  0  0  0  0  0  0
  189.1670  178.7530  147.7890 O   0  0  0  0  0  0  0  0  0  0  0  0
  187.5720  178.1980  145.7510 N   0  0  0  0  0  0  0  0  0  0  0  0
  192.0320  176.6080  143.6230 C   0  0  0  0  0  2  0  0  0  0  0  0
  190.1890  175.3780  142.6130 C   0  0  0  0  0  2  0  0  0  0  0  0
  190.4630  176.6230  140.4890 C   0  0  0  0  0  2  0  0  0  0  0  0
  188.6730  177.6030  146.9610 S   0  0  0  0  0  0  0  0  0  0  0  0
  189.7190  176.6290  144.6950 C   0  0  1  0  0  3  0  0  0  0  0  0
  187.9820  176.6120  147.8550 O   0  0  0  0  0  0  0  0  0  0  0  0
  190.7780  175.7960  143.9440 C   0  0  2  0  0  3  0  0  0  0  0  0
  190.6780  178.7400  143.6520 C   0  0  2  0  0  3  0  0  0  0  0  0
  188.3500  178.8470  144.6830 C   0  0  0  0  0  2  0  0  0  0  0  0
  191.6570  177.8790  142.8340 C   0  0  2  0  0  3  0  0  0  0  0  0
  190.0600  176.8290  146.1620 C   0  0  0  0  0  2  0  0  0  0  0  0
  188.3580  178.6190  141.7890 O   0  0  0  0  0  1  0  0  0  0  0  0
  191.3440  179.3330  144.8910 C   0  0  0  0  0  1  0  0  0  0  0  0
  188.7460  177.5130  142.5570 C   0  0  2  0  0  3  0  0  0  0  0  0
  1  4  1  0  0  0  0
  2  6  1  0  0  0  0
  2 33  1  0  0  0  0
  3  2  2  0  0  0  0
  4  6  2  0  0  0  0
  5  1  2  0  0  0  0
  5  3  1  0  0  0  0
  7  5  1  1  0  0  0
  9 17  1  6  0  0  0
  9 11  1  0  0  0  0
 10 20  1  6  0  0  0
 10  7  1  0  0  0  0
 11 14  1  0  0  0  0
 11  8  1  1  0  0  0
 12  7  1  0  0  0  0
 13  9  1  0  0  0  0
 13 23  1  0  0  0  0
 13 15  1  0  0  0  0
 14 15  1  0  0  0  0
 14 10  1  0  0  0  0
 15 12  1  0  0  0  0
 17 16  1  0  0  0  0
 18 17  1  0  0  0  0
 19 20  1  0  0  0  0
 21 22  1  0  0  0  0
 21 20  1  0  0  0  0
 25 28  1  0  0  0  0
 26 25  1  0  0  0  0
 26 27  1  0  0  0  0
 27 31  1  0  0  0  0
 27 24  1  0  0  0  0
 28 24  1  0  0  0  0
 28 23  1  0  0  0  0
 29 30  1  0  0  0  0
 29 32  2  0  0  0  0
 31 29  1  0  0  0  0
 34 33  1  0  0  0  0
 35 34  1  0  0  0  0
 35 36  1  0  0  0  0
 36 41  1  0  0  0  0
 37 50  1  0  0  0  0
 37 46  1  0  0  0  0
 38 39  1  0  0  0  0
 38 51  1  0  0  0  0
 39 55  1  0  0  0  0
 39 43  1  0  0  0  0
 41 45  1  0  0  0  0
 42 48  1  0  0  0  0
 43 48  1  0  0  0  0
 44 38  1  0  0  0  0
 44 39  1  0  0  0  0
 45 40  2  0  0  0  0
 45 47  2  0  0  0  0
 46 52  1  0  0  0  0
 48 46  1  0  0  0  0
 49 37  1  0  0  0  0
 49 54  1  0  0  0  0
 50 41  1  0  0  0  0
 51 42  1  0  0  0  0
 51 49  1  0  0  0  0
 52 45  1  0  0  0  0
 53 55  1  0  0  0  0
 55 37  1  0  0  0  0
M  END
>  <MODEL>
1

>  <REMARK>
 VINA RESULT:      -7.6      0.000      0.000
  Name = 
  12 active torsions:
  status: ('A' for Active; 'I' for Inactive)
    1  A    between atoms: C_2  and  C_44
    2  A    between atoms: C_4  and  C_40
    3  A    between atoms: N_8  and  C_43
    4  A    between atoms: C_16  and  C_17
    5  A    between atoms: C_19  and  C_40
    6  A    between atoms: C_27  and  C_54
    7  A    between atoms: N_32  and  C_48
    8  A    between atoms: C_33  and  N_36
    9  A    between atoms: C_33  and  C_52
   10  A    between atoms: C_35  and  C_43
   11  A    between atoms: C_35  and  C_51
   12  A    between atoms: C_51  and  C_54
                            x       y       z     vdW  Elec       q    Type
                         _______ _______ _______ _____ _____    ______ ____

>  <TORSDO>
F 12

$$$$
=
 OpenBabel10272401393D

 55 63  0  0  1  0  0  0  0  0999 V2000
  187.5940  177.9860  146.8870 C   0  0  0  0  0  3  0  0  0  0  0  0
  185.4940  178.9080  145.2920 C   0  0  0  0  0  0  0  0  0  0  0  0
  186.4350  178.0170  144.7620 C   0  0  0  0  0  3  0  0  0  0  0  0
  186.6610  178.8870  147.4110 C   0  0  0  0  0  3  0  0  0  0  0  0
  187.4940  177.5600  145.5540 C   0  0  0  0  0  0  0  0  0  0  0  0
  185.6130  179.3480  146.6130 C   0  0  0  0  0  3  0  0  0  0  0  0
  188.4520  176.5580  144.9860 C   0  0  2  0  0  3  0  0  0  0  0  0
  190.4760  179.2010  143.7300 C   0  0  0  0  0  1  0  0  0  0  0  0
  191.1790  177.6470  141.9310 C   0  0  2  0  0  3  0  0  0  0  0  0
  189.8880  176.9710  145.2600 C   0  0  2  0  0  3  0  0  0  0  0  0
  191.2550  177.9190  143.4280 C   0  0  2  0  0  3  0  0  0  0  0  0
  188.2430  176.3430  143.2020 S   0  0  0  0  0  0  0  0  0  0  0  0
  190.6330  176.3030  141.7800 N   0  0  0  0  0  0  0  0  0  0  0  0
  190.7500  176.7040  144.1000 N   0  0  2  0  0  0  0  0  0  0  0  0
  190.0240  175.9600  143.0730 C   0  0  1  0  0  3  0  0  0  0  0  0
  193.4110  176.5600  141.5340 C   0  0  0  0  0  1  0  0  0  0  0  0
  192.5390  177.7660  141.2320 C   0  0  0  0  0  3  0  0  0  0  0  0
  192.4110  177.9550  139.7270 C   0  0  0  0  0  1  0  0  0  0  0  0
  190.5500  177.3070  147.6450 C   0  0  0  0  0  1  0  0  0  0  0  0
  190.4240  176.2930  146.5240 C   0  0  2  0  0  3  0  0  0  0  0  0
  191.7590  175.5980  146.2810 C   0  0  0  0  0  2  0  0  0  0  0  0
  192.6310  175.6720  147.5210 C   0  0  0  0  0  1  0  0  0  0  0  0
  189.7770  176.1020  140.5940 C   0  0  0  0  0  2  0  0  0  0  0  0
  189.6270  177.0070  138.2480 C   0  0  0  0  0  2  0  0  0  0  0  0
  188.1850  177.9070  139.9760 C   0  0  0  0  0  2  0  0  0  0  0  0
  187.7470  178.4940  138.6530 C   0  0  0  0  0  2  0  0  0  0  0  0
  188.4340  177.6680  137.5810 C   0  0  2  0  0  3  0  0  0  0  0  0
  189.5670  177.3520  139.7300 C   0  0  1  0  0  3  0  0  0  0  0  0
  187.5730  176.1360  135.7510 C   0  0  0  0  0  0  0  0  0  0  0  0
  186.6270  175.0660  135.3380 C   0  0  0  0  0  1  0  0  0  0  0  0
  187.5350  176.6290  137.0940 N   0  0  0  0  0  2  0  0  0  0  0  0
  188.4000  176.5980  134.9180 O   0  0  0  0  0  0  0  0  0  0  0  0
  184.3430  179.3640  144.4650 C   0  0  0  0  0  2  0  0  0  0  0  0
  184.4140  178.7750  143.0630 C   0  0  0  0  0  2  0  0  0  0  0  0
  183.0300  178.3180  142.6200 C   0  0  0  0  0  2  0  0  0  0  0  0
  183.0610  177.8860  141.1610 C   0  0  0  0  0  2  0  0  0  0  0  0
  181.8490  177.2520  138.4940 C   0  0  2  0  0  0  0  0  0  0  0  0
  180.8250  175.0460  136.8990 C   0  0  2  0  0  3  0  0  0  0  0  0
  181.7470  174.7660  138.1360 C   0  0  2  0  0  0  0  0  0  0  0  0
  183.3860  180.8820  138.7220 O   0  0  0  0  0  0  0  0  0  0  0  0
  182.5300  178.9410  140.3040 N   0  0  0  0  0  0  0  0  0  0  0  0
  182.9910  176.1600  135.9450 C   0  0  0  0  0  2  0  0  0  0  0  0
  183.2530  174.6800  137.8610 C   0  0  0  0  0  2  0  0  0  0  0  0
  181.0450  173.6480  137.4230 C   0  0  0  0  0  2  0  0  0  0  0  0
  183.8050  179.5580  139.2930 S   0  0  0  0  0  0  0  0  0  0  0  0
  183.3890  177.1160  138.2750 C   0  0  1  0  0  3  0  0  0  0  0  0
  185.0640  179.7410  140.0910 O   0  0  0  0  0  0  0  0  0  0  0  0
  183.7280  175.9920  137.2730 C   0  0  2  0  0  3  0  0  0  0  0  0
  181.1550  177.4450  137.1080 C   0  0  2  0  0  3  0  0  0  0  0  0
  181.4560  178.4170  139.4450 C   0  0  0  0  0  2  0  0  0  0  0  0
  181.4720  176.2540  136.1860 C   0  0  2  0  0  3  0  0  0  0  0  0
  184.0970  178.4210  137.9570 C   0  0  0  0  0  2  0  0  0  0  0  0
  179.9830  175.9170  139.3790 O   0  0  0  0  0  1  0  0  0  0  0  0
  181.4410  178.7810  136.4260 C   0  0  0  0  0  1  0  0  0  0  0  0
  181.3570  175.9000  139.1100 C   0  0  2  0  0  3  0  0  0  0  0  0
  1  4  1  0  0  0  0
  2  6  1  0  0  0  0
  3  2  2  0  0  0  0
  3  5  1  0  0  0  0
  5  1  2  0  0  0  0
  6  4  2  0  0  0  0
  7 10  1  0  0  0  0
  7  5  1  6  0  0  0
  9 17  1  1  0  0  0
  9 11  1  0  0  0  0
 10 20  1  1  0  0  0
 11  8  1  6  0  0  0
 11 14  1  0  0  0  0
 12  7  1  0  0  0  0
 13  9  1  0  0  0  0
 13 15  1  0  0  0  0
 14 10  1  0  0  0  0
 15 12  1  0  0  0  0
 15 14  1  0  0  0  0
 17 16  1  0  0  0  0
 18 17  1  0  0  0  0
 20 19  1  0  0  0  0
 21 20  1  0  0  0  0
 21 22  1  0  0  0  0
 23 13  1  0  0  0  0
 24 28  1  0  0  0  0
 26 25  1  0  0  0  0
 27 24  1  0  0  0  0
 27 26  1  0  0  0  0
 28 25  1  0  0  0  0
 28 23  1  0  0  0  0
 29 31  1  0  0  0  0
 30 29  1  0  0  0  0
 31 27  1  0  0  0  0
 32 29  2  0  0  0  0
 33  2  1  0  0  0  0
 34 33  1  0  0  0  0
 35 34  1  0  0  0  0
 36 35  1  0  0  0  0
 37 55  1  0  0  0  0
 37 50  1  0  0  0  0
 38 44  1  0  0  0  0
 38 39  1  0  0  0  0
 39 55  1  0  0  0  0
 40 45  2  0  0  0  0
 41 36  1  0  0  0  0
 42 51  1  0  0  0  0
 42 48  1  0  0  0  0
 43 39  1  0  0  0  0
 44 39  1  0  0  0  0
 45 47  2  0  0  0  0
 45 41  1  0  0  0  0
 46 37  1  0  0  0  0
 48 43  1  0  0  0  0
 48 46  1  0  0  0  0
 49 37  1  0  0  0  0
 50 41  1  0  0  0  0
 51 38  1  0  0  0  0
 51 49  1  0  0  0  0
 52 46  1  0  0  0  0
 52 45  1  0  0  0  0
 54 49  1  0  0  0  0
 55 53  1  0  0  0  0
M  END
>  <MODEL>
2

>  <REMARK>
 VINA RESULT:      -6.6      2.571      8.709
  Name = 
  12 active torsions:
  status: ('A' for Active; 'I' for Inactive)
    1  A    between atoms: C_2  and  C_44
    2  A    between atoms: C_4  and  C_40
    3  A    between atoms: N_8  and  C_43
    4  A    between atoms: C_16  and  C_17
    5  A    between atoms: C_19  and  C_40
    6  A    between atoms: C_27  and  C_54
    7  A    between atoms: N_32  and  C_48
    8  A    between atoms: C_33  and  N_36
    9  A    between atoms: C_33  and  C_52
   10  A    between atoms: C_35  and  C_43
   11  A    between atoms: C_35  and  C_51
   12  A    between atoms: C_51  and  C_54
                            x       y       z     vdW  Elec       q    Type
                         _______ _______ _______ _____ _____    ______ ____

>  <TORSDO>
F 12

$$$$
=
 OpenBabel10272401393D

 55 63  0  0  1  0  0  0  0  0999 V2000
  181.8780  178.3940  141.7410 C   0  0  0  0  0  3  0  0  0  0  0  0
  184.0950  178.8020  143.3920 C   0  0  0  0  0  0  0  0  0  0  0  0
  184.2190  178.0220  142.2360 C   0  0  0  0  0  3  0  0  0  0  0  0
  181.7530  179.1620  142.9030 C   0  0  0  0  0  3  0  0  0  0  0  0
  183.1090  177.8070  141.4110 C   0  0  0  0  0  0  0  0  0  0  0  0
  182.8600  179.3640  143.7280 C   0  0  0  0  0  3  0  0  0  0  0  0
  183.2800  177.0230  140.1460 C   0  0  2  0  0  3  0  0  0  0  0  0
  181.5690  179.5660  138.3380 C   0  0  0  0  0  1  0  0  0  0  0  0
  180.8390  177.7920  136.7680 C   0  0  2  0  0  3  0  0  0  0  0  0
  183.7010  177.9320  139.0030 C   0  0  2  0  0  3  0  0  0  0  0  0
  182.0450  178.5710  137.2780 C   0  0  2  0  0  3  0  0  0  0  0  0
  181.7670  176.1560  139.6660 S   0  0  0  0  0  0  0  0  0  0  0  0
  181.1420  176.3800  136.9640 N   0  0  0  0  0  0  0  0  0  0  0  0
  183.0200  177.5670  137.7520 N   0  0  2  0  0  0  0  0  0  0  0  0
  182.2610  176.3290  137.9160 C   0  0  1  0  0  3  0  0  0  0  0  0
  180.1140  179.5340  135.1060 C   0  0  0  0  0  1  0  0  0  0  0  0
  180.5200  178.0830  135.2960 C   0  0  0  0  0  3  0  0  0  0  0  0
  181.6730  177.7360  134.3650 C   0  0  0  0  0  1  0  0  0  0  0  0
  185.8220  179.1490  139.5120 C   0  0  0  0  0  1  0  0  0  0  0  0
  185.2220  177.9330  138.8320 C   0  0  2  0  0  3  0  0  0  0  0  0
  185.6370  177.8840  137.3660 C   0  0  0  0  0  2  0  0  0  0  0  0
  187.0220  177.2810  137.2230 C   0  0  0  0  0  1  0  0  0  0  0  0
  179.9830  175.5270  137.2920 C   0  0  0  0  0  2  0  0  0  0  0  0
  181.3220  173.8930  135.9210 C   0  0  0  0  0  2  0  0  0  0  0  0
  180.0880  173.1090  137.8540 C   0  0  0  0  0  2  0  0  0  0  0  0
  180.9360  171.9640  137.3490 C   0  0  0  0  0  2  0  0  0  0  0  0
  181.9240  172.5750  136.3730 C   0  0  2  0  0  3  0  0  0  0  0  0
  180.0440  174.1050  136.7200 C   0  0  1  0  0  3  0  0  0  0  0  0
  184.4610  172.6290  136.4170 C   0  0  0  0  0  0  0  0  0  0  0  0
  185.7070  172.9400  137.1670 C   0  0  0  0  0  1  0  0  0  0  0  0
  183.1920  172.8440  137.0420 N   0  0  0  0  0  2  0  0  0  0  0  0
  184.5320  172.1810  135.2400 O   0  0  0  0  0  0  0  0  0  0  0  0
  185.2830  179.0660  144.2490 C   0  0  0  0  0  2  0  0  0  0  0  0
  184.9730  178.7820  145.7120 C   0  0  0  0  0  2  0  0  0  0  0  0
  185.4780  177.3960  146.0910 C   0  0  0  0  0  2  0  0  0  0  0  0
  186.8880  177.1860  145.5560 C   0  0  0  0  0  2  0  0  0  0  0  0
  189.3740  177.9340  144.0580 C   0  0  2  0  0  0  0  0  0  0  0  0
  190.6750  177.6500  141.4740 C   0  0  2  0  0  3  0  0  0  0  0  0
  189.5030  176.6900  141.8780 C   0  0  2  0  0  0  0  0  0  0  0  0
  189.5980  178.5890  147.9460 O   0  0  0  0  0  0  0  0  0  0  0  0
  187.7840  178.2230  146.0550 N   0  0  0  0  0  0  0  0  0  0  0  0
  191.9070  176.4500  143.4450 C   0  0  0  0  0  2  0  0  0  0  0  0
  189.8980  175.3820  142.5740 C   0  0  0  0  0  2  0  0  0  0  0  0
  190.0520  176.6980  140.4810 C   0  0  0  0  0  2  0  0  0  0  0  0
  188.9520  177.5080  147.1280 S   0  0  0  0  0  0  0  0  0  0  0  0
  189.7120  176.5700  144.7370 C   0  0  1  0  0  3  0  0  0  0  0  0
  188.2850  176.5250  148.0480 O   0  0  0  0  0  0  0  0  0  0  0  0
  190.6370  175.7040  143.8560 C   0  0  2  0  0  3  0  0  0  0  0  0
  190.7060  178.6590  143.6840 C   0  0  2  0  0  3  0  0  0  0  0  0
  188.4980  178.8670  144.9400 C   0  0  0  0  0  2  0  0  0  0  0  0
  191.5440  177.7740  142.7430 C   0  0  2  0  0  3  0  0  0  0  0  0
  190.2030  176.6840  146.1700 C   0  0  0  0  0  2  0  0  0  0  0  0
  188.2170  178.7640  142.0530 O   0  0  0  0  0  1  0  0  0  0  0  0
  191.5250  179.1550  144.8740 C   0  0  0  0  0  1  0  0  0  0  0  0
  188.6010  177.6040  142.7380 C   0  0  2  0  0  3  0  0  0  0  0  0
  1  4  1  0  0  0  0
  2  6  1  0  0  0  0
  2 33  1  0  0  0  0
  3  2  2  0  0  0  0
  4  6  2  0  0  0  0
  5  1  2  0  0  0  0
  5  3  1  0  0  0  0
  7  5  1  1  0  0  0
  9 17  1  6  0  0  0
  9 13  1  0  0  0  0
  9 11  1  0  0  0  0
 10 20  1  6  0  0  0
 10  7  1  0  0  0  0
 11 14  1  0  0  0  0
 11  8  1  1  0  0  0
 12  7  1  0  0  0  0
 13 23  1  0  0  0  0
 13 15  1  0  0  0  0
 14 15  1  0  0  0  0
 14 10  1  0  0  0  0
 15 12  1  0  0  0  0
 16 17  1  0  0  0  0
 18 17  1  0  0  0  0
 20 19  1  0  0  0  0
 21 20  1  0  0  0  0
 22 21  1  0  0  0  0
 24 27  1  0  0  0  0
 24 28  1  0  0  0  0
 26 25  1  0  0  0  0
 27 31  1  0  0  0  0
 27 26  1  0  0  0  0
 28 23  1  0  0  0  0
 28 25  1  0  0  0  0
 29 31  1  0  0  0  0
 29 30  1  0  0  0  0
 32 29  2  0  0  0  0
 33 34  1  0  0  0  0
 34 35  1  0  0  0  0
 36 41  1  0  0  0  0
 36 35  1  0  0  0  0
 37 46  1  0  0  0  0
 37 50  1  0  0  0  0
 38 39  1  0  0  0  0
 38 51  1  0  0  0  0
 39 43  1  0  0  0  0
 39 55  1  0  0  0  0
 41 45  1  0  0  0  0
 42 48  1  0  0  0  0
 43 48  1  0  0  0  0
 44 38  1  0  0  0  0
 44 39  1  0  0  0  0
 45 40  2  0  0  0  0
 45 47  2  0  0  0  0
 46 52  1  0  0  0  0
 48 46  1  0  0  0  0
 49 37  1  0  0  0  0
 49 54  1  0  0  0  0
 50 41  1  0  0  0  0
 51 42  1  0  0  0  0
 51 49  1  0  0  0  0
 52 45  1  0  0  0  0
 53 55  1  0  0  0  0
 55 37  1  0  0  0  0
M  END
>  <MODEL>
3

>  <REMARK>
 VINA RESULT:      -6.4      2.165      4.357
  Name = 
  12 active torsions:
  status: ('A' for Active; 'I' for Inactive)
    1  A    between atoms: C_2  and  C_44
    2  A    between atoms: C_4  and  C_40
    3  A    between atoms: N_8  and  C_43
    4  A    between atoms: C_16  and  C_17
    5  A    between atoms: C_19  and  C_40
    6  A    between atoms: C_27  and  C_54
    7  A    between atoms: N_32  and  C_48
    8  A    between atoms: C_33  and  N_36
    9  A    between atoms: C_33  and  C_52
   10  A    between atoms: C_35  and  C_43
   11  A    between atoms: C_35  and  C_51
   12  A    between atoms: C_51  and  C_54
                            x       y       z     vdW  Elec       q    Type
                         _______ _______ _______ _____ _____    ______ ____

>  <TORSDO>
F 12

$$$$
=
 OpenBabel10272401393D

 55 63  0  0  1  0  0  0  0  0999 V2000
  190.1510  176.7810  140.6830 C   0  0  0  0  0  3  0  0  0  0  0  0
  187.7100  178.0890  141.0550 C   0  0  0  0  0  0  0  0  0  0  0  0
  188.3300  178.1100  139.7990 C   0  0  0  0  0  3  0  0  0  0  0  0
  189.5370  176.7730  141.9400 C   0  0  0  0  0  3  0  0  0  0  0  0
  189.5570  177.4640  139.6110 C   0  0  0  0  0  0  0  0  0  0  0  0
  188.3190  177.4280  142.1250 C   0  0  0  0  0  3  0  0  0  0  0  0
  190.1690  177.4440  138.2430 C   0  0  2  0  0  3  0  0  0  0  0  0
  188.4790  174.3950  137.5290 C   0  0  0  0  0  1  0  0  0  0  0  0
  190.3530  173.8550  135.9970 C   0  0  2  0  0  3  0  0  0  0  0  0
  189.1350  177.0630  137.1970 C   0  0  2  0  0  3  0  0  0  0  0  0
  189.1690  174.7880  136.2210 C   0  0  2  0  0  3  0  0  0  0  0  0
  191.5580  176.2910  138.1300 S   0  0  0  0  0  0  0  0  0  0  0  0
  191.5280  174.7040  135.8460 N   0  0  0  0  0  0  0  0  0  0  0  0
  189.7090  176.1630  136.1850 N   0  0  2  0  0  0  0  0  0  0  0  0
  191.1520  176.0240  136.3700 C   0  0  1  0  0  3  0  0  0  0  0  0
  191.0240  171.6950  134.8990 C   0  0  0  0  0  1  0  0  0  0  0  0
  190.1730  172.9460  134.7740 C   0  0  0  0  0  3  0  0  0  0  0  0
  188.7190  172.5680  134.5330 C   0  0  0  0  0  1  0  0  0  0  0  0
  189.0170  179.5570  137.2560 C   0  0  0  0  0  1  0  0  0  0  0  0
  188.5180  178.3070  136.5540 C   0  0  2  0  0  3  0  0  0  0  0  0
  186.9940  178.2630  136.5640 C   0  0  0  0  0  2  0  0  0  0  0  0
  186.4620  177.9220  135.1840 C   0  0  0  0  0  1  0  0  0  0  0  0
  192.7840  174.1380  136.3770 C   0  0  0  0  0  2  0  0  0  0  0  0
  194.9080  175.4230  135.9490 C   0  0  0  0  0  2  0  0  0  0  0  0
  194.8360  173.0410  135.5050 C   0  0  0  0  0  2  0  0  0  0  0  0
  196.2670  173.5010  135.3420 C   0  0  0  0  0  2  0  0  0  0  0  0
  196.3310  174.8920  135.9440 C   0  0  2  0  0  3  0  0  0  0  0  0
  194.0040  174.3000  135.4600 C   0  0  1  0  0  3  0  0  0  0  0  0
  198.1970  174.8740  137.6630 C   0  0  0  0  0  0  0  0  0  0  0  0
  198.6000  174.8090  139.0930 C   0  0  0  0  0  1  0  0  0  0  0  0
  196.8090  174.8230  137.3200 N   0  0  0  0  0  2  0  0  0  0  0  0
  199.0790  174.9760  136.7680 O   0  0  0  0  0  0  0  0  0  0  0  0
  186.3850  178.7390  141.2480 C   0  0  0  0  0  2  0  0  0  0  0  0
  185.5480  177.9770  142.2650 C   0  0  0  0  0  2  0  0  0  0  0  0
  184.0820  178.3690  142.1310 C   0  0  0  0  0  2  0  0  0  0  0  0
  183.5610  177.9890  140.7520 C   0  0  0  0  0  2  0  0  0  0  0  0
  181.4360  177.2270  138.7810 C   0  0  2  0  0  0  0  0  0  0  0  0
  180.1520  174.9210  137.5600 C   0  0  2  0  0  3  0  0  0  0  0  0
  181.5400  174.7680  138.2730 C   0  0  2  0  0  0  0  0  0  0  0  0
  182.4020  181.0540  138.6810 O   0  0  0  0  0  0  0  0  0  0  0  0
  182.5760  178.9620  140.2920 N   0  0  0  0  0  0  0  0  0  0  0  0
  181.5320  176.3990  135.9000 C   0  0  0  0  0  2  0  0  0  0  0  0
  182.7840  174.9370  137.3930 C   0  0  0  0  0  2  0  0  0  0  0  0
  180.7650  173.5650  137.8160 C   0  0  0  0  0  2  0  0  0  0  0  0
  183.2030  179.8040  138.9040 S   0  0  0  0  0  0  0  0  0  0  0  0
  182.7410  177.3510  137.9330 C   0  0  1  0  0  3  0  0  0  0  0  0
  184.6430  180.1740  139.1230 O   0  0  0  0  0  0  0  0  0  0  0  0
  182.7780  176.3230  136.7830 C   0  0  2  0  0  3  0  0  0  0  0  0
  180.2010  177.3360  137.8310 C   0  0  2  0  0  3  0  0  0  0  0  0
  181.3240  178.2880  139.9100 C   0  0  0  0  0  2  0  0  0  0  0  0
  180.2610  176.2350  136.7560 C   0  0  2  0  0  3  0  0  0  0  0  0
  183.0580  178.7630  137.4710 C   0  0  0  0  0  2  0  0  0  0  0  0
  180.3260  175.5820  140.2340 O   0  0  0  0  0  1  0  0  0  0  0  0
  179.9820  178.7160  137.2160 C   0  0  0  0  0  1  0  0  0  0  0  0
  181.4450  175.7990  139.4200 C   0  0  2  0  0  3  0  0  0  0  0  0
  1  4  1  0  0  0  0
  2 33  1  0  0  0  0
  2  6  1  0  0  0  0
  3  2  2  0  0  0  0
  4  6  2  0  0  0  0
  5  3  1  0  0  0  0
  5  1  2  0  0  0  0
  7  5  1  1  0  0  0
  9 17  1  6  0  0  0
  9 11  1  0  0  0  0
 10 20  1  6  0  0  0
 10  7  1  0  0  0  0
 11  8  1  1  0  0  0
 12  7  1  0  0  0  0
 13  9  1  0  0  0  0
 13 15  1  0  0  0  0
 13 23  1  0  0  0  0
 14 11  1  0  0  0  0
 14 15  1  0  0  0  0
 14 10  1  0  0  0  0
 15 12  1  0  0  0  0
 17 16  1  0  0  0  0
 18 17  1  0  0  0  0
 20 21  1  0  0  0  0
 20 19  1  0  0  0  0
 22 21  1  0  0  0  0
 26 25  1  0  0  0  0
 26 27  1  0  0  0  0
 27 24  1  0  0  0  0
 27 31  1  0  0  0  0
 28 25  1  0  0  0  0
 28 24  1  0  0  0  0
 28 23  1  0  0  0  0
 29 30  1  0  0  0  0
 31 29  1  0  0  0  0
 32 29  2  0  0  0  0
 33 34  1  0  0  0  0
 35 34  1  0  0  0  0
 36 35  1  0  0  0  0
 37 55  1  0  0  0  0
 37 50  1  0  0  0  0
 38 44  1  0  0  0  0
 38 39  1  0  0  0  0
 39 55  1  0  0  0  0
 40 45  2  0  0  0  0
 41 36  1  0  0  0  0
 42 51  1  0  0  0  0
 42 48  1  0  0  0  0
 43 39  1  0  0  0  0
 44 39  1  0  0  0  0
 45 47  2  0  0  0  0
 45 41  1  0  0  0  0
 46 37  1  0  0  0  0
 48 43  1  0  0  0  0
 48 46  1  0  0  0  0
 49 37  1  0  0  0  0
 50 41  1  0  0  0  0
 51 38  1  0  0  0  0
 51 49  1  0  0  0  0
 52 46  1  0  0  0  0
 52 45  1  0  0  0  0
 54 49  1  0  0  0  0
 55 53  1  0  0  0  0
M  END
>  <MODEL>
4

>  <REMARK>
 VINA RESULT:      -6.4      3.451      8.426
  Name = 
  12 active torsions:
  status: ('A' for Active; 'I' for Inactive)
    1  A    between atoms: C_2  and  C_44
    2  A    between atoms: C_4  and  C_40
    3  A    between atoms: N_8  and  C_43
    4  A    between atoms: C_16  and  C_17
    5  A    between atoms: C_19  and  C_40
    6  A    between atoms: C_27  and  C_54
    7  A    between atoms: N_32  and  C_48
    8  A    between atoms: C_33  and  N_36
    9  A    between atoms: C_33  and  C_52
   10  A    between atoms: C_35  and  C_43
   11  A    between atoms: C_35  and  C_51
   12  A    between atoms: C_51  and  C_54
                            x       y       z     vdW  Elec       q    Type
                         _______ _______ _______ _____ _____    ______ ____

>  <TORSDO>
F 12

$$$$
=
 OpenBabel10272401393D

 55 63  0  0  1  0  0  0  0  0999 V2000
  181.1800  178.9120  141.8680 C   0  0  0  0  0  3  0  0  0  0  0  0
  183.4640  178.8570  143.4770 C   0  0  0  0  0  0  0  0  0  0  0  0
  183.5830  178.7190  142.0890 C   0  0  0  0  0  3  0  0  0  0  0  0
  181.0610  179.0350  143.2560 C   0  0  0  0  0  3  0  0  0  0  0  0
  182.4420  178.7370  141.2800 C   0  0  0  0  0  0  0  0  0  0  0  0
  182.2020  179.0070  144.0590 C   0  0  0  0  0  3  0  0  0  0  0  0
  182.5990  178.6530  139.7920 C   0  0  2  0  0  3  0  0  0  0  0  0
  180.3640  175.8850  139.7110 C   0  0  0  0  0  1  0  0  0  0  0  0
  181.5860  175.1110  137.6970 C   0  0  2  0  0  3  0  0  0  0  0  0
  181.2520  178.4390  139.1210 C   0  0  2  0  0  3  0  0  0  0  0  0
  180.6690  176.1980  138.2450 C   0  0  2  0  0  3  0  0  0  0  0  0
  183.7120  177.3170  139.2940 S   0  0  0  0  0  0  0  0  0  0  0  0
  182.7650  175.7880  137.1720 N   0  0  0  0  0  0  0  0  0  0  0  0
  181.3580  177.4840  138.0080 N   0  0  2  0  0  0  0  0  0  0  0  0
  182.7540  177.1400  137.7480 C   0  0  1  0  0  3  0  0  0  0  0  0
  180.8410  175.0130  135.2980 C   0  0  0  0  0  1  0  0  0  0  0  0
  180.9170  174.2570  136.6120 C   0  0  0  0  0  3  0  0  0  0  0  0
  181.6130  172.9190  136.4070 C   0  0  0  0  0  1  0  0  0  0  0  0
  180.1910  179.6630  137.2200 C   0  0  0  0  0  1  0  0  0  0  0  0
  180.6480  179.7680  138.6630 C   0  0  2  0  0  3  0  0  0  0  0  0
  181.6220  180.9300  138.8300 C   0  0  0  0  0  2  0  0  0  0  0  0
  181.1070  182.1640  138.1120 C   0  0  0  0  0  1  0  0  0  0  0  0
  184.0320  175.0420  137.3110 C   0  0  0  0  0  2  0  0  0  0  0  0
  185.2130  176.4520  135.5890 C   0  0  0  0  0  2  0  0  0  0  0  0
  186.2530  174.4150  136.3910 C   0  0  0  0  0  2  0  0  0  0  0  0
  187.2580  175.1390  135.5240 C   0  0  0  0  0  2  0  0  0  0  0  0
  186.7060  176.5380  135.3240 C   0  0  2  0  0  3  0  0  0  0  0  0
  184.9170  175.0340  136.0580 C   0  0  1  0  0  3  0  0  0  0  0  0
  188.6750  177.8520  136.2370 C   0  0  0  0  0  0  0  0  0  0  0  0
  189.1990  178.8030  137.2530 C   0  0  0  0  0  1  0  0  0  0  0  0
  187.3000  177.4570  136.2870 N   0  0  0  0  0  2  0  0  0  0  0  0
  189.4420  177.4050  135.3420 O   0  0  0  0  0  0  0  0  0  0  0  0
  184.6790  178.8810  144.3360 C   0  0  0  0  0  2  0  0  0  0  0  0
  184.5950  177.8250  145.4280 C   0  0  0  0  0  2  0  0  0  0  0  0
  185.7180  178.0280  146.4370 C   0  0  0  0  0  2  0  0  0  0  0  0
  187.0430  177.5640  145.8490 C   0  0  0  0  0  2  0  0  0  0  0  0
  189.4880  177.9980  144.1710 C   0  0  2  0  0  0  0  0  0  0  0  0
  190.5120  177.6680  141.4690 C   0  0  2  0  0  3  0  0  0  0  0  0
  189.2360  176.8840  141.9320 C   0  0  2  0  0  0  0  0  0  0  0  0
  190.1310  178.3720  148.0490 O   0  0  0  0  0  0  0  0  0  0  0  0
  188.1340  178.4140  146.3130 N   0  0  0  0  0  0  0  0  0  0  0  0
  191.6870  176.1710  143.2640 C   0  0  0  0  0  2  0  0  0  0  0  0
  189.4670  175.4900  142.5280 C   0  0  0  0  0  2  0  0  0  0  0  0
  189.6640  176.8900  140.4930 C   0  0  0  0  0  2  0  0  0  0  0  0
  189.2530  177.4590  147.2430 S   0  0  0  0  0  0  0  0  0  0  0  0
  189.6530  176.5590  144.7520 C   0  0  1  0  0  3  0  0  0  0  0  0
  188.5110  176.5410  148.1720 O   0  0  0  0  0  0  0  0  0  0  0  0
  190.3500  175.6130  143.7520 C   0  0  2  0  0  3  0  0  0  0  0  0
  190.8860  178.5240  143.7130 C   0  0  2  0  0  3  0  0  0  0  0  0
  188.8510  179.0030  145.1700 C   0  0  0  0  0  2  0  0  0  0  0  0
  191.4900  177.5760  142.6610 C   0  0  2  0  0  3  0  0  0  0  0  0
  190.2710  176.5070  146.1390 C   0  0  0  0  0  2  0  0  0  0  0  0
  188.3240  179.1210  142.3180 O   0  0  0  0  0  1  0  0  0  0  0  0
  191.8690  178.8100  144.8460 C   0  0  0  0  0  1  0  0  0  0  0  0
  188.5680  177.8760  142.9110 C   0  0  2  0  0  3  0  0  0  0  0  0
  1  4  1  0  0  0  0
  2  6  1  0  0  0  0
  2 33  1  0  0  0  0
  3  2  2  0  0  0  0
  4  6  2  0  0  0  0
  5  1  2  0  0  0  0
  5  3  1  0  0  0  0
  7  5  1  1  0  0  0
  9 17  1  6  0  0  0
  9 11  1  0  0  0  0
 10 20  1  6  0  0  0
 10  7  1  0  0  0  0
 11  8  1  1  0  0  0
 12  7  1  0  0  0  0
 13 23  1  0  0  0  0
 13  9  1  0  0  0  0
 13 15  1  0  0  0  0
 14 11  1  0  0  0  0
 14 10  1  0  0  0  0
 15 14  1  0  0  0  0
 15 12  1  0  0  0  0
 16 17  1  0  0  0  0
 18 17  1  0  0  0  0
 19 20  1  0  0  0  0
 20 21  1  0  0  0  0
 22 21  1  0  0  0  0
 24 28  1  0  0  0  0
 26 25  1  0  0  0  0
 27 26  1  0  0  0  0
 27 24  1  0  0  0  0
 27 31  1  0  0  0  0
 28 25  1  0  0  0  0
 28 23  1  0  0  0  0
 29 31  1  0  0  0  0
 29 30  1  0  0  0  0
 32 29  2  0  0  0  0
 33 34  1  0  0  0  0
 34 35  1  0  0  0  0
 36 41  1  0  0  0  0
 36 35  1  0  0  0  0
 37 46  1  0  0  0  0
 37 50  1  0  0  0  0
 38 39  1  0  0  0  0
 38 51  1  0  0  0  0
 39 43  1  0  0  0  0
 39 55  1  0  0  0  0
 41 45  1  0  0  0  0
 42 48  1  0  0  0  0
 43 48  1  0  0  0  0
 44 38  1  0  0  0  0
 44 39  1  0  0  0  0
 45 40  2  0  0  0  0
 45 47  2  0  0  0  0
 46 52  1  0  0  0  0
 48 46  1  0  0  0  0
 49 37  1  0  0  0  0
 49 54  1  0  0  0  0
 50 41  1  0  0  0  0
 51 42  1  0  0  0  0
 51 49  1  0  0  0  0
 52 45  1  0  0  0  0
 53 55  1  0  0  0  0
 55 37  1  0  0  0  0
M  END
>  <MODEL>
5

>  <REMARK>
 VINA RESULT:      -6.0      1.473      2.094
  Name = 
  12 active torsions:
  status: ('A' for Active; 'I' for Inactive)
    1  A    between atoms: C_2  and  C_44
    2  A    between atoms: C_4  and  C_40
    3  A    between atoms: N_8  and  C_43
    4  A    between atoms: C_16  and  C_17
    5  A    between atoms: C_19  and  C_40
    6  A    between atoms: C_27  and  C_54
    7  A    between atoms: N_32  and  C_48
    8  A    between atoms: C_33  and  N_36
    9  A    between atoms: C_33  and  C_52
   10  A    between atoms: C_35  and  C_43
   11  A    between atoms: C_35  and  C_51
   12  A    between atoms: C_51  and  C_54
                            x       y       z     vdW  Elec       q    Type
                         _______ _______ _______ _____ _____    ______ ____

>  <TORSDO>
F 12

$$$$
=
 OpenBabel10272401393D

 55 63  0  0  1  0  0  0  0  0999 V2000
  182.8290  176.1690  138.5030 C   0  0  0  0  0  3  0  0  0  0  0  0
  184.2040  178.1070  139.9730 C   0  0  0  0  0  0  0  0  0  0  0  0
  184.5990  177.8130  138.6620 C   0  0  0  0  0  3  0  0  0  0  0  0
  182.4440  176.4540  139.8170 C   0  0  0  0  0  3  0  0  0  0  0  0
  183.9190  176.8370  137.9250 C   0  0  0  0  0  0  0  0  0  0  0  0
  183.1320  177.4210  140.5510 C   0  0  0  0  0  3  0  0  0  0  0  0
  184.3180  176.5850  136.5030 C   0  0  2  0  0  3  0  0  0  0  0  0
  185.5770  173.3860  137.4220 C   0  0  0  0  0  1  0  0  0  0  0  0
  187.1820  173.6120  135.5440 C   0  0  2  0  0  3  0  0  0  0  0  0
  183.9450  175.1740  136.0820 C   0  0  2  0  0  3  0  0  0  0  0  0
  185.7090  173.4480  135.8980 C   0  0  2  0  0  3  0  0  0  0  0  0
  186.0930  176.8160  136.2380 S   0  0  0  0  0  0  0  0  0  0  0  0
  187.2800  174.8100  134.7200 N   0  0  0  0  0  0  0  0  0  0  0  0
  184.9970  174.5690  135.2510 N   0  0  2  0  0  0  0  0  0  0  0  0
  186.0270  175.5510  134.9210 C   0  0  1  0  0  3  0  0  0  0  0  0
  188.7740  171.6700  135.6770 C   0  0  0  0  0  1  0  0  0  0  0  0
  187.7580  172.3940  134.8110 C   0  0  0  0  0  3  0  0  0  0  0  0
  186.6810  171.4240  134.3460 C   0  0  0  0  0  1  0  0  0  0  0  0
  182.2410  176.5440  134.8740 C   0  0  0  0  0  1  0  0  0  0  0  0
  182.5890  175.1540  135.3710 C   0  0  2  0  0  3  0  0  0  0  0  0
  181.4790  174.6130  136.2660 C   0  0  0  0  0  2  0  0  0  0  0  0
  180.2860  175.5520  136.2600 C   0  0  0  0  0  1  0  0  0  0  0  0
  188.5210  175.5900  134.8920 C   0  0  0  0  0  2  0  0  0  0  0  0
  190.5640  174.5200  135.9070 C   0  0  0  0  0  2  0  0  0  0  0  0
  189.7300  176.6080  136.8100 C   0  0  0  0  0  2  0  0  0  0  0  0
  191.0520  176.3080  137.4790 C   0  0  0  0  0  2  0  0  0  0  0  0
  191.6900  175.1990  136.6640 C   0  0  2  0  0  3  0  0  0  0  0  0
  189.2900  175.3040  136.1890 C   0  0  1  0  0  3  0  0  0  0  0  0
  193.8860  176.3290  136.0810 C   0  0  0  0  0  0  0  0  0  0  0  0
  194.7920  176.8710  135.0330 C   0  0  0  0  0  1  0  0  0  0  0  0
  192.6300  175.7610  135.7000 N   0  0  0  0  0  2  0  0  0  0  0  0
  194.2330  176.3730  137.2930 O   0  0  0  0  0  0  0  0  0  0  0  0
  184.8980  179.1740  140.7450 C   0  0  0  0  0  2  0  0  0  0  0  0
  184.5490  179.0900  142.2240 C   0  0  0  0  0  2  0  0  0  0  0  0
  185.5780  178.2380  142.9540 C   0  0  0  0  0  2  0  0  0  0  0  0
  186.9700  178.5040  142.3990 C   0  0  0  0  0  2  0  0  0  0  0  0
  189.0120  177.0410  144.0350 C   0  0  2  0  0  0  0  0  0  0  0  0
  190.1240  176.8800  146.7160 C   0  0  2  0  0  3  0  0  0  0  0  0
  189.3080  178.1440  146.2740 C   0  0  2  0  0  0  0  0  0  0  0  0
  189.3600  176.4440  140.1470 O   0  0  0  0  0  0  0  0  0  0  0  0
  187.5740  177.2660  141.9180 N   0  0  0  0  0  0  0  0  0  0  0  0
  191.8020  177.7250  144.8970 C   0  0  0  0  0  2  0  0  0  0  0  0
  190.1130  179.3000  145.6690 C   0  0  0  0  0  2  0  0  0  0  0  0
  189.7160  177.9460  147.7050 C   0  0  0  0  0  2  0  0  0  0  0  0
  188.9810  177.6440  140.9660 S   0  0  0  0  0  0  0  0  0  0  0  0
  189.7770  178.2680  143.4460 C   0  0  1  0  0  3  0  0  0  0  0  0
  188.6970  178.7980  140.0470 O   0  0  0  0  0  0  0  0  0  0  0  0
  190.8330  178.8120  144.4310 C   0  0  2  0  0  3  0  0  0  0  0  0
  190.0490  175.9580  144.4690 C   0  0  2  0  0  3  0  0  0  0  0  0
  187.9840  176.4180  143.0500 C   0  0  0  0  0  2  0  0  0  0  0  0
  191.0240  176.5430  145.5080 C   0  0  2  0  0  3  0  0  0  0  0  0
  190.3310  178.0530  142.0480 C   0  0  0  0  0  2  0  0  0  0  0  0
  187.5080  176.5280  145.9110 O   0  0  0  0  0  1  0  0  0  0  0  0
  190.7890  175.2770  143.3200 C   0  0  0  0  0  1  0  0  0  0  0  0
  188.2590  177.5460  145.3100 C   0  0  2  0  0  3  0  0  0  0  0  0
  1  4  1  0  0  0  0
  2  6  1  0  0  0  0
  2 33  1  0  0  0  0
  3  2  2  0  0  0  0
  4  6  2  0  0  0  0
  5  1  2  0  0  0  0
  5  3  1  0  0  0  0
  7  5  1  1  0  0  0
  9 17  1  6  0  0  0
  9 11  1  0  0  0  0
 10 20  1  6  0  0  0
 10  7  1  0  0  0  0
 11  8  1  1  0  0  0
 12  7  1  0  0  0  0
 13 23  1  0  0  0  0
 13 15  1  0  0  0  0
 13  9  1  0  0  0  0
 14 11  1  0  0  0  0
 14 10  1  0  0  0  0
 15 14  1  0  0  0  0
 15 12  1  0  0  0  0
 17 16  1  0  0  0  0
 18 17  1  0  0  0  0
 19 20  1  0  0  0  0
 20 21  1  0  0  0  0
 22 21  1  0  0  0  0
 23 28  1  0  0  0  0
 24 28  1  0  0  0  0
 24 27  1  0  0  0  0
 25 26  1  0  0  0  0
 27 26  1  0  0  0  0
 28 25  1  0  0  0  0
 29 32  2  0  0  0  0
 30 29  1  0  0  0  0
 31 29  1  0  0  0  0
 31 27  1  0  0  0  0
 33 34  1  0  0  0  0
 34 35  1  0  0  0  0
 36 35  1  0  0  0  0
 37 49  1  0  0  0  0
 37 55  1  0  0  0  0
 38 44  1  0  0  0  0
 39 38  1  0  0  0  0
 39 44  1  0  0  0  0
 40 45  2  0  0  0  0
 41 36  1  0  0  0  0
 41 50  1  0  0  0  0
 42 51  1  0  0  0  0
 43 39  1  0  0  0  0
 45 41  1  0  0  0  0
 45 52  1  0  0  0  0
 46 37  1  0  0  0  0
 46 48  1  0  0  0  0
 47 45  2  0  0  0  0
 48 42  1  0  0  0  0
 48 43  1  0  0  0  0
 49 51  1  0  0  0  0
 50 37  1  0  0  0  0
 51 38  1  0  0  0  0
 52 46  1  0  0  0  0
 54 49  1  0  0  0  0
 55 53  1  0  0  0  0
 55 39  1  0  0  0  0
M  END
>  <MODEL>
6

>  <REMARK>
 VINA RESULT:      -5.7      2.454      4.425
  Name = 
  12 active torsions:
  status: ('A' for Active; 'I' for Inactive)
    1  A    between atoms: C_2  and  C_44
    2  A    between atoms: C_4  and  C_40
    3  A    between atoms: N_8  and  C_43
    4  A    between atoms: C_16  and  C_17
    5  A    between atoms: C_19  and  C_40
    6  A    between atoms: C_27  and  C_54
    7  A    between atoms: N_32  and  C_48
    8  A    between atoms: C_33  and  N_36
    9  A    between atoms: C_33  and  C_52
   10  A    between atoms: C_35  and  C_43
   11  A    between atoms: C_35  and  C_51
   12  A    between atoms: C_51  and  C_54
                            x       y       z     vdW  Elec       q    Type
                         _______ _______ _______ _____ _____    ______ ____

>  <TORSDO>
F 12

$$$$
=
 OpenBabel10272401393D

 55 63  0  0  1  0  0  0  0  0999 V2000
  189.9240  176.5790  140.6690 C   0  0  0  0  0  3  0  0  0  0  0  0
  187.7670  178.2720  141.2020 C   0  0  0  0  0  0  0  0  0  0  0  0
  188.4230  178.3440  139.9670 C   0  0  0  0  0  3  0  0  0  0  0  0
  189.2770  176.5180  141.9070 C   0  0  0  0  0  3  0  0  0  0  0  0
  189.5090  177.5040  139.6990 C   0  0  0  0  0  0  0  0  0  0  0  0
  188.2000  177.3660  142.1730 C   0  0  0  0  0  3  0  0  0  0  0  0
  190.1550  177.5520  138.3480 C   0  0  2  0  0  3  0  0  0  0  0  0
  188.6540  174.4350  137.5180 C   0  0  0  0  0  1  0  0  0  0  0  0
  190.5900  174.0370  136.0210 C   0  0  2  0  0  3  0  0  0  0  0  0
  189.1690  177.1420  137.2660 C   0  0  2  0  0  3  0  0  0  0  0  0
  189.3520  174.8980  136.2380 C   0  0  2  0  0  3  0  0  0  0  0  0
  191.6080  176.4800  138.2420 S   0  0  0  0  0  0  0  0  0  0  0  0
  191.7200  174.9520  135.9200 N   0  0  0  0  0  0  0  0  0  0  0  0
  189.8150  176.3010  136.2480 N   0  0  2  0  0  0  0  0  0  0  0  0
  191.2590  176.2360  136.4660 C   0  0  1  0  0  3  0  0  0  0  0  0
  191.2160  171.8340  134.9830 C   0  0  0  0  0  1  0  0  0  0  0  0
  190.4900  173.1510  134.7720 C   0  0  0  0  0  3  0  0  0  0  0  0
  189.0510  172.8930  134.3490 C   0  0  0  0  0  1  0  0  0  0  0  0
  189.0210  179.6350  137.2880 C   0  0  0  0  0  1  0  0  0  0  0  0
  188.5000  178.3670  136.6390 C   0  0  2  0  0  3  0  0  0  0  0  0
  186.9790  178.3040  136.7370 C   0  0  0  0  0  2  0  0  0  0  0  0
  186.3990  177.5510  135.5540 C   0  0  0  0  0  1  0  0  0  0  0  0
  192.9920  174.4430  136.4690 C   0  0  0  0  0  2  0  0  0  0  0  0
  195.4940  174.7380  136.4870 C   0  0  0  0  0  2  0  0  0  0  0  0
  194.4210  173.7120  134.5710 C   0  0  0  0  0  2  0  0  0  0  0  0
  195.9160  173.5850  134.3890 C   0  0  0  0  0  2  0  0  0  0  0  0
  196.5310  173.9250  135.7330 C   0  0  2  0  0  3  0  0  0  0  0  0
  194.2350  174.7710  135.6310 C   0  0  1  0  0  3  0  0  0  0  0  0
  198.0350  171.9830  136.3690 C   0  0  0  0  0  0  0  0  0  0  0  0
  198.2390  170.7530  137.1800 C   0  0  0  0  0  1  0  0  0  0  0  0
  196.8060  172.7050  136.4840 N   0  0  0  0  0  2  0  0  0  0  0  0
  198.9460  172.3790  135.5920 O   0  0  0  0  0  0  0  0  0  0  0  0
  186.5840  179.1350  141.4740 C   0  0  0  0  0  2  0  0  0  0  0  0
  185.2880  178.3800  141.2150 C   0  0  0  0  0  2  0  0  0  0  0  0
  184.9030  178.4970  139.7460 C   0  0  0  0  0  2  0  0  0  0  0  0
  183.4190  178.8080  139.6160 C   0  0  0  0  0  2  0  0  0  0  0  0
  182.1740  176.4740  138.2050 C   0  0  2  0  0  0  0  0  0  0  0  0
  182.2560  174.9870  135.7080 C   0  0  2  0  0  3  0  0  0  0  0  0
  182.8650  176.4290  135.7890 C   0  0  2  0  0  0  0  0  0  0  0  0
  180.2390  177.5810  141.4640 O   0  0  0  0  0  0  0  0  0  0  0  0
  182.6240  177.8240  140.3430 N   0  0  0  0  0  0  0  0  0  0  0  0
  180.0120  176.2600  136.1380 C   0  0  0  0  0  2  0  0  0  0  0  0
  181.9270  177.5890  135.4330 C   0  0  0  0  0  2  0  0  0  0  0  0
  183.0730  175.5660  134.5780 C   0  0  0  0  0  2  0  0  0  0  0  0
  180.9660  178.3490  140.3970 S   0  0  0  0  0  0  0  0  0  0  0  0
  181.2820  177.6960  137.8190 C   0  0  1  0  0  3  0  0  0  0  0  0
  180.8910  179.8170  140.7080 O   0  0  0  0  0  0  0  0  0  0  0  0
  180.7440  177.5800  136.3770 C   0  0  2  0  0  3  0  0  0  0  0  0
  181.3660  175.1590  137.9630 C   0  0  2  0  0  3  0  0  0  0  0  0
  182.6840  176.5150  139.6720 C   0  0  0  0  0  2  0  0  0  0  0  0
  180.9270  175.0710  136.4900 C   0  0  2  0  0  3  0  0  0  0  0  0
  180.1960  178.0250  138.8280 C   0  0  0  0  0  2  0  0  0  0  0  0
  184.2960  175.4420  137.5100 O   0  0  0  0  0  1  0  0  0  0  0  0
  180.1950  174.9390  138.9170 C   0  0  0  0  0  1  0  0  0  0  0  0
  183.4030  176.4860  137.2360 C   0  0  2  0  0  3  0  0  0  0  0  0
  1  4  1  0  0  0  0
  2 33  1  0  0  0  0
  2  6  1  0  0  0  0
  3  2  2  0  0  0  0
  4  6  2  0  0  0  0
  5  3  1  0  0  0  0
  5  1  2  0  0  0  0
  7  5  1  1  0  0  0
  9 17  1  6  0  0  0
  9 11  1  0  0  0  0
 10 20  1  6  0  0  0
 10  7  1  0  0  0  0
 11 14  1  0  0  0  0
 11  8  1  1  0  0  0
 12  7  1  0  0  0  0
 13  9  1  0  0  0  0
 13 15  1  0  0  0  0
 13 23  1  0  0  0  0
 14 15  1  0  0  0  0
 14 10  1  0  0  0  0
 15 12  1  0  0  0  0
 17 16  1  0  0  0  0
 18 17  1  0  0  0  0
 20 21  1  0  0  0  0
 20 19  1  0  0  0  0
 22 21  1  0  0  0  0
 25 28  1  0  0  0  0
 26 25  1  0  0  0  0
 26 27  1  0  0  0  0
 27 31  1  0  0  0  0
 27 24  1  0  0  0  0
 28 23  1  0  0  0  0
 28 24  1  0  0  0  0
 29 31  1  0  0  0  0
 29 30  1  0  0  0  0
 32 29  2  0  0  0  0
 34 33  1  0  0  0  0
 35 34  1  0  0  0  0
 36 35  1  0  0  0  0
 36 41  1  0  0  0  0
 37 50  1  0  0  0  0
 38 39  1  0  0  0  0
 38 51  1  0  0  0  0
 39 55  1  0  0  0  0
 41 45  1  0  0  0  0
 42 48  1  0  0  0  0
 42 51  1  0  0  0  0
 43 39  1  0  0  0  0
 43 48  1  0  0  0  0
 44 38  1  0  0  0  0
 44 39  1  0  0  0  0
 45 47  2  0  0  0  0
 45 40  2  0  0  0  0
 46 37  1  0  0  0  0
 46 52  1  0  0  0  0
 48 46  1  0  0  0  0
 49 37  1  0  0  0  0
 49 54  1  0  0  0  0
 50 41  1  0  0  0  0
 51 49  1  0  0  0  0
 52 45  1  0  0  0  0
 55 53  1  0  0  0  0
 55 37  1  0  0  0  0
M  END
>  <MODEL>
7

>  <REMARK>
 VINA RESULT:      -5.6      3.804      8.557
  Name = 
  12 active torsions:
  status: ('A' for Active; 'I' for Inactive)
    1  A    between atoms: C_2  and  C_44
    2  A    between atoms: C_4  and  C_40
    3  A    between atoms: N_8  and  C_43
    4  A    between atoms: C_16  and  C_17
    5  A    between atoms: C_19  and  C_40
    6  A    between atoms: C_27  and  C_54
    7  A    between atoms: N_32  and  C_48
    8  A    between atoms: C_33  and  N_36
    9  A    between atoms: C_33  and  C_52
   10  A    between atoms: C_35  and  C_43
   11  A    between atoms: C_35  and  C_51
   12  A    between atoms: C_51  and  C_54
                            x       y       z     vdW  Elec       q    Type
                         _______ _______ _______ _____ _____    ______ ____

>  <TORSDO>
F 12

$$$$
=
 OpenBabel10272401393D

 55 63  0  0  1  0  0  0  0  0999 V2000
  181.3920  178.6440  141.8880 C   0  0  0  0  0  3  0  0  0  0  0  0
  183.6420  178.7700  143.5400 C   0  0  0  0  0  0  0  0  0  0  0  0
  183.7980  178.6340  142.1550 C   0  0  0  0  0  3  0  0  0  0  0  0
  181.2370  178.7660  143.2730 C   0  0  0  0  0  3  0  0  0  0  0  0
  182.6740  178.5620  141.3250 C   0  0  0  0  0  0  0  0  0  0  0  0
  182.3620  178.8270  144.0970 C   0  0  0  0  0  3  0  0  0  0  0  0
  182.8660  178.4820  139.8410 C   0  0  2  0  0  3  0  0  0  0  0  0
  180.5180  175.8130  139.6800 C   0  0  0  0  0  1  0  0  0  0  0  0
  181.7570  175.0020  137.6910 C   0  0  2  0  0  3  0  0  0  0  0  0
  181.5290  178.3300  139.1330 C   0  0  2  0  0  3  0  0  0  0  0  0
  180.8740  176.1230  138.2240 C   0  0  2  0  0  3  0  0  0  0  0  0
  183.9330  177.1030  139.3600 S   0  0  0  0  0  0  0  0  0  0  0  0
  182.9770  175.6310  137.2010 N   0  0  0  0  0  0  0  0  0  0  0  0
  181.6220  177.3800  138.0150 N   0  0  2  0  0  0  0  0  0  0  0  0
  183.0090  176.9780  137.7890 C   0  0  1  0  0  3  0  0  0  0  0  0
  181.2500  174.8590  135.2320 C   0  0  0  0  0  1  0  0  0  0  0  0
  181.0800  174.1850  136.5830 C   0  0  0  0  0  3  0  0  0  0  0  0
  181.5850  172.7510  136.5190 C   0  0  0  0  0  1  0  0  0  0  0  0
  180.4860  179.5890  137.2460 C   0  0  0  0  0  1  0  0  0  0  0  0
  180.9940  179.6880  138.6720 C   0  0  2  0  0  3  0  0  0  0  0  0
  182.0430  180.7890  138.7890 C   0  0  0  0  0  2  0  0  0  0  0  0
  181.5790  182.0440  138.0730 C   0  0  0  0  0  1  0  0  0  0  0  0
  184.2060  174.8310  137.3660 C   0  0  0  0  0  2  0  0  0  0  0  0
  186.5930  174.4080  136.6790 C   0  0  0  0  0  2  0  0  0  0  0  0
  184.8380  174.3700  135.0070 C   0  0  0  0  0  2  0  0  0  0  0  0
  186.1160  173.9010  134.3500 C   0  0  0  0  0  2  0  0  0  0  0  0
  187.0890  173.6200  135.4790 C   0  0  2  0  0  3  0  0  0  0  0  0
  185.2710  175.0510  136.2830 C   0  0  1  0  0  3  0  0  0  0  0  0
  188.0930  171.2920  135.3820 C   0  0  0  0  0  0  0  0  0  0  0  0
  188.0100  169.8610  135.7770 C   0  0  0  0  0  1  0  0  0  0  0  0
  187.0760  172.2010  135.8130 N   0  0  0  0  0  2  0  0  0  0  0  0
  189.0580  171.6930  134.6760 O   0  0  0  0  0  0  0  0  0  0  0  0
  184.8360  178.8900  144.4210 C   0  0  0  0  0  2  0  0  0  0  0  0
  184.5840  178.2340  145.7710 C   0  0  0  0  0  2  0  0  0  0  0  0
  185.8510  178.2760  146.6150 C   0  0  0  0  0  2  0  0  0  0  0  0
  187.0460  177.8180  145.7920 C   0  0  0  0  0  2  0  0  0  0  0  0
  189.3830  178.1390  143.9430 C   0  0  2  0  0  0  0  0  0  0  0  0
  190.1460  177.9390  141.1440 C   0  0  2  0  0  3  0  0  0  0  0  0
  188.8320  177.2540  141.6560 C   0  0  2  0  0  0  0  0  0  0  0  0
  190.3700  178.1090  147.7660 O   0  0  0  0  0  0  0  0  0  0  0  0
  188.2580  178.5070  146.2220 N   0  0  0  0  0  0  0  0  0  0  0  0
  191.2870  176.1790  142.7070 C   0  0  0  0  0  2  0  0  0  0  0  0
  188.9550  175.7980  142.1200 C   0  0  0  0  0  2  0  0  0  0  0  0
  189.1420  177.3390  140.1890 C   0  0  0  0  0  2  0  0  0  0  0  0
  189.3350  177.3650  146.9720 S   0  0  0  0  0  0  0  0  0  0  0  0
  189.4340  176.6460  144.3940 C   0  0  1  0  0  3  0  0  0  0  0  0
  188.5730  176.4520  147.8900 O   0  0  0  0  0  0  0  0  0  0  0  0
  189.9410  175.7220  143.2660 C   0  0  2  0  0  3  0  0  0  0  0  0
  190.7900  178.5550  143.4050 C   0  0  2  0  0  3  0  0  0  0  0  0
  188.9420  179.1150  145.0690 C   0  0  0  0  0  2  0  0  0  0  0  0
  191.1990  177.6440  142.2330 C   0  0  2  0  0  3  0  0  0  0  0  0
  190.1500  176.4110  145.7130 C   0  0  0  0  0  2  0  0  0  0  0  0
  188.2060  179.5320  142.2920 O   0  0  0  0  0  1  0  0  0  0  0  0
  191.8850  178.6400  144.4660 C   0  0  0  0  0  1  0  0  0  0  0  0
  188.3580  178.2220  142.7640 C   0  0  2  0  0  3  0  0  0  0  0  0
  1  4  1  0  0  0  0
  2  6  1  0  0  0  0
  2 33  1  0  0  0  0
  3  2  2  0  0  0  0
  4  6  2  0  0  0  0
  5  1  2  0  0  0  0
  5  3  1  0  0  0  0
  7  5  1  1  0  0  0
  9 17  1  6  0  0  0
  9 11  1  0  0  0  0
 10 20  1  6  0  0  0
 10  7  1  0  0  0  0
 11  8  1  1  0  0  0
 12  7  1  0  0  0  0
 13 23  1  0  0  0  0
 13  9  1  0  0  0  0
 13 15  1  0  0  0  0
 14 11  1  0  0  0  0
 14 10  1  0  0  0  0
 15 14  1  0  0  0  0
 15 12  1  0  0  0  0
 16 17  1  0  0  0  0
 18 17  1  0  0  0  0
 19 20  1  0  0  0  0
 20 21  1  0  0  0  0
 22 21  1  0  0  0  0
 25 28  1  0  0  0  0
 26 25  1  0  0  0  0
 26 27  1  0  0  0  0
 27 31  1  0  0  0  0
 27 24  1  0  0  0  0
 28 24  1  0  0  0  0
 28 23  1  0  0  0  0
 29 30  1  0  0  0  0
 29 31  1  0  0  0  0
 32 29  2  0  0  0  0
 33 34  1  0  0  0  0
 34 35  1  0  0  0  0
 36 41  1  0  0  0  0
 36 35  1  0  0  0  0
 37 46  1  0  0  0  0
 37 50  1  0  0  0  0
 38 39  1  0  0  0  0
 38 51  1  0  0  0  0
 39 43  1  0  0  0  0
 39 55  1  0  0  0  0
 41 45  1  0  0  0  0
 42 48  1  0  0  0  0
 43 48  1  0  0  0  0
 44 38  1  0  0  0  0
 44 39  1  0  0  0  0
 45 40  2  0  0  0  0
 45 47  2  0  0  0  0
 46 52  1  0  0  0  0
 48 46  1  0  0  0  0
 49 37  1  0  0  0  0
 49 54  1  0  0  0  0
 50 41  1  0  0  0  0
 51 42  1  0  0  0  0
 51 49  1  0  0  0  0
 52 45  1  0  0  0  0
 53 55  1  0  0  0  0
 55 37  1  0  0  0  0
M  END
>  <MODEL>
8

>  <REMARK>
 VINA RESULT:      -5.3      2.078      2.519
  Name = 
  12 active torsions:
  status: ('A' for Active; 'I' for Inactive)
    1  A    between atoms: C_2  and  C_44
    2  A    between atoms: C_4  and  C_40
    3  A    between atoms: N_8  and  C_43
    4  A    between atoms: C_16  and  C_17
    5  A    between atoms: C_19  and  C_40
    6  A    between atoms: C_27  and  C_54
    7  A    between atoms: N_32  and  C_48
    8  A    between atoms: C_33  and  N_36
    9  A    between atoms: C_33  and  C_52
   10  A    between atoms: C_35  and  C_43
   11  A    between atoms: C_35  and  C_51
   12  A    between atoms: C_51  and  C_54
                            x       y       z     vdW  Elec       q    Type
                         _______ _______ _______ _____ _____    ______ ____

>  <TORSDO>
F 12

$$$$
=
 OpenBabel10272401393D

 55 63  0  0  1  0  0  0  0  0999 V2000
  187.1770  174.9650  137.1030 C   0  0  0  0  0  3  0  0  0  0  0  0
  184.9150  175.2970  135.4970 C   0  0  0  0  0  0  0  0  0  0  0  0
  185.6820  176.4100  135.8630 C   0  0  0  0  0  3  0  0  0  0  0  0
  186.4010  173.8560  136.7490 C   0  0  0  0  0  3  0  0  0  0  0  0
  186.8100  176.2500  136.6740 C   0  0  0  0  0  0  0  0  0  0  0  0
  185.2710  174.0240  135.9480 C   0  0  0  0  0  3  0  0  0  0  0  0
  187.6530  177.4460  136.9990 C   0  0  2  0  0  3  0  0  0  0  0  0
  189.7600  175.4130  139.0220 C   0  0  0  0  0  1  0  0  0  0  0  0
  190.2210  177.4430  140.3700 C   0  0  2  0  0  3  0  0  0  0  0  0
  189.1310  177.0990  136.9200 C   0  0  2  0  0  3  0  0  0  0  0  0
  190.4240  176.7910  139.0080 C   0  0  2  0  0  3  0  0  0  0  0  0
  187.3020  178.1060  138.6460 S   0  0  0  0  0  0  0  0  0  0  0  0
  189.5750  178.7260  140.1250 N   0  0  0  0  0  0  0  0  0  0  0  0
  189.8860  177.7380  138.0080 N   0  0  2  0  0  0  0  0  0  0  0  0
  189.0380  178.6610  138.7580 C   0  0  1  0  0  3  0  0  0  0  0  0
  191.5790  176.7220  142.3590 C   0  0  0  0  0  1  0  0  0  0  0  0
  191.5330  177.6300  141.1440 C   0  0  0  0  0  3  0  0  0  0  0  0
  192.7630  177.4060  140.2760 C   0  0  0  0  0  1  0  0  0  0  0  0
  188.7470  178.3670  134.8030 C   0  0  0  0  0  1  0  0  0  0  0  0
  189.7080  177.4620  135.5500 C   0  0  2  0  0  3  0  0  0  0  0  0
  190.0320  176.2260  134.7180 C   0  0  0  0  0  2  0  0  0  0  0  0
  191.4880  175.8320  134.8940 C   0  0  0  0  0  1  0  0  0  0  0  0
  188.6230  179.1590  141.1670 C   0  0  0  0  0  2  0  0  0  0  0  0
  187.9910  177.3870  142.8420 C   0  0  0  0  0  2  0  0  0  0  0  0
  186.2700  178.7930  141.8750 C   0  0  0  0  0  2  0  0  0  0  0  0
  185.6340  177.9660  142.9690 C   0  0  0  0  0  2  0  0  0  0  0  0
  186.7800  177.3640  143.7580 C   0  0  2  0  0  3  0  0  0  0  0  0
  187.5790  178.1080  141.5660 C   0  0  1  0  0  3  0  0  0  0  0  0
  186.2530  178.1590  146.1090 C   0  0  0  0  0  0  0  0  0  0  0  0
  186.6230  179.0150  147.2680 C   0  0  0  0  0  1  0  0  0  0  0  0
  187.0670  178.1800  144.9330 N   0  0  0  0  0  2  0  0  0  0  0  0
  185.2310  177.4230  146.1740 O   0  0  0  0  0  0  0  0  0  0  0  0
  183.7380  175.4590  134.6000 C   0  0  0  0  0  2  0  0  0  0  0  0
  183.0590  174.1210  134.3460 C   0  0  0  0  0  2  0  0  0  0  0  0
  181.5830  174.2090  134.7130 C   0  0  0  0  0  2  0  0  0  0  0  0
  181.3370  175.4070  135.6190 C   0  0  0  0  0  2  0  0  0  0  0  0
  181.1480  177.0200  138.1380 C   0  0  2  0  0  0  0  0  0  0  0  0
  181.9680  179.5490  139.3160 C   0  0  2  0  0  3  0  0  0  0  0  0
  182.6950  178.9980  138.0410 C   0  0  2  0  0  0  0  0  0  0  0  0
  179.9820  173.2700  138.5570 O   0  0  0  0  0  0  0  0  0  0  0  0
  180.3680  175.0720  136.6570 N   0  0  0  0  0  0  0  0  0  0  0  0
  183.0290  177.4360  140.4370 C   0  0  0  0  0  2  0  0  0  0  0  0
  183.9320  178.1240  138.2820 C   0  0  0  0  0  2  0  0  0  0  0  0
  182.9600  180.3870  138.5460 C   0  0  0  0  0  2  0  0  0  0  0  0
  181.0730  173.9170  137.7520 S   0  0  0  0  0  0  0  0  0  0  0  0
  182.4350  176.1540  138.3140 C   0  0  1  0  0  3  0  0  0  0  0  0
  181.8170  172.8580  136.9890 O   0  0  0  0  0  0  0  0  0  0  0  0
  183.5320  176.9100  139.0930 C   0  0  2  0  0  3  0  0  0  0  0  0
  180.6680  177.5080  139.5420 C   0  0  2  0  0  3  0  0  0  0  0  0
  179.9900  176.2750  137.4170 C   0  0  0  0  0  2  0  0  0  0  0  0
  181.7820  178.3180  140.2300 C   0  0  2  0  0  3  0  0  0  0  0  0
  182.1840  174.7580  138.8570 C   0  0  0  0  0  2  0  0  0  0  0  0
  180.4650  179.1130  137.0430 O   0  0  0  0  0  1  0  0  0  0  0  0
  180.1210  176.4100  140.4520 C   0  0  0  0  0  1  0  0  0  0  0  0
  181.5560  178.2710  137.2920 C   0  0  2  0  0  3  0  0  0  0  0  0
  2  3  2  0  0  0  0
  2  6  1  0  0  0  0
  3  5  1  0  0  0  0
  4  1  1  0  0  0  0
  5  1  2  0  0  0  0
  6  4  2  0  0  0  0
  7  5  1  1  0  0  0
  7 12  1  0  0  0  0
  9 17  1  6  0  0  0
 10 20  1  6  0  0  0
 10  7  1  0  0  0  0
 10 14  1  0  0  0  0
 11  8  1  1  0  0  0
 11  9  1  0  0  0  0
 12 15  1  0  0  0  0
 13  9  1  0  0  0  0
 13 23  1  0  0  0  0
 14 15  1  0  0  0  0
 14 11  1  0  0  0  0
 15 13  1  0  0  0  0
 17 16  1  0  0  0  0
 18 17  1  0  0  0  0
 19 20  1  0  0  0  0
 21 22  1  0  0  0  0
 21 20  1  0  0  0  0
 23 28  1  0  0  0  0
 24 27  1  0  0  0  0
 25 26  1  0  0  0  0
 26 27  1  0  0  0  0
 27 31  1  0  0  0  0
 28 25  1  0  0  0  0
 28 24  1  0  0  0  0
 29 32  2  0  0  0  0
 29 30  1  0  0  0  0
 31 29  1  0  0  0  0
 33  2  1  0  0  0  0
 34 33  1  0  0  0  0
 34 35  1  0  0  0  0
 35 36  1  0  0  0  0
 36 41  1  0  0  0  0
 37 46  1  0  0  0  0
 37 49  1  0  0  0  0
 38 51  1  0  0  0  0
 39 43  1  0  0  0  0
 39 44  1  0  0  0  0
 39 38  1  0  0  0  0
 41 50  1  0  0  0  0
 41 45  1  0  0  0  0
 43 48  1  0  0  0  0
 44 38  1  0  0  0  0
 45 40  2  0  0  0  0
 45 52  1  0  0  0  0
 46 52  1  0  0  0  0
 46 48  1  0  0  0  0
 47 45  2  0  0  0  0
 48 42  1  0  0  0  0
 49 51  1  0  0  0  0
 49 54  1  0  0  0  0
 50 37  1  0  0  0  0
 51 42  1  0  0  0  0
 53 55  1  0  0  0  0
 55 39  1  0  0  0  0
 55 37  1  0  0  0  0
M  END
>  <MODEL>
9

>  <REMARK>
 VINA RESULT:      -4.8      3.061      9.433
  Name = 
  12 active torsions:
  status: ('A' for Active; 'I' for Inactive)
    1  A    between atoms: C_2  and  C_44
    2  A    between atoms: C_4  and  C_40
    3  A    between atoms: N_8  and  C_43
    4  A    between atoms: C_16  and  C_17
    5  A    between atoms: C_19  and  C_40
    6  A    between atoms: C_27  and  C_54
    7  A    between atoms: N_32  and  C_48
    8  A    between atoms: C_33  and  N_36
    9  A    between atoms: C_33  and  C_52
   10  A    between atoms: C_35  and  C_43
   11  A    between atoms: C_35  and  C_51
   12  A    between atoms: C_51  and  C_54
                            x       y       z     vdW  Elec       q    Type
                         _______ _______ _______ _____ _____    ______ ____

>  <TORSDO>
F 12

$$$$
