=
 OpenBabel10262423413D

 34 39  0  0  1  0  0  0  0  0999 V2000
  184.4610  178.4330  142.2750 C   0  0  0  0  0  0  0  0  0  0  0  0
  185.5310  178.8120  140.0700 C   0  0  0  0  0  3  0  0  0  0  0  0
  186.8980  178.1970  142.1750 C   0  0  0  0  0  0  0  0  0  0  0  0
  189.2440  177.6170  142.1340 C   0  0  0  0  0  0  0  0  0  0  0  0
  182.7150  177.7550  140.6580 C   0  0  0  0  0  3  0  0  0  0  0  0
  183.3730  177.6810  139.5020 C   0  0  0  0  0  3  0  0  0  0  0  0
  188.2430  177.8660  140.0590 C   0  0  0  0  0  3  0  0  0  0  0  0
  185.5780  178.4790  141.5180 C   0  0  0  0  0  0  0  0  0  0  0  0
  190.5050  177.2950  141.0770 S   0  0  0  0  0  0  0  0  0  0  0  0
  183.0990  178.7200  141.7280 C   0  0  0  0  0  2  0  0  0  0  0  0
  186.9710  178.1400  143.5940 C   0  0  0  0  0  0  0  0  0  0  0  0
  184.5520  178.1420  143.6380 O   0  0  0  0  0  0  0  0  0  0  0  0
  184.5840  178.4590  139.1920 C   0  0  0  0  0  3  0  0  0  0  0  0
  189.3110  177.5850  143.4820 N   0  0  0  0  0  0  0  0  0  0  0  0
  188.2100  177.8520  144.2410 C   0  0  0  0  0  0  0  0  0  0  0  0
  189.5470  177.5360  139.7040 C   0  0  0  0  0  0  0  0  0  0  0  0
  188.0780  177.9160  141.4530 C   0  0  0  0  0  0  0  0  0  0  0  0
  185.7280  178.4240  144.3890 C   0  0  0  0  0  2  0  0  0  0  0  0
  189.7340  177.5160  147.7120 C   0  0  0  0  0  0  0  0  0  0  0  0
  188.6010  177.6590  148.5160 C   0  0  0  0  0  3  0  0  0  0  0  0
  188.3710  177.8120  145.7170 C   0  0  0  0  0  0  0  0  0  0  0  0
  187.3510  177.8700  147.9270 C   0  0  0  0  0  3  0  0  0  0  0  0
  189.6180  177.5860  146.3210 C   0  0  0  0  0  3  0  0  0  0  0  0
  187.2370  177.9410  146.5360 C   0  0  0  0  0  3  0  0  0  0  0  0
  190.9450  177.3050  148.2810 F   0  0  0  0  0  0  0  0  0  0  0  0
  190.5690  176.3570  137.9470 N   0  0  0  0  0  0  0  0  0  0  0  0
  189.9960  177.4150  138.3560 N   0  0  0  0  0  0  0  0  0  0  0  0
  193.4640  176.2810  137.0990 C   0  0  0  0  0  1  0  0  0  0  0  0
  191.0210  176.2470  136.5700 C   0  0  1  0  0  3  0  0  0  0  0  0
  192.3330  175.4590  136.5120 C   0  0  1  0  0  3  0  0  0  0  0  0
  191.6220  174.3680  134.4870 O   0  0  0  0  0  0  0  0  0  0  0  0
  190.5220  175.2340  134.3460 C   0  0  0  0  0  2  0  0  0  0  0  0
  189.9460  175.5640  135.7220 C   0  0  0  0  0  2  0  0  0  0  0  0
  192.6610  175.1270  135.0550 C   0  0  0  0  0  2  0  0  0  0  0  0
  1 12  1  0  0  0  0
  2  8  1  0  0  0  0
  3 11  1  0  0  0  0
  4 14  2  0  0  0  0
  5 10  1  0  0  0  0
  6  5  2  0  0  0  0
  7 17  1  0  0  0  0
  8  3  1  0  0  0  0
  8  1  2  0  0  0  0
  9  4  1  0  0  0  0
 10  1  1  0  0  0  0
 11 15  2  0  0  0  0
 11 18  1  0  0  0  0
 12 18  1  0  0  0  0
 13  6  1  0  0  0  0
 13  2  2  0  0  0  0
 14 15  1  0  0  0  0
 15 21  1  0  0  0  0
 16  7  2  0  0  0  0
 16  9  1  0  0  0  0
 17  4  1  0  0  0  0
 17  3  2  0  0  0  0
 19 25  1  0  0  0  0
 19 20  1  0  0  0  0
 21 23  1  0  0  0  0
 21 24  2  0  0  0  0
 22 20  2  0  0  0  0
 23 19  2  0  0  0  0
 24 22  1  0  0  0  0
 26 27  2  0  0  0  0
 27 16  1  0  0  0  0
 29 26  1  1  0  0  0
 30 29  1  0  0  0  0
 30 28  1  6  0  0  0
 31 34  1  0  0  0  0
 32 31  1  0  0  0  0
 32 33  1  0  0  0  0
 33 29  1  0  0  0  0
 34 30  1  0  0  0  0
M  END
>  <MODEL>
1

>  <REMARK>
 VINA RESULT:     -10.1      0.000      0.000
  Name = 
  3 active torsions:
  status: ('A' for Active; 'I' for Inactive)
    1  A    between atoms: N_3  and  C_13
    2  A    between atoms: C_12  and  C_28
    3  A    between atoms: N_17  and  C_29
                            x       y       z     vdW  Elec       q    Type
                         _______ _______ _______ _____ _____    ______ ____

>  <TORSDO>
F 3

$$$$
=
 OpenBabel10262423413D

 34 39  0  0  1  0  0  0  0  0999 V2000
  188.6150  177.1310  145.3820 C   0  0  0  0  0  0  0  0  0  0  0  0
  190.2230  176.3980  143.6410 C   0  0  0  0  0  3  0  0  0  0  0  0
  187.9370  177.4470  143.0470 C   0  0  0  0  0  0  0  0  0  0  0  0
  187.2990  178.1090  140.8120 C   0  0  0  0  0  0  0  0  0  0  0  0
  190.8190  177.4260  146.4660 C   0  0  0  0  0  3  0  0  0  0  0  0
  191.6810  177.3150  145.4570 C   0  0  0  0  0  3  0  0  0  0  0  0
  189.5030  177.4400  141.0620 C   0  0  0  0  0  3  0  0  0  0  0  0
  188.9320  176.9940  144.0760 C   0  0  0  0  0  0  0  0  0  0  0  0
  187.9140  178.2840  139.2620 S   0  0  0  0  0  0  0  0  0  0  0  0
  189.5210  176.6910  146.4860 C   0  0  0  0  0  2  0  0  0  0  0  0
  186.6120  177.7670  143.4550 C   0  0  0  0  0  0  0  0  0  0  0  0
  187.3800  177.6710  145.7470 O   0  0  0  0  0  0  0  0  0  0  0  0
  191.4170  176.5440  144.2290 C   0  0  0  0  0  3  0  0  0  0  0  0
  186.0370  178.3910  141.2010 N   0  0  0  0  0  0  0  0  0  0  0  0
  185.6540  178.2210  142.4990 C   0  0  0  0  0  0  0  0  0  0  0  0
  189.4570  177.7540  139.7080 C   0  0  0  0  0  0  0  0  0  0  0  0
  188.2620  177.6400  141.6880 C   0  0  0  0  0  0  0  0  0  0  0  0
  186.2410  177.5820  144.8980 C   0  0  0  0  0  2  0  0  0  0  0  0
  181.9150  178.8710  142.2210 C   0  0  0  0  0  0  0  0  0  0  0  0
  181.6090  179.2340  143.5340 C   0  0  0  0  0  3  0  0  0  0  0  0
  184.2450  178.5390  142.8430 C   0  0  0  0  0  0  0  0  0  0  0  0
  182.6150  179.2590  144.5030 C   0  0  0  0  0  3  0  0  0  0  0  0
  183.2260  178.5320  141.8770 C   0  0  0  0  0  3  0  0  0  0  0  0
  183.9260  178.9190  144.1580 C   0  0  0  0  0  3  0  0  0  0  0  0
  180.9410  178.8520  141.2790 F   0  0  0  0  0  0  0  0  0  0  0  0
  190.7660  176.5970  138.1360 N   0  0  0  0  0  0  0  0  0  0  0  0
  190.5750  177.6440  138.8290 N   0  0  0  0  0  0  0  0  0  0  0  0
  193.6430  176.5290  139.0450 C   0  0  0  0  0  1  0  0  0  0  0  0
  191.9090  176.4980  137.2440 C   0  0  1  0  0  3  0  0  0  0  0  0
  193.0350  175.7120  137.9210 C   0  0  1  0  0  3  0  0  0  0  0  0
  193.5770  174.6370  135.8360 O   0  0  0  0  0  0  0  0  0  0  0  0
  192.7380  175.5040  135.1120 C   0  0  0  0  0  2  0  0  0  0  0  0
  191.4920  175.8230  135.9350 C   0  0  0  0  0  2  0  0  0  0  0  0
  194.1200  175.3920  136.8920 C   0  0  0  0  0  2  0  0  0  0  0  0
  1 12  1  0  0  0  0
  1 10  1  0  0  0  0
  2  8  1  0  0  0  0
  2 13  2  0  0  0  0
  3 11  1  0  0  0  0
  3  8  1  0  0  0  0
  4 14  2  0  0  0  0
  4 17  1  0  0  0  0
  5 10  1  0  0  0  0
  6  5  2  0  0  0  0
  7 17  1  0  0  0  0
  8  1  2  0  0  0  0
  9 16  1  0  0  0  0
  9  4  1  0  0  0  0
 11 18  1  0  0  0  0
 13  6  1  0  0  0  0
 14 15  1  0  0  0  0
 15 21  1  0  0  0  0
 15 11  2  0  0  0  0
 16  7  2  0  0  0  0
 17  3  2  0  0  0  0
 18 12  1  0  0  0  0
 19 20  1  0  0  0  0
 20 22  2  0  0  0  0
 21 24  2  0  0  0  0
 23 19  2  0  0  0  0
 23 21  1  0  0  0  0
 24 22  1  0  0  0  0
 25 19  1  0  0  0  0
 26 27  2  0  0  0  0
 27 16  1  0  0  0  0
 29 30  1  0  0  0  0
 29 26  1  1  0  0  0
 30 28  1  1  0  0  0
 31 34  1  0  0  0  0
 32 31  1  0  0  0  0
 32 33  1  0  0  0  0
 33 29  1  0  0  0  0
 34 30  1  0  0  0  0
M  END
>  <MODEL>
2

>  <REMARK>
 VINA RESULT:      -9.9      2.766      5.394
  Name = 
  3 active torsions:
  status: ('A' for Active; 'I' for Inactive)
    1  A    between atoms: N_3  and  C_13
    2  A    between atoms: C_12  and  C_28
    3  A    between atoms: N_17  and  C_29
                            x       y       z     vdW  Elec       q    Type
                         _______ _______ _______ _____ _____    ______ ____

>  <TORSDO>
F 3

$$$$
=
 OpenBabel10262423413D

 34 39  0  0  1  0  0  0  0  0999 V2000
  187.7830  178.0620  138.3320 C   0  0  0  0  0  0  0  0  0  0  0  0
  188.6820  178.2860  140.6340 C   0  0  0  0  0  3  0  0  0  0  0  0
  186.1600  178.5100  140.1140 C   0  0  0  0  0  0  0  0  0  0  0  0
  184.4410  178.6200  141.8090 C   0  0  0  0  0  0  0  0  0  0  0  0
  189.7890  176.6140  138.3160 C   0  0  0  0  0  3  0  0  0  0  0  0
  190.1030  176.5020  139.6050 C   0  0  0  0  0  3  0  0  0  0  0  0
  186.5760  178.1620  142.5840 C   0  0  0  0  0  3  0  0  0  0  0  0
  187.5680  178.2720  139.6490 C   0  0  0  0  0  0  0  0  0  0  0  0
  184.2070  178.4650  143.4620 S   0  0  0  0  0  0  0  0  0  0  0  0
  189.1460  177.8400  137.7590 C   0  0  0  0  0  2  0  0  0  0  0  0
  185.1420  178.7570  139.1510 C   0  0  0  0  0  0  0  0  0  0  0  0
  186.7110  178.0840  137.4380 O   0  0  0  0  0  0  0  0  0  0  0  0
  189.7760  177.5140  140.6240 C   0  0  0  0  0  3  0  0  0  0  0  0
  183.4830  178.8740  140.8920 N   0  0  0  0  0  0  0  0  0  0  0  0
  183.7930  178.9640  139.5670 C   0  0  0  0  0  0  0  0  0  0  0  0
  185.8410  178.1510  143.7640 C   0  0  0  0  0  0  0  0  0  0  0  0
  185.7690  178.4370  141.4680 C   0  0  0  0  0  0  0  0  0  0  0  0
  185.5270  178.8290  137.7010 C   0  0  0  0  0  2  0  0  0  0  0  0
  181.1430  180.8180  137.5610 C   0  0  0  0  0  0  0  0  0  0  0  0
  180.5240  179.7590  136.8930 C   0  0  0  0  0  3  0  0  0  0  0  0
  182.6840  179.2630  138.6250 C   0  0  0  0  0  0  0  0  0  0  0  0
  180.9740  178.4520  137.0930 C   0  0  0  0  0  3  0  0  0  0  0  0
  182.2120  180.5700  138.4270 C   0  0  0  0  0  3  0  0  0  0  0  0
  182.0450  178.2050  137.9570 C   0  0  0  0  0  3  0  0  0  0  0  0
  180.7040  182.0860  137.3740 F   0  0  0  0  0  0  0  0  0  0  0  0
  187.6090  177.5090  145.1730 N   0  0  0  0  0  0  0  0  0  0  0  0
  186.4060  177.8980  145.0490 N   0  0  0  0  0  0  0  0  0  0  0  0
  190.4870  176.7570  145.6860 C   0  0  0  0  0  1  0  0  0  0  0  0
  188.1720  177.2550  146.4880 C   0  0  1  0  0  3  0  0  0  0  0  0
  189.6390  177.6940  146.5240 C   0  0  1  0  0  3  0  0  0  0  0  0
  189.3660  178.5260  148.7670 O   0  0  0  0  0  0  0  0  0  0  0  0
  188.0990  177.9260  148.8900 C   0  0  0  0  0  2  0  0  0  0  0  0
  187.3620  177.9980  147.5540 C   0  0  0  0  0  2  0  0  0  0  0  0
  190.1420  177.6660  147.9680 C   0  0  0  0  0  2  0  0  0  0  0  0
  1  8  2  0  0  0  0
  3 17  1  0  0  0  0
  4  9  1  0  0  0  0
  5  6  2  0  0  0  0
  6 13  1  0  0  0  0
  7 16  2  0  0  0  0
  8  3  1  0  0  0  0
  8  2  1  0  0  0  0
  9 16  1  0  0  0  0
 10  5  1  0  0  0  0
 10  1  1  0  0  0  0
 11 15  1  0  0  0  0
 11  3  2  0  0  0  0
 12 18  1  0  0  0  0
 12  1  1  0  0  0  0
 13  2  2  0  0  0  0
 14  4  1  0  0  0  0
 15 14  2  0  0  0  0
 16 27  1  0  0  0  0
 17  4  2  0  0  0  0
 17  7  1  0  0  0  0
 18 11  1  0  0  0  0
 19 23  1  0  0  0  0
 20 22  1  0  0  0  0
 20 19  2  0  0  0  0
 21 15  1  0  0  0  0
 22 24  2  0  0  0  0
 23 21  2  0  0  0  0
 24 21  1  0  0  0  0
 25 19  1  0  0  0  0
 27 26  2  0  0  0  0
 29 26  1  6  0  0  0
 29 30  1  0  0  0  0
 29 33  1  0  0  0  0
 30 28  1  6  0  0  0
 30 34  1  0  0  0  0
 31 32  1  0  0  0  0
 33 32  1  0  0  0  0
 34 31  1  0  0  0  0
M  END
>  <MODEL>
3

>  <REMARK>
 VINA RESULT:      -9.9      4.217      9.178
  Name = 
  3 active torsions:
  status: ('A' for Active; 'I' for Inactive)
    1  A    between atoms: N_3  and  C_13
    2  A    between atoms: C_12  and  C_28
    3  A    between atoms: N_17  and  C_29
                            x       y       z     vdW  Elec       q    Type
                         _______ _______ _______ _____ _____    ______ ____

>  <TORSDO>
F 3

$$$$
=
 OpenBabel10262423413D

 34 39  0  0  1  0  0  0  0  0999 V2000
  185.7200  178.5280  144.5990 C   0  0  0  0  0  0  0  0  0  0  0  0
  185.6810  179.2020  142.2120 C   0  0  0  0  0  3  0  0  0  0  0  0
  187.7150  178.0110  143.2720 C   0  0  0  0  0  0  0  0  0  0  0  0
  189.5870  177.1590  142.0030 C   0  0  0  0  0  0  0  0  0  0  0  0
  183.3220  178.4130  144.0030 C   0  0  0  0  0  3  0  0  0  0  0  0
  183.3270  178.4890  142.6740 C   0  0  0  0  0  3  0  0  0  0  0  0
  187.8050  177.9420  140.7460 C   0  0  0  0  0  3  0  0  0  0  0  0
  186.3330  178.5830  143.3960 C   0  0  0  0  0  0  0  0  0  0  0  0
  190.1040  176.8970  140.4300 S   0  0  0  0  0  0  0  0  0  0  0  0
  184.3550  179.0890  144.8400 C   0  0  0  0  0  2  0  0  0  0  0  0
  188.4320  177.6630  144.4500 C   0  0  0  0  0  0  0  0  0  0  0  0
  186.3790  177.9620  145.6930 O   0  0  0  0  0  0  0  0  0  0  0  0
  184.3820  179.1540  141.8900 C   0  0  0  0  0  3  0  0  0  0  0  0
  190.2720  176.8490  143.1250 N   0  0  0  0  0  0  0  0  0  0  0  0
  189.7400  177.0970  144.3560 C   0  0  0  0  0  0  0  0  0  0  0  0
  188.6880  177.5280  139.7540 C   0  0  0  0  0  0  0  0  0  0  0  0
  188.3290  177.7330  142.0320 C   0  0  0  0  0  0  0  0  0  0  0  0
  187.7990  177.9370  145.7840 C   0  0  0  0  0  2  0  0  0  0  0  0
  191.2490  177.0950  147.8490 C   0  0  0  0  0  0  0  0  0  0  0  0
  192.2090  176.0890  147.7250 C   0  0  0  0  0  3  0  0  0  0  0  0
  190.5630  176.7430  145.5410 C   0  0  0  0  0  0  0  0  0  0  0  0
  192.3570  175.4130  146.5110 C   0  0  0  0  0  3  0  0  0  0  0  0
  190.4360  177.4240  146.7620 C   0  0  0  0  0  3  0  0  0  0  0  0
  191.5420  175.7420  145.4240 C   0  0  0  0  0  3  0  0  0  0  0  0
  191.1090  177.7560  149.0240 F   0  0  0  0  0  0  0  0  0  0  0  0
  188.0840  176.5980  137.6820 N   0  0  0  0  0  0  0  0  0  0  0  0
  188.4140  177.6220  138.3570 N   0  0  0  0  0  0  0  0  0  0  0  0
  187.5610  174.2550  135.8530 C   0  0  0  0  0  1  0  0  0  0  0  0
  187.8070  176.7090  136.2590 C   0  0  1  0  0  3  0  0  0  0  0  0
  186.8520  175.5950  135.8230 C   0  0  1  0  0  3  0  0  0  0  0  0
  185.7090  177.1140  134.3460 O   0  0  0  0  0  0  0  0  0  0  0  0
  186.6980  178.1010  134.5110 C   0  0  0  0  0  2  0  0  0  0  0  0
  187.2080  178.0840  135.9510 C   0  0  0  0  0  2  0  0  0  0  0  0
  186.3660  175.8720  134.3990 C   0  0  0  0  0  2  0  0  0  0  0  0
  1 10  1  0  0  0  0
  1 12  1  0  0  0  0
  2  8  1  0  0  0  0
  3  8  1  0  0  0  0
  3 11  1  0  0  0  0
  4 17  1  0  0  0  0
  4 14  2  0  0  0  0
  5 10  1  0  0  0  0
  6  5  2  0  0  0  0
  7 17  1  0  0  0  0
  8  1  2  0  0  0  0
  9  4  1  0  0  0  0
 11 18  1  0  0  0  0
 12 18  1  0  0  0  0
 13  2  2  0  0  0  0
 13  6  1  0  0  0  0
 14 15  1  0  0  0  0
 15 11  2  0  0  0  0
 15 21  1  0  0  0  0
 16  9  1  0  0  0  0
 16  7  2  0  0  0  0
 17  3  2  0  0  0  0
 19 25  1  0  0  0  0
 20 19  1  0  0  0  0
 21 23  1  0  0  0  0
 22 20  2  0  0  0  0
 23 19  2  0  0  0  0
 24 21  2  0  0  0  0
 24 22  1  0  0  0  0
 26 27  2  0  0  0  0
 27 16  1  0  0  0  0
 29 26  1  1  0  0  0
 30 28  1  6  0  0  0
 30 29  1  0  0  0  0
 31 34  1  0  0  0  0
 31 32  1  0  0  0  0
 32 33  1  0  0  0  0
 33 29  1  0  0  0  0
 34 30  1  0  0  0  0
M  END
>  <MODEL>
4

>  <REMARK>
 VINA RESULT:      -9.7      2.546      3.337
  Name = 
  3 active torsions:
  status: ('A' for Active; 'I' for Inactive)
    1  A    between atoms: N_3  and  C_13
    2  A    between atoms: C_12  and  C_28
    3  A    between atoms: N_17  and  C_29
                            x       y       z     vdW  Elec       q    Type
                         _______ _______ _______ _____ _____    ______ ____

>  <TORSDO>
F 3

$$$$
=
 OpenBabel10262423413D

 34 39  0  0  1  0  0  0  0  0999 V2000
  184.0250  178.5400  142.4350 C   0  0  0  0  0  0  0  0  0  0  0  0
  185.0710  178.7450  140.1960 C   0  0  0  0  0  3  0  0  0  0  0  0
  186.4490  178.2010  142.3130 C   0  0  0  0  0  0  0  0  0  0  0  0
  188.7700  177.5250  142.2720 C   0  0  0  0  0  0  0  0  0  0  0  0
  182.2270  177.8390  140.8880 C   0  0  0  0  0  3  0  0  0  0  0  0
  182.8600  177.6700  139.7290 C   0  0  0  0  0  3  0  0  0  0  0  0
  187.7440  177.6910  140.2010 C   0  0  0  0  0  3  0  0  0  0  0  0
  185.1300  178.4960  141.6600 C   0  0  0  0  0  0  0  0  0  0  0  0
  189.9980  177.0910  141.2170 S   0  0  0  0  0  0  0  0  0  0  0  0
  182.6660  178.8490  141.8930 C   0  0  0  0  0  2  0  0  0  0  0  0
  186.5440  178.2250  143.7320 C   0  0  0  0  0  0  0  0  0  0  0  0
  184.1280  178.3270  143.8120 O   0  0  0  0  0  0  0  0  0  0  0  0
  184.0960  178.3790  139.3540 C   0  0  0  0  0  3  0  0  0  0  0  0
  188.8590  177.5690  143.6190 N   0  0  0  0  0  0  0  0  0  0  0  0
  187.7820  177.9260  144.3760 C   0  0  0  0  0  0  0  0  0  0  0  0
  189.0270  177.2890  139.8470 C   0  0  0  0  0  0  0  0  0  0  0  0
  187.6040  177.8300  141.5920 C   0  0  0  0  0  0  0  0  0  0  0  0
  185.3270  178.6050  144.5270 C   0  0  0  0  0  2  0  0  0  0  0  0
  189.3400  177.6950  147.8410 C   0  0  0  0  0  0  0  0  0  0  0  0
  188.2360  177.9710  148.6490 C   0  0  0  0  0  3  0  0  0  0  0  0
  187.9660  177.9660  145.8500 C   0  0  0  0  0  0  0  0  0  0  0  0
  186.9950  178.2380  148.0660 C   0  0  0  0  0  3  0  0  0  0  0  0
  189.2040  177.6860  146.4500 C   0  0  0  0  0  3  0  0  0  0  0  0
  186.8600  178.2300  146.6750 C   0  0  0  0  0  3  0  0  0  0  0  0
  190.5440  177.4300  148.4050 F   0  0  0  0  0  0  0  0  0  0  0  0
  188.9970  176.0960  137.8230 N   0  0  0  0  0  0  0  0  0  0  0  0
  189.4480  177.0700  138.5020 N   0  0  0  0  0  0  0  0  0  0  0  0
  188.0090  177.6760  135.4490 C   0  0  0  0  0  1  0  0  0  0  0  0
  189.4350  175.8850  136.4530 C   0  0  1  0  0  3  0  0  0  0  0  0
  189.4330  177.2140  135.6920 C   0  0  1  0  0  3  0  0  0  0  0  0
  191.4580  176.5940  134.5470 O   0  0  0  0  0  0  0  0  0  0  0  0
  191.3800  175.2700  135.0170 C   0  0  0  0  0  2  0  0  0  0  0  0
  190.8330  175.2610  136.4430 C   0  0  0  0  0  2  0  0  0  0  0  0
  190.1350  177.0280  134.3460 C   0  0  0  0  0  2  0  0  0  0  0  0
  1 12  1  0  0  0  0
  2  8  1  0  0  0  0
  3 11  1  0  0  0  0
  4 14  2  0  0  0  0
  5 10  1  0  0  0  0
  6  5  2  0  0  0  0
  7 17  1  0  0  0  0
  8  3  1  0  0  0  0
  8  1  2  0  0  0  0
  9  4  1  0  0  0  0
 10  1  1  0  0  0  0
 11 15  2  0  0  0  0
 11 18  1  0  0  0  0
 12 18  1  0  0  0  0
 13  6  1  0  0  0  0
 13  2  2  0  0  0  0
 14 15  1  0  0  0  0
 15 21  1  0  0  0  0
 16  7  2  0  0  0  0
 16  9  1  0  0  0  0
 17  4  1  0  0  0  0
 17  3  2  0  0  0  0
 19 25  1  0  0  0  0
 19 20  1  0  0  0  0
 21 23  1  0  0  0  0
 21 24  2  0  0  0  0
 22 20  2  0  0  0  0
 23 19  2  0  0  0  0
 24 22  1  0  0  0  0
 26 27  2  0  0  0  0
 27 16  1  0  0  0  0
 29 26  1  1  0  0  0
 30 28  1  6  0  0  0
 30 29  1  0  0  0  0
 31 32  1  0  0  0  0
 32 33  1  0  0  0  0
 33 29  1  0  0  0  0
 34 31  1  0  0  0  0
 34 30  1  0  0  0  0
M  END
>  <MODEL>
5

>  <REMARK>
 VINA RESULT:      -9.5      0.968      1.500
  Name = 
  3 active torsions:
  status: ('A' for Active; 'I' for Inactive)
    1  A    between atoms: N_3  and  C_13
    2  A    between atoms: C_12  and  C_28
    3  A    between atoms: N_17  and  C_29
                            x       y       z     vdW  Elec       q    Type
                         _______ _______ _______ _____ _____    ______ ____

>  <TORSDO>
F 3

$$$$
=
 OpenBabel10262423413D

 34 39  0  0  1  0  0  0  0  0999 V2000
  185.3250  178.6290  144.6500 C   0  0  0  0  0  0  0  0  0  0  0  0
  185.2650  179.2710  142.2550 C   0  0  0  0  0  3  0  0  0  0  0  0
  187.3430  178.1780  143.3340 C   0  0  0  0  0  0  0  0  0  0  0  0
  189.2520  177.3880  142.0800 C   0  0  0  0  0  0  0  0  0  0  0  0
  182.9350  178.4070  144.0510 C   0  0  0  0  0  3  0  0  0  0  0  0
  182.9410  178.4660  142.7200 C   0  0  0  0  0  3  0  0  0  0  0  0
  187.4430  178.0810  140.8090 C   0  0  0  0  0  3  0  0  0  0  0  0
  185.9380  178.6940  143.4480 C   0  0  0  0  0  0  0  0  0  0  0  0
  189.7840  177.1290  140.5110 S   0  0  0  0  0  0  0  0  0  0  0  0
  183.9370  179.1360  144.8820 C   0  0  0  0  0  2  0  0  0  0  0  0
  188.0710  177.8750  144.5180 C   0  0  0  0  0  0  0  0  0  0  0  0
  186.0040  178.1040  145.7520 O   0  0  0  0  0  0  0  0  0  0  0  0
  183.9690  179.1650  141.9310 C   0  0  0  0  0  3  0  0  0  0  0  0
  189.9460  177.1220  143.2080 N   0  0  0  0  0  0  0  0  0  0  0  0
  189.4010  177.3630  144.4340 C   0  0  0  0  0  0  0  0  0  0  0  0
  188.3450  177.6920  139.8250 C   0  0  0  0  0  0  0  0  0  0  0  0
  187.9710  177.9100  142.0990 C   0  0  0  0  0  0  0  0  0  0  0  0
  187.4240  178.1400  145.8470 C   0  0  0  0  0  2  0  0  0  0  0  0
  192.0700  175.8790  146.7040 C   0  0  0  0  0  0  0  0  0  0  0  0
  191.7250  176.4490  147.9310 C   0  0  0  0  0  3  0  0  0  0  0  0
  190.2350  177.0580  145.6250 C   0  0  0  0  0  0  0  0  0  0  0  0
  190.6330  177.3170  148.0130 C   0  0  0  0  0  3  0  0  0  0  0  0
  191.3250  176.1760  145.5600 C   0  0  0  0  0  3  0  0  0  0  0  0
  189.8900  177.6150  146.8670 C   0  0  0  0  0  3  0  0  0  0  0  0
  193.1250  175.0310  146.6240 F   0  0  0  0  0  0  0  0  0  0  0  0
  188.1650  176.7270  137.6890 N   0  0  0  0  0  0  0  0  0  0  0  0
  188.0710  177.7570  138.4260 N   0  0  0  0  0  0  0  0  0  0  0  0
  187.8740  174.3400  135.8640 C   0  0  0  0  0  1  0  0  0  0  0  0
  187.8840  176.8080  136.2660 C   0  0  1  0  0  3  0  0  0  0  0  0
  187.0400  175.6060  135.8300 C   0  0  1  0  0  3  0  0  0  0  0  0
  185.7610  177.0060  134.3470 O   0  0  0  0  0  0  0  0  0  0  0  0
  186.6500  178.0830  134.5120 C   0  0  0  0  0  2  0  0  0  0  0  0
  187.1560  178.1180  135.9530 C   0  0  0  0  0  2  0  0  0  0  0  0
  186.5340  175.8320  134.4040 C   0  0  0  0  0  2  0  0  0  0  0  0
  1 10  1  0  0  0  0
  1 12  1  0  0  0  0
  2  8  1  0  0  0  0
  3  8  1  0  0  0  0
  3 11  1  0  0  0  0
  4 17  1  0  0  0  0
  4 14  2  0  0  0  0
  5 10  1  0  0  0  0
  6  5  2  0  0  0  0
  7 17  1  0  0  0  0
  8  1  2  0  0  0  0
  9  4  1  0  0  0  0
 11 18  1  0  0  0  0
 12 18  1  0  0  0  0
 13  2  2  0  0  0  0
 13  6  1  0  0  0  0
 14 15  1  0  0  0  0
 15 11  2  0  0  0  0
 15 21  1  0  0  0  0
 16  9  1  0  0  0  0
 16  7  2  0  0  0  0
 17  3  2  0  0  0  0
 19 20  1  0  0  0  0
 20 22  2  0  0  0  0
 21 24  2  0  0  0  0
 23 21  1  0  0  0  0
 23 19  2  0  0  0  0
 24 22  1  0  0  0  0
 25 19  1  0  0  0  0
 26 27  2  0  0  0  0
 27 16  1  0  0  0  0
 29 26  1  1  0  0  0
 30 28  1  6  0  0  0
 30 29  1  0  0  0  0
 31 34  1  0  0  0  0
 31 32  1  0  0  0  0
 32 33  1  0  0  0  0
 33 29  1  0  0  0  0
 34 30  1  0  0  0  0
M  END
>  <MODEL>
6

>  <REMARK>
 VINA RESULT:      -9.5      2.549      3.177
  Name = 
  3 active torsions:
  status: ('A' for Active; 'I' for Inactive)
    1  A    between atoms: N_3  and  C_13
    2  A    between atoms: C_12  and  C_28
    3  A    between atoms: N_17  and  C_29
                            x       y       z     vdW  Elec       q    Type
                         _______ _______ _______ _____ _____    ______ ____

>  <TORSDO>
F 3

$$$$
=
 OpenBabel10262423413D

 34 39  0  0  1  0  0  0  0  0999 V2000
  190.5610  176.9850  142.0850 C   0  0  0  0  0  0  0  0  0  0  0  0
  188.1290  177.1050  141.6110 C   0  0  0  0  0  3  0  0  0  0  0  0
  189.0690  177.2020  144.0170 C   0  0  0  0  0  0  0  0  0  0  0  0
  187.7370  177.7440  145.9600 C   0  0  0  0  0  0  0  0  0  0  0  0
  190.4570  178.0390  139.8500 C   0  0  0  0  0  3  0  0  0  0  0  0
  189.1730  178.3660  139.7190 C   0  0  0  0  0  3  0  0  0  0  0  0
  186.6670  177.9900  143.9200 C   0  0  0  0  0  3  0  0  0  0  0  0
  189.2930  177.0970  142.5360 C   0  0  0  0  0  0  0  0  0  0  0  0
  186.2130  178.2820  146.4070 S   0  0  0  0  0  0  0  0  0  0  0  0
  190.8970  176.8490  140.6340 C   0  0  0  0  0  2  0  0  0  0  0  0
  190.1460  176.9320  144.9050 C   0  0  0  0  0  0  0  0  0  0  0  0
  191.6240  176.9540  142.9900 O   0  0  0  0  0  0  0  0  0  0  0  0
  188.0700  177.6630  140.3950 C   0  0  0  0  0  3  0  0  0  0  0  0
  188.7580  177.4660  146.7990 N   0  0  0  0  0  0  0  0  0  0  0  0
  189.9620  177.0470  146.3160 C   0  0  0  0  0  0  0  0  0  0  0  0
  185.6690  178.3740  144.8080 C   0  0  0  0  0  0  0  0  0  0  0  0
  187.8480  177.6250  144.5860 C   0  0  0  0  0  0  0  0  0  0  0  0
  191.4600  176.4910  144.3270 C   0  0  0  0  0  2  0  0  0  0  0  0
  192.4650  177.3880  149.1620 C   0  0  0  0  0  0  0  0  0  0  0  0
  193.1140  176.1540  149.0960 C   0  0  0  0  0  3  0  0  0  0  0  0
  191.0290  176.7460  147.3050 C   0  0  0  0  0  0  0  0  0  0  0  0
  192.7320  175.2160  148.1340 C   0  0  0  0  0  3  0  0  0  0  0  0
  191.4340  177.6850  148.2670 C   0  0  0  0  0  3  0  0  0  0  0  0
  191.6990  175.5130  147.2410 C   0  0  0  0  0  3  0  0  0  0  0  0
  192.8400  178.3020  150.0900 F   0  0  0  0  0  0  0  0  0  0  0  0
  183.9790  178.6710  143.2020 N   0  0  0  0  0  0  0  0  0  0  0  0
  184.3660  178.7940  144.4060 N   0  0  0  0  0  0  0  0  0  0  0  0
  183.0540  178.9580  140.3430 C   0  0  0  0  0  1  0  0  0  0  0  0
  182.6490  179.1040  142.8060 C   0  0  1  0  0  3  0  0  0  0  0  0
  182.2410  178.4130  141.5020 C   0  0  1  0  0  3  0  0  0  0  0  0
  179.9820  178.1770  142.3000 O   0  0  0  0  0  0  0  0  0  0  0  0
  180.2280  179.0190  143.4000 C   0  0  0  0  0  2  0  0  0  0  0  0
  181.6460  178.7890  143.9190 C   0  0  0  0  0  2  0  0  0  0  0  0
  180.7570  178.6700  141.2340 C   0  0  0  0  0  2  0  0  0  0  0  0
  1  8  2  0  0  0  0
  1 12  1  0  0  0  0
  2  8  1  0  0  0  0
  3 17  2  0  0  0  0
  3 11  1  0  0  0  0
  4  9  1  0  0  0  0
  4 14  2  0  0  0  0
  5 10  1  0  0  0  0
  6  5  2  0  0  0  0
  6 13  1  0  0  0  0
  7 17  1  0  0  0  0
  7 16  2  0  0  0  0
  8  3  1  0  0  0  0
 10  1  1  0  0  0  0
 11 15  2  0  0  0  0
 12 18  1  0  0  0  0
 13  2  2  0  0  0  0
 15 14  1  0  0  0  0
 15 21  1  0  0  0  0
 16  9  1  0  0  0  0
 17  4  1  0  0  0  0
 18 11  1  0  0  0  0
 19 25  1  0  0  0  0
 20 19  1  0  0  0  0
 21 23  1  0  0  0  0
 22 20  2  0  0  0  0
 23 19  2  0  0  0  0
 24 21  2  0  0  0  0
 24 22  1  0  0  0  0
 26 27  2  0  0  0  0
 27 16  1  0  0  0  0
 29 26  1  1  0  0  0
 29 33  1  0  0  0  0
 30 28  1  6  0  0  0
 30 29  1  0  0  0  0
 31 32  1  0  0  0  0
 32 33  1  0  0  0  0
 34 30  1  0  0  0  0
 34 31  1  0  0  0  0
M  END
>  <MODEL>
7

>  <REMARK>
 VINA RESULT:      -9.4      3.856      7.485
  Name = 
  3 active torsions:
  status: ('A' for Active; 'I' for Inactive)
    1  A    between atoms: N_3  and  C_13
    2  A    between atoms: C_12  and  C_28
    3  A    between atoms: N_17  and  C_29
                            x       y       z     vdW  Elec       q    Type
                         _______ _______ _______ _____ _____    ______ ____

>  <TORSDO>
F 3

$$$$
=
 OpenBabel10262423413D

 34 39  0  0  1  0  0  0  0  0999 V2000
  188.5510  178.0730  139.8750 C   0  0  0  0  0  0  0  0  0  0  0  0
  186.5500  177.8810  138.4210 C   0  0  0  0  0  3  0  0  0  0  0  0
  186.3660  178.1720  140.9830 C   0  0  0  0  0  0  0  0  0  0  0  0
  184.2910  178.6120  142.1420 C   0  0  0  0  0  0  0  0  0  0  0  0
  189.3040  179.0320  137.7230 C   0  0  0  0  0  3  0  0  0  0  0  0
  188.1710  179.1970  137.0420 C   0  0  0  0  0  3  0  0  0  0  0  0
  184.1690  178.6590  139.8280 C   0  0  0  0  0  3  0  0  0  0  0  0
  187.2060  178.0460  139.7450 C   0  0  0  0  0  0  0  0  0  0  0  0
  182.6780  178.9750  141.8660 S   0  0  0  0  0  0  0  0  0  0  0  0
  189.4810  177.9310  138.7130 C   0  0  0  0  0  2  0  0  0  0  0  0
  186.9860  178.0640  142.2580 C   0  0  0  0  0  0  0  0  0  0  0  0
  189.1270  178.2020  141.1410 O   0  0  0  0  0  0  0  0  0  0  0  0
  186.9580  178.3870  137.2510 C   0  0  0  0  0  3  0  0  0  0  0  0
  184.8820  178.4880  143.3500 N   0  0  0  0  0  0  0  0  0  0  0  0
  186.2110  178.2030  143.4490 C   0  0  0  0  0  0  0  0  0  0  0  0
  182.8570  178.9480  140.1850 C   0  0  0  0  0  0  0  0  0  0  0  0
  184.9850  178.4620  140.9540 C   0  0  0  0  0  0  0  0  0  0  0  0
  188.4570  177.7670  142.3190 C   0  0  0  0  0  2  0  0  0  0  0  0
  188.4970  177.2660  146.3440 C   0  0  0  0  0  0  0  0  0  0  0  0
  187.7700  177.7590  147.4290 C   0  0  0  0  0  3  0  0  0  0  0  0
  186.7810  178.0660  144.8140 C   0  0  0  0  0  0  0  0  0  0  0  0
  186.5460  178.3990  147.2150 C   0  0  0  0  0  3  0  0  0  0  0  0
  188.0020  177.4120  145.0460 C   0  0  0  0  0  3  0  0  0  0  0  0
  186.0530  178.5470  145.9150 C   0  0  0  0  0  3  0  0  0  0  0  0
  189.6800  176.6390  146.5510 F   0  0  0  0  0  0  0  0  0  0  0  0
  182.0710  179.6290  138.0770 N   0  0  0  0  0  0  0  0  0  0  0  0
  181.8140  179.1930  139.2420 N   0  0  0  0  0  0  0  0  0  0  0  0
  180.4160  182.1520  137.9800 C   0  0  0  0  0  1  0  0  0  0  0  0
  180.9980  179.8750  137.1270 C   0  0  1  0  0  3  0  0  0  0  0  0
  180.9300  181.3670  136.7890 C   0  0  1  0  0  3  0  0  0  0  0  0
  180.4390  180.8530  134.4890 O   0  0  0  0  0  0  0  0  0  0  0  0
  180.2390  179.4920  134.7820 C   0  0  0  0  0  2  0  0  0  0  0  0
  181.2250  179.0460  135.8610 C   0  0  0  0  0  2  0  0  0  0  0  0
  179.9840  181.5770  135.6060 C   0  0  0  0  0  2  0  0  0  0  0  0
  1 12  1  0  0  0  0
  2  8  1  0  0  0  0
  3 11  1  0  0  0  0
  4 14  2  0  0  0  0
  5 10  1  0  0  0  0
  6 13  1  0  0  0  0
  6  5  2  0  0  0  0
  7 16  2  0  0  0  0
  7 17  1  0  0  0  0
  8  1  2  0  0  0  0
  8  3  1  0  0  0  0
  9  4  1  0  0  0  0
 10  1  1  0  0  0  0
 11 18  1  0  0  0  0
 11 15  2  0  0  0  0
 12 18  1  0  0  0  0
 13  2  2  0  0  0  0
 14 15  1  0  0  0  0
 15 21  1  0  0  0  0
 16  9  1  0  0  0  0
 17  3  2  0  0  0  0
 17  4  1  0  0  0  0
 19 25  1  0  0  0  0
 19 20  1  0  0  0  0
 21 23  1  0  0  0  0
 21 24  2  0  0  0  0
 22 20  2  0  0  0  0
 23 19  2  0  0  0  0
 24 22  1  0  0  0  0
 26 27  2  0  0  0  0
 27 16  1  0  0  0  0
 29 26  1  1  0  0  0
 30 29  1  0  0  0  0
 30 28  1  1  0  0  0
 31 32  1  0  0  0  0
 31 34  1  0  0  0  0
 32 33  1  0  0  0  0
 33 29  1  0  0  0  0
 34 30  1  0  0  0  0
M  END
>  <MODEL>
8

>  <REMARK>
 VINA RESULT:      -9.2      4.133      6.972
  Name = 
  3 active torsions:
  status: ('A' for Active; 'I' for Inactive)
    1  A    between atoms: N_3  and  C_13
    2  A    between atoms: C_12  and  C_28
    3  A    between atoms: N_17  and  C_29
                            x       y       z     vdW  Elec       q    Type
                         _______ _______ _______ _____ _____    ______ ____

>  <TORSDO>
F 3

$$$$
=
 OpenBabel10262423413D

 34 39  0  0  1  0  0  0  0  0999 V2000
  188.9080  176.4370  135.6290 C   0  0  0  0  0  0  0  0  0  0  0  0
  187.7810  176.6240  137.8310 C   0  0  0  0  0  3  0  0  0  0  0  0
  190.3530  176.5090  137.6080 C   0  0  0  0  0  0  0  0  0  0  0  0
  191.8820  176.9010  139.4380 C   0  0  0  0  0  0  0  0  0  0  0  0
  186.8300  177.6760  135.1140 C   0  0  0  0  0  3  0  0  0  0  0  0
  186.3710  178.0280  136.3130 C   0  0  0  0  0  3  0  0  0  0  0  0
  189.6510  177.3300  139.8940 C   0  0  0  0  0  3  0  0  0  0  0  0
  188.9920  176.5260  136.9750 C   0  0  0  0  0  0  0  0  0  0  0  0
  191.9250  177.4170  141.0330 S   0  0  0  0  0  0  0  0  0  0  0  0
  187.6040  176.4190  134.8980 C   0  0  0  0  0  2  0  0  0  0  0  0
  191.4820  176.1530  136.8200 C   0  0  0  0  0  0  0  0  0  0  0  0
  190.0690  176.3180  134.8640 O   0  0  0  0  0  0  0  0  0  0  0  0
  186.6480  177.2830  137.5530 C   0  0  0  0  0  3  0  0  0  0  0  0
  192.9480  176.5420  138.6910 N   0  0  0  0  0  0  0  0  0  0  0  0
  192.7890  176.1510  137.3940 C   0  0  0  0  0  0  0  0  0  0  0  0
  190.2520  177.6490  141.1070 C   0  0  0  0  0  0  0  0  0  0  0  0
  190.5890  176.8960  138.9440 C   0  0  0  0  0  0  0  0  0  0  0  0
  191.2620  175.7470  135.3910 C   0  0  0  0  0  2  0  0  0  0  0  0
  195.8350  176.2570  135.1150 C   0  0  0  0  0  0  0  0  0  0  0  0
  196.2630  174.9300  135.1790 C   0  0  0  0  0  3  0  0  0  0  0  0
  194.0100  175.7560  136.6450 C   0  0  0  0  0  0  0  0  0  0  0  0
  195.5660  174.0110  135.9670 C   0  0  0  0  0  3  0  0  0  0  0  0
  194.7110  176.6660  135.8380 C   0  0  0  0  0  3  0  0  0  0  0  0
  194.4430  174.4200  136.6910 C   0  0  0  0  0  3  0  0  0  0  0  0
  196.5060  177.1490  134.3460 F   0  0  0  0  0  0  0  0  0  0  0  0
  189.2900  177.3480  143.2300 N   0  0  0  0  0  0  0  0  0  0  0  0
  189.5360  178.1170  142.2490 N   0  0  0  0  0  0  0  0  0  0  0  0
  186.3400  177.9890  143.2470 C   0  0  0  0  0  1  0  0  0  0  0  0
  188.5600  177.8380  144.3880 C   0  0  1  0  0  3  0  0  0  0  0  0
  187.1210  177.3150  144.3590 C   0  0  1  0  0  3  0  0  0  0  0  0
  187.1550  177.0040  146.7460 O   0  0  0  0  0  0  0  0  0  0  0  0
  188.3690  177.7030  146.8710 C   0  0  0  0  0  2  0  0  0  0  0  0
  189.2660  177.3990  145.6730 C   0  0  0  0  0  2  0  0  0  0  0  0
  186.4440  177.6160  145.6970 C   0  0  0  0  0  2  0  0  0  0  0  0
  1  8  2  0  0  0  0
  3 17  1  0  0  0  0
  4  9  1  0  0  0  0
  5  6  2  0  0  0  0
  6 13  1  0  0  0  0
  7 16  2  0  0  0  0
  8  3  1  0  0  0  0
  8  2  1  0  0  0  0
  9 16  1  0  0  0  0
 10  5  1  0  0  0  0
 10  1  1  0  0  0  0
 11 15  1  0  0  0  0
 11  3  2  0  0  0  0
 12 18  1  0  0  0  0
 12  1  1  0  0  0  0
 13  2  2  0  0  0  0
 14  4  1  0  0  0  0
 15 14  2  0  0  0  0
 16 27  1  0  0  0  0
 17  4  2  0  0  0  0
 17  7  1  0  0  0  0
 18 11  1  0  0  0  0
 19 20  2  0  0  0  0
 19 23  1  0  0  0  0
 20 22  1  0  0  0  0
 21 24  1  0  0  0  0
 21 15  1  0  0  0  0
 22 24  2  0  0  0  0
 23 21  2  0  0  0  0
 25 19  1  0  0  0  0
 27 26  2  0  0  0  0
 29 26  1  6  0  0  0
 29 33  1  0  0  0  0
 30 28  1  6  0  0  0
 30 29  1  0  0  0  0
 30 34  1  0  0  0  0
 31 32  1  0  0  0  0
 33 32  1  0  0  0  0
 34 31  1  0  0  0  0
M  END
>  <MODEL>
9

>  <REMARK>
 VINA RESULT:      -9.0      3.318      9.328
  Name = 
  3 active torsions:
  status: ('A' for Active; 'I' for Inactive)
    1  A    between atoms: N_3  and  C_13
    2  A    between atoms: C_12  and  C_28
    3  A    between atoms: N_17  and  C_29
                            x       y       z     vdW  Elec       q    Type
                         _______ _______ _______ _____ _____    ______ ____

>  <TORSDO>
F 3

$$$$
