=
 OpenBabel10272400163D

 31 35  0  0  1  0  0  0  0  0999 V2000
  190.7770  176.7920  140.0270 C   0  0  1  0  0  3  0  0  0  0  0  0
  190.8860  176.6350  136.8260 C   0  0  1  0  0  3  0  0  0  0  0  0
  189.3500  176.8060  136.7630 C   0  0  1  0  0  3  0  0  0  0  0  0
  193.8260  175.6020  136.6370 C   0  0  1  0  0  3  0  0  0  0  0  0
  187.5860  178.6320  136.3390 C   0  0  0  0  0  2  0  0  0  0  0  0
  191.3610  175.7830  138.0430 C   0  0  2  0  0  0  0  0  0  0  0  0
  192.1210  177.3190  139.5400 C   0  0  0  0  0  2  0  0  0  0  0  0
  188.9650  178.2840  136.9140 C   0  0  0  0  0  2  0  0  0  0  0  0
  192.4890  174.9100  136.2090 C   0  0  1  0  0  0  0  0  0  0  0  0
  189.8340  177.8190  140.0160 O   0  0  0  0  0  1  0  0  0  0  0  0
  189.3600  174.9220  135.0630 C   0  0  0  0  0  2  0  0  0  0  0  0
  186.4170  177.9160  137.0250 C   0  0  0  0  0  2  0  0  0  0  0  0
  191.6990  174.4460  137.4330 C   0  0  0  0  0  2  0  0  0  0  0  0
  191.5840  175.9900  135.5980 C   0  0  1  0  0  3  0  0  0  0  0  0
  192.7200  173.8520  135.3250 O   0  0  0  0  0  1  0  0  0  0  0  0
  190.3650  175.7260  139.1060 N   0  0  0  0  0  2  0  0  0  0  0  0
  186.6120  176.4100  137.2420 C   0  0  0  0  0  2  0  0  0  0  0  0
  193.5730  176.7360  137.6640 C   0  0  0  0  0  2  0  0  0  0  0  0
  192.5940  176.2810  138.6560 N   0  0  2  0  0  0  0  0  0  0  0  0
  190.6560  175.4590  134.4960 C   0  0  0  0  0  2  0  0  0  0  0  0
  188.5920  176.0980  135.6210 C   0  0  1  0  0  3  0  0  0  0  0  0
  187.1760  175.6640  136.0250 C   0  0  0  0  0  2  0  0  0  0  0  0
  194.9680  174.6870  137.1170 C   0  0  1  0  0  3  0  0  0  0  0  0
  195.2340  173.2030  138.9830 O   0  0  0  0  0  1  0  0  0  0  0  0
  194.8790  172.2750  136.9330 O   0  0  0  0  0  1  0  0  0  0  0  0
  194.5740  173.3540  137.7640 C   0  0  0  0  0  3  0  0  0  0  0  0
  196.1590  174.6480  136.2000 C   0  0  0  0  0  0  0  0  0  0  0  0
  195.9580  174.6690  134.8840 C   0  0  0  0  0  2  0  0  0  0  0  0
  197.5440  174.4360  136.7240 C   0  0  0  0  0  2  0  0  0  0  0  0
  197.8910  175.4750  137.5890 O   0  0  0  0  0  0  0  0  0  0  0  0
  198.4660  174.8370  138.6860 C   0  0  0  0  0  1  0  0  0  0  0  0
  1 10  1  6  0  0  0
  2  6  1  0  0  0  0
  3  2  1  0  0  0  0
  3  8  1  0  0  0  0
  4 23  1  0  0  0  0
  4 18  1  0  0  0  0
  5  8  1  0  0  0  0
  5 12  1  0  0  0  0
  6 19  1  0  0  0  0
  6 16  1  0  0  0  0
  7  1  1  0  0  0  0
  9  4  1  0  0  0  0
  9 13  1  0  0  0  0
 11 21  1  0  0  0  0
 12 17  1  0  0  0  0
 13  6  1  0  0  0  0
 14  9  1  0  0  0  0
 14  2  1  0  0  0  0
 15  9  1  0  0  0  0
 16  1  1  0  0  0  0
 18 19  1  0  0  0  0
 19  7  1  0  0  0  0
 20 11  1  0  0  0  0
 20 14  1  0  0  0  0
 21 22  1  0  0  0  0
 21  3  1  0  0  0  0
 22 17  1  0  0  0  0
 23 26  1  0  0  0  0
 25 26  1  0  0  0  0
 26 24  1  0  0  0  0
 27 29  1  0  0  0  0
 27 23  1  0  0  0  0
 28 27  2  0  0  0  0
 29 30  1  0  0  0  0
 30 31  1  0  0  0  0
M  END
>  <MODEL>
1

>  <REMARK>
 VINA RESULT:      -5.9      0.000      0.000
  Name = 
  5 active torsions:
  status: ('A' for Active; 'I' for Inactive)
    1  A    between atoms: O_1  and  C_8
    2  A    between atoms: C_7  and  C_22
    3  A    between atoms: C_8  and  C_19
    4  A    between atoms: C_9  and  C_22
    5  A    between atoms: C_19  and  C_22
                            x       y       z     vdW  Elec       q    Type
                         _______ _______ _______ _____ _____    ______ ____

>  <TORSDO>
F 5

$$$$
=
 OpenBabel10272400163D

 31 35  0  0  1  0  0  0  0  0999 V2000
  186.8780  178.8630  140.4360 C   0  0  1  0  0  3  0  0  0  0  0  0
  184.2600  178.0150  142.0820 C   0  0  1  0  0  3  0  0  0  0  0  0
  183.3770  178.3670  140.8620 C   0  0  1  0  0  3  0  0  0  0  0  0
  185.6460  177.8810  144.8760 C   0  0  1  0  0  3  0  0  0  0  0  0
  182.1790  177.2120  138.8980 C   0  0  0  0  0  2  0  0  0  0  0  0
  185.4770  178.9750  142.2580 C   0  0  2  0  0  0  0  0  0  0  0  0
  187.2460  177.7910  141.4540 C   0  0  0  0  0  2  0  0  0  0  0  0
  183.3910  177.2240  139.8370 C   0  0  0  0  0  2  0  0  0  0  0  0
  184.5080  178.8260  144.3640 C   0  0  1  0  0  0  0  0  0  0  0  0
  186.4220  178.2640  139.2620 O   0  0  0  0  0  1  0  0  0  0  0  0
  181.8380  179.5400  142.5040 C   0  0  0  0  0  2  0  0  0  0  0  0
  182.0610  178.4520  138.0050 C   0  0  0  0  0  2  0  0  0  0  0  0
  185.0630  179.8720  143.3970 C   0  0  0  0  0  2  0  0  0  0  0  0
  183.5760  177.9890  143.4750 C   0  0  1  0  0  3  0  0  0  0  0  0
  183.8260  179.4290  145.4250 O   0  0  0  0  0  1  0  0  0  0  0  0
  185.8120  179.6800  141.0260 N   0  0  0  0  0  2  0  0  0  0  0  0
  182.2460  179.7940  138.7250 C   0  0  0  0  0  2  0  0  0  0  0  0
  186.4400  177.2600  143.6980 C   0  0  0  0  0  2  0  0  0  0  0  0
  186.6980  178.2930  142.6910 N   0  0  2  0  0  0  0  0  0  0  0  0
  182.1120  178.4510  143.5180 C   0  0  0  0  0  2  0  0  0  0  0  0
  181.9610  178.9170  141.1320 C   0  0  1  0  0  3  0  0  0  0  0  0
  181.4910  179.9060  140.0560 C   0  0  0  0  0  2  0  0  0  0  0  0
  186.6090  178.4500  145.9330 C   0  0  1  0  0  3  0  0  0  0  0  0
  184.7730  178.1810  147.4540 O   0  0  0  0  0  1  0  0  0  0  0  0
  185.9030  180.1590  147.4960 O   0  0  0  0  0  1  0  0  0  0  0  0
  186.0240  178.7810  147.3110 C   0  0  0  0  0  3  0  0  0  0  0  0
  187.9760  177.8220  145.9300 C   0  0  0  0  0  0  0  0  0  0  0  0
  188.2600  176.8980  146.8450 C   0  0  0  0  0  2  0  0  0  0  0  0
  189.0620  178.3140  145.0280 C   0  0  0  0  0  2  0  0  0  0  0  0
  189.7830  177.2350  144.5160 O   0  0  0  0  0  0  0  0  0  0  0  0
  190.4240  177.7470  143.3890 C   0  0  0  0  0  1  0  0  0  0  0  0
  1 10  1  6  0  0  0
  1 16  1  0  0  0  0
  1  7  1  0  0  0  0
  2  6  1  0  0  0  0
  2 14  1  0  0  0  0
  3 21  1  0  0  0  0
  3  2  1  0  0  0  0
  4 23  1  0  0  0  0
  5  8  1  0  0  0  0
  6 19  1  0  0  0  0
  6 13  1  0  0  0  0
  7 19  1  0  0  0  0
  8  3  1  0  0  0  0
  9  4  1  0  0  0  0
  9 15  1  0  0  0  0
 11 20  1  0  0  0  0
 12 17  1  0  0  0  0
 12  5  1  0  0  0  0
 13  9  1  0  0  0  0
 14 20  1  0  0  0  0
 14  9  1  0  0  0  0
 16  6  1  0  0  0  0
 17 22  1  0  0  0  0
 18  4  1  0  0  0  0
 19 18  1  0  0  0  0
 21 11  1  0  0  0  0
 22 21  1  0  0  0  0
 23 26  1  0  0  0  0
 26 24  1  0  0  0  0
 26 25  1  0  0  0  0
 27 23  1  0  0  0  0
 27 28  2  0  0  0  0
 29 27  1  0  0  0  0
 30 29  1  0  0  0  0
 31 30  1  0  0  0  0
M  END
>  <MODEL>
2

>  <REMARK>
 VINA RESULT:      -5.8      7.298     10.333
  Name = 
  5 active torsions:
  status: ('A' for Active; 'I' for Inactive)
    1  A    between atoms: O_1  and  C_8
    2  A    between atoms: C_7  and  C_22
    3  A    between atoms: C_8  and  C_19
    4  A    between atoms: C_9  and  C_22
    5  A    between atoms: C_19  and  C_22
                            x       y       z     vdW  Elec       q    Type
                         _______ _______ _______ _____ _____    ______ ____

>  <TORSDO>
F 5

$$$$
=
 OpenBabel10272400163D

 31 35  0  0  1  0  0  0  0  0999 V2000
  186.4960  177.5420  142.9280 C   0  0  1  0  0  3  0  0  0  0  0  0
  189.6130  177.8790  142.2590 C   0  0  1  0  0  3  0  0  0  0  0  0
  189.3070  177.7370  140.7490 C   0  0  1  0  0  3  0  0  0  0  0  0
  190.6310  177.5130  145.1880 C   0  0  1  0  0  3  0  0  0  0  0  0
  188.9820  179.2020  138.6580 C   0  0  0  0  0  2  0  0  0  0  0  0
  188.7140  176.9750  143.1570 C   0  0  2  0  0  0  0  0  0  0  0  0
  187.1540  178.4000  144.0020 C   0  0  0  0  0  2  0  0  0  0  0  0
  188.7970  179.0660  140.1740 C   0  0  0  0  0  2  0  0  0  0  0  0
  190.8810  176.6300  143.9190 C   0  0  1  0  0  0  0  0  0  0  0  0
  186.1050  178.3430  141.8560 O   0  0  0  0  0  1  0  0  0  0  0  0
  191.2950  176.1640  140.6470 C   0  0  0  0  0  2  0  0  0  0  0  0
  188.2070  178.1680  137.8330 C   0  0  0  0  0  2  0  0  0  0  0  0
  189.6270  175.8410  143.5480 C   0  0  0  0  0  2  0  0  0  0  0  0
  191.0630  177.5780  142.7250 C   0  0  1  0  0  3  0  0  0  0  0  0
  191.9790  175.7830  144.0940 O   0  0  0  0  0  1  0  0  0  0  0  0
  187.4900  176.5610  142.4820 N   0  0  0  0  0  2  0  0  0  0  0  0
  188.3290  176.7200  138.3230 C   0  0  0  0  0  2  0  0  0  0  0  0
  189.3770  178.4090  145.0150 C   0  0  0  0  0  2  0  0  0  0  0  0
  188.3010  177.6220  144.4040 N   0  0  2  0  0  0  0  0  0  0  0  0
  192.0180  177.0330  141.6520 C   0  0  0  0  0  2  0  0  0  0  0  0
  190.3710  177.0620  139.8590 C   0  0  1  0  0  3  0  0  0  0  0  0
  189.7590  176.2920  138.6800 C   0  0  0  0  0  2  0  0  0  0  0  0
  190.5940  176.7940  146.5480 C   0  0  1  0  0  3  0  0  0  0  0  0
  191.7720  174.8750  147.3790 O   0  0  0  0  0  1  0  0  0  0  0  0
  192.3420  176.9160  148.2190 O   0  0  0  0  0  1  0  0  0  0  0  0
  191.9170  176.2300  147.0790 C   0  0  0  0  0  3  0  0  0  0  0  0
  189.6960  177.4380  147.5680 C   0  0  0  0  0  0  0  0  0  0  0  0
  190.1850  178.4130  148.3300 C   0  0  0  0  0  2  0  0  0  0  0  0
  188.3230  176.9130  147.8460 C   0  0  0  0  0  2  0  0  0  0  0  0
  187.5710  177.8740  148.5210 O   0  0  0  0  0  0  0  0  0  0  0  0
  186.7070  178.3840  147.5540 C   0  0  0  0  0  1  0  0  0  0  0  0
  1 10  1  6  0  0  0
  1  7  1  0  0  0  0
  2 14  1  0  0  0  0
  2  6  1  0  0  0  0
  3  2  1  0  0  0  0
  4 23  1  0  0  0  0
  5  8  1  0  0  0  0
  6 13  1  0  0  0  0
  6 19  1  0  0  0  0
  7 19  1  0  0  0  0
  8  3  1  0  0  0  0
  9 15  1  0  0  0  0
  9  4  1  0  0  0  0
 11 20  1  0  0  0  0
 12 17  1  0  0  0  0
 12  5  1  0  0  0  0
 13  9  1  0  0  0  0
 14  9  1  0  0  0  0
 16  1  1  0  0  0  0
 16  6  1  0  0  0  0
 17 22  1  0  0  0  0
 18  4  1  0  0  0  0
 19 18  1  0  0  0  0
 20 14  1  0  0  0  0
 21 11  1  0  0  0  0
 21  3  1  0  0  0  0
 22 21  1  0  0  0  0
 23 26  1  0  0  0  0
 23 27  1  0  0  0  0
 26 24  1  0  0  0  0
 26 25  1  0  0  0  0
 27 29  1  0  0  0  0
 27 28  2  0  0  0  0
 29 30  1  0  0  0  0
 31 30  1  0  0  0  0
M  END
>  <MODEL>
3

>  <REMARK>
 VINA RESULT:      -5.2      5.358      8.700
  Name = 
  5 active torsions:
  status: ('A' for Active; 'I' for Inactive)
    1  A    between atoms: O_1  and  C_8
    2  A    between atoms: C_7  and  C_22
    3  A    between atoms: C_8  and  C_19
    4  A    between atoms: C_9  and  C_22
    5  A    between atoms: C_19  and  C_22
                            x       y       z     vdW  Elec       q    Type
                         _______ _______ _______ _____ _____    ______ ____

>  <TORSDO>
F 5

$$$$
=
 OpenBabel10272400163D

 31 35  0  0  1  0  0  0  0  0999 V2000
  187.6440  177.8910  137.2800 C   0  0  1  0  0  3  0  0  0  0  0  0
  188.2190  175.0810  135.8460 C   0  0  1  0  0  3  0  0  0  0  0  0
  186.7940  174.6010  136.2110 C   0  0  1  0  0  3  0  0  0  0  0  0
  191.3050  175.4660  135.5710 C   0  0  1  0  0  3  0  0  0  0  0  0
  184.4650  174.3540  135.1460 C   0  0  0  0  0  2  0  0  0  0  0  0
  188.8700  175.9720  136.9490 C   0  0  2  0  0  0  0  0  0  0  0  0
  188.6520  178.0930  136.1560 C   0  0  0  0  0  2  0  0  0  0  0  0
  185.7650  175.1640  135.2220 C   0  0  0  0  0  2  0  0  0  0  0  0
  190.4940  174.4070  136.3910 C   0  0  1  0  0  0  0  0  0  0  0  0
  186.3480  177.9660  136.7720 O   0  0  0  0  0  1  0  0  0  0  0  0
  187.8750  172.4170  136.9220 C   0  0  0  0  0  2  0  0  0  0  0  0
  183.6710  174.3100  136.4570 C   0  0  0  0  0  2  0  0  0  0  0  0
  189.8520  175.0460  137.6220 C   0  0  0  0  0  2  0  0  0  0  0  0
  189.2840  173.9920  135.5410 C   0  0  1  0  0  3  0  0  0  0  0  0
  191.2900  173.3140  136.7450 O   0  0  0  0  0  1  0  0  0  0  0  0
  187.8810  176.5580  137.8460 N   0  0  0  0  0  2  0  0  0  0  0  0
  184.4990  173.9960  137.7090 C   0  0  0  0  0  2  0  0  0  0  0  0
  190.4370  176.7040  135.2310 C   0  0  0  0  0  2  0  0  0  0  0  0
  189.6530  177.0850  136.4100 N   0  0  2  0  0  0  0  0  0  0  0  0
  188.8460  172.5380  135.7680 C   0  0  0  0  0  2  0  0  0  0  0  0
  186.5930  173.0990  136.5030 C   0  0  1  0  0  3  0  0  0  0  0  0
  185.4900  172.8360  137.5380 C   0  0  0  0  0  2  0  0  0  0  0  0
  192.6660  175.9040  136.1420 C   0  0  1  0  0  3  0  0  0  0  0  0
  193.3410  176.9400  138.1980 O   0  0  0  0  0  1  0  0  0  0  0  0
  193.7870  174.7210  137.9320 O   0  0  0  0  0  1  0  0  0  0  0  0
  192.8780  175.7430  137.6520 C   0  0  0  0  0  3  0  0  0  0  0  0
  193.8440  175.5630  135.2710 C   0  0  0  0  0  0  0  0  0  0  0  0
  193.8700  174.3810  134.6600 C   0  0  0  0  0  2  0  0  0  0  0  0
  195.0450  176.4500  135.1960 C   0  0  0  0  0  2  0  0  0  0  0  0
  196.0490  175.9670  136.0370 O   0  0  0  0  0  0  0  0  0  0  0  0
  197.2090  176.0340  135.2680 C   0  0  0  0  0  1  0  0  0  0  0  0
  1 10  1  6  0  0  0
  1 16  1  0  0  0  0
  2  3  1  0  0  0  0
  2  6  1  0  0  0  0
  3 21  1  0  0  0  0
  4 23  1  0  0  0  0
  4  9  1  0  0  0  0
  5  8  1  0  0  0  0
  5 12  1  0  0  0  0
  6 13  1  0  0  0  0
  6 16  1  0  0  0  0
  7 19  1  0  0  0  0
  7  1  1  0  0  0  0
  8  3  1  0  0  0  0
  9 15  1  0  0  0  0
  9 13  1  0  0  0  0
 12 17  1  0  0  0  0
 14 20  1  0  0  0  0
 14  2  1  0  0  0  0
 14  9  1  0  0  0  0
 18  4  1  0  0  0  0
 18 19  1  0  0  0  0
 19  6  1  0  0  0  0
 20 11  1  0  0  0  0
 21 11  1  0  0  0  0
 21 22  1  0  0  0  0
 22 17  1  0  0  0  0
 23 26  1  0  0  0  0
 26 25  1  0  0  0  0
 26 24  1  0  0  0  0
 27 23  1  0  0  0  0
 28 27  2  0  0  0  0
 29 27  1  0  0  0  0
 29 30  1  0  0  0  0
 31 30  1  0  0  0  0
M  END
>  <MODEL>
4

>  <REMARK>
 VINA RESULT:      -5.1      2.407      3.530
  Name = 
  5 active torsions:
  status: ('A' for Active; 'I' for Inactive)
    1  A    between atoms: O_1  and  C_8
    2  A    between atoms: C_7  and  C_22
    3  A    between atoms: C_8  and  C_19
    4  A    between atoms: C_9  and  C_22
    5  A    between atoms: C_19  and  C_22
                            x       y       z     vdW  Elec       q    Type
                         _______ _______ _______ _____ _____    ______ ____

>  <TORSDO>
F 5

$$$$
=
 OpenBabel10272400163D

 31 35  0  0  1  0  0  0  0  0999 V2000
  193.3760  177.2050  139.0270 C   0  0  1  0  0  3  0  0  0  0  0  0
  192.5690  174.5880  137.3590 C   0  0  1  0  0  3  0  0  0  0  0  0
  194.0650  174.2340  137.1860 C   0  0  1  0  0  3  0  0  0  0  0  0
  189.5750  175.3660  136.9360 C   0  0  1  0  0  3  0  0  0  0  0  0
  195.8550  172.6930  138.2090 C   0  0  0  0  0  2  0  0  0  0  0  0
  192.2900  176.1220  137.3110 C   0  0  2  0  0  0  0  0  0  0  0  0
  192.0120  176.7090  139.4920 C   0  0  0  0  0  2  0  0  0  0  0  0
  194.6070  173.5500  138.4500 C   0  0  0  0  0  2  0  0  0  0  0  0
  190.7200  175.1720  135.8860 C   0  0  1  0  0  0  0  0  0  0  0  0
  194.3840  176.5380  139.7220 O   0  0  0  0  0  1  0  0  0  0  0  0
  193.5180  173.7600  134.7540 C   0  0  0  0  0  2  0  0  0  0  0  0
  197.0740  173.4800  137.7120 C   0  0  0  0  0  2  0  0  0  0  0  0
  191.7090  176.3370  135.9370 C   0  0  0  0  0  2  0  0  0  0  0  0
  191.5680  173.9750  136.3420 C   0  0  1  0  0  3  0  0  0  0  0  0
  190.2090  174.9970  134.5970 O   0  0  0  0  0  1  0  0  0  0  0  0
  193.4820  176.9130  137.5930 N   0  0  0  0  0  2  0  0  0  0  0  0
  196.7930  174.4620  136.5680 C   0  0  0  0  0  2  0  0  0  0  0  0
  190.1440  175.6200  138.3550 C   0  0  0  0  0  2  0  0  0  0  0  0
  191.2680  176.5570  138.2650 N   0  0  2  0  0  0  0  0  0  0  0  0
  192.1850  173.1840  135.1800 C   0  0  0  0  0  2  0  0  0  0  0  0
  194.4910  173.5230  135.8850 C   0  0  1  0  0  3  0  0  0  0  0  0
  195.9160  173.8910  135.4450 C   0  0  0  0  0  2  0  0  0  0  0  0
  188.4840  176.3990  136.6010 C   0  0  1  0  0  3  0  0  0  0  0  0
  186.8280  174.7120  137.0140 O   0  0  0  0  0  1  0  0  0  0  0  0
  186.9640  175.5720  134.9080 O   0  0  0  0  0  1  0  0  0  0  0  0
  187.0870  175.8620  136.2680 C   0  0  0  0  0  3  0  0  0  0  0  0
  188.5280  177.6440  137.4450 C   0  0  0  0  0  0  0  0  0  0  0  0
  189.1840  178.7070  136.9880 C   0  0  0  0  0  2  0  0  0  0  0  0
  187.9840  177.6640  138.8390 C   0  0  0  0  0  2  0  0  0  0  0  0
  188.5480  178.7200  139.5560 O   0  0  0  0  0  0  0  0  0  0  0  0
  188.6070  178.2580  140.8690 C   0  0  0  0  0  1  0  0  0  0  0  0
  1  7  1  0  0  0  0
  1 10  1  1  0  0  0
  3  2  1  0  0  0  0
  3  8  1  0  0  0  0
  4 18  1  0  0  0  0
  5  8  1  0  0  0  0
  6  2  1  0  0  0  0
  6 16  1  0  0  0  0
  6 19  1  0  0  0  0
  9 13  1  0  0  0  0
  9 14  1  0  0  0  0
  9  4  1  0  0  0  0
 11 20  1  0  0  0  0
 11 21  1  0  0  0  0
 12  5  1  0  0  0  0
 13  6  1  0  0  0  0
 14  2  1  0  0  0  0
 15  9  1  0  0  0  0
 16  1  1  0  0  0  0
 17 12  1  0  0  0  0
 19 18  1  0  0  0  0
 19  7  1  0  0  0  0
 20 14  1  0  0  0  0
 21  3  1  0  0  0  0
 22 21  1  0  0  0  0
 22 17  1  0  0  0  0
 23  4  1  0  0  0  0
 23 27  1  0  0  0  0
 25 26  1  0  0  0  0
 26 23  1  0  0  0  0
 26 24  1  0  0  0  0
 27 29  1  0  0  0  0
 28 27  2  0  0  0  0
 29 30  1  0  0  0  0
 30 31  1  0  0  0  0
M  END
>  <MODEL>
5

>  <REMARK>
 VINA RESULT:      -4.9      2.101      6.750
  Name = 
  5 active torsions:
  status: ('A' for Active; 'I' for Inactive)
    1  A    between atoms: O_1  and  C_8
    2  A    between atoms: C_7  and  C_22
    3  A    between atoms: C_8  and  C_19
    4  A    between atoms: C_9  and  C_22
    5  A    between atoms: C_19  and  C_22
                            x       y       z     vdW  Elec       q    Type
                         _______ _______ _______ _____ _____    ______ ____

>  <TORSDO>
F 5

$$$$
=
 OpenBabel10272400163D

 31 35  0  0  1  0  0  0  0  0999 V2000
  191.6470  172.6670  134.3460 C   0  0  1  0  0  3  0  0  0  0  0  0
  191.2540  174.3480  137.0480 C   0  0  1  0  0  3  0  0  0  0  0  0
  189.8040  174.6880  136.6280 C   0  0  1  0  0  3  0  0  0  0  0  0
  194.2730  174.4270  137.8400 C   0  0  1  0  0  3  0  0  0  0  0  0
  187.3900  173.9190  137.0810 C   0  0  0  0  0  2  0  0  0  0  0  0
  192.2480  174.3040  135.8470 C   0  0  2  0  0  0  0  0  0  0  0  0
  192.5350  172.0840  135.4380 C   0  0  0  0  0  2  0  0  0  0  0  0
  188.8630  173.5160  136.9400 C   0  0  0  0  0  2  0  0  0  0  0  0
  193.3010  175.5960  137.4650 C   0  0  1  0  0  0  0  0  0  0  0  0
  190.3720  172.1070  134.4240 O   0  0  0  0  0  1  0  0  0  0  0  0
  190.3150  177.0680  137.3450 C   0  0  0  0  0  2  0  0  0  0  0  0
  186.7720  174.5070  135.8070 C   0  0  0  0  0  2  0  0  0  0  0  0
  193.0080  175.6010  135.9650 C   0  0  0  0  0  2  0  0  0  0  0  0
  191.9340  175.2790  138.0880 C   0  0  1  0  0  3  0  0  0  0  0  0
  193.8000  176.8320  137.8870 O   0  0  0  0  0  1  0  0  0  0  0  0
  191.5710  174.1150  134.5700 N   0  0  0  0  0  2  0  0  0  0  0  0
  187.6200  175.5750  135.1050 C   0  0  0  0  0  2  0  0  0  0  0  0
  193.7470  173.0650  137.3190 C   0  0  0  0  0  2  0  0  0  0  0  0
  193.2410  173.2330  135.9530 N   0  0  2  0  0  0  0  0  0  0  0  0
  191.1410  176.5300  138.4930 C   0  0  0  0  0  2  0  0  0  0  0  0
  189.2310  176.0540  137.0590 C   0  0  1  0  0  3  0  0  0  0  0  0
  188.2250  176.6230  136.0490 C   0  0  0  0  0  2  0  0  0  0  0  0
  195.7580  174.6050  137.4770 C   0  0  1  0  0  3  0  0  0  0  0  0
  196.1820  174.9750  139.8100 O   0  0  0  0  0  1  0  0  0  0  0  0
  197.8990  175.3190  138.3520 O   0  0  0  0  0  1  0  0  0  0  0  0
  196.7730  174.5390  138.6240 C   0  0  0  0  0  3  0  0  0  0  0  0
  196.1680  173.9350  136.1940 C   0  0  0  0  0  0  0  0  0  0  0  0
  196.0540  174.6090  135.0530 C   0  0  0  0  0  2  0  0  0  0  0  0
  196.5560  172.4910  136.1550 C   0  0  0  0  0  2  0  0  0  0  0  0
  197.9430  172.3710  136.0630 O   0  0  0  0  0  0  0  0  0  0  0  0
  198.2780  171.4390  137.0440 C   0  0  0  0  0  1  0  0  0  0  0  0
  1 10  1  1  0  0  0
  1 16  1  0  0  0  0
  1  7  1  0  0  0  0
  2 14  1  0  0  0  0
  3  8  1  0  0  0  0
  3  2  1  0  0  0  0
  3 21  1  0  0  0  0
  6 19  1  0  0  0  0
  6 13  1  0  0  0  0
  6  2  1  0  0  0  0
  7 19  1  0  0  0  0
  8  5  1  0  0  0  0
  9  4  1  0  0  0  0
  9 15  1  0  0  0  0
  9 14  1  0  0  0  0
 11 20  1  0  0  0  0
 12  5  1  0  0  0  0
 13  9  1  0  0  0  0
 14 20  1  0  0  0  0
 16  6  1  0  0  0  0
 17 12  1  0  0  0  0
 17 22  1  0  0  0  0
 18  4  1  0  0  0  0
 19 18  1  0  0  0  0
 21 11  1  0  0  0  0
 22 21  1  0  0  0  0
 23  4  1  0  0  0  0
 23 26  1  0  0  0  0
 25 26  1  0  0  0  0
 26 24  1  0  0  0  0
 27 23  1  0  0  0  0
 28 27  2  0  0  0  0
 29 27  1  0  0  0  0
 30 29  1  0  0  0  0
 30 31  1  0  0  0  0
M  END
>  <MODEL>
6

>  <REMARK>
 VINA RESULT:      -4.6      2.127      3.718
  Name = 
  5 active torsions:
  status: ('A' for Active; 'I' for Inactive)
    1  A    between atoms: O_1  and  C_8
    2  A    between atoms: C_7  and  C_22
    3  A    between atoms: C_8  and  C_19
    4  A    between atoms: C_9  and  C_22
    5  A    between atoms: C_19  and  C_22
                            x       y       z     vdW  Elec       q    Type
                         _______ _______ _______ _____ _____    ______ ____

>  <TORSDO>
F 5

$$$$
=
 OpenBabel10272400163D

 31 35  0  0  1  0  0  0  0  0999 V2000
  186.5070  179.4790  141.4710 C   0  0  1  0  0  3  0  0  0  0  0  0
  188.4070  177.0600  142.3770 C   0  0  1  0  0  3  0  0  0  0  0  0
  188.0910  177.3640  143.8610 C   0  0  1  0  0  3  0  0  0  0  0  0
  189.7640  176.6350  139.5970 C   0  0  1  0  0  3  0  0  0  0  0  0
  186.5780  176.5250  145.7650 C   0  0  0  0  0  2  0  0  0  0  0  0
  188.5080  178.3410  141.4930 C   0  0  2  0  0  0  0  0  0  0  0  0
  186.5230  178.4130  140.3830 C   0  0  0  0  0  2  0  0  0  0  0  0
  186.7370  176.7620  144.2590 C   0  0  0  0  0  2  0  0  0  0  0  0
  190.3870  177.0840  140.9610 C   0  0  1  0  0  0  0  0  0  0  0  0
  185.5380  179.1680  142.4240 O   0  0  0  0  0  1  0  0  0  0  0  0
  190.5800  177.1070  144.2870 C   0  0  0  0  0  2  0  0  0  0  0  0
  186.6330  177.8000  146.6140 C   0  0  0  0  0  2  0  0  0  0  0  0
  189.9910  178.5220  141.2940 C   0  0  0  0  0  2  0  0  0  0  0  0
  189.7080  176.2690  142.0710 C   0  0  1  0  0  3  0  0  0  0  0  0
  191.7760  176.9280  140.9650 O   0  0  0  0  0  1  0  0  0  0  0  0
  187.8350  179.4860  142.0950 N   0  0  0  0  0  2  0  0  0  0  0  0
  187.7830  178.7580  146.2780 C   0  0  0  0  0  2  0  0  0  0  0  0
  188.2310  176.8650  139.5730 C   0  0  0  0  0  2  0  0  0  0  0  0
  187.9290  178.1740  140.1590 N   0  0  2  0  0  0  0  0  0  0  0  0
  190.6240  175.9870  143.2710 C   0  0  0  0  0  2  0  0  0  0  0  0
  189.1990  177.1010  144.9020 C   0  0  1  0  0  3  0  0  0  0  0  0
  189.1430  178.0710  146.0900 C   0  0  0  0  0  2  0  0  0  0  0  0
  190.4110  177.1860  138.3140 C   0  0  1  0  0  3  0  0  0  0  0  0
  191.4290  175.0240  138.1010 O   0  0  0  0  0  1  0  0  0  0  0  0
  192.7860  176.8510  137.9900 O   0  0  0  0  0  1  0  0  0  0  0  0
  191.5230  176.3480  137.6730 C   0  0  0  0  0  3  0  0  0  0  0  0
  189.4450  177.8390  137.3620 C   0  0  0  0  0  0  0  0  0  0  0  0
  189.3170  179.1630  137.3850 C   0  0  0  0  0  2  0  0  0  0  0  0
  188.5250  177.0300  136.5040 C   0  0  0  0  0  2  0  0  0  0  0  0
  187.4690  177.8240  136.0570 O   0  0  0  0  0  0  0  0  0  0  0  0
  186.3240  177.1110  136.4050 C   0  0  0  0  0  1  0  0  0  0  0  0
  1 16  1  0  0  0  0
  1 10  1  1  0  0  0
  2  3  1  0  0  0  0
  3  8  1  0  0  0  0
  3 21  1  0  0  0  0
  4  9  1  0  0  0  0
  5 12  1  0  0  0  0
  6 16  1  0  0  0  0
  6  2  1  0  0  0  0
  7  1  1  0  0  0  0
  8  5  1  0  0  0  0
  9 15  1  0  0  0  0
  9 13  1  0  0  0  0
  9 14  1  0  0  0  0
 11 21  1  0  0  0  0
 13  6  1  0  0  0  0
 14  2  1  0  0  0  0
 14 20  1  0  0  0  0
 17 12  1  0  0  0  0
 18  4  1  0  0  0  0
 18 19  1  0  0  0  0
 19  7  1  0  0  0  0
 19  6  1  0  0  0  0
 20 11  1  0  0  0  0
 21 22  1  0  0  0  0
 22 17  1  0  0  0  0
 23  4  1  0  0  0  0
 26 25  1  0  0  0  0
 26 24  1  0  0  0  0
 26 23  1  0  0  0  0
 27 28  2  0  0  0  0
 27 23  1  0  0  0  0
 29 27  1  0  0  0  0
 30 31  1  0  0  0  0
 30 29  1  0  0  0  0
M  END
>  <MODEL>
7

>  <REMARK>
 VINA RESULT:      -4.6      4.090      7.528
  Name = 
  5 active torsions:
  status: ('A' for Active; 'I' for Inactive)
    1  A    between atoms: O_1  and  C_8
    2  A    between atoms: C_7  and  C_22
    3  A    between atoms: C_8  and  C_19
    4  A    between atoms: C_9  and  C_22
    5  A    between atoms: C_19  and  C_22
                            x       y       z     vdW  Elec       q    Type
                         _______ _______ _______ _____ _____    ______ ____

>  <TORSDO>
F 5

$$$$
=
 OpenBabel10272400163D

 31 35  0  0  1  0  0  0  0  0999 V2000
  187.3580  172.6260  134.6900 C   0  0  1  0  0  3  0  0  0  0  0  0
  185.4710  174.2510  136.7100 C   0  0  1  0  0  3  0  0  0  0  0  0
  184.2510  173.4280  136.2350 C   0  0  1  0  0  3  0  0  0  0  0  0
  187.5340  176.5010  137.3650 C   0  0  1  0  0  3  0  0  0  0  0  0
  182.8300  171.4100  136.9670 C   0  0  0  0  0  2  0  0  0  0  0  0
  186.4840  174.5660  135.5660 C   0  0  2  0  0  0  0  0  0  0  0  0
  188.1770  173.0810  135.8920 C   0  0  0  0  0  2  0  0  0  0  0  0
  184.2190  172.0600  136.9310 C   0  0  0  0  0  2  0  0  0  0  0  0
  186.1430  176.5900  136.6540 C   0  0  1  0  0  0  0  0  0  0  0  0
  186.7370  171.4110  134.9740 O   0  0  0  0  0  1  0  0  0  0  0  0
  182.9950  175.6310  136.1310 C   0  0  0  0  0  2  0  0  0  0  0  0
  182.2470  171.0900  135.5850 C   0  0  0  0  0  2  0  0  0  0  0  0
  186.2150  176.0130  135.2400 C   0  0  0  0  0  2  0  0  0  0  0  0
  185.1910  175.6250  137.3760 C   0  0  1  0  0  3  0  0  0  0  0  0
  185.6570  177.9000  136.6410 O   0  0  0  0  0  1  0  0  0  0  0  0
  186.3460  173.6570  134.4350 N   0  0  0  0  0  2  0  0  0  0  0  0
  182.3520  172.2220  134.5560 C   0  0  0  0  0  2  0  0  0  0  0  0
  188.0990  175.0580  137.3250 C   0  0  0  0  0  2  0  0  0  0  0  0
  187.8830  174.4900  135.9910 N   0  0  2  0  0  0  0  0  0  0  0  0
  183.7280  176.0910  137.3720 C   0  0  0  0  0  2  0  0  0  0  0  0
  182.8750  174.1270  136.2130 C   0  0  1  0  0  3  0  0  0  0  0  0
  181.9610  173.6050  135.0950 C   0  0  0  0  0  2  0  0  0  0  0  0
  188.6110  177.5110  136.9310 C   0  0  1  0  0  3  0  0  0  0  0  0
  188.1080  178.5920  139.0140 O   0  0  0  0  0  1  0  0  0  0  0  0
  188.9820  179.8690  137.3400 O   0  0  0  0  0  1  0  0  0  0  0  0
  188.9930  178.6050  137.9350 C   0  0  0  0  0  3  0  0  0  0  0  0
  189.7460  176.9110  136.1470 C   0  0  0  0  0  0  0  0  0  0  0  0
  189.6330  176.8140  134.8250 C   0  0  0  0  0  2  0  0  0  0  0  0
  190.9250  176.2910  136.8270 C   0  0  0  0  0  2  0  0  0  0  0  0
  191.4890  175.3130  136.0080 O   0  0  0  0  0  0  0  0  0  0  0  0
  191.6420  174.2060  136.8400 C   0  0  0  0  0  1  0  0  0  0  0  0
  1 10  1  1  0  0  0
  1  7  1  0  0  0  0
  2 14  1  0  0  0  0
  3  2  1  0  0  0  0
  3  8  1  0  0  0  0
  6 19  1  0  0  0  0
  6  2  1  0  0  0  0
  7 19  1  0  0  0  0
  8  5  1  0  0  0  0
  9  4  1  0  0  0  0
  9 14  1  0  0  0  0
 11 21  1  0  0  0  0
 11 20  1  0  0  0  0
 12  5  1  0  0  0  0
 13  6  1  0  0  0  0
 13  9  1  0  0  0  0
 15  9  1  0  0  0  0
 16  1  1  0  0  0  0
 16  6  1  0  0  0  0
 17 22  1  0  0  0  0
 17 12  1  0  0  0  0
 18  4  1  0  0  0  0
 19 18  1  0  0  0  0
 20 14  1  0  0  0  0
 21  3  1  0  0  0  0
 22 21  1  0  0  0  0
 23  4  1  0  0  0  0
 23 26  1  0  0  0  0
 25 26  1  0  0  0  0
 26 24  1  0  0  0  0
 27 29  1  0  0  0  0
 27 23  1  0  0  0  0
 28 27  2  0  0  0  0
 30 29  1  0  0  0  0
 30 31  1  0  0  0  0
M  END
>  <MODEL>
8

>  <REMARK>
 VINA RESULT:      -4.6      3.680      7.073
  Name = 
  5 active torsions:
  status: ('A' for Active; 'I' for Inactive)
    1  A    between atoms: O_1  and  C_8
    2  A    between atoms: C_7  and  C_22
    3  A    between atoms: C_8  and  C_19
    4  A    between atoms: C_9  and  C_22
    5  A    between atoms: C_19  and  C_22
                            x       y       z     vdW  Elec       q    Type
                         _______ _______ _______ _____ _____    ______ ____

>  <TORSDO>
F 5

$$$$
=
 OpenBabel10272400163D

 31 35  0  0  1  0  0  0  0  0999 V2000
  186.9810  174.1350  135.5310 C   0  0  1  0  0  3  0  0  0  0  0  0
  188.2280  176.9710  136.3570 C   0  0  1  0  0  3  0  0  0  0  0  0
  189.6520  176.4130  136.1310 C   0  0  1  0  0  3  0  0  0  0  0  0
  185.5980  178.1650  137.5440 C   0  0  1  0  0  3  0  0  0  0  0  0
  191.5130  176.4230  134.3530 C   0  0  0  0  0  2  0  0  0  0  0  0
  187.2430  175.9210  136.9580 C   0  0  2  0  0  0  0  0  0  0  0  0
  185.9940  175.2420  135.1810 C   0  0  0  0  0  2  0  0  0  0  0  0
  190.0060  176.4260  134.6370 C   0  0  0  0  0  2  0  0  0  0  0  0
  186.9570  177.8330  138.2460 C   0  0  1  0  0  0  0  0  0  0  0  0
  187.8860  173.9600  134.4860 O   0  0  0  0  0  1  0  0  0  0  0  0
  190.2730  177.5240  138.3270 C   0  0  0  0  0  2  0  0  0  0  0  0
  192.2480  175.1750  134.8550 C   0  0  0  0  0  2  0  0  0  0  0  0
  187.1330  176.3230  138.4070 C   0  0  0  0  0  2  0  0  0  0  0  0
  188.0850  178.2150  137.2760 C   0  0  1  0  0  3  0  0  0  0  0  0
  187.0720  178.4900  139.4750 O   0  0  0  0  0  1  0  0  0  0  0  0
  187.6930  174.5510  136.7450 N   0  0  0  0  0  2  0  0  0  0  0  0
  191.9090  174.7520  136.2890 C   0  0  0  0  0  2  0  0  0  0  0  0
  185.4460  177.3890  136.2100 C   0  0  0  0  0  2  0  0  0  0  0  0
  185.8910  176.0060  136.4020 N   0  0  2  0  0  0  0  0  0  0  0  0
  189.3660  178.6840  137.9810 C   0  0  0  0  0  2  0  0  0  0  0  0
  190.7880  176.9530  137.0250 C   0  0  1  0  0  3  0  0  0  0  0  0
  191.8790  175.9080  137.2980 C   0  0  0  0  0  2  0  0  0  0  0  0
  184.3190  178.0340  138.3910 C   0  0  1  0  0  3  0  0  0  0  0  0
  184.4750  180.3880  138.8290 O   0  0  0  0  0  1  0  0  0  0  0  0
  184.5330  178.9710  140.6130 O   0  0  0  0  0  1  0  0  0  0  0  0
  183.9890  179.1870  139.3460 C   0  0  0  0  0  3  0  0  0  0  0  0
  183.1520  177.4250  137.6640 C   0  0  0  0  0  0  0  0  0  0  0  0
  182.3200  178.2250  137.0010 C   0  0  0  0  0  2  0  0  0  0  0  0
  182.8220  175.9720  137.7910 C   0  0  0  0  0  2  0  0  0  0  0  0
  182.7840  175.6070  139.1370 O   0  0  0  0  0  0  0  0  0  0  0  0
  181.4300  175.6320  139.4670 C   0  0  0  0  0  1  0  0  0  0  0  0
  1 10  1  6  0  0  0
  1 16  1  0  0  0  0
  2  6  1  0  0  0  0
  2 14  1  0  0  0  0
  3  2  1  0  0  0  0
  3 21  1  0  0  0  0
  4  9  1  0  0  0  0
  4 23  1  0  0  0  0
  5  8  1  0  0  0  0
  5 12  1  0  0  0  0
  6 13  1  0  0  0  0
  7  1  1  0  0  0  0
  7 19  1  0  0  0  0
  8  3  1  0  0  0  0
  9 13  1  0  0  0  0
  9 15  1  0  0  0  0
 12 17  1  0  0  0  0
 14 20  1  0  0  0  0
 14  9  1  0  0  0  0
 16  6  1  0  0  0  0
 17 22  1  0  0  0  0
 18 19  1  0  0  0  0
 18  4  1  0  0  0  0
 19  6  1  0  0  0  0
 20 11  1  0  0  0  0
 21 22  1  0  0  0  0
 21 11  1  0  0  0  0
 23 26  1  0  0  0  0
 24 26  1  0  0  0  0
 26 25  1  0  0  0  0
 27 29  1  0  0  0  0
 27 23  1  0  0  0  0
 28 27  2  0  0  0  0
 29 30  1  0  0  0  0
 30 31  1  0  0  0  0
M  END
>  <MODEL>
9

>  <REMARK>
 VINA RESULT:      -4.6      3.956      8.913
  Name = 
  5 active torsions:
  status: ('A' for Active; 'I' for Inactive)
    1  A    between atoms: O_1  and  C_8
    2  A    between atoms: C_7  and  C_22
    3  A    between atoms: C_8  and  C_19
    4  A    between atoms: C_9  and  C_22
    5  A    between atoms: C_19  and  C_22
                            x       y       z     vdW  Elec       q    Type
                         _______ _______ _______ _____ _____    ______ ____

>  <TORSDO>
F 5

$$$$
