=
 OpenBabel10272415143D

 34 36  0  0  1  0  0  0  0  0999 V2000
  190.5760  177.4610  142.0740 N   0  0  0  0  0  2  0  0  0  0  0  0
  190.8540  175.3740  143.0890 O   0  0  0  0  0  0  0  0  0  0  0  0
  190.3180  176.5160  143.1200 C   0  0  0  0  0  0  0  0  0  0  0  0
  187.4750  176.6200  142.9470 O   0  0  0  0  0  1  0  0  0  0  0  0
  187.1080  178.4810  147.5250 C   0  0  0  0  0  2  0  0  0  0  0  0
  189.2790  177.7820  146.5440 C   0  0  0  0  0  3  0  0  0  0  0  0
  188.0850  176.9870  144.1430 C   0  0  0  0  0  0  0  0  0  0  0  0
  190.0810  177.2820  145.5170 C   0  0  0  0  0  0  0  0  0  0  0  0
  189.4890  176.9040  144.2840 C   0  0  0  0  0  0  0  0  0  0  0  0
  185.6200  178.1430  147.4490 C   0  0  0  0  0  2  0  0  0  0  0  0
  185.0750  178.3820  146.0420 C   0  0  2  0  0  3  0  0  0  0  0  0
  187.8960  177.8650  146.4050 C   0  0  0  0  0  0  0  0  0  0  0  0
  185.7880  177.4740  145.0410 C   0  0  0  0  0  2  0  0  0  0  0  0
  187.2900  177.4680  145.1960 C   0  0  0  0  0  0  0  0  0  0  0  0
  191.4520  177.1730  145.7750 O   0  0  0  0  0  0  0  0  0  0  0  0
  192.0000  176.1620  146.6080 C   0  0  0  0  0  1  0  0  0  0  0  0
  185.2240  179.7780  145.6530 N   0  0  0  0  0  2  0  0  0  0  0  0
  184.7090  179.9060  144.2990 C   0  0  0  0  0  2  0  0  0  0  0  0
  182.9450  178.8150  142.9220 C   0  0  0  0  0  1  0  0  0  0  0  0
  183.2560  179.4700  144.2540 C   0  0  0  0  0  2  0  0  0  0  0  0
  189.0880  176.8020  139.7200 F   0  0  0  0  0  0  0  0  0  0  0  0
  193.2220  177.0640  139.4970 C   0  0  0  0  0  3  0  0  0  0  0  0
  191.0840  176.5920  138.4430 C   0  0  0  0  0  0  0  0  0  0  0  0
  191.1920  177.1750  140.8120 C   0  0  0  0  0  0  0  0  0  0  0  0
  192.4990  176.6700  138.3690 C   0  0  0  0  0  0  0  0  0  0  0  0
  192.5750  177.3260  140.7030 C   0  0  0  0  0  3  0  0  0  0  0  0
  190.4440  176.8230  139.6730 C   0  0  0  0  0  0  0  0  0  0  0  0
  193.2880  176.2950  137.1840 C   0  0  0  0  0  3  0  0  0  0  0  0
  194.1930  177.0340  136.7150 O   0  0  0  0  0  0  0  0  0  0  0  0
  190.2650  176.3390  137.2970 N   0  0  0  0  0  2  0  0  0  0  0  0
  189.9290  177.3720  136.3280 C   0  0  0  0  0  2  0  0  0  0  0  0
  187.6160  177.7570  136.7320 O   0  0  0  0  0  0  0  0  0  0  0  0
  188.7950  178.1850  136.8400 C   0  0  0  0  0  0  0  0  0  0  0  0
  189.0320  179.4330  137.4000 O   0  0  0  0  0  1  0  0  0  0  0  0
  1  3  1  0  0  0  0
  2  3  2  0  0  0  0
  3  9  1  0  0  0  0
  4  7  1  0  0  0  0
  7  9  2  0  0  0  0
  7 14  1  0  0  0  0
  8 15  1  0  0  0  0
  8  6  2  0  0  0  0
  9  8  1  0  0  0  0
 10  5  1  0  0  0  0
 11 17  1  6  0  0  0
 11 10  1  0  0  0  0
 12  6  1  0  0  0  0
 12  5  1  0  0  0  0
 13 14  1  0  0  0  0
 13 11  1  0  0  0  0
 14 12  2  0  0  0  0
 15 16  1  0  0  0  0
 18 17  1  0  0  0  0
 19 20  1  0  0  0  0
 20 18  1  0  0  0  0
 22 26  1  0  0  0  0
 23 27  2  0  0  0  0
 24  1  1  0  0  0  0
 25 23  1  0  0  0  0
 25 22  2  0  0  0  0
 26 24  2  0  0  0  0
 27 21  1  0  0  0  0
 27 24  1  0  0  0  0
 28 25  1  0  0  0  0
 29 28  2  0  0  0  0
 30 23  1  0  0  0  0
 31 33  1  0  0  0  0
 31 30  1  0  0  0  0
 32 33  2  0  0  0  0
 33 34  1  0  0  0  0
M  END
>  <MODEL>
1

>  <REMARK>
 VINA RESULT:      -8.3      0.000      0.000
  Name = 
  10 active torsions:
  status: ('A' for Active; 'I' for Inactive)
    1  A    between atoms: C_7  and  N_14
    2  A    between atoms: C_7  and  C_15
    3  A    between atoms: N_8  and  C_18
    4  A    between atoms: O_12  and  C_19
    5  A    between atoms: C_13  and  C_24
    6  A    between atoms: N_14  and  C_16
    7  A    between atoms: C_17  and  C_20
    8  A    between atoms: C_24  and  N_25
    9  A    between atoms: N_25  and  C_27
   10  A    between atoms: C_26  and  C_28
                            x       y       z     vdW  Elec       q    Type
                         _______ _______ _______ _____ _____    ______ ____

>  <TORSDO>
F 10

$$$$
=
 OpenBabel10272415143D

 34 36  0  0  1  0  0  0  0  0999 V2000
  188.1890  176.9930  141.8070 N   0  0  0  0  0  2  0  0  0  0  0  0
  188.6180  179.1430  140.9980 O   0  0  0  0  0  0  0  0  0  0  0  0
  188.4630  177.9170  140.7460 C   0  0  0  0  0  0  0  0  0  0  0  0
  186.5490  178.4660  138.7070 O   0  0  0  0  0  1  0  0  0  0  0  0
  188.9570  175.6010  135.4580 C   0  0  0  0  0  2  0  0  0  0  0  0
  189.8340  176.0550  137.7370 C   0  0  0  0  0  3  0  0  0  0  0  0
  187.6540  177.6800  138.3910 C   0  0  0  0  0  0  0  0  0  0  0  0
  189.7660  176.6230  139.0090 C   0  0  0  0  0  0  0  0  0  0  0  0
  188.6490  177.4240  139.3620 C   0  0  0  0  0  0  0  0  0  0  0  0
  188.0970  176.2540  134.3780 C   0  0  0  0  0  2  0  0  0  0  0  0
  186.6790  176.5090  134.8860 C   0  0  2  0  0  3  0  0  0  0  0  0
  188.8530  176.3050  136.7810 C   0  0  0  0  0  0  0  0  0  0  0  0
  186.7110  177.4740  136.0710 C   0  0  0  0  0  2  0  0  0  0  0  0
  187.7520  177.1220  137.1060 C   0  0  0  0  0  0  0  0  0  0  0  0
  190.8320  176.3690  139.8790 O   0  0  0  0  0  0  0  0  0  0  0  0
  191.9130  177.2730  140.0560 C   0  0  0  0  0  1  0  0  0  0  0  0
  186.0270  175.2630  135.2670 N   0  0  0  0  0  2  0  0  0  0  0  0
  184.9080  175.6080  136.1290 C   0  0  0  0  0  2  0  0  0  0  0  0
  186.0020  173.7570  137.3830 C   0  0  0  0  0  1  0  0  0  0  0  0
  184.7160  174.5350  137.1840 C   0  0  0  0  0  2  0  0  0  0  0  0
  190.0370  177.1230  143.9890 F   0  0  0  0  0  0  0  0  0  0  0  0
  186.0520  178.0680  144.6500 C   0  0  0  0  0  3  0  0  0  0  0  0
  188.3060  177.7470  145.4970 C   0  0  0  0  0  0  0  0  0  0  0  0
  187.8010  177.3350  143.1440 C   0  0  0  0  0  0  0  0  0  0  0  0
  186.9420  178.0590  145.7270 C   0  0  0  0  0  0  0  0  0  0  0  0
  186.4800  177.7220  143.3690 C   0  0  0  0  0  3  0  0  0  0  0  0
  188.7200  177.3640  144.2100 C   0  0  0  0  0  0  0  0  0  0  0  0
  186.3620  178.3140  147.0560 C   0  0  0  0  0  3  0  0  0  0  0  0
  185.3260  179.0120  147.2160 O   0  0  0  0  0  0  0  0  0  0  0  0
  189.3050  177.8570  146.5180 N   0  0  0  0  0  2  0  0  0  0  0  0
  189.7440  176.7210  147.3120 C   0  0  0  0  0  2  0  0  0  0  0  0
  191.8470  177.2540  146.3350 O   0  0  0  0  0  0  0  0  0  0  0  0
  191.1910  176.4760  147.0750 C   0  0  0  0  0  0  0  0  0  0  0  0
  191.8090  175.3680  147.6380 O   0  0  0  0  0  1  0  0  0  0  0  0
  1 24  1  0  0  0  0
  3  2  2  0  0  0  0
  3  1  1  0  0  0  0
  5 12  1  0  0  0  0
  6  8  1  0  0  0  0
  7  4  1  0  0  0  0
  7  9  1  0  0  0  0
  8  9  2  0  0  0  0
  8 15  1  0  0  0  0
  9  3  1  0  0  0  0
 10 11  1  0  0  0  0
 10  5  1  0  0  0  0
 11 17  1  1  0  0  0
 11 13  1  0  0  0  0
 12 14  1  0  0  0  0
 12  6  2  0  0  0  0
 13 14  1  0  0  0  0
 14  7  2  0  0  0  0
 15 16  1  0  0  0  0
 17 18  1  0  0  0  0
 18 20  1  0  0  0  0
 20 19  1  0  0  0  0
 21 27  1  0  0  0  0
 22 25  1  0  0  0  0
 23 25  2  0  0  0  0
 23 30  1  0  0  0  0
 24 26  1  0  0  0  0
 24 27  2  0  0  0  0
 25 28  1  0  0  0  0
 26 22  2  0  0  0  0
 27 23  1  0  0  0  0
 28 29  2  0  0  0  0
 30 31  1  0  0  0  0
 32 33  2  0  0  0  0
 33 31  1  0  0  0  0
 33 34  1  0  0  0  0
M  END
>  <MODEL>
2

>  <REMARK>
 VINA RESULT:      -7.8      2.857      8.790
  Name = 
  10 active torsions:
  status: ('A' for Active; 'I' for Inactive)
    1  A    between atoms: C_7  and  N_14
    2  A    between atoms: C_7  and  C_15
    3  A    between atoms: N_8  and  C_18
    4  A    between atoms: O_12  and  C_19
    5  A    between atoms: C_13  and  C_24
    6  A    between atoms: N_14  and  C_16
    7  A    between atoms: C_17  and  C_20
    8  A    between atoms: C_24  and  N_25
    9  A    between atoms: N_25  and  C_27
   10  A    between atoms: C_26  and  C_28
                            x       y       z     vdW  Elec       q    Type
                         _______ _______ _______ _____ _____    ______ ____

>  <TORSDO>
F 10

$$$$
=
 OpenBabel10272415143D

 34 36  0  0  1  0  0  0  0  0999 V2000
  188.4430  176.9540  141.9540 N   0  0  0  0  0  2  0  0  0  0  0  0
  188.7040  179.1070  141.0840 O   0  0  0  0  0  0  0  0  0  0  0  0
  188.6660  177.8650  140.8700 C   0  0  0  0  0  0  0  0  0  0  0  0
  190.8630  176.1230  140.3560 O   0  0  0  0  0  1  0  0  0  0  0  0
  189.9980  176.2170  135.4770 C   0  0  0  0  0  2  0  0  0  0  0  0
  188.5090  177.3460  137.1140 C   0  0  0  0  0  3  0  0  0  0  0  0
  190.0630  176.5220  139.2880 C   0  0  0  0  0  0  0  0  0  0  0  0
  188.1380  177.7340  138.4020 C   0  0  0  0  0  0  0  0  0  0  0  0
  188.9370  177.3470  139.5090 C   0  0  0  0  0  0  0  0  0  0  0  0
  190.9380  175.0180  135.3750 C   0  0  0  0  0  2  0  0  0  0  0  0
  192.0990  175.1470  136.3600 C   0  0  2  0  0  3  0  0  0  0  0  0
  189.6190  176.5340  136.8960 C   0  0  0  0  0  0  0  0  0  0  0  0
  191.5710  175.1770  137.7940 C   0  0  0  0  0  2  0  0  0  0  0  0
  190.4070  176.1180  137.9880 C   0  0  0  0  0  0  0  0  0  0  0  0
  186.9700  178.4940  138.5270 O   0  0  0  0  0  0  0  0  0  0  0  0
  185.7500  178.1370  137.8940 C   0  0  0  0  0  1  0  0  0  0  0  0
  192.8860  176.3420  136.0870 N   0  0  0  0  0  2  0  0  0  0  0  0
  193.6840  176.0710  134.9020 C   0  0  0  0  0  2  0  0  0  0  0  0
  195.5610  177.7080  134.9080 C   0  0  0  0  0  1  0  0  0  0  0  0
  195.1560  176.2770  135.2090 C   0  0  0  0  0  2  0  0  0  0  0  0
  190.1740  177.0890  144.2300 F   0  0  0  0  0  0  0  0  0  0  0  0
  186.1620  178.0440  144.6760 C   0  0  0  0  0  3  0  0  0  0  0  0
  188.3670  177.7220  145.6420 C   0  0  0  0  0  0  0  0  0  0  0  0
  187.9860  177.3020  143.2680 C   0  0  0  0  0  0  0  0  0  0  0  0
  186.9930  178.0370  145.7990 C   0  0  0  0  0  0  0  0  0  0  0  0
  186.6560  177.6930  143.4210 C   0  0  0  0  0  3  0  0  0  0  0  0
  188.8480  177.3330  144.3800 C   0  0  0  0  0  0  0  0  0  0  0  0
  186.3450  178.2990  147.0950 C   0  0  0  0  0  3  0  0  0  0  0  0
  185.2220  178.8610  147.1840 O   0  0  0  0  0  0  0  0  0  0  0  0
  189.3110  177.8340  146.7140 N   0  0  0  0  0  2  0  0  0  0  0  0
  189.8380  176.6770  147.4200 C   0  0  0  0  0  2  0  0  0  0  0  0
  191.8750  176.0950  146.3360 O   0  0  0  0  0  0  0  0  0  0  0  0
  191.3210  176.6610  147.3130 C   0  0  0  0  0  0  0  0  0  0  0  0
  192.0950  177.2370  148.3120 O   0  0  0  0  0  1  0  0  0  0  0  0
  1 24  1  0  0  0  0
  3  2  2  0  0  0  0
  3  1  1  0  0  0  0
  5 12  1  0  0  0  0
  6  8  1  0  0  0  0
  7  9  1  0  0  0  0
  7  4  1  0  0  0  0
  8 15  1  0  0  0  0
  8  9  2  0  0  0  0
  9  3  1  0  0  0  0
 10  5  1  0  0  0  0
 10 11  1  0  0  0  0
 11 17  1  6  0  0  0
 11 13  1  0  0  0  0
 12  6  2  0  0  0  0
 12 14  1  0  0  0  0
 13 14  1  0  0  0  0
 14  7  2  0  0  0  0
 16 15  1  0  0  0  0
 18 20  1  0  0  0  0
 18 17  1  0  0  0  0
 19 20  1  0  0  0  0
 21 27  1  0  0  0  0
 22 25  1  0  0  0  0
 23 25  2  0  0  0  0
 23 30  1  0  0  0  0
 24 26  1  0  0  0  0
 24 27  2  0  0  0  0
 25 28  1  0  0  0  0
 26 22  2  0  0  0  0
 27 23  1  0  0  0  0
 28 29  2  0  0  0  0
 30 31  1  0  0  0  0
 32 33  2  0  0  0  0
 33 31  1  0  0  0  0
 33 34  1  0  0  0  0
M  END
>  <MODEL>
3

>  <REMARK>
 VINA RESULT:      -7.6      2.385      9.775
  Name = 
  10 active torsions:
  status: ('A' for Active; 'I' for Inactive)
    1  A    between atoms: C_7  and  N_14
    2  A    between atoms: C_7  and  C_15
    3  A    between atoms: N_8  and  C_18
    4  A    between atoms: O_12  and  C_19
    5  A    between atoms: C_13  and  C_24
    6  A    between atoms: N_14  and  C_16
    7  A    between atoms: C_17  and  C_20
    8  A    between atoms: C_24  and  N_25
    9  A    between atoms: N_25  and  C_27
   10  A    between atoms: C_26  and  C_28
                            x       y       z     vdW  Elec       q    Type
                         _______ _______ _______ _____ _____    ______ ____

>  <TORSDO>
F 10

$$$$
=
 OpenBabel10272415143D

 34 36  0  0  1  0  0  0  0  0999 V2000
  190.1260  176.5220  141.5460 N   0  0  0  0  0  2  0  0  0  0  0  0
  191.9030  177.8410  140.7960 O   0  0  0  0  0  0  0  0  0  0  0  0
  190.8460  177.2120  140.5170 C   0  0  0  0  0  0  0  0  0  0  0  0
  188.5950  178.6840  139.5740 O   0  0  0  0  0  1  0  0  0  0  0  0
  188.8210  176.4910  135.1360 C   0  0  0  0  0  2  0  0  0  0  0  0
  190.5130  176.0850  136.9080 C   0  0  0  0  0  3  0  0  0  0  0  0
  189.2510  177.8310  138.6920 C   0  0  0  0  0  0  0  0  0  0  0  0
  191.0500  176.2590  138.1840 C   0  0  0  0  0  0  0  0  0  0  0  0
  190.3990  177.1190  139.1070 C   0  0  0  0  0  0  0  0  0  0  0  0
  187.8710  177.5820  134.6450 C   0  0  0  0  0  2  0  0  0  0  0  0
  186.8480  177.9410  135.7220 C   0  0  2  0  0  3  0  0  0  0  0  0
  189.3810  176.7850  136.4980 C   0  0  0  0  0  0  0  0  0  0  0  0
  187.5570  178.4930  136.9570 C   0  0  0  0  0  2  0  0  0  0  0  0
  188.7410  177.6640  137.3940 C   0  0  0  0  0  0  0  0  0  0  0  0
  192.2270  175.5650  138.4810 O   0  0  0  0  0  0  0  0  0  0  0  0
  193.4810  175.8920  137.9000 C   0  0  0  0  0  1  0  0  0  0  0  0
  186.0370  176.7860  136.0790 N   0  0  0  0  0  2  0  0  0  0  0  0
  184.6610  177.2450  136.1980 C   0  0  0  0  0  2  0  0  0  0  0  0
  184.1700  178.2620  138.4160 C   0  0  0  0  0  1  0  0  0  0  0  0
  184.1460  176.9830  137.6010 C   0  0  0  0  0  2  0  0  0  0  0  0
  188.3370  177.9930  143.2280 F   0  0  0  0  0  0  0  0  0  0  0  0
  191.6100  176.0890  144.9240 C   0  0  0  0  0  3  0  0  0  0  0  0
  189.6520  177.5090  145.1510 C   0  0  0  0  0  0  0  0  0  0  0  0
  190.3220  176.6710  142.9580 C   0  0  0  0  0  0  0  0  0  0  0  0
  190.7770  176.8690  145.7300 C   0  0  0  0  0  0  0  0  0  0  0  0
  191.3780  175.9810  143.5540 C   0  0  0  0  0  3  0  0  0  0  0  0
  189.4470  177.4240  143.7640 C   0  0  0  0  0  0  0  0  0  0  0  0
  191.1840  177.0190  147.1380 C   0  0  0  0  0  3  0  0  0  0  0  0
  192.1690  176.4030  147.6240 O   0  0  0  0  0  0  0  0  0  0  0  0
  188.6730  178.2030  145.9330 N   0  0  0  0  0  2  0  0  0  0  0  0
  187.5190  177.5370  146.5160 C   0  0  0  0  0  2  0  0  0  0  0  0
  185.7840  178.0170  144.9580 O   0  0  0  0  0  0  0  0  0  0  0  0
  186.2750  178.2360  146.0960 C   0  0  0  0  0  0  0  0  0  0  0  0
  185.6780  179.1590  146.9440 O   0  0  0  0  0  1  0  0  0  0  0  0
  1 24  1  0  0  0  0
  3  2  2  0  0  0  0
  3  1  1  0  0  0  0
  5 12  1  0  0  0  0
  6  8  1  0  0  0  0
  7  9  1  0  0  0  0
  7  4  1  0  0  0  0
  8 15  1  0  0  0  0
  8  9  2  0  0  0  0
  9  3  1  0  0  0  0
 10  5  1  0  0  0  0
 10 11  1  0  0  0  0
 11 17  1  1  0  0  0
 11 13  1  0  0  0  0
 12  6  2  0  0  0  0
 12 14  1  0  0  0  0
 13 14  1  0  0  0  0
 14  7  2  0  0  0  0
 16 15  1  0  0  0  0
 17 18  1  0  0  0  0
 18 20  1  0  0  0  0
 20 19  1  0  0  0  0
 21 27  1  0  0  0  0
 22 25  1  0  0  0  0
 23 25  2  0  0  0  0
 23 30  1  0  0  0  0
 24 26  1  0  0  0  0
 24 27  2  0  0  0  0
 25 28  1  0  0  0  0
 26 22  2  0  0  0  0
 27 23  1  0  0  0  0
 28 29  2  0  0  0  0
 30 31  1  0  0  0  0
 32 33  2  0  0  0  0
 33 31  1  0  0  0  0
 33 34  1  0  0  0  0
M  END
>  <MODEL>
4

>  <REMARK>
 VINA RESULT:      -7.5      2.510      8.002
  Name = 
  10 active torsions:
  status: ('A' for Active; 'I' for Inactive)
    1  A    between atoms: C_7  and  N_14
    2  A    between atoms: C_7  and  C_15
    3  A    between atoms: N_8  and  C_18
    4  A    between atoms: O_12  and  C_19
    5  A    between atoms: C_13  and  C_24
    6  A    between atoms: N_14  and  C_16
    7  A    between atoms: C_17  and  C_20
    8  A    between atoms: C_24  and  N_25
    9  A    between atoms: N_25  and  C_27
   10  A    between atoms: C_26  and  C_28
                            x       y       z     vdW  Elec       q    Type
                         _______ _______ _______ _____ _____    ______ ____

>  <TORSDO>
F 10

$$$$
=
 OpenBabel10272415143D

 34 36  0  0  1  0  0  0  0  0999 V2000
  189.0200  176.8690  142.2120 N   0  0  0  0  0  2  0  0  0  0  0  0
  189.0580  179.0700  141.4280 O   0  0  0  0  0  0  0  0  0  0  0  0
  188.9780  177.8400  141.1600 C   0  0  0  0  0  0  0  0  0  0  0  0
  186.7230  178.4150  139.5130 O   0  0  0  0  0  1  0  0  0  0  0  0
  188.5660  175.7250  135.7810 C   0  0  0  0  0  2  0  0  0  0  0  0
  189.8250  176.1180  137.8850 C   0  0  0  0  0  3  0  0  0  0  0  0
  187.7690  177.6680  138.9760 C   0  0  0  0  0  0  0  0  0  0  0  0
  189.9740  176.6390  139.1710 C   0  0  0  0  0  0  0  0  0  0  0  0
  188.9240  177.4010  139.7450 C   0  0  0  0  0  0  0  0  0  0  0  0
  187.5180  176.3950  134.8950 C   0  0  0  0  0  2  0  0  0  0  0  0
  186.2080  176.5990  135.6550 C   0  0  2  0  0  3  0  0  0  0  0  0
  188.6860  176.3790  137.1270 C   0  0  0  0  0  0  0  0  0  0  0  0
  186.4330  177.5210  136.8520 C   0  0  0  0  0  2  0  0  0  0  0  0
  187.6460  177.1580  137.6740 C   0  0  0  0  0  0  0  0  0  0  0  0
  191.1810  176.3790  139.8280 O   0  0  0  0  0  0  0  0  0  0  0  0
  192.2700  177.2910  139.8260 C   0  0  0  0  0  1  0  0  0  0  0  0
  185.6550  175.3260  136.0960 N   0  0  0  0  0  2  0  0  0  0  0  0
  184.5230  175.6230  136.9590 C   0  0  0  0  0  2  0  0  0  0  0  0
  185.2280  173.3520  137.6970 C   0  0  0  0  0  1  0  0  0  0  0  0
  184.1100  174.3770  137.7210 C   0  0  0  0  0  2  0  0  0  0  0  0
  186.4950  177.3280  143.4780 F   0  0  0  0  0  0  0  0  0  0  0  0
  189.9440  177.3180  145.7820 C   0  0  0  0  0  3  0  0  0  0  0  0
  187.5390  177.6070  145.5970 C   0  0  0  0  0  0  0  0  0  0  0  0
  188.8830  177.1370  143.6140 C   0  0  0  0  0  0  0  0  0  0  0  0
  188.7190  177.6150  146.3840 C   0  0  0  0  0  0  0  0  0  0  0  0
  190.0240  177.0690  144.4140 C   0  0  0  0  0  3  0  0  0  0  0  0
  187.6340  177.3910  144.2120 C   0  0  0  0  0  0  0  0  0  0  0  0
  188.7630  177.9870  147.8080 C   0  0  0  0  0  3  0  0  0  0  0  0
  188.2190  177.2890  148.7040 O   0  0  0  0  0  0  0  0  0  0  0  0
  186.2330  177.7570  146.1650 N   0  0  0  0  0  2  0  0  0  0  0  0
  185.5900  179.0520  146.3230 C   0  0  0  0  0  2  0  0  0  0  0  0
  183.3590  178.7990  145.5340 O   0  0  0  0  0  1  0  0  0  0  0  0
  184.5250  179.2090  145.2980 C   0  0  0  0  0  0  0  0  0  0  0  0
  184.8260  179.7720  144.0650 O   0  0  0  0  0  0  0  0  0  0  0  0
  1 24  1  0  0  0  0
  3  2  2  0  0  0  0
  3  1  1  0  0  0  0
  5 12  1  0  0  0  0
  6  8  1  0  0  0  0
  7  4  1  0  0  0  0
  7  9  1  0  0  0  0
  8  9  2  0  0  0  0
  8 15  1  0  0  0  0
  9  3  1  0  0  0  0
 10 11  1  0  0  0  0
 10  5  1  0  0  0  0
 11 17  1  1  0  0  0
 11 13  1  0  0  0  0
 12 14  1  0  0  0  0
 12  6  2  0  0  0  0
 13 14  1  0  0  0  0
 14  7  2  0  0  0  0
 16 15  1  0  0  0  0
 17 18  1  0  0  0  0
 18 20  1  0  0  0  0
 19 20  1  0  0  0  0
 21 27  1  0  0  0  0
 22 25  1  0  0  0  0
 23 30  1  0  0  0  0
 23 25  2  0  0  0  0
 24 27  2  0  0  0  0
 24 26  1  0  0  0  0
 25 28  1  0  0  0  0
 26 22  2  0  0  0  0
 27 23  1  0  0  0  0
 28 29  2  0  0  0  0
 30 31  1  0  0  0  0
 33 32  1  0  0  0  0
 33 31  1  0  0  0  0
 34 33  2  0  0  0  0
M  END
>  <MODEL>
5

>  <REMARK>
 VINA RESULT:      -7.4      3.016      8.244
  Name = 
  10 active torsions:
  status: ('A' for Active; 'I' for Inactive)
    1  A    between atoms: C_7  and  N_14
    2  A    between atoms: C_7  and  C_15
    3  A    between atoms: N_8  and  C_18
    4  A    between atoms: O_12  and  C_19
    5  A    between atoms: C_13  and  C_24
    6  A    between atoms: N_14  and  C_16
    7  A    between atoms: C_17  and  C_20
    8  A    between atoms: C_24  and  N_25
    9  A    between atoms: N_25  and  C_27
   10  A    between atoms: C_26  and  C_28
                            x       y       z     vdW  Elec       q    Type
                         _______ _______ _______ _____ _____    ______ ____

>  <TORSDO>
F 10

$$$$
=
 OpenBabel10272415143D

 34 36  0  0  1  0  0  0  0  0999 V2000
  189.9550  177.4160  141.5190 N   0  0  0  0  0  2  0  0  0  0  0  0
  190.4950  175.4110  142.5910 O   0  0  0  0  0  0  0  0  0  0  0  0
  189.9020  176.5230  142.6390 C   0  0  0  0  0  0  0  0  0  0  0  0
  187.0600  176.6620  142.8040 O   0  0  0  0  0  1  0  0  0  0  0  0
  187.2620  178.5900  147.3640 C   0  0  0  0  0  2  0  0  0  0  0  0
  189.2930  177.8500  146.1420 C   0  0  0  0  0  3  0  0  0  0  0  0
  187.8120  177.0370  143.9140 C   0  0  0  0  0  0  0  0  0  0  0  0
  189.9610  177.3250  145.0350 C   0  0  0  0  0  0  0  0  0  0  0  0
  189.2210  176.9380  143.8880 C   0  0  0  0  0  0  0  0  0  0  0  0
  185.7720  178.2700  147.4720 C   0  0  0  0  0  2  0  0  0  0  0  0
  185.0660  178.4970  146.1360 C   0  0  2  0  0  3  0  0  0  0  0  0
  187.9040  177.9480  146.1680 C   0  0  0  0  0  0  0  0  0  0  0  0
  185.6440  177.5660  145.0710 C   0  0  0  0  0  2  0  0  0  0  0  0
  187.1530  177.5420  145.0470 C   0  0  0  0  0  0  0  0  0  0  0  0
  191.3510  177.2030  145.1290 O   0  0  0  0  0  0  0  0  0  0  0  0
  191.9850  176.1190  145.7920 C   0  0  0  0  0  1  0  0  0  0  0  0
  185.1830  179.8850  145.7110 N   0  0  0  0  0  2  0  0  0  0  0  0
  184.5350  179.9950  144.4130 C   0  0  0  0  0  2  0  0  0  0  0  0
  182.8000  178.7960  143.0900 C   0  0  0  0  0  1  0  0  0  0  0  0
  183.1690  179.3360  144.4580 C   0  0  0  0  0  2  0  0  0  0  0  0
  192.7210  177.2480  140.8030 F   0  0  0  0  0  0  0  0  0  0  0  0
  189.8330  176.3980  137.9480 C   0  0  0  0  0  3  0  0  0  0  0  0
  192.1680  176.6680  138.5620 C   0  0  0  0  0  0  0  0  0  0  0  0
  190.4040  177.0860  140.1980 C   0  0  0  0  0  0  0  0  0  0  0  0
  191.1820  176.3890  137.5820 C   0  0  0  0  0  0  0  0  0  0  0  0
  189.4490  176.7310  139.2460 C   0  0  0  0  0  3  0  0  0  0  0  0
  191.7700  177.0380  139.8580 C   0  0  0  0  0  0  0  0  0  0  0  0
  191.4710  176.1500  136.1590 C   0  0  0  0  0  3  0  0  0  0  0  0
  191.1450  175.0830  135.5750 O   0  0  0  0  0  0  0  0  0  0  0  0
  193.5710  176.5370  138.3040 N   0  0  0  0  0  2  0  0  0  0  0  0
  194.2570  175.2550  138.3350 C   0  0  0  0  0  2  0  0  0  0  0  0
  194.3310  174.1200  136.2440 O   0  0  0  0  0  0  0  0  0  0  0  0
  194.8550  174.9770  137.0020 C   0  0  0  0  0  0  0  0  0  0  0  0
  196.0130  175.6340  136.6100 O   0  0  0  0  0  1  0  0  0  0  0  0
  1  3  1  0  0  0  0
  2  3  2  0  0  0  0
  3  9  1  0  0  0  0
  4  7  1  0  0  0  0
  5 10  1  0  0  0  0
  6 12  1  0  0  0  0
  7 14  1  0  0  0  0
  8 15  1  0  0  0  0
  8  6  2  0  0  0  0
  9  7  2  0  0  0  0
  9  8  1  0  0  0  0
 11 17  1  6  0  0  0
 11 10  1  0  0  0  0
 12  5  1  0  0  0  0
 13 11  1  0  0  0  0
 14 13  1  0  0  0  0
 14 12  2  0  0  0  0
 15 16  1  0  0  0  0
 18 20  1  0  0  0  0
 18 17  1  0  0  0  0
 19 20  1  0  0  0  0
 22 26  1  0  0  0  0
 23 27  2  0  0  0  0
 24  1  1  0  0  0  0
 25 22  2  0  0  0  0
 25 23  1  0  0  0  0
 26 24  2  0  0  0  0
 27 24  1  0  0  0  0
 27 21  1  0  0  0  0
 28 25  1  0  0  0  0
 29 28  2  0  0  0  0
 30 31  1  0  0  0  0
 30 23  1  0  0  0  0
 32 33  2  0  0  0  0
 33 31  1  0  0  0  0
 34 33  1  0  0  0  0
M  END
>  <MODEL>
6

>  <REMARK>
 VINA RESULT:      -7.2      1.730      2.865
  Name = 
  10 active torsions:
  status: ('A' for Active; 'I' for Inactive)
    1  A    between atoms: C_7  and  N_14
    2  A    between atoms: C_7  and  C_15
    3  A    between atoms: N_8  and  C_18
    4  A    between atoms: O_12  and  C_19
    5  A    between atoms: C_13  and  C_24
    6  A    between atoms: N_14  and  C_16
    7  A    between atoms: C_17  and  C_20
    8  A    between atoms: C_24  and  N_25
    9  A    between atoms: N_25  and  C_27
   10  A    between atoms: C_26  and  C_28
                            x       y       z     vdW  Elec       q    Type
                         _______ _______ _______ _____ _____    ______ ____

>  <TORSDO>
F 10

$$$$
=
 OpenBabel10272415143D

 34 36  0  0  1  0  0  0  0  0999 V2000
  188.0250  177.1030  142.1150 N   0  0  0  0  0  2  0  0  0  0  0  0
  188.3780  179.2400  141.2360 O   0  0  0  0  0  0  0  0  0  0  0  0
  188.4110  177.9920  141.0580 C   0  0  0  0  0  0  0  0  0  0  0  0
  186.8890  178.1450  138.6530 O   0  0  0  0  0  1  0  0  0  0  0  0
  190.2350  175.4520  136.1800 C   0  0  0  0  0  2  0  0  0  0  0  0
  190.5760  176.1590  138.5360 C   0  0  0  0  0  3  0  0  0  0  0  0
  188.1250  177.5030  138.6220 C   0  0  0  0  0  0  0  0  0  0  0  0
  190.1850  176.7880  139.7190 C   0  0  0  0  0  0  0  0  0  0  0  0
  188.9300  177.4470  139.7820 C   0  0  0  0  0  0  0  0  0  0  0  0
  189.5340  175.9130  134.9030 C   0  0  0  0  0  2  0  0  0  0  0  0
  188.0220  175.9990  135.1090 C   0  0  2  0  0  3  0  0  0  0  0  0
  189.7820  176.2130  137.3930 C   0  0  0  0  0  0  0  0  0  0  0  0
  187.6970  177.0280  136.1910 C   0  0  0  0  0  2  0  0  0  0  0  0
  188.5450  176.8870  137.4320 C   0  0  0  0  0  0  0  0  0  0  0  0
  191.0790  176.7370  140.7930 O   0  0  0  0  0  0  0  0  0  0  0  0
  192.2280  177.5670  140.8780 C   0  0  0  0  0  1  0  0  0  0  0  0
  187.4680  174.7000  135.4650 N   0  0  0  0  0  2  0  0  0  0  0  0
  187.7260  173.8010  134.3510 C   0  0  0  0  0  2  0  0  0  0  0  0
  188.1050  172.4050  136.3780 C   0  0  0  0  0  1  0  0  0  0  0  0
  188.2370  172.4690  134.8680 C   0  0  0  0  0  2  0  0  0  0  0  0
  185.2430  177.7690  142.1830 F   0  0  0  0  0  0  0  0  0  0  0  0
  187.4070  177.7440  145.7210 C   0  0  0  0  0  3  0  0  0  0  0  0
  185.3260  178.1370  144.5320 C   0  0  0  0  0  0  0  0  0  0  0  0
  187.3360  177.4710  143.3170 C   0  0  0  0  0  0  0  0  0  0  0  0
  186.0680  178.1400  145.7410 C   0  0  0  0  0  0  0  0  0  0  0  0
  188.0320  177.4000  144.5240 C   0  0  0  0  0  3  0  0  0  0  0  0
  185.9740  177.8250  143.3240 C   0  0  0  0  0  0  0  0  0  0  0  0
  185.5410  178.6040  147.0350 C   0  0  0  0  0  3  0  0  0  0  0  0
  185.7740  179.7580  147.4820 O   0  0  0  0  0  0  0  0  0  0  0  0
  183.9170  178.3890  144.4910 N   0  0  0  0  0  2  0  0  0  0  0  0
  183.3550  179.6290  143.9780 C   0  0  0  0  0  2  0  0  0  0  0  0
  182.3620  178.5110  142.1270 O   0  0  0  0  0  0  0  0  0  0  0  0
  182.2130  179.3230  143.0770 C   0  0  0  0  0  0  0  0  0  0  0  0
  180.9940  179.9620  143.2590 O   0  0  0  0  0  1  0  0  0  0  0  0
  1 24  1  0  0  0  0
  3  2  2  0  0  0  0
  3  1  1  0  0  0  0
  5 12  1  0  0  0  0
  6  8  1  0  0  0  0
  7  4  1  0  0  0  0
  7  9  1  0  0  0  0
  8  9  2  0  0  0  0
  8 15  1  0  0  0  0
  9  3  1  0  0  0  0
 10 11  1  0  0  0  0
 10  5  1  0  0  0  0
 11 17  1  1  0  0  0
 11 13  1  0  0  0  0
 12 14  1  0  0  0  0
 12  6  2  0  0  0  0
 13 14  1  0  0  0  0
 14  7  2  0  0  0  0
 15 16  1  0  0  0  0
 18 20  1  0  0  0  0
 18 17  1  0  0  0  0
 20 19  1  0  0  0  0
 21 27  1  0  0  0  0
 22 25  1  0  0  0  0
 23 25  2  0  0  0  0
 24 27  2  0  0  0  0
 24 26  1  0  0  0  0
 25 28  1  0  0  0  0
 26 22  2  0  0  0  0
 27 23  1  0  0  0  0
 28 29  2  0  0  0  0
 30 23  1  0  0  0  0
 31 30  1  0  0  0  0
 32 33  2  0  0  0  0
 33 34  1  0  0  0  0
 33 31  1  0  0  0  0
M  END
>  <MODEL>
7

>  <REMARK>
 VINA RESULT:      -7.0      3.025      8.871
  Name = 
  10 active torsions:
  status: ('A' for Active; 'I' for Inactive)
    1  A    between atoms: C_7  and  N_14
    2  A    between atoms: C_7  and  C_15
    3  A    between atoms: N_8  and  C_18
    4  A    between atoms: O_12  and  C_19
    5  A    between atoms: C_13  and  C_24
    6  A    between atoms: N_14  and  C_16
    7  A    between atoms: C_17  and  C_20
    8  A    between atoms: C_24  and  N_25
    9  A    between atoms: N_25  and  C_27
   10  A    between atoms: C_26  and  C_28
                            x       y       z     vdW  Elec       q    Type
                         _______ _______ _______ _____ _____    ______ ____

>  <TORSDO>
F 10

$$$$
=
 OpenBabel10272415143D

 34 36  0  0  1  0  0  0  0  0999 V2000
  185.5520  177.6970  142.8420 N   0  0  0  0  0  2  0  0  0  0  0  0
  185.4440  179.9940  142.4240 O   0  0  0  0  0  0  0  0  0  0  0  0
  184.9140  178.8570  142.2930 C   0  0  0  0  0  0  0  0  0  0  0  0
  184.9990  178.5150  139.4640 O   0  0  0  0  0  1  0  0  0  0  0  0
  180.0610  178.7670  139.1290 C   0  0  0  0  0  2  0  0  0  0  0  0
  181.2490  178.7960  141.3090 C   0  0  0  0  0  3  0  0  0  0  0  0
  183.7580  178.5910  140.0900 C   0  0  0  0  0  0  0  0  0  0  0  0
  182.3940  178.7860  142.1060 C   0  0  0  0  0  0  0  0  0  0  0  0
  183.6730  178.7140  141.4960 C   0  0  0  0  0  0  0  0  0  0  0  0
  180.2160  178.2160  137.7120 C   0  0  0  0  0  2  0  0  0  0  0  0
  181.4650  178.7830  137.0380 C   0  0  2  0  0  3  0  0  0  0  0  0
  181.3310  178.6760  139.9240 C   0  0  0  0  0  0  0  0  0  0  0  0
  182.7140  178.3690  137.8150 C   0  0  0  0  0  2  0  0  0  0  0  0
  182.5930  178.5750  139.3050 C   0  0  0  0  0  0  0  0  0  0  0  0
  182.2080  178.8430  143.4910 O   0  0  0  0  0  0  0  0  0  0  0  0
  180.9310  178.7180  144.1010 C   0  0  0  0  0  1  0  0  0  0  0  0
  181.3910  180.2340  136.9350 N   0  0  0  0  0  2  0  0  0  0  0  0
  180.7340  180.5440  135.6760 C   0  0  0  0  0  2  0  0  0  0  0  0
  180.5880  182.7370  136.8460 C   0  0  0  0  0  1  0  0  0  0  0  0
  180.6410  182.0480  135.4960 C   0  0  0  0  0  2  0  0  0  0  0  0
  188.2690  178.2090  142.1000 F   0  0  0  0  0  0  0  0  0  0  0  0
  187.3500  177.5350  146.0890 C   0  0  0  0  0  3  0  0  0  0  0  0
  188.9950  177.9530  144.3510 C   0  0  0  0  0  0  0  0  0  0  0  0
  186.6350  177.6960  143.7820 C   0  0  0  0  0  0  0  0  0  0  0  0
  188.6840  177.7120  145.7140 C   0  0  0  0  0  0  0  0  0  0  0  0
  186.3350  177.5400  145.1350 C   0  0  0  0  0  3  0  0  0  0  0  0
  187.9690  177.9200  143.3920 C   0  0  0  0  0  0  0  0  0  0  0  0
  189.6890  177.5620  146.7800 C   0  0  0  0  0  3  0  0  0  0  0  0
  189.7870  176.5150  147.4710 O   0  0  0  0  0  0  0  0  0  0  0  0
  190.3160  178.2880  143.9100 N   0  0  0  0  0  2  0  0  0  0  0  0
  191.3170  177.2800  143.5960 C   0  0  0  0  0  2  0  0  0  0  0  0
  190.4840  175.9640  141.7970 O   0  0  0  0  0  1  0  0  0  0  0  0
  191.2250  176.9150  142.1580 C   0  0  0  0  0  0  0  0  0  0  0  0
  191.9850  177.5990  141.2180 O   0  0  0  0  0  0  0  0  0  0  0  0
  1 24  1  0  0  0  0
  3  2  2  0  0  0  0
  3  1  1  0  0  0  0
  4  7  1  0  0  0  0
  5 12  1  0  0  0  0
  6  8  1  0  0  0  0
  7  9  1  0  0  0  0
  8 15  1  0  0  0  0
  9  8  2  0  0  0  0
  9  3  1  0  0  0  0
 10  5  1  0  0  0  0
 11 17  1  1  0  0  0
 11 10  1  0  0  0  0
 11 13  1  0  0  0  0
 12  6  2  0  0  0  0
 13 14  1  0  0  0  0
 14 12  1  0  0  0  0
 14  7  2  0  0  0  0
 15 16  1  0  0  0  0
 18 17  1  0  0  0  0
 20 18  1  0  0  0  0
 20 19  1  0  0  0  0
 21 27  1  0  0  0  0
 23 25  2  0  0  0  0
 24 26  1  0  0  0  0
 25 22  1  0  0  0  0
 25 28  1  0  0  0  0
 26 22  2  0  0  0  0
 27 24  2  0  0  0  0
 27 23  1  0  0  0  0
 28 29  2  0  0  0  0
 30 23  1  0  0  0  0
 31 30  1  0  0  0  0
 32 33  1  0  0  0  0
 33 31  1  0  0  0  0
 34 33  2  0  0  0  0
M  END
>  <MODEL>
8

>  <REMARK>
 VINA RESULT:      -7.0      4.097      8.110
  Name = 
  10 active torsions:
  status: ('A' for Active; 'I' for Inactive)
    1  A    between atoms: C_7  and  N_14
    2  A    between atoms: C_7  and  C_15
    3  A    between atoms: N_8  and  C_18
    4  A    between atoms: O_12  and  C_19
    5  A    between atoms: C_13  and  C_24
    6  A    between atoms: N_14  and  C_16
    7  A    between atoms: C_17  and  C_20
    8  A    between atoms: C_24  and  N_25
    9  A    between atoms: N_25  and  C_27
   10  A    between atoms: C_26  and  C_28
                            x       y       z     vdW  Elec       q    Type
                         _______ _______ _______ _____ _____    ______ ____

>  <TORSDO>
F 10

$$$$
=
 OpenBabel10272415143D

 34 36  0  0  1  0  0  0  0  0999 V2000
  189.0700  176.8180  140.7210 N   0  0  0  0  0  2  0  0  0  0  0  0
  188.1800  178.9780  140.6520 O   0  0  0  0  0  0  0  0  0  0  0  0
  188.5080  177.9780  141.3480 C   0  0  0  0  0  0  0  0  0  0  0  0
  190.5810  178.4320  143.2510 O   0  0  0  0  0  1  0  0  0  0  0  0
  187.5210  177.5070  147.0380 C   0  0  0  0  0  2  0  0  0  0  0  0
  186.7400  177.5640  144.6810 C   0  0  0  0  0  3  0  0  0  0  0  0
  189.2960  178.1600  143.7150 C   0  0  0  0  0  0  0  0  0  0  0  0
  186.9330  177.7040  143.3060 C   0  0  0  0  0  0  0  0  0  0  0  0
  188.2320  177.9760  142.8040 C   0  0  0  0  0  0  0  0  0  0  0  0
  188.5880  178.1250  147.9390 C   0  0  0  0  0  2  0  0  0  0  0  0
  189.9910  177.7630  147.4530 C   0  0  2  0  0  3  0  0  0  0  0  0
  187.7890  177.7440  145.5800 C   0  0  0  0  0  0  0  0  0  0  0  0
  190.2200  178.3180  146.0470 C   0  0  0  0  0  2  0  0  0  0  0  0
  189.0790  178.0430  145.0980 C   0  0  0  0  0  0  0  0  0  0  0  0
  185.8060  177.5710  142.4880 O   0  0  0  0  0  0  0  0  0  0  0  0
  184.7640  178.5350  142.4520 C   0  0  0  0  0  1  0  0  0  0  0  0
  190.1940  176.3210  147.4650 N   0  0  0  0  0  2  0  0  0  0  0  0
  191.3250  176.0370  146.5960 C   0  0  0  0  0  2  0  0  0  0  0  0
  192.8690  175.9510  148.5470 C   0  0  0  0  0  1  0  0  0  0  0  0
  192.3500  175.1990  147.3360 C   0  0  0  0  0  2  0  0  0  0  0  0
  191.8570  176.8490  140.0720 F   0  0  0  0  0  0  0  0  0  0  0  0
  189.0710  176.4520  137.0250 C   0  0  0  0  0  3  0  0  0  0  0  0
  191.3800  176.6660  137.7490 C   0  0  0  0  0  0  0  0  0  0  0  0
  189.5630  176.7410  139.3780 C   0  0  0  0  0  0  0  0  0  0  0  0
  190.4280  176.5420  136.7050 C   0  0  0  0  0  0  0  0  0  0  0  0
  188.6430  176.5380  138.3480 C   0  0  0  0  0  3  0  0  0  0  0  0
  190.9370  176.7880  139.0760 C   0  0  0  0  0  0  0  0  0  0  0  0
  190.7610  176.5690  135.2700 C   0  0  0  0  0  3  0  0  0  0  0  0
  190.9410  175.5170  134.6010 O   0  0  0  0  0  0  0  0  0  0  0  0
  192.7920  176.6180  137.5140 N   0  0  0  0  0  2  0  0  0  0  0  0
  193.5420  175.3720  137.4980 C   0  0  0  0  0  2  0  0  0  0  0  0
  194.0670  174.4330  135.3750 O   0  0  0  0  0  0  0  0  0  0  0  0
  194.3480  175.2910  136.2510 C   0  0  0  0  0  0  0  0  0  0  0  0
  195.4350  176.1360  136.0700 O   0  0  0  0  0  1  0  0  0  0  0  0
  1  3  1  0  0  0  0
  2  3  2  0  0  0  0
  3  9  1  0  0  0  0
  4  7  1  0  0  0  0
  5 10  1  0  0  0  0
  6 12  1  0  0  0  0
  7 14  1  0  0  0  0
  8  6  2  0  0  0  0
  9  8  1  0  0  0  0
  9  7  2  0  0  0  0
 11 17  1  6  0  0  0
 11 10  1  0  0  0  0
 12  5  1  0  0  0  0
 13 11  1  0  0  0  0
 14 12  2  0  0  0  0
 14 13  1  0  0  0  0
 15  8  1  0  0  0  0
 16 15  1  0  0  0  0
 18 20  1  0  0  0  0
 18 17  1  0  0  0  0
 20 19  1  0  0  0  0
 22 26  1  0  0  0  0
 23 27  2  0  0  0  0
 24  1  1  0  0  0  0
 25 22  2  0  0  0  0
 25 23  1  0  0  0  0
 26 24  2  0  0  0  0
 27 24  1  0  0  0  0
 27 21  1  0  0  0  0
 28 25  1  0  0  0  0
 29 28  2  0  0  0  0
 30 23  1  0  0  0  0
 31 30  1  0  0  0  0
 32 33  2  0  0  0  0
 33 31  1  0  0  0  0
 34 33  1  0  0  0  0
M  END
>  <MODEL>
9

>  <REMARK>
 VINA RESULT:      -6.8      2.265      5.101
  Name = 
  10 active torsions:
  status: ('A' for Active; 'I' for Inactive)
    1  A    between atoms: C_7  and  N_14
    2  A    between atoms: C_7  and  C_15
    3  A    between atoms: N_8  and  C_18
    4  A    between atoms: O_12  and  C_19
    5  A    between atoms: C_13  and  C_24
    6  A    between atoms: N_14  and  C_16
    7  A    between atoms: C_17  and  C_20
    8  A    between atoms: C_24  and  N_25
    9  A    between atoms: N_25  and  C_27
   10  A    between atoms: C_26  and  C_28
                            x       y       z     vdW  Elec       q    Type
                         _______ _______ _______ _____ _____    ______ ____

>  <TORSDO>
F 10

$$$$
