=
 OpenBabel10272414563D

 37 39  0  0  1  0  0  0  0  0999 V2000
  184.1470  179.7510  139.3870 C   0  0  0  0  0  2  0  0  0  0  0  0
  181.7810  176.0920  139.6960 C   0  0  0  0  0  2  0  0  0  0  0  0
  185.3110  178.7920  139.0720 C   0  0  2  0  0  3  0  0  0  0  0  0
  182.8330  177.1490  139.3530 C   0  0  2  0  0  3  0  0  0  0  0  0
  182.2250  178.3430  138.6760 C   0  0  0  0  0  3  0  0  0  0  0  0
  184.0070  176.5590  138.5360 C   0  0  1  0  0  3  0  0  0  0  0  0
  182.5110  174.6890  137.7660 C   0  0  0  0  0  2  0  0  0  0  0  0
  182.8490  179.5230  138.6420 C   0  0  0  0  0  0  0  0  0  0  0  0
  183.4900  175.7680  137.3270 C   0  0  0  0  0  2  0  0  0  0  0  0
  184.9840  177.6560  138.0660 C   0  0  2  0  0  3  0  0  0  0  0  0
  181.3150  175.3350  138.4550 C   0  0  1  0  0  3  0  0  0  0  0  0
  180.3980  174.3500  138.8260 O   0  0  0  0  0  0  0  0  0  0  0  0
  179.9860  174.7090  140.1090 C   0  0  0  0  0  1  0  0  0  0  0  0
  181.0900  180.3700  137.1330 C   0  0  0  0  0  1  0  0  0  0  0  0
  182.2430  180.5660  137.9370 O   0  0  0  0  0  0  0  0  0  0  0  0
  186.0480  178.4460  140.3820 C   0  0  1  0  0  3  0  0  0  0  0  0
  188.1000  177.4730  141.1190 O   0  0  0  0  0  1  0  0  0  0  0  0
  187.5680  178.5340  140.3880 C   0  0  0  0  0  2  0  0  0  0  0  0
  185.4140  179.1120  141.5980 C   0  0  0  0  0  2  0  0  0  0  0  0
  184.8450  178.0970  142.5770 C   0  0  0  0  0  2  0  0  0  0  0  0
  186.8270  177.3400  143.9030 C   0  0  0  0  0  3  0  0  0  0  0  0
  185.6460  178.0870  143.8310 C   0  0  0  0  0  0  0  0  0  0  0  0
  185.2060  178.8070  144.9470 C   0  0  0  0  0  3  0  0  0  0  0  0
  185.5150  179.5050  147.2360 O   0  0  0  0  0  1  0  0  0  0  0  0
  187.1330  178.0460  146.2000 C   0  0  0  0  0  3  0  0  0  0  0  0
  185.9500  178.7880  146.1300 C   0  0  0  0  0  0  0  0  0  0  0  0
  187.5720  177.3210  145.0870 C   0  0  0  0  0  3  0  0  0  0  0  0
  186.1170  177.1940  137.1310 C   0  0  1  0  0  3  0  0  0  0  0  0
  186.7440  178.3380  136.3920 C   0  0  0  0  0  0  0  0  0  0  0  0
  187.3890  179.1870  136.9870 O   0  0  0  0  0  0  0  0  0  0  0  0
  186.0880  177.1110  134.3510 C   0  0  0  0  0  1  0  0  0  0  0  0
  186.5570  178.4400  134.9160 C   0  0  0  0  0  2  0  0  0  0  0  0
  187.1680  176.3120  137.7880 C   0  0  0  0  0  2  0  0  0  0  0  0
  187.2570  174.9770  137.0770 C   0  0  0  0  0  2  0  0  0  0  0  0
  188.7010  174.6810  136.7400 C   0  0  0  0  0  2  0  0  0  0  0  0
  189.8840  176.3810  135.4460 C   0  0  0  0  0  2  0  0  0  0  0  0
  189.4560  175.9600  136.6330 C   0  0  0  0  0  3  0  0  0  0  0  0
  3  1  1  0  0  0  0
  3 16  1  1  0  0  0
  4  5  1  6  0  0  0
  4  2  1  0  0  0  0
  6  9  1  6  0  0  0
  6  4  1  0  0  0  0
  7 11  1  0  0  0  0
  8  5  2  0  0  0  0
  8  1  1  0  0  0  0
  9  7  1  0  0  0  0
 10 28  1  1  0  0  0
 10  6  1  0  0  0  0
 10  3  1  0  0  0  0
 11 12  1  1  0  0  0
 11  2  1  0  0  0  0
 12 13  1  0  0  0  0
 14 15  1  0  0  0  0
 15  8  1  0  0  0  0
 16 18  1  6  0  0  0
 16 19  1  0  0  0  0
 18 17  1  0  0  0  0
 19 20  1  0  0  0  0
 20 22  1  0  0  0  0
 21 27  1  0  0  0  0
 22 21  2  0  0  0  0
 22 23  1  0  0  0  0
 23 26  2  0  0  0  0
 26 25  1  0  0  0  0
 26 24  1  0  0  0  0
 27 25  2  0  0  0  0
 28 33  1  1  0  0  0
 29 30  2  0  0  0  0
 29 28  1  0  0  0  0
 31 32  1  0  0  0  0
 32 29  1  0  0  0  0
 34 33  1  0  0  0  0
 35 34  1  0  0  0  0
 36 37  2  0  0  0  0
 37 35  1  0  0  0  0
M  END
>  <MODEL>
1

>  <REMARK>
 VINA RESULT:      -5.8      0.000      0.000
  Name = 
  14 active torsions:
  status: ('A' for Active; 'I' for Inactive)
    1  A    between atoms: C_1  and  C_23
    2  A    between atoms: C_1  and  C_36
    3  A    between atoms: O_3  and  C_32
    4  A    between atoms: C_6  and  C_31
    5  A    between atoms: C_10  and  C_14
    6  A    between atoms: C_14  and  C_27
    7  A    between atoms: C_14  and  C_37
    8  A    between atoms: C_17  and  C_26
    9  A    between atoms: C_17  and  C_33
   10  A    between atoms: C_24  and  O_28
   11  A    between atoms: C_26  and  C_34
   12  A    between atoms: C_29  and  C_36
   13  A    between atoms: C_31  and  C_37
   14  A    between atoms: C_33  and  C_36
                            x       y       z     vdW  Elec       q    Type
                         _______ _______ _______ _____ _____    ______ ____

>  <TORSDO>
F 14

$$$$
=
 OpenBabel10272414563D

 37 39  0  0  1  0  0  0  0  0999 V2000
  189.9130  177.6160  137.3180 C   0  0  0  0  0  2  0  0  0  0  0  0
  187.6370  173.8880  137.3080 C   0  0  0  0  0  2  0  0  0  0  0  0
  191.1250  176.7000  137.5750 C   0  0  2  0  0  3  0  0  0  0  0  0
  188.7300  174.9540  137.2060 C   0  0  2  0  0  3  0  0  0  0  0  0
  188.3880  176.0070  136.1920 C   0  0  0  0  0  3  0  0  0  0  0  0
  190.1240  174.3370  136.9480 C   0  0  1  0  0  3  0  0  0  0  0  0
  189.0230  172.2900  135.9850 C   0  0  0  0  0  2  0  0  0  0  0  0
  188.9680  177.2100  136.2070 C   0  0  0  0  0  0  0  0  0  0  0  0
  190.0810  173.3620  135.7640 C   0  0  0  0  0  2  0  0  0  0  0  0
  191.1910  175.4220  136.6960 C   0  0  2  0  0  3  0  0  0  0  0  0
  187.6530  172.9450  136.1080 C   0  0  1  0  0  3  0  0  0  0  0  0
  186.6760  171.9620  136.2730 O   0  0  0  0  0  0  0  0  0  0  0  0
  187.0170  170.9610  135.3630 C   0  0  0  0  0  1  0  0  0  0  0  0
  187.5130  177.9260  134.3470 C   0  0  0  0  0  1  0  0  0  0  0  0
  188.6410  178.1090  135.1900 O   0  0  0  0  0  0  0  0  0  0  0  0
  191.3510  176.5770  139.0950 C   0  0  1  0  0  3  0  0  0  0  0  0
  193.7160  176.8600  139.2590 O   0  0  0  0  0  1  0  0  0  0  0  0
  192.4990  177.3660  139.7100 C   0  0  0  0  0  2  0  0  0  0  0  0
  190.0550  176.7080  139.8870 C   0  0  0  0  0  2  0  0  0  0  0  0
  190.2840  176.5870  141.3860 C   0  0  0  0  0  2  0  0  0  0  0  0
  188.8300  176.4860  143.4190 C   0  0  0  0  0  3  0  0  0  0  0  0
  189.0530  176.9750  142.1270 C   0  0  0  0  0  0  0  0  0  0  0  0
  188.1090  177.8120  141.5240 C   0  0  0  0  0  3  0  0  0  0  0  0
  186.0110  179.0010  141.6170 O   0  0  0  0  0  1  0  0  0  0  0  0
  186.7250  177.6820  143.5070 C   0  0  0  0  0  3  0  0  0  0  0  0
  186.9460  178.1670  142.2140 C   0  0  0  0  0  0  0  0  0  0  0  0
  187.6660  176.8410  144.1100 C   0  0  0  0  0  3  0  0  0  0  0  0
  192.5880  174.9130  136.2950 C   0  0  1  0  0  3  0  0  0  0  0  0
  193.3570  175.9290  135.5060 C   0  0  0  0  0  0  0  0  0  0  0  0
  192.8700  176.4480  134.5120 O   0  0  0  0  0  0  0  0  0  0  0  0
  195.3680  177.2460  134.9400 C   0  0  0  0  0  1  0  0  0  0  0  0
  194.7380  176.2930  135.9380 C   0  0  0  0  0  2  0  0  0  0  0  0
  193.4180  174.3540  137.4420 C   0  0  0  0  0  2  0  0  0  0  0  0
  194.0860  173.0590  137.0280 C   0  0  0  0  0  2  0  0  0  0  0  0
  195.1360  172.6850  138.0510 C   0  0  0  0  0  2  0  0  0  0  0  0
  196.5240  174.3770  139.1320 C   0  0  0  0  0  2  0  0  0  0  0  0
  196.2290  173.6940  138.0300 C   0  0  0  0  0  3  0  0  0  0  0  0
  1  3  1  0  0  0  0
  3 16  1  1  0  0  0
  4  5  1  6  0  0  0
  4  2  1  0  0  0  0
  5  8  2  0  0  0  0
  6  9  1  6  0  0  0
  6  4  1  0  0  0  0
  7 11  1  0  0  0  0
  8  1  1  0  0  0  0
  9  7  1  0  0  0  0
 10 28  1  1  0  0  0
 10  6  1  0  0  0  0
 10  3  1  0  0  0  0
 11 12  1  1  0  0  0
 11  2  1  0  0  0  0
 13 12  1  0  0  0  0
 14 15  1  0  0  0  0
 15  8  1  0  0  0  0
 16 18  1  1  0  0  0
 16 19  1  0  0  0  0
 17 18  1  0  0  0  0
 19 20  1  0  0  0  0
 20 22  1  0  0  0  0
 21 27  1  0  0  0  0
 22 21  2  0  0  0  0
 23 22  1  0  0  0  0
 23 26  2  0  0  0  0
 24 26  1  0  0  0  0
 25 27  2  0  0  0  0
 26 25  1  0  0  0  0
 28 33  1  1  0  0  0
 29 32  1  0  0  0  0
 29 28  1  0  0  0  0
 30 29  2  0  0  0  0
 31 32  1  0  0  0  0
 34 33  1  0  0  0  0
 34 35  1  0  0  0  0
 37 35  1  0  0  0  0
 37 36  2  0  0  0  0
M  END
>  <MODEL>
2

>  <REMARK>
 VINA RESULT:      -5.1      4.034      6.525
  Name = 
  14 active torsions:
  status: ('A' for Active; 'I' for Inactive)
    1  A    between atoms: C_1  and  C_23
    2  A    between atoms: C_1  and  C_36
    3  A    between atoms: O_3  and  C_32
    4  A    between atoms: C_6  and  C_31
    5  A    between atoms: C_10  and  C_14
    6  A    between atoms: C_14  and  C_27
    7  A    between atoms: C_14  and  C_37
    8  A    between atoms: C_17  and  C_26
    9  A    between atoms: C_17  and  C_33
   10  A    between atoms: C_24  and  O_28
   11  A    between atoms: C_26  and  C_34
   12  A    between atoms: C_29  and  C_36
   13  A    between atoms: C_31  and  C_37
   14  A    between atoms: C_33  and  C_36
                            x       y       z     vdW  Elec       q    Type
                         _______ _______ _______ _____ _____    ______ ____

>  <TORSDO>
F 14

$$$$
=
 OpenBabel10272414563D

 37 39  0  0  1  0  0  0  0  0999 V2000
  190.0070  177.4010  137.5950 C   0  0  0  0  0  2  0  0  0  0  0  0
  189.0200  173.2310  136.7480 C   0  0  0  0  0  2  0  0  0  0  0  0
  191.4320  176.8610  137.8210 C   0  0  2  0  0  3  0  0  0  0  0  0
  189.7260  174.5770  136.9310 C   0  0  2  0  0  3  0  0  0  0  0  0
  189.1180  175.6470  136.0730 C   0  0  0  0  0  3  0  0  0  0  0  0
  191.2540  174.4670  136.7200 C   0  0  1  0  0  3  0  0  0  0  0  0
  190.8970  172.4010  135.3290 C   0  0  0  0  0  2  0  0  0  0  0  0
  189.2890  176.9440  136.3430 C   0  0  0  0  0  0  0  0  0  0  0  0
  191.5740  173.7630  135.3940 C   0  0  0  0  0  2  0  0  0  0  0  0
  191.9360  175.8490  136.7570 C   0  0  2  0  0  3  0  0  0  0  0  0
  189.3860  172.5780  135.4180 C   0  0  1  0  0  3  0  0  0  0  0  0
  188.7610  171.3340  135.3210 O   0  0  0  0  0  0  0  0  0  0  0  0
  187.4630  171.6170  134.8950 C   0  0  0  0  0  1  0  0  0  0  0  0
  187.4860  177.6800  134.8280 C   0  0  0  0  0  1  0  0  0  0  0  0
  188.7430  177.8760  135.4580 O   0  0  0  0  0  0  0  0  0  0  0  0
  191.6150  176.5320  139.3160 C   0  0  1  0  0  3  0  0  0  0  0  0
  193.7440  177.6130  139.3180 O   0  0  0  0  0  1  0  0  0  0  0  0
  192.6250  177.3510  140.1070 C   0  0  0  0  0  2  0  0  0  0  0  0
  190.2840  176.3740  140.0430 C   0  0  0  0  0  2  0  0  0  0  0  0
  190.3160  176.9840  141.4360 C   0  0  0  0  0  2  0  0  0  0  0  0
  188.1840  178.2150  140.9910 C   0  0  0  0  0  3  0  0  0  0  0  0
  188.9500  177.4110  141.8430 C   0  0  0  0  0  0  0  0  0  0  0  0
  188.4390  177.0260  143.0870 C   0  0  0  0  0  3  0  0  0  0  0  0
  186.6520  177.0530  144.7080 O   0  0  0  0  0  1  0  0  0  0  0  0
  186.3940  178.2370  142.6220 C   0  0  0  0  0  3  0  0  0  0  0  0
  187.1610  177.4380  143.4750 C   0  0  0  0  0  0  0  0  0  0  0  0
  186.9060  178.6270  141.3800 C   0  0  0  0  0  3  0  0  0  0  0  0
  193.4400  175.8690  136.4220 C   0  0  1  0  0  3  0  0  0  0  0  0
  194.1440  174.6370  136.9050 C   0  0  0  0  0  0  0  0  0  0  0  0
  194.4440  173.7430  136.1290 O   0  0  0  0  0  0  0  0  0  0  0  0
  195.5550  173.4730  138.5640 C   0  0  0  0  0  1  0  0  0  0  0  0
  194.4620  174.5040  138.3570 C   0  0  0  0  0  2  0  0  0  0  0  0
  193.7650  176.1610  134.9640 C   0  0  0  0  0  2  0  0  0  0  0  0
  194.9980  177.0370  134.8640 C   0  0  0  0  0  2  0  0  0  0  0  0
  196.1580  176.2150  134.3460 C   0  0  0  0  0  2  0  0  0  0  0  0
  197.7580  174.9880  135.7220 C   0  0  0  0  0  2  0  0  0  0  0  0
  197.2250  176.1580  135.3820 C   0  0  0  0  0  3  0  0  0  0  0  0
  1  3  1  0  0  0  0
  2  4  1  0  0  0  0
  3 16  1  1  0  0  0
  4  5  1  6  0  0  0
  5  8  2  0  0  0  0
  6  9  1  6  0  0  0
  6 10  1  0  0  0  0
  6  4  1  0  0  0  0
  7  9  1  0  0  0  0
  7 11  1  0  0  0  0
  8  1  1  0  0  0  0
 10 28  1  1  0  0  0
 10  3  1  0  0  0  0
 11 12  1  1  0  0  0
 11  2  1  0  0  0  0
 13 12  1  0  0  0  0
 14 15  1  0  0  0  0
 15  8  1  0  0  0  0
 16 19  1  1  0  0  0
 16 18  1  0  0  0  0
 17 18  1  0  0  0  0
 19 20  1  0  0  0  0
 20 22  1  0  0  0  0
 21 27  2  0  0  0  0
 21 22  1  0  0  0  0
 22 23  2  0  0  0  0
 23 26  1  0  0  0  0
 25 26  2  0  0  0  0
 26 24  1  0  0  0  0
 27 25  1  0  0  0  0
 28 33  1  6  0  0  0
 28 29  1  0  0  0  0
 29 32  1  0  0  0  0
 30 29  2  0  0  0  0
 32 31  1  0  0  0  0
 34 33  1  0  0  0  0
 35 34  1  0  0  0  0
 35 37  1  0  0  0  0
 37 36  2  0  0  0  0
M  END
>  <MODEL>
3

>  <REMARK>
 VINA RESULT:      -4.9      4.218      7.277
  Name = 
  14 active torsions:
  status: ('A' for Active; 'I' for Inactive)
    1  A    between atoms: C_1  and  C_23
    2  A    between atoms: C_1  and  C_36
    3  A    between atoms: O_3  and  C_32
    4  A    between atoms: C_6  and  C_31
    5  A    between atoms: C_10  and  C_14
    6  A    between atoms: C_14  and  C_27
    7  A    between atoms: C_14  and  C_37
    8  A    between atoms: C_17  and  C_26
    9  A    between atoms: C_17  and  C_33
   10  A    between atoms: C_24  and  O_28
   11  A    between atoms: C_26  and  C_34
   12  A    between atoms: C_29  and  C_36
   13  A    between atoms: C_31  and  C_37
   14  A    between atoms: C_33  and  C_36
                            x       y       z     vdW  Elec       q    Type
                         _______ _______ _______ _____ _____    ______ ____

>  <TORSDO>
F 14

$$$$
=
 OpenBabel10272414563D

 37 39  0  0  1  0  0  0  0  0999 V2000
  190.8550  176.3050  139.0370 C   0  0  0  0  0  2  0  0  0  0  0  0
  188.6980  176.2250  142.8340 C   0  0  0  0  0  2  0  0  0  0  0  0
  189.4640  176.5530  138.4240 C   0  0  2  0  0  3  0  0  0  0  0  0
  189.1470  176.4760  141.3930 C   0  0  2  0  0  3  0  0  0  0  0  0
  190.4740  177.1740  141.3350 C   0  0  0  0  0  3  0  0  0  0  0  0
  188.0700  177.2170  140.5670 C   0  0  1  0  0  3  0  0  0  0  0  0
  187.0820  178.1210  142.6970 C   0  0  0  0  0  2  0  0  0  0  0  0
  191.2360  177.1440  140.2390 C   0  0  0  0  0  0  0  0  0  0  0  0
  187.5830  178.4720  141.3030 C   0  0  0  0  0  2  0  0  0  0  0  0
  188.5870  177.5980  139.1650 C   0  0  2  0  0  3  0  0  0  0  0  0
  188.2170  177.5080  143.5070 C   0  0  1  0  0  3  0  0  0  0  0  0
  187.7700  177.2200  144.7980 O   0  0  0  0  0  0  0  0  0  0  0  0
  188.9000  177.3490  145.6060 C   0  0  0  0  0  1  0  0  0  0  0  0
  193.6710  177.2990  139.8730 C   0  0  0  0  0  1  0  0  0  0  0  0
  192.4270  177.8730  140.2460 O   0  0  0  0  0  0  0  0  0  0  0  0
  188.8420  175.2010  138.0230 C   0  0  1  0  0  3  0  0  0  0  0  0
  187.0220  173.9260  137.1470 O   0  0  0  0  0  1  0  0  0  0  0  0
  187.5250  175.2220  137.2590 C   0  0  0  0  0  2  0  0  0  0  0  0
  189.8640  174.2500  137.4100 C   0  0  0  0  0  2  0  0  0  0  0  0
  190.4020  174.7640  136.0830 C   0  0  0  0  0  2  0  0  0  0  0  0
  192.5460  173.4780  136.1650 C   0  0  0  0  0  3  0  0  0  0  0  0
  191.8890  174.7100  136.0750 C   0  0  0  0  0  0  0  0  0  0  0  0
  192.6310  175.8930  135.9990 C   0  0  0  0  0  3  0  0  0  0  0  0
  194.7640  177.0190  135.9260 O   0  0  0  0  0  1  0  0  0  0  0  0
  194.6850  174.6130  136.0900 C   0  0  0  0  0  3  0  0  0  0  0  0
  194.0280  175.8450  136.0050 C   0  0  0  0  0  0  0  0  0  0  0  0
  193.9440  173.4290  136.1720 C   0  0  0  0  0  3  0  0  0  0  0  0
  187.6400  178.4590  138.3080 C   0  0  1  0  0  3  0  0  0  0  0  0
  188.2490  178.8320  136.9910 C   0  0  0  0  0  0  0  0  0  0  0  0
  189.2580  179.5180  136.9400 O   0  0  0  0  0  0  0  0  0  0  0  0
  188.6020  177.6390  134.8570 C   0  0  0  0  0  1  0  0  0  0  0  0
  187.5980  178.3670  135.7310 C   0  0  0  0  0  2  0  0  0  0  0  0
  186.2400  177.8870  138.1330 C   0  0  0  0  0  2  0  0  0  0  0  0
  185.2030  178.8600  138.6560 C   0  0  0  0  0  2  0  0  0  0  0  0
  183.8810  178.1450  138.8250 C   0  0  0  0  0  2  0  0  0  0  0  0
  183.7550  178.6420  141.2120 C   0  0  0  0  0  2  0  0  0  0  0  0
  183.7210  177.7290  140.2450 C   0  0  0  0  0  3  0  0  0  0  0  0
  1  8  1  0  0  0  0
  2 11  1  0  0  0  0
  3 16  1  1  0  0  0
  3  1  1  0  0  0  0
  3 10  1  0  0  0  0
  4  5  1  1  0  0  0
  4  2  1  0  0  0  0
  6  9  1  1  0  0  0
  6  4  1  0  0  0  0
  7 11  1  0  0  0  0
  8 15  1  0  0  0  0
  8  5  2  0  0  0  0
  9  7  1  0  0  0  0
 10 28  1  6  0  0  0
 10  6  1  0  0  0  0
 11 12  1  1  0  0  0
 12 13  1  0  0  0  0
 14 15  1  0  0  0  0
 16 18  1  6  0  0  0
 17 18  1  0  0  0  0
 19 16  1  0  0  0  0
 20 19  1  0  0  0  0
 21 27  1  0  0  0  0
 22 20  1  0  0  0  0
 22 21  2  0  0  0  0
 23 26  2  0  0  0  0
 23 22  1  0  0  0  0
 24 26  1  0  0  0  0
 25 27  2  0  0  0  0
 26 25  1  0  0  0  0
 28 33  1  6  0  0  0
 29 28  1  0  0  0  0
 30 29  2  0  0  0  0
 31 32  1  0  0  0  0
 32 29  1  0  0  0  0
 33 34  1  0  0  0  0
 34 35  1  0  0  0  0
 35 37  1  0  0  0  0
 37 36  2  0  0  0  0
M  END
>  <MODEL>
4

>  <REMARK>
 VINA RESULT:      -4.6      3.067      8.297
  Name = 
  14 active torsions:
  status: ('A' for Active; 'I' for Inactive)
    1  A    between atoms: C_1  and  C_23
    2  A    between atoms: C_1  and  C_36
    3  A    between atoms: O_3  and  C_32
    4  A    between atoms: C_6  and  C_31
    5  A    between atoms: C_10  and  C_14
    6  A    between atoms: C_14  and  C_27
    7  A    between atoms: C_14  and  C_37
    8  A    between atoms: C_17  and  C_26
    9  A    between atoms: C_17  and  C_33
   10  A    between atoms: C_24  and  O_28
   11  A    between atoms: C_26  and  C_34
   12  A    between atoms: C_29  and  C_36
   13  A    between atoms: C_31  and  C_37
   14  A    between atoms: C_33  and  C_36
                            x       y       z     vdW  Elec       q    Type
                         _______ _______ _______ _____ _____    ______ ____

>  <TORSDO>
F 14

$$$$
=
 OpenBabel10272414563D

 37 39  0  0  1  0  0  0  0  0999 V2000
  188.7010  177.4420  138.6600 C   0  0  0  0  0  2  0  0  0  0  0  0
  192.9160  176.6400  137.8410 C   0  0  0  0  0  2  0  0  0  0  0  0
  188.4590  176.7270  137.3170 C   0  0  2  0  0  3  0  0  0  0  0  0
  191.3870  176.6060  137.8950 C   0  0  2  0  0  3  0  0  0  0  0  0
  190.8820  176.4340  139.2980 C   0  0  0  0  0  3  0  0  0  0  0  0
  190.7920  175.5500  136.9350 C   0  0  1  0  0  3  0  0  0  0  0  0
  192.9720  174.2940  136.9930 C   0  0  0  0  0  2  0  0  0  0  0  0
  189.6350  176.7650  139.6410 C   0  0  0  0  0  0  0  0  0  0  0  0
  191.4610  174.1840  137.1420 C   0  0  0  0  0  2  0  0  0  0  0  0
  189.2650  175.4170  137.1060 C   0  0  2  0  0  3  0  0  0  0  0  0
  193.5190  175.2530  138.0430 C   0  0  1  0  0  3  0  0  0  0  0  0
  194.9090  175.3270  137.9320 O   0  0  0  0  0  0  0  0  0  0  0  0
  195.2240  174.5220  136.8370 C   0  0  0  0  0  1  0  0  0  0  0  0
  188.3850  177.4050  141.6700 C   0  0  0  0  0  1  0  0  0  0  0  0
  189.2250  176.5140  140.9520 O   0  0  0  0  0  0  0  0  0  0  0  0
  188.4210  177.7750  136.1880 C   0  0  1  0  0  3  0  0  0  0  0  0
  189.9410  177.7790  134.3460 O   0  0  0  0  0  1  0  0  0  0  0  0
  188.7010  177.3020  134.7680 C   0  0  0  0  0  2  0  0  0  0  0  0
  187.1980  178.6810  136.2760 C   0  0  0  0  0  2  0  0  0  0  0  0
  185.8990  177.9080  136.1130 C   0  0  0  0  0  2  0  0  0  0  0  0
  184.0040  177.0950  137.5310 C   0  0  0  0  0  3  0  0  0  0  0  0
  185.1390  177.9020  137.3930 C   0  0  0  0  0  0  0  0  0  0  0  0
  185.5450  178.7220  138.4510 C   0  0  0  0  0  3  0  0  0  0  0  0
  185.2310  179.5390  140.6990 O   0  0  0  0  0  1  0  0  0  0  0  0
  183.6940  177.9170  139.7880 C   0  0  0  0  0  3  0  0  0  0  0  0
  184.8250  178.7280  139.6480 C   0  0  0  0  0  0  0  0  0  0  0  0
  183.2830  177.1010  138.7290 C   0  0  0  0  0  3  0  0  0  0  0  0
  188.5900  174.2960  136.2940 C   0  0  1  0  0  3  0  0  0  0  0  0
  187.1090  174.4910  136.1820 C   0  0  0  0  0  0  0  0  0  0  0  0
  186.5990  174.8190  135.1220 O   0  0  0  0  0  0  0  0  0  0  0  0
  185.9340  172.8240  137.5750 C   0  0  0  0  0  1  0  0  0  0  0  0
  186.2570  174.2950  137.3910 C   0  0  0  0  0  2  0  0  0  0  0  0
  189.2210  174.0250  134.9350 C   0  0  0  0  0  2  0  0  0  0  0  0
  189.4500  172.5380  134.7470 C   0  0  0  0  0  2  0  0  0  0  0  0
  188.6120  171.7700  135.7450 C   0  0  0  0  0  2  0  0  0  0  0  0
  187.9970  169.4120  135.5960 C   0  0  0  0  0  2  0  0  0  0  0  0
  187.9490  170.6280  135.0590 C   0  0  0  0  0  3  0  0  0  0  0  0
  1  8  1  0  0  0  0
  2 11  1  0  0  0  0
  3 16  1  6  0  0  0
  3  1  1  0  0  0  0
  4  2  1  1  0  0  0
  4  5  1  0  0  0  0
  5  8  2  0  0  0  0
  6 10  1  0  0  0  0
  6  9  1  1  0  0  0
  6  4  1  0  0  0  0
  7  9  1  0  0  0  0
  7 11  1  0  0  0  0
  8 15  1  0  0  0  0
 10 28  1  6  0  0  0
 10  3  1  0  0  0  0
 11 12  1  6  0  0  0
 13 12  1  0  0  0  0
 15 14  1  0  0  0  0
 16 18  1  6  0  0  0
 16 19  1  0  0  0  0
 17 18  1  0  0  0  0
 20 19  1  0  0  0  0
 20 22  1  0  0  0  0
 21 27  1  0  0  0  0
 22 21  2  0  0  0  0
 22 23  1  0  0  0  0
 23 26  2  0  0  0  0
 26 25  1  0  0  0  0
 26 24  1  0  0  0  0
 27 25  2  0  0  0  0
 28 33  1  6  0  0  0
 29 28  1  0  0  0  0
 29 32  1  0  0  0  0
 30 29  2  0  0  0  0
 32 31  1  0  0  0  0
 34 33  1  0  0  0  0
 34 35  1  0  0  0  0
 37 36  2  0  0  0  0
 37 35  1  0  0  0  0
M  END
>  <MODEL>
5

>  <REMARK>
 VINA RESULT:      -4.3      3.022      7.603
  Name = 
  14 active torsions:
  status: ('A' for Active; 'I' for Inactive)
    1  A    between atoms: C_1  and  C_23
    2  A    between atoms: C_1  and  C_36
    3  A    between atoms: O_3  and  C_32
    4  A    between atoms: C_6  and  C_31
    5  A    between atoms: C_10  and  C_14
    6  A    between atoms: C_14  and  C_27
    7  A    between atoms: C_14  and  C_37
    8  A    between atoms: C_17  and  C_26
    9  A    between atoms: C_17  and  C_33
   10  A    between atoms: C_24  and  O_28
   11  A    between atoms: C_26  and  C_34
   12  A    between atoms: C_29  and  C_36
   13  A    between atoms: C_31  and  C_37
   14  A    between atoms: C_33  and  C_36
                            x       y       z     vdW  Elec       q    Type
                         _______ _______ _______ _____ _____    ______ ____

>  <TORSDO>
F 14

$$$$
=
 OpenBabel10272414563D

 37 39  0  0  1  0  0  0  0  0999 V2000
  189.0170  177.3040  138.6010 C   0  0  0  0  0  2  0  0  0  0  0  0
  192.9700  176.4780  136.9370 C   0  0  0  0  0  2  0  0  0  0  0  0
  188.5000  176.7000  137.2810 C   0  0  2  0  0  3  0  0  0  0  0  0
  191.4790  176.4730  137.2790 C   0  0  2  0  0  3  0  0  0  0  0  0
  191.2420  176.2030  138.7370 C   0  0  0  0  0  3  0  0  0  0  0  0
  190.6760  175.5070  136.3770 C   0  0  1  0  0  3  0  0  0  0  0  0
  192.7810  174.2050  135.9270 C   0  0  0  0  0  2  0  0  0  0  0  0
  190.0940  176.5330  139.3350 C   0  0  0  0  0  0  0  0  0  0  0  0
  191.3230  174.1150  136.3530 C   0  0  0  0  0  2  0  0  0  0  0  0
  189.2050  175.3940  136.8270 C   0  0  2  0  0  3  0  0  0  0  0  0
  193.5510  175.0670  136.9190 C   0  0  1  0  0  3  0  0  0  0  0  0
  194.8960  175.1200  136.5510 O   0  0  0  0  0  0  0  0  0  0  0  0
  194.9130  174.7580  135.2040 C   0  0  0  0  0  1  0  0  0  0  0  0
  189.5600  177.1400  141.6660 C   0  0  0  0  0  1  0  0  0  0  0  0
  189.9310  176.1900  140.6780 O   0  0  0  0  0  0  0  0  0  0  0  0
  188.2870  177.8330  136.2580 C   0  0  1  0  0  3  0  0  0  0  0  0
  189.7140  177.9370  134.3460 O   0  0  0  0  0  1  0  0  0  0  0  0
  188.4640  177.5020  134.7830 C   0  0  0  0  0  2  0  0  0  0  0  0
  187.0210  178.6350  136.5350 C   0  0  0  0  0  2  0  0  0  0  0  0
  185.7750  177.7630  136.5190 C   0  0  0  0  0  2  0  0  0  0  0  0
  183.8540  177.1780  138.0110 C   0  0  0  0  0  3  0  0  0  0  0  0
  185.0530  177.8730  137.8150 C   0  0  0  0  0  0  0  0  0  0  0  0
  185.5610  178.6890  138.8320 C   0  0  0  0  0  3  0  0  0  0  0  0
  185.3840  179.6090  141.0550 O   0  0  0  0  0  1  0  0  0  0  0  0
  183.6820  178.1050  140.2430 C   0  0  0  0  0  3  0  0  0  0  0  0
  184.8770  178.8030  140.0450 C   0  0  0  0  0  0  0  0  0  0  0  0
  183.1690  177.2930  139.2250 C   0  0  0  0  0  3  0  0  0  0  0  0
  188.3500  174.3540  136.0790 C   0  0  1  0  0  3  0  0  0  0  0  0
  188.6180  172.9560  136.5490 C   0  0  0  0  0  0  0  0  0  0  0  0
  188.7540  172.7110  137.7380 O   0  0  0  0  0  0  0  0  0  0  0  0
  187.4490  171.0570  135.4880 C   0  0  0  0  0  1  0  0  0  0  0  0
  188.7350  171.8610  135.5430 C   0  0  0  0  0  2  0  0  0  0  0  0
  186.8580  174.6560  136.0510 C   0  0  0  0  0  2  0  0  0  0  0  0
  186.2040  174.2060  137.3430 C   0  0  0  0  0  2  0  0  0  0  0  0
  184.7580  173.8530  137.0780 C   0  0  0  0  0  2  0  0  0  0  0  0
  183.5270  171.7660  136.7830 C   0  0  0  0  0  2  0  0  0  0  0  0
  184.5430  172.4060  137.3540 C   0  0  0  0  0  3  0  0  0  0  0  0
  1  8  1  0  0  0  0
  3 16  1  6  0  0  0
  3  1  1  0  0  0  0
  4  2  1  1  0  0  0
  4  5  1  0  0  0  0
  5  8  2  0  0  0  0
  6  9  1  1  0  0  0
  6 10  1  0  0  0  0
  6  4  1  0  0  0  0
  7  9  1  0  0  0  0
  7 11  1  0  0  0  0
  8 15  1  0  0  0  0
 10 28  1  6  0  0  0
 10  3  1  0  0  0  0
 11 12  1  6  0  0  0
 11  2  1  0  0  0  0
 13 12  1  0  0  0  0
 15 14  1  0  0  0  0
 16 18  1  6  0  0  0
 16 19  1  0  0  0  0
 17 18  1  0  0  0  0
 20 19  1  0  0  0  0
 20 22  1  0  0  0  0
 21 27  1  0  0  0  0
 22 21  2  0  0  0  0
 22 23  1  0  0  0  0
 23 26  2  0  0  0  0
 26 25  1  0  0  0  0
 26 24  1  0  0  0  0
 27 25  2  0  0  0  0
 28 33  1  1  0  0  0
 28 29  1  0  0  0  0
 29 30  2  0  0  0  0
 31 32  1  0  0  0  0
 32 29  1  0  0  0  0
 33 34  1  0  0  0  0
 35 34  1  0  0  0  0
 35 37  1  0  0  0  0
 36 37  2  0  0  0  0
M  END
>  <MODEL>
6

>  <REMARK>
 VINA RESULT:      -4.3      3.146      7.764
  Name = 
  14 active torsions:
  status: ('A' for Active; 'I' for Inactive)
    1  A    between atoms: C_1  and  C_23
    2  A    between atoms: C_1  and  C_36
    3  A    between atoms: O_3  and  C_32
    4  A    between atoms: C_6  and  C_31
    5  A    between atoms: C_10  and  C_14
    6  A    between atoms: C_14  and  C_27
    7  A    between atoms: C_14  and  C_37
    8  A    between atoms: C_17  and  C_26
    9  A    between atoms: C_17  and  C_33
   10  A    between atoms: C_24  and  O_28
   11  A    between atoms: C_26  and  C_34
   12  A    between atoms: C_29  and  C_36
   13  A    between atoms: C_31  and  C_37
   14  A    between atoms: C_33  and  C_36
                            x       y       z     vdW  Elec       q    Type
                         _______ _______ _______ _____ _____    ______ ____

>  <TORSDO>
F 14

$$$$
=
 OpenBabel10272414563D

 37 39  0  0  1  0  0  0  0  0999 V2000
  187.2620  174.0810  135.5980 C   0  0  0  0  0  2  0  0  0  0  0  0
  184.2820  177.2180  136.1990 C   0  0  0  0  0  2  0  0  0  0  0  0
  188.2740  175.1780  135.9790 C   0  0  2  0  0  3  0  0  0  0  0  0
  185.5350  176.3410  136.2410 C   0  0  2  0  0  3  0  0  0  0  0  0
  185.2300  174.9560  136.7340 C   0  0  0  0  0  3  0  0  0  0  0  0
  186.6830  176.9980  137.0420 C   0  0  1  0  0  3  0  0  0  0  0  0
  184.9950  178.3920  138.2830 C   0  0  0  0  0  2  0  0  0  0  0  0
  186.0470  173.9280  136.4890 C   0  0  0  0  0  0  0  0  0  0  0  0
  186.1920  177.4620  138.4200 C   0  0  0  0  0  2  0  0  0  0  0  0
  187.8840  176.0460  137.2060 C   0  0  2  0  0  3  0  0  0  0  0  0
  183.8520  177.6540  137.5980 C   0  0  1  0  0  3  0  0  0  0  0  0
  182.7410  178.4930  137.5040 O   0  0  0  0  0  0  0  0  0  0  0  0
  182.2290  178.5560  138.8000 C   0  0  0  0  0  1  0  0  0  0  0  0
  185.0190  171.6920  136.3070 C   0  0  0  0  0  1  0  0  0  0  0  0
  185.7220  172.6860  137.0380 O   0  0  0  0  0  0  0  0  0  0  0  0
  188.7710  175.8730  134.6960 C   0  0  1  0  0  3  0  0  0  0  0  0
  189.6920  178.0750  134.7500 O   0  0  0  0  0  1  0  0  0  0  0  0
  188.5100  177.3650  134.5480 C   0  0  0  0  0  2  0  0  0  0  0  0
  190.2050  175.4880  134.3460 C   0  0  0  0  0  2  0  0  0  0  0  0
  190.4530  173.9960  134.5050 C   0  0  0  0  0  2  0  0  0  0  0  0
  192.1110  172.6540  135.8120 C   0  0  0  0  0  3  0  0  0  0  0  0
  191.8390  173.7540  134.9900 C   0  0  0  0  0  0  0  0  0  0  0  0
  192.8650  174.6380  134.6440 C   0  0  0  0  0  3  0  0  0  0  0  0
  195.1840  175.2950  134.7630 O   0  0  0  0  0  1  0  0  0  0  0  0
  194.4380  173.3180  135.9280 C   0  0  0  0  0  3  0  0  0  0  0  0
  194.1650  174.4190  135.1110 C   0  0  0  0  0  0  0  0  0  0  0  0
  193.4110  172.4360  136.2800 C   0  0  0  0  0  3  0  0  0  0  0  0
  189.0280  176.5530  138.1040 C   0  0  1  0  0  3  0  0  0  0  0  0
  190.3040  175.8000  137.8750 C   0  0  0  0  0  0  0  0  0  0  0  0
  190.3670  174.5980  138.0820 O   0  0  0  0  0  0  0  0  0  0  0  0
  192.7450  176.0620  138.1470 C   0  0  0  0  0  1  0  0  0  0  0  0
  191.5110  176.5410  137.4050 C   0  0  0  0  0  2  0  0  0  0  0  0
  189.2540  178.0570  138.0630 C   0  0  0  0  0  2  0  0  0  0  0  0
  189.3660  178.6130  139.4690 C   0  0  0  0  0  2  0  0  0  0  0  0
  188.9670  177.5470  140.4650 C   0  0  0  0  0  2  0  0  0  0  0  0
  191.3050  177.5450  141.1680 C   0  0  0  0  0  2  0  0  0  0  0  0
  190.0250  177.4200  141.5050 C   0  0  0  0  0  3  0  0  0  0  0  0
  1  3  1  0  0  0  0
  1  8  1  0  0  0  0
  2 11  1  0  0  0  0
  3 16  1  6  0  0  0
  3 10  1  0  0  0  0
  4  2  1  1  0  0  0
  4  5  1  0  0  0  0
  4  6  1  0  0  0  0
  6 10  1  0  0  0  0
  6  9  1  1  0  0  0
  7  9  1  0  0  0  0
  8  5  2  0  0  0  0
  8 15  1  0  0  0  0
 10 28  1  6  0  0  0
 11 12  1  6  0  0  0
 11  7  1  0  0  0  0
 12 13  1  0  0  0  0
 14 15  1  0  0  0  0
 16 19  1  1  0  0  0
 18 16  1  0  0  0  0
 18 17  1  0  0  0  0
 19 20  1  0  0  0  0
 20 22  1  0  0  0  0
 21 27  1  0  0  0  0
 22 21  2  0  0  0  0
 23 22  1  0  0  0  0
 23 26  2  0  0  0  0
 24 26  1  0  0  0  0
 25 27  2  0  0  0  0
 26 25  1  0  0  0  0
 28 33  1  6  0  0  0
 29 30  2  0  0  0  0
 29 28  1  0  0  0  0
 32 29  1  0  0  0  0
 32 31  1  0  0  0  0
 33 34  1  0  0  0  0
 34 35  1  0  0  0  0
 35 37  1  0  0  0  0
 36 37  2  0  0  0  0
M  END
>  <MODEL>
7

>  <REMARK>
 VINA RESULT:      -4.0      3.525      7.880
  Name = 
  14 active torsions:
  status: ('A' for Active; 'I' for Inactive)
    1  A    between atoms: C_1  and  C_23
    2  A    between atoms: C_1  and  C_36
    3  A    between atoms: O_3  and  C_32
    4  A    between atoms: C_6  and  C_31
    5  A    between atoms: C_10  and  C_14
    6  A    between atoms: C_14  and  C_27
    7  A    between atoms: C_14  and  C_37
    8  A    between atoms: C_17  and  C_26
    9  A    between atoms: C_17  and  C_33
   10  A    between atoms: C_24  and  O_28
   11  A    between atoms: C_26  and  C_34
   12  A    between atoms: C_29  and  C_36
   13  A    between atoms: C_31  and  C_37
   14  A    between atoms: C_33  and  C_36
                            x       y       z     vdW  Elec       q    Type
                         _______ _______ _______ _____ _____    ______ ____

>  <TORSDO>
F 14

$$$$
=
 OpenBabel10272414563D

 37 39  0  0  1  0  0  0  0  0999 V2000
  186.5010  174.9460  136.5380 C   0  0  0  0  0  2  0  0  0  0  0  0
  183.2830  177.8900  136.7860 C   0  0  0  0  0  2  0  0  0  0  0  0
  187.4050  176.1220  136.9550 C   0  0  2  0  0  3  0  0  0  0  0  0
  184.5830  177.1020  136.9580 C   0  0  2  0  0  3  0  0  0  0  0  0
  184.3320  175.7170  137.4780 C   0  0  0  0  0  3  0  0  0  0  0  0
  185.6170  177.8630  137.8210 C   0  0  1  0  0  3  0  0  0  0  0  0
  183.7470  179.1770  138.8730 C   0  0  0  0  0  2  0  0  0  0  0  0
  185.2310  174.7390  137.3360 C   0  0  0  0  0  0  0  0  0  0  0  0
  184.9880  178.3360  139.1380 C   0  0  0  0  0  2  0  0  0  0  0  0
  186.8610  177.0010  138.1150 C   0  0  2  0  0  3  0  0  0  0  0  0
  182.7140  178.3400  138.1290 C   0  0  1  0  0  3  0  0  0  0  0  0
  181.5610  179.0980  137.9170 O   0  0  0  0  0  0  0  0  0  0  0  0
  181.3430  179.7640  139.1240 C   0  0  0  0  0  1  0  0  0  0  0  0
  184.5090  172.3890  137.1310 C   0  0  0  0  0  1  0  0  0  0  0  0
  184.9450  173.4970  137.9050 O   0  0  0  0  0  0  0  0  0  0  0  0
  187.9570  176.8070  135.6900 C   0  0  1  0  0  3  0  0  0  0  0  0
  186.3990  178.0210  134.3480 O   0  0  0  0  0  1  0  0  0  0  0  0
  187.3920  178.1700  135.3150 C   0  0  0  0  0  2  0  0  0  0  0  0
  189.4790  176.7610  135.6220 C   0  0  0  0  0  2  0  0  0  0  0  0
  189.9970  175.3720  135.2840 C   0  0  0  0  0  2  0  0  0  0  0  0
  191.4940  173.9900  136.7350 C   0  0  0  0  0  3  0  0  0  0  0  0
  191.3050  175.1330  135.9510 C   0  0  0  0  0  0  0  0  0  0  0  0
  192.3400  176.0640  135.8130 C   0  0  0  0  0  3  0  0  0  0  0  0
  194.5930  176.7700  136.3110 O   0  0  0  0  0  1  0  0  0  0  0  0
  193.7560  174.7030  137.2300 C   0  0  0  0  0  3  0  0  0  0  0  0
  193.5650  175.8480  136.4510 C   0  0  0  0  0  0  0  0  0  0  0  0
  192.7200  173.7740  137.3740 C   0  0  0  0  0  3  0  0  0  0  0  0
  187.8940  177.6130  139.0790 C   0  0  1  0  0  3  0  0  0  0  0  0
  188.9540  178.3880  138.3570 C   0  0  0  0  0  0  0  0  0  0  0  0
  188.6940  179.4560  137.8240 O   0  0  0  0  0  0  0  0  0  0  0  0
  190.4530  176.5900  139.1450 C   0  0  0  0  0  1  0  0  0  0  0  0
  190.3360  177.8320  138.2800 C   0  0  0  0  0  2  0  0  0  0  0  0
  187.2980  178.4180  140.2250 C   0  0  0  0  0  2  0  0  0  0  0  0
  188.3070  178.5690  141.3460 C   0  0  0  0  0  2  0  0  0  0  0  0
  188.0050  177.5630  142.4340 C   0  0  0  0  0  2  0  0  0  0  0  0
  190.1490  177.0800  143.4970 C   0  0  0  0  0  2  0  0  0  0  0  0
  189.1960  176.6970  142.6520 C   0  0  0  0  0  3  0  0  0  0  0  0
  1  3  1  0  0  0  0
  1  8  1  0  0  0  0
  2 11  1  0  0  0  0
  3 16  1  6  0  0  0
  3 10  1  0  0  0  0
  4  2  1  1  0  0  0
  4  5  1  0  0  0  0
  4  6  1  0  0  0  0
  6 10  1  0  0  0  0
  6  9  1  1  0  0  0
  7  9  1  0  0  0  0
  8  5  2  0  0  0  0
  8 15  1  0  0  0  0
 10 28  1  6  0  0  0
 11 12  1  6  0  0  0
 11  7  1  0  0  0  0
 12 13  1  0  0  0  0
 14 15  1  0  0  0  0
 16 18  1  1  0  0  0
 17 18  1  0  0  0  0
 19 16  1  0  0  0  0
 20 19  1  0  0  0  0
 20 22  1  0  0  0  0
 21 27  1  0  0  0  0
 22 21  2  0  0  0  0
 23 22  1  0  0  0  0
 23 26  2  0  0  0  0
 24 26  1  0  0  0  0
 25 27  2  0  0  0  0
 26 25  1  0  0  0  0
 28 33  1  1  0  0  0
 29 28  1  0  0  0  0
 30 29  2  0  0  0  0
 32 29  1  0  0  0  0
 32 31  1  0  0  0  0
 33 34  1  0  0  0  0
 34 35  1  0  0  0  0
 35 37  1  0  0  0  0
 37 36  2  0  0  0  0
M  END
>  <MODEL>
8

>  <REMARK>
 VINA RESULT:      -3.8      2.864      7.000
  Name = 
  14 active torsions:
  status: ('A' for Active; 'I' for Inactive)
    1  A    between atoms: C_1  and  C_23
    2  A    between atoms: C_1  and  C_36
    3  A    between atoms: O_3  and  C_32
    4  A    between atoms: C_6  and  C_31
    5  A    between atoms: C_10  and  C_14
    6  A    between atoms: C_14  and  C_27
    7  A    between atoms: C_14  and  C_37
    8  A    between atoms: C_17  and  C_26
    9  A    between atoms: C_17  and  C_33
   10  A    between atoms: C_24  and  O_28
   11  A    between atoms: C_26  and  C_34
   12  A    between atoms: C_29  and  C_36
   13  A    between atoms: C_31  and  C_37
   14  A    between atoms: C_33  and  C_36
                            x       y       z     vdW  Elec       q    Type
                         _______ _______ _______ _____ _____    ______ ____

>  <TORSDO>
F 14

$$$$
=
 OpenBabel10272414563D

 37 39  0  0  1  0  0  0  0  0999 V2000
  188.8690  177.2350  137.0000 C   0  0  0  0  0  2  0  0  0  0  0  0
  185.9210  174.0210  137.2380 C   0  0  0  0  0  2  0  0  0  0  0  0
  189.8300  176.1950  137.6060 C   0  0  2  0  0  3  0  0  0  0  0  0
  187.2070  174.8440  137.1410 C   0  0  2  0  0  3  0  0  0  0  0  0
  187.2180  175.7200  135.9220 C   0  0  0  0  0  3  0  0  0  0  0  0
  188.4740  173.9610  137.2280 C   0  0  1  0  0  3  0  0  0  0  0  0
  187.1270  171.9820  136.4530 C   0  0  0  0  0  2  0  0  0  0  0  0
  188.0180  176.7860  135.8310 C   0  0  0  0  0  0  0  0  0  0  0  0
  188.3960  172.7930  136.2350 C   0  0  0  0  0  2  0  0  0  0  0  0
  189.7580  174.7770  136.9780 C   0  0  2  0  0  3  0  0  0  0  0  0
  185.9090  172.8710  136.2340 C   0  0  1  0  0  3  0  0  0  0  0  0
  184.7440  172.1200  136.3970 O   0  0  0  0  0  0  0  0  0  0  0  0
  183.8920  172.9380  137.1410 C   0  0  0  0  0  1  0  0  0  0  0  0
  187.0260  178.4880  134.3460 C   0  0  0  0  0  1  0  0  0  0  0  0
  188.0130  177.5100  134.6370 O   0  0  0  0  0  0  0  0  0  0  0  0
  189.8240  176.3370  139.1410 C   0  0  1  0  0  3  0  0  0  0  0  0
  192.0360  177.1860  138.8460 O   0  0  0  0  0  1  0  0  0  0  0  0
  191.0880  176.8570  139.8130 C   0  0  0  0  0  2  0  0  0  0  0  0
  188.5610  177.0180  139.6560 C   0  0  0  0  0  2  0  0  0  0  0  0
  188.8690  178.1050  140.6750 C   0  0  0  0  0  2  0  0  0  0  0  0
  188.7580  177.2280  143.0150 C   0  0  0  0  0  3  0  0  0  0  0  0
  188.1220  177.8530  141.9370 C   0  0  0  0  0  0  0  0  0  0  0  0
  186.7760  178.2210  142.0380 C   0  0  0  0  0  3  0  0  0  0  0  0
  184.7350  178.3420  143.3200 O   0  0  0  0  0  1  0  0  0  0  0  0
  186.7070  177.3540  144.2980 C   0  0  0  0  0  3  0  0  0  0  0  0
  186.0700  177.9730  143.2180 C   0  0  0  0  0  0  0  0  0  0  0  0
  188.0510  176.9800  144.1960 C   0  0  0  0  0  3  0  0  0  0  0  0
  191.0670  173.9690  136.9080 C   0  0  1  0  0  3  0  0  0  0  0  0
  191.3920  173.5370  135.5100 C   0  0  0  0  0  0  0  0  0  0  0  0
  191.9870  172.4900  135.3010 O   0  0  0  0  0  0  0  0  0  0  0  0
  191.8400  175.6690  134.3460 C   0  0  0  0  0  1  0  0  0  0  0  0
  190.9930  174.4100  134.3680 C   0  0  0  0  0  2  0  0  0  0  0  0
  192.2620  174.6310  137.5780 C   0  0  0  0  0  2  0  0  0  0  0  0
  193.5550  174.1370  136.9600 C   0  0  0  0  0  2  0  0  0  0  0  0
  194.6480  175.1540  137.1990 C   0  0  0  0  0  2  0  0  0  0  0  0
  195.8830  174.7640  135.1290 C   0  0  0  0  0  2  0  0  0  0  0  0
  195.8740  174.7470  136.4590 C   0  0  0  0  0  3  0  0  0  0  0  0
  1  3  1  0  0  0  0
  3 16  1  1  0  0  0
  4  5  1  6  0  0  0
  4  6  1  0  0  0  0
  4  2  1  0  0  0  0
  6  9  1  6  0  0  0
  8  5  2  0  0  0  0
  8  1  1  0  0  0  0
  9  7  1  0  0  0  0
 10 28  1  1  0  0  0
 10  6  1  0  0  0  0
 10  3  1  0  0  0  0
 11 12  1  1  0  0  0
 11  7  1  0  0  0  0
 11  2  1  0  0  0  0
 12 13  1  0  0  0  0
 14 15  1  0  0  0  0
 15  8  1  0  0  0  0
 16 19  1  6  0  0  0
 16 18  1  0  0  0  0
 17 18  1  0  0  0  0
 19 20  1  0  0  0  0
 20 22  1  0  0  0  0
 21 27  1  0  0  0  0
 22 23  1  0  0  0  0
 22 21  2  0  0  0  0
 23 26  2  0  0  0  0
 26 24  1  0  0  0  0
 26 25  1  0  0  0  0
 27 25  2  0  0  0  0
 28 33  1  6  0  0  0
 29 28  1  0  0  0  0
 30 29  2  0  0  0  0
 31 32  1  0  0  0  0
 32 29  1  0  0  0  0
 34 35  1  0  0  0  0
 34 33  1  0  0  0  0
 36 37  2  0  0  0  0
 37 35  1  0  0  0  0
M  END
>  <MODEL>
9

>  <REMARK>
 VINA RESULT:      -3.8      3.368      5.390
  Name = 
  14 active torsions:
  status: ('A' for Active; 'I' for Inactive)
    1  A    between atoms: C_1  and  C_23
    2  A    between atoms: C_1  and  C_36
    3  A    between atoms: O_3  and  C_32
    4  A    between atoms: C_6  and  C_31
    5  A    between atoms: C_10  and  C_14
    6  A    between atoms: C_14  and  C_27
    7  A    between atoms: C_14  and  C_37
    8  A    between atoms: C_17  and  C_26
    9  A    between atoms: C_17  and  C_33
   10  A    between atoms: C_24  and  O_28
   11  A    between atoms: C_26  and  C_34
   12  A    between atoms: C_29  and  C_36
   13  A    between atoms: C_31  and  C_37
   14  A    between atoms: C_33  and  C_36
                            x       y       z     vdW  Elec       q    Type
                         _______ _______ _______ _____ _____    ______ ____

>  <TORSDO>
F 14

$$$$
