=
 OpenBabel10272413593D

 30 33  0  0  1  0  0  0  0  0999 V2000
  190.1820  177.2490  140.1140 C   0  0  0  0  0  0  0  0  0  0  0  0
  189.6640  178.6590  138.2390 C   0  0  0  0  0  3  0  0  0  0  0  0
  185.4310  178.1380  139.4700 O   0  0  0  0  0  0  0  0  0  0  0  0
  188.5960  178.7570  142.1740 C   0  0  0  0  0  2  0  0  0  0  0  0
  189.7380  176.1760  140.9460 N   0  0  0  0  0  2  0  0  0  0  0  0
  190.7120  177.4310  144.2520 C   0  0  1  0  0  3  0  0  0  0  0  0
  190.9120  177.0730  142.8910 O   0  0  0  0  0  0  0  0  0  0  0  0
  189.8340  175.0350  142.9680 O   0  0  0  0  0  0  0  0  0  0  0  0
  185.5630  178.1540  143.0410 C   0  0  2  0  0  3  0  0  0  0  0  0
  185.0940  178.9370  140.5920 C   0  0  1  0  0  3  0  0  0  0  0  0
  190.1860  176.0400  142.2950 C   0  0  0  0  0  0  0  0  0  0  0  0
  188.4500  178.5380  143.6920 C   0  0  2  0  0  3  0  0  0  0  0  0
  188.8080  179.4750  137.3350 C   0  0  0  0  0  2  0  0  0  0  0  0
  186.3630  176.9420  143.5350 C   0  0  0  0  0  2  0  0  0  0  0  0
  192.0500  177.7190  144.8980 C   0  0  0  0  0  1  0  0  0  0  0  0
  191.4120  177.5220  140.0570 O   0  0  0  0  0  0  0  0  0  0  0  0
  186.7270  178.1240  138.9560 C   0  0  0  0  0  0  0  0  0  0  0  0
  187.7650  178.5930  136.7400 C   0  0  0  0  0  3  0  0  0  0  0  0
  189.8250  178.6810  144.3580 C   0  0  0  0  0  2  0  0  0  0  0  0
  189.2070  178.0500  139.3400 C   0  0  0  0  0  0  0  0  0  0  0  0
  187.4720  178.1870  141.3070 C   0  0  1  0  0  3  0  0  0  0  0  0
  183.6410  178.7050  140.9760 C   0  0  0  0  0  1  0  0  0  0  0  0
  186.1180  178.7950  141.7380 C   0  0  2  0  0  3  0  0  0  0  0  0
  187.5570  177.3160  145.5660 O   0  0  0  0  0  1  0  0  0  0  0  0
  186.8330  178.0020  137.4860 C   0  0  0  0  0  3  0  0  0  0  0  0
  187.7810  178.2010  139.8100 C   0  0  0  0  0  0  0  0  0  0  0  0
  187.7190  177.2630  144.1810 C   0  0  2  0  0  3  0  0  0  0  0  0
  185.2850  179.0960  144.1370 N   0  0  0  0  0  0  0  0  0  0  0  0
  184.0300  178.7050  144.7530 C   0  0  0  0  0  1  0  0  0  0  0  0
  185.1140  180.3510  143.6500 O   0  0  0  0  0  1  0  0  0  0  0  0
  1  5  1  0  0  0  0
  2 20  2  0  0  0  0
  3 10  1  0  0  0  0
  5 11  1  0  0  0  0
  6 19  1  0  0  0  0
  6 15  1  6  0  0  0
  7  6  1  0  0  0  0
  9 14  1  0  0  0  0
  9 28  1  1  0  0  0
 10 22  1  1  0  0  0
 10 23  1  0  0  0  0
 11  7  1  0  0  0  0
 11  8  2  0  0  0  0
 12  4  1  6  0  0  0
 12 27  1  0  0  0  0
 12 19  1  0  0  0  0
 13  2  1  0  0  0  0
 14 27  1  0  0  0  0
 16  1  2  0  0  0  0
 17  3  1  0  0  0  0
 17 26  2  0  0  0  0
 18 13  1  0  0  0  0
 18 25  2  0  0  0  0
 20 26  1  0  0  0  0
 20  1  1  0  0  0  0
 21 23  1  0  0  0  0
 21  4  1  1  0  0  0
 23  9  1  0  0  0  0
 25 17  1  0  0  0  0
 26 21  1  0  0  0  0
 27 24  1  0  0  0  0
 28 29  1  0  0  0  0
 30 28  1  0  0  0  0
M  END
>  <MODEL>
1

>  <REMARK>
 VINA RESULT:      -7.2      0.000      0.000
  Name = 
  1 active torsions:
  status: ('A' for Active; 'I' for Inactive)
    1  A    between atoms: N_7  and  C_10
                            x       y       z     vdW  Elec       q    Type
                         _______ _______ _______ _____ _____    ______ ____

>  <TORSDO>
F 1

$$$$
=
 OpenBabel10272413593D

 30 33  0  0  1  0  0  0  0  0999 V2000
  188.1080  177.9740  145.6050 C   0  0  0  0  0  0  0  0  0  0  0  0
  185.7430  177.7240  145.9460 C   0  0  0  0  0  3  0  0  0  0  0  0
  185.3310  179.5360  141.9150 O   0  0  0  0  0  0  0  0  0  0  0  0
  188.2450  176.6650  142.9040 C   0  0  0  0  0  2  0  0  0  0  0  0
  189.1400  178.7450  144.9880 N   0  0  0  0  0  2  0  0  0  0  0  0
  191.3280  176.0790  143.7420 C   0  0  1  0  0  3  0  0  0  0  0  0
  190.5720  176.7850  144.7160 O   0  0  0  0  0  0  0  0  0  0  0  0
  191.3100  178.9020  144.1730 O   0  0  0  0  0  0  0  0  0  0  0  0
  188.0610  178.1580  140.0660 C   0  0  2  0  0  3  0  0  0  0  0  0
  185.6190  178.6130  140.8770 C   0  0  1  0  0  3  0  0  0  0  0  0
  190.4000  178.1690  144.6420 C   0  0  0  0  0  0  0  0  0  0  0  0
  189.4490  176.3520  141.9950 C   0  0  2  0  0  3  0  0  0  0  0  0
  184.2980  177.7550  145.5900 C   0  0  0  0  0  2  0  0  0  0  0  0
  189.3890  178.6280  140.6740 C   0  0  0  0  0  2  0  0  0  0  0  0
  192.1720  175.0250  144.4270 C   0  0  0  0  0  1  0  0  0  0  0  0
  188.3890  177.2370  146.5910 O   0  0  0  0  0  0  0  0  0  0  0  0
  185.4470  179.1740  143.2560 C   0  0  0  0  0  0  0  0  0  0  0  0
  183.9240  179.1510  145.2280 C   0  0  0  0  0  3  0  0  0  0  0  0
  190.3990  175.3950  142.7270 C   0  0  0  0  0  2  0  0  0  0  0  0
  186.7240  178.0200  145.0840 C   0  0  0  0  0  0  0  0  0  0  0  0
  187.4680  177.9390  142.5670 C   0  0  1  0  0  3  0  0  0  0  0  0
  185.4780  179.2920  139.5240 C   0  0  0  0  0  1  0  0  0  0  0  0
  186.9490  177.8670  141.1130 C   0  0  2  0  0  3  0  0  0  0  0  0
  191.1740  177.0590  140.4700 O   0  0  0  0  0  1  0  0  0  0  0  0
  184.4470  179.7680  144.1690 C   0  0  0  0  0  3  0  0  0  0  0  0
  186.4520  178.3420  143.6350 C   0  0  0  0  0  0  0  0  0  0  0  0
  190.2210  177.5400  141.3680 C   0  0  2  0  0  3  0  0  0  0  0  0
  188.2760  177.1010  139.0650 N   0  0  0  0  0  0  0  0  0  0  0  0
  189.1700  177.6250  138.0490 C   0  0  0  0  0  1  0  0  0  0  0  0
  187.1090  176.7930  138.4450 O   0  0  0  0  0  1  0  0  0  0  0  0
  1 16  2  0  0  0  0
  3 17  1  0  0  0  0
  5  1  1  0  0  0  0
  6 15  1  1  0  0  0
  6  7  1  0  0  0  0
  8 11  2  0  0  0  0
  9 28  1  1  0  0  0
  9 14  1  0  0  0  0
  9 23  1  0  0  0  0
 10 22  1  6  0  0  0
 10 23  1  0  0  0  0
 10  3  1  0  0  0  0
 11  7  1  0  0  0  0
 11  5  1  0  0  0  0
 12 19  1  1  0  0  0
 12  4  1  0  0  0  0
 13  2  1  0  0  0  0
 14 27  1  0  0  0  0
 17 26  2  0  0  0  0
 17 25  1  0  0  0  0
 18 13  1  0  0  0  0
 19  6  1  0  0  0  0
 20  1  1  0  0  0  0
 20  2  2  0  0  0  0
 21  4  1  1  0  0  0
 21 26  1  0  0  0  0
 23 21  1  0  0  0  0
 24 27  1  0  0  0  0
 25 18  2  0  0  0  0
 26 20  1  0  0  0  0
 27 12  1  0  0  0  0
 29 28  1  0  0  0  0
 30 28  1  0  0  0  0
M  END
>  <MODEL>
2

>  <REMARK>
 VINA RESULT:      -6.7      1.713      5.246
  Name = 
  1 active torsions:
  status: ('A' for Active; 'I' for Inactive)
    1  A    between atoms: N_7  and  C_10
                            x       y       z     vdW  Elec       q    Type
                         _______ _______ _______ _____ _____    ______ ____

>  <TORSDO>
F 1

$$$$
=
 OpenBabel10272413593D

 30 33  0  0  1  0  0  0  0  0999 V2000
  188.1730  178.1050  144.8650 C   0  0  0  0  0  0  0  0  0  0  0  0
  185.8800  177.8180  144.2100 C   0  0  0  0  0  3  0  0  0  0  0  0
  187.2840  178.8690  140.1320 O   0  0  0  0  0  0  0  0  0  0  0  0
  189.3950  176.3460  142.7580 C   0  0  0  0  0  2  0  0  0  0  0  0
  189.3970  178.7990  144.6170 N   0  0  0  0  0  2  0  0  0  0  0  0
  191.8080  176.0510  144.9120 C   0  0  1  0  0  3  0  0  0  0  0  0
  190.7370  176.8850  145.3310 O   0  0  0  0  0  0  0  0  0  0  0  0
  191.7130  178.9030  144.7840 O   0  0  0  0  0  0  0  0  0  0  0  0
  190.4880  177.3040  139.8930 C   0  0  2  0  0  3  0  0  0  0  0  0
  187.9510  177.7900  139.4980 C   0  0  1  0  0  3  0  0  0  0  0  0
  190.6630  178.2260  144.9450 C   0  0  0  0  0  0  0  0  0  0  0  0
  190.8590  175.9300  142.5170 C   0  0  2  0  0  3  0  0  0  0  0  0
  184.7250  177.7230  143.2760 C   0  0  0  0  0  2  0  0  0  0  0  0
  191.4490  177.9310  140.9120 C   0  0  0  0  0  2  0  0  0  0  0  0
  192.2420  175.1720  146.0660 C   0  0  0  0  0  1  0  0  0  0  0  0
  187.9830  177.5680  145.9910 O   0  0  0  0  0  0  0  0  0  0  0  0
  186.8070  178.7550  141.4370 C   0  0  0  0  0  0  0  0  0  0  0  0
  184.5910  179.0160  142.5480 C   0  0  0  0  0  3  0  0  0  0  0  0
  191.3730  175.1580  143.7400 C   0  0  0  0  0  2  0  0  0  0  0  0
  187.1440  177.9990  143.8070 C   0  0  0  0  0  0  0  0  0  0  0  0
  188.8830  177.5050  141.9020 C   0  0  1  0  0  3  0  0  0  0  0  0
  188.4220  178.2120  138.1150 C   0  0  0  0  0  1  0  0  0  0  0  0
  189.0270  177.1550  140.4030 C   0  0  2  0  0  3  0  0  0  0  0  0
  193.0930  176.4290  141.7660 O   0  0  0  0  0  1  0  0  0  0  0  0
  185.5370  179.4570  141.7190 C   0  0  0  0  0  3  0  0  0  0  0  0
  187.5240  178.0470  142.3470 C   0  0  0  0  0  0  0  0  0  0  0  0
  191.8670  177.0200  142.0750 C   0  0  2  0  0  3  0  0  0  0  0  0
  191.0680  176.0970  139.2830 N   0  0  0  0  0  0  0  0  0  0  0  0
  192.1060  176.5180  138.3600 C   0  0  0  0  0  1  0  0  0  0  0  0
  190.1320  175.4390  138.5540 O   0  0  0  0  0  1  0  0  0  0  0  0
  1 16  2  0  0  0  0
  3 17  1  0  0  0  0
  5  1  1  0  0  0  0
  5 11  1  0  0  0  0
  6  7  1  0  0  0  0
  6 15  1  1  0  0  0
  8 11  2  0  0  0  0
  9 28  1  1  0  0  0
  9 23  1  0  0  0  0
  9 14  1  0  0  0  0
 10 22  1  6  0  0  0
 10  3  1  0  0  0  0
 10 23  1  0  0  0  0
 11  7  1  0  0  0  0
 12  4  1  1  0  0  0
 12 19  1  0  0  0  0
 13  2  1  0  0  0  0
 14 27  1  0  0  0  0
 17 25  1  0  0  0  0
 17 26  2  0  0  0  0
 18 13  1  0  0  0  0
 19  6  1  0  0  0  0
 20  2  2  0  0  0  0
 20  1  1  0  0  0  0
 21 26  1  0  0  0  0
 21  4  1  1  0  0  0
 23 21  1  0  0  0  0
 24 27  1  0  0  0  0
 25 18  2  0  0  0  0
 26 20  1  0  0  0  0
 27 12  1  0  0  0  0
 29 28  1  0  0  0  0
 30 28  1  0  0  0  0
M  END
>  <MODEL>
3

>  <REMARK>
 VINA RESULT:      -6.7      1.864      5.295
  Name = 
  1 active torsions:
  status: ('A' for Active; 'I' for Inactive)
    1  A    between atoms: N_7  and  C_10
                            x       y       z     vdW  Elec       q    Type
                         _______ _______ _______ _____ _____    ______ ____

>  <TORSDO>
F 1

$$$$
=
 OpenBabel10272413593D

 30 33  0  0  1  0  0  0  0  0999 V2000
  187.1910  177.5840  142.6280 C   0  0  0  0  0  0  0  0  0  0  0  0
  185.5260  179.1740  143.3140 C   0  0  0  0  0  3  0  0  0  0  0  0
  186.3410  177.7180  147.4270 O   0  0  0  0  0  0  0  0  0  0  0  0
  189.3370  178.4220  144.5570 C   0  0  0  0  0  2  0  0  0  0  0  0
  187.8090  176.3250  142.9010 N   0  0  0  0  0  2  0  0  0  0  0  0
  191.3340  177.1600  142.3270 C   0  0  1  0  0  3  0  0  0  0  0  0
  189.9530  177.0760  142.0030 O   0  0  0  0  0  0  0  0  0  0  0  0
  189.6290  174.8970  142.6860 O   0  0  0  0  0  0  0  0  0  0  0  0
  189.8700  177.1580  147.4610 C   0  0  2  0  0  3  0  0  0  0  0  0
  187.5460  178.2450  147.9570 C   0  0  1  0  0  3  0  0  0  0  0  0
  189.1490  176.0460  142.4960 C   0  0  0  0  0  0  0  0  0  0  0  0
  190.7870  177.9300  144.7280 C   0  0  2  0  0  3  0  0  0  0  0  0
  184.6990  179.9660  144.2650 C   0  0  0  0  0  2  0  0  0  0  0  0
  190.2270  176.0400  146.4730 C   0  0  0  0  0  2  0  0  0  0  0  0
  192.1150  177.5670  141.0960 C   0  0  0  0  0  1  0  0  0  0  0  0
  187.2690  178.0740  141.4680 O   0  0  0  0  0  0  0  0  0  0  0  0
  185.9300  178.0180  146.1300 C   0  0  0  0  0  0  0  0  0  0  0  0
  183.8970  179.0260  145.0980 C   0  0  0  0  0  3  0  0  0  0  0  0
  191.5680  178.1990  143.4340 C   0  0  0  0  0  2  0  0  0  0  0  0
  186.4810  178.3180  143.6990 C   0  0  0  0  0  0  0  0  0  0  0  0
  188.3110  177.8170  145.5150 C   0  0  1  0  0  3  0  0  0  0  0  0
  187.7800  177.7010  149.3570 C   0  0  0  0  0  1  0  0  0  0  0  0
  188.7290  178.0960  146.9770 C   0  0  2  0  0  3  0  0  0  0  0  0
  192.3750  176.2730  145.4600 O   0  0  0  0  0  1  0  0  0  0  0  0
  184.4710  178.1640  145.9360 C   0  0  0  0  0  3  0  0  0  0  0  0
  186.8610  178.1350  145.1480 C   0  0  0  0  0  0  0  0  0  0  0  0
  191.0140  176.4820  145.2300 C   0  0  2  0  0  3  0  0  0  0  0  0
  191.0760  177.8390  147.9580 N   0  0  0  0  0  0  0  0  0  0  0  0
  192.0070  176.8230  148.4110 C   0  0  0  0  0  1  0  0  0  0  0  0
  190.7760  178.6090  149.0330 O   0  0  0  0  0  1  0  0  0  0  0  0
  1  5  1  0  0  0  0
  1 20  1  0  0  0  0
  2 20  2  0  0  0  0
  2 13  1  0  0  0  0
  3 10  1  0  0  0  0
  4 12  1  0  0  0  0
  6 15  1  6  0  0  0
  6 19  1  0  0  0  0
  7  6  1  0  0  0  0
  7 11  1  0  0  0  0
  9 28  1  6  0  0  0
 10 22  1  1  0  0  0
 11  8  2  0  0  0  0
 11  5  1  0  0  0  0
 12 19  1  6  0  0  0
 12 27  1  0  0  0  0
 13 18  1  0  0  0  0
 14  9  1  0  0  0  0
 16  1  2  0  0  0  0
 17  3  1  0  0  0  0
 18 25  2  0  0  0  0
 20 26  1  0  0  0  0
 21  4  1  6  0  0  0
 21 23  1  0  0  0  0
 23  9  1  0  0  0  0
 23 10  1  0  0  0  0
 25 17  1  0  0  0  0
 26 21  1  0  0  0  0
 26 17  2  0  0  0  0
 27 24  1  0  0  0  0
 27 14  1  0  0  0  0
 28 29  1  0  0  0  0
 28 30  1  0  0  0  0
M  END
>  <MODEL>
4

>  <REMARK>
 VINA RESULT:      -6.6      2.833      5.834
  Name = 
  1 active torsions:
  status: ('A' for Active; 'I' for Inactive)
    1  A    between atoms: N_7  and  C_10
                            x       y       z     vdW  Elec       q    Type
                         _______ _______ _______ _____ _____    ______ ____

>  <TORSDO>
F 1

$$$$
=
 OpenBabel10272413593D

 30 33  0  0  1  0  0  0  0  0999 V2000
  183.1620  178.3140  142.6220 C   0  0  0  0  0  0  0  0  0  0  0  0
  184.4150  179.0820  144.5230 C   0  0  0  0  0  3  0  0  0  0  0  0
  187.9040  177.1840  142.5420 O   0  0  0  0  0  0  0  0  0  0  0  0
  184.9790  179.4150  140.4970 C   0  0  0  0  0  2  0  0  0  0  0  0
  183.0350  177.3080  141.6160 N   0  0  0  0  0  2  0  0  0  0  0  0
  182.2880  179.3730  138.6790 C   0  0  1  0  0  3  0  0  0  0  0  0
  182.1140  178.8990  140.0070 O   0  0  0  0  0  0  0  0  0  0  0  0
  182.2570  176.6470  139.5290 O   0  0  0  0  0  0  0  0  0  0  0  0
  187.3880  177.8440  139.0680 C   0  0  2  0  0  3  0  0  0  0  0  0
  188.4070  177.9660  141.4710 C   0  0  1  0  0  3  0  0  0  0  0  0
  182.4210  177.5820  140.3570 C   0  0  0  0  0  0  0  0  0  0  0  0
  184.8520  179.4130  138.9620 C   0  0  2  0  0  3  0  0  0  0  0  0
  185.6240  179.3420  145.3510 C   0  0  0  0  0  2  0  0  0  0  0  0
  186.1150  177.1340  138.5890 C   0  0  0  0  0  2  0  0  0  0  0  0
  181.1180  180.2580  138.3040 C   0  0  0  0  0  1  0  0  0  0  0  0
  182.1620  179.0260  142.9170 O   0  0  0  0  0  0  0  0  0  0  0  0
  186.7810  177.5850  143.2630 C   0  0  0  0  0  0  0  0  0  0  0  0
  186.2790  178.0400  145.6620 C   0  0  0  0  0  3  0  0  0  0  0  0
  183.5870  180.1840  138.5590 C   0  0  0  0  0  2  0  0  0  0  0  0
  184.4580  178.5370  143.3010 C   0  0  0  0  0  0  0  0  0  0  0  0
  185.8650  178.3210  141.0940 C   0  0  1  0  0  3  0  0  0  0  0  0
  189.5870  177.2600  140.8220 C   0  0  0  0  0  1  0  0  0  0  0  0
  187.2910  178.4230  140.5070 C   0  0  2  0  0  3  0  0  0  0  0  0
  184.9540  178.2720  136.8430 O   0  0  0  0  0  1  0  0  0  0  0  0
  186.8000  177.2700  144.7080 C   0  0  0  0  0  3  0  0  0  0  0  0
  185.7600  178.2030  142.6140 C   0  0  0  0  0  0  0  0  0  0  0  0
  184.9420  178.0560  138.2220 C   0  0  2  0  0  3  0  0  0  0  0  0
  187.8990  178.7740  138.0480 N   0  0  0  0  0  0  0  0  0  0  0  0
  188.3920  177.9870  136.9340 C   0  0  0  0  0  1  0  0  0  0  0  0
  188.9520  179.4780  138.5340 O   0  0  0  0  0  1  0  0  0  0  0  0
  1 16  2  0  0  0  0
  1 20  1  0  0  0  0
  2 13  1  0  0  0  0
  3 17  1  0  0  0  0
  5  1  1  0  0  0  0
  6 15  1  1  0  0  0
  6  7  1  0  0  0  0
  7 11  1  0  0  0  0
  8 11  2  0  0  0  0
  9 28  1  6  0  0  0
  9 23  1  0  0  0  0
 10 22  1  6  0  0  0
 10  3  1  0  0  0  0
 11  5  1  0  0  0  0
 12 19  1  1  0  0  0
 12  4  1  0  0  0  0
 13 18  1  0  0  0  0
 14  9  1  0  0  0  0
 17 25  1  0  0  0  0
 19  6  1  0  0  0  0
 20  2  2  0  0  0  0
 21  4  1  1  0  0  0
 21 26  1  0  0  0  0
 23 21  1  0  0  0  0
 23 10  1  0  0  0  0
 24 27  1  0  0  0  0
 25 18  2  0  0  0  0
 26 17  2  0  0  0  0
 26 20  1  0  0  0  0
 27 14  1  0  0  0  0
 27 12  1  0  0  0  0
 28 30  1  0  0  0  0
 29 28  1  0  0  0  0
M  END
>  <MODEL>
5

>  <REMARK>
 VINA RESULT:      -6.6      2.364      7.268
  Name = 
  1 active torsions:
  status: ('A' for Active; 'I' for Inactive)
    1  A    between atoms: N_7  and  C_10
                            x       y       z     vdW  Elec       q    Type
                         _______ _______ _______ _____ _____    ______ ____

>  <TORSDO>
F 1

$$$$
=
 OpenBabel10272413593D

 30 33  0  0  1  0  0  0  0  0999 V2000
  190.3880  177.6630  145.4730 C   0  0  0  0  0  0  0  0  0  0  0  0
  189.3570  176.5970  147.3630 C   0  0  0  0  0  3  0  0  0  0  0  0
  185.7360  178.9060  146.2410 O   0  0  0  0  0  0  0  0  0  0  0  0
  188.2580  177.0080  143.4570 C   0  0  0  0  0  2  0  0  0  0  0  0
  190.4310  178.8310  144.6510 N   0  0  0  0  0  2  0  0  0  0  0  0
  190.6880  177.3100  141.3230 C   0  0  1  0  0  3  0  0  0  0  0  0
  191.0560  177.5340  142.6770 O   0  0  0  0  0  0  0  0  0  0  0  0
  190.9620  179.8380  142.6250 O   0  0  0  0  0  0  0  0  0  0  0  0
  185.7620  178.8690  142.6680 C   0  0  2  0  0  3  0  0  0  0  0  0
  185.0600  178.3410  145.1280 C   0  0  1  0  0  3  0  0  0  0  0  0
  190.8620  178.7730  143.2910 C   0  0  0  0  0  0  0  0  0  0  0  0
  188.1840  177.2830  141.9430 C   0  0  2  0  0  3  0  0  0  0  0  0
  188.2550  176.2220  148.2900 C   0  0  0  0  0  2  0  0  0  0  0  0
  186.9950  179.6220  142.1500 C   0  0  0  0  0  2  0  0  0  0  0  0
  191.7550  176.4790  140.6430 C   0  0  0  0  0  1  0  0  0  0  0  0
  191.3810  176.8860  145.4990 O   0  0  0  0  0  0  0  0  0  0  0  0
  186.9230  178.3540  146.7200 C   0  0  0  0  0  0  0  0  0  0  0  0
  187.7100  177.4620  148.9110 C   0  0  0  0  0  3  0  0  0  0  0  0
  189.3470  176.5660  141.2420 C   0  0  0  0  0  2  0  0  0  0  0  0
  189.1820  177.3550  146.2730 C   0  0  0  0  0  0  0  0  0  0  0  0
  187.5110  177.9980  144.3510 C   0  0  1  0  0  3  0  0  0  0  0  0
  183.8410  179.1810  144.7810 C   0  0  0  0  0  1  0  0  0  0  0  0
  186.0170  178.0380  143.9570 C   0  0  2  0  0  3  0  0  0  0  0  0
  187.8620  178.7890  140.0900 O   0  0  0  0  0  1  0  0  0  0  0  0
  187.1070  178.4050  148.1870 C   0  0  0  0  0  3  0  0  0  0  0  0
  187.8190  177.8380  145.8400 C   0  0  0  0  0  0  0  0  0  0  0  0
  188.0640  178.7530  141.4710 C   0  0  2  0  0  3  0  0  0  0  0  0
  185.0790  178.1500  141.5800 N   0  0  0  0  0  0  0  0  0  0  0  0
  184.7910  179.1050  140.5260 C   0  0  0  0  0  1  0  0  0  0  0  0
  183.8880  177.6630  142.0110 O   0  0  0  0  0  1  0  0  0  0  0  0
  1 16  2  0  0  0  0
  1 20  1  0  0  0  0
  2 13  1  0  0  0  0
  3 17  1  0  0  0  0
  5  1  1  0  0  0  0
  6 15  1  1  0  0  0
  6  7  1  0  0  0  0
  7 11  1  0  0  0  0
  8 11  2  0  0  0  0
  9 28  1  6  0  0  0
  9 23  1  0  0  0  0
 10 22  1  6  0  0  0
 10  3  1  0  0  0  0
 11  5  1  0  0  0  0
 12 19  1  6  0  0  0
 12  4  1  0  0  0  0
 13 18  1  0  0  0  0
 14  9  1  0  0  0  0
 17 25  1  0  0  0  0
 19  6  1  0  0  0  0
 20  2  2  0  0  0  0
 21  4  1  6  0  0  0
 21 26  1  0  0  0  0
 23 21  1  0  0  0  0
 23 10  1  0  0  0  0
 24 27  1  0  0  0  0
 25 18  2  0  0  0  0
 26 20  1  0  0  0  0
 26 17  2  0  0  0  0
 27 12  1  0  0  0  0
 27 14  1  0  0  0  0
 28 30  1  0  0  0  0
 29 28  1  0  0  0  0
M  END
>  <MODEL>
6

>  <REMARK>
 VINA RESULT:      -6.1      2.406      5.718
  Name = 
  1 active torsions:
  status: ('A' for Active; 'I' for Inactive)
    1  A    between atoms: N_7  and  C_10
                            x       y       z     vdW  Elec       q    Type
                         _______ _______ _______ _____ _____    ______ ____

>  <TORSDO>
F 1

$$$$
=
 OpenBabel10272413593D

 30 33  0  0  1  0  0  0  0  0999 V2000
  190.8280  175.1790  135.1430 C   0  0  0  0  0  0  0  0  0  0  0  0
  192.5130  173.7470  136.0820 C   0  0  0  0  0  3  0  0  0  0  0  0
  192.8650  176.8330  139.2520 O   0  0  0  0  0  0  0  0  0  0  0  0
  189.1990  175.5400  137.6420 C   0  0  0  0  0  2  0  0  0  0  0  0
  190.3770  176.5240  134.9750 N   0  0  0  0  0  2  0  0  0  0  0  0
  186.7790  176.1130  135.5520 C   0  0  1  0  0  3  0  0  0  0  0  0
  188.0340  175.8360  134.9460 O   0  0  0  0  0  0  0  0  0  0  0  0
  188.6530  178.0230  134.5520 O   0  0  0  0  0  0  0  0  0  0  0  0
  189.5030  177.9250  139.7720 C   0  0  2  0  0  3  0  0  0  0  0  0
  191.8050  176.7640  140.1920 C   0  0  1  0  0  3  0  0  0  0  0  0
  188.9980  176.8330  134.7760 C   0  0  0  0  0  0  0  0  0  0  0  0
  187.8730  176.2870  137.8820 C   0  0  2  0  0  3  0  0  0  0  0  0
  193.5050  173.2770  137.0860 C   0  0  0  0  0  2  0  0  0  0  0  0
  188.9730  178.5980  138.4990 C   0  0  0  0  0  2  0  0  0  0  0  0
  185.6860  175.3830  134.8030 C   0  0  0  0  0  1  0  0  0  0  0  0
  190.4270  174.2870  134.3460 O   0  0  0  0  0  0  0  0  0  0  0  0
  192.9120  175.9780  138.1530 C   0  0  0  0  0  0  0  0  0  0  0  0
  194.5490  174.3270  137.2540 C   0  0  0  0  0  3  0  0  0  0  0  0
  186.7730  175.6550  137.0190 C   0  0  0  0  0  2  0  0  0  0  0  0
  191.7410  174.8280  136.2530 C   0  0  0  0  0  0  0  0  0  0  0  0
  190.4710  176.3010  138.0170 C   0  0  1  0  0  3  0  0  0  0  0  0
  191.9700  177.8510  141.2420 C   0  0  0  0  0  1  0  0  0  0  0  0
  190.4230  176.6990  139.5090 C   0  0  2  0  0  3  0  0  0  0  0  0
  186.6290  178.3320  138.1490 O   0  0  0  0  0  1  0  0  0  0  0  0
  194.2620  175.5330  137.7440 C   0  0  0  0  0  3  0  0  0  0  0  0
  191.7560  175.6320  137.5300 C   0  0  0  0  0  0  0  0  0  0  0  0
  187.8700  177.8310  137.7550 C   0  0  2  0  0  3  0  0  0  0  0  0
  188.4240  177.7030  140.7490 N   0  0  0  0  0  0  0  0  0  0  0  0
  188.2600  178.9250  141.5150 C   0  0  0  0  0  1  0  0  0  0  0  0
  188.7730  176.7290  141.6260 O   0  0  0  0  0  1  0  0  0  0  0  0
  1 20  1  0  0  0  0
  2 20  2  0  0  0  0
  2 13  1  0  0  0  0
  3 10  1  0  0  0  0
  4 12  1  0  0  0  0
  5  1  1  0  0  0  0
  6 15  1  6  0  0  0
  6 19  1  0  0  0  0
  7  6  1  0  0  0  0
  8 11  2  0  0  0  0
  9 28  1  1  0  0  0
 10 22  1  1  0  0  0
 11  7  1  0  0  0  0
 11  5  1  0  0  0  0
 12 19  1  6  0  0  0
 13 18  1  0  0  0  0
 14  9  1  0  0  0  0
 16  1  2  0  0  0  0
 17  3  1  0  0  0  0
 18 25  2  0  0  0  0
 20 26  1  0  0  0  0
 21  4  1  1  0  0  0
 21 23  1  0  0  0  0
 23  9  1  0  0  0  0
 23 10  1  0  0  0  0
 25 17  1  0  0  0  0
 26 21  1  0  0  0  0
 26 17  2  0  0  0  0
 27 12  1  0  0  0  0
 27 24  1  0  0  0  0
 27 14  1  0  0  0  0
 28 29  1  0  0  0  0
 28 30  1  0  0  0  0
M  END
>  <MODEL>
7

>  <REMARK>
 VINA RESULT:      -5.8      3.795      7.064
  Name = 
  1 active torsions:
  status: ('A' for Active; 'I' for Inactive)
    1  A    between atoms: N_7  and  C_10
                            x       y       z     vdW  Elec       q    Type
                         _______ _______ _______ _____ _____    ______ ____

>  <TORSDO>
F 1

$$$$
=
 OpenBabel10272413593D

 30 33  0  0  1  0  0  0  0  0999 V2000
  192.7980  177.0770  139.4550 C   0  0  0  0  0  0  0  0  0  0  0  0
  191.1790  177.2600  141.2200 C   0  0  0  0  0  3  0  0  0  0  0  0
  188.1520  177.1020  137.9770 O   0  0  0  0  0  0  0  0  0  0  0  0
  191.5980  174.6880  138.0830 C   0  0  0  0  0  2  0  0  0  0  0  0
  193.1020  177.3730  138.0910 N   0  0  0  0  0  2  0  0  0  0  0  0
  194.6350  174.2150  137.0320 C   0  0  1  0  0  3  0  0  0  0  0  0
  194.4640  175.3590  137.8560 O   0  0  0  0  0  0  0  0  0  0  0  0
  194.3100  176.9150  136.1600 O   0  0  0  0  0  0  0  0  0  0  0  0
  189.5080  174.7590  135.6450 C   0  0  2  0  0  3  0  0  0  0  0  0
  187.9610  175.7870  137.4820 C   0  0  1  0  0  3  0  0  0  0  0  0
  194.0090  176.5730  137.3340 C   0  0  0  0  0  0  0  0  0  0  0  0
  192.0830  173.8740  136.8680 C   0  0  2  0  0  3  0  0  0  0  0  0
  189.8250  177.2810  141.8390 C   0  0  0  0  0  2  0  0  0  0  0  0
  190.8160  175.3070  135.0600 C   0  0  0  0  0  2  0  0  0  0  0  0
  195.9080  173.4980  137.4260 C   0  0  0  0  0  1  0  0  0  0  0  0
  193.7390  176.8350  140.2610 O   0  0  0  0  0  0  0  0  0  0  0  0
  189.0950  177.3710  138.9680 C   0  0  0  0  0  0  0  0  0  0  0  0
  189.0430  178.3980  141.2380 C   0  0  0  0  0  3  0  0  0  0  0  0
  193.4490  173.2510  137.1890 C   0  0  0  0  0  2  0  0  0  0  0  0
  191.3940  177.0310  139.9190 C   0  0  0  0  0  0  0  0  0  0  0  0
  190.5360  175.7490  137.7930 C   0  0  1  0  0  3  0  0  0  0  0  0
  186.9280  175.7970  136.3660 C   0  0  0  0  0  1  0  0  0  0  0  0
  189.2960  175.0880  137.1490 C   0  0  2  0  0  3  0  0  0  0  0  0
  192.4180  173.6320  134.4950 O   0  0  0  0  0  1  0  0  0  0  0  0
  188.7180  178.4140  139.9460 C   0  0  0  0  0  3  0  0  0  0  0  0
  190.2730  176.6950  138.9650 C   0  0  0  0  0  0  0  0  0  0  0  0
  192.0920  174.5640  135.4810 C   0  0  2  0  0  3  0  0  0  0  0  0
  189.3060  173.3480  135.2750 N   0  0  0  0  0  0  0  0  0  0  0  0
  188.1910  173.2860  134.3480 C   0  0  0  0  0  1  0  0  0  0  0  0
  188.9560  172.6190  136.3640 O   0  0  0  0  0  1  0  0  0  0  0  0
  1 20  1  0  0  0  0
  1 16  2  0  0  0  0
  2 13  1  0  0  0  0
  3 17  1  0  0  0  0
  5  1  1  0  0  0  0
  6 19  1  0  0  0  0
  6 15  1  1  0  0  0
  6  7  1  0  0  0  0
  8 11  2  0  0  0  0
  9 28  1  1  0  0  0
  9 23  1  0  0  0  0
 10 22  1  6  0  0  0
 10  3  1  0  0  0  0
 11  7  1  0  0  0  0
 11  5  1  0  0  0  0
 12 19  1  1  0  0  0
 12  4  1  0  0  0  0
 14 27  1  0  0  0  0
 14  9  1  0  0  0  0
 17 25  1  0  0  0  0
 18 13  1  0  0  0  0
 20  2  2  0  0  0  0
 21  4  1  1  0  0  0
 21 26  1  0  0  0  0
 23 10  1  0  0  0  0
 23 21  1  0  0  0  0
 24 27  1  0  0  0  0
 25 18  2  0  0  0  0
 26 17  2  0  0  0  0
 26 20  1  0  0  0  0
 27 12  1  0  0  0  0
 28 30  1  0  0  0  0
 29 28  1  0  0  0  0
M  END
>  <MODEL>
8

>  <REMARK>
 VINA RESULT:      -5.4      4.309      7.441
  Name = 
  1 active torsions:
  status: ('A' for Active; 'I' for Inactive)
    1  A    between atoms: N_7  and  C_10
                            x       y       z     vdW  Elec       q    Type
                         _______ _______ _______ _____ _____    ______ ____

>  <TORSDO>
F 1

$$$$
=
 OpenBabel10272413593D

 30 33  0  0  1  0  0  0  0  0999 V2000
  186.9160  178.3370  137.3930 C   0  0  0  0  0  0  0  0  0  0  0  0
  185.2600  178.7800  139.0770 C   0  0  0  0  0  3  0  0  0  0  0  0
  182.5800  176.2520  136.6000 O   0  0  0  0  0  0  0  0  0  0  0  0
  186.6220  175.3470  137.3460 C   0  0  0  0  0  2  0  0  0  0  0  0
  187.1560  178.0680  136.0110 N   0  0  0  0  0  2  0  0  0  0  0  0
  189.6830  175.4220  136.2620 C   0  0  1  0  0  3  0  0  0  0  0  0
  189.1130  176.6970  136.5200 O   0  0  0  0  0  0  0  0  0  0  0  0
  188.5200  177.1920  134.3460 O   0  0  0  0  0  0  0  0  0  0  0  0
  184.7190  173.6630  135.3810 C   0  0  2  0  0  3  0  0  0  0  0  0
  182.8510  174.8680  136.7530 C   0  0  1  0  0  3  0  0  0  0  0  0
  188.3040  177.3390  135.5780 C   0  0  0  0  0  0  0  0  0  0  0  0
  187.3930  174.2700  136.5600 C   0  0  2  0  0  3  0  0  0  0  0  0
  183.9530  178.6550  139.7770 C   0  0  0  0  0  2  0  0  0  0  0  0
  185.7950  174.2660  134.4680 C   0  0  0  0  0  2  0  0  0  0  0  0
  191.1050  175.3920  136.7780 C   0  0  0  0  0  1  0  0  0  0  0  0
  187.8520  178.7880  138.1090 O   0  0  0  0  0  0  0  0  0  0  0  0
  183.3430  177.2150  137.2590 C   0  0  0  0  0  0  0  0  0  0  0  0
  182.8690  179.0780  138.8450 C   0  0  0  0  0  3  0  0  0  0  0  0
  188.8750  174.3160  136.9590 C   0  0  0  0  0  2  0  0  0  0  0  0
  185.5880  178.0710  137.9890 C   0  0  0  0  0  0  0  0  0  0  0  0
  185.2810  175.7760  136.7490 C   0  0  1  0  0  3  0  0  0  0  0  0
  181.9160  174.0560  135.8720 C   0  0  0  0  0  1  0  0  0  0  0  0
  184.3530  174.5480  136.6050 C   0  0  2  0  0  3  0  0  0  0  0  0
  187.8790  173.1060  134.5070 O   0  0  0  0  0  1  0  0  0  0  0  0
  182.6070  178.4110  137.7220 C   0  0  0  0  0  3  0  0  0  0  0  0
  184.6770  177.0130  137.4140 C   0  0  0  0  0  0  0  0  0  0  0  0
  187.2280  174.2290  135.0200 C   0  0  2  0  0  3  0  0  0  0  0  0
  185.0070  172.2520  135.6880 N   0  0  0  0  0  0  0  0  0  0  0  0
  184.2490  171.4310  134.7620 C   0  0  0  0  0  1  0  0  0  0  0  0
  184.5760  171.9420  136.9360 O   0  0  0  0  0  1  0  0  0  0  0  0
  1 20  1  0  0  0  0
  1 16  2  0  0  0  0
  2 13  1  0  0  0  0
  3 10  1  0  0  0  0
  3 17  1  0  0  0  0
  5  1  1  0  0  0  0
  6  7  1  0  0  0  0
  6 15  1  1  0  0  0
  6 19  1  0  0  0  0
  8 11  2  0  0  0  0
  9 28  1  1  0  0  0
  9 23  1  0  0  0  0
 10 22  1  6  0  0  0
 11  5  1  0  0  0  0
 11  7  1  0  0  0  0
 12 19  1  6  0  0  0
 12  4  1  0  0  0  0
 14 27  1  0  0  0  0
 14  9  1  0  0  0  0
 17 26  2  0  0  0  0
 17 25  1  0  0  0  0
 18 13  1  0  0  0  0
 20  2  2  0  0  0  0
 21  4  1  1  0  0  0
 21 26  1  0  0  0  0
 23 21  1  0  0  0  0
 23 10  1  0  0  0  0
 24 27  1  0  0  0  0
 25 18  2  0  0  0  0
 26 20  1  0  0  0  0
 27 12  1  0  0  0  0
 28 30  1  0  0  0  0
 29 28  1  0  0  0  0
M  END
>  <MODEL>
9

>  <REMARK>
 VINA RESULT:      -5.3      4.950      7.509
  Name = 
  1 active torsions:
  status: ('A' for Active; 'I' for Inactive)
    1  A    between atoms: N_7  and  C_10
                            x       y       z     vdW  Elec       q    Type
                         _______ _______ _______ _____ _____    ______ ____

>  <TORSDO>
F 1

$$$$
