=
 OpenBabel10272400053D

 34 38  0  0  1  0  0  0  0  0999 V2000
  187.3850  177.9760  147.1070 C   0  0  0  0  0  0  0  0  0  0  0  0
  189.8110  177.7050  147.0420 C   0  0  0  0  0  0  0  0  0  0  0  0
  188.5020  177.4630  145.0040 C   0  0  0  0  0  0  0  0  0  0  0  0
  189.6550  176.7340  142.9110 N   0  0  0  0  0  0  0  0  0  0  0  0
  188.7020  178.2830  149.1180 C   0  0  0  0  0  3  0  0  0  0  0  0
  189.8710  177.9840  148.4100 C   0  0  0  0  0  3  0  0  0  0  0  0
  190.9880  177.0690  144.9930 C   0  0  0  0  0  3  0  0  0  0  0  0
  188.5690  177.7320  146.3790 C   0  0  0  0  0  0  0  0  0  0  0  0
  191.7050  177.5480  142.1240 O   0  0  0  0  0  0  0  0  0  0  0  0
  187.4610  178.2710  148.4720 C   0  0  0  0  0  3  0  0  0  0  0  0
  187.2540  177.3280  144.3780 C   0  0  0  0  0  0  0  0  0  0  0  0
  186.1470  177.8970  146.4650 C   0  0  0  0  0  3  0  0  0  0  0  0
  191.0150  177.2480  146.3190 C   0  0  0  0  0  3  0  0  0  0  0  0
  188.4080  176.0510  142.5510 C   0  0  0  0  0  2  0  0  0  0  0  0
  187.1780  176.8790  142.9510 C   0  0  2  0  0  3  0  0  0  0  0  0
  190.6870  176.8310  141.9160 C   0  0  0  0  0  0  0  0  0  0  0  0
  189.7750  177.4610  144.1850 C   0  0  2  0  0  3  0  0  0  0  0  0
  186.0800  177.5560  145.1080 C   0  0  0  0  0  3  0  0  0  0  0  0
  185.7510  178.8180  142.1330 C   0  0  0  0  0  0  0  0  0  0  0  0
  185.8780  180.0210  142.4850 O   0  0  0  0  0  0  0  0  0  0  0  0
  186.9110  177.9770  142.0190 N   0  0  0  0  0  0  0  0  0  0  0  0
  184.1270  178.1960  141.7110 S   0  0  0  0  0  1  0  0  0  0  0  0
  188.6820  179.4860  141.2200 C   0  0  0  0  0  1  0  0  0  0  0  0
  187.2460  178.2490  139.6010 C   0  0  0  0  0  1  0  0  0  0  0  0
  187.9020  178.2080  140.9700 C   0  0  0  0  0  3  0  0  0  0  0  0
  190.5510  176.1400  140.7100 O   0  0  0  0  0  0  0  0  0  0  0  0
  190.9480  176.7090  139.4690 C   0  0  0  0  0  2  0  0  0  0  0  0
  189.5890  178.0740  137.1460 C   0  0  0  0  0  1  0  0  0  0  0  0
  190.3120  175.9450  138.3180 C   0  0  1  0  0  3  0  0  0  0  0  0
  190.3460  176.7640  137.0040 C   0  0  1  0  0  3  0  0  0  0  0  0
  190.4890  174.8290  135.8110 C   0  0  0  0  0  2  0  0  0  0  0  0
  190.4040  174.0190  137.1060 C   0  0  0  0  0  2  0  0  0  0  0  0
  191.0220  174.7390  138.1440 O   0  0  0  0  0  0  0  0  0  0  0  0
  189.7580  176.0230  135.9590 O   0  0  0  0  0  0  0  0  0  0  0  0
  1 10  2  0  0  0  0
  2  6  1  0  0  0  0
  3  8  1  0  0  0  0
  4 17  1  0  0  0  0
  6  5  2  0  0  0  0
  7 13  2  0  0  0  0
  8  2  2  0  0  0  0
  8  1  1  0  0  0  0
 10  5  1  0  0  0  0
 11  3  2  0  0  0  0
 11 18  1  0  0  0  0
 12  1  1  0  0  0  0
 13  2  1  0  0  0  0
 14  4  1  0  0  0  0
 14 15  1  0  0  0  0
 15 21  1  6  0  0  0
 15 11  1  0  0  0  0
 16  9  2  0  0  0  0
 16  4  1  0  0  0  0
 17  7  1  1  0  0  0
 17  3  1  0  0  0  0
 18 12  2  0  0  0  0
 19 20  2  0  0  0  0
 21 19  1  0  0  0  0
 22 19  1  0  0  0  0
 24 25  1  0  0  0  0
 25 23  1  0  0  0  0
 25 21  1  0  0  0  0
 26 16  1  0  0  0  0
 27 26  1  0  0  0  0
 29 27  1  1  0  0  0
 30 28  1  1  0  0  0
 30 29  1  0  0  0  0
 31 34  1  0  0  0  0
 31 32  1  0  0  0  0
 32 33  1  0  0  0  0
 33 29  1  0  0  0  0
 34 30  1  0  0  0  0
M  END
>  <MODEL>
1

>  <REMARK>
 VINA RESULT:      -8.5      0.000      0.000
  Name = 
  5 active torsions:
  status: ('A' for Active; 'I' for Inactive)
    1  A    between atoms: C_3  and  C_13
    2  A    between atoms: C_3  and  O_17
    3  A    between atoms: O_17  and  C_29
    4  A    between atoms: N_23  and  C_27
    5  A    between atoms: N_23  and  C_28
                            x       y       z     vdW  Elec       q    Type
                         _______ _______ _______ _____ _____    ______ ____

>  <TORSDO>
F 5

$$$$
=
 OpenBabel10272400053D

 34 38  0  0  1  0  0  0  0  0999 V2000
  187.4100  177.9690  147.0770 C   0  0  0  0  0  0  0  0  0  0  0  0
  189.8380  177.7140  147.0360 C   0  0  0  0  0  0  0  0  0  0  0  0
  188.5510  177.4790  144.9820 C   0  0  0  0  0  0  0  0  0  0  0  0
  189.7320  176.7720  142.8960 N   0  0  0  0  0  0  0  0  0  0  0  0
  188.7030  178.2700  149.1050 C   0  0  0  0  0  3  0  0  0  0  0  0
  189.8820  177.9840  148.4060 C   0  0  0  0  0  3  0  0  0  0  0  0
  191.0400  177.1020  144.9950 C   0  0  0  0  0  3  0  0  0  0  0  0
  188.6030  177.7380  146.3610 C   0  0  0  0  0  0  0  0  0  0  0  0
  191.7840  177.6060  142.1370 O   0  0  0  0  0  0  0  0  0  0  0  0
  187.4690  178.2540  148.4450 C   0  0  0  0  0  3  0  0  0  0  0  0
  187.3110  177.3390  144.3430 C   0  0  0  0  0  0  0  0  0  0  0  0
  186.1790  177.8850  146.4220 C   0  0  0  0  0  3  0  0  0  0  0  0
  191.0520  177.2710  146.3230 C   0  0  0  0  0  3  0  0  0  0  0  0
  188.4940  176.0840  142.5190 C   0  0  0  0  0  2  0  0  0  0  0  0
  187.2530  176.8990  142.9110 C   0  0  2  0  0  3  0  0  0  0  0  0
  190.7730  176.8830  141.9130 C   0  0  0  0  0  0  0  0  0  0  0  0
  189.8340  177.4910  144.1770 C   0  0  2  0  0  3  0  0  0  0  0  0
  186.1290  177.5540  145.0620 C   0  0  0  0  0  3  0  0  0  0  0  0
  185.8060  178.8150  142.0730 C   0  0  0  0  0  0  0  0  0  0  0  0
  185.8930  180.0150  142.4430 O   0  0  0  0  0  0  0  0  0  0  0  0
  186.9890  178.0020  141.9840 N   0  0  0  0  0  0  0  0  0  0  0  0
  184.2110  178.1600  141.5950 S   0  0  0  0  0  1  0  0  0  0  0  0
  188.7230  179.5790  141.2390 C   0  0  0  0  0  1  0  0  0  0  0  0
  187.3950  178.2780  139.5780 C   0  0  0  0  0  1  0  0  0  0  0  0
  188.0050  178.2690  140.9690 C   0  0  0  0  0  3  0  0  0  0  0  0
  190.6550  176.2010  140.7010 O   0  0  0  0  0  0  0  0  0  0  0  0
  190.7800  176.8640  139.4500 C   0  0  0  0  0  2  0  0  0  0  0  0
  189.5920  175.2670  137.1800 C   0  0  0  0  0  1  0  0  0  0  0  0
  191.6210  176.0260  138.4980 C   0  0  1  0  0  3  0  0  0  0  0  0
  190.9620  175.9200  137.1010 C   0  0  1  0  0  3  0  0  0  0  0  0
  193.0260  175.7780  136.1470 C   0  0  0  0  0  2  0  0  0  0  0  0
  193.6740  175.8330  137.5320 C   0  0  0  0  0  2  0  0  0  0  0  0
  192.8880  176.6330  138.3810 O   0  0  0  0  0  0  0  0  0  0  0  0
  191.7720  175.1470  136.2440 O   0  0  0  0  0  0  0  0  0  0  0  0
  1 10  2  0  0  0  0
  2  6  1  0  0  0  0
  3  8  1  0  0  0  0
  4 17  1  0  0  0  0
  6  5  2  0  0  0  0
  7 13  2  0  0  0  0
  8  2  2  0  0  0  0
  8  1  1  0  0  0  0
 10  5  1  0  0  0  0
 11  3  2  0  0  0  0
 11 18  1  0  0  0  0
 12  1  1  0  0  0  0
 13  2  1  0  0  0  0
 14  4  1  0  0  0  0
 14 15  1  0  0  0  0
 15 21  1  6  0  0  0
 15 11  1  0  0  0  0
 16  9  2  0  0  0  0
 16  4  1  0  0  0  0
 17  3  1  0  0  0  0
 17  7  1  1  0  0  0
 18 12  2  0  0  0  0
 19 20  2  0  0  0  0
 21 19  1  0  0  0  0
 22 19  1  0  0  0  0
 24 25  1  0  0  0  0
 25 23  1  0  0  0  0
 25 21  1  0  0  0  0
 26 16  1  0  0  0  0
 27 26  1  0  0  0  0
 29 27  1  1  0  0  0
 30 28  1  1  0  0  0
 30 29  1  0  0  0  0
 31 34  1  0  0  0  0
 31 32  1  0  0  0  0
 32 33  1  0  0  0  0
 33 29  1  0  0  0  0
 34 30  1  0  0  0  0
M  END
>  <MODEL>
2

>  <REMARK>
 VINA RESULT:      -8.2      1.031      1.145
  Name = 
  5 active torsions:
  status: ('A' for Active; 'I' for Inactive)
    1  A    between atoms: C_3  and  C_13
    2  A    between atoms: C_3  and  O_17
    3  A    between atoms: O_17  and  C_29
    4  A    between atoms: N_23  and  C_27
    5  A    between atoms: N_23  and  C_28
                            x       y       z     vdW  Elec       q    Type
                         _______ _______ _______ _____ _____    ______ ____

>  <TORSDO>
F 5

$$$$
=
 OpenBabel10272400053D

 34 38  0  0  1  0  0  0  0  0999 V2000
  185.7360  178.4940  143.0760 C   0  0  0  0  0  0  0  0  0  0  0  0
  183.3900  178.7740  143.6930 C   0  0  0  0  0  0  0  0  0  0  0  0
  184.0450  178.7930  141.3480 C   0  0  0  0  0  0  0  0  0  0  0  0
  182.3160  179.3080  139.6190 N   0  0  0  0  0  0  0  0  0  0  0  0
  185.0680  178.4080  145.4040 C   0  0  0  0  0  3  0  0  0  0  0  0
  183.7360  178.6390  145.0400 C   0  0  0  0  0  3  0  0  0  0  0  0
  181.6540  179.2010  142.0220 C   0  0  0  0  0  3  0  0  0  0  0  0
  184.3860  178.6700  142.7040 C   0  0  0  0  0  0  0  0  0  0  0  0
  180.1470  178.4310  139.5510 O   0  0  0  0  0  0  0  0  0  0  0  0
  186.0670  178.3440  144.4260 C   0  0  0  0  0  3  0  0  0  0  0  0
  185.0540  178.8530  140.3770 C   0  0  0  0  0  0  0  0  0  0  0  0
  186.7320  178.4980  142.0960 C   0  0  0  0  0  3  0  0  0  0  0  0
  182.0180  179.1610  143.3100 C   0  0  0  0  0  3  0  0  0  0  0  0
  183.3880  179.9410  138.8450 C   0  0  0  0  0  2  0  0  0  0  0  0
  184.7010  179.1510  138.9500 C   0  0  2  0  0  3  0  0  0  0  0  0
  181.0430  179.1150  138.9840 C   0  0  0  0  0  0  0  0  0  0  0  0
  182.5890  178.7180  140.9410 C   0  0  2  0  0  3  0  0  0  0  0  0
  186.3940  178.6950  140.7520 C   0  0  0  0  0  3  0  0  0  0  0  0
  185.9210  177.4370  137.5220 C   0  0  0  0  0  0  0  0  0  0  0  0
  186.3920  176.3430  137.9320 O   0  0  0  0  0  0  0  0  0  0  0  0
  184.7120  177.9600  138.0980 N   0  0  0  0  0  0  0  0  0  0  0  0
  186.7330  178.2890  136.1740 S   0  0  0  0  0  1  0  0  0  0  0  0
  183.3430  175.9940  138.6550 C   0  0  0  0  0  1  0  0  0  0  0  0
  183.1950  177.0420  136.3980 C   0  0  0  0  0  1  0  0  0  0  0  0
  183.4300  177.2950  137.8780 C   0  0  0  0  0  3  0  0  0  0  0  0
  180.8060  179.6750  137.7260 O   0  0  0  0  0  0  0  0  0  0  0  0
  179.9820  180.8200  137.5560 C   0  0  0  0  0  2  0  0  0  0  0  0
  180.4650  181.2090  134.6020 C   0  0  0  0  0  1  0  0  0  0  0  0
  180.8010  181.9730  136.9960 C   0  0  1  0  0  3  0  0  0  0  0  0
  180.3290  182.3680  135.5750 C   0  0  1  0  0  3  0  0  0  0  0  0
  180.9410  184.5240  135.9800 C   0  0  0  0  0  2  0  0  0  0  0  0
  181.4530  184.1240  137.3650 C   0  0  0  0  0  2  0  0  0  0  0  0
  180.6620  183.0740  137.8660 O   0  0  0  0  0  0  0  0  0  0  0  0
  181.1020  183.4440  135.0930 O   0  0  0  0  0  0  0  0  0  0  0  0
  1 10  2  0  0  0  0
  2  6  1  0  0  0  0
  3  8  1  0  0  0  0
  4 17  1  0  0  0  0
  6  5  2  0  0  0  0
  7 13  2  0  0  0  0
  8  1  1  0  0  0  0
  8  2  2  0  0  0  0
 10  5  1  0  0  0  0
 11 18  1  0  0  0  0
 11  3  2  0  0  0  0
 12  1  1  0  0  0  0
 13  2  1  0  0  0  0
 14 15  1  0  0  0  0
 14  4  1  0  0  0  0
 15 21  1  6  0  0  0
 15 11  1  0  0  0  0
 16  9  2  0  0  0  0
 16  4  1  0  0  0  0
 17  3  1  0  0  0  0
 17  7  1  1  0  0  0
 18 12  2  0  0  0  0
 19 20  2  0  0  0  0
 19 21  1  0  0  0  0
 22 19  1  0  0  0  0
 24 25  1  0  0  0  0
 25 21  1  0  0  0  0
 25 23  1  0  0  0  0
 26 16  1  0  0  0  0
 27 26  1  0  0  0  0
 29 27  1  1  0  0  0
 29 33  1  0  0  0  0
 30 28  1  6  0  0  0
 30 29  1  0  0  0  0
 31 32  1  0  0  0  0
 32 33  1  0  0  0  0
 34 30  1  0  0  0  0
 34 31  1  0  0  0  0
M  END
>  <MODEL>
3

>  <REMARK>
 VINA RESULT:      -8.2      5.395      8.526
  Name = 
  5 active torsions:
  status: ('A' for Active; 'I' for Inactive)
    1  A    between atoms: C_3  and  C_13
    2  A    between atoms: C_3  and  O_17
    3  A    between atoms: O_17  and  C_29
    4  A    between atoms: N_23  and  C_27
    5  A    between atoms: N_23  and  C_28
                            x       y       z     vdW  Elec       q    Type
                         _______ _______ _______ _____ _____    ______ ____

>  <TORSDO>
F 5

$$$$
=
 OpenBabel10272400053D

 34 38  0  0  1  0  0  0  0  0999 V2000
  190.1020  177.5230  145.4190 C   0  0  0  0  0  0  0  0  0  0  0  0
  187.7220  177.3840  145.9460 C   0  0  0  0  0  0  0  0  0  0  0  0
  188.4410  178.0110  143.7060 C   0  0  0  0  0  0  0  0  0  0  0  0
  186.7150  178.7030  142.0370 N   0  0  0  0  0  0  0  0  0  0  0  0
  189.3800  176.8330  147.6270 C   0  0  0  0  0  3  0  0  0  0  0  0
  188.0410  176.9870  147.2470 C   0  0  0  0  0  3  0  0  0  0  0  0
  185.9980  177.9770  144.3140 C   0  0  0  0  0  3  0  0  0  0  0  0
  188.7540  177.6220  145.0180 C   0  0  0  0  0  0  0  0  0  0  0  0
  184.6750  177.6210  141.6500 O   0  0  0  0  0  0  0  0  0  0  0  0
  190.4080  177.1090  146.7190 C   0  0  0  0  0  3  0  0  0  0  0  0
  189.4630  178.4060  142.8320 C   0  0  0  0  0  0  0  0  0  0  0  0
  191.1200  177.8650  144.5240 C   0  0  0  0  0  3  0  0  0  0  0  0
  186.3250  177.6870  145.5790 C   0  0  0  0  0  3  0  0  0  0  0  0
  187.7230  179.6150  141.4860 C   0  0  0  0  0  2  0  0  0  0  0  0
  189.1200  178.9780  141.4890 C   0  0  2  0  0  3  0  0  0  0  0  0
  185.4960  178.5150  141.3020 C   0  0  0  0  0  0  0  0  0  0  0  0
  187.0190  177.8640  143.2080 C   0  0  2  0  0  3  0  0  0  0  0  0
  190.8010  178.3220  143.2390 C   0  0  0  0  0  3  0  0  0  0  0  0
  190.3040  176.9880  140.4390 C   0  0  0  0  0  0  0  0  0  0  0  0
  189.9580  175.7830  140.5580 O   0  0  0  0  0  0  0  0  0  0  0  0
  189.3060  178.0220  140.3960 N   0  0  0  0  0  0  0  0  0  0  0  0
  192.0390  177.3860  140.2540 S   0  0  0  0  0  1  0  0  0  0  0  0
  188.0550  176.7790  138.6810 C   0  0  0  0  0  1  0  0  0  0  0  0
  188.9970  179.0310  138.1780 C   0  0  0  0  0  1  0  0  0  0  0  0
  188.4010  178.1410  139.2540 C   0  0  0  0  0  3  0  0  0  0  0  0
  185.2290  179.3150  140.1890 O   0  0  0  0  0  0  0  0  0  0  0  0
  184.8100  178.7620  138.9490 C   0  0  0  0  0  2  0  0  0  0  0  0
  182.3630  176.9970  139.0460 C   0  0  0  0  0  1  0  0  0  0  0  0
  183.4150  179.2610  138.6020 C   0  0  1  0  0  3  0  0  0  0  0  0
  182.3230  178.4800  139.3750 C   0  0  1  0  0  3  0  0  0  0  0  0
  181.0070  180.3390  139.3780 C   0  0  0  0  0  2  0  0  0  0  0  0
  182.0640  181.0950  138.5720 C   0  0  0  0  0  2  0  0  0  0  0  0
  183.3420  180.6300  138.9310 O   0  0  0  0  0  0  0  0  0  0  0  0
  181.0470  178.9740  139.0370 O   0  0  0  0  0  0  0  0  0  0  0  0
  1 10  2  0  0  0  0
  2  6  1  0  0  0  0
  3  8  1  0  0  0  0
  4 17  1  0  0  0  0
  6  5  2  0  0  0  0
  7 13  2  0  0  0  0
  8  1  1  0  0  0  0
  8  2  2  0  0  0  0
 10  5  1  0  0  0  0
 11 18  1  0  0  0  0
 11  3  2  0  0  0  0
 12  1  1  0  0  0  0
 13  2  1  0  0  0  0
 14 15  1  0  0  0  0
 14  4  1  0  0  0  0
 15 21  1  6  0  0  0
 15 11  1  0  0  0  0
 16  9  2  0  0  0  0
 16  4  1  0  0  0  0
 17  3  1  0  0  0  0
 17  7  1  1  0  0  0
 18 12  2  0  0  0  0
 19 20  2  0  0  0  0
 21 19  1  0  0  0  0
 22 19  1  0  0  0  0
 23 25  1  0  0  0  0
 24 25  1  0  0  0  0
 25 21  1  0  0  0  0
 26 16  1  0  0  0  0
 27 26  1  0  0  0  0
 29 33  1  0  0  0  0
 29 27  1  1  0  0  0
 29 30  1  0  0  0  0
 30 28  1  6  0  0  0
 32 33  1  0  0  0  0
 32 31  1  0  0  0  0
 34 30  1  0  0  0  0
 34 31  1  0  0  0  0
M  END
>  <MODEL>
4

>  <REMARK>
 VINA RESULT:      -7.8      2.984      5.833
  Name = 
  5 active torsions:
  status: ('A' for Active; 'I' for Inactive)
    1  A    between atoms: C_3  and  C_13
    2  A    between atoms: C_3  and  O_17
    3  A    between atoms: O_17  and  C_29
    4  A    between atoms: N_23  and  C_27
    5  A    between atoms: N_23  and  C_28
                            x       y       z     vdW  Elec       q    Type
                         _______ _______ _______ _____ _____    ______ ____

>  <TORSDO>
F 5

$$$$
=
 OpenBabel10272400053D

 34 38  0  0  1  0  0  0  0  0999 V2000
  189.8210  177.6310  145.6560 C   0  0  0  0  0  0  0  0  0  0  0  0
  187.4050  177.5540  146.0070 C   0  0  0  0  0  0  0  0  0  0  0  0
  188.3020  178.0780  143.8050 C   0  0  0  0  0  0  0  0  0  0  0  0
  186.7200  178.7320  141.9850 N   0  0  0  0  0  0  0  0  0  0  0  0
  188.9220  177.0430  147.8280 C   0  0  0  0  0  3  0  0  0  0  0  0
  187.6190  177.2040  147.3430 C   0  0  0  0  0  3  0  0  0  0  0  0
  185.8210  178.1100  144.2280 C   0  0  0  0  0  3  0  0  0  0  0  0
  188.5080  177.7370  145.1510 C   0  0  0  0  0  0  0  0  0  0  0  0
  184.6930  177.6700  141.4880 O   0  0  0  0  0  0  0  0  0  0  0  0
  190.0210  177.2650  146.9900 C   0  0  0  0  0  3  0  0  0  0  0  0
  189.3950  178.4200  142.9960 C   0  0  0  0  0  0  0  0  0  0  0  0
  190.9090  177.9190  144.8280 C   0  0  0  0  0  3  0  0  0  0  0  0
  186.0460  177.8670  145.5250 C   0  0  0  0  0  3  0  0  0  0  0  0
  187.7840  179.6030  141.4760 C   0  0  0  0  0  2  0  0  0  0  0  0
  189.1640  178.9440  141.6100 C   0  0  2  0  0  3  0  0  0  0  0  0
  185.5550  178.5350  141.1680 C   0  0  0  0  0  0  0  0  0  0  0  0
  186.9180  177.9350  143.2070 C   0  0  2  0  0  3  0  0  0  0  0  0
  190.6960  178.3290  143.5060 C   0  0  0  0  0  3  0  0  0  0  0  0
  190.4640  176.9670  140.6770 C   0  0  0  0  0  0  0  0  0  0  0  0
  190.1830  175.7530  140.8600 O   0  0  0  0  0  0  0  0  0  0  0  0
  189.4110  177.9410  140.5710 N   0  0  0  0  0  0  0  0  0  0  0  0
  192.1760  177.4490  140.4810 S   0  0  0  0  0  1  0  0  0  0  0  0
  188.4190  176.5730  138.7850 C   0  0  0  0  0  1  0  0  0  0  0  0
  188.9520  178.9760  138.3920 C   0  0  0  0  0  1  0  0  0  0  0  0
  188.5120  177.9480  139.4200 C   0  0  0  0  0  3  0  0  0  0  0  0
  185.3890  179.2940  140.0080 O   0  0  0  0  0  0  0  0  0  0  0  0
  184.4160  178.9640  139.0260 C   0  0  0  0  0  2  0  0  0  0  0  0
  182.9590  176.3320  138.7730 C   0  0  0  0  0  1  0  0  0  0  0  0
  184.9190  177.8190  138.1590 C   0  0  1  0  0  3  0  0  0  0  0  0
  183.7500  176.9490  137.6330 C   0  0  1  0  0  3  0  0  0  0  0  0
  184.9510  176.4880  135.7530 C   0  0  0  0  0  2  0  0  0  0  0  0
  186.1240  177.3060  136.2960 C   0  0  0  0  0  2  0  0  0  0  0  0
  185.6280  178.3700  137.0720 O   0  0  0  0  0  0  0  0  0  0  0  0
  184.2510  175.9070  136.8270 O   0  0  0  0  0  0  0  0  0  0  0  0
  1 10  2  0  0  0  0
  2  6  1  0  0  0  0
  3  8  1  0  0  0  0
  4 17  1  0  0  0  0
  6  5  2  0  0  0  0
  7 13  2  0  0  0  0
  8  1  1  0  0  0  0
  8  2  2  0  0  0  0
 10  5  1  0  0  0  0
 11 18  1  0  0  0  0
 11  3  2  0  0  0  0
 12  1  1  0  0  0  0
 13  2  1  0  0  0  0
 14 15  1  0  0  0  0
 14  4  1  0  0  0  0
 15 21  1  6  0  0  0
 15 11  1  0  0  0  0
 16  9  2  0  0  0  0
 16  4  1  0  0  0  0
 17  3  1  0  0  0  0
 17  7  1  1  0  0  0
 18 12  2  0  0  0  0
 19 20  2  0  0  0  0
 21 19  1  0  0  0  0
 22 19  1  0  0  0  0
 23 25  1  0  0  0  0
 24 25  1  0  0  0  0
 25 21  1  0  0  0  0
 26 16  1  0  0  0  0
 27 26  1  0  0  0  0
 29 27  1  1  0  0  0
 30 29  1  0  0  0  0
 30 28  1  1  0  0  0
 31 32  1  0  0  0  0
 31 34  1  0  0  0  0
 32 33  1  0  0  0  0
 33 29  1  0  0  0  0
 34 30  1  0  0  0  0
M  END
>  <MODEL>
5

>  <REMARK>
 VINA RESULT:      -7.4      2.801      4.819
  Name = 
  5 active torsions:
  status: ('A' for Active; 'I' for Inactive)
    1  A    between atoms: C_3  and  C_13
    2  A    between atoms: C_3  and  O_17
    3  A    between atoms: O_17  and  C_29
    4  A    between atoms: N_23  and  C_27
    5  A    between atoms: N_23  and  C_28
                            x       y       z     vdW  Elec       q    Type
                         _______ _______ _______ _____ _____    ______ ____

>  <TORSDO>
F 5

$$$$
=
 OpenBabel10272400053D

 34 38  0  0  1  0  0  0  0  0999 V2000
  187.3660  178.0770  146.0540 C   0  0  0  0  0  0  0  0  0  0  0  0
  185.4170  178.3790  144.6130 C   0  0  0  0  0  0  0  0  0  0  0  0
  187.6450  178.2490  143.6410 C   0  0  0  0  0  0  0  0  0  0  0  0
  187.9120  178.6370  141.1870 N   0  0  0  0  0  0  0  0  0  0  0  0
  185.1400  178.1380  147.0100 C   0  0  0  0  0  3  0  0  0  0  0  0
  184.5890  178.3350  145.7380 C   0  0  0  0  0  3  0  0  0  0  0  0
  185.6300  178.6810  142.1950 C   0  0  0  0  0  3  0  0  0  0  0  0
  186.8080  178.2170  144.7660 C   0  0  0  0  0  0  0  0  0  0  0  0
  186.5520  177.7400  139.5050 O   0  0  0  0  0  0  0  0  0  0  0  0
  186.5250  178.0180  147.1700 C   0  0  0  0  0  3  0  0  0  0  0  0
  189.0370  178.2540  143.8060 C   0  0  0  0  0  0  0  0  0  0  0  0
  188.7540  178.0250  146.2070 C   0  0  0  0  0  3  0  0  0  0  0  0
  184.8630  178.7290  143.2910 C   0  0  0  0  0  3  0  0  0  0  0  0
  189.2180  179.2260  141.4980 C   0  0  0  0  0  2  0  0  0  0  0  0
  189.9310  178.4550  142.6190 C   0  0  2  0  0  3  0  0  0  0  0  0
  187.5890  178.3930  139.8080 C   0  0  0  0  0  0  0  0  0  0  0  0
  187.0360  178.1360  142.2590 C   0  0  2  0  0  3  0  0  0  0  0  0
  189.5880  178.1310  145.0880 C   0  0  0  0  0  3  0  0  0  0  0  0
  190.5720  176.0160  142.9440 C   0  0  0  0  0  0  0  0  0  0  0  0
  189.8680  175.0240  142.6200 O   0  0  0  0  0  0  0  0  0  0  0  0
  190.5420  177.2110  142.1460 N   0  0  0  0  0  0  0  0  0  0  0  0
  191.6560  175.8940  144.3630 S   0  0  0  0  0  1  0  0  0  0  0  0
  190.4620  176.1550  139.9260 C   0  0  0  0  0  1  0  0  0  0  0  0
  192.6090  177.0430  140.8290 C   0  0  0  0  0  1  0  0  0  0  0  0
  191.1010  177.2220  140.7950 C   0  0  0  0  0  3  0  0  0  0  0  0
  188.4370  178.8670  138.8050 O   0  0  0  0  0  0  0  0  0  0  0  0
  188.0640  178.8470  137.4340 C   0  0  0  0  0  2  0  0  0  0  0  0
  186.7200  177.5270  135.0750 C   0  0  0  0  0  1  0  0  0  0  0  0
  188.6110  177.5960  136.7640 C   0  0  1  0  0  3  0  0  0  0  0  0
  188.2270  177.5410  135.2640 C   0  0  1  0  0  3  0  0  0  0  0  0
  190.1570  176.4160  134.8200 C   0  0  0  0  0  2  0  0  0  0  0  0
  190.5120  176.4270  136.3080 C   0  0  0  0  0  2  0  0  0  0  0  0
  190.0150  177.6050  136.8950 O   0  0  0  0  0  0  0  0  0  0  0  0
  188.7580  176.3760  134.6730 O   0  0  0  0  0  0  0  0  0  0  0  0
  1 12  1  0  0  0  0
  1 10  2  0  0  0  0
  2  8  2  0  0  0  0
  2  6  1  0  0  0  0
  3 11  2  0  0  0  0
  3  8  1  0  0  0  0
  4 14  1  0  0  0  0
  4 17  1  0  0  0  0
  5 10  1  0  0  0  0
  6  5  2  0  0  0  0
  7 13  2  0  0  0  0
  8  1  1  0  0  0  0
  9 16  2  0  0  0  0
 11 18  1  0  0  0  0
 13  2  1  0  0  0  0
 14 15  1  0  0  0  0
 15 21  1  6  0  0  0
 15 11  1  0  0  0  0
 16  4  1  0  0  0  0
 17  7  1  1  0  0  0
 17  3  1  0  0  0  0
 18 12  2  0  0  0  0
 19 22  1  0  0  0  0
 20 19  2  0  0  0  0
 21 19  1  0  0  0  0
 23 25  1  0  0  0  0
 25 24  1  0  0  0  0
 25 21  1  0  0  0  0
 26 16  1  0  0  0  0
 27 26  1  0  0  0  0
 29 33  1  0  0  0  0
 29 27  1  6  0  0  0
 30 28  1  1  0  0  0
 30 29  1  0  0  0  0
 31 32  1  0  0  0  0
 32 33  1  0  0  0  0
 34 31  1  0  0  0  0
 34 30  1  0  0  0  0
M  END
>  <MODEL>
6

>  <REMARK>
 VINA RESULT:      -7.2      2.267      4.186
  Name = 
  5 active torsions:
  status: ('A' for Active; 'I' for Inactive)
    1  A    between atoms: C_3  and  C_13
    2  A    between atoms: C_3  and  O_17
    3  A    between atoms: O_17  and  C_29
    4  A    between atoms: N_23  and  C_27
    5  A    between atoms: N_23  and  C_28
                            x       y       z     vdW  Elec       q    Type
                         _______ _______ _______ _____ _____    ______ ____

>  <TORSDO>
F 5

$$$$
=
 OpenBabel10272400053D

 34 38  0  0  1  0  0  0  0  0999 V2000
  182.7340  178.8810  143.4470 C   0  0  0  0  0  0  0  0  0  0  0  0
  185.1410  178.7290  143.0640 C   0  0  0  0  0  0  0  0  0  0  0  0
  183.5940  178.5480  141.1920 C   0  0  0  0  0  0  0  0  0  0  0  0
  184.5020  177.9990  138.9300 N   0  0  0  0  0  0  0  0  0  0  0  0
  184.2810  179.1300  145.2950 C   0  0  0  0  0  3  0  0  0  0  0  0
  185.3630  178.9290  144.4290 C   0  0  0  0  0  3  0  0  0  0  0  0
  186.0730  178.2730  140.8480 C   0  0  0  0  0  3  0  0  0  0  0  0
  183.8250  178.7370  142.5640 C   0  0  0  0  0  0  0  0  0  0  0  0
  186.4020  178.9540  137.9500 O   0  0  0  0  0  0  0  0  0  0  0  0
  182.9700  179.0970  144.8070 C   0  0  0  0  0  3  0  0  0  0  0  0
  182.2840  178.3910  140.7190 C   0  0  0  0  0  0  0  0  0  0  0  0
  181.4280  178.7810  142.9590 C   0  0  0  0  0  3  0  0  0  0  0  0
  186.2610  178.3740  142.1700 C   0  0  0  0  0  3  0  0  0  0  0  0
  183.2480  177.2810  138.6840 C   0  0  0  0  0  2  0  0  0  0  0  0
  182.0460  178.0240  139.2860 C   0  0  2  0  0  3  0  0  0  0  0  0
  185.3950  178.2030  137.8240 C   0  0  0  0  0  0  0  0  0  0  0  0
  184.7530  178.6550  140.2240 C   0  0  2  0  0  3  0  0  0  0  0  0
  181.2040  178.5190  141.6010 C   0  0  0  0  0  3  0  0  0  0  0  0
  181.4510  180.4810  139.0120 C   0  0  0  0  0  0  0  0  0  0  0  0
  182.2550  181.3990  138.6990 O   0  0  0  0  0  0  0  0  0  0  0  0
  181.6200  179.1610  138.4670 N   0  0  0  0  0  0  0  0  0  0  0  0
  180.0650  180.8570  140.0800 S   0  0  0  0  0  1  0  0  0  0  0  0
  180.8300  180.1260  136.3470 C   0  0  0  0  0  1  0  0  0  0  0  0
  180.4920  177.7060  136.8410 C   0  0  0  0  0  1  0  0  0  0  0  0
  181.4010  178.9060  137.0450 C   0  0  0  0  0  3  0  0  0  0  0  0
  185.1350  177.5810  136.6010 O   0  0  0  0  0  0  0  0  0  0  0  0
  186.1420  176.8800  135.8850 C   0  0  0  0  0  2  0  0  0  0  0  0
  188.3100  175.0420  136.9000 C   0  0  0  0  0  1  0  0  0  0  0  0
  185.9480  175.3800  136.0440 C   0  0  1  0  0  3  0  0  0  0  0  0
  186.8350  174.8090  137.1780 C   0  0  1  0  0  3  0  0  0  0  0  0
  185.2600  173.2170  137.5970 C   0  0  0  0  0  2  0  0  0  0  0  0
  184.4070  173.7510  136.4440 C   0  0  0  0  0  2  0  0  0  0  0  0
  184.5890  175.1420  136.3380 O   0  0  0  0  0  0  0  0  0  0  0  0
  186.6210  173.4210  137.3040 O   0  0  0  0  0  0  0  0  0  0  0  0
  1 10  2  0  0  0  0
  2  6  1  0  0  0  0
  3  8  1  0  0  0  0
  4 17  1  0  0  0  0
  6  5  2  0  0  0  0
  7 13  2  0  0  0  0
  8  2  2  0  0  0  0
  8  1  1  0  0  0  0
 10  5  1  0  0  0  0
 11  3  2  0  0  0  0
 11 18  1  0  0  0  0
 12  1  1  0  0  0  0
 13  2  1  0  0  0  0
 14  4  1  0  0  0  0
 14 15  1  0  0  0  0
 15 21  1  6  0  0  0
 15 11  1  0  0  0  0
 16  9  2  0  0  0  0
 16  4  1  0  0  0  0
 17  7  1  1  0  0  0
 17  3  1  0  0  0  0
 18 12  2  0  0  0  0
 19 22  1  0  0  0  0
 20 19  2  0  0  0  0
 21 19  1  0  0  0  0
 23 25  1  0  0  0  0
 24 25  1  0  0  0  0
 25 21  1  0  0  0  0
 26 16  1  0  0  0  0
 27 26  1  0  0  0  0
 29 27  1  1  0  0  0
 29 33  1  0  0  0  0
 29 30  1  0  0  0  0
 30 28  1  6  0  0  0
 30 34  1  0  0  0  0
 32 31  1  0  0  0  0
 33 32  1  0  0  0  0
 34 31  1  0  0  0  0
M  END
>  <MODEL>
7

>  <REMARK>
 VINA RESULT:      -7.1      4.391      6.216
  Name = 
  5 active torsions:
  status: ('A' for Active; 'I' for Inactive)
    1  A    between atoms: C_3  and  C_13
    2  A    between atoms: C_3  and  O_17
    3  A    between atoms: O_17  and  C_29
    4  A    between atoms: N_23  and  C_27
    5  A    between atoms: N_23  and  C_28
                            x       y       z     vdW  Elec       q    Type
                         _______ _______ _______ _____ _____    ______ ____

>  <TORSDO>
F 5

$$$$
=
 OpenBabel10272400053D

 34 38  0  0  1  0  0  0  0  0999 V2000
  187.7910  177.8890  147.2010 C   0  0  0  0  0  0  0  0  0  0  0  0
  190.1970  177.5310  146.9770 C   0  0  0  0  0  0  0  0  0  0  0  0
  188.7540  177.3940  145.0190 C   0  0  0  0  0  0  0  0  0  0  0  0
  189.7470  176.6810  142.8400 N   0  0  0  0  0  0  0  0  0  0  0  0
  189.2410  178.0920  149.1330 C   0  0  0  0  0  3  0  0  0  0  0  0
  190.3520  177.7700  148.3450 C   0  0  0  0  0  3  0  0  0  0  0  0
  191.2180  176.9090  144.8420 C   0  0  0  0  0  3  0  0  0  0  0  0
  188.9170  177.6220  146.3950 C   0  0  0  0  0  0  0  0  0  0  0  0
  191.7740  177.4400  141.9470 O   0  0  0  0  0  0  0  0  0  0  0  0
  187.9620  178.1430  148.5650 C   0  0  0  0  0  3  0  0  0  0  0  0
  187.4660  177.3220  144.4710 C   0  0  0  0  0  0  0  0  0  0  0  0
  186.5130  177.8730  146.6360 C   0  0  0  0  0  3  0  0  0  0  0  0
  191.3340  177.0500  146.1680 C   0  0  0  0  0  3  0  0  0  0  0  0
  188.4550  176.0550  142.5430 C   0  0  0  0  0  2  0  0  0  0  0  0
  187.2840  176.9150  143.0400 C   0  0  2  0  0  3  0  0  0  0  0  0
  190.7180  176.7670  141.7850 C   0  0  0  0  0  0  0  0  0  0  0  0
  189.9740  177.3680  144.1230 C   0  0  2  0  0  3  0  0  0  0  0  0
  186.3500  177.5730  145.2780 C   0  0  0  0  0  3  0  0  0  0  0  0
  188.0430  178.7630  141.4660 C   0  0  0  0  0  0  0  0  0  0  0  0
  188.1570  178.6600  140.2160 O   0  0  0  0  0  0  0  0  0  0  0  0
  187.0030  178.0480  142.1540 N   0  0  0  0  0  0  0  0  0  0  0  0
  189.1400  179.8600  142.3580 S   0  0  0  0  0  1  0  0  0  0  0  0
  185.3120  178.7860  140.5280 C   0  0  0  0  0  1  0  0  0  0  0  0
  185.2000  179.5380  142.9020 C   0  0  0  0  0  1  0  0  0  0  0  0
  185.5990  178.4080  141.9690 C   0  0  0  0  0  3  0  0  0  0  0  0
  190.4810  176.1160  140.5730 O   0  0  0  0  0  0  0  0  0  0  0  0
  190.9050  176.6620  139.3310 C   0  0  0  0  0  2  0  0  0  0  0  0
  189.3870  177.8350  137.0010 C   0  0  0  0  0  1  0  0  0  0  0  0
  190.3720  175.8190  138.1820 C   0  0  1  0  0  3  0  0  0  0  0  0
  190.3040  176.6310  136.8650 C   0  0  1  0  0  3  0  0  0  0  0  0
  190.6920  174.7250  135.6800 C   0  0  0  0  0  2  0  0  0  0  0  0
  190.7100  173.9160  136.9770 C   0  0  0  0  0  2  0  0  0  0  0  0
  191.2290  174.7120  138.0140 O   0  0  0  0  0  0  0  0  0  0  0  0
  189.8160  175.8180  135.8220 O   0  0  0  0  0  0  0  0  0  0  0  0
  1 10  2  0  0  0  0
  2  6  1  0  0  0  0
  3  8  1  0  0  0  0
  4 17  1  0  0  0  0
  6  5  2  0  0  0  0
  7 13  2  0  0  0  0
  8  2  2  0  0  0  0
  8  1  1  0  0  0  0
 10  5  1  0  0  0  0
 11  3  2  0  0  0  0
 11 18  1  0  0  0  0
 12  1  1  0  0  0  0
 13  2  1  0  0  0  0
 14  4  1  0  0  0  0
 14 15  1  0  0  0  0
 15 21  1  6  0  0  0
 15 11  1  0  0  0  0
 16  9  2  0  0  0  0
 16  4  1  0  0  0  0
 17  7  1  1  0  0  0
 17  3  1  0  0  0  0
 18 12  2  0  0  0  0
 19 21  1  0  0  0  0
 19 22  1  0  0  0  0
 20 19  2  0  0  0  0
 23 25  1  0  0  0  0
 25 21  1  0  0  0  0
 25 24  1  0  0  0  0
 26 16  1  0  0  0  0
 27 26  1  0  0  0  0
 29 27  1  1  0  0  0
 30 28  1  1  0  0  0
 30 29  1  0  0  0  0
 31 34  1  0  0  0  0
 31 32  1  0  0  0  0
 32 33  1  0  0  0  0
 33 29  1  0  0  0  0
 34 30  1  0  0  0  0
M  END
>  <MODEL>
8

>  <REMARK>
 VINA RESULT:      -7.0      1.206      1.576
  Name = 
  5 active torsions:
  status: ('A' for Active; 'I' for Inactive)
    1  A    between atoms: C_3  and  C_13
    2  A    between atoms: C_3  and  O_17
    3  A    between atoms: O_17  and  C_29
    4  A    between atoms: N_23  and  C_27
    5  A    between atoms: N_23  and  C_28
                            x       y       z     vdW  Elec       q    Type
                         _______ _______ _______ _____ _____    ______ ____

>  <TORSDO>
F 5

$$$$
=
 OpenBabel10272400053D

 34 38  0  0  1  0  0  0  0  0999 V2000
  192.0510  176.0130  135.5040 C   0  0  0  0  0  0  0  0  0  0  0  0
  192.7020  176.2170  137.8490 C   0  0  0  0  0  0  0  0  0  0  0  0
  190.4530  176.8350  137.1490 C   0  0  0  0  0  0  0  0  0  0  0  0
  188.9130  177.8680  138.8240 N   0  0  0  0  0  0  0  0  0  0  0  0
  194.2650  175.3350  136.2180 C   0  0  0  0  0  3  0  0  0  0  0  0
  193.9670  175.7120  137.5330 C   0  0  0  0  0  3  0  0  0  0  0  0
  191.1940  177.1490  139.5350 C   0  0  0  0  0  3  0  0  0  0  0  0
  191.7290  176.3390  136.8380 C   0  0  0  0  0  0  0  0  0  0  0  0
  188.5950  177.1340  141.0240 O   0  0  0  0  0  0  0  0  0  0  0  0
  193.3130  175.4930  135.2040 C   0  0  0  0  0  3  0  0  0  0  0  0
  189.5410  177.1110  136.1210 C   0  0  0  0  0  0  0  0  0  0  0  0
  191.1150  176.2370  134.4900 C   0  0  0  0  0  3  0  0  0  0  0  0
  192.4270  176.7510  139.1970 C   0  0  0  0  0  3  0  0  0  0  0  0
  188.3450  178.6380  137.7140 C   0  0  0  0  0  2  0  0  0  0  0  0
  188.2450  177.7940  136.4350 C   0  0  2  0  0  3  0  0  0  0  0  0
  188.2390  177.9070  140.0920 C   0  0  0  0  0  0  0  0  0  0  0  0
  190.0300  176.9340  138.5990 C   0  0  2  0  0  3  0  0  0  0  0  0
  189.8700  176.8010  134.7950 C   0  0  0  0  0  3  0  0  0  0  0  0
  187.2660  175.4500  136.5420 C   0  0  0  0  0  0  0  0  0  0  0  0
  186.9340  174.8410  137.5930 O   0  0  0  0  0  0  0  0  0  0  0  0
  187.1040  176.8760  136.4550 N   0  0  0  0  0  0  0  0  0  0  0  0
  187.8700  174.5130  135.1420 S   0  0  0  0  0  1  0  0  0  0  0  0
  185.0840  177.3810  137.7640 C   0  0  0  0  0  1  0  0  0  0  0  0
  184.9170  176.8310  135.3380 C   0  0  0  0  0  1  0  0  0  0  0  0
  185.7720  177.4760  136.4150 C   0  0  0  0  0  3  0  0  0  0  0  0
  187.1760  178.7920  140.2830 O   0  0  0  0  0  0  0  0  0  0  0  0
  186.7020  179.1290  141.5790 C   0  0  0  0  0  2  0  0  0  0  0  0
  185.6210  178.3820  144.2970 C   0  0  0  0  0  1  0  0  0  0  0  0
  185.3060  178.5600  141.7870 C   0  0  1  0  0  3  0  0  0  0  0  0
  184.7440  178.9280  143.1830 C   0  0  1  0  0  3  0  0  0  0  0  0
  182.6350  178.9360  142.3230 C   0  0  0  0  0  2  0  0  0  0  0  0
  183.1860  178.5230  140.9560 C   0  0  0  0  0  2  0  0  0  0  0  0
  184.4650  179.0830  140.7840 O   0  0  0  0  0  0  0  0  0  0  0  0
  183.4480  178.3950  143.3360 O   0  0  0  0  0  0  0  0  0  0  0  0
  1  8  1  0  0  0  0
  2 13  1  0  0  0  0
  3 17  1  0  0  0  0
  4 16  1  0  0  0  0
  5  6  2  0  0  0  0
  6  2  1  0  0  0  0
  8  3  1  0  0  0  0
  8  2  2  0  0  0  0
 10  1  2  0  0  0  0
 10  5  1  0  0  0  0
 11 15  1  0  0  0  0
 11  3  2  0  0  0  0
 12 18  2  0  0  0  0
 12  1  1  0  0  0  0
 13  7  2  0  0  0  0
 14  4  1  0  0  0  0
 15 21  1  1  0  0  0
 15 14  1  0  0  0  0
 16 26  1  0  0  0  0
 16  9  2  0  0  0  0
 17  4  1  0  0  0  0
 17  7  1  1  0  0  0
 18 11  1  0  0  0  0
 19 20  2  0  0  0  0
 21 19  1  0  0  0  0
 22 19  1  0  0  0  0
 24 25  1  0  0  0  0
 25 21  1  0  0  0  0
 25 23  1  0  0  0  0
 26 27  1  0  0  0  0
 29 27  1  6  0  0  0
 29 30  1  0  0  0  0
 30 34  1  0  0  0  0
 30 28  1  1  0  0  0
 31 34  1  0  0  0  0
 32 31  1  0  0  0  0
 33 32  1  0  0  0  0
 33 29  1  0  0  0  0
M  END
>  <MODEL>
9

>  <REMARK>
 VINA RESULT:      -6.6      3.594      8.527
  Name = 
  5 active torsions:
  status: ('A' for Active; 'I' for Inactive)
    1  A    between atoms: C_3  and  C_13
    2  A    between atoms: C_3  and  O_17
    3  A    between atoms: O_17  and  C_29
    4  A    between atoms: N_23  and  C_27
    5  A    between atoms: N_23  and  C_28
                            x       y       z     vdW  Elec       q    Type
                         _______ _______ _______ _____ _____    ______ ____

>  <TORSDO>
F 5

$$$$
