=
 OpenBabel10272400143D

 31 35  0  0  1  0  0  0  0  0999 V2000
  189.3410  177.6430  147.2450 C   0  0  0  0  0  0  0  0  0  0  0  0
  187.8060  177.8480  143.7460 C   0  0  0  0  0  0  0  0  0  0  0  0
  186.4370  178.2160  143.9270 C   0  0  0  0  0  0  0  0  0  0  0  0
  184.6140  178.4170  145.8170 C   0  0  0  0  0  3  0  0  0  0  0  0
  188.7210  177.5140  144.8900 C   0  0  0  0  0  0  0  0  0  0  0  0
  190.5180  176.9430  146.9840 C   0  0  0  0  0  3  0  0  0  0  0  0
  185.8940  178.1370  145.2520 N   0  0  0  0  0  2  0  0  0  0  0  0
  189.7930  177.3920  142.2210 C   0  0  2  0  0  3  0  0  0  0  0  0
  188.9730  178.1620  148.8760 Cl  0  0  0  0  0  0  0  0  0  0  0  0
  186.2610  178.5930  141.5330 C   0  0  0  0  0  3  0  0  0  0  0  0
  183.5390  178.8530  145.1770 C   0  0  0  0  0  3  0  0  0  0  0  0
  190.2670  176.3730  143.2560 C   0  0  0  0  0  2  0  0  0  0  0  0
  188.3470  177.7870  142.4380 C   0  0  0  0  0  0  0  0  0  0  0  0
  188.4540  177.9300  146.2050 C   0  0  0  0  0  3  0  0  0  0  0  0
  183.3830  179.1490  143.7590 C   0  0  0  0  0  3  0  0  0  0  0  0
  189.9330  176.8350  144.6370 C   0  0  0  0  0  0  0  0  0  0  0  0
  190.8130  176.5390  145.6820 C   0  0  0  0  0  3  0  0  0  0  0  0
  187.5750  178.1950  141.3520 C   0  0  0  0  0  3  0  0  0  0  0  0
  185.6720  178.6000  142.7970 C   0  0  0  0  0  0  0  0  0  0  0  0
  184.2720  179.0400  142.7800 C   0  0  0  0  0  3  0  0  0  0  0  0
  192.2030  177.7520  140.6340 O   0  0  0  0  0  0  0  0  0  0  0  0
  191.2480  177.1020  140.1320 C   0  0  0  0  0  0  0  0  0  0  0  0
  190.0400  176.8860  140.8700 N   0  0  0  0  0  2  0  0  0  0  0  0
  191.3650  176.5760  138.7420 C   0  0  0  0  0  2  0  0  0  0  0  0
  188.4060  177.4410  136.4520 C   0  0  1  0  0  3  0  0  0  0  0  0
  188.6620  175.0720  136.3880 C   0  0  0  0  0  2  0  0  0  0  0  0
  187.4010  178.5720  136.5130 C   0  0  0  0  0  1  0  0  0  0  0  0
  189.5070  177.6740  137.4930 C   0  0  0  0  0  2  0  0  0  0  0  0
  190.0190  175.2370  137.0970 C   0  0  0  0  0  2  0  0  0  0  0  0
  189.9910  176.3680  138.1280 C   0  0  1  0  0  3  0  0  0  0  0  0
  187.7300  176.1660  136.6810 N   0  0  0  0  0  2  0  0  0  0  0  0
  1  9  1  0  0  0  0
  2  3  1  0  0  0  0
  2  5  1  0  0  0  0
  3  7  1  0  0  0  0
  5 14  1  0  0  0  0
  6  1  1  0  0  0  0
  7  4  1  0  0  0  0
  8 23  1  6  0  0  0
  8 13  1  0  0  0  0
  8 12  1  0  0  0  0
 10 19  1  0  0  0  0
 11  4  2  0  0  0  0
 12 16  1  0  0  0  0
 13  2  2  0  0  0  0
 14  1  2  0  0  0  0
 15 11  1  0  0  0  0
 16  5  2  0  0  0  0
 16 17  1  0  0  0  0
 17  6  2  0  0  0  0
 18 10  2  0  0  0  0
 18 13  1  0  0  0  0
 19  3  2  0  0  0  0
 20 19  1  0  0  0  0
 20 15  2  0  0  0  0
 22 21  2  0  0  0  0
 22 23  1  0  0  0  0
 24 22  1  0  0  0  0
 25 27  1  1  0  0  0
 25 31  1  0  0  0  0
 25 28  1  0  0  0  0
 26 31  1  0  0  0  0
 26 29  1  0  0  0  0
 28 30  1  0  0  0  0
 29 30  1  0  0  0  0
 30 24  1  6  0  0  0
M  END
>  <MODEL>
1

>  <REMARK>
 VINA RESULT:     -11.0      0.000      0.000
  Name = 
  3 active torsions:
  status: ('A' for Active; 'I' for Inactive)
    1  A    between atoms: C_3  and  C_9
    2  A    between atoms: C_3  and  C_22
    3  A    between atoms: C_15  and  N_23
                            x       y       z     vdW  Elec       q    Type
                         _______ _______ _______ _____ _____    ______ ____

>  <TORSDO>
F 3

$$$$
=
 OpenBabel10272400143D

 31 35  0  0  1  0  0  0  0  0999 V2000
  190.6810  177.0540  146.0560 C   0  0  0  0  0  0  0  0  0  0  0  0
  187.9640  177.6700  143.4330 C   0  0  0  0  0  0  0  0  0  0  0  0
  186.7730  177.9910  144.1540 C   0  0  0  0  0  0  0  0  0  0  0  0
  185.7890  177.9270  146.5960 C   0  0  0  0  0  3  0  0  0  0  0  0
  189.2270  177.2090  144.1040 C   0  0  0  0  0  0  0  0  0  0  0  0
  191.6540  176.4100  145.2920 C   0  0  0  0  0  3  0  0  0  0  0  0
  186.7580  177.7400  145.5650 N   0  0  0  0  0  2  0  0  0  0  0  0
  189.2270  177.4380  141.2340 C   0  0  2  0  0  3  0  0  0  0  0  0
  190.9620  177.3600  147.7560 Cl  0  0  0  0  0  0  0  0  0  0  0  0
  185.7330  178.6600  142.0630 C   0  0  0  0  0  3  0  0  0  0  0  0
  184.5680  178.4220  146.4610 C   0  0  0  0  0  3  0  0  0  0  0  0
  190.0180  176.3050  141.8870 C   0  0  0  0  0  2  0  0  0  0  0  0
  187.9780  177.7800  142.0210 C   0  0  0  0  0  0  0  0  0  0  0  0
  189.4810  177.4550  145.4640 C   0  0  0  0  0  3  0  0  0  0  0  0
  183.9070  178.8910  145.2490 C   0  0  0  0  0  3  0  0  0  0  0  0
  190.2360  176.5860  143.3370 C   0  0  0  0  0  0  0  0  0  0  0  0
  191.4310  176.1760  143.9350 C   0  0  0  0  0  3  0  0  0  0  0  0
  186.8720  178.3090  141.3580 C   0  0  0  0  0  3  0  0  0  0  0  0
  185.6550  178.5010  143.4450 C   0  0  0  0  0  0  0  0  0  0  0  0
  184.3650  178.9180  144.0050 C   0  0  0  0  0  3  0  0  0  0  0  0
  189.1350  179.2800  138.9860 O   0  0  0  0  0  0  0  0  0  0  0  0
  188.8980  178.0610  138.7710 C   0  0  0  0  0  0  0  0  0  0  0  0
  188.9380  177.1070  139.8380 N   0  0  0  0  0  2  0  0  0  0  0  0
  188.5450  177.6120  137.3950 C   0  0  0  0  0  2  0  0  0  0  0  0
  184.7070  177.4800  137.3130 C   0  0  1  0  0  3  0  0  0  0  0  0
  185.4910  175.6910  135.9470 C   0  0  0  0  0  2  0  0  0  0  0  0
  183.6780  177.8820  138.3480 C   0  0  0  0  0  1  0  0  0  0  0  0
  186.1000  177.9290  137.7700 C   0  0  0  0  0  2  0  0  0  0  0  0
  186.9000  176.3060  136.0140 C   0  0  0  0  0  2  0  0  0  0  0  0
  187.1890  176.9250  137.3840 C   0  0  1  0  0  3  0  0  0  0  0  0
  184.6640  176.0340  137.1090 N   0  0  0  0  0  2  0  0  0  0  0  0
  1  9  1  0  0  0  0
  2  5  1  0  0  0  0
  2  3  1  0  0  0  0
  3  7  1  0  0  0  0
  5 14  2  0  0  0  0
  6  1  2  0  0  0  0
  7  4  1  0  0  0  0
  8 23  1  6  0  0  0
  8 12  1  0  0  0  0
  8 13  1  0  0  0  0
 10 19  1  0  0  0  0
 11  4  2  0  0  0  0
 12 16  1  0  0  0  0
 13  2  2  0  0  0  0
 14  1  1  0  0  0  0
 15 11  1  0  0  0  0
 16 17  2  0  0  0  0
 16  5  1  0  0  0  0
 17  6  1  0  0  0  0
 18 13  1  0  0  0  0
 18 10  2  0  0  0  0
 19 20  1  0  0  0  0
 19  3  2  0  0  0  0
 20 15  2  0  0  0  0
 22 21  2  0  0  0  0
 22 23  1  0  0  0  0
 24 22  1  0  0  0  0
 25 28  1  0  0  0  0
 25 27  1  1  0  0  0
 26 29  1  0  0  0  0
 26 31  1  0  0  0  0
 29 30  1  0  0  0  0
 30 24  1  6  0  0  0
 30 28  1  0  0  0  0
 31 25  1  0  0  0  0
M  END
>  <MODEL>
2

>  <REMARK>
 VINA RESULT:     -10.5      1.770      2.261
  Name = 
  3 active torsions:
  status: ('A' for Active; 'I' for Inactive)
    1  A    between atoms: C_3  and  C_9
    2  A    between atoms: C_3  and  C_22
    3  A    between atoms: C_15  and  N_23
                            x       y       z     vdW  Elec       q    Type
                         _______ _______ _______ _____ _____    ______ ____

>  <TORSDO>
F 3

$$$$
=
 OpenBabel10272400143D

 31 35  0  0  1  0  0  0  0  0999 V2000
  189.6820  177.5470  146.8450 C   0  0  0  0  0  0  0  0  0  0  0  0
  187.9950  177.7990  143.4200 C   0  0  0  0  0  0  0  0  0  0  0  0
  186.6400  178.1810  143.6650 C   0  0  0  0  0  0  0  0  0  0  0  0
  184.9050  178.3870  145.6350 C   0  0  0  0  0  3  0  0  0  0  0  0
  188.9560  177.4440  144.5190 C   0  0  0  0  0  0  0  0  0  0  0  0
  190.8380  176.8350  146.5260 C   0  0  0  0  0  3  0  0  0  0  0  0
  186.1550  178.0970  145.0120 N   0  0  0  0  0  2  0  0  0  0  0  0
  189.9070  177.3330  141.8030 C   0  0  2  0  0  3  0  0  0  0  0  0
  189.3930  178.0560  148.4940 Cl  0  0  0  0  0  0  0  0  0  0  0  0
  186.3620  178.5800  141.2840 C   0  0  0  0  0  3  0  0  0  0  0  0
  183.8080  178.8400  145.0480 C   0  0  0  0  0  3  0  0  0  0  0  0
  190.4140  176.3000  142.8090 C   0  0  0  0  0  2  0  0  0  0  0  0
  188.4760  177.7430  142.0880 C   0  0  0  0  0  0  0  0  0  0  0  0
  188.7530  177.8530  145.8480 C   0  0  0  0  0  3  0  0  0  0  0  0
  183.5930  179.1500  143.6400 C   0  0  0  0  0  3  0  0  0  0  0  0
  190.1470  176.7540  144.2060 C   0  0  0  0  0  0  0  0  0  0  0  0
  191.0700  176.4390  145.2080 C   0  0  0  0  0  3  0  0  0  0  0  0
  187.6620  178.1690  141.0410 C   0  0  0  0  0  3  0  0  0  0  0  0
  185.8300  178.5840  142.5730 C   0  0  0  0  0  0  0  0  0  0  0  0
  184.4360  179.0390  142.6220 C   0  0  0  0  0  3  0  0  0  0  0  0
  192.3170  177.5060  140.1860 O   0  0  0  0  0  0  0  0  0  0  0  0
  191.2990  176.9560  139.6860 C   0  0  0  0  0  0  0  0  0  0  0  0
  190.0870  176.8350  140.4390 N   0  0  0  0  0  2  0  0  0  0  0  0
  191.3480  176.4520  138.2850 C   0  0  0  0  0  2  0  0  0  0  0  0
  194.2930  174.1990  137.2810 C   0  0  1  0  0  3  0  0  0  0  0  0
  194.4240  176.1560  135.9270 C   0  0  0  0  0  2  0  0  0  0  0  0
  195.0960  173.1990  138.0840 C   0  0  0  0  0  1  0  0  0  0  0  0
  193.0940  174.6800  138.1070 C   0  0  0  0  0  2  0  0  0  0  0  0
  193.0100  176.5350  136.4020 C   0  0  0  0  0  2  0  0  0  0  0  0
  192.7800  176.1590  137.8680 C   0  0  1  0  0  3  0  0  0  0  0  0
  195.1450  175.3210  136.8940 N   0  0  0  0  0  2  0  0  0  0  0  0
  1  9  1  0  0  0  0
  2  3  1  0  0  0  0
  2  5  1  0  0  0  0
  3  7  1  0  0  0  0
  5 14  1  0  0  0  0
  6  1  1  0  0  0  0
  7  4  1  0  0  0  0
  8 23  1  6  0  0  0
  8 13  1  0  0  0  0
  8 12  1  0  0  0  0
 10 19  1  0  0  0  0
 11  4  2  0  0  0  0
 12 16  1  0  0  0  0
 13  2  2  0  0  0  0
 14  1  2  0  0  0  0
 15 11  1  0  0  0  0
 16  5  2  0  0  0  0
 16 17  1  0  0  0  0
 17  6  2  0  0  0  0
 18 10  2  0  0  0  0
 18 13  1  0  0  0  0
 19 20  1  0  0  0  0
 19  3  2  0  0  0  0
 20 15  2  0  0  0  0
 22 21  2  0  0  0  0
 22 23  1  0  0  0  0
 24 22  1  0  0  0  0
 25 27  1  1  0  0  0
 25 28  1  0  0  0  0
 26 29  1  0  0  0  0
 26 31  1  0  0  0  0
 29 30  1  0  0  0  0
 30 28  1  0  0  0  0
 30 24  1  6  0  0  0
 31 25  1  0  0  0  0
M  END
>  <MODEL>
3

>  <REMARK>
 VINA RESULT:     -10.3      2.019      2.964
  Name = 
  3 active torsions:
  status: ('A' for Active; 'I' for Inactive)
    1  A    between atoms: C_3  and  C_9
    2  A    between atoms: C_3  and  C_22
    3  A    between atoms: C_15  and  N_23
                            x       y       z     vdW  Elec       q    Type
                         _______ _______ _______ _____ _____    ______ ____

>  <TORSDO>
F 3

$$$$
=
 OpenBabel10272400143D

 31 35  0  0  1  0  0  0  0  0999 V2000
  185.2200  178.4230  144.3510 C   0  0  0  0  0  0  0  0  0  0  0  0
  188.8020  177.3920  143.4850 C   0  0  0  0  0  0  0  0  0  0  0  0
  189.4820  177.2140  144.7290 C   0  0  0  0  0  0  0  0  0  0  0  0
  189.1930  177.7120  147.2990 C   0  0  0  0  0  3  0  0  0  0  0  0
  187.4090  177.9470  143.3870 C   0  0  0  0  0  0  0  0  0  0  0  0
  184.7750  178.9130  143.1230 C   0  0  0  0  0  3  0  0  0  0  0  0
  188.8450  177.7070  145.9160 N   0  0  0  0  0  2  0  0  0  0  0  0
  188.7520  177.2240  140.9450 C   0  0  2  0  0  3  0  0  0  0  0  0
  184.1460  178.4130  145.7320 Cl  0  0  0  0  0  0  0  0  0  0  0  0
  191.3370  176.2040  143.5280 C   0  0  0  0  0  3  0  0  0  0  0  0
  190.2920  177.2150  147.8460 C   0  0  0  0  0  3  0  0  0  0  0  0
  187.8320  178.4440  140.9510 C   0  0  0  0  0  2  0  0  0  0  0  0
  189.4510  177.0380  142.2770 C   0  0  0  0  0  0  0  0  0  0  0  0
  186.5240  177.9390  144.4780 C   0  0  0  0  0  3  0  0  0  0  0  0
  191.4130  176.5510  147.1910 C   0  0  0  0  0  3  0  0  0  0  0  0
  186.9330  178.4170  142.1430 C   0  0  0  0  0  0  0  0  0  0  0  0
  185.6310  178.9110  142.0210 C   0  0  0  0  0  3  0  0  0  0  0  0
  190.6960  176.4150  142.3180 C   0  0  0  0  0  3  0  0  0  0  0  0
  190.7610  176.6010  144.7340 C   0  0  0  0  0  0  0  0  0  0  0  0
  191.5980  176.3030  145.9010 C   0  0  0  0  0  3  0  0  0  0  0  0
  188.2400  176.5010  138.1760 O   0  0  0  0  0  0  0  0  0  0  0  0
  189.3850  176.9310  138.4800 C   0  0  0  0  0  0  0  0  0  0  0  0
  189.6920  177.3110  139.8260 N   0  0  0  0  0  2  0  0  0  0  0  0
  190.4410  177.0190  137.4320 C   0  0  0  0  0  2  0  0  0  0  0  0
  192.6830  174.1190  136.2860 C   0  0  1  0  0  3  0  0  0  0  0  0
  193.9580  175.4130  137.8280 C   0  0  0  0  0  2  0  0  0  0  0  0
  192.3380  172.7120  135.8460 C   0  0  0  0  0  1  0  0  0  0  0  0
  191.3970  174.9390  136.4440 C   0  0  0  0  0  2  0  0  0  0  0  0
  192.8820  176.5100  137.7410 C   0  0  0  0  0  2  0  0  0  0  0  0
  191.4750  175.9210  137.6150 C   0  0  1  0  0  3  0  0  0  0  0  0
  193.4320  174.0750  137.5400 N   0  0  0  0  0  2  0  0  0  0  0  0
  1 14  1  0  0  0  0
  1  9  1  0  0  0  0
  2  3  1  0  0  0  0
  3 19  2  0  0  0  0
  3  7  1  0  0  0  0
  4 11  2  0  0  0  0
  5  2  1  0  0  0  0
  5 14  2  0  0  0  0
  6  1  2  0  0  0  0
  7  4  1  0  0  0  0
  8 23  1  6  0  0  0
  8 12  1  0  0  0  0
  8 13  1  0  0  0  0
 10 19  1  0  0  0  0
 12 16  1  0  0  0  0
 13 18  1  0  0  0  0
 13  2  2  0  0  0  0
 15 11  1  0  0  0  0
 16  5  1  0  0  0  0
 17 16  2  0  0  0  0
 17  6  1  0  0  0  0
 18 10  2  0  0  0  0
 19 20  1  0  0  0  0
 20 15  2  0  0  0  0
 21 22  2  0  0  0  0
 22 23  1  0  0  0  0
 24 22  1  0  0  0  0
 25 27  1  1  0  0  0
 25 28  1  0  0  0  0
 25 31  1  0  0  0  0
 28 30  1  0  0  0  0
 29 26  1  0  0  0  0
 30 24  1  6  0  0  0
 30 29  1  0  0  0  0
 31 26  1  0  0  0  0
M  END
>  <MODEL>
4

>  <REMARK>
 VINA RESULT:     -10.2      2.222      4.945
  Name = 
  3 active torsions:
  status: ('A' for Active; 'I' for Inactive)
    1  A    between atoms: C_3  and  C_9
    2  A    between atoms: C_3  and  C_22
    3  A    between atoms: C_15  and  N_23
                            x       y       z     vdW  Elec       q    Type
                         _______ _______ _______ _____ _____    ______ ____

>  <TORSDO>
F 3

$$$$
=
 OpenBabel10272400143D

 31 35  0  0  1  0  0  0  0  0999 V2000
  190.6750  177.0260  146.0340 C   0  0  0  0  0  0  0  0  0  0  0  0
  187.9280  177.6590  143.4470 C   0  0  0  0  0  0  0  0  0  0  0  0
  186.7470  177.9820  144.1840 C   0  0  0  0  0  0  0  0  0  0  0  0
  185.7940  177.9150  146.6370 C   0  0  0  0  0  3  0  0  0  0  0  0
  189.1970  177.1920  144.1010 C   0  0  0  0  0  0  0  0  0  0  0  0
  191.6360  176.3800  145.2560 C   0  0  0  0  0  3  0  0  0  0  0  0
  186.7490  177.7270  145.5950 N   0  0  0  0  0  2  0  0  0  0  0  0
  189.1620  177.4290  141.2310 C   0  0  2  0  0  3  0  0  0  0  0  0
  190.9780  177.3260  147.7310 Cl  0  0  0  0  0  0  0  0  0  0  0  0
  185.6830  178.6610  142.1070 C   0  0  0  0  0  3  0  0  0  0  0  0
  184.5730  178.4150  146.5190 C   0  0  0  0  0  3  0  0  0  0  0  0
  189.9570  176.2920  141.8710 C   0  0  0  0  0  2  0  0  0  0  0  0
  187.9240  177.7730  142.0350 C   0  0  0  0  0  0  0  0  0  0  0  0
  189.4690  177.4320  145.4580 C   0  0  0  0  0  3  0  0  0  0  0  0
  183.8980  178.8890  145.3180 C   0  0  0  0  0  3  0  0  0  0  0  0
  190.1940  176.5670  143.3200 C   0  0  0  0  0  0  0  0  0  0  0  0
  191.3950  176.1510  143.9010 C   0  0  0  0  0  3  0  0  0  0  0  0
  186.8120  178.3080  141.3880 C   0  0  0  0  0  3  0  0  0  0  0  0
  185.6220  178.4990  143.4910 C   0  0  0  0  0  0  0  0  0  0  0  0
  184.3400  178.9180  144.0680 C   0  0  0  0  0  3  0  0  0  0  0  0
  189.2180  179.2440  138.9610 O   0  0  0  0  0  0  0  0  0  0  0  0
  188.8910  178.0440  138.7590 C   0  0  0  0  0  0  0  0  0  0  0  0
  188.8540  177.1030  139.8380 N   0  0  0  0  0  2  0  0  0  0  0  0
  188.5100  177.6050  137.3870 C   0  0  0  0  0  2  0  0  0  0  0  0
  191.8090  175.6380  137.3580 C   0  0  1  0  0  3  0  0  0  0  0  0
  190.0860  174.1120  136.7370 C   0  0  0  0  0  2  0  0  0  0  0  0
  193.2260  176.0830  137.0670 C   0  0  0  0  0  1  0  0  0  0  0  0
  190.8900  176.8640  137.4340 C   0  0  0  0  0  2  0  0  0  0  0  0
  189.0490  175.1600  137.1800 C   0  0  0  0  0  2  0  0  0  0  0  0
  189.5010  176.5850  136.8530 C   0  0  1  0  0  3  0  0  0  0  0  0
  191.3590  174.7110  136.3220 N   0  0  0  0  0  2  0  0  0  0  0  0
  1  9  1  0  0  0  0
  2  5  1  0  0  0  0
  2  3  1  0  0  0  0
  3  7  1  0  0  0  0
  5 14  2  0  0  0  0
  6  1  2  0  0  0  0
  7  4  1  0  0  0  0
  8 23  1  6  0  0  0
  8 12  1  0  0  0  0
  8 13  1  0  0  0  0
 10 19  1  0  0  0  0
 11  4  2  0  0  0  0
 12 16  1  0  0  0  0
 13  2  2  0  0  0  0
 14  1  1  0  0  0  0
 15 11  1  0  0  0  0
 16 17  2  0  0  0  0
 16  5  1  0  0  0  0
 17  6  1  0  0  0  0
 18 13  1  0  0  0  0
 18 10  2  0  0  0  0
 19 20  1  0  0  0  0
 19  3  2  0  0  0  0
 20 15  2  0  0  0  0
 22 21  2  0  0  0  0
 22 23  1  0  0  0  0
 24 22  1  0  0  0  0
 25 27  1  6  0  0  0
 25 28  1  0  0  0  0
 26 29  1  0  0  0  0
 30 29  1  0  0  0  0
 30 24  1  1  0  0  0
 30 28  1  0  0  0  0
 31 26  1  0  0  0  0
 31 25  1  0  0  0  0
M  END
>  <MODEL>
5

>  <REMARK>
 VINA RESULT:      -9.9      1.508      2.237
  Name = 
  3 active torsions:
  status: ('A' for Active; 'I' for Inactive)
    1  A    between atoms: C_3  and  C_9
    2  A    between atoms: C_3  and  C_22
    3  A    between atoms: C_15  and  N_23
                            x       y       z     vdW  Elec       q    Type
                         _______ _______ _______ _____ _____    ______ ____

>  <TORSDO>
F 3

$$$$
=
 OpenBabel10272400143D

 31 35  0  0  1  0  0  0  0  0999 V2000
  190.6230  177.0160  146.1400 C   0  0  0  0  0  0  0  0  0  0  0  0
  187.9730  177.7160  143.4690 C   0  0  0  0  0  0  0  0  0  0  0  0
  186.7670  178.0270  144.1700 C   0  0  0  0  0  0  0  0  0  0  0  0
  185.7250  177.9090  146.5850 C   0  0  0  0  0  3  0  0  0  0  0  0
  189.2170  177.2300  144.1580 C   0  0  0  0  0  0  0  0  0  0  0  0
  191.6100  176.3850  145.3830 C   0  0  0  0  0  3  0  0  0  0  0  0
  186.7170  177.7410  145.5740 N   0  0  0  0  0  2  0  0  0  0  0  0
  189.2870  177.5300  141.2960 C   0  0  2  0  0  3  0  0  0  0  0  0
  190.8650  177.2780  147.8530 Cl  0  0  0  0  0  0  0  0  0  0  0  0
  185.7820  178.7560  142.0720 C   0  0  0  0  0  3  0  0  0  0  0  0
  184.5110  178.4160  146.4340 C   0  0  0  0  0  3  0  0  0  0  0  0
  190.0550  176.3770  141.9390 C   0  0  0  0  0  2  0  0  0  0  0  0
  188.0220  177.8620  142.0610 C   0  0  0  0  0  0  0  0  0  0  0  0
  189.4400  177.4400  145.5300 C   0  0  0  0  0  3  0  0  0  0  0  0
  183.8810  178.9190  145.2190 C   0  0  0  0  0  3  0  0  0  0  0  0
  190.2390  176.6200  143.4010 C   0  0  0  0  0  0  0  0  0  0  0  0
  191.4180  176.1860  144.0160 C   0  0  0  0  0  3  0  0  0  0  0  0
  186.9350  178.4140  141.3860 C   0  0  0  0  0  3  0  0  0  0  0  0
  185.6700  178.5630  143.4480 C   0  0  0  0  0  0  0  0  0  0  0  0
  184.3690  178.9740  143.9870 C   0  0  0  0  0  3  0  0  0  0  0  0
  191.2600  177.2920  139.1730 O   0  0  0  0  0  0  0  0  0  0  0  0
  190.0440  177.1400  138.8800 C   0  0  0  0  0  0  0  0  0  0  0  0
  189.0290  177.2370  139.8860 N   0  0  0  0  0  2  0  0  0  0  0  0
  189.6550  176.8820  137.4650 C   0  0  0  0  0  2  0  0  0  0  0  0
  187.4710  173.8750  136.4940 C   0  0  1  0  0  3  0  0  0  0  0  0
  189.6660  173.4300  135.6790 C   0  0  0  0  0  2  0  0  0  0  0  0
  186.2600  173.2690  137.1700 C   0  0  0  0  0  1  0  0  0  0  0  0
  187.8430  175.1920  137.1870 C   0  0  0  0  0  2  0  0  0  0  0  0
  190.0330  174.8950  135.9740 C   0  0  0  0  0  2  0  0  0  0  0  0
  189.3570  175.4080  137.2470 C   0  0  1  0  0  3  0  0  0  0  0  0
  188.5840  172.9300  136.5340 N   0  0  0  0  0  2  0  0  0  0  0  0
  1  9  1  0  0  0  0
  2  5  1  0  0  0  0
  2  3  1  0  0  0  0
  3  7  1  0  0  0  0
  5 14  2  0  0  0  0
  6  1  2  0  0  0  0
  7  4  1  0  0  0  0
  8 23  1  6  0  0  0
  8 12  1  0  0  0  0
  8 13  1  0  0  0  0
 10 19  1  0  0  0  0
 11  4  2  0  0  0  0
 12 16  1  0  0  0  0
 13  2  2  0  0  0  0
 14  1  1  0  0  0  0
 15 11  1  0  0  0  0
 16 17  2  0  0  0  0
 16  5  1  0  0  0  0
 17  6  1  0  0  0  0
 18 13  1  0  0  0  0
 18 10  2  0  0  0  0
 19 20  1  0  0  0  0
 19  3  2  0  0  0  0
 20 15  2  0  0  0  0
 22 21  2  0  0  0  0
 22 23  1  0  0  0  0
 24 22  1  0  0  0  0
 25 31  1  0  0  0  0
 25 27  1  1  0  0  0
 25 28  1  0  0  0  0
 26 29  1  0  0  0  0
 26 31  1  0  0  0  0
 28 30  1  0  0  0  0
 29 30  1  0  0  0  0
 30 24  1  6  0  0  0
M  END
>  <MODEL>
6

>  <REMARK>
 VINA RESULT:      -9.9      1.364      1.961
  Name = 
  3 active torsions:
  status: ('A' for Active; 'I' for Inactive)
    1  A    between atoms: C_3  and  C_9
    2  A    between atoms: C_3  and  C_22
    3  A    between atoms: C_15  and  N_23
                            x       y       z     vdW  Elec       q    Type
                         _______ _______ _______ _____ _____    ______ ____

>  <TORSDO>
F 3

$$$$
=
 OpenBabel10272400143D

 31 35  0  0  1  0  0  0  0  0999 V2000
  182.6520  179.5410  139.3770 C   0  0  0  0  0  0  0  0  0  0  0  0
  186.1600  178.5040  140.4960 C   0  0  0  0  0  0  0  0  0  0  0  0
  186.9520  178.4160  139.3100 C   0  0  0  0  0  0  0  0  0  0  0  0
  186.6990  178.3680  136.6890 C   0  0  0  0  0  3  0  0  0  0  0  0
  184.6760  178.7360  140.4730 C   0  0  0  0  0  0  0  0  0  0  0  0
  181.9040  179.2430  140.5150 C   0  0  0  0  0  3  0  0  0  0  0  0
  186.2700  178.4280  138.0480 N   0  0  0  0  0  0  0  0  0  0  0  0
  185.9590  178.4470  143.0340 C   0  0  2  0  0  3  0  0  0  0  0  0
  181.8680  180.2240  137.9690 Cl  0  0  0  0  0  0  0  0  0  0  0  0
  188.9380  178.2180  140.6960 C   0  0  0  0  0  3  0  0  0  0  0  0
  187.9450  178.2760  136.2500 C   0  0  0  0  0  3  0  0  0  0  0  0
  184.5540  177.8790  142.8410 C   0  0  0  0  0  2  0  0  0  0  0  0
  186.7800  178.3650  141.7620 C   0  0  2  0  0  3  0  0  0  0  0  0
  184.0260  179.2950  139.3590 C   0  0  0  0  0  3  0  0  0  0  0  0
  189.1790  178.2090  137.0240 C   0  0  0  0  0  3  0  0  0  0  0  0
  183.9110  178.4700  141.6290 C   0  0  0  0  0  0  0  0  0  0  0  0
  182.5340  178.7070  141.6400 C   0  0  0  0  0  3  0  0  0  0  0  0
  188.1670  178.2600  141.8450 C   0  0  0  0  0  3  0  0  0  0  0  0
  188.3590  178.2820  139.4290 C   0  0  0  0  0  0  0  0  0  0  0  0
  189.3400  178.2100  138.3400 C   0  0  0  0  0  3  0  0  0  0  0  0
  185.9200  179.3090  145.8100 O   0  0  0  0  0  0  0  0  0  0  0  0
  186.5660  178.2670  145.5160 C   0  0  0  0  0  0  0  0  0  0  0  0
  186.6130  177.7910  144.1670 N   0  0  0  0  0  2  0  0  0  0  0  0
  187.3130  177.5390  146.5800 C   0  0  0  0  0  2  0  0  0  0  0  0
  190.8250  178.2120  145.1770 C   0  0  1  0  0  3  0  0  0  0  0  0
  191.0500  176.4980  146.8180 C   0  0  0  0  0  2  0  0  0  0  0  0
  191.2740  178.6750  143.8080 C   0  0  0  0  0  1  0  0  0  0  0  0
  189.2970  178.2990  145.2750 C   0  0  0  0  0  2  0  0  0  0  0  0
  189.6110  176.7960  147.2740 C   0  0  0  0  0  2  0  0  0  0  0  0
  188.7010  177.1530  146.0970 C   0  0  1  0  0  3  0  0  0  0  0  0
  191.2860  176.8450  145.4130 N   0  0  0  0  0  2  0  0  0  0  0  0
  1  6  1  0  0  0  0
  2 13  1  0  0  0  0
  3 19  1  0  0  0  0
  3  2  2  0  0  0  0
  4  7  2  0  0  0  0
  5  2  1  0  0  0  0
  5 16  2  0  0  0  0
  6 17  2  0  0  0  0
  7  3  1  0  0  0  0
  8 23  1  1  0  0  0
  9  1  1  0  0  0  0
 10 18  2  0  0  0  0
 11  4  1  0  0  0  0
 11 15  2  0  0  0  0
 12  8  1  0  0  0  0
 13 18  1  1  0  0  0
 13  8  1  0  0  0  0
 14  1  2  0  0  0  0
 14  5  1  0  0  0  0
 15 20  1  0  0  0  0
 16 17  1  0  0  0  0
 16 12  1  0  0  0  0
 19 10  1  0  0  0  0
 20 19  2  0  0  0  0
 22 21  2  0  0  0  0
 22 24  1  0  0  0  0
 23 22  1  0  0  0  0
 25 27  1  6  0  0  0
 25 28  1  0  0  0  0
 25 31  1  0  0  0  0
 26 29  1  0  0  0  0
 28 30  1  0  0  0  0
 30 24  1  1  0  0  0
 30 29  1  0  0  0  0
 31 26  1  0  0  0  0
M  END
>  <MODEL>
7

>  <REMARK>
 VINA RESULT:      -9.7      3.390      7.919
  Name = 
  3 active torsions:
  status: ('A' for Active; 'I' for Inactive)
    1  A    between atoms: C_3  and  C_9
    2  A    between atoms: C_3  and  C_22
    3  A    between atoms: C_15  and  N_23
                            x       y       z     vdW  Elec       q    Type
                         _______ _______ _______ _____ _____    ______ ____

>  <TORSDO>
F 3

$$$$
=
 OpenBabel10272400143D

 31 35  0  0  1  0  0  0  0  0999 V2000
  190.8370  177.2080  144.3990 C   0  0  0  0  0  0  0  0  0  0  0  0
  187.5230  178.0750  142.6950 C   0  0  0  0  0  0  0  0  0  0  0  0
  186.5580  178.2200  143.7400 C   0  0  0  0  0  0  0  0  0  0  0  0
  186.2480  177.7330  146.3090 C   0  0  0  0  0  3  0  0  0  0  0  0
  188.9220  177.5840  142.9370 C   0  0  0  0  0  0  0  0  0  0  0  0
  191.5840  176.7400  143.3190 C   0  0  0  0  0  3  0  0  0  0  0  0
  186.9160  177.7560  145.0480 N   0  0  0  0  0  2  0  0  0  0  0  0
  188.1700  178.2470  140.2380 C   0  0  2  0  0  3  0  0  0  0  0  0
  191.5490  177.2650  145.9970 Cl  0  0  0  0  0  0  0  0  0  0  0  0
  185.0010  179.1450  142.1210 C   0  0  0  0  0  3  0  0  0  0  0  0
  185.0290  178.1790  146.5730 C   0  0  0  0  0  3  0  0  0  0  0  0
  189.1150  177.0710  140.4750 C   0  0  0  0  0  2  0  0  0  0  0  0
  187.1660  178.4000  141.3630 C   0  0  0  0  0  0  0  0  0  0  0  0
  189.5200  177.6320  144.2070 C   0  0  0  0  0  3  0  0  0  0  0  0
  184.0690  178.7920  145.6630 C   0  0  0  0  0  3  0  0  0  0  0  0
  189.7020  177.1380  141.8470 C   0  0  0  0  0  0  0  0  0  0  0  0
  191.0160  176.7040  142.0440 C   0  0  0  0  0  3  0  0  0  0  0  0
  185.9200  178.9650  141.1000 C   0  0  0  0  0  3  0  0  0  0  0  0
  185.2890  178.7730  143.4330 C   0  0  0  0  0  0  0  0  0  0  0  0
  184.1850  179.0320  144.3640 C   0  0  0  0  0  3  0  0  0  0  0  0
  188.9810  179.5410  137.7640 O   0  0  0  0  0  0  0  0  0  0  0  0
  187.9690  178.7890  137.7420 C   0  0  0  0  0  0  0  0  0  0  0  0
  187.5290  178.1190  138.9290 N   0  0  0  0  0  2  0  0  0  0  0  0
  187.2060  178.6170  136.4740 C   0  0  0  0  0  2  0  0  0  0  0  0
  184.2850  176.1260  136.3570 C   0  0  1  0  0  3  0  0  0  0  0  0
  185.9640  175.2960  134.8830 C   0  0  0  0  0  2  0  0  0  0  0  0
  183.2670  175.7400  137.4090 C   0  0  0  0  0  1  0  0  0  0  0  0
  185.1110  177.3190  136.8520 C   0  0  0  0  0  2  0  0  0  0  0  0
  186.6850  176.6510  134.9990 C   0  0  0  0  0  2  0  0  0  0  0  0
  186.5740  177.2370  136.4090 C   0  0  1  0  0  3  0  0  0  0  0  0
  185.1450  174.9830  136.0590 N   0  0  0  0  0  2  0  0  0  0  0  0
  1  9  1  0  0  0  0
  2  5  1  0  0  0  0
  2  3  1  0  0  0  0
  3  7  1  0  0  0  0
  4 11  2  0  0  0  0
  5 14  2  0  0  0  0
  6  1  2  0  0  0  0
  7  4  1  0  0  0  0
  8 23  1  6  0  0  0
  8 12  1  0  0  0  0
  8 13  1  0  0  0  0
 10 19  1  0  0  0  0
 12 16  1  0  0  0  0
 13  2  2  0  0  0  0
 14  1  1  0  0  0  0
 15 11  1  0  0  0  0
 16 17  2  0  0  0  0
 16  5  1  0  0  0  0
 17  6  1  0  0  0  0
 18 13  1  0  0  0  0
 18 10  2  0  0  0  0
 19  3  2  0  0  0  0
 19 20  1  0  0  0  0
 20 15  2  0  0  0  0
 22 21  2  0  0  0  0
 22 23  1  0  0  0  0
 24 22  1  0  0  0  0
 25 28  1  0  0  0  0
 25 27  1  1  0  0  0
 26 29  1  0  0  0  0
 26 31  1  0  0  0  0
 29 30  1  0  0  0  0
 30 24  1  6  0  0  0
 30 28  1  0  0  0  0
 31 25  1  0  0  0  0
M  END
>  <MODEL>
8

>  <REMARK>
 VINA RESULT:      -9.6      2.163      3.158
  Name = 
  3 active torsions:
  status: ('A' for Active; 'I' for Inactive)
    1  A    between atoms: C_3  and  C_9
    2  A    between atoms: C_3  and  C_22
    3  A    between atoms: C_15  and  N_23
                            x       y       z     vdW  Elec       q    Type
                         _______ _______ _______ _____ _____    ______ ____

>  <TORSDO>
F 3

$$$$
=
 OpenBabel10272400143D

 31 35  0  0  1  0  0  0  0  0999 V2000
  184.8700  177.6520  137.5630 C   0  0  0  0  0  0  0  0  0  0  0  0
  185.6160  178.2880  141.2620 C   0  0  0  0  0  0  0  0  0  0  0  0
  184.3560  178.5210  141.8930 C   0  0  0  0  0  0  0  0  0  0  0  0
  181.8380  179.0090  141.2980 C   0  0  0  0  0  3  0  0  0  0  0  0
  185.7720  178.1490  139.7740 C   0  0  0  0  0  0  0  0  0  0  0  0
  186.1370  177.8050  137.0010 C   0  0  0  0  0  3  0  0  0  0  0  0
  183.2190  178.7530  141.0500 N   0  0  0  0  0  0  0  0  0  0  0  0
  188.1350  177.9440  141.4050 C   0  0  2  0  0  3  0  0  0  0  0  0
  183.5020  177.2540  136.5470 Cl  0  0  0  0  0  0  0  0  0  0  0  0
  185.4550  178.3750  144.0550 C   0  0  0  0  0  3  0  0  0  0  0  0
  181.2420  179.0980  142.4780 C   0  0  0  0  0  3  0  0  0  0  0  0
  188.2360  178.6160  140.0370 C   0  0  0  0  0  2  0  0  0  0  0  0
  186.7860  178.1830  142.0530 C   0  0  2  0  0  3  0  0  0  0  0  0
  184.6920  177.8170  138.9390 C   0  0  0  0  0  3  0  0  0  0  0  0
  181.8310  178.9670  143.8050 C   0  0  0  0  0  3  0  0  0  0  0  0
  187.0540  178.2680  139.1940 C   0  0  0  0  0  0  0  0  0  0  0  0
  187.2270  178.1130  137.8150 C   0  0  0  0  0  3  0  0  0  0  0  0
  186.6840  178.1920  143.4430 C   0  0  0  0  0  3  0  0  0  0  0  0
  184.2900  178.5520  143.3090 C   0  0  0  0  0  0  0  0  0  0  0  0
  183.0950  178.7430  144.1390 C   0  0  0  0  0  3  0  0  0  0  0  0
  190.2550  176.2640  142.4730 O   0  0  0  0  0  0  0  0  0  0  0  0
  190.2630  177.4910  142.7600 C   0  0  0  0  0  0  0  0  0  0  0  0
  189.2490  178.3680  142.2550 N   0  0  0  0  0  2  0  0  0  0  0  0
  191.3220  178.0310  143.6570 C   0  0  0  0  0  2  0  0  0  0  0  0
  188.9790  177.0880  146.5510 C   0  0  1  0  0  3  0  0  0  0  0  0
  191.1600  176.3390  147.1520 C   0  0  0  0  0  2  0  0  0  0  0  0
  187.7180  177.7510  147.0630 C   0  0  0  0  0  1  0  0  0  0  0  0
  189.4160  177.7550  145.2410 C   0  0  0  0  0  2  0  0  0  0  0  0
  191.6110  176.6040  145.7050 C   0  0  0  0  0  2  0  0  0  0  0  0
  190.9390  177.8460  145.1160 C   0  0  1  0  0  3  0  0  0  0  0  0
  190.0310  177.1810  147.5610 N   0  0  0  0  0  2  0  0  0  0  0  0
  1 14  1  0  0  0  0
  2  3  2  0  0  0  0
  2 13  1  0  0  0  0
  3 19  1  0  0  0  0
  4 11  1  0  0  0  0
  5  2  1  0  0  0  0
  6  1  2  0  0  0  0
  6 17  1  0  0  0  0
  7  4  2  0  0  0  0
  7  3  1  0  0  0  0
  8 13  1  0  0  0  0
  8 23  1  1  0  0  0
  9  1  1  0  0  0  0
 11 15  2  0  0  0  0
 12  8  1  0  0  0  0
 13 18  1  1  0  0  0
 14  5  2  0  0  0  0
 15 20  1  0  0  0  0
 16  5  1  0  0  0  0
 16 12  1  0  0  0  0
 17 16  2  0  0  0  0
 18 10  2  0  0  0  0
 19 10  1  0  0  0  0
 19 20  2  0  0  0  0
 21 22  2  0  0  0  0
 22 24  1  0  0  0  0
 23 22  1  0  0  0  0
 25 27  1  1  0  0  0
 25 31  1  0  0  0  0
 26 31  1  0  0  0  0
 28 25  1  0  0  0  0
 29 26  1  0  0  0  0
 30 24  1  6  0  0  0
 30 28  1  0  0  0  0
 30 29  1  0  0  0  0
M  END
>  <MODEL>
9

>  <REMARK>
 VINA RESULT:      -9.5      3.360      6.885
  Name = 
  3 active torsions:
  status: ('A' for Active; 'I' for Inactive)
    1  A    between atoms: C_3  and  C_9
    2  A    between atoms: C_3  and  C_22
    3  A    between atoms: C_15  and  N_23
                            x       y       z     vdW  Elec       q    Type
                         _______ _______ _______ _____ _____    ______ ____

>  <TORSDO>
F 3

$$$$
