=
 OpenBabel10272402073D

 32 38  0  0  1  0  0  0  0  0999 V2000
  182.5850  177.3420  138.7060 C   0  0  1  0  0  3  0  0  0  0  0  0
  183.5760  173.1970  137.0460 C   0  0  0  0  0  3  0  0  0  0  0  0
  182.8620  177.6730  137.2170 C   0  0  1  0  0  3  0  0  0  0  0  0
  184.7360  178.3540  139.5060 C   0  0  2  0  0  3  0  0  0  0  0  0
  184.8110  175.3210  134.3460 C   0  0  0  0  0  2  0  0  0  0  0  0
  184.3070  178.1860  136.9060 C   0  0  1  0  0  3  0  0  0  0  0  0
  186.5900  175.2340  136.2030 C   0  0  0  0  0  2  0  0  0  0  0  0
  185.5990  176.1470  136.9400 C   0  0  2  0  0  0  0  0  0  0  0  0
  185.3030  178.2570  138.0900 C   0  0  2  0  0  3  0  0  0  0  0  0
  181.4610  172.9850  135.9170 C   0  0  0  0  0  3  0  0  0  0  0  0
  182.3420  175.2170  136.4190 C   0  0  0  0  0  0  0  0  0  0  0  0
  186.2490  177.0420  137.9730 C   0  0  0  0  0  2  0  0  0  0  0  0
  183.2170  178.4140  139.6010 C   0  0  2  0  0  3  0  0  0  0  0  0
  182.5810  172.3900  136.4920 C   0  0  0  0  0  0  0  0  0  0  0  0
  181.3570  174.3740  135.8670 C   0  0  0  0  0  3  0  0  0  0  0  0
  183.4880  174.5920  137.0010 C   0  0  0  0  0  0  0  0  0  0  0  0
  184.5670  175.3200  137.7350 C   0  0  0  0  0  2  0  0  0  0  0  0
  182.8800  176.9430  134.7420 C   0  0  0  0  0  2  0  0  0  0  0  0
  185.3000  179.4580  140.1480 O   0  0  0  0  0  1  0  0  0  0  0  0
  182.2320  176.7250  136.1210 C   0  0  2  0  0  0  0  0  0  0  0  0
  185.0380  177.2110  136.0200 C   0  0  1  0  0  3  0  0  0  0  0  0
  182.8380  178.2150  141.0640 C   0  0  0  0  0  1  0  0  0  0  0  0
  186.2860  175.0750  134.6950 C   0  0  0  0  0  2  0  0  0  0  0  0
  184.3890  176.7470  134.7240 C   0  0  1  0  0  3  0  0  0  0  0  0
  183.9950  170.4930  136.2760 O   0  0  0  0  0  0  0  0  0  0  0  0
  183.0380  170.3190  135.2630 C   0  0  0  0  0  2  0  0  0  0  0  0
  182.6810  170.9000  136.5780 C   0  0  2  0  0  3  0  0  0  0  0  0
  180.7980  177.1780  139.0670 S   0  0  0  0  0  0  0  0  0  0  0  0
  180.9980  175.4700  139.6420 C   0  0  0  0  0  1  0  0  0  0  0  0
  180.4650  177.2150  135.8780 S   0  0  0  0  0  0  0  0  0  0  0  0
  180.7760  178.5980  134.7340 C   0  0  0  0  0  2  0  0  0  0  0  0
  180.6400  179.9080  135.4800 C   0  0  0  0  0  1  0  0  0  0  0  0
  1 28  1  6  0  0  0
  1 13  1  0  0  0  0
  3  1  1  0  0  0  0
  4 13  1  0  0  0  0
  4 19  1  0  0  0  0
  5 23  1  0  0  0  0
  5 24  1  0  0  0  0
  6  3  1  0  0  0  0
  6  9  1  0  0  0  0
  7  8  1  0  0  0  0
  8 17  1  0  0  0  0
  8 12  1  0  0  0  0
  9  4  1  0  0  0  0
 10 14  1  0  0  0  0
 11 16  2  0  0  0  0
 12  9  1  0  0  0  0
 13 22  1  0  0  0  0
 14 27  1  0  0  0  0
 14  2  2  0  0  0  0
 15 10  2  0  0  0  0
 15 11  1  0  0  0  0
 16  2  1  0  0  0  0
 16 17  1  0  0  0  0
 18 20  1  0  0  0  0
 20 11  1  0  0  0  0
 20  3  1  0  0  0  0
 21  6  1  0  0  0  0
 21  8  1  0  0  0  0
 23  7  1  0  0  0  0
 24 18  1  0  0  0  0
 24 21  1  0  0  0  0
 25 27  1  0  0  0  0
 26 25  1  0  0  0  0
 26 27  1  0  0  0  0
 28 29  1  0  0  0  0
 30 20  1  0  0  0  0
 31 32  1  0  0  0  0
 31 30  1  0  0  0  0
M  END
>  <MODEL>
1

>  <REMARK>
 VINA RESULT:      -3.8      0.000      0.000
  Name = 
  4 active torsions:
  status: ('A' for Active; 'I' for Inactive)
    1  A    between atoms: S_1  and  C_4
    2  A    between atoms: S_1  and  C_27
    3  A    between atoms: C_2  and  S_14
    4  A    between atoms: C_19  and  C_26
                            x       y       z     vdW  Elec       q    Type
                         _______ _______ _______ _____ _____    ______ ____

>  <TORSDO>
F 4

$$$$
=
 OpenBabel10272402073D

 32 38  0  0  1  0  0  0  0  0999 V2000
  187.4120  173.7320  136.4190 C   0  0  1  0  0  3  0  0  0  0  0  0
  188.6650  176.9310  139.4380 C   0  0  0  0  0  3  0  0  0  0  0  0
  188.0820  174.7760  135.4890 C   0  0  1  0  0  3  0  0  0  0  0  0
  185.0890  174.2990  135.6590 C   0  0  2  0  0  3  0  0  0  0  0  0
  189.0010  178.7830  136.3110 C   0  0  0  0  0  2  0  0  0  0  0  0
  187.1000  175.7700  134.7850 C   0  0  1  0  0  3  0  0  0  0  0  0
  186.5250  178.7930  137.0100 C   0  0  0  0  0  2  0  0  0  0  0  0
  186.5820  177.3270  136.5560 C   0  0  2  0  0  0  0  0  0  0  0  0
  185.5950  175.6390  135.1280 C   0  0  2  0  0  3  0  0  0  0  0  0
  190.9920  176.3230  139.3330 C   0  0  0  0  0  3  0  0  0  0  0  0
  189.5230  175.8070  137.4390 C   0  0  0  0  0  0  0  0  0  0  0  0
  185.2440  176.7750  136.1130 C   0  0  0  0  0  2  0  0  0  0  0  0
  186.1350  173.1970  135.7600 C   0  0  2  0  0  3  0  0  0  0  0  0
  189.9320  176.9060  140.0230 C   0  0  0  0  0  0  0  0  0  0  0  0
  190.7900  175.8010  138.0560 C   0  0  0  0  0  3  0  0  0  0  0  0
  188.4470  176.4130  138.1570 C   0  0  0  0  0  0  0  0  0  0  0  0
  187.0210  176.4030  137.7110 C   0  0  0  0  0  2  0  0  0  0  0  0
  189.8100  176.6610  135.1430 C   0  0  0  0  0  2  0  0  0  0  0  0
  184.0170  173.8730  134.8730 O   0  0  0  0  0  1  0  0  0  0  0  0
  189.4580  175.4010  135.9540 C   0  0  2  0  0  0  0  0  0  0  0  0
  187.3440  177.1810  135.2550 C   0  0  1  0  0  3  0  0  0  0  0  0
  185.5270  172.0550  136.5660 C   0  0  0  0  0  1  0  0  0  0  0  0
  187.7450  179.6300  136.5640 C   0  0  0  0  0  2  0  0  0  0  0  0
  188.7530  177.7550  135.2000 C   0  0  1  0  0  3  0  0  0  0  0  0
  191.3360  176.9260  141.9390 O   0  0  0  0  0  0  0  0  0  0  0  0
  190.1470  176.3370  142.3980 C   0  0  0  0  0  2  0  0  0  0  0  0
  190.1370  177.4380  141.4060 C   0  0  2  0  0  3  0  0  0  0  0  0
  188.5350  172.3540  136.8510 S   0  0  0  0  0  0  0  0  0  0  0  0
  188.4580  171.6700  135.1730 C   0  0  0  0  0  1  0  0  0  0  0  0
  190.8050  174.2030  135.5440 S   0  0  0  0  0  0  0  0  0  0  0  0
  191.8460  175.3590  134.5950 C   0  0  0  0  0  2  0  0  0  0  0  0
  193.2330  175.4000  135.1990 C   0  0  0  0  0  1  0  0  0  0  0  0
  1 28  1  6  0  0  0
  2 14  1  0  0  0  0
  3 20  1  0  0  0  0
  3  1  1  0  0  0  0
  4 13  1  0  0  0  0
  5 23  1  0  0  0  0
  6  9  1  0  0  0  0
  6 21  1  0  0  0  0
  6  3  1  0  0  0  0
  8  7  1  0  0  0  0
  8 17  1  0  0  0  0
  9  4  1  0  0  0  0
  9 12  1  0  0  0  0
 10 14  2  0  0  0  0
 11 15  2  0  0  0  0
 11 16  1  0  0  0  0
 12  8  1  0  0  0  0
 13  1  1  0  0  0  0
 13 22  1  0  0  0  0
 14 27  1  0  0  0  0
 15 10  1  0  0  0  0
 16  2  2  0  0  0  0
 17 16  1  0  0  0  0
 18 24  1  0  0  0  0
 18 20  1  0  0  0  0
 19  4  1  0  0  0  0
 20 11  1  0  0  0  0
 21  8  1  0  0  0  0
 23  7  1  0  0  0  0
 24 21  1  0  0  0  0
 24  5  1  0  0  0  0
 25 26  1  0  0  0  0
 27 25  1  0  0  0  0
 27 26  1  0  0  0  0
 29 28  1  0  0  0  0
 30 20  1  0  0  0  0
 31 32  1  0  0  0  0
 31 30  1  0  0  0  0
M  END
>  <MODEL>
2

>  <REMARK>
 VINA RESULT:      -3.6      4.314      7.816
  Name = 
  4 active torsions:
  status: ('A' for Active; 'I' for Inactive)
    1  A    between atoms: S_1  and  C_4
    2  A    between atoms: S_1  and  C_27
    3  A    between atoms: C_2  and  S_14
    4  A    between atoms: C_19  and  C_26
                            x       y       z     vdW  Elec       q    Type
                         _______ _______ _______ _____ _____    ______ ____

>  <TORSDO>
F 4

$$$$
=
 OpenBabel10272402073D

 32 38  0  0  1  0  0  0  0  0999 V2000
  186.7490  174.5020  136.8550 C   0  0  1  0  0  3  0  0  0  0  0  0
  183.2680  176.6220  138.9320 C   0  0  0  0  0  3  0  0  0  0  0  0
  186.2220  175.4050  135.7100 C   0  0  1  0  0  3  0  0  0  0  0  0
  185.8360  172.3980  135.8400 C   0  0  2  0  0  3  0  0  0  0  0  0
  182.5280  177.3700  135.4370 C   0  0  0  0  0  2  0  0  0  0  0  0
  185.2470  174.7080  134.7040 C   0  0  1  0  0  3  0  0  0  0  0  0
  181.6780  175.0000  135.9680 C   0  0  0  0  0  2  0  0  0  0  0  0
  183.1740  174.6580  135.9420 C   0  0  2  0  0  0  0  0  0  0  0  0
  184.8800  173.2290  134.9860 C   0  0  2  0  0  3  0  0  0  0  0  0
  184.4640  178.7020  139.1280 C   0  0  0  0  0  3  0  0  0  0  0  0
  185.0940  177.1090  137.3730 C   0  0  0  0  0  0  0  0  0  0  0  0
  183.4620  173.2120  135.5960 C   0  0  0  0  0  2  0  0  0  0  0  0
  187.0970  173.1160  136.3010 C   0  0  2  0  0  3  0  0  0  0  0  0
  183.4550  177.8490  139.5690 C   0  0  0  0  0  0  0  0  0  0  0  0
  185.2540  178.3420  138.0380 C   0  0  0  0  0  3  0  0  0  0  0  0
  184.0510  176.2470  137.8350 C   0  0  0  0  0  0  0  0  0  0  0  0
  183.8150  174.8600  137.3310 C   0  0  0  0  0  2  0  0  0  0  0  0
  185.0270  177.5630  134.9510 C   0  0  0  0  0  2  0  0  0  0  0  0
  186.1730  171.2340  135.1450 O   0  0  0  0  0  1  0  0  0  0  0  0
  185.8710  176.9070  136.0580 C   0  0  2  0  0  0  0  0  0  0  0  0
  183.8750  175.3260  134.7770 C   0  0  1  0  0  3  0  0  0  0  0  0
  187.7660  172.2440  137.3570 C   0  0  0  0  0  1  0  0  0  0  0  0
  181.3480  176.3900  135.3740 C   0  0  0  0  0  2  0  0  0  0  0  0
  183.7270  176.8350  134.6430 C   0  0  1  0  0  3  0  0  0  0  0  0
  181.3060  177.7620  140.5790 O   0  0  0  0  0  0  0  0  0  0  0  0
  181.5290  179.1340  140.3750 C   0  0  0  0  0  2  0  0  0  0  0  0
  182.6270  178.2170  140.7600 C   0  0  2  0  0  3  0  0  0  0  0  0
  188.1910  175.2300  137.7140 S   0  0  0  0  0  0  0  0  0  0  0  0
  189.3350  174.6590  136.4280 C   0  0  0  0  0  1  0  0  0  0  0  0
  187.4430  177.8800  136.0730 S   0  0  0  0  0  0  0  0  0  0  0  0
  187.9960  177.4290  134.3960 C   0  0  0  0  0  2  0  0  0  0  0  0
  189.5080  177.4220  134.3490 C   0  0  0  0  0  1  0  0  0  0  0  0
  1 28  1  6  0  0  0
  2 14  1  0  0  0  0
  3 20  1  0  0  0  0
  3  1  1  0  0  0  0
  4 13  1  0  0  0  0
  6 21  1  0  0  0  0
  6  9  1  0  0  0  0
  6  3  1  0  0  0  0
  8  7  1  0  0  0  0
  8 17  1  0  0  0  0
  9 12  1  0  0  0  0
  9  4  1  0  0  0  0
 10 14  2  0  0  0  0
 11 16  1  0  0  0  0
 11 15  2  0  0  0  0
 12  8  1  0  0  0  0
 13  1  1  0  0  0  0
 13 22  1  0  0  0  0
 14 27  1  0  0  0  0
 15 10  1  0  0  0  0
 16  2  2  0  0  0  0
 17 16  1  0  0  0  0
 18 20  1  0  0  0  0
 19  4  1  0  0  0  0
 20 30  1  0  0  0  0
 20 11  1  0  0  0  0
 21  8  1  0  0  0  0
 23  5  1  0  0  0  0
 23  7  1  0  0  0  0
 24 21  1  0  0  0  0
 24 18  1  0  0  0  0
 24  5  1  0  0  0  0
 25 27  1  0  0  0  0
 26 25  1  0  0  0  0
 26 27  1  0  0  0  0
 29 28  1  0  0  0  0
 31 30  1  0  0  0  0
 32 31  1  0  0  0  0
M  END
>  <MODEL>
3

>  <REMARK>
 VINA RESULT:      -3.5      2.594      6.227
  Name = 
  4 active torsions:
  status: ('A' for Active; 'I' for Inactive)
    1  A    between atoms: S_1  and  C_4
    2  A    between atoms: S_1  and  C_27
    3  A    between atoms: C_2  and  S_14
    4  A    between atoms: C_19  and  C_26
                            x       y       z     vdW  Elec       q    Type
                         _______ _______ _______ _____ _____    ______ ____

>  <TORSDO>
F 4

$$$$
=
 OpenBabel10272402073D

 32 38  0  0  1  0  0  0  0  0999 V2000
  183.8530  178.1520  138.8000 C   0  0  1  0  0  3  0  0  0  0  0  0
  182.1790  174.0360  137.7150 C   0  0  0  0  0  3  0  0  0  0  0  0
  183.7640  178.2620  137.2560 C   0  0  1  0  0  3  0  0  0  0  0  0
  186.3540  177.9560  138.8090 C   0  0  2  0  0  3  0  0  0  0  0  0
  183.3390  175.1770  134.4480 C   0  0  0  0  0  2  0  0  0  0  0  0
  185.0950  177.9650  136.4880 C   0  0  1  0  0  3  0  0  0  0  0  0
  185.3510  174.2480  135.7560 C   0  0  0  0  0  2  0  0  0  0  0  0
  185.2030  175.5540  136.5490 C   0  0  2  0  0  0  0  0  0  0  0  0
  186.3230  177.5510  137.3360 C   0  0  2  0  0  3  0  0  0  0  0  0
  179.9820  174.8960  137.2400 C   0  0  0  0  0  3  0  0  0  0  0  0
  181.9220  176.3870  137.0800 C   0  0  0  0  0  0  0  0  0  0  0  0
  186.4890  176.0230  137.1960 C   0  0  0  0  0  2  0  0  0  0  0  0
  185.1650  178.7780  139.2880 C   0  0  2  0  0  3  0  0  0  0  0  0
  180.8040  173.8300  137.5980 C   0  0  0  0  0  0  0  0  0  0  0  0
  180.5370  176.1450  136.9690 C   0  0  0  0  0  3  0  0  0  0  0  0
  182.7520  175.2830  137.4440 C   0  0  0  0  0  0  0  0  0  0  0  0
  184.2170  175.3830  137.7240 C   0  0  0  0  0  2  0  0  0  0  0  0
  182.6460  177.5630  135.0380 C   0  0  0  0  0  2  0  0  0  0  0  0
  187.5440  178.6380  139.0690 O   0  0  0  0  0  1  0  0  0  0  0  0
  182.4490  177.7360  136.5540 C   0  0  2  0  0  0  0  0  0  0  0  0
  184.9530  176.7340  135.6330 C   0  0  1  0  0  3  0  0  0  0  0  0
  185.2250  178.8340  140.8100 C   0  0  0  0  0  1  0  0  0  0  0  0
  184.5460  174.2280  134.4360 C   0  0  0  0  0  2  0  0  0  0  0  0
  183.7870  176.6300  134.6590 C   0  0  1  0  0  3  0  0  0  0  0  0
  181.0900  171.4730  137.5270 O   0  0  0  0  0  0  0  0  0  0  0  0
  179.9860  171.7050  136.6910 C   0  0  0  0  0  2  0  0  0  0  0  0
  180.2080  172.4970  137.9230 C   0  0  2  0  0  3  0  0  0  0  0  0
  182.4230  178.9230  139.6410 S   0  0  0  0  0  0  0  0  0  0  0  0
  181.7180  177.3100  140.0760 C   0  0  0  0  0  1  0  0  0  0  0  0
  181.1510  179.0460  136.7010 S   0  0  0  0  0  0  0  0  0  0  0  0
  180.9060  179.3120  134.9150 C   0  0  0  0  0  2  0  0  0  0  0  0
  180.6910  180.7860  134.6500 C   0  0  0  0  0  1  0  0  0  0  0  0
  1 13  1  0  0  0  0
  1 28  1  1  0  0  0
  3  1  1  0  0  0  0
  4 19  1  0  0  0  0
  4 13  1  0  0  0  0
  5 24  1  0  0  0  0
  6  3  1  0  0  0  0
  6  9  1  0  0  0  0
  7  8  1  0  0  0  0
  8 12  1  0  0  0  0
  8 17  1  0  0  0  0
  9  4  1  0  0  0  0
 10 14  2  0  0  0  0
 11 16  1  0  0  0  0
 12  9  1  0  0  0  0
 13 22  1  0  0  0  0
 14  2  1  0  0  0  0
 14 27  1  0  0  0  0
 15 11  2  0  0  0  0
 15 10  1  0  0  0  0
 16  2  2  0  0  0  0
 16 17  1  0  0  0  0
 18 20  1  0  0  0  0
 20 30  1  0  0  0  0
 20 11  1  0  0  0  0
 20  3  1  0  0  0  0
 21  6  1  0  0  0  0
 21  8  1  0  0  0  0
 23  5  1  0  0  0  0
 23  7  1  0  0  0  0
 24 18  1  0  0  0  0
 24 21  1  0  0  0  0
 25 27  1  0  0  0  0
 26 25  1  0  0  0  0
 26 27  1  0  0  0  0
 28 29  1  0  0  0  0
 31 30  1  0  0  0  0
 32 31  1  0  0  0  0
M  END
>  <MODEL>
4

>  <REMARK>
 VINA RESULT:      -3.5      1.691      1.913
  Name = 
  4 active torsions:
  status: ('A' for Active; 'I' for Inactive)
    1  A    between atoms: S_1  and  C_4
    2  A    between atoms: S_1  and  C_27
    3  A    between atoms: C_2  and  S_14
    4  A    between atoms: C_19  and  C_26
                            x       y       z     vdW  Elec       q    Type
                         _______ _______ _______ _____ _____    ______ ____

>  <TORSDO>
F 4

$$$$
=
 OpenBabel10272402073D

 32 38  0  0  1  0  0  0  0  0999 V2000
  183.9480  176.9200  137.9360 C   0  0  1  0  0  3  0  0  0  0  0  0
  186.8580  173.6470  136.6160 C   0  0  0  0  0  3  0  0  0  0  0  0
  184.5640  177.5600  136.6650 C   0  0  1  0  0  3  0  0  0  0  0  0
  185.1940  178.4310  139.5030 C   0  0  2  0  0  3  0  0  0  0  0  0
  188.0620  176.4640  134.6320 C   0  0  0  0  0  2  0  0  0  0  0  0
  185.7420  178.5570  136.9240 C   0  0  1  0  0  3  0  0  0  0  0  0
  189.0300  176.6590  137.0080 C   0  0  0  0  0  2  0  0  0  0  0  0
  187.5930  177.0690  137.3600 C   0  0  2  0  0  0  0  0  0  0  0  0
  186.1920  178.7530  138.3930 C   0  0  2  0  0  3  0  0  0  0  0  0
  185.4640  172.9470  134.7820 C   0  0  0  0  0  3  0  0  0  0  0  0
  185.2610  175.2320  135.6490 C   0  0  0  0  0  0  0  0  0  0  0  0
  187.4940  177.9470  138.5900 C   0  0  0  0  0  2  0  0  0  0  0  0
  183.8170  177.9780  139.0360 C   0  0  2  0  0  3  0  0  0  0  0  0
  186.4650  172.6620  135.7090 C   0  0  0  0  0  0  0  0  0  0  0  0
  184.8890  174.2160  134.7450 C   0  0  0  0  0  3  0  0  0  0  0  0
  186.2920  174.9260  136.5890 C   0  0  0  0  0  0  0  0  0  0  0  0
  186.7280  175.8350  137.6920 C   0  0  0  0  0  2  0  0  0  0  0  0
  185.6620  177.2860  134.3460 C   0  0  0  0  0  2  0  0  0  0  0  0
  185.0750  179.5390  140.3450 O   0  0  0  0  0  1  0  0  0  0  0  0
  184.7190  176.6490  135.3820 C   0  0  2  0  0  0  0  0  0  0  0  0
  187.0240  178.0290  136.3350 C   0  0  1  0  0  3  0  0  0  0  0  0
  183.0730  177.4330  140.2500 C   0  0  0  0  0  1  0  0  0  0  0  0
  189.3210  176.6570  135.4900 C   0  0  0  0  0  2  0  0  0  0  0  0
  187.0550  177.5950  134.8760 C   0  0  1  0  0  3  0  0  0  0  0  0
  188.4650  171.3860  135.8260 O   0  0  0  0  0  0  0  0  0  0  0  0
  187.9080  171.0280  134.5870 C   0  0  0  0  0  2  0  0  0  0  0  0
  187.0610  171.2920  135.7740 C   0  0  2  0  0  3  0  0  0  0  0  0
  182.3300  176.1300  137.6100 S   0  0  0  0  0  0  0  0  0  0  0  0
  182.9630  174.4880  138.0510 C   0  0  0  0  0  1  0  0  0  0  0  0
  183.0820  176.5720  134.5250 S   0  0  0  0  0  0  0  0  0  0  0  0
  182.8070  178.3700  134.4170 C   0  0  0  0  0  2  0  0  0  0  0  0
  181.3210  178.6490  134.3520 C   0  0  0  0  0  1  0  0  0  0  0  0
  1 28  1  6  0  0  0
  1 13  1  0  0  0  0
  3  6  1  0  0  0  0
  3  1  1  0  0  0  0
  4 19  1  0  0  0  0
  5 24  1  0  0  0  0
  5 23  1  0  0  0  0
  6  9  1  0  0  0  0
  7  8  1  0  0  0  0
  8 17  1  0  0  0  0
  8 12  1  0  0  0  0
  9 12  1  0  0  0  0
  9  4  1  0  0  0  0
 10 14  1  0  0  0  0
 11 16  2  0  0  0  0
 13  4  1  0  0  0  0
 13 22  1  0  0  0  0
 14 27  1  0  0  0  0
 14  2  2  0  0  0  0
 15 10  2  0  0  0  0
 15 11  1  0  0  0  0
 16  2  1  0  0  0  0
 16 17  1  0  0  0  0
 18 24  1  0  0  0  0
 18 20  1  0  0  0  0
 20 11  1  0  0  0  0
 20  3  1  0  0  0  0
 21  6  1  0  0  0  0
 21  8  1  0  0  0  0
 23  7  1  0  0  0  0
 24 21  1  0  0  0  0
 26 27  1  0  0  0  0
 26 25  1  0  0  0  0
 27 25  1  0  0  0  0
 28 29  1  0  0  0  0
 30 20  1  0  0  0  0
 31 30  1  0  0  0  0
 32 31  1  0  0  0  0
M  END
>  <MODEL>
5

>  <REMARK>
 VINA RESULT:      -3.4      2.121      2.824
  Name = 
  4 active torsions:
  status: ('A' for Active; 'I' for Inactive)
    1  A    between atoms: S_1  and  C_4
    2  A    between atoms: S_1  and  C_27
    3  A    between atoms: C_2  and  S_14
    4  A    between atoms: C_19  and  C_26
                            x       y       z     vdW  Elec       q    Type
                         _______ _______ _______ _____ _____    ______ ____

>  <TORSDO>
F 4

$$$$
=
 OpenBabel10272402073D

 32 38  0  0  1  0  0  0  0  0999 V2000
  190.1230  176.7350  139.0580 C   0  0  1  0  0  3  0  0  0  0  0  0
  188.9610  172.7880  137.0580 C   0  0  0  0  0  3  0  0  0  0  0  0
  190.3920  177.0630  137.5660 C   0  0  1  0  0  3  0  0  0  0  0  0
  192.5590  176.5830  139.6370 C   0  0  2  0  0  3  0  0  0  0  0  0
  190.7940  174.4060  134.3480 C   0  0  0  0  0  2  0  0  0  0  0  0
  191.8790  176.9030  137.1060 C   0  0  1  0  0  3  0  0  0  0  0  0
  192.4880  173.3340  135.9600 C   0  0  0  0  0  2  0  0  0  0  0  0
  192.0920  174.5100  136.8650 C   0  0  2  0  0  0  0  0  0  0  0  0
  192.8940  176.3930  138.1590 C   0  0  2  0  0  3  0  0  0  0  0  0
  186.8950  173.6690  136.1920 C   0  0  0  0  0  3  0  0  0  0  0  0
  188.7400  175.2010  136.7040 C   0  0  0  0  0  0  0  0  0  0  0  0
  193.1660  174.9030  137.8570 C   0  0  0  0  0  2  0  0  0  0  0  0
  191.2500  177.3070  139.9250 C   0  0  2  0  0  3  0  0  0  0  0  0
  187.6640  172.5770  136.5900 C   0  0  0  0  0  0  0  0  0  0  0  0
  187.4340  174.9540  136.2340 C   0  0  0  0  0  3  0  0  0  0  0  0
  189.5180  174.0710  137.1030 C   0  0  0  0  0  0  0  0  0  0  0  0
  190.8690  174.1550  137.7350 C   0  0  0  0  0  2  0  0  0  0  0  0
  189.8610  176.6700  135.0720 C   0  0  0  0  0  2  0  0  0  0  0  0
  193.6190  177.2410  140.2640 O   0  0  0  0  0  1  0  0  0  0  0  0
  189.3060  176.6200  136.5060 C   0  0  2  0  0  0  0  0  0  0  0  0
  192.0040  175.8040  136.0830 C   0  0  1  0  0  3  0  0  0  0  0  0
  190.9490  177.1450  141.4100 C   0  0  0  0  0  1  0  0  0  0  0  0
  192.0170  173.4900  134.4960 C   0  0  0  0  0  2  0  0  0  0  0  0
  191.1050  175.8210  134.8540 C   0  0  1  0  0  3  0  0  0  0  0  0
  187.8720  170.3520  135.7850 O   0  0  0  0  0  0  0  0  0  0  0  0
  186.6760  170.8100  135.2080 C   0  0  0  0  0  2  0  0  0  0  0  0
  187.0780  171.2020  136.5790 C   0  0  2  0  0  3  0  0  0  0  0  0
  188.4980  177.3520  139.6290 S   0  0  0  0  0  0  0  0  0  0  0  0
  188.9920  179.0810  139.3900 C   0  0  0  0  0  1  0  0  0  0  0  0
  187.9460  177.8730  136.5140 S   0  0  0  0  0  0  0  0  0  0  0  0
  187.7440  177.9890  134.7070 C   0  0  0  0  0  2  0  0  0  0  0  0
  186.2750  177.8940  134.3570 C   0  0  0  0  0  1  0  0  0  0  0  0
  1 28  1  1  0  0  0
  1 13  1  0  0  0  0
  2 16  1  0  0  0  0
  3  1  1  0  0  0  0
  4 13  1  0  0  0  0
  4 19  1  0  0  0  0
  5 23  1  0  0  0  0
  5 24  1  0  0  0  0
  6  3  1  0  0  0  0
  6  9  1  0  0  0  0
  7  8  1  0  0  0  0
  8 17  1  0  0  0  0
  8 12  1  0  0  0  0
  9  4  1  0  0  0  0
 10 15  2  0  0  0  0
 10 14  1  0  0  0  0
 11 16  2  0  0  0  0
 12  9  1  0  0  0  0
 13 22  1  0  0  0  0
 14  2  2  0  0  0  0
 15 11  1  0  0  0  0
 16 17  1  0  0  0  0
 18 20  1  0  0  0  0
 20 30  1  0  0  0  0
 20 11  1  0  0  0  0
 20  3  1  0  0  0  0
 21  8  1  0  0  0  0
 21  6  1  0  0  0  0
 23  7  1  0  0  0  0
 24 18  1  0  0  0  0
 24 21  1  0  0  0  0
 25 27  1  0  0  0  0
 26 25  1  0  0  0  0
 26 27  1  0  0  0  0
 27 14  1  0  0  0  0
 29 28  1  0  0  0  0
 31 30  1  0  0  0  0
 32 31  1  0  0  0  0
M  END
>  <MODEL>
6

>  <REMARK>
 VINA RESULT:      -3.1      4.964      6.797
  Name = 
  4 active torsions:
  status: ('A' for Active; 'I' for Inactive)
    1  A    between atoms: S_1  and  C_4
    2  A    between atoms: S_1  and  C_27
    3  A    between atoms: C_2  and  S_14
    4  A    between atoms: C_19  and  C_26
                            x       y       z     vdW  Elec       q    Type
                         _______ _______ _______ _____ _____    ______ ____

>  <TORSDO>
F 4

$$$$
=
 OpenBabel10272402073D

 32 38  0  0  1  0  0  0  0  0999 V2000
  183.5280  175.9820  135.5880 C   0  0  1  0  0  3  0  0  0  0  0  0
  183.8190  177.3740  139.9350 C   0  0  0  0  0  3  0  0  0  0  0  0
  182.0990  176.5360  135.8220 C   0  0  1  0  0  3  0  0  0  0  0  0
  182.7860  173.5860  135.6250 C   0  0  2  0  0  3  0  0  0  0  0  0
  180.2000  177.3830  139.4620 C   0  0  0  0  0  2  0  0  0  0  0  0
  181.0210  175.4650  136.1960 C   0  0  1  0  0  3  0  0  0  0  0  0
  180.9570  174.9750  139.9610 C   0  0  0  0  0  2  0  0  0  0  0  0
  181.4970  175.0440  138.5260 C   0  0  2  0  0  0  0  0  0  0  0  0
  181.5020  174.0000  136.3410 C   0  0  2  0  0  3  0  0  0  0  0  0
  183.9070  179.7030  139.3350 C   0  0  0  0  0  3  0  0  0  0  0  0
  182.8680  178.0990  137.7980 C   0  0  0  0  0  0  0  0  0  0  0  0
  181.6060  173.6930  137.8510 C   0  0  0  0  0  2  0  0  0  0  0  0
  183.4520  174.6740  134.7930 C   0  0  2  0  0  3  0  0  0  0  0  0
  184.1820  178.6850  140.2450 C   0  0  0  0  0  0  0  0  0  0  0  0
  183.2460  179.4130  138.1430 C   0  0  0  0  0  3  0  0  0  0  0  0
  183.1520  177.0670  138.7450 C   0  0  0  0  0  0  0  0  0  0  0  0
  182.9320  175.6090  138.4980 C   0  0  0  0  0  2  0  0  0  0  0  0
  180.5190  178.1630  137.0520 C   0  0  0  0  0  2  0  0  0  0  0  0
  182.5260  172.4670  134.8310 O   0  0  0  0  0  1  0  0  0  0  0  0
  181.9590  177.9240  136.5670 C   0  0  2  0  0  0  0  0  0  0  0  0
  180.5020  175.6990  137.5910 C   0  0  1  0  0  3  0  0  0  0  0  0
  184.8390  174.1750  134.4040 C   0  0  0  0  0  1  0  0  0  0  0  0
  179.9860  176.1250  140.3160 C   0  0  0  0  0  2  0  0  0  0  0  0
  179.9820  177.0780  137.9740 C   0  0  1  0  0  3  0  0  0  0  0  0
  184.8130  177.8980  142.3960 O   0  0  0  0  0  0  0  0  0  0  0  0
  183.9980  179.0090  142.6680 C   0  0  0  0  0  2  0  0  0  0  0  0
  184.9210  178.9870  141.5090 C   0  0  2  0  0  3  0  0  0  0  0  0
  184.6170  177.1850  134.7410 S   0  0  0  0  0  0  0  0  0  0  0  0
  185.8360  177.1340  136.0830 C   0  0  0  0  0  1  0  0  0  0  0  0
  182.2580  179.2730  135.3370 S   0  0  0  0  0  0  0  0  0  0  0  0
  180.5750  179.9720  135.3660 C   0  0  0  0  0  2  0  0  0  0  0  0
  180.6580  181.4810  135.4420 C   0  0  0  0  0  1  0  0  0  0  0  0
  1 28  1  6  0  0  0
  1  3  1  0  0  0  0
  2 14  1  0  0  0  0
  3  6  1  0  0  0  0
  3 20  1  0  0  0  0
  4  9  1  0  0  0  0
  5 23  1  0  0  0  0
  6  9  1  0  0  0  0
  6 21  1  0  0  0  0
  7 23  1  0  0  0  0
  8  7  1  0  0  0  0
  9 12  1  0  0  0  0
 10 14  2  0  0  0  0
 11 15  2  0  0  0  0
 11 16  1  0  0  0  0
 12  8  1  0  0  0  0
 13  1  1  0  0  0  0
 13  4  1  0  0  0  0
 14 27  1  0  0  0  0
 15 10  1  0  0  0  0
 16  2  2  0  0  0  0
 17  8  1  0  0  0  0
 17 16  1  0  0  0  0
 18 24  1  0  0  0  0
 19  4  1  0  0  0  0
 20 18  1  0  0  0  0
 20 11  1  0  0  0  0
 21 24  1  0  0  0  0
 21  8  1  0  0  0  0
 22 13  1  0  0  0  0
 24  5  1  0  0  0  0
 25 26  1  0  0  0  0
 27 25  1  0  0  0  0
 27 26  1  0  0  0  0
 28 29  1  0  0  0  0
 30 31  1  0  0  0  0
 30 20  1  0  0  0  0
 31 32  1  0  0  0  0
M  END
>  <MODEL>
7

>  <REMARK>
 VINA RESULT:      -2.8      1.889      6.118
  Name = 
  4 active torsions:
  status: ('A' for Active; 'I' for Inactive)
    1  A    between atoms: S_1  and  C_4
    2  A    between atoms: S_1  and  C_27
    3  A    between atoms: C_2  and  S_14
    4  A    between atoms: C_19  and  C_26
                            x       y       z     vdW  Elec       q    Type
                         _______ _______ _______ _____ _____    ______ ____

>  <TORSDO>
F 4

$$$$
=
 OpenBabel10272402073D

 32 38  0  0  1  0  0  0  0  0999 V2000
  184.9410  175.2310  135.2980 C   0  0  1  0  0  3  0  0  0  0  0  0
  182.9730  176.2400  139.3020 C   0  0  0  0  0  3  0  0  0  0  0  0
  183.4430  175.2570  134.8980 C   0  0  1  0  0  3  0  0  0  0  0  0
  185.1060  172.7310  135.1630 C   0  0  2  0  0  3  0  0  0  0  0  0
  180.0800  175.0920  137.3950 C   0  0  0  0  0  2  0  0  0  0  0  0
  182.7390  173.8600  134.8600 C   0  0  1  0  0  3  0  0  0  0  0  0
  181.3400  173.0370  138.2930 C   0  0  0  0  0  2  0  0  0  0  0  0
  182.3520  173.4100  137.2000 C   0  0  2  0  0  0  0  0  0  0  0  0
  183.5860  172.6290  135.2690 C   0  0  2  0  0  3  0  0  0  0  0  0
  182.4990  178.5110  138.6600 C   0  0  0  0  0  3  0  0  0  0  0  0
  182.7750  176.8000  136.9260 C   0  0  0  0  0  0  0  0  0  0  0  0
  183.1730  172.2390  136.7050 C   0  0  0  0  0  2  0  0  0  0  0  0
  185.6380  174.0490  134.6150 C   0  0  2  0  0  3  0  0  0  0  0  0
  182.7130  177.5640  139.6580 C   0  0  0  0  0  0  0  0  0  0  0  0
  182.5130  178.1280  137.3200 C   0  0  0  0  0  3  0  0  0  0  0  0
  182.9870  175.8390  137.9620 C   0  0  0  0  0  0  0  0  0  0  0  0
  183.3930  174.4200  137.7280 C   0  0  0  0  0  2  0  0  0  0  0  0
  181.0530  176.1490  135.2850 C   0  0  0  0  0  2  0  0  0  0  0  0
  185.5830  171.6660  134.3960 O   0  0  0  0  0  1  0  0  0  0  0  0
  182.5550  176.4460  135.4430 C   0  0  2  0  0  0  0  0  0  0  0  0
  181.6580  173.7810  135.9060 C   0  0  1  0  0  3  0  0  0  0  0  0
  187.1440  174.0750  134.8530 C   0  0  0  0  0  1  0  0  0  0  0  0
  179.9820  173.7620  138.1570 C   0  0  0  0  0  2  0  0  0  0  0  0
  180.5950  174.8690  135.9670 C   0  0  1  0  0  3  0  0  0  0  0  0
  183.4480  179.1840  141.2340 O   0  0  0  0  0  0  0  0  0  0  0  0
  184.1200  178.0110  141.6160 C   0  0  0  0  0  2  0  0  0  0  0  0
  182.7330  177.9780  141.0960 C   0  0  2  0  0  3  0  0  0  0  0  0
  185.7990  176.7980  134.9020 S   0  0  0  0  0  0  0  0  0  0  0  0
  186.2590  177.0660  136.6360 C   0  0  0  0  0  1  0  0  0  0  0  0
  182.8450  177.9230  134.3690 S   0  0  0  0  0  0  0  0  0  0  0  0
  181.1230  178.5190  134.3460 C   0  0  0  0  0  2  0  0  0  0  0  0
  181.1030  180.0090  134.6080 C   0  0  0  0  0  1  0  0  0  0  0  0
  1 28  1  6  0  0  0
  2 14  1  0  0  0  0
  3  1  1  0  0  0  0
  3 20  1  0  0  0  0
  4  9  1  0  0  0  0
  5 23  1  0  0  0  0
  6  3  1  0  0  0  0
  6  9  1  0  0  0  0
  6 21  1  0  0  0  0
  8 17  1  0  0  0  0
  8  7  1  0  0  0  0
  9 12  1  0  0  0  0
 10 14  2  0  0  0  0
 11 15  2  0  0  0  0
 11 16  1  0  0  0  0
 12  8  1  0  0  0  0
 13 22  1  0  0  0  0
 13  4  1  0  0  0  0
 13  1  1  0  0  0  0
 14 27  1  0  0  0  0
 15 10  1  0  0  0  0
 16  2  2  0  0  0  0
 17 16  1  0  0  0  0
 18 20  1  0  0  0  0
 18 24  1  0  0  0  0
 19  4  1  0  0  0  0
 20 11  1  0  0  0  0
 21 24  1  0  0  0  0
 21  8  1  0  0  0  0
 23  7  1  0  0  0  0
 24  5  1  0  0  0  0
 25 26  1  0  0  0  0
 27 25  1  0  0  0  0
 27 26  1  0  0  0  0
 28 29  1  0  0  0  0
 30 20  1  0  0  0  0
 31 30  1  0  0  0  0
 31 32  1  0  0  0  0
M  END
>  <MODEL>
8

>  <REMARK>
 VINA RESULT:      -2.8      1.801      5.784
  Name = 
  4 active torsions:
  status: ('A' for Active; 'I' for Inactive)
    1  A    between atoms: S_1  and  C_4
    2  A    between atoms: S_1  and  C_27
    3  A    between atoms: C_2  and  S_14
    4  A    between atoms: C_19  and  C_26
                            x       y       z     vdW  Elec       q    Type
                         _______ _______ _______ _____ _____    ______ ____

>  <TORSDO>
F 4

$$$$
=
 OpenBabel10272402073D

 32 38  0  0  1  0  0  0  0  0999 V2000
  185.0920  178.0510  137.9720 C   0  0  1  0  0  3  0  0  0  0  0  0
  181.4180  180.7230  137.4410 C   0  0  0  0  0  3  0  0  0  0  0  0
  183.9610  177.1030  138.4450 C   0  0  1  0  0  3  0  0  0  0  0  0
  185.9630  178.4410  140.2920 C   0  0  2  0  0  3  0  0  0  0  0  0
  180.0350  178.0800  139.5450 C   0  0  0  0  0  2  0  0  0  0  0  0
  183.7420  177.0450  139.9940 C   0  0  1  0  0  3  0  0  0  0  0  0
  181.2940  179.7500  141.0440 C   0  0  0  0  0  2  0  0  0  0  0  0
  182.5330  179.0900  140.4230 C   0  0  2  0  0  0  0  0  0  0  0  0
  184.6310  177.9640  140.8670 C   0  0  2  0  0  3  0  0  0  0  0  0
  180.6720  179.5520  135.4740 C   0  0  0  0  0  3  0  0  0  0  0  0
  182.1070  178.3980  137.0940 C   0  0  0  0  0  0  0  0  0  0  0  0
  183.7680  179.1710  141.2950 C   0  0  0  0  0  2  0  0  0  0  0  0
  186.3030  177.9170  138.9030 C   0  0  2  0  0  3  0  0  0  0  0  0
  180.6870  180.7070  136.2520 C   0  0  0  0  0  0  0  0  0  0  0  0
  181.3570  178.4150  135.9010 C   0  0  0  0  0  3  0  0  0  0  0  0
  182.1080  179.5890  137.8840 C   0  0  0  0  0  0  0  0  0  0  0  0
  182.9380  179.7910  139.1100 C   0  0  0  0  0  2  0  0  0  0  0  0
  181.4910  176.3620  138.3410 C   0  0  0  0  0  2  0  0  0  0  0  0
  186.9860  178.1240  141.1880 O   0  0  0  0  0  1  0  0  0  0  0  0
  182.6430  177.0360  137.5740 C   0  0  2  0  0  0  0  0  0  0  0  0
  182.3840  177.5840  140.3600 C   0  0  1  0  0  3  0  0  0  0  0  0
  187.4960  178.7130  138.3870 C   0  0  0  0  0  1  0  0  0  0  0  0
  179.9830  178.9690  140.7960 C   0  0  0  0  0  2  0  0  0  0  0  0
  181.1480  177.0310  139.6650 C   0  0  1  0  0  3  0  0  0  0  0  0
  180.3650  182.2290  134.4570 O   0  0  0  0  0  0  0  0  0  0  0  0
  180.9520  183.0130  135.4640 C   0  0  0  0  0  2  0  0  0  0  0  0
  179.9820  181.9390  135.7810 C   0  0  2  0  0  3  0  0  0  0  0  0
  185.5830  177.7460  136.2360 S   0  0  0  0  0  0  0  0  0  0  0  0
  186.3910  176.1800  136.6640 C   0  0  0  0  0  1  0  0  0  0  0  0
  182.9540  175.9130  136.1380 S   0  0  0  0  0  0  0  0  0  0  0  0
  182.5050  174.3580  136.9740 C   0  0  0  0  0  2  0  0  0  0  0  0
  183.5080  173.2840  136.6130 C   0  0  0  0  0  1  0  0  0  0  0  0
  1 28  1  6  0  0  0
  1  3  1  0  0  0  0
  1 13  1  0  0  0  0
  2 16  1  0  0  0  0
  3  6  1  0  0  0  0
  4  9  1  0  0  0  0
  4 19  1  0  0  0  0
  5 24  1  0  0  0  0
  5 23  1  0  0  0  0
  6 21  1  0  0  0  0
  6  9  1  0  0  0  0
  8  7  1  0  0  0  0
  8 12  1  0  0  0  0
  9 12  1  0  0  0  0
 10 15  2  0  0  0  0
 10 14  1  0  0  0  0
 11 20  1  0  0  0  0
 11 16  2  0  0  0  0
 13  4  1  0  0  0  0
 14  2  2  0  0  0  0
 15 11  1  0  0  0  0
 16 17  1  0  0  0  0
 17  8  1  0  0  0  0
 18 24  1  0  0  0  0
 20 18  1  0  0  0  0
 20  3  1  0  0  0  0
 21  8  1  0  0  0  0
 22 13  1  0  0  0  0
 23  7  1  0  0  0  0
 24 21  1  0  0  0  0
 25 26  1  0  0  0  0
 25 27  1  0  0  0  0
 26 27  1  0  0  0  0
 27 14  1  0  0  0  0
 28 29  1  0  0  0  0
 30 31  1  0  0  0  0
 30 20  1  0  0  0  0
 32 31  1  0  0  0  0
M  END
>  <MODEL>
9

>  <REMARK>
 VINA RESULT:      -2.8      2.507      6.356
  Name = 
  4 active torsions:
  status: ('A' for Active; 'I' for Inactive)
    1  A    between atoms: S_1  and  C_4
    2  A    between atoms: S_1  and  C_27
    3  A    between atoms: C_2  and  S_14
    4  A    between atoms: C_19  and  C_26
                            x       y       z     vdW  Elec       q    Type
                         _______ _______ _______ _____ _____    ______ ____

>  <TORSDO>
F 4

$$$$
