=
 OpenBabel10272400363D

 31 34  0  0  1  0  0  0  0  0999 V2000
  187.7790  177.2550  144.6500 C   0  0  2  0  0  3  0  0  0  0  0  0
  188.4910  177.1250  146.0080 C   0  0  2  0  0  3  0  0  0  0  0  0
  189.3450  178.2820  148.0340 C   0  0  0  0  0  2  0  0  0  0  0  0
  188.6960  178.4890  146.6750 C   0  0  0  0  0  2  0  0  0  0  0  0
  190.4650  176.5930  144.4490 C   0  0  0  0  0  2  0  0  0  0  0  0
  190.6330  177.5230  147.9010 C   0  0  0  0  0  3  0  0  0  0  0  0
  188.5590  178.0270  143.6590 N   0  0  1  0  0  0  0  0  0  0  0  0
  192.0720  175.9060  146.9240 N   0  0  0  0  0  1  0  0  0  0  0  0
  190.0270  177.9240  143.8290 C   0  0  0  0  0  2  0  0  0  0  0  0
  189.8350  176.3780  145.8310 C   0  0  1  0  0  3  0  0  0  0  0  0
  190.8420  176.6240  146.9340 C   0  0  0  0  0  0  0  0  0  0  0  0
  184.2980  178.4800  143.7630 C   0  0  0  0  0  0  0  0  0  0  0  0
  186.3780  177.7820  144.7960 C   0  0  0  0  0  0  0  0  0  0  0  0
  183.7530  178.7400  145.0240 C   0  0  0  0  0  3  0  0  0  0  0  0
  183.5540  178.6880  142.6490 F   0  0  0  0  0  0  0  0  0  0  0  0
  185.6060  178.0010  143.6500 C   0  0  0  0  0  3  0  0  0  0  0  0
  185.8260  178.0400  146.0620 C   0  0  0  0  0  3  0  0  0  0  0  0
  184.5170  178.5190  146.1750 C   0  0  0  0  0  3  0  0  0  0  0  0
  189.1440  178.5050  140.3020 C   0  0  2  0  0  3  0  0  0  0  0  0
  189.3260  177.0020  140.3840 C   0  0  2  0  0  3  0  0  0  0  0  0
  188.1420  177.6320  142.3050 C   0  0  1  0  0  3  0  0  0  0  0  0
  188.1370  178.8290  141.3750 C   0  0  0  0  0  2  0  0  0  0  0  0
  189.0000  176.5880  141.7410 N   0  0  0  0  0  2  0  0  0  0  0  0
  191.7320  177.5670  140.7420 C   0  0  0  0  0  1  0  0  0  0  0  0
  190.7610  176.6140  140.0700 C   0  0  0  0  0  2  0  0  0  0  0  0
  188.6350  178.8640  139.0500 O   0  0  0  0  0  0  0  0  0  0  0  0
  187.8350  177.4540  138.4750 S   0  0  0  0  0  0  0  0  0  0  0  0
  186.4000  178.4110  137.8730 C   0  0  0  0  0  2  0  0  0  0  0  0
  185.0910  177.9930  138.5390 C   0  0  0  0  0  3  0  0  0  0  0  0
  184.5210  179.1050  139.4030 C   0  0  0  0  0  1  0  0  0  0  0  0
  184.0690  177.5330  137.5150 C   0  0  0  0  0  1  0  0  0  0  0  0
  1 13  1  1  0  0  0
  1  2  1  0  0  0  0
  2  4  1  6  0  0  0
  4  3  1  0  0  0  0
  6  3  1  0  0  0  0
  7  9  1  6  0  0  0
  7  1  1  0  0  0  0
  8 11  1  0  0  0  0
  9  5  1  0  0  0  0
 10  5  1  6  0  0  0
 10  2  1  0  0  0  0
 10 11  1  0  0  0  0
 11  6  2  0  0  0  0
 12 14  1  0  0  0  0
 13 17  2  0  0  0  0
 14 18  2  0  0  0  0
 15 12  1  0  0  0  0
 16 12  2  0  0  0  0
 16 13  1  0  0  0  0
 17 18  1  0  0  0  0
 19 26  1  6  0  0  0
 19 20  1  0  0  0  0
 19 22  1  0  0  0  0
 20 25  1  1  0  0  0
 20 23  1  0  0  0  0
 21 22  1  6  0  0  0
 21  7  1  0  0  0  0
 23 21  1  0  0  0  0
 25 24  1  0  0  0  0
 27 26  1  0  0  0  0
 28 27  1  0  0  0  0
 28 29  1  0  0  0  0
 29 30  1  0  0  0  0
 31 29  1  0  0  0  0
M  END
>  <MODEL>
1

>  <REMARK>
 VINA RESULT:      -8.5      0.000      0.000
  Name = 
  7 active torsions:
  status: ('A' for Active; 'I' for Inactive)
    1  A    between atoms: C_1  and  C_24
    2  A    between atoms: C_4  and  C_12
    3  A    between atoms: O_6  and  C_7
    4  A    between atoms: O_6  and  S_19
    5  A    between atoms: C_9  and  C_22
    6  A    between atoms: C_15  and  N_21
    7  A    between atoms: S_19  and  C_24
                            x       y       z     vdW  Elec       q    Type
                         _______ _______ _______ _____ _____    ______ ____

>  <TORSDO>
F 7

$$$$
=
 OpenBabel10272400363D

 31 34  0  0  1  0  0  0  0  0999 V2000
  187.8450  177.2720  144.5730 C   0  0  2  0  0  3  0  0  0  0  0  0
  188.5810  177.0870  145.9120 C   0  0  2  0  0  3  0  0  0  0  0  0
  189.4790  178.1620  147.9640 C   0  0  0  0  0  2  0  0  0  0  0  0
  188.8060  178.4240  146.6260 C   0  0  0  0  0  2  0  0  0  0  0  0
  190.5230  176.6050  144.2970 C   0  0  0  0  0  2  0  0  0  0  0  0
  190.7590  177.4020  147.7790 C   0  0  0  0  0  3  0  0  0  0  0  0
  188.6110  178.0770  143.5970 N   0  0  1  0  0  0  0  0  0  0  0  0
  192.1710  175.8160  146.7140 N   0  0  0  0  0  1  0  0  0  0  0  0
  190.0810  177.9600  143.7360 C   0  0  0  0  0  2  0  0  0  0  0  0
  189.9170  176.3400  145.6820 C   0  0  1  0  0  3  0  0  0  0  0  0
  190.9450  176.5390  146.7740 C   0  0  0  0  0  0  0  0  0  0  0  0
  184.3560  178.5490  143.7980 C   0  0  0  0  0  0  0  0  0  0  0  0
  186.4500  177.8010  144.7650 C   0  0  0  0  0  0  0  0  0  0  0  0
  183.8360  178.7630  145.0780 C   0  0  0  0  0  3  0  0  0  0  0  0
  183.5940  178.8040  142.7060 F   0  0  0  0  0  0  0  0  0  0  0  0
  185.6590  178.0680  143.6420 C   0  0  0  0  0  3  0  0  0  0  0  0
  185.9230  178.0120  146.0500 C   0  0  0  0  0  3  0  0  0  0  0  0
  184.6180  178.4940  146.2050 C   0  0  0  0  0  3  0  0  0  0  0  0
  189.2260  178.5710  140.2480 C   0  0  2  0  0  3  0  0  0  0  0  0
  189.3040  177.0580  140.3040 C   0  0  2  0  0  3  0  0  0  0  0  0
  188.1670  177.7360  142.2370 C   0  0  1  0  0  3  0  0  0  0  0  0
  188.2450  178.9460  141.3280 C   0  0  0  0  0  2  0  0  0  0  0  0
  188.9500  176.6440  141.6550 N   0  0  0  0  0  2  0  0  0  0  0  0
  191.7430  177.5260  140.5550 C   0  0  0  0  0  1  0  0  0  0  0  0
  190.7080  176.5770  139.9810 C   0  0  0  0  0  2  0  0  0  0  0  0
  188.7430  178.9870  139.0040 O   0  0  0  0  0  0  0  0  0  0  0  0
  187.3940  177.9670  138.6880 S   0  0  0  0  0  0  0  0  0  0  0  0
  187.6680  178.0200  136.8840 C   0  0  0  0  0  2  0  0  0  0  0  0
  188.3840  176.7770  136.3590 C   0  0  0  0  0  3  0  0  0  0  0  0
  189.8930  176.9480  136.3810 C   0  0  0  0  0  1  0  0  0  0  0  0
  187.9750  175.5340  137.1290 C   0  0  0  0  0  1  0  0  0  0  0  0
  1 13  1  1  0  0  0
  1  2  1  0  0  0  0
  2  4  1  6  0  0  0
  4  3  1  0  0  0  0
  6  3  1  0  0  0  0
  7  9  1  6  0  0  0
  7  1  1  0  0  0  0
  8 11  1  0  0  0  0
  9  5  1  0  0  0  0
 10  5  1  6  0  0  0
 10  2  1  0  0  0  0
 10 11  1  0  0  0  0
 11  6  2  0  0  0  0
 12 14  1  0  0  0  0
 13 17  2  0  0  0  0
 14 18  2  0  0  0  0
 15 12  1  0  0  0  0
 16 12  2  0  0  0  0
 16 13  1  0  0  0  0
 17 18  1  0  0  0  0
 19 26  1  6  0  0  0
 19 20  1  0  0  0  0
 19 22  1  0  0  0  0
 20 25  1  1  0  0  0
 20 23  1  0  0  0  0
 21 22  1  6  0  0  0
 21  7  1  0  0  0  0
 23 21  1  0  0  0  0
 25 24  1  0  0  0  0
 27 26  1  0  0  0  0
 28 27  1  0  0  0  0
 29 30  1  0  0  0  0
 29 28  1  0  0  0  0
 29 31  1  0  0  0  0
M  END
>  <MODEL>
2

>  <REMARK>
 VINA RESULT:      -8.5      1.194      1.635
  Name = 
  7 active torsions:
  status: ('A' for Active; 'I' for Inactive)
    1  A    between atoms: C_1  and  C_24
    2  A    between atoms: C_4  and  C_12
    3  A    between atoms: O_6  and  C_7
    4  A    between atoms: O_6  and  S_19
    5  A    between atoms: C_9  and  C_22
    6  A    between atoms: C_15  and  N_21
    7  A    between atoms: S_19  and  C_24
                            x       y       z     vdW  Elec       q    Type
                         _______ _______ _______ _____ _____    ______ ____

>  <TORSDO>
F 7

$$$$
=
 OpenBabel10272400363D

 31 34  0  0  1  0  0  0  0  0999 V2000
  188.0750  177.1160  144.2870 C   0  0  2  0  0  3  0  0  0  0  0  0
  188.7370  177.0020  145.6720 C   0  0  2  0  0  3  0  0  0  0  0  0
  189.5220  178.1850  147.7110 C   0  0  0  0  0  2  0  0  0  0  0  0
  188.9220  178.3750  146.3260 C   0  0  0  0  0  2  0  0  0  0  0  0
  190.7640  176.4430  144.1930 C   0  0  0  0  0  2  0  0  0  0  0  0
  190.8100  177.4210  147.6350 C   0  0  0  0  0  3  0  0  0  0  0  0
  188.8930  177.8710  143.3140 N   0  0  1  0  0  0  0  0  0  0  0  0
  192.2780  175.7860  146.7330 N   0  0  0  0  0  1  0  0  0  0  0  0
  190.3530  177.7660  143.5380 C   0  0  0  0  0  2  0  0  0  0  0  0
  190.0840  176.2490  145.5540 C   0  0  1  0  0  3  0  0  0  0  0  0
  191.0510  176.5070  146.6890 C   0  0  0  0  0  0  0  0  0  0  0  0
  184.7910  178.3440  145.7390 C   0  0  0  0  0  0  0  0  0  0  0  0
  186.6710  177.6490  144.3750 C   0  0  0  0  0  0  0  0  0  0  0  0
  184.0660  178.6620  144.5860 C   0  0  0  0  0  3  0  0  0  0  0  0
  184.2330  178.5290  146.9600 F   0  0  0  0  0  0  0  0  0  0  0  0
  186.0900  177.8390  145.6330 C   0  0  0  0  0  3  0  0  0  0  0  0
  185.9430  177.9740  143.2190 C   0  0  0  0  0  3  0  0  0  0  0  0
  184.6430  178.4790  143.3250 C   0  0  0  0  0  3  0  0  0  0  0  0
  189.2710  178.6000  139.9730 C   0  0  2  0  0  3  0  0  0  0  0  0
  189.7530  177.1620  139.9790 C   0  0  2  0  0  3  0  0  0  0  0  0
  188.5230  177.4580  141.9520 C   0  0  1  0  0  3  0  0  0  0  0  0
  188.2520  178.6680  141.0800 C   0  0  0  0  0  2  0  0  0  0  0  0
  189.5570  176.6340  141.3220 N   0  0  0  0  0  2  0  0  0  0  0  0
  191.4330  176.2100  138.3970 C   0  0  0  0  0  1  0  0  0  0  0  0
  191.2270  177.0860  139.6180 C   0  0  0  0  0  2  0  0  0  0  0  0
  188.6640  178.9020  138.7500 O   0  0  0  0  0  0  0  0  0  0  0  0
  187.8830  177.4460  138.2700 S   0  0  0  0  0  0  0  0  0  0  0  0
  186.3890  178.3330  137.7090 C   0  0  0  0  0  2  0  0  0  0  0  0
  185.1360  177.9270  138.4830 C   0  0  0  0  0  3  0  0  0  0  0  0
  184.7920  178.9380  139.5640 C   0  0  0  0  0  1  0  0  0  0  0  0
  183.9550  177.7130  137.5540 C   0  0  0  0  0  1  0  0  0  0  0  0
  1 13  1  1  0  0  0
  1  2  1  0  0  0  0
  2  4  1  6  0  0  0
  4  3  1  0  0  0  0
  6  3  1  0  0  0  0
  7  9  1  1  0  0  0
  7  1  1  0  0  0  0
  9  5  1  0  0  0  0
 10  5  1  6  0  0  0
 10  2  1  0  0  0  0
 10 11  1  0  0  0  0
 11  8  1  0  0  0  0
 11  6  2  0  0  0  0
 12 15  1  0  0  0  0
 13 16  2  0  0  0  0
 14 12  2  0  0  0  0
 16 12  1  0  0  0  0
 17 18  2  0  0  0  0
 17 13  1  0  0  0  0
 18 14  1  0  0  0  0
 19 26  1  6  0  0  0
 19 20  1  0  0  0  0
 19 22  1  0  0  0  0
 20 25  1  1  0  0  0
 20 23  1  0  0  0  0
 21 22  1  6  0  0  0
 21  7  1  0  0  0  0
 23 21  1  0  0  0  0
 24 25  1  0  0  0  0
 27 26  1  0  0  0  0
 28 27  1  0  0  0  0
 28 29  1  0  0  0  0
 29 30  1  0  0  0  0
 31 29  1  0  0  0  0
M  END
>  <MODEL>
3

>  <REMARK>
 VINA RESULT:      -8.4      0.960      1.344
  Name = 
  7 active torsions:
  status: ('A' for Active; 'I' for Inactive)
    1  A    between atoms: C_1  and  C_24
    2  A    between atoms: C_4  and  C_12
    3  A    between atoms: O_6  and  C_7
    4  A    between atoms: O_6  and  S_19
    5  A    between atoms: C_9  and  C_22
    6  A    between atoms: C_15  and  N_21
    7  A    between atoms: S_19  and  C_24
                            x       y       z     vdW  Elec       q    Type
                         _______ _______ _______ _____ _____    ______ ____

>  <TORSDO>
F 7

$$$$
=
 OpenBabel10272400363D

 31 34  0  0  1  0  0  0  0  0999 V2000
  189.9730  176.6060  139.0560 C   0  0  2  0  0  3  0  0  0  0  0  0
  188.9870  176.9680  137.9310 C   0  0  2  0  0  3  0  0  0  0  0  0
  188.5620  178.3080  135.8820 C   0  0  0  0  0  2  0  0  0  0  0  0
  189.5570  178.0440  137.0010 C   0  0  0  0  0  2  0  0  0  0  0  0
  187.7750  178.0630  139.9170 C   0  0  0  0  0  2  0  0  0  0  0  0
  187.2240  178.6980  136.4370 C   0  0  0  0  0  3  0  0  0  0  0  0
  190.2660  177.7420  139.9560 N   0  0  1  0  0  0  0  0  0  0  0  0
  185.4680  178.6280  138.0350 N   0  0  0  0  0  1  0  0  0  0  0  0
  189.1530  178.7090  140.0970 C   0  0  0  0  0  2  0  0  0  0  0  0
  187.6320  177.4090  138.5360 C   0  0  1  0  0  3  0  0  0  0  0  0
  186.7770  178.2550  137.6170 C   0  0  0  0  0  0  0  0  0  0  0  0
  192.2930  174.1580  137.3180 C   0  0  0  0  0  0  0  0  0  0  0  0
  191.2280  175.9720  138.5230 C   0  0  0  0  0  0  0  0  0  0  0  0
  193.5400  174.7680  137.4930 C   0  0  0  0  0  3  0  0  0  0  0  0
  192.2030  172.9840  136.6460 F   0  0  0  0  0  0  0  0  0  0  0  0
  191.1410  174.7600  137.8310 C   0  0  0  0  0  3  0  0  0  0  0  0
  192.4810  176.5850  138.6930 C   0  0  0  0  0  3  0  0  0  0  0  0
  193.6340  175.9820  138.1790 C   0  0  0  0  0  3  0  0  0  0  0  0
  189.7800  177.9610  143.3560 C   0  0  2  0  0  3  0  0  0  0  0  0
  189.5380  176.4780  143.1560 C   0  0  2  0  0  3  0  0  0  0  0  0
  190.7000  177.2220  141.2620 C   0  0  1  0  0  3  0  0  0  0  0  0
  190.7730  178.3360  142.2860 C   0  0  0  0  0  2  0  0  0  0  0  0
  189.8150  176.1660  141.7610 N   0  0  0  0  0  2  0  0  0  0  0  0
  187.2120  177.3480  143.4110 C   0  0  0  0  0  1  0  0  0  0  0  0
  188.0970  176.1180  143.4750 C   0  0  0  0  0  2  0  0  0  0  0  0
  190.3320  178.1970  144.6180 O   0  0  0  0  0  0  0  0  0  0  0  0
  191.2920  176.8080  144.9500 S   0  0  0  0  0  0  0  0  0  0  0  0
  190.6620  176.6750  146.6590 C   0  0  0  0  0  2  0  0  0  0  0  0
  189.5350  177.6640  146.9510 C   0  0  0  0  0  3  0  0  0  0  0  0
  188.1750  176.9870  146.9300 C   0  0  0  0  0  1  0  0  0  0  0  0
  189.7550  178.3830  148.2690 C   0  0  0  0  0  1  0  0  0  0  0  0
  1 13  1  6  0  0  0
  1  7  1  0  0  0  0
  2  4  1  1  0  0  0
  2 10  1  0  0  0  0
  2  1  1  0  0  0  0
  3  6  1  0  0  0  0
  3  4  1  0  0  0  0
  5  9  1  0  0  0  0
  6 11  2  0  0  0  0
  7  9  1  1  0  0  0
  7 21  1  0  0  0  0
 10  5  1  1  0  0  0
 11  8  1  0  0  0  0
 11 10  1  0  0  0  0
 12 14  2  0  0  0  0
 12 16  1  0  0  0  0
 13 17  1  0  0  0  0
 14 18  1  0  0  0  0
 15 12  1  0  0  0  0
 16 13  2  0  0  0  0
 18 17  2  0  0  0  0
 19 26  1  1  0  0  0
 20 19  1  0  0  0  0
 20 25  1  6  0  0  0
 21 23  1  0  0  0  0
 21 22  1  1  0  0  0
 22 19  1  0  0  0  0
 23 20  1  0  0  0  0
 24 25  1  0  0  0  0
 26 27  1  0  0  0  0
 27 28  1  0  0  0  0
 28 29  1  0  0  0  0
 29 31  1  0  0  0  0
 30 29  1  0  0  0  0
M  END
>  <MODEL>
4

>  <REMARK>
 VINA RESULT:      -7.8      3.511      8.537
  Name = 
  7 active torsions:
  status: ('A' for Active; 'I' for Inactive)
    1  A    between atoms: C_1  and  C_24
    2  A    between atoms: C_4  and  C_12
    3  A    between atoms: O_6  and  C_7
    4  A    between atoms: O_6  and  S_19
    5  A    between atoms: C_9  and  C_22
    6  A    between atoms: C_15  and  N_21
    7  A    between atoms: S_19  and  C_24
                            x       y       z     vdW  Elec       q    Type
                         _______ _______ _______ _____ _____    ______ ____

>  <TORSDO>
F 7

$$$$
=
 OpenBabel10272400363D

 31 34  0  0  1  0  0  0  0  0999 V2000
  188.9010  178.0360  140.4030 C   0  0  2  0  0  3  0  0  0  0  0  0
  189.9130  177.6150  139.3220 C   0  0  2  0  0  3  0  0  0  0  0  0
  190.5780  175.9150  137.6370 C   0  0  0  0  0  2  0  0  0  0  0  0
  189.5790  176.2400  138.7370 C   0  0  0  0  0  2  0  0  0  0  0  0
  191.3960  177.3570  141.4070 C   0  0  0  0  0  2  0  0  0  0  0  0
  191.9840  175.9780  138.1570 C   0  0  0  0  0  3  0  0  0  0  0  0
  188.8990  177.1370  141.5760 N   0  0  1  0  0  0  0  0  0  0  0  0
  193.7190  176.8330  139.5340 N   0  0  0  0  0  1  0  0  0  0  0  0
  190.2070  176.5010  141.8560 C   0  0  0  0  0  2  0  0  0  0  0  0
  191.3480  177.6470  139.9010 C   0  0  1  0  0  3  0  0  0  0  0  0
  192.3490  176.7960  139.1490 C   0  0  0  0  0  0  0  0  0  0  0  0
  186.0240  178.1620  137.9310 C   0  0  0  0  0  0  0  0  0  0  0  0
  187.5200  178.2270  139.8380 C   0  0  0  0  0  0  0  0  0  0  0  0
  184.9570  178.5480  138.7490 C   0  0  0  0  0  3  0  0  0  0  0  0
  185.8170  177.9400  136.6100 F   0  0  0  0  0  0  0  0  0  0  0  0
  187.3020  178.0010  138.4750 C   0  0  0  0  0  3  0  0  0  0  0  0
  186.4450  178.6100  140.6580 C   0  0  0  0  0  3  0  0  0  0  0  0
  185.1670  178.7700  140.1130 C   0  0  0  0  0  3  0  0  0  0  0  0
  187.8440  176.8190  144.8360 C   0  0  2  0  0  3  0  0  0  0  0  0
  188.9500  177.8390  145.0210 C   0  0  2  0  0  3  0  0  0  0  0  0
  188.3930  177.8710  142.7450 C   0  0  1  0  0  3  0  0  0  0  0  0
  187.3110  177.0770  143.4500 C   0  0  0  0  0  2  0  0  0  0  0  0
  189.4550  178.1920  143.7010 N   0  0  0  0  0  2  0  0  0  0  0  0
  189.6430  177.0760  147.2950 C   0  0  0  0  0  1  0  0  0  0  0  0
  190.0820  177.2620  145.8550 C   0  0  0  0  0  2  0  0  0  0  0  0
  186.8320  177.0240  145.7790 O   0  0  0  0  0  0  0  0  0  0  0  0
  186.4720  178.7040  145.6840 S   0  0  0  0  0  0  0  0  0  0  0  0
  184.6700  178.4050  145.7050 C   0  0  0  0  0  2  0  0  0  0  0  0
  184.0170  178.6430  144.3450 C   0  0  0  0  0  3  0  0  0  0  0  0
  182.5170  178.8490  144.4710 C   0  0  0  0  0  1  0  0  0  0  0  0
  184.6590  179.8110  143.6180 C   0  0  0  0  0  1  0  0  0  0  0  0
  1 13  1  6  0  0  0
  1  7  1  0  0  0  0
  2  4  1  1  0  0  0
  2 10  1  0  0  0  0
  2  1  1  0  0  0  0
  3  6  1  0  0  0  0
  3  4  1  0  0  0  0
  5  9  1  0  0  0  0
  6 11  2  0  0  0  0
  7  9  1  1  0  0  0
  7 21  1  0  0  0  0
 10  5  1  1  0  0  0
 11  8  1  0  0  0  0
 11 10  1  0  0  0  0
 12 16  2  0  0  0  0
 12 14  1  0  0  0  0
 13 17  2  0  0  0  0
 14 18  2  0  0  0  0
 15 12  1  0  0  0  0
 16 13  1  0  0  0  0
 18 17  1  0  0  0  0
 19 20  1  0  0  0  0
 19 26  1  1  0  0  0
 20 25  1  1  0  0  0
 21 22  1  1  0  0  0
 21 23  1  0  0  0  0
 22 19  1  0  0  0  0
 23 20  1  0  0  0  0
 25 24  1  0  0  0  0
 27 28  1  0  0  0  0
 27 26  1  0  0  0  0
 29 30  1  0  0  0  0
 29 28  1  0  0  0  0
 31 29  1  0  0  0  0
M  END
>  <MODEL>
5

>  <REMARK>
 VINA RESULT:      -7.8      2.685      6.219
  Name = 
  7 active torsions:
  status: ('A' for Active; 'I' for Inactive)
    1  A    between atoms: C_1  and  C_24
    2  A    between atoms: C_4  and  C_12
    3  A    between atoms: O_6  and  C_7
    4  A    between atoms: O_6  and  S_19
    5  A    between atoms: C_9  and  C_22
    6  A    between atoms: C_15  and  N_21
    7  A    between atoms: S_19  and  C_24
                            x       y       z     vdW  Elec       q    Type
                         _______ _______ _______ _____ _____    ______ ____

>  <TORSDO>
F 7

$$$$
=
 OpenBabel10272400363D

 31 34  0  0  1  0  0  0  0  0999 V2000
  185.2150  179.0420  141.2980 C   0  0  2  0  0  3  0  0  0  0  0  0
  183.7330  179.0430  140.8810 C   0  0  2  0  0  3  0  0  0  0  0  0
  181.6160  177.7540  140.7050 C   0  0  0  0  0  2  0  0  0  0  0  0
  183.0890  177.6670  141.0750 C   0  0  0  0  0  2  0  0  0  0  0  0
  184.8210  179.1940  138.5560 C   0  0  0  0  0  2  0  0  0  0  0  0
  181.4470  178.2610  139.3030 C   0  0  0  0  0  3  0  0  0  0  0  0
  186.0470  178.1360  140.4770 N   0  0  1  0  0  0  0  0  0  0  0  0
  182.0390  179.5800  137.4190 N   0  0  0  0  0  1  0  0  0  0  0  0
  185.5680  177.9650  139.0860 C   0  0  0  0  0  2  0  0  0  0  0  0
  183.5950  179.5270  139.4180 C   0  0  1  0  0  3  0  0  0  0  0  0
  182.3150  179.1030  138.7320 C   0  0  0  0  0  0  0  0  0  0  0  0
  186.4450  177.5270  144.5530 C   0  0  0  0  0  0  0  0  0  0  0  0
  185.3870  178.7840  142.7690 C   0  0  0  0  0  0  0  0  0  0  0  0
  185.7550  178.2870  145.5030 C   0  0  0  0  0  3  0  0  0  0  0  0
  187.2950  176.5510  144.9550 F   0  0  0  0  0  0  0  0  0  0  0  0
  186.2610  177.7760  143.1900 C   0  0  0  0  0  3  0  0  0  0  0  0
  184.6990  179.5490  143.7270 C   0  0  0  0  0  3  0  0  0  0  0  0
  184.8830  179.2990  145.0910 C   0  0  0  0  0  3  0  0  0  0  0  0
  189.3310  177.1240  140.2940 C   0  0  2  0  0  3  0  0  0  0  0  0
  189.3140  178.1500  139.1780 C   0  0  2  0  0  3  0  0  0  0  0  0
  187.4430  178.5960  140.5160 C   0  0  1  0  0  3  0  0  0  0  0  0
  188.3090  177.6180  141.2850 C   0  0  0  0  0  2  0  0  0  0  0  0
  188.0030  178.7840  139.1760 N   0  0  0  0  0  2  0  0  0  0  0  0
  189.0610  178.3730  136.7040 C   0  0  0  0  0  1  0  0  0  0  0  0
  189.5550  177.4870  137.8320 C   0  0  0  0  0  2  0  0  0  0  0  0
  190.5920  177.0820  140.8950 O   0  0  0  0  0  0  0  0  0  0  0  0
  190.3110  176.4570  142.4730 S   0  0  0  0  0  0  0  0  0  0  0  0
  191.6100  177.5070  143.2120 C   0  0  0  0  0  2  0  0  0  0  0  0
  191.3400  177.8330  144.6800 C   0  0  0  0  0  3  0  0  0  0  0  0
  189.9260  178.3500  144.8890 C   0  0  0  0  0  1  0  0  0  0  0  0
  191.6100  176.6360  145.5730 C   0  0  0  0  0  1  0  0  0  0  0  0
  1 13  1  1  0  0  0
  2  4  1  6  0  0  0
  2  1  1  0  0  0  0
  3  4  1  0  0  0  0
  5  9  1  0  0  0  0
  6  3  1  0  0  0  0
  7  9  1  6  0  0  0
  7 21  1  0  0  0  0
  7  1  1  0  0  0  0
  8 11  1  0  0  0  0
 10  5  1  6  0  0  0
 10  2  1  0  0  0  0
 11  6  2  0  0  0  0
 11 10  1  0  0  0  0
 12 15  1  0  0  0  0
 12 14  1  0  0  0  0
 13 16  1  0  0  0  0
 13 17  2  0  0  0  0
 16 12  2  0  0  0  0
 17 18  1  0  0  0  0
 18 14  2  0  0  0  0
 19 26  1  1  0  0  0
 19 22  1  0  0  0  0
 20 25  1  6  0  0  0
 20 19  1  0  0  0  0
 21 22  1  6  0  0  0
 23 20  1  0  0  0  0
 23 21  1  0  0  0  0
 24 25  1  0  0  0  0
 26 27  1  0  0  0  0
 27 28  1  0  0  0  0
 28 29  1  0  0  0  0
 29 30  1  0  0  0  0
 29 31  1  0  0  0  0
M  END
>  <MODEL>
6

>  <REMARK>
 VINA RESULT:      -7.7      2.759      6.812
  Name = 
  7 active torsions:
  status: ('A' for Active; 'I' for Inactive)
    1  A    between atoms: C_1  and  C_24
    2  A    between atoms: C_4  and  C_12
    3  A    between atoms: O_6  and  C_7
    4  A    between atoms: O_6  and  S_19
    5  A    between atoms: C_9  and  C_22
    6  A    between atoms: C_15  and  N_21
    7  A    between atoms: S_19  and  C_24
                            x       y       z     vdW  Elec       q    Type
                         _______ _______ _______ _____ _____    ______ ____

>  <TORSDO>
F 7

$$$$
=
 OpenBabel10272400363D

 31 34  0  0  1  0  0  0  0  0999 V2000
  189.4130  177.9790  143.0170 C   0  0  2  0  0  3  0  0  0  0  0  0
  190.6270  177.3190  143.6950 C   0  0  2  0  0  3  0  0  0  0  0  0
  191.9100  175.2290  144.0960 C   0  0  0  0  0  2  0  0  0  0  0  0
  190.6580  175.8060  143.4540 C   0  0  0  0  0  2  0  0  0  0  0  0
  189.2220  177.8550  145.7810 C   0  0  0  0  0  2  0  0  0  0  0  0
  191.9640  175.5660  145.5570 C   0  0  0  0  0  3  0  0  0  0  0  0
  188.1200  177.5020  143.5510 N   0  0  1  0  0  0  0  0  0  0  0  0
  191.5830  176.9490  147.4490 N   0  0  0  0  0  1  0  0  0  0  0  0
  188.1640  177.0950  144.9740 C   0  0  0  0  0  2  0  0  0  0  0  0
  190.6300  177.6470  145.2080 C   0  0  1  0  0  3  0  0  0  0  0  0
  191.4280  176.6830  146.0590 C   0  0  0  0  0  0  0  0  0  0  0  0
  190.5940  177.0270  139.5380 C   0  0  0  0  0  0  0  0  0  0  0  0
  189.4770  177.8700  141.5180 C   0  0  0  0  0  0  0  0  0  0  0  0
  189.6200  177.6220  138.7300 C   0  0  0  0  0  3  0  0  0  0  0  0
  191.6070  176.3270  138.9720 F   0  0  0  0  0  0  0  0  0  0  0  0
  190.5210  177.1510  140.9290 C   0  0  0  0  0  3  0  0  0  0  0  0
  188.4970  178.4630  140.7030 C   0  0  0  0  0  3  0  0  0  0  0  0
  188.5710  178.3390  139.3120 C   0  0  0  0  0  3  0  0  0  0  0  0
  184.7460  178.0380  143.1380 C   0  0  2  0  0  3  0  0  0  0  0  0
  185.0150  178.9720  144.3020 C   0  0  2  0  0  3  0  0  0  0  0  0
  187.0930  178.5280  143.3140 C   0  0  1  0  0  3  0  0  0  0  0  0
  186.0350  178.0160  142.3570 C   0  0  0  0  0  2  0  0  0  0  0  0
  186.4490  178.9660  144.5540 N   0  0  0  0  0  2  0  0  0  0  0  0
  185.2340  178.4130  146.7250 C   0  0  0  0  0  1  0  0  0  0  0  0
  184.2820  178.5060  145.5480 C   0  0  0  0  0  2  0  0  0  0  0  0
  183.7160  178.5430  142.3390 O   0  0  0  0  0  0  0  0  0  0  0  0
  184.4340  178.7950  140.7960 S   0  0  0  0  0  0  0  0  0  0  0  0
  182.8150  178.8110  139.9500 C   0  0  0  0  0  2  0  0  0  0  0  0
  181.9880  177.5590  140.2370 C   0  0  0  0  0  3  0  0  0  0  0  0
  180.5450  177.7270  139.7930 C   0  0  0  0  0  1  0  0  0  0  0  0
  182.6050  176.3280  139.5980 C   0  0  0  0  0  1  0  0  0  0  0  0
  1 13  1  6  0  0  0
  1  7  1  0  0  0  0
  1  2  1  0  0  0  0
  2  4  1  1  0  0  0
  2 10  1  0  0  0  0
  3  6  1  0  0  0  0
  4  3  1  0  0  0  0
  6 11  2  0  0  0  0
  7  9  1  1  0  0  0
  9  5  1  0  0  0  0
 10  5  1  1  0  0  0
 10 11  1  0  0  0  0
 11  8  1  0  0  0  0
 12 16  1  0  0  0  0
 14 18  1  0  0  0  0
 14 12  2  0  0  0  0
 15 12  1  0  0  0  0
 16 13  2  0  0  0  0
 17 13  1  0  0  0  0
 18 17  2  0  0  0  0
 19 26  1  6  0  0  0
 19 20  1  0  0  0  0
 20 23  1  0  0  0  0
 20 25  1  1  0  0  0
 21 22  1  6  0  0  0
 21  7  1  0  0  0  0
 21 23  1  0  0  0  0
 22 19  1  0  0  0  0
 25 24  1  0  0  0  0
 27 26  1  0  0  0  0
 28 29  1  0  0  0  0
 28 27  1  0  0  0  0
 30 29  1  0  0  0  0
 31 29  1  0  0  0  0
M  END
>  <MODEL>
7

>  <REMARK>
 VINA RESULT:      -7.6      2.644      5.160
  Name = 
  7 active torsions:
  status: ('A' for Active; 'I' for Inactive)
    1  A    between atoms: C_1  and  C_24
    2  A    between atoms: C_4  and  C_12
    3  A    between atoms: O_6  and  C_7
    4  A    between atoms: O_6  and  S_19
    5  A    between atoms: C_9  and  C_22
    6  A    between atoms: C_15  and  N_21
    7  A    between atoms: S_19  and  C_24
                            x       y       z     vdW  Elec       q    Type
                         _______ _______ _______ _____ _____    ______ ____

>  <TORSDO>
F 7

$$$$
=
 OpenBabel10272400363D

 31 34  0  0  1  0  0  0  0  0999 V2000
  189.9540  176.2980  138.5470 C   0  0  2  0  0  3  0  0  0  0  0  0
  188.8580  176.8070  137.5920 C   0  0  2  0  0  3  0  0  0  0  0  0
  188.2820  178.2770  135.6750 C   0  0  0  0  0  2  0  0  0  0  0  0
  189.3960  177.8660  136.6250 C   0  0  0  0  0  2  0  0  0  0  0  0
  188.0620  177.9150  139.7710 C   0  0  0  0  0  2  0  0  0  0  0  0
  187.0840  178.7660  136.4350 C   0  0  0  0  0  3  0  0  0  0  0  0
  190.4870  177.3560  139.4320 N   0  0  1  0  0  0  0  0  0  0  0  0
  185.5780  178.7870  138.2710 N   0  0  0  0  0  1  0  0  0  0  0  0
  189.5100  178.4170  139.7680 C   0  0  0  0  0  2  0  0  0  0  0  0
  187.6570  177.3450  138.4060 C   0  0  1  0  0  3  0  0  0  0  0  0
  186.7690  178.3110  137.6520 C   0  0  0  0  0  0  0  0  0  0  0  0
  193.3120  175.5540  136.9440 C   0  0  0  0  0  0  0  0  0  0  0  0
  191.0490  175.5740  137.8130 C   0  0  0  0  0  0  0  0  0  0  0  0
  193.1250  174.2510  136.4720 C   0  0  0  0  0  3  0  0  0  0  0  0
  194.5010  176.1770  136.7540 F   0  0  0  0  0  0  0  0  0  0  0  0
  192.2770  176.2130  137.6130 C   0  0  0  0  0  3  0  0  0  0  0  0
  190.8650  174.2630  137.3430 C   0  0  0  0  0  3  0  0  0  0  0  0
  191.9020  173.6040  136.6730 C   0  0  0  0  0  3  0  0  0  0  0  0
  190.5870  177.5120  142.8680 C   0  0  2  0  0  3  0  0  0  0  0  0
  190.1150  176.0820  142.6880 C   0  0  2  0  0  3  0  0  0  0  0  0
  191.0490  176.7350  140.6400 C   0  0  1  0  0  3  0  0  0  0  0  0
  191.4380  177.7910  141.6560 C   0  0  0  0  0  2  0  0  0  0  0  0
  190.1200  175.7880  141.2610 N   0  0  0  0  0  2  0  0  0  0  0  0
  187.8670  177.1350  142.9510 C   0  0  0  0  0  1  0  0  0  0  0  0
  188.7080  175.9060  143.2340 C   0  0  0  0  0  2  0  0  0  0  0  0
  191.3610  177.6250  144.0260 O   0  0  0  0  0  0  0  0  0  0  0  0
  190.3750  178.4940  145.1360 S   0  0  0  0  0  0  0  0  0  0  0  0
  190.2140  177.0570  146.2510 C   0  0  0  0  0  2  0  0  0  0  0  0
  189.0180  177.1720  147.1930 C   0  0  0  0  0  3  0  0  0  0  0  0
  189.3240  178.0680  148.3810 C   0  0  0  0  0  1  0  0  0  0  0  0
  187.7800  177.6580  146.4610 C   0  0  0  0  0  1  0  0  0  0  0  0
  1 13  1  6  0  0  0
  1  7  1  0  0  0  0
  2  4  1  1  0  0  0
  2 10  1  0  0  0  0
  2  1  1  0  0  0  0
  3  6  1  0  0  0  0
  3  4  1  0  0  0  0
  6 11  2  0  0  0  0
  7  9  1  1  0  0  0
  7 21  1  0  0  0  0
  9  5  1  0  0  0  0
 10  5  1  1  0  0  0
 11  8  1  0  0  0  0
 11 10  1  0  0  0  0
 12 16  1  0  0  0  0
 14 18  1  0  0  0  0
 14 12  2  0  0  0  0
 15 12  1  0  0  0  0
 16 13  2  0  0  0  0
 17 13  1  0  0  0  0
 18 17  2  0  0  0  0
 19 26  1  1  0  0  0
 20 19  1  0  0  0  0
 20 25  1  6  0  0  0
 21 23  1  0  0  0  0
 21 22  1  1  0  0  0
 22 19  1  0  0  0  0
 23 20  1  0  0  0  0
 24 25  1  0  0  0  0
 26 27  1  0  0  0  0
 27 28  1  0  0  0  0
 28 29  1  0  0  0  0
 29 30  1  0  0  0  0
 31 29  1  0  0  0  0
M  END
>  <MODEL>
8

>  <REMARK>
 VINA RESULT:      -7.4      3.723      8.683
  Name = 
  7 active torsions:
  status: ('A' for Active; 'I' for Inactive)
    1  A    between atoms: C_1  and  C_24
    2  A    between atoms: C_4  and  C_12
    3  A    between atoms: O_6  and  C_7
    4  A    between atoms: O_6  and  S_19
    5  A    between atoms: C_9  and  C_22
    6  A    between atoms: C_15  and  N_21
    7  A    between atoms: S_19  and  C_24
                            x       y       z     vdW  Elec       q    Type
                         _______ _______ _______ _____ _____    ______ ____

>  <TORSDO>
F 7

$$$$
=
 OpenBabel10272400363D

 31 34  0  0  1  0  0  0  0  0999 V2000
  186.1850  177.6430  143.9170 C   0  0  2  0  0  3  0  0  0  0  0  0
  186.3010  177.7070  145.4510 C   0  0  2  0  0  3  0  0  0  0  0  0
  186.3150  179.1370  147.4820 C   0  0  0  0  0  2  0  0  0  0  0  0
  186.2600  179.1510  145.9630 C   0  0  0  0  0  2  0  0  0  0  0  0
  188.7160  177.0370  144.8780 C   0  0  0  0  0  2  0  0  0  0  0  0
  187.5320  178.4040  147.9660 C   0  0  0  0  0  3  0  0  0  0  0  0
  187.3120  178.3030  143.2240 N   0  0  1  0  0  0  0  0  0  0  0  0
  189.1990  176.7170  147.8520 N   0  0  0  0  0  1  0  0  0  0  0  0
  188.5900  178.2650  143.9700 C   0  0  0  0  0  2  0  0  0  0  0  0
  187.5870  176.9820  145.9150 C   0  0  1  0  0  3  0  0  0  0  0  0
  188.0830  177.3950  147.2840 C   0  0  0  0  0  0  0  0  0  0  0  0
  183.2980  178.4790  141.6010 C   0  0  0  0  0  0  0  0  0  0  0  0
  184.8530  178.1450  143.4310 C   0  0  0  0  0  0  0  0  0  0  0  0
  182.3730  179.0450  142.4850 C   0  0  0  0  0  3  0  0  0  0  0  0
  182.9920  178.3630  140.2860 F   0  0  0  0  0  0  0  0  0  0  0  0
  184.5340  178.0300  142.0740 C   0  0  0  0  0  3  0  0  0  0  0  0
  183.9210  178.7090  144.3170 C   0  0  0  0  0  3  0  0  0  0  0  0
  182.6840  179.1590  143.8430 C   0  0  0  0  0  3  0  0  0  0  0  0
  188.8330  178.6900  140.1610 C   0  0  2  0  0  3  0  0  0  0  0  0
  189.3030  177.2910  140.5080 C   0  0  2  0  0  3  0  0  0  0  0  0
  187.4520  177.7270  141.8780 C   0  0  1  0  0  3  0  0  0  0  0  0
  187.4880  178.8200  140.8280 C   0  0  0  0  0  2  0  0  0  0  0  0
  188.6540  176.8990  141.7510 N   0  0  0  0  0  2  0  0  0  0  0  0
  191.5040  176.9180  139.3900 C   0  0  0  0  0  1  0  0  0  0  0  0
  190.8100  177.2580  140.6950 C   0  0  0  0  0  2  0  0  0  0  0  0
  188.6920  178.8250  138.7780 O   0  0  0  0  0  0  0  0  0  0  0  0
  187.7640  177.4610  138.2900 S   0  0  0  0  0  0  0  0  0  0  0  0
  188.8010  177.1760  136.8140 C   0  0  0  0  0  2  0  0  0  0  0  0
  188.0180  176.5720  135.6510 C   0  0  0  0  0  3  0  0  0  0  0  0
  187.1610  175.4010  136.0980 C   0  0  0  0  0  1  0  0  0  0  0  0
  187.1710  177.6190  134.9500 C   0  0  0  0  0  1  0  0  0  0  0  0
  1 13  1  1  0  0  0
  1  2  1  0  0  0  0
  2 10  1  0  0  0  0
  2  4  1  6  0  0  0
  3  6  1  0  0  0  0
  4  3  1  0  0  0  0
  7  1  1  0  0  0  0
  7  9  1  1  0  0  0
  9  5  1  0  0  0  0
 10  5  1  6  0  0  0
 10 11  1  0  0  0  0
 11  8  1  0  0  0  0
 11  6  2  0  0  0  0
 12 16  2  0  0  0  0
 12 14  1  0  0  0  0
 13 17  2  0  0  0  0
 14 18  2  0  0  0  0
 15 12  1  0  0  0  0
 16 13  1  0  0  0  0
 18 17  1  0  0  0  0
 19 26  1  6  0  0  0
 19 20  1  0  0  0  0
 19 22  1  0  0  0  0
 20 25  1  1  0  0  0
 20 23  1  0  0  0  0
 21 22  1  6  0  0  0
 21  7  1  0  0  0  0
 23 21  1  0  0  0  0
 24 25  1  0  0  0  0
 27 26  1  0  0  0  0
 28 27  1  0  0  0  0
 29 30  1  0  0  0  0
 29 28  1  0  0  0  0
 31 29  1  0  0  0  0
M  END
>  <MODEL>
9

>  <REMARK>
 VINA RESULT:      -7.2      1.802      2.487
  Name = 
  7 active torsions:
  status: ('A' for Active; 'I' for Inactive)
    1  A    between atoms: C_1  and  C_24
    2  A    between atoms: C_4  and  C_12
    3  A    between atoms: O_6  and  C_7
    4  A    between atoms: O_6  and  S_19
    5  A    between atoms: C_9  and  C_22
    6  A    between atoms: C_15  and  N_21
    7  A    between atoms: S_19  and  C_24
                            x       y       z     vdW  Elec       q    Type
                         _______ _______ _______ _____ _____    ______ ____

>  <TORSDO>
F 7

$$$$
