=
 OpenBabel10272402003D

 28 29  0  0  1  0  0  0  0  0999 V2000
  190.9090  176.1230  143.0480 O   0  0  0  0  0  0  0  0  0  0  0  0
  188.1290  175.9650  142.4030 O   0  0  0  0  0  1  0  0  0  0  0  0
  188.5640  177.2660  144.3770 C   0  0  1  0  0  3  0  0  0  0  0  0
  190.6500  178.3090  145.3300 C   0  0  0  0  0  3  0  0  0  0  0  0
  188.7380  177.1420  142.8510 C   0  0  1  0  0  3  0  0  0  0  0  0
  189.3580  178.3920  144.9760 C   0  0  0  0  0  3  0  0  0  0  0  0
  191.5440  177.1030  145.1910 C   0  0  2  0  0  3  0  0  0  0  0  0
  191.9500  176.7320  143.7620 C   0  0  0  0  0  2  0  0  0  0  0  0
  190.2150  177.1690  142.4210 C   0  0  2  0  0  3  0  0  0  0  0  0
  190.2820  175.8350  140.4300 O   0  0  0  0  0  1  0  0  0  0  0  0
  190.4180  177.1490  140.8820 C   0  0  2  0  0  0  0  0  0  0  0  0
  191.8350  177.6030  140.4940 C   0  0  0  0  0  2  0  0  0  0  0  0
  192.3810  176.9510  139.2310 C   0  0  0  0  0  1  0  0  0  0  0  0
  189.3600  177.9940  140.1450 C   0  0  0  0  0  2  0  0  0  0  0  0
  188.6460  177.2780  139.0040 C   0  0  0  0  0  2  0  0  0  0  0  0
  188.1210  178.2790  137.9930 C   0  0  0  0  0  1  0  0  0  0  0  0
  191.9740  176.1220  147.5040 C   0  0  0  0  0  1  0  0  0  0  0  0
  191.2900  175.9460  146.1610 C   0  0  0  0  0  2  0  0  0  0  0  0
  187.1000  177.3860  144.8270 C   0  0  1  0  0  3  0  0  0  0  0  0
  186.8610  177.1290  146.3220 C   0  0  0  0  0  2  0  0  0  0  0  0
  186.5790  178.4050  147.1060 C   0  0  0  0  0  2  0  0  0  0  0  0
  187.5590  178.5460  148.2570 C   0  0  0  0  0  2  0  0  0  0  0  0
  188.4940  177.3520  148.3030 C   0  0  0  0  0  1  0  0  0  0  0  0
  186.4220  178.6490  144.2950 C   0  0  0  0  0  2  0  0  0  0  0  0
  185.0480  178.3400  143.7220 C   0  0  0  0  0  2  0  0  0  0  0  0
  184.0500  179.4160  144.1090 C   0  0  2  0  0  3  0  0  0  0  0  0
  183.5520  179.1320  145.3930 O   0  0  0  0  0  0  0  0  0  0  0  0
  182.7150  178.8170  144.3080 C   0  0  0  0  0  2  0  0  0  0  0  0
  1  8  1  0  0  0  0
  3 19  1  6  0  0  0
  3  6  1  0  0  0  0
  5  2  1  1  0  0  0
  5  3  1  0  0  0  0
  6  4  2  0  0  0  0
  7  4  1  0  0  0  0
  7 18  1  6  0  0  0
  8  7  1  0  0  0  0
  9 11  1  6  0  0  0
  9  5  1  0  0  0  0
  9  1  1  0  0  0  0
 11 10  1  6  0  0  0
 12 11  1  0  0  0  0
 13 12  1  0  0  0  0
 14 11  1  0  0  0  0
 15 14  1  0  0  0  0
 16 15  1  0  0  0  0
 18 17  1  0  0  0  0
 19 24  1  1  0  0  0
 19 20  1  0  0  0  0
 20 21  1  0  0  0  0
 21 22  1  0  0  0  0
 22 23  1  0  0  0  0
 25 24  1  0  0  0  0
 26 25  1  6  0  0  0
 26 28  1  0  0  0  0
 26 27  1  0  0  0  0
 28 27  1  0  0  0  0
M  END
>  <MODEL>
1

>  <REMARK>
 VINA RESULT:      -6.4      0.000      0.000
  Name = 
  12 active torsions:
  status: ('A' for Active; 'I' for Inactive)
    1  A    between atoms: C_3  and  C_7
    2  A    between atoms: C_3  and  C_11
    3  A    between atoms: C_3  and  C_27
    4  A    between atoms: C_4  and  C_12
    5  A    between atoms: C_4  and  C_24
    6  A    between atoms: C_6  and  C_11
    7  A    between atoms: C_9  and  C_13
    8  A    between atoms: C_9  and  C_18
    9  A    between atoms: C_10  and  C_13
   10  A    between atoms: C_13  and  C_24
   11  A    between atoms: C_14  and  C_18
   12  A    between atoms: C_19  and  C_21
                            x       y       z     vdW  Elec       q    Type
                         _______ _______ _______ _____ _____    ______ ____

>  <TORSDO>
F 12

$$$$
=
 OpenBabel10272402003D

 28 29  0  0  1  0  0  0  0  0999 V2000
  187.3340  179.1980  141.2710 O   0  0  0  0  0  0  0  0  0  0  0  0
  189.8090  178.8090  142.6460 O   0  0  0  0  0  1  0  0  0  0  0  0
  187.9250  177.8970  143.8270 C   0  0  1  0  0  3  0  0  0  0  0  0
  185.5610  177.3540  143.1460 C   0  0  0  0  0  3  0  0  0  0  0  0
  188.8200  177.8240  142.5740 C   0  0  1  0  0  3  0  0  0  0  0  0
  186.7130  177.0140  143.7440 C   0  0  0  0  0  3  0  0  0  0  0  0
  185.2630  178.6560  142.4450 C   0  0  2  0  0  3  0  0  0  0  0  0
  185.9800  178.8750  141.1090 C   0  0  0  0  0  2  0  0  0  0  0  0
  188.0200  177.9730  141.2680 C   0  0  2  0  0  3  0  0  0  0  0  0
  189.2720  179.0630  139.5400 O   0  0  0  0  0  1  0  0  0  0  0  0
  188.8790  177.8010  139.9880 C   0  0  2  0  0  0  0  0  0  0  0  0
  188.0680  177.1630  138.8470 C   0  0  0  0  0  2  0  0  0  0  0  0
  187.8050  178.0900  137.6670 C   0  0  0  0  0  1  0  0  0  0  0  0
  190.1640  176.9920  140.2530 C   0  0  0  0  0  2  0  0  0  0  0  0
  190.6740  176.1870  139.0630 C   0  0  0  0  0  2  0  0  0  0  0  0
  192.0260  176.7030  138.6120 C   0  0  0  0  0  1  0  0  0  0  0  0
  183.7880  179.8450  144.1490 C   0  0  0  0  0  1  0  0  0  0  0  0
  185.0680  179.8850  143.3350 C   0  0  0  0  0  2  0  0  0  0  0  0
  188.6700  177.6090  145.1400 C   0  0  1  0  0  3  0  0  0  0  0  0
  187.7710  177.1940  146.3140 C   0  0  0  0  0  2  0  0  0  0  0  0
  187.5920  178.3010  147.3450 C   0  0  0  0  0  2  0  0  0  0  0  0
  186.3220  179.0850  147.0630 C   0  0  0  0  0  2  0  0  0  0  0  0
  185.1320  178.1480  146.9750 C   0  0  0  0  0  1  0  0  0  0  0  0
  189.8900  176.7100  144.9400 C   0  0  0  0  0  2  0  0  0  0  0  0
  191.0580  177.1620  145.8020 C   0  0  0  0  0  2  0  0  0  0  0  0
  191.0590  176.4290  147.1310 C   0  0  2  0  0  3  0  0  0  0  0  0
  192.0870  176.9510  147.9360 O   0  0  0  0  0  0  0  0  0  0  0  0
  192.3410  175.7170  147.3120 C   0  0  0  0  0  2  0  0  0  0  0  0
  3 19  1  1  0  0  0
  4  6  2  0  0  0  0
  5  2  1  1  0  0  0
  5  3  1  0  0  0  0
  6  3  1  0  0  0  0
  7  4  1  0  0  0  0
  7 18  1  1  0  0  0
  8  1  1  0  0  0  0
  8  7  1  0  0  0  0
  9 11  1  6  0  0  0
  9  1  1  0  0  0  0
  9  5  1  0  0  0  0
 11 10  1  6  0  0  0
 11 14  1  0  0  0  0
 12 11  1  0  0  0  0
 13 12  1  0  0  0  0
 15 14  1  0  0  0  0
 16 15  1  0  0  0  0
 18 17  1  0  0  0  0
 19 24  1  6  0  0  0
 19 20  1  0  0  0  0
 20 21  1  0  0  0  0
 22 21  1  0  0  0  0
 23 22  1  0  0  0  0
 24 25  1  0  0  0  0
 26 25  1  6  0  0  0
 26 28  1  0  0  0  0
 26 27  1  0  0  0  0
 28 27  1  0  0  0  0
M  END
>  <MODEL>
2

>  <REMARK>
 VINA RESULT:      -6.3      1.847      5.219
  Name = 
  12 active torsions:
  status: ('A' for Active; 'I' for Inactive)
    1  A    between atoms: C_3  and  C_7
    2  A    between atoms: C_3  and  C_11
    3  A    between atoms: C_3  and  C_27
    4  A    between atoms: C_4  and  C_12
    5  A    between atoms: C_4  and  C_24
    6  A    between atoms: C_6  and  C_11
    7  A    between atoms: C_9  and  C_13
    8  A    between atoms: C_9  and  C_18
    9  A    between atoms: C_10  and  C_13
   10  A    between atoms: C_13  and  C_24
   11  A    between atoms: C_14  and  C_18
   12  A    between atoms: C_19  and  C_21
                            x       y       z     vdW  Elec       q    Type
                         _______ _______ _______ _____ _____    ______ ____

>  <TORSDO>
F 12

$$$$
=
 OpenBabel10272402003D

 28 29  0  0  1  0  0  0  0  0999 V2000
  185.3720  179.3190  142.4630 O   0  0  0  0  0  0  0  0  0  0  0  0
  187.7880  179.6870  140.9800 O   0  0  0  0  0  1  0  0  0  0  0  0
  188.0320  178.1460  142.8080 C   0  0  1  0  0  3  0  0  0  0  0  0
  186.3820  176.8970  144.2440 C   0  0  0  0  0  3  0  0  0  0  0  0
  187.3690  178.4380  141.4480 C   0  0  1  0  0  3  0  0  0  0  0  0
  187.4880  176.9200  143.4840 C   0  0  0  0  0  3  0  0  0  0  0  0
  185.4810  178.0660  144.5550 C   0  0  2  0  0  3  0  0  0  0  0  0
  184.6270  178.5800  143.3920 C   0  0  0  0  0  2  0  0  0  0  0  0
  185.8330  178.3880  141.5190 C   0  0  2  0  0  3  0  0  0  0  0  0
  184.7620  179.9150  140.0130 O   0  0  0  0  0  1  0  0  0  0  0  0
  185.1390  178.5770  140.1430 C   0  0  2  0  0  0  0  0  0  0  0  0
  183.8490  177.7460  140.0440 C   0  0  0  0  0  2  0  0  0  0  0  0
  182.5780  178.5120  140.3900 C   0  0  0  0  0  1  0  0  0  0  0  0
  186.0800  178.2530  138.9670 C   0  0  0  0  0  2  0  0  0  0  0  0
  185.3850  177.7550  137.7050 C   0  0  0  0  0  2  0  0  0  0  0  0
  186.3310  176.9130  136.8720 C   0  0  0  0  0  1  0  0  0  0  0  0
  185.9180  178.6990  146.9850 C   0  0  0  0  0  1  0  0  0  0  0  0
  186.0270  179.1130  145.5280 C   0  0  0  0  0  2  0  0  0  0  0  0
  189.5650  178.0460  142.7430 C   0  0  1  0  0  3  0  0  0  0  0  0
  190.2870  178.3290  144.0680 C   0  0  0  0  0  2  0  0  0  0  0  0
  191.0410  177.1190  144.6030 C   0  0  0  0  0  2  0  0  0  0  0  0
  190.7740  176.9420  146.0870 C   0  0  0  0  0  2  0  0  0  0  0  0
  189.4790  177.6320  146.4750 C   0  0  0  0  0  1  0  0  0  0  0  0
  190.0420  176.7810  142.0290 C   0  0  0  0  0  2  0  0  0  0  0  0
  191.0560  177.1080  140.9440 C   0  0  0  0  0  2  0  0  0  0  0  0
  190.4100  177.0520  139.5720 C   0  0  2  0  0  3  0  0  0  0  0  0
  190.5220  175.7440  139.0700 O   0  0  0  0  0  0  0  0  0  0  0  0
  191.4180  176.6960  138.5530 C   0  0  0  0  0  2  0  0  0  0  0  0
  1  8  1  0  0  0  0
  3 19  1  6  0  0  0
  3  6  1  0  0  0  0
  4  7  1  0  0  0  0
  5  2  1  1  0  0  0
  5  9  1  0  0  0  0
  5  3  1  0  0  0  0
  6  4  2  0  0  0  0
  7 18  1  6  0  0  0
  8  7  1  0  0  0  0
  9 11  1  6  0  0  0
  9  1  1  0  0  0  0
 11 10  1  6  0  0  0
 12 11  1  0  0  0  0
 12 13  1  0  0  0  0
 14 11  1  0  0  0  0
 15 14  1  0  0  0  0
 16 15  1  0  0  0  0
 18 17  1  0  0  0  0
 19 24  1  1  0  0  0
 19 20  1  0  0  0  0
 20 21  1  0  0  0  0
 21 22  1  0  0  0  0
 22 23  1  0  0  0  0
 25 24  1  0  0  0  0
 26 25  1  1  0  0  0
 27 26  1  0  0  0  0
 28 27  1  0  0  0  0
 28 26  1  0  0  0  0
M  END
>  <MODEL>
3

>  <REMARK>
 VINA RESULT:      -6.1      2.351      5.954
  Name = 
  12 active torsions:
  status: ('A' for Active; 'I' for Inactive)
    1  A    between atoms: C_3  and  C_7
    2  A    between atoms: C_3  and  C_11
    3  A    between atoms: C_3  and  C_27
    4  A    between atoms: C_4  and  C_12
    5  A    between atoms: C_4  and  C_24
    6  A    between atoms: C_6  and  C_11
    7  A    between atoms: C_9  and  C_13
    8  A    between atoms: C_9  and  C_18
    9  A    between atoms: C_10  and  C_13
   10  A    between atoms: C_13  and  C_24
   11  A    between atoms: C_14  and  C_18
   12  A    between atoms: C_19  and  C_21
                            x       y       z     vdW  Elec       q    Type
                         _______ _______ _______ _____ _____    ______ ____

>  <TORSDO>
F 12

$$$$
=
 OpenBabel10272402003D

 28 29  0  0  1  0  0  0  0  0999 V2000
  190.7860  177.8350  145.0830 O   0  0  0  0  0  0  0  0  0  0  0  0
  188.1050  178.7490  145.4690 O   0  0  0  0  0  1  0  0  0  0  0  0
  188.3480  177.3340  143.5410 C   0  0  1  0  0  3  0  0  0  0  0  0
  190.1510  175.7470  142.7830 C   0  0  0  0  0  3  0  0  0  0  0  0
  188.4120  177.4420  145.0770 C   0  0  1  0  0  3  0  0  0  0  0  0
  188.8590  176.0230  143.0160 C   0  0  0  0  0  3  0  0  0  0  0  0
  191.3220  176.6720  143.0050 C   0  0  2  0  0  3  0  0  0  0  0  0
  191.6830  176.9520  144.4670 C   0  0  0  0  0  2  0  0  0  0  0  0
  189.7820  177.0290  145.6410 C   0  0  2  0  0  3  0  0  0  0  0  0
  189.2570  175.8520  147.6620 O   0  0  0  0  0  1  0  0  0  0  0  0
  189.8440  177.0280  147.1920 C   0  0  2  0  0  0  0  0  0  0  0  0
  189.0340  178.1920  147.7890 C   0  0  0  0  0  2  0  0  0  0  0  0
  187.9770  177.7690  148.8010 C   0  0  0  0  0  1  0  0  0  0  0  0
  191.2930  177.0550  147.7170 C   0  0  0  0  0  2  0  0  0  0  0  0
  192.0200  175.7160  147.6650 C   0  0  0  0  0  2  0  0  0  0  0  0
  193.1310  175.6740  148.6950 C   0  0  0  0  0  1  0  0  0  0  0  0
  191.7660  177.3820  140.5980 C   0  0  0  0  0  1  0  0  0  0  0  0
  191.4770  177.8310  142.0190 C   0  0  0  0  0  2  0  0  0  0  0  0
  186.9520  177.6020  142.9570 C   0  0  1  0  0  3  0  0  0  0  0  0
  185.8090  177.5870  143.9840 C   0  0  0  0  0  2  0  0  0  0  0  0
  184.8780  178.7850  143.8530 C   0  0  0  0  0  2  0  0  0  0  0  0
  184.0490  178.9520  145.1130 C   0  0  0  0  0  2  0  0  0  0  0  0
  184.8290  178.4730  146.3240 C   0  0  0  0  0  1  0  0  0  0  0  0
  186.9280  178.8050  142.0150 C   0  0  0  0  0  2  0  0  0  0  0  0
  186.8730  178.3670  140.5600 C   0  0  0  0  0  2  0  0  0  0  0  0
  188.2690  178.1080  140.0230 C   0  0  2  0  0  3  0  0  0  0  0  0
  188.4770  178.9160  138.8920 O   0  0  0  0  0  0  0  0  0  0  0  0
  188.1890  177.5600  138.6540 C   0  0  0  0  0  2  0  0  0  0  0  0
  1  9  1  0  0  0  0
  3 19  1  1  0  0  0
  3  5  1  0  0  0  0
  4  7  1  0  0  0  0
  4  6  2  0  0  0  0
  5  2  1  6  0  0  0
  5  9  1  0  0  0  0
  6  3  1  0  0  0  0
  7 18  1  1  0  0  0
  7  8  1  0  0  0  0
  8  1  1  0  0  0  0
  9 11  1  1  0  0  0
 11 10  1  1  0  0  0
 11 14  1  0  0  0  0
 11 12  1  0  0  0  0
 12 13  1  0  0  0  0
 15 14  1  0  0  0  0
 15 16  1  0  0  0  0
 17 18  1  0  0  0  0
 19 24  1  1  0  0  0
 19 20  1  0  0  0  0
 21 20  1  0  0  0  0
 21 22  1  0  0  0  0
 22 23  1  0  0  0  0
 25 24  1  0  0  0  0
 26 25  1  6  0  0  0
 27 26  1  0  0  0  0
 28 27  1  0  0  0  0
 28 26  1  0  0  0  0
M  END
>  <MODEL>
4

>  <REMARK>
 VINA RESULT:      -6.1      1.956      5.835
  Name = 
  12 active torsions:
  status: ('A' for Active; 'I' for Inactive)
    1  A    between atoms: C_3  and  C_7
    2  A    between atoms: C_3  and  C_11
    3  A    between atoms: C_3  and  C_27
    4  A    between atoms: C_4  and  C_12
    5  A    between atoms: C_4  and  C_24
    6  A    between atoms: C_6  and  C_11
    7  A    between atoms: C_9  and  C_13
    8  A    between atoms: C_9  and  C_18
    9  A    between atoms: C_10  and  C_13
   10  A    between atoms: C_13  and  C_24
   11  A    between atoms: C_14  and  C_18
   12  A    between atoms: C_19  and  C_21
                            x       y       z     vdW  Elec       q    Type
                         _______ _______ _______ _____ _____    ______ ____

>  <TORSDO>
F 12

$$$$
=
 OpenBabel10272402003D

 28 29  0  0  1  0  0  0  0  0999 V2000
  190.0150  176.7440  141.7580 O   0  0  0  0  0  0  0  0  0  0  0  0
  187.2290  176.5060  142.3510 O   0  0  0  0  0  1  0  0  0  0  0  0
  188.4890  177.5040  144.1380 C   0  0  1  0  0  3  0  0  0  0  0  0
  190.7910  178.5200  144.2680 C   0  0  0  0  0  3  0  0  0  0  0  0
  187.9820  177.6350  142.6890 C   0  0  1  0  0  3  0  0  0  0  0  0
  189.4740  178.5720  144.5220 C   0  0  0  0  0  3  0  0  0  0  0  0
  191.5260  177.4130  143.5550 C   0  0  2  0  0  3  0  0  0  0  0  0
  191.2680  177.3000  142.0490 C   0  0  0  0  0  2  0  0  0  0  0  0
  189.1270  177.8270  141.6790 C   0  0  2  0  0  3  0  0  0  0  0  0
  189.2980  179.1850  139.7110 O   0  0  0  0  0  1  0  0  0  0  0  0
  188.6420  178.0650  140.2240 C   0  0  2  0  0  0  0  0  0  0  0  0
  187.1370  178.3770  140.1760 C   0  0  0  0  0  2  0  0  0  0  0  0
  186.5130  178.2580  138.7910 C   0  0  0  0  0  1  0  0  0  0  0  0
  188.9760  176.8790  139.2970 C   0  0  0  0  0  2  0  0  0  0  0  0
  190.1310  177.1240  138.3320 C   0  0  0  0  0  2  0  0  0  0  0  0
  190.9040  175.8420  138.0910 C   0  0  0  0  0  1  0  0  0  0  0  0
  191.8040  176.2950  145.8290 C   0  0  0  0  0  1  0  0  0  0  0  0
  191.7070  176.1030  144.3260 C   0  0  0  0  0  2  0  0  0  0  0  0
  187.3660  177.4550  145.1860 C   0  0  1  0  0  3  0  0  0  0  0  0
  187.8280  177.1160  146.6110 C   0  0  0  0  0  2  0  0  0  0  0  0
  187.2630  178.0640  147.6600 C   0  0  0  0  0  2  0  0  0  0  0  0
  188.2630  178.2690  148.7830 C   0  0  0  0  0  2  0  0  0  0  0  0
  189.6740  178.0150  148.2850 C   0  0  0  0  0  1  0  0  0  0  0  0
  186.4310  178.6600  145.1040 C   0  0  0  0  0  2  0  0  0  0  0  0
  185.0620  178.2630  144.5740 C   0  0  0  0  0  2  0  0  0  0  0  0
  184.6440  179.1710  143.4330 C   0  0  2  0  0  3  0  0  0  0  0  0
  183.2620  179.0250  143.2200 O   0  0  0  0  0  0  0  0  0  0  0  0
  184.1120  178.3640  142.3150 C   0  0  0  0  0  2  0  0  0  0  0  0
  1  8  1  0  0  0  0
  3  6  1  0  0  0  0
  3 19  1  1  0  0  0
  4  6  2  0  0  0  0
  5  2  1  6  0  0  0
  5  3  1  0  0  0  0
  7  4  1  0  0  0  0
  7 18  1  1  0  0  0
  8  7  1  0  0  0  0
  9 11  1  6  0  0  0
  9  1  1  0  0  0  0
  9  5  1  0  0  0  0
 11 10  1  6  0  0  0
 12 11  1  0  0  0  0
 13 12  1  0  0  0  0
 14 11  1  0  0  0  0
 15 14  1  0  0  0  0
 16 15  1  0  0  0  0
 18 17  1  0  0  0  0
 19 24  1  1  0  0  0
 19 20  1  0  0  0  0
 20 21  1  0  0  0  0
 21 22  1  0  0  0  0
 23 22  1  0  0  0  0
 25 24  1  0  0  0  0
 26 25  1  1  0  0  0
 27 26  1  0  0  0  0
 28 27  1  0  0  0  0
 28 26  1  0  0  0  0
M  END
>  <MODEL>
5

>  <REMARK>
 VINA RESULT:      -6.0      1.401      2.189
  Name = 
  12 active torsions:
  status: ('A' for Active; 'I' for Inactive)
    1  A    between atoms: C_3  and  C_7
    2  A    between atoms: C_3  and  C_11
    3  A    between atoms: C_3  and  C_27
    4  A    between atoms: C_4  and  C_12
    5  A    between atoms: C_4  and  C_24
    6  A    between atoms: C_6  and  C_11
    7  A    between atoms: C_9  and  C_13
    8  A    between atoms: C_9  and  C_18
    9  A    between atoms: C_10  and  C_13
   10  A    between atoms: C_13  and  C_24
   11  A    between atoms: C_14  and  C_18
   12  A    between atoms: C_19  and  C_21
                            x       y       z     vdW  Elec       q    Type
                         _______ _______ _______ _____ _____    ______ ____

>  <TORSDO>
F 12

$$$$
=
 OpenBabel10272402003D

 28 29  0  0  1  0  0  0  0  0999 V2000
  190.9450  177.6150  144.9890 O   0  0  0  0  0  0  0  0  0  0  0  0
  188.3400  178.6100  145.6180 O   0  0  0  0  0  1  0  0  0  0  0  0
  188.3870  177.3040  143.6000 C   0  0  1  0  0  3  0  0  0  0  0  0
  190.0620  175.6950  142.6250 C   0  0  0  0  0  3  0  0  0  0  0  0
  188.5610  177.3180  145.1310 C   0  0  1  0  0  3  0  0  0  0  0  0
  188.8020  176.0070  142.9660 C   0  0  0  0  0  3  0  0  0  0  0  0
  191.2840  176.5580  142.8150 C   0  0  2  0  0  3  0  0  0  0  0  0
  191.7580  176.7360  144.2610 C   0  0  0  0  0  2  0  0  0  0  0  0
  189.9490  176.8180  145.5710 C   0  0  2  0  0  3  0  0  0  0  0  0
  190.8080  177.8520  147.5550 O   0  0  0  0  0  1  0  0  0  0  0  0
  190.1180  176.7220  147.1110 C   0  0  2  0  0  0  0  0  0  0  0  0
  190.9670  175.5040  147.5100 C   0  0  0  0  0  2  0  0  0  0  0  0
  192.4310  175.8190  147.7850 C   0  0  0  0  0  1  0  0  0  0  0  0
  188.7630  176.7000  147.8450 C   0  0  0  0  0  2  0  0  0  0  0  0
  188.4890  177.9140  148.7270 C   0  0  0  0  0  2  0  0  0  0  0  0
  187.1530  178.5360  148.3750 C   0  0  0  0  0  1  0  0  0  0  0  0
  191.9710  177.4180  140.5160 C   0  0  0  0  0  1  0  0  0  0  0  0
  191.4210  177.7670  141.8870 C   0  0  0  0  0  2  0  0  0  0  0  0
  186.9660  177.6610  143.1340 C   0  0  1  0  0  3  0  0  0  0  0  0
  185.9160  177.7230  144.2530 C   0  0  0  0  0  2  0  0  0  0  0  0
  185.1670  179.0490  144.2920 C   0  0  0  0  0  2  0  0  0  0  0  0
  183.7560  178.8440  144.8130 C   0  0  0  0  0  2  0  0  0  0  0  0
  182.7430  179.1280  143.7200 C   0  0  0  0  0  1  0  0  0  0  0  0
  186.9410  178.8610  142.1880 C   0  0  0  0  0  2  0  0  0  0  0  0
  186.9160  178.4180  140.7330 C   0  0  0  0  0  2  0  0  0  0  0  0
  188.3000  178.5140  140.1190 C   0  0  2  0  0  3  0  0  0  0  0  0
  188.1820  178.4420  138.7200 O   0  0  0  0  0  0  0  0  0  0  0  0
  188.6090  177.2750  139.3760 C   0  0  0  0  0  2  0  0  0  0  0  0
  1  9  1  0  0  0  0
  3 19  1  1  0  0  0
  3  5  1  0  0  0  0
  4  7  1  0  0  0  0
  4  6  2  0  0  0  0
  5  9  1  0  0  0  0
  5  2  1  6  0  0  0
  6  3  1  0  0  0  0
  7 18  1  1  0  0  0
  7  8  1  0  0  0  0
  8  1  1  0  0  0  0
  9 11  1  1  0  0  0
 11 12  1  0  0  0  0
 11 10  1  1  0  0  0
 11 14  1  0  0  0  0
 12 13  1  0  0  0  0
 14 15  1  0  0  0  0
 16 15  1  0  0  0  0
 17 18  1  0  0  0  0
 19 24  1  1  0  0  0
 19 20  1  0  0  0  0
 20 21  1  0  0  0  0
 21 22  1  0  0  0  0
 23 22  1  0  0  0  0
 25 24  1  0  0  0  0
 26 25  1  1  0  0  0
 27 28  1  0  0  0  0
 27 26  1  0  0  0  0
 28 26  1  0  0  0  0
M  END
>  <MODEL>
6

>  <REMARK>
 VINA RESULT:      -5.9      1.860      5.709
  Name = 
  12 active torsions:
  status: ('A' for Active; 'I' for Inactive)
    1  A    between atoms: C_3  and  C_7
    2  A    between atoms: C_3  and  C_11
    3  A    between atoms: C_3  and  C_27
    4  A    between atoms: C_4  and  C_12
    5  A    between atoms: C_4  and  C_24
    6  A    between atoms: C_6  and  C_11
    7  A    between atoms: C_9  and  C_13
    8  A    between atoms: C_9  and  C_18
    9  A    between atoms: C_10  and  C_13
   10  A    between atoms: C_13  and  C_24
   11  A    between atoms: C_14  and  C_18
   12  A    between atoms: C_19  and  C_21
                            x       y       z     vdW  Elec       q    Type
                         _______ _______ _______ _____ _____    ______ ____

>  <TORSDO>
F 12

$$$$
=
 OpenBabel10272402003D

 28 29  0  0  1  0  0  0  0  0999 V2000
  185.6140  177.5620  145.7280 O   0  0  0  0  0  0  0  0  0  0  0  0
  187.3440  176.5380  143.6960 O   0  0  0  0  0  1  0  0  0  0  0  0
  186.0290  178.4090  142.9560 C   0  0  1  0  0  3  0  0  0  0  0  0
  184.6940  180.1660  144.1700 C   0  0  0  0  0  3  0  0  0  0  0  0
  187.1400  177.9060  143.8980 C   0  0  1  0  0  3  0  0  0  0  0  0
  185.5990  179.8200  143.2420 C   0  0  0  0  0  3  0  0  0  0  0  0
  183.9520  179.2340  145.0950 C   0  0  2  0  0  3  0  0  0  0  0  0
  184.7880  178.5890  146.2050 C   0  0  0  0  0  2  0  0  0  0  0  0
  186.8250  178.1800  145.3790 C   0  0  2  0  0  3  0  0  0  0  0  0
  187.9310  176.3950  146.5350 O   0  0  0  0  0  1  0  0  0  0  0  0
  187.9720  177.7780  146.3450 C   0  0  2  0  0  0  0  0  0  0  0  0
  187.7910  178.4180  147.7320 C   0  0  0  0  0  2  0  0  0  0  0  0
  189.0430  178.4050  148.5990 C   0  0  0  0  0  1  0  0  0  0  0  0
  189.3620  178.1170  145.7720 C   0  0  0  0  0  2  0  0  0  0  0  0
  190.2160  176.9100  145.4000 C   0  0  0  0  0  2  0  0  0  0  0  0
  191.4990  176.8970  146.2070 C   0  0  0  0  0  1  0  0  0  0  0  0
  181.8700  179.1670  143.6260 C   0  0  0  0  0  1  0  0  0  0  0  0
  182.8540  178.3730  144.4650 C   0  0  0  0  0  2  0  0  0  0  0  0
  186.3750  178.2810  141.4640 C   0  0  1  0  0  3  0  0  0  0  0  0
  185.2900  178.7880  140.5040 C   0  0  0  0  0  2  0  0  0  0  0  0
  183.9540  178.0810  140.6910 C   0  0  0  0  0  2  0  0  0  0  0  0
  182.8380  178.8730  140.0340 C   0  0  0  0  0  2  0  0  0  0  0  0
  183.4140  179.8960  139.0730 C   0  0  0  0  0  1  0  0  0  0  0  0
  187.7810  178.7880  141.1410 C   0  0  0  0  0  2  0  0  0  0  0  0
  188.5560  177.7770  140.3110 C   0  0  0  0  0  2  0  0  0  0  0  0
  189.0950  178.4200  139.0470 C   0  0  2  0  0  3  0  0  0  0  0  0
  188.0160  178.7510  138.2100 O   0  0  0  0  0  0  0  0  0  0  0  0
  188.7430  177.5960  137.8720 C   0  0  0  0  0  2  0  0  0  0  0  0
  1  8  1  0  0  0  0
  3 19  1  6  0  0  0
  3  6  1  0  0  0  0
  3  5  1  0  0  0  0
  4  7  1  0  0  0  0
  5  2  1  1  0  0  0
  5  9  1  0  0  0  0
  6  4  2  0  0  0  0
  7 18  1  6  0  0  0
  7  8  1  0  0  0  0
  9  1  1  0  0  0  0
  9 11  1  1  0  0  0
 11 10  1  1  0  0  0
 11 12  1  0  0  0  0
 12 13  1  0  0  0  0
 14 11  1  0  0  0  0
 15 14  1  0  0  0  0
 15 16  1  0  0  0  0
 17 18  1  0  0  0  0
 19 20  1  6  0  0  0
 20 21  1  0  0  0  0
 22 21  1  0  0  0  0
 23 22  1  0  0  0  0
 24 19  1  0  0  0  0
 25 24  1  0  0  0  0
 26 25  1  1  0  0  0
 27 26  1  0  0  0  0
 28 27  1  0  0  0  0
 28 26  1  0  0  0  0
M  END
>  <MODEL>
7

>  <REMARK>
 VINA RESULT:      -5.8      2.281      7.111
  Name = 
  12 active torsions:
  status: ('A' for Active; 'I' for Inactive)
    1  A    between atoms: C_3  and  C_7
    2  A    between atoms: C_3  and  C_11
    3  A    between atoms: C_3  and  C_27
    4  A    between atoms: C_4  and  C_12
    5  A    between atoms: C_4  and  C_24
    6  A    between atoms: C_6  and  C_11
    7  A    between atoms: C_9  and  C_13
    8  A    between atoms: C_9  and  C_18
    9  A    between atoms: C_10  and  C_13
   10  A    between atoms: C_13  and  C_24
   11  A    between atoms: C_14  and  C_18
   12  A    between atoms: C_19  and  C_21
                            x       y       z     vdW  Elec       q    Type
                         _______ _______ _______ _____ _____    ______ ____

>  <TORSDO>
F 12

$$$$
=
 OpenBabel10272402003D

 28 29  0  0  1  0  0  0  0  0999 V2000
  184.5450  179.4480  143.5050 O   0  0  0  0  0  0  0  0  0  0  0  0
  186.5330  179.5960  141.4570 O   0  0  0  0  0  1  0  0  0  0  0  0
  187.2080  178.2440  143.3250 C   0  0  1  0  0  3  0  0  0  0  0  0
  185.9490  177.1950  145.2390 C   0  0  0  0  0  3  0  0  0  0  0  0
  186.2370  178.4140  142.1410 C   0  0  1  0  0  3  0  0  0  0  0  0
  186.8390  177.1090  144.2380 C   0  0  0  0  0  3  0  0  0  0  0  0
  185.1520  178.4130  145.6310 C   0  0  2  0  0  3  0  0  0  0  0  0
  184.0440  178.8290  144.6580 C   0  0  0  0  0  2  0  0  0  0  0  0
  184.7630  178.4140  142.5820 C   0  0  2  0  0  3  0  0  0  0  0  0
  183.8030  179.7600  140.8470 O   0  0  0  0  0  1  0  0  0  0  0  0
  183.7580  178.4800  141.4010 C   0  0  2  0  0  0  0  0  0  0  0  0
  182.3130  178.2570  141.8770 C   0  0  0  0  0  2  0  0  0  0  0  0
  181.2830  179.1590  141.2080 C   0  0  0  0  0  1  0  0  0  0  0  0
  184.1140  177.4860  140.2780 C   0  0  0  0  0  2  0  0  0  0  0  0
  184.0410  178.0590  138.8660 C   0  0  0  0  0  2  0  0  0  0  0  0
  185.4140  178.0650  138.2230 C   0  0  0  0  0  1  0  0  0  0  0  0
  186.8050  179.0550  147.4620 C   0  0  0  0  0  1  0  0  0  0  0  0
  185.9200  179.5390  146.3280 C   0  0  0  0  0  2  0  0  0  0  0  0
  188.6790  178.0950  142.9060 C   0  0  1  0  0  3  0  0  0  0  0  0
  189.6950  178.2560  144.0460 C   0  0  0  0  0  2  0  0  0  0  0  0
  190.5320  177.0040  144.2760 C   0  0  0  0  0  2  0  0  0  0  0  0
  190.9350  176.8980  145.7350 C   0  0  0  0  0  2  0  0  0  0  0  0
  189.7310  177.1160  146.6320 C   0  0  0  0  0  1  0  0  0  0  0  0
  188.9190  176.8700  142.0240 C   0  0  0  0  0  2  0  0  0  0  0  0
  189.6830  177.2380  140.7620 C   0  0  0  0  0  2  0  0  0  0  0  0
  188.7340  177.4120  139.5910 C   0  0  2  0  0  3  0  0  0  0  0  0
  189.3670  176.9540  138.4220 O   0  0  0  0  0  0  0  0  0  0  0  0
  189.3150  178.3470  138.6050 C   0  0  0  0  0  2  0  0  0  0  0  0
  1  8  1  0  0  0  0
  3 19  1  6  0  0  0
  3  6  1  0  0  0  0
  4  7  1  0  0  0  0
  5  2  1  1  0  0  0
  5  9  1  0  0  0  0
  5  3  1  0  0  0  0
  6  4  2  0  0  0  0
  7 18  1  6  0  0  0
  8  7  1  0  0  0  0
  9 11  1  6  0  0  0
  9  1  1  0  0  0  0
 11 10  1  6  0  0  0
 11 12  1  0  0  0  0
 13 12  1  0  0  0  0
 14 11  1  0  0  0  0
 15 14  1  0  0  0  0
 16 15  1  0  0  0  0
 18 17  1  0  0  0  0
 19 24  1  1  0  0  0
 19 20  1  0  0  0  0
 20 21  1  0  0  0  0
 21 22  1  0  0  0  0
 22 23  1  0  0  0  0
 25 24  1  0  0  0  0
 26 25  1  1  0  0  0
 27 28  1  0  0  0  0
 27 26  1  0  0  0  0
 28 26  1  0  0  0  0
M  END
>  <MODEL>
8

>  <REMARK>
 VINA RESULT:      -5.4      2.237      6.109
  Name = 
  12 active torsions:
  status: ('A' for Active; 'I' for Inactive)
    1  A    between atoms: C_3  and  C_7
    2  A    between atoms: C_3  and  C_11
    3  A    between atoms: C_3  and  C_27
    4  A    between atoms: C_4  and  C_12
    5  A    between atoms: C_4  and  C_24
    6  A    between atoms: C_6  and  C_11
    7  A    between atoms: C_9  and  C_13
    8  A    between atoms: C_9  and  C_18
    9  A    between atoms: C_10  and  C_13
   10  A    between atoms: C_13  and  C_24
   11  A    between atoms: C_14  and  C_18
   12  A    between atoms: C_19  and  C_21
                            x       y       z     vdW  Elec       q    Type
                         _______ _______ _______ _____ _____    ______ ____

>  <TORSDO>
F 12

$$$$
=
 OpenBabel10272402003D

 28 29  0  0  1  0  0  0  0  0999 V2000
  191.3630  177.5510  144.1760 O   0  0  0  0  0  0  0  0  0  0  0  0
  189.1350  178.9680  145.2720 O   0  0  0  0  0  1  0  0  0  0  0  0
  188.5650  177.6800  143.3250 C   0  0  1  0  0  3  0  0  0  0  0  0
  189.7230  175.8150  142.0900 C   0  0  0  0  0  3  0  0  0  0  0  0
  189.0390  177.6590  144.7910 C   0  0  1  0  0  3  0  0  0  0  0  0
  188.6250  176.3340  142.6610 C   0  0  0  0  0  3  0  0  0  0  0  0
  191.0850  176.4590  142.0110 C   0  0  2  0  0  3  0  0  0  0  0  0
  191.8590  176.5500  143.3300 C   0  0  0  0  0  2  0  0  0  0  0  0
  190.3830  176.9310  144.9650 C   0  0  2  0  0  3  0  0  0  0  0  0
  191.6050  177.9210  146.7740 O   0  0  0  0  0  1  0  0  0  0  0  0
  190.8360  176.8030  146.4440 C   0  0  2  0  0  0  0  0  0  0  0  0
  191.7350  175.5740  146.6550 C   0  0  0  0  0  2  0  0  0  0  0  0
  192.6050  175.6360  147.9030 C   0  0  0  0  0  1  0  0  0  0  0  0
  189.6410  176.7710  147.4180 C   0  0  0  0  0  2  0  0  0  0  0  0
  189.5270  177.9830  148.3370 C   0  0  0  0  0  2  0  0  0  0  0  0
  188.1510  178.0430  148.9690 C   0  0  0  0  0  1  0  0  0  0  0  0
  190.8560  177.2830  139.6100 C   0  0  0  0  0  1  0  0  0  0  0  0
  191.2340  177.6310  141.0380 C   0  0  0  0  0  2  0  0  0  0  0  0
  187.1590  178.2720  143.1350 C   0  0  1  0  0  3  0  0  0  0  0  0
  186.7850  178.5930  141.6810 C   0  0  0  0  0  2  0  0  0  0  0  0
  185.2840  178.5270  141.4260 C   0  0  0  0  0  2  0  0  0  0  0  0
  184.9610  179.0400  140.0340 C   0  0  0  0  0  2  0  0  0  0  0  0
  185.8920  178.4150  139.0120 C   0  0  0  0  0  1  0  0  0  0  0  0
  186.0860  177.4970  143.8990 C   0  0  0  0  0  2  0  0  0  0  0  0
  185.3540  178.3930  144.8860 C   0  0  0  0  0  2  0  0  0  0  0  0
  185.8070  178.1100  146.3060 C   0  0  2  0  0  3  0  0  0  0  0  0
  184.7670  178.4460  147.1900 O   0  0  0  0  0  0  0  0  0  0  0  0
  185.8270  179.3640  147.0880 C   0  0  0  0  0  2  0  0  0  0  0  0
  1  9  1  0  0  0  0
  3 19  1  1  0  0  0
  3  5  1  0  0  0  0
  4  6  2  0  0  0  0
  5  9  1  0  0  0  0
  5  2  1  6  0  0  0
  6  3  1  0  0  0  0
  7 18  1  1  0  0  0
  7  4  1  0  0  0  0
  7  8  1  0  0  0  0
  8  1  1  0  0  0  0
  9 11  1  1  0  0  0
 11 12  1  0  0  0  0
 11 10  1  1  0  0  0
 11 14  1  0  0  0  0
 12 13  1  0  0  0  0
 14 15  1  0  0  0  0
 15 16  1  0  0  0  0
 17 18  1  0  0  0  0
 19 20  1  6  0  0  0
 19 24  1  0  0  0  0
 21 20  1  0  0  0  0
 22 21  1  0  0  0  0
 23 22  1  0  0  0  0
 24 25  1  0  0  0  0
 26 25  1  6  0  0  0
 26 28  1  0  0  0  0
 26 27  1  0  0  0  0
 28 27  1  0  0  0  0
M  END
>  <MODEL>
9

>  <REMARK>
 VINA RESULT:      -5.2      1.887      5.645
  Name = 
  12 active torsions:
  status: ('A' for Active; 'I' for Inactive)
    1  A    between atoms: C_3  and  C_7
    2  A    between atoms: C_3  and  C_11
    3  A    between atoms: C_3  and  C_27
    4  A    between atoms: C_4  and  C_12
    5  A    between atoms: C_4  and  C_24
    6  A    between atoms: C_6  and  C_11
    7  A    between atoms: C_9  and  C_13
    8  A    between atoms: C_9  and  C_18
    9  A    between atoms: C_10  and  C_13
   10  A    between atoms: C_13  and  C_24
   11  A    between atoms: C_14  and  C_18
   12  A    between atoms: C_19  and  C_21
                            x       y       z     vdW  Elec       q    Type
                         _______ _______ _______ _____ _____    ______ ____

>  <TORSDO>
F 12

$$$$
