=
 OpenBabel10272413383D

 32 36  0  0  1  0  0  0  0  0999 V2000
  187.3620  178.6030  136.7670 C   0  0  2  0  0  3  0  0  0  0  0  0
  188.7100  177.7130  141.6030 C   0  0  0  0  0  0  0  0  0  0  0  0
  193.3850  177.4600  140.2650 O   0  0  0  0  0  0  0  0  0  0  0  0
  187.6240  177.7910  143.9060 C   0  0  0  0  0  0  0  0  0  0  0  0
  187.7690  177.9180  145.3630 C   0  0  0  0  0  0  0  0  0  0  0  0
  187.4170  177.9570  139.5490 C   0  0  0  0  0  0  0  0  0  0  0  0
  189.7930  177.5250  139.4200 C   0  0  0  0  0  3  0  0  0  0  0  0
  188.0560  178.0460  148.1210 C   0  0  0  0  0  3  0  0  0  0  0  0
  188.4790  177.6870  137.2870 C   0  0  0  0  0  2  0  0  0  0  0  0
  192.3060  177.3680  140.8640 C   0  0  0  0  0  0  0  0  0  0  0  0
  189.8750  177.5090  140.8220 C   0  0  0  0  0  0  0  0  0  0  0  0
  191.1670  177.2710  141.5000 C   0  0  0  0  0  0  0  0  0  0  0  0
  190.1490  177.8930  143.6530 C   0  0  2  0  0  3  0  0  0  0  0  0
  186.8240  178.1340  147.5520 N   0  0  0  0  0  0  0  0  0  0  0  0
  186.0920  178.4440  137.5630 C   0  0  0  0  0  3  0  0  0  0  0  0
  188.5760  177.7570  138.7830 C   0  0  0  0  0  0  0  0  0  0  0  0
  186.6570  178.0700  146.2030 C   0  0  0  0  0  3  0  0  0  0  0  0
  186.1290  178.1870  138.8740 C   0  0  0  0  0  3  0  0  0  0  0  0
  191.1760  176.9930  142.9670 C   0  0  1  0  0  3  0  0  0  0  0  0
  190.1760  177.6550  145.0960 N   0  0  0  0  0  2  0  0  0  0  0  0
  187.4890  177.9340  140.9420 C   0  0  0  0  0  3  0  0  0  0  0  0
  186.4640  177.7070  143.4180 O   0  0  0  0  0  0  0  0  0  0  0  0
  189.1890  177.8890  147.3180 C   0  0  0  0  0  3  0  0  0  0  0  0
  188.8000  177.7280  143.0570 N   0  0  0  0  0  0  0  0  0  0  0  0
  189.0380  177.8360  145.9310 C   0  0  0  0  0  0  0  0  0  0  0  0
  191.8930  175.0580  144.0710 C   0  0  0  0  0  1  0  0  0  0  0  0
  190.8570  175.5900  143.2030 N   0  0  0  0  0  2  0  0  0  0  0  0
  187.0840  178.3390  135.2990 C   0  0  0  0  0  2  0  0  0  0  0  0
  187.4890  176.9210  134.9300 C   0  0  0  0  0  2  0  0  0  0  0  0
  186.2780  176.0930  134.6570 C   0  0  0  0  0  0  0  0  0  0  0  0
  184.9760  176.7570  134.3690 C   0  0  0  0  0  1  0  0  0  0  0  0
  186.3430  174.8750  134.6900 O   0  0  0  0  0  0  0  0  0  0  0  0
  1 28  1  6  0  0  0
  1  9  1  0  0  0  0
  1 15  1  0  0  0  0
  2 24  1  0  0  0  0
  3 10  2  0  0  0  0
  4  5  1  0  0  0  0
  5 25  2  0  0  0  0
  5 17  1  0  0  0  0
  6 21  2  0  0  0  0
  7 11  1  0  0  0  0
  9 16  1  0  0  0  0
 10 12  2  0  0  0  0
 11 12  1  0  0  0  0
 11  2  2  0  0  0  0
 12 19  1  0  0  0  0
 13 20  1  1  0  0  0
 14  8  1  0  0  0  0
 15 18  2  0  0  0  0
 16  7  2  0  0  0  0
 16  6  1  0  0  0  0
 17 14  2  0  0  0  0
 18  6  1  0  0  0  0
 19 27  1  6  0  0  0
 19 13  1  0  0  0  0
 20 25  1  0  0  0  0
 21  2  1  0  0  0  0
 22  4  2  0  0  0  0
 23  8  2  0  0  0  0
 24 13  1  0  0  0  0
 24  4  1  0  0  0  0
 25 23  1  0  0  0  0
 27 26  1  0  0  0  0
 29 28  1  0  0  0  0
 30 32  2  0  0  0  0
 30 29  1  0  0  0  0
 31 30  1  0  0  0  0
M  END
>  <MODEL>
1

>  <REMARK>
 VINA RESULT:      -8.2      0.000      0.000
  Name = 
  4 active torsions:
  status: ('A' for Active; 'I' for Inactive)
    1  A    between atoms: C_1  and  C_10
    2  A    between atoms: C_2  and  C_24
    3  A    between atoms: C_10  and  C_24
    4  A    between atoms: N_25  and  C_26
                            x       y       z     vdW  Elec       q    Type
                         _______ _______ _______ _____ _____    ______ ____

>  <TORSDO>
F 4

$$$$
=
 OpenBabel10272413383D

 32 36  0  0  1  0  0  0  0  0999 V2000
  188.3580  178.0600  145.0830 C   0  0  2  0  0  3  0  0  0  0  0  0
  188.6160  177.3090  140.0460 C   0  0  0  0  0  0  0  0  0  0  0  0
  184.5390  179.9010  139.4400 O   0  0  0  0  0  0  0  0  0  0  0  0
  190.3000  176.4070  138.3600 C   0  0  0  0  0  0  0  0  0  0  0  0
  190.7950  176.3590  136.9780 C   0  0  0  0  0  0  0  0  0  0  0  0
  188.9610  177.1200  142.4540 C   0  0  0  0  0  0  0  0  0  0  0  0
  186.9170  178.1020  141.6140 C   0  0  0  0  0  3  0  0  0  0  0  0
  191.6590  176.1840  134.3460 C   0  0  0  0  0  3  0  0  0  0  0  0
  187.2020  177.8450  144.0950 C   0  0  0  0  0  2  0  0  0  0  0  0
  185.5000  179.1340  139.3000 C   0  0  0  0  0  0  0  0  0  0  0  0
  187.3580  177.9110  140.2940 C   0  0  0  0  0  0  0  0  0  0  0  0
  186.5160  178.3230  139.1510 C   0  0  0  0  0  0  0  0  0  0  0  0
  188.4040  177.9270  137.6220 C   0  0  2  0  0  3  0  0  0  0  0  0
  192.4100  175.6660  135.3530 N   0  0  0  0  0  0  0  0  0  0  0  0
  189.4920  177.1000  144.8320 C   0  0  0  0  0  3  0  0  0  0  0  0
  187.7140  177.7190  142.6900 C   0  0  0  0  0  0  0  0  0  0  0  0
  192.0060  175.7350  136.6510 C   0  0  0  0  0  3  0  0  0  0  0  0
  189.7950  176.7030  143.5920 C   0  0  0  0  0  3  0  0  0  0  0  0
  186.8850  177.8680  137.7770 C   0  0  1  0  0  3  0  0  0  0  0  0
  188.7740  177.5180  136.2670 N   0  0  0  0  0  2  0  0  0  0  0  0
  189.4020  176.9200  141.1450 C   0  0  0  0  0  3  0  0  0  0  0  0
  190.9290  175.7740  139.2520 O   0  0  0  0  0  0  0  0  0  0  0  0
  190.4430  176.8100  134.6300 C   0  0  0  0  0  3  0  0  0  0  0  0
  189.0880  177.1410  138.6780 N   0  0  0  0  0  0  0  0  0  0  0  0
  190.0190  176.9040  135.9570 C   0  0  0  0  0  0  0  0  0  0  0  0
  185.3430  176.5760  136.5790 C   0  0  0  0  0  1  0  0  0  0  0  0
  186.4080  176.5070  137.5660 N   0  0  0  0  0  2  0  0  0  0  0  0
  187.8780  177.9230  146.5160 C   0  0  0  0  0  2  0  0  0  0  0  0
  186.4220  177.4870  146.5480 C   0  0  0  0  0  2  0  0  0  0  0  0
  185.5300  178.6750  146.6810 C   0  0  0  0  0  0  0  0  0  0  0  0
  184.3270  178.7990  145.8110 C   0  0  0  0  0  1  0  0  0  0  0  0
  185.7930  179.5570  147.4830 O   0  0  0  0  0  0  0  0  0  0  0  0
  1 28  1  1  0  0  0
  2 11  2  0  0  0  0
  2 21  1  0  0  0  0
  4 24  1  0  0  0  0
  4 22  2  0  0  0  0
  5  4  1  0  0  0  0
  6 16  1  0  0  0  0
  6 18  1  0  0  0  0
  7 16  2  0  0  0  0
  8 23  2  0  0  0  0
  8 14  1  0  0  0  0
  9  1  1  0  0  0  0
 10  3  2  0  0  0  0
 11  7  1  0  0  0  0
 12 10  2  0  0  0  0
 12 11  1  0  0  0  0
 13 20  1  6  0  0  0
 13 19  1  0  0  0  0
 13 24  1  0  0  0  0
 14 17  2  0  0  0  0
 15  1  1  0  0  0  0
 16  9  1  0  0  0  0
 17  5  1  0  0  0  0
 18 15  2  0  0  0  0
 19 27  1  1  0  0  0
 19 12  1  0  0  0  0
 21  6  2  0  0  0  0
 23 25  1  0  0  0  0
 24  2  1  0  0  0  0
 25 20  1  0  0  0  0
 25  5  2  0  0  0  0
 26 27  1  0  0  0  0
 28 29  1  0  0  0  0
 29 30  1  0  0  0  0
 30 32  2  0  0  0  0
 31 30  1  0  0  0  0
M  END
>  <MODEL>
2

>  <REMARK>
 VINA RESULT:      -8.1      3.111      8.773
  Name = 
  4 active torsions:
  status: ('A' for Active; 'I' for Inactive)
    1  A    between atoms: C_1  and  C_10
    2  A    between atoms: C_2  and  C_24
    3  A    between atoms: C_10  and  C_24
    4  A    between atoms: N_25  and  C_26
                            x       y       z     vdW  Elec       q    Type
                         _______ _______ _______ _____ _____    ______ ____

>  <TORSDO>
F 4

$$$$
=
 OpenBabel10272413383D

 32 36  0  0  1  0  0  0  0  0999 V2000
  182.4620  179.5230  139.2680 C   0  0  2  0  0  3  0  0  0  0  0  0
  186.2040  178.2700  142.4960 C   0  0  0  0  0  0  0  0  0  0  0  0
  189.4600  178.6800  138.8990 O   0  0  0  0  0  0  0  0  0  0  0  0
  186.5040  177.9790  145.0090 C   0  0  0  0  0  0  0  0  0  0  0  0
  187.3960  177.9630  146.1780 C   0  0  0  0  0  0  0  0  0  0  0  0
  184.0090  178.5910  141.4800 C   0  0  0  0  0  0  0  0  0  0  0  0
  185.9680  178.4400  140.0700 C   0  0  0  0  0  3  0  0  0  0  0  0
  189.0990  177.8240  148.3650 C   0  0  0  0  0  3  0  0  0  0  0  0
  183.7170  178.6850  138.9850 C   0  0  0  0  0  2  0  0  0  0  0  0
  188.8690  178.4050  139.9510 C   0  0  0  0  0  0  0  0  0  0  0  0
  186.7830  178.2820  141.2030 C   0  0  0  0  0  0  0  0  0  0  0  0
  188.2450  178.1150  141.0640 C   0  0  0  0  0  0  0  0  0  0  0  0
  188.5040  178.3850  143.4970 C   0  0  2  0  0  3  0  0  0  0  0  0
  187.7510  177.8370  148.5410 N   0  0  0  0  0  0  0  0  0  0  0  0
  181.8150  179.1400  140.5740 C   0  0  0  0  0  3  0  0  0  0  0  0
  184.5910  178.6040  140.2030 C   0  0  0  0  0  0  0  0  0  0  0  0
  186.8960  177.9000  147.4850 C   0  0  0  0  0  3  0  0  0  0  0  0
  182.5530  178.7490  141.6180 C   0  0  0  0  0  3  0  0  0  0  0  0
  189.0420  177.6830  142.2500 C   0  0  1  0  0  3  0  0  0  0  0  0
  189.3010  177.9970  144.6600 N   0  0  0  0  0  2  0  0  0  0  0  0
  184.8110  178.4260  142.6100 C   0  0  0  0  0  3  0  0  0  0  0  0
  185.2660  177.8210  145.1900 O   0  0  0  0  0  0  0  0  0  0  0  0
  189.6380  177.8800  147.0770 C   0  0  0  0  0  3  0  0  0  0  0  0
  187.0510  178.1380  143.6740 N   0  0  0  0  0  0  0  0  0  0  0  0
  188.7750  177.9610  145.9820 C   0  0  0  0  0  0  0  0  0  0  0  0
  190.2830  175.7530  142.7120 C   0  0  0  0  0  1  0  0  0  0  0  0
  188.9480  176.2370  142.4050 N   0  0  0  0  0  2  0  0  0  0  0  0
  181.4570  179.3900  138.1390 C   0  0  0  0  0  2  0  0  0  0  0  0
  180.4360  180.5150  138.2020 C   0  0  0  0  0  2  0  0  0  0  0  0
  180.7770  181.5770  137.2110 C   0  0  0  0  0  0  0  0  0  0  0  0
  181.1330  182.9440  137.6840 C   0  0  0  0  0  1  0  0  0  0  0  0
  180.7420  181.3390  136.0150 O   0  0  0  0  0  0  0  0  0  0  0  0
  1 28  1  6  0  0  0
  1 15  1  0  0  0  0
  2 21  1  0  0  0  0
  2 24  1  0  0  0  0
  3 10  2  0  0  0  0
  4 22  2  0  0  0  0
  4  5  1  0  0  0  0
  5 17  1  0  0  0  0
  6 18  1  0  0  0  0
  6 21  2  0  0  0  0
  7 16  2  0  0  0  0
  7 11  1  0  0  0  0
  8 14  1  0  0  0  0
  9  1  1  0  0  0  0
  9 16  1  0  0  0  0
 10 12  2  0  0  0  0
 11  2  2  0  0  0  0
 12 11  1  0  0  0  0
 12 19  1  0  0  0  0
 13 24  1  0  0  0  0
 13 20  1  1  0  0  0
 15 18  2  0  0  0  0
 16  6  1  0  0  0  0
 17 14  2  0  0  0  0
 19 27  1  1  0  0  0
 19 13  1  0  0  0  0
 20 25  1  0  0  0  0
 23  8  2  0  0  0  0
 24  4  1  0  0  0  0
 25  5  2  0  0  0  0
 25 23  1  0  0  0  0
 27 26  1  0  0  0  0
 28 29  1  0  0  0  0
 30 31  1  0  0  0  0
 30 29  1  0  0  0  0
 32 30  2  0  0  0  0
M  END
>  <MODEL>
3

>  <REMARK>
 VINA RESULT:      -8.0      3.347      4.265
  Name = 
  4 active torsions:
  status: ('A' for Active; 'I' for Inactive)
    1  A    between atoms: C_1  and  C_10
    2  A    between atoms: C_2  and  C_24
    3  A    between atoms: C_10  and  C_24
    4  A    between atoms: N_25  and  C_26
                            x       y       z     vdW  Elec       q    Type
                         _______ _______ _______ _____ _____    ______ ____

>  <TORSDO>
F 4

$$$$
=
 OpenBabel10272413383D

 32 36  0  0  1  0  0  0  0  0999 V2000
  182.3630  179.4950  140.2010 C   0  0  2  0  0  3  0  0  0  0  0  0
  186.9490  178.1100  141.9470 C   0  0  0  0  0  0  0  0  0  0  0  0
  188.9870  179.5420  137.7630 O   0  0  0  0  0  0  0  0  0  0  0  0
  187.9850  177.4010  144.1640 C   0  0  0  0  0  0  0  0  0  0  0  0
  189.1770  177.2740  145.0130 C   0  0  0  0  0  0  0  0  0  0  0  0
  184.5390  178.3570  141.6600 C   0  0  0  0  0  0  0  0  0  0  0  0
  186.0080  178.6930  139.7680 C   0  0  0  0  0  3  0  0  0  0  0  0
  191.4490  176.9330  146.5720 C   0  0  0  0  0  3  0  0  0  0  0  0
  183.5280  178.8710  139.4170 C   0  0  0  0  0  2  0  0  0  0  0  0
  188.7450  179.0140  138.8550 C   0  0  0  0  0  0  0  0  0  0  0  0
  187.1240  178.4250  140.5760 C   0  0  0  0  0  0  0  0  0  0  0  0
  188.4900  178.4550  140.0110 C   0  0  0  0  0  0  0  0  0  0  0  0
  189.4300  178.3040  142.2810 C   0  0  2  0  0  3  0  0  0  0  0  0
  190.2120  176.7590  147.1090 N   0  0  0  0  0  0  0  0  0  0  0  0
  182.1480  178.8070  141.5240 C   0  0  0  0  0  3  0  0  0  0  0  0
  184.7220  178.6700  140.3040 C   0  0  0  0  0  0  0  0  0  0  0  0
  189.0840  176.9160  146.3640 C   0  0  0  0  0  3  0  0  0  0  0  0
  183.1790  178.3190  142.2210 C   0  0  0  0  0  3  0  0  0  0  0  0
  189.6210  177.9080  140.8170 C   0  0  1  0  0  3  0  0  0  0  0  0
  190.5530  177.8040  143.0740 N   0  0  0  0  0  2  0  0  0  0  0  0
  185.6430  178.0820  142.4670 C   0  0  0  0  0  3  0  0  0  0  0  0
  186.8640  177.0710  144.6400 O   0  0  0  0  0  0  0  0  0  0  0  0
  191.5850  177.2850  145.2260 C   0  0  0  0  0  3  0  0  0  0  0  0
  188.1090  177.8630  142.7930 N   0  0  0  0  0  0  0  0  0  0  0  0
  190.4380  177.4660  144.4510 C   0  0  0  0  0  0  0  0  0  0  0  0
  190.5310  176.1520  139.5650 C   0  0  0  0  0  1  0  0  0  0  0  0
  189.6610  176.4570  140.6870 N   0  0  0  0  0  2  0  0  0  0  0  0
  181.0820  179.4550  139.3880 C   0  0  0  0  0  2  0  0  0  0  0  0
  180.5260  180.8580  139.2080 C   0  0  0  0  0  2  0  0  0  0  0  0
  180.9390  181.4120  137.8850 C   0  0  0  0  0  0  0  0  0  0  0  0
  181.1240  182.8810  137.7230 C   0  0  0  0  0  1  0  0  0  0  0  0
  181.1040  180.6710  136.9300 O   0  0  0  0  0  0  0  0  0  0  0  0
  1 28  1  6  0  0  0
  1 15  1  0  0  0  0
  2 21  1  0  0  0  0
  2 24  1  0  0  0  0
  3 10  2  0  0  0  0
  4 22  2  0  0  0  0
  4  5  1  0  0  0  0
  5 17  1  0  0  0  0
  6 18  1  0  0  0  0
  6 21  2  0  0  0  0
  7 16  2  0  0  0  0
  7 11  1  0  0  0  0
  8 14  1  0  0  0  0
  9  1  1  0  0  0  0
  9 16  1  0  0  0  0
 10 12  2  0  0  0  0
 11  2  2  0  0  0  0
 12 11  1  0  0  0  0
 12 19  1  0  0  0  0
 13 24  1  0  0  0  0
 13 20  1  1  0  0  0
 15 18  2  0  0  0  0
 16  6  1  0  0  0  0
 17 14  2  0  0  0  0
 19 27  1  1  0  0  0
 19 13  1  0  0  0  0
 20 25  1  0  0  0  0
 23  8  2  0  0  0  0
 24  4  1  0  0  0  0
 25  5  2  0  0  0  0
 25 23  1  0  0  0  0
 26 27  1  0  0  0  0
 29 28  1  0  0  0  0
 30 29  1  0  0  0  0
 31 30  1  0  0  0  0
 32 30  2  0  0  0  0
M  END
>  <MODEL>
4

>  <REMARK>
 VINA RESULT:      -7.9      3.415      4.609
  Name = 
  4 active torsions:
  status: ('A' for Active; 'I' for Inactive)
    1  A    between atoms: C_1  and  C_10
    2  A    between atoms: C_2  and  C_24
    3  A    between atoms: C_10  and  C_24
    4  A    between atoms: N_25  and  C_26
                            x       y       z     vdW  Elec       q    Type
                         _______ _______ _______ _____ _____    ______ ____

>  <TORSDO>
F 4

$$$$
=
 OpenBabel10272413383D

 32 36  0  0  1  0  0  0  0  0999 V2000
  189.8760  178.1720  144.6930 C   0  0  2  0  0  3  0  0  0  0  0  0
  190.5040  176.9170  139.7910 C   0  0  0  0  0  0  0  0  0  0  0  0
  186.0550  178.6160  138.7750 O   0  0  0  0  0  0  0  0  0  0  0  0
  192.4010  176.1600  138.2690 C   0  0  0  0  0  0  0  0  0  0  0  0
  192.9610  176.0490  136.9150 C   0  0  0  0  0  0  0  0  0  0  0  0
  190.7640  177.0700  142.2120 C   0  0  0  0  0  0  0  0  0  0  0  0
  188.6160  177.5510  141.2090 C   0  0  0  0  0  3  0  0  0  0  0  0
  193.9660  175.7420  134.3460 C   0  0  0  0  0  3  0  0  0  0  0  0
  188.8260  177.6350  143.7090 C   0  0  0  0  0  2  0  0  0  0  0  0
  187.1450  178.0310  138.7530 C   0  0  0  0  0  0  0  0  0  0  0  0
  189.1460  177.2980  139.9330 C   0  0  0  0  0  0  0  0  0  0  0  0
  188.2980  177.4130  138.7280 C   0  0  0  0  0  0  0  0  0  0  0  0
  190.2970  177.2050  137.3060 C   0  0  2  0  0  3  0  0  0  0  0  0
  194.7510  175.4910  135.4270 N   0  0  0  0  0  0  0  0  0  0  0  0
  191.1770  177.4190  144.5880 C   0  0  0  0  0  3  0  0  0  0  0  0
  189.4180  177.4490  142.3430 C   0  0  0  0  0  0  0  0  0  0  0  0
  194.2800  175.6290  136.6960 C   0  0  0  0  0  3  0  0  0  0  0  0
  191.6050  176.9480  143.4130 C   0  0  0  0  0  3  0  0  0  0  0  0
  188.8080  176.8820  137.4280 C   0  0  1  0  0  3  0  0  0  0  0  0
  190.7980  176.7220  136.0190 N   0  0  0  0  0  2  0  0  0  0  0  0
  191.2940  176.8090  140.9480 C   0  0  0  0  0  3  0  0  0  0  0  0
  193.0920  175.7610  139.2450 O   0  0  0  0  0  0  0  0  0  0  0  0
  192.6430  176.1570  134.5220 C   0  0  0  0  0  3  0  0  0  0  0  0
  191.0620  176.6860  138.4650 N   0  0  0  0  0  0  0  0  0  0  0  0
  192.1480  176.3200  135.8170 C   0  0  0  0  0  0  0  0  0  0  0  0
  187.5130  175.2050  136.4320 C   0  0  0  0  0  1  0  0  0  0  0  0
  188.5980  175.4410  137.3700 N   0  0  0  0  0  2  0  0  0  0  0  0
  189.3610  178.1120  146.1190 C   0  0  0  0  0  2  0  0  0  0  0  0
  187.9580  177.5300  146.1520 C   0  0  0  0  0  2  0  0  0  0  0  0
  187.2130  178.0450  147.3380 C   0  0  0  0  0  0  0  0  0  0  0  0
  187.8540  178.0240  148.6820 C   0  0  0  0  0  1  0  0  0  0  0  0
  186.0720  178.4620  147.2170 O   0  0  0  0  0  0  0  0  0  0  0  0
  1 28  1  1  0  0  0
  2 11  2  0  0  0  0
  2 21  1  0  0  0  0
  4 24  1  0  0  0  0
  4 22  2  0  0  0  0
  5  4  1  0  0  0  0
  6 16  1  0  0  0  0
  6 18  1  0  0  0  0
  7 16  2  0  0  0  0
  8 23  2  0  0  0  0
  8 14  1  0  0  0  0
  9  1  1  0  0  0  0
 10  3  2  0  0  0  0
 11  7  1  0  0  0  0
 12 10  2  0  0  0  0
 12 11  1  0  0  0  0
 13 20  1  6  0  0  0
 13 19  1  0  0  0  0
 13 24  1  0  0  0  0
 14 17  2  0  0  0  0
 15  1  1  0  0  0  0
 16  9  1  0  0  0  0
 17  5  1  0  0  0  0
 18 15  2  0  0  0  0
 19 27  1  1  0  0  0
 19 12  1  0  0  0  0
 21  6  2  0  0  0  0
 23 25  1  0  0  0  0
 24  2  1  0  0  0  0
 25 20  1  0  0  0  0
 25  5  2  0  0  0  0
 26 27  1  0  0  0  0
 28 29  1  0  0  0  0
 29 30  1  0  0  0  0
 30 31  1  0  0  0  0
 32 30  2  0  0  0  0
M  END
>  <MODEL>
5

>  <REMARK>
 VINA RESULT:      -7.8      3.499      9.061
  Name = 
  4 active torsions:
  status: ('A' for Active; 'I' for Inactive)
    1  A    between atoms: C_1  and  C_10
    2  A    between atoms: C_2  and  C_24
    3  A    between atoms: C_10  and  C_24
    4  A    between atoms: N_25  and  C_26
                            x       y       z     vdW  Elec       q    Type
                         _______ _______ _______ _____ _____    ______ ____

>  <TORSDO>
F 4

$$$$
=
 OpenBabel10272413383D

 32 36  0  0  1  0  0  0  0  0999 V2000
  190.6110  177.2100  143.5620 C   0  0  2  0  0  3  0  0  0  0  0  0
  188.5320  177.0230  138.9100 C   0  0  0  0  0  0  0  0  0  0  0  0
  192.4070  174.5750  137.2660 O   0  0  0  0  0  0  0  0  0  0  0  0
  186.2770  177.5190  137.8340 C   0  0  0  0  0  0  0  0  0  0  0  0
  185.3290  177.2900  136.7340 C   0  0  0  0  0  0  0  0  0  0  0  0
  189.0280  177.6270  141.2220 C   0  0  0  0  0  0  0  0  0  0  0  0
  190.7490  176.6140  139.8560 C   0  0  0  0  0  3  0  0  0  0  0  0
  183.5890  176.9410  134.6010 C   0  0  0  0  0  3  0  0  0  0  0  0
  191.3190  177.3010  142.2030 C   0  0  0  0  0  2  0  0  0  0  0  0
  191.3780  175.2540  137.3700 C   0  0  0  0  0  0  0  0  0  0  0  0
  189.8580  176.5400  138.7730 C   0  0  0  0  0  0  0  0  0  0  0  0
  190.2890  175.9720  137.4780 C   0  0  0  0  0  0  0  0  0  0  0  0
  187.9550  175.9890  136.6970 C   0  0  2  0  0  3  0  0  0  0  0  0
  183.1820  177.5950  135.7210 N   0  0  0  0  0  0  0  0  0  0  0  0
  189.3600  178.0500  143.5980 C   0  0  0  0  0  3  0  0  0  0  0  0
  190.3380  177.1440  141.0770 C   0  0  0  0  0  0  0  0  0  0  0  0
  184.0180  177.7820  136.7780 C   0  0  0  0  0  3  0  0  0  0  0  0
  188.6020  178.2000  142.5080 C   0  0  0  0  0  3  0  0  0  0  0  0
  189.4160  176.1510  136.2800 C   0  0  1  0  0  3  0  0  0  0  0  0
  187.0930  176.1260  135.5230 N   0  0  0  0  0  2  0  0  0  0  0  0
  188.1400  177.5640  140.1470 C   0  0  0  0  0  3  0  0  0  0  0  0
  185.9310  178.2700  138.7860 O   0  0  0  0  0  0  0  0  0  0  0  0
  184.8900  176.4400  134.5150 C   0  0  0  0  0  3  0  0  0  0  0  0
  187.5980  176.9170  137.7970 N   0  0  0  0  0  0  0  0  0  0  0  0
  185.7570  176.6100  135.5960 C   0  0  0  0  0  0  0  0  0  0  0  0
  190.1010  177.2780  134.3460 C   0  0  0  0  0  1  0  0  0  0  0  0
  189.6340  177.4740  135.7080 N   0  0  0  0  0  2  0  0  0  0  0  0
  191.5420  177.6280  144.6860 C   0  0  0  0  0  2  0  0  0  0  0  0
  191.7890  176.4630  145.6300 C   0  0  0  0  0  2  0  0  0  0  0  0
  191.2350  176.7680  146.9820 C   0  0  0  0  0  0  0  0  0  0  0  0
  189.7640  176.9190  147.1630 C   0  0  0  0  0  1  0  0  0  0  0  0
  191.9820  176.9170  147.9350 O   0  0  0  0  0  0  0  0  0  0  0  0
  1 15  1  0  0  0  0
  1 28  1  1  0  0  0
  2 21  1  0  0  0  0
  3 10  2  0  0  0  0
  4 22  2  0  0  0  0
  5 17  1  0  0  0  0
  5  4  1  0  0  0  0
  6 18  1  0  0  0  0
  7 16  2  0  0  0  0
  8 14  1  0  0  0  0
  9  1  1  0  0  0  0
 10 12  2  0  0  0  0
 11  2  2  0  0  0  0
 11  7  1  0  0  0  0
 12 11  1  0  0  0  0
 13 20  1  6  0  0  0
 13 24  1  0  0  0  0
 14 17  2  0  0  0  0
 16  6  1  0  0  0  0
 16  9  1  0  0  0  0
 18 15  2  0  0  0  0
 19 27  1  1  0  0  0
 19 13  1  0  0  0  0
 19 12  1  0  0  0  0
 20 25  1  0  0  0  0
 21  6  2  0  0  0  0
 23  8  2  0  0  0  0
 23 25  1  0  0  0  0
 24  4  1  0  0  0  0
 24  2  1  0  0  0  0
 25  5  2  0  0  0  0
 26 27  1  0  0  0  0
 28 29  1  0  0  0  0
 29 30  1  0  0  0  0
 30 31  1  0  0  0  0
 30 32  2  0  0  0  0
M  END
>  <MODEL>
6

>  <REMARK>
 VINA RESULT:      -7.5      3.502      8.588
  Name = 
  4 active torsions:
  status: ('A' for Active; 'I' for Inactive)
    1  A    between atoms: C_1  and  C_10
    2  A    between atoms: C_2  and  C_24
    3  A    between atoms: C_10  and  C_24
    4  A    between atoms: N_25  and  C_26
                            x       y       z     vdW  Elec       q    Type
                         _______ _______ _______ _____ _____    ______ ____

>  <TORSDO>
F 4

$$$$
=
 OpenBabel10272413383D

 32 36  0  0  1  0  0  0  0  0999 V2000
  183.0810  178.7530  143.3250 C   0  0  2  0  0  3  0  0  0  0  0  0
  187.8390  177.8620  141.7250 C   0  0  0  0  0  0  0  0  0  0  0  0
  189.1450  176.6390  146.2540 O   0  0  0  0  0  0  0  0  0  0  0  0
  189.0700  177.6440  139.5060 C   0  0  0  0  0  0  0  0  0  0  0  0
  190.2150  177.1220  138.7460 C   0  0  0  0  0  0  0  0  0  0  0  0
  185.5280  178.6330  141.8580 C   0  0  0  0  0  0  0  0  0  0  0  0
  186.7450  178.1480  143.8920 C   0  0  0  0  0  3  0  0  0  0  0  0
  192.4350  176.2280  137.3400 C   0  0  0  0  0  3  0  0  0  0  0  0
  184.3980  179.0220  144.0690 C   0  0  0  0  0  2  0  0  0  0  0  0
  189.1310  176.9850  145.0660 C   0  0  0  0  0  0  0  0  0  0  0  0
  187.8760  177.7910  143.1400 C   0  0  0  0  0  0  0  0  0  0  0  0
  189.1180  177.3490  143.8100 C   0  0  0  0  0  0  0  0  0  0  0  0
  190.0400  176.6570  141.6350 C   0  0  2  0  0  3  0  0  0  0  0  0
  191.3680  176.7550  136.6820 N   0  0  0  0  0  0  0  0  0  0  0  0
  183.1560  179.1840  141.8830 C   0  0  0  0  0  3  0  0  0  0  0  0
  185.5740  178.5580  143.2590 C   0  0  0  0  0  0  0  0  0  0  0  0
  190.2710  177.2040  137.3490 C   0  0  0  0  0  3  0  0  0  0  0  0
  184.2950  179.0810  141.1930 C   0  0  0  0  0  3  0  0  0  0  0  0
  190.3740  177.2370  143.0090 C   0  0  1  0  0  3  0  0  0  0  0  0
  191.2690  176.5080  140.8550 N   0  0  0  0  0  2  0  0  0  0  0  0
  186.6520  178.2870  141.1060 C   0  0  0  0  0  3  0  0  0  0  0  0
  188.1720  178.2780  138.8870 O   0  0  0  0  0  0  0  0  0  0  0  0
  192.4210  176.1340  138.7340 C   0  0  0  0  0  3  0  0  0  0  0  0
  189.0020  177.4600  140.9440 N   0  0  0  0  0  0  0  0  0  0  0  0
  191.2970  176.5750  139.4340 C   0  0  0  0  0  0  0  0  0  0  0  0
  191.7040  178.8250  144.0990 C   0  0  0  0  0  1  0  0  0  0  0  0
  190.9850  178.5530  142.8670 N   0  0  0  0  0  2  0  0  0  0  0  0
  181.9210  179.4520  144.0100 C   0  0  0  0  0  2  0  0  0  0  0  0
  180.7100  179.4900  143.0930 C   0  0  0  0  0  2  0  0  0  0  0  0
  180.2160  178.1070  142.8300 C   0  0  0  0  0  0  0  0  0  0  0  0
  179.9820  177.6590  141.4290 C   0  0  0  0  0  1  0  0  0  0  0  0
  179.9820  177.3490  143.7570 O   0  0  0  0  0  0  0  0  0  0  0  0
  1 28  1  1  0  0  0
  1  9  1  0  0  0  0
  2 11  1  0  0  0  0
  4 24  1  0  0  0  0
  5 25  1  0  0  0  0
  5  4  1  0  0  0  0
  6 16  2  0  0  0  0
  8 23  1  0  0  0  0
 10  3  2  0  0  0  0
 11 12  1  0  0  0  0
 11  7  2  0  0  0  0
 12 10  2  0  0  0  0
 13 20  1  6  0  0  0
 13 19  1  0  0  0  0
 14  8  2  0  0  0  0
 14 17  1  0  0  0  0
 15  1  1  0  0  0  0
 16  7  1  0  0  0  0
 16  9  1  0  0  0  0
 17  5  2  0  0  0  0
 18  6  1  0  0  0  0
 18 15  2  0  0  0  0
 19 27  1  6  0  0  0
 19 12  1  0  0  0  0
 21  2  2  0  0  0  0
 21  6  1  0  0  0  0
 22  4  2  0  0  0  0
 23 25  2  0  0  0  0
 24 13  1  0  0  0  0
 24  2  1  0  0  0  0
 25 20  1  0  0  0  0
 27 26  1  0  0  0  0
 29 28  1  0  0  0  0
 30 29  1  0  0  0  0
 30 32  2  0  0  0  0
 31 30  1  0  0  0  0
M  END
>  <MODEL>
7

>  <REMARK>
 VINA RESULT:      -7.4      3.641      6.910
  Name = 
  4 active torsions:
  status: ('A' for Active; 'I' for Inactive)
    1  A    between atoms: C_1  and  C_10
    2  A    between atoms: C_2  and  C_24
    3  A    between atoms: C_10  and  C_24
    4  A    between atoms: N_25  and  C_26
                            x       y       z     vdW  Elec       q    Type
                         _______ _______ _______ _____ _____    ______ ____

>  <TORSDO>
F 4

$$$$
=
 OpenBabel10272413383D

 32 36  0  0  1  0  0  0  0  0999 V2000
  189.2090  176.9140  146.2020 C   0  0  2  0  0  3  0  0  0  0  0  0
  187.2200  177.8960  141.6120 C   0  0  0  0  0  0  0  0  0  0  0  0
  191.1660  175.9970  139.4830 O   0  0  0  0  0  0  0  0  0  0  0  0
  184.9770  178.6230  140.6470 C   0  0  0  0  0  0  0  0  0  0  0  0
  184.0530  178.6710  139.5050 C   0  0  0  0  0  0  0  0  0  0  0  0
  187.6630  177.8950  144.0110 C   0  0  0  0  0  0  0  0  0  0  0  0
  189.4250  177.2860  142.4700 C   0  0  0  0  0  3  0  0  0  0  0  0
  182.3590  178.8580  137.3150 C   0  0  0  0  0  3  0  0  0  0  0  0
  189.9400  177.3570  144.9270 C   0  0  0  0  0  2  0  0  0  0  0  0
  190.1240  176.6150  139.7340 C   0  0  0  0  0  0  0  0  0  0  0  0
  188.5560  177.4810  141.3850 C   0  0  0  0  0  0  0  0  0  0  0  0
  189.0210  177.2670  139.9980 C   0  0  0  0  0  0  0  0  0  0  0  0
  186.7020  177.4550  139.1950 C   0  0  2  0  0  3  0  0  0  0  0  0
  181.9200  179.1980  138.5560 N   0  0  0  0  0  0  0  0  0  0  0  0
  187.9430  177.7000  146.4230 C   0  0  0  0  0  3  0  0  0  0  0  0
  188.9830  177.4810  143.7770 C   0  0  0  0  0  0  0  0  0  0  0  0
  182.7330  179.1190  139.6440 C   0  0  0  0  0  3  0  0  0  0  0  0
  187.2020  178.1150  145.3910 C   0  0  0  0  0  3  0  0  0  0  0  0
  188.1680  177.7360  138.8660 C   0  0  1  0  0  3  0  0  0  0  0  0
  185.8590  177.8770  138.0760 N   0  0  0  0  0  2  0  0  0  0  0  0
  186.7960  178.0980  142.9360 C   0  0  0  0  0  3  0  0  0  0  0  0
  184.5990  179.1010  141.7520 O   0  0  0  0  0  0  0  0  0  0  0  0
  183.6700  178.4110  137.1330 C   0  0  0  0  0  3  0  0  0  0  0  0
  186.3080  178.0660  140.4880 N   0  0  0  0  0  0  0  0  0  0  0  0
  184.5140  178.3090  138.2410 C   0  0  0  0  0  0  0  0  0  0  0  0
  188.9810  179.3190  137.3460 C   0  0  0  0  0  1  0  0  0  0  0  0
  188.3720  179.1640  138.6560 N   0  0  0  0  0  2  0  0  0  0  0  0
  190.1110  177.0420  147.4160 C   0  0  0  0  0  2  0  0  0  0  0  0
  191.5630  177.1710  146.9850 C   0  0  0  0  0  2  0  0  0  0  0  0
  192.3080  175.9160  147.2950 C   0  0  0  0  0  0  0  0  0  0  0  0
  193.0180  175.7780  148.5960 C   0  0  0  0  0  1  0  0  0  0  0  0
  192.3570  175.0110  146.4780 O   0  0  0  0  0  0  0  0  0  0  0  0
  1 15  1  0  0  0  0
  1 28  1  1  0  0  0
  2 21  1  0  0  0  0
  3 10  2  0  0  0  0
  4 22  2  0  0  0  0
  5 17  1  0  0  0  0
  5  4  1  0  0  0  0
  6 18  1  0  0  0  0
  7 16  2  0  0  0  0
  8 14  1  0  0  0  0
  9  1  1  0  0  0  0
 10 12  2  0  0  0  0
 11  2  2  0  0  0  0
 11  7  1  0  0  0  0
 12 11  1  0  0  0  0
 13 20  1  6  0  0  0
 13 24  1  0  0  0  0
 14 17  2  0  0  0  0
 16  6  1  0  0  0  0
 16  9  1  0  0  0  0
 18 15  2  0  0  0  0
 19 27  1  1  0  0  0
 19 13  1  0  0  0  0
 19 12  1  0  0  0  0
 20 25  1  0  0  0  0
 21  6  2  0  0  0  0
 23  8  2  0  0  0  0
 23 25  1  0  0  0  0
 24  4  1  0  0  0  0
 24  2  1  0  0  0  0
 25  5  2  0  0  0  0
 26 27  1  0  0  0  0
 29 30  1  0  0  0  0
 29 28  1  0  0  0  0
 30 31  1  0  0  0  0
 32 30  2  0  0  0  0
M  END
>  <MODEL>
8

>  <REMARK>
 VINA RESULT:      -7.2      3.066      8.256
  Name = 
  4 active torsions:
  status: ('A' for Active; 'I' for Inactive)
    1  A    between atoms: C_1  and  C_10
    2  A    between atoms: C_2  and  C_24
    3  A    between atoms: C_10  and  C_24
    4  A    between atoms: N_25  and  C_26
                            x       y       z     vdW  Elec       q    Type
                         _______ _______ _______ _____ _____    ______ ____

>  <TORSDO>
F 4

$$$$
=
 OpenBabel10272413383D

 32 36  0  0  1  0  0  0  0  0999 V2000
  188.3330  177.6290  136.7230 C   0  0  2  0  0  3  0  0  0  0  0  0
  187.3230  178.0660  141.7020 C   0  0  0  0  0  0  0  0  0  0  0  0
  182.5480  177.9310  140.7560 O   0  0  0  0  0  0  0  0  0  0  0  0
  188.6040  177.9490  143.9010 C   0  0  0  0  0  0  0  0  0  0  0  0
  188.5970  177.7140  145.3520 C   0  0  0  0  0  0  0  0  0  0  0  0
  188.4540  178.0860  139.5400 C   0  0  0  0  0  0  0  0  0  0  0  0
  186.0450  178.2830  139.6300 C   0  0  0  0  0  3  0  0  0  0  0  0
  188.5590  177.3810  148.1070 C   0  0  0  0  0  3  0  0  0  0  0  0
  187.1820  178.3930  137.3940 C   0  0  0  0  0  2  0  0  0  0  0  0
  183.6600  178.0930  141.2740 C   0  0  0  0  0  0  0  0  0  0  0  0
  186.0820  178.2000  141.0310 C   0  0  0  0  0  0  0  0  0  0  0  0
  184.8350  178.2630  141.8240 C   0  0  0  0  0  0  0  0  0  0  0  0
  186.0880  177.6100  143.8390 C   0  0  2  0  0  3  0  0  0  0  0  0
  189.7400  177.4540  147.4380 N   0  0  0  0  0  0  0  0  0  0  0  0
  189.6450  177.8650  137.4260 C   0  0  0  0  0  3  0  0  0  0  0  0
  187.2200  178.2170  138.8840 C   0  0  0  0  0  0  0  0  0  0  0  0
  189.7840  177.6220  146.0880 C   0  0  0  0  0  3  0  0  0  0  0  0
  189.6950  178.0320  138.7510 C   0  0  0  0  0  3  0  0  0  0  0  0
  184.9250  178.4430  143.3030 C   0  0  1  0  0  3  0  0  0  0  0  0
  186.1610  177.7500  145.2940 N   0  0  0  0  0  2  0  0  0  0  0  0
  188.4980  178.0110  140.9320 C   0  0  0  0  0  3  0  0  0  0  0  0
  189.7050  178.1810  143.3300 O   0  0  0  0  0  0  0  0  0  0  0  0
  187.3520  177.4740  147.4090 C   0  0  0  0  0  3  0  0  0  0  0  0
  187.3590  177.9470  143.1530 N   0  0  0  0  0  0  0  0  0  0  0  0
  187.3780  177.6310  146.0220 C   0  0  0  0  0  0  0  0  0  0  0  0
  183.9920  180.2810  144.4130 C   0  0  0  0  0  1  0  0  0  0  0  0
  185.1280  179.8530  143.6150 N   0  0  0  0  0  2  0  0  0  0  0  0
  188.4580  178.0140  135.2610 C   0  0  0  0  0  2  0  0  0  0  0  0
  187.2120  177.6010  134.4950 C   0  0  0  0  0  2  0  0  0  0  0  0
  186.9530  176.1430  134.6800 C   0  0  0  0  0  0  0  0  0  0  0  0
  185.6770  175.6900  135.3000 C   0  0  0  0  0  1  0  0  0  0  0  0
  187.7910  175.3210  134.3460 O   0  0  0  0  0  0  0  0  0  0  0  0
  1 28  1  6  0  0  0
  1  9  1  0  0  0  0
  1 15  1  0  0  0  0
  2 24  1  0  0  0  0
  3 10  2  0  0  0  0
  4  5  1  0  0  0  0
  5 25  2  0  0  0  0
  5 17  1  0  0  0  0
  6 21  1  0  0  0  0
  7 11  2  0  0  0  0
  9 16  1  0  0  0  0
 10 12  2  0  0  0  0
 11  2  1  0  0  0  0
 11 12  1  0  0  0  0
 12 19  1  0  0  0  0
 13 20  1  1  0  0  0
 14  8  1  0  0  0  0
 15 18  2  0  0  0  0
 16  6  2  0  0  0  0
 16  7  1  0  0  0  0
 17 14  2  0  0  0  0
 18  6  1  0  0  0  0
 19 27  1  6  0  0  0
 19 13  1  0  0  0  0
 20 25  1  0  0  0  0
 21  2  2  0  0  0  0
 22  4  2  0  0  0  0
 23  8  2  0  0  0  0
 24 13  1  0  0  0  0
 24  4  1  0  0  0  0
 25 23  1  0  0  0  0
 27 26  1  0  0  0  0
 29 30  1  0  0  0  0
 29 28  1  0  0  0  0
 30 31  1  0  0  0  0
 32 30  2  0  0  0  0
M  END
>  <MODEL>
9

>  <REMARK>
 VINA RESULT:      -7.1      2.026      4.198
  Name = 
  4 active torsions:
  status: ('A' for Active; 'I' for Inactive)
    1  A    between atoms: C_1  and  C_10
    2  A    between atoms: C_2  and  C_24
    3  A    between atoms: C_10  and  C_24
    4  A    between atoms: N_25  and  C_26
                            x       y       z     vdW  Elec       q    Type
                         _______ _______ _______ _____ _____    ______ ____

>  <TORSDO>
F 4

$$$$
