=
 OpenBabel10272400443D

 25 27  0  0  1  0  0  0  0  0999 V2000
  187.5170  178.0240  144.7060 N   0  0  1  0  0  0  0  0  0  0  0  0
  186.2130  176.8970  146.3420 O   0  0  0  0  0  1  0  0  0  0  0  0
  185.8100  179.1950  145.9290 N   0  0  0  0  0  0  0  0  0  0  0  0
  185.1580  179.2300  147.1160 O   0  0  0  0  0  1  0  0  0  0  0  0
  186.5870  177.7100  143.6110 C   0  0  0  0  0  2  0  0  0  0  0  0
  184.8170  178.8890  144.8980 C   0  0  0  0  0  2  0  0  0  0  0  0
  185.4930  178.7730  143.5340 C   0  0  2  0  0  3  0  0  0  0  0  0
  186.8090  178.1180  145.9920 C   0  0  2  0  0  3  0  0  0  0  0  0
  188.6710  177.1130  144.8110 C   0  0  2  0  0  3  0  0  0  0  0  0
  189.0400  176.5820  142.2290 C   0  0  0  0  0  1  0  0  0  0  0  0
  189.6520  177.6600  145.8410 C   0  0  2  0  0  3  0  0  0  0  0  0
  191.4800  176.7350  147.1990 C   0  0  0  0  0  0  0  0  0  0  0  0
  190.9460  177.4200  145.1680 C   0  0  0  0  0  0  0  0  0  0  0  0
  191.9150  176.9440  145.8690 N   0  0  0  0  0  0  0  0  0  0  0  0
  192.2860  176.5590  148.1490 O   0  0  0  0  0  0  0  0  0  0  0  0
  189.5400  176.9980  143.5680 C   0  0  2  0  0  3  0  0  0  0  0  0
  190.8050  177.1380  143.7900 N   0  0  0  0  0  2  0  0  0  0  0  0
  189.7050  176.7420  147.4160 S   0  0  0  0  0  0  0  0  0  0  0  0
  184.4800  178.4000  142.5090 C   0  0  0  0  0  3  0  0  0  0  0  0
  184.5800  178.8430  141.2590 C   0  0  0  0  0  3  0  0  0  0  0  0
  183.6190  178.5150  140.1910 C   0  0  0  0  0  0  0  0  0  0  0  0
  182.9610  177.4090  140.2940 N   0  0  0  0  0  2  0  0  0  0  0  0
  183.3720  179.3810  139.0180 C   0  0  0  0  0  0  0  0  0  0  0  0
  184.0700  180.5760  138.8830 O   0  0  0  0  0  1  0  0  0  0  0  0
  182.5380  179.0580  138.1320 O   0  0  0  0  0  0  0  0  0  0  0  0
  1  5  1  6  0  0  0
  1  8  1  0  0  0  0
  3  8  1  0  0  0  0
  3  4  1  0  0  0  0
  6  3  1  0  0  0  0
  7 19  1  6  0  0  0
  7  5  1  0  0  0  0
  7  6  1  0  0  0  0
  8  2  1  6  0  0  0
  9  1  1  6  0  0  0
  9 11  1  0  0  0  0
 11 13  1  6  0  0  0
 11 18  1  0  0  0  0
 12 18  1  0  0  0  0
 12 15  2  0  0  0  0
 13 14  2  0  0  0  0
 14 12  1  0  0  0  0
 16 10  1  1  0  0  0
 16 17  1  0  0  0  0
 16  9  1  0  0  0  0
 17 13  1  0  0  0  0
 20 19  2  0  0  0  0
 21 22  2  0  0  0  0
 21 20  1  0  0  0  0
 23 21  1  0  0  0  0
 24 23  1  0  0  0  0
 25 23  2  0  0  0  0
M  END
>  <MODEL>
1

>  <REMARK>
 VINA RESULT:      -8.3      0.000      0.000
  Name = 
  4 active torsions:
  status: ('A' for Active; 'I' for Inactive)
    1  A    between atoms: C_1  and  N_3
    2  A    between atoms: C_2  and  CA_21
    3  A    between atoms: C_6  and  C_23
    4  A    between atoms: C_15  and  CA_21
                            x       y       z     vdW  Elec       q    Type
                         _______ _______ _______ _____ _____    ______ ____

>  <TORSDO>
F 4

$$$$
=
 OpenBabel10272400443D

 25 27  0  0  1  0  0  0  0  0999 V2000
  189.9600  177.3710  142.3350 N   0  0  1  0  0  0  0  0  0  0  0  0
  189.7810  175.0680  142.8920 O   0  0  0  0  0  1  0  0  0  0  0  0
  191.5920  176.3260  143.7590 N   0  0  0  0  0  0  0  0  0  0  0  0
  192.2040  175.1470  144.0210 O   0  0  0  0  0  1  0  0  0  0  0  0
  189.1620  177.8110  143.4890 C   0  0  0  0  0  2  0  0  0  0  0  0
  190.8320  176.6960  144.9530 C   0  0  0  0  0  2  0  0  0  0  0  0
  190.0640  177.9920  144.7080 C   0  0  2  0  0  3  0  0  0  0  0  0
  190.6730  176.1190  142.6300 C   0  0  2  0  0  3  0  0  0  0  0  0
  189.2050  177.2570  141.0730 C   0  0  2  0  0  3  0  0  0  0  0  0
  186.9340  178.4260  141.8220 C   0  0  0  0  0  1  0  0  0  0  0  0
  190.1270  177.5830  139.9040 C   0  0  2  0  0  3  0  0  0  0  0  0
  190.1310  177.1370  137.4880 C   0  0  0  0  0  0  0  0  0  0  0  0
  189.2420  178.4120  139.0580 C   0  0  0  0  0  0  0  0  0  0  0  0
  189.2400  178.1950  137.7890 N   0  0  0  0  0  0  0  0  0  0  0  0
  190.5400  176.9170  136.3180 O   0  0  0  0  0  0  0  0  0  0  0  0
  188.0770  178.2600  140.8840 C   0  0  2  0  0  3  0  0  0  0  0  0
  188.0940  178.8680  139.7440 N   0  0  0  0  0  2  0  0  0  0  0  0
  190.6220  176.1480  138.8930 S   0  0  0  0  0  0  0  0  0  0  0  0
  189.2490  178.3190  145.9100 C   0  0  0  0  0  3  0  0  0  0  0  0
  188.0490  177.7740  146.0890 C   0  0  0  0  0  3  0  0  0  0  0  0
  187.1860  178.0470  147.2520 C   0  0  0  0  0  0  0  0  0  0  0  0
  187.5480  177.5650  148.3950 N   0  0  0  0  0  2  0  0  0  0  0  0
  185.9400  178.8390  147.1790 C   0  0  0  0  0  0  0  0  0  0  0  0
  184.7710  178.2450  146.7170 O   0  0  0  0  0  0  0  0  0  0  0  0
  185.9130  180.0480  147.5310 O   0  0  0  0  0  1  0  0  0  0  0  0
  1  8  1  0  0  0  0
  1  5  1  1  0  0  0
  3  4  1  0  0  0  0
  3  6  1  0  0  0  0
  5  7  1  0  0  0  0
  7  6  1  0  0  0  0
  7 19  1  1  0  0  0
  8  2  1  1  0  0  0
  8  3  1  0  0  0  0
  9  1  1  1  0  0  0
 11 18  1  6  0  0  0
 11  9  1  0  0  0  0
 12 14  1  0  0  0  0
 12 18  1  0  0  0  0
 13 17  1  0  0  0  0
 13 11  1  0  0  0  0
 14 13  2  0  0  0  0
 15 12  2  0  0  0  0
 16  9  1  0  0  0  0
 16 10  1  6  0  0  0
 17 16  1  0  0  0  0
 19 20  2  0  0  0  0
 20 21  1  0  0  0  0
 21 22  2  0  0  0  0
 23 21  1  0  0  0  0
 23 25  1  0  0  0  0
 24 23  2  0  0  0  0
M  END
>  <MODEL>
2

>  <REMARK>
 VINA RESULT:      -8.1      3.832      7.067
  Name = 
  4 active torsions:
  status: ('A' for Active; 'I' for Inactive)
    1  A    between atoms: C_1  and  N_3
    2  A    between atoms: C_2  and  CA_21
    3  A    between atoms: C_6  and  C_23
    4  A    between atoms: C_15  and  CA_21
                            x       y       z     vdW  Elec       q    Type
                         _______ _______ _______ _____ _____    ______ ____

>  <TORSDO>
F 4

$$$$
=
 OpenBabel10272400443D

 25 27  0  0  1  0  0  0  0  0999 V2000
  189.2840  177.5890  143.0910 N   0  0  1  0  0  0  0  0  0  0  0  0
  187.0280  176.8920  142.8250 O   0  0  0  0  0  1  0  0  0  0  0  0
  187.7600  178.8660  141.7400 N   0  0  0  0  0  0  0  0  0  0  0  0
  186.4540  179.1980  141.5990 O   0  0  0  0  0  1  0  0  0  0  0  0
  189.7570  176.8280  141.9250 C   0  0  0  0  0  2  0  0  0  0  0  0
  188.1520  178.1260  140.5410 C   0  0  0  0  0  2  0  0  0  0  0  0
  189.6020  177.6650  140.6570 C   0  0  2  0  0  3  0  0  0  0  0  0
  187.8820  178.0010  142.9220 C   0  0  2  0  0  3  0  0  0  0  0  0
  189.4770  176.9110  144.3870 C   0  0  2  0  0  3  0  0  0  0  0  0
  191.7540  175.6330  143.8720 C   0  0  0  0  0  1  0  0  0  0  0  0
  189.1370  177.8780  145.5150 C   0  0  2  0  0  3  0  0  0  0  0  0
  188.5310  177.6720  147.8870 C   0  0  0  0  0  0  0  0  0  0  0  0
  190.2270  177.5990  146.4750 C   0  0  0  0  0  0  0  0  0  0  0  0
  189.9250  177.4970  147.7220 N   0  0  0  0  0  0  0  0  0  0  0  0
  188.0130  177.9110  149.0090 O   0  0  0  0  0  0  0  0  0  0  0  0
  190.9070  176.5150  144.7200 C   0  0  2  0  0  3  0  0  0  0  0  0
  191.2960  176.8760  145.8980 N   0  0  0  0  0  2  0  0  0  0  0  0
  187.5730  177.5250  146.3850 S   0  0  0  0  0  0  0  0  0  0  0  0
  189.9640  176.8600  139.4590 C   0  0  0  0  0  3  0  0  0  0  0  0
  191.2270  176.5150  139.2250 C   0  0  0  0  0  3  0  0  0  0  0  0
  191.6610  175.7190  138.0630 C   0  0  0  0  0  0  0  0  0  0  0  0
  191.0840  174.5800  137.8660 N   0  0  0  0  0  2  0  0  0  0  0  0
  192.7120  176.1550  137.1190 C   0  0  0  0  0  0  0  0  0  0  0  0
  192.6350  175.7830  135.7820 O   0  0  0  0  0  0  0  0  0  0  0  0
  193.6810  176.8620  137.5020 O   0  0  0  0  0  1  0  0  0  0  0  0
  1  5  1  6  0  0  0
  3  8  1  0  0  0  0
  4  3  1  0  0  0  0
  6  7  1  0  0  0  0
  6  3  1  0  0  0  0
  7 19  1  6  0  0  0
  7  5  1  0  0  0  0
  8  2  1  6  0  0  0
  8  1  1  0  0  0  0
  9  1  1  6  0  0  0
  9 16  1  0  0  0  0
  9 11  1  0  0  0  0
 11 18  1  1  0  0  0
 11 13  1  0  0  0  0
 12 15  2  0  0  0  0
 13 14  2  0  0  0  0
 14 12  1  0  0  0  0
 16 10  1  1  0  0  0
 16 17  1  0  0  0  0
 17 13  1  0  0  0  0
 18 12  1  0  0  0  0
 20 19  2  0  0  0  0
 21 20  1  0  0  0  0
 22 21  2  0  0  0  0
 23 25  1  0  0  0  0
 23 21  1  0  0  0  0
 24 23  2  0  0  0  0
M  END
>  <MODEL>
3

>  <REMARK>
 VINA RESULT:      -7.5      4.175      5.693
  Name = 
  4 active torsions:
  status: ('A' for Active; 'I' for Inactive)
    1  A    between atoms: C_1  and  N_3
    2  A    between atoms: C_2  and  CA_21
    3  A    between atoms: C_6  and  C_23
    4  A    between atoms: C_15  and  CA_21
                            x       y       z     vdW  Elec       q    Type
                         _______ _______ _______ _____ _____    ______ ____

>  <TORSDO>
F 4

$$$$
=
 OpenBabel10272400443D

 25 27  0  0  1  0  0  0  0  0999 V2000
  189.5650  177.5760  143.1420 N   0  0  1  0  0  0  0  0  0  0  0  0
  187.3530  176.8140  142.7270 O   0  0  0  0  0  1  0  0  0  0  0  0
  188.1100  178.7880  141.6600 N   0  0  0  0  0  0  0  0  0  0  0  0
  186.8100  179.0820  141.4180 O   0  0  0  0  0  1  0  0  0  0  0  0
  190.1410  176.8080  142.0280 C   0  0  0  0  0  2  0  0  0  0  0  0
  188.6070  178.0380  140.5070 C   0  0  0  0  0  2  0  0  0  0  0  0
  190.0570  177.6190  140.7360 C   0  0  2  0  0  3  0  0  0  0  0  0
  188.1690  177.9470  142.8640 C   0  0  2  0  0  3  0  0  0  0  0  0
  189.6800  176.9270  144.4600 C   0  0  2  0  0  3  0  0  0  0  0  0
  191.9730  175.6230  144.1010 C   0  0  0  0  0  1  0  0  0  0  0  0
  189.2860  177.9200  145.5470 C   0  0  2  0  0  3  0  0  0  0  0  0
  188.5470  177.7710  147.8850 C   0  0  0  0  0  0  0  0  0  0  0  0
  190.3180  177.6560  146.5710 C   0  0  0  0  0  0  0  0  0  0  0  0
  189.9470  177.5830  147.8020 N   0  0  0  0  0  0  0  0  0  0  0  0
  187.9700  178.0380  148.9710 O   0  0  0  0  0  0  0  0  0  0  0  0
  191.0860  176.5280  144.8820 C   0  0  2  0  0  3  0  0  0  0  0  0
  191.4120  176.9130  146.0710 N   0  0  0  0  0  2  0  0  0  0  0  0
  187.6730  177.5970  146.3360 S   0  0  0  0  0  0  0  0  0  0  0  0
  190.5260  176.8040  139.5820 C   0  0  0  0  0  3  0  0  0  0  0  0
  191.7720  176.9140  139.1320 C   0  0  0  0  0  3  0  0  0  0  0  0
  192.3080  176.1400  137.9980 C   0  0  0  0  0  0  0  0  0  0  0  0
  193.5630  176.2740  137.7190 N   0  0  0  0  0  2  0  0  0  0  0  0
  191.4920  175.2250  137.1720 C   0  0  0  0  0  0  0  0  0  0  0  0
  191.0830  174.0030  137.6950 O   0  0  0  0  0  1  0  0  0  0  0  0
  191.1550  175.5300  135.9970 O   0  0  0  0  0  0  0  0  0  0  0  0
  1  5  1  6  0  0  0
  3  8  1  0  0  0  0
  4  3  1  0  0  0  0
  6  7  1  0  0  0  0
  6  3  1  0  0  0  0
  7 19  1  6  0  0  0
  7  5  1  0  0  0  0
  8  2  1  6  0  0  0
  8  1  1  0  0  0  0
  9  1  1  6  0  0  0
  9 16  1  0  0  0  0
  9 11  1  0  0  0  0
 11 18  1  1  0  0  0
 11 13  1  0  0  0  0
 12 15  2  0  0  0  0
 13 14  2  0  0  0  0
 14 12  1  0  0  0  0
 16 10  1  1  0  0  0
 16 17  1  0  0  0  0
 17 13  1  0  0  0  0
 18 12  1  0  0  0  0
 20 19  2  0  0  0  0
 21 20  1  0  0  0  0
 22 21  2  0  0  0  0
 23 24  1  0  0  0  0
 23 21  1  0  0  0  0
 25 23  2  0  0  0  0
M  END
>  <MODEL>
4

>  <REMARK>
 VINA RESULT:      -7.2      4.039      5.763
  Name = 
  4 active torsions:
  status: ('A' for Active; 'I' for Inactive)
    1  A    between atoms: C_1  and  N_3
    2  A    between atoms: C_2  and  CA_21
    3  A    between atoms: C_6  and  C_23
    4  A    between atoms: C_15  and  CA_21
                            x       y       z     vdW  Elec       q    Type
                         _______ _______ _______ _____ _____    ______ ____

>  <TORSDO>
F 4

$$$$
=
 OpenBabel10272400443D

 25 27  0  0  1  0  0  0  0  0999 V2000
  189.3550  178.0280  141.4680 N   0  0  1  0  0  0  0  0  0  0  0  0
  190.3950  175.9910  140.8250 O   0  0  0  0  0  1  0  0  0  0  0  0
  191.7200  177.9420  141.0430 N   0  0  0  0  0  0  0  0  0  0  0  0
  192.6680  177.3050  140.3150 O   0  0  0  0  0  1  0  0  0  0  0  0
  189.5550  177.7870  142.9050 C   0  0  0  0  0  2  0  0  0  0  0  0
  191.9950  177.6620  142.4530 C   0  0  0  0  0  2  0  0  0  0  0  0
  190.9270  178.3020  143.3350 C   0  0  2  0  0  3  0  0  0  0  0  0
  190.4110  177.3850  140.6720 C   0  0  2  0  0  3  0  0  0  0  0  0
  188.0210  177.6560  140.9630 C   0  0  2  0  0  3  0  0  0  0  0  0
  186.6020  178.0100  143.1870 C   0  0  0  0  0  1  0  0  0  0  0  0
  187.8220  178.2580  139.5770 C   0  0  2  0  0  3  0  0  0  0  0  0
  186.3530  177.8150  137.6580 C   0  0  0  0  0  0  0  0  0  0  0  0
  186.4260  178.7360  139.6640 C   0  0  0  0  0  0  0  0  0  0  0  0
  185.6470  178.5180  138.6620 N   0  0  0  0  0  0  0  0  0  0  0  0
  185.9320  177.7310  136.4750 O   0  0  0  0  0  0  0  0  0  0  0  0
  186.8390  178.2240  141.7330 C   0  0  2  0  0  3  0  0  0  0  0  0
  185.9450  178.7920  140.9920 N   0  0  0  0  0  2  0  0  0  0  0  0
  187.8790  177.0600  138.2030 S   0  0  0  0  0  0  0  0  0  0  0  0
  191.1870  177.9540  144.7590 C   0  0  0  0  0  3  0  0  0  0  0  0
  190.2880  177.2810  145.4710 C   0  0  0  0  0  3  0  0  0  0  0  0
  190.4750  176.8990  146.8830 C   0  0  0  0  0  0  0  0  0  0  0  0
  189.4640  177.0240  147.6770 N   0  0  0  0  0  2  0  0  0  0  0  0
  191.7480  176.3840  147.4300 C   0  0  0  0  0  0  0  0  0  0  0  0
  192.3580  175.2830  146.8390 O   0  0  0  0  0  0  0  0  0  0  0  0
  192.2980  176.9260  148.4260 O   0  0  0  0  0  1  0  0  0  0  0  0
  1  5  1  1  0  0  0
  3  6  1  0  0  0  0
  4  3  1  0  0  0  0
  5  7  1  0  0  0  0
  6  7  1  0  0  0  0
  7 19  1  1  0  0  0
  8  2  1  1  0  0  0
  8  3  1  0  0  0  0
  8  1  1  0  0  0  0
  9  1  1  1  0  0  0
  9 16  1  0  0  0  0
 11 18  1  6  0  0  0
 11 13  1  0  0  0  0
 11  9  1  0  0  0  0
 12 18  1  0  0  0  0
 12 14  1  0  0  0  0
 13 17  1  0  0  0  0
 14 13  2  0  0  0  0
 15 12  2  0  0  0  0
 16 10  1  6  0  0  0
 17 16  1  0  0  0  0
 19 20  2  0  0  0  0
 20 21  1  0  0  0  0
 21 23  1  0  0  0  0
 21 22  2  0  0  0  0
 23 25  1  0  0  0  0
 24 23  2  0  0  0  0
M  END
>  <MODEL>
5

>  <REMARK>
 VINA RESULT:      -7.2      3.676      8.542
  Name = 
  4 active torsions:
  status: ('A' for Active; 'I' for Inactive)
    1  A    between atoms: C_1  and  N_3
    2  A    between atoms: C_2  and  CA_21
    3  A    between atoms: C_6  and  C_23
    4  A    between atoms: C_15  and  CA_21
                            x       y       z     vdW  Elec       q    Type
                         _______ _______ _______ _____ _____    ______ ____

>  <TORSDO>
F 4

$$$$
=
 OpenBabel10272400443D

 25 27  0  0  1  0  0  0  0  0999 V2000
  188.3160  177.5160  141.4170 N   0  0  1  0  0  0  0  0  0  0  0  0
  187.5120  179.7500  141.5180 O   0  0  0  0  0  1  0  0  0  0  0  0
  186.0820  177.9790  142.1750 N   0  0  0  0  0  0  0  0  0  0  0  0
  185.0490  178.8460  142.0400 O   0  0  0  0  0  1  0  0  0  0  0  0
  188.8400  177.5420  142.7910 C   0  0  0  0  0  2  0  0  0  0  0  0
  186.5360  178.0580  143.5640 C   0  0  0  0  0  2  0  0  0  0  0  0
  187.7420  177.1480  143.7760 C   0  0  2  0  0  3  0  0  0  0  0  0
  187.1600  178.4130  141.2750 C   0  0  2  0  0  3  0  0  0  0  0  0
  189.3200  177.7880  140.3720 C   0  0  2  0  0  3  0  0  0  0  0  0
  191.5360  177.2880  141.7590 C   0  0  0  0  0  1  0  0  0  0  0  0
  188.8440  177.1930  139.0510 C   0  0  2  0  0  3  0  0  0  0  0  0
  189.3560  177.5470  136.6750 C   0  0  0  0  0  0  0  0  0  0  0  0
  190.0960  176.6030  138.5300 C   0  0  0  0  0  0  0  0  0  0  0  0
  190.3730  176.7740  137.2840 N   0  0  0  0  0  0  0  0  0  0  0  0
  189.2230  177.6140  135.4250 O   0  0  0  0  0  0  0  0  0  0  0  0
  190.6710  177.1150  140.5600 C   0  0  2  0  0  3  0  0  0  0  0  0
  191.1030  176.4900  139.5150 N   0  0  0  0  0  2  0  0  0  0  0  0
  188.2870  178.4130  137.8150 S   0  0  0  0  0  0  0  0  0  0  0  0
  188.2290  177.2880  145.1760 C   0  0  0  0  0  3  0  0  0  0  0  0
  189.4610  176.9160  145.5100 C   0  0  0  0  0  3  0  0  0  0  0  0
  190.0130  177.0270  146.8720 C   0  0  0  0  0  0  0  0  0  0  0  0
  189.2480  177.5120  147.7930 N   0  0  0  0  0  2  0  0  0  0  0  0
  191.3850  176.6130  147.2350 C   0  0  0  0  0  0  0  0  0  0  0  0
  192.0370  175.6450  146.4800 O   0  0  0  0  0  0  0  0  0  0  0  0
  191.9820  177.1230  148.2210 O   0  0  0  0  0  1  0  0  0  0  0  0
  1  5  1  1  0  0  0
  3  6  1  0  0  0  0
  4  3  1  0  0  0  0
  5  7  1  0  0  0  0
  6  7  1  0  0  0  0
  7 19  1  1  0  0  0
  8  1  1  0  0  0  0
  8  2  1  1  0  0  0
  8  3  1  0  0  0  0
  9 16  1  0  0  0  0
  9  1  1  1  0  0  0
 11 18  1  6  0  0  0
 11  9  1  0  0  0  0
 12 14  1  0  0  0  0
 12 18  1  0  0  0  0
 13 11  1  0  0  0  0
 13 17  1  0  0  0  0
 14 13  2  0  0  0  0
 15 12  2  0  0  0  0
 16 10  1  6  0  0  0
 17 16  1  0  0  0  0
 19 20  2  0  0  0  0
 20 21  1  0  0  0  0
 21 23  1  0  0  0  0
 21 22  2  0  0  0  0
 23 25  1  0  0  0  0
 24 23  2  0  0  0  0
M  END
>  <MODEL>
6

>  <REMARK>
 VINA RESULT:      -7.2      3.802      7.666
  Name = 
  4 active torsions:
  status: ('A' for Active; 'I' for Inactive)
    1  A    between atoms: C_1  and  N_3
    2  A    between atoms: C_2  and  CA_21
    3  A    between atoms: C_6  and  C_23
    4  A    between atoms: C_15  and  CA_21
                            x       y       z     vdW  Elec       q    Type
                         _______ _______ _______ _____ _____    ______ ____

>  <TORSDO>
F 4

$$$$
=
 OpenBabel10272400443D

 25 27  0  0  1  0  0  0  0  0999 V2000
  189.1990  178.0240  141.2240 N   0  0  1  0  0  0  0  0  0  0  0  0
  190.3490  175.9810  140.8410 O   0  0  0  0  0  1  0  0  0  0  0  0
  191.6020  177.9490  141.2460 N   0  0  0  0  0  0  0  0  0  0  0  0
  192.6710  177.3020  140.7230 O   0  0  0  0  0  1  0  0  0  0  0  0
  189.1300  177.8230  142.6790 C   0  0  0  0  0  2  0  0  0  0  0  0
  191.6130  177.7090  142.6890 C   0  0  0  0  0  2  0  0  0  0  0  0
  190.3970  178.3610  143.3410 C   0  0  2  0  0  3  0  0  0  0  0  0
  190.3870  177.3710  140.6540 C   0  0  2  0  0  3  0  0  0  0  0  0
  187.9830  177.6270  140.4900 C   0  0  2  0  0  3  0  0  0  0  0  0
  186.1410  178.4970  142.2050 C   0  0  0  0  0  1  0  0  0  0  0  0
  188.1620  177.9460  139.0100 C   0  0  2  0  0  3  0  0  0  0  0  0
  187.1260  177.1990  136.9110 C   0  0  0  0  0  0  0  0  0  0  0  0
  186.8350  178.5030  138.6700 C   0  0  0  0  0  0  0  0  0  0  0  0
  186.2840  178.1270  137.5690 N   0  0  0  0  0  0  0  0  0  0  0  0
  186.9750  176.9000  135.6980 O   0  0  0  0  0  0  0  0  0  0  0  0
  186.7190  178.4000  140.8360 C   0  0  2  0  0  3  0  0  0  0  0  0
  186.0760  178.8510  139.8100 N   0  0  0  0  0  2  0  0  0  0  0  0
  188.4080  176.4920  137.9360 S   0  0  0  0  0  0  0  0  0  0  0  0
  190.3900  178.0540  144.7970 C   0  0  0  0  0  3  0  0  0  0  0  0
  189.2540  177.7730  145.4290 C   0  0  0  0  0  3  0  0  0  0  0  0
  189.1680  177.4570  146.8660 C   0  0  0  0  0  0  0  0  0  0  0  0
  190.1350  176.7790  147.3910 N   0  0  0  0  0  2  0  0  0  0  0  0
  188.0440  177.8730  147.7300 C   0  0  0  0  0  0  0  0  0  0  0  0
  186.7850  178.0730  147.1760 O   0  0  0  0  0  0  0  0  0  0  0  0
  188.2020  178.0510  148.9680 O   0  0  0  0  0  1  0  0  0  0  0  0
  1  5  1  1  0  0  0
  3  6  1  0  0  0  0
  4  3  1  0  0  0  0
  5  7  1  0  0  0  0
  6  7  1  0  0  0  0
  7 19  1  1  0  0  0
  8  2  1  1  0  0  0
  8  1  1  0  0  0  0
  8  3  1  0  0  0  0
  9 16  1  0  0  0  0
  9  1  1  1  0  0  0
 11 18  1  6  0  0  0
 11  9  1  0  0  0  0
 12 14  1  0  0  0  0
 12 18  1  0  0  0  0
 13 11  1  0  0  0  0
 13 17  1  0  0  0  0
 14 13  2  0  0  0  0
 15 12  2  0  0  0  0
 16 10  1  6  0  0  0
 17 16  1  0  0  0  0
 19 20  2  0  0  0  0
 20 21  1  0  0  0  0
 21 22  2  0  0  0  0
 21 23  1  0  0  0  0
 23 25  1  0  0  0  0
 24 23  2  0  0  0  0
M  END
>  <MODEL>
7

>  <REMARK>
 VINA RESULT:      -7.2      3.885      8.101
  Name = 
  4 active torsions:
  status: ('A' for Active; 'I' for Inactive)
    1  A    between atoms: C_1  and  N_3
    2  A    between atoms: C_2  and  CA_21
    3  A    between atoms: C_6  and  C_23
    4  A    between atoms: C_15  and  CA_21
                            x       y       z     vdW  Elec       q    Type
                         _______ _______ _______ _____ _____    ______ ____

>  <TORSDO>
F 4

$$$$
=
 OpenBabel10272400443D

 25 27  0  0  1  0  0  0  0  0999 V2000
  188.5960  176.8380  144.5940 N   0  0  1  0  0  0  0  0  0  0  0  0
  189.6810  178.7540  145.4870 O   0  0  0  0  0  1  0  0  0  0  0  0
  190.9870  176.8840  144.8460 N   0  0  0  0  0  0  0  0  0  0  0  0
  191.9880  177.4040  145.5960 O   0  0  0  0  0  1  0  0  0  0  0  0
  188.6840  177.3170  143.2060 C   0  0  0  0  0  2  0  0  0  0  0  0
  191.1520  177.3990  143.4860 C   0  0  0  0  0  2  0  0  0  0  0  0
  190.0190  176.9000  142.5930 C   0  0  2  0  0  3  0  0  0  0  0  0
  189.7100  177.3530  145.4040 C   0  0  2  0  0  3  0  0  0  0  0  0
  187.3050  177.1010  145.2540 C   0  0  2  0  0  3  0  0  0  0  0  0
  188.0050  176.6250  147.7780 C   0  0  0  0  0  1  0  0  0  0  0  0
  186.6690  178.3420  144.6390 C   0  0  2  0  0  3  0  0  0  0  0  0
  184.4030  179.2830  144.5180 C   0  0  0  0  0  0  0  0  0  0  0  0
  186.1530  179.0310  145.8410 C   0  0  0  0  0  0  0  0  0  0  0  0
  184.9700  179.5370  145.7890 N   0  0  0  0  0  0  0  0  0  0  0  0
  183.3930  179.9060  144.0990 O   0  0  0  0  0  0  0  0  0  0  0  0
  187.3780  177.4730  146.7280 C   0  0  2  0  0  3  0  0  0  0  0  0
  186.7040  178.5300  147.0420 N   0  0  0  0  0  2  0  0  0  0  0  0
  185.2300  178.0170  143.5660 S   0  0  0  0  0  0  0  0  0  0  0  0
  190.1680  177.4840  141.2320 C   0  0  0  0  0  3  0  0  0  0  0  0
  189.4330  177.0400  140.2160 C   0  0  0  0  0  3  0  0  0  0  0  0
  189.5220  177.5690  138.8430 C   0  0  0  0  0  0  0  0  0  0  0  0
  190.4830  177.1380  138.0950 N   0  0  0  0  0  2  0  0  0  0  0  0
  188.5760  178.5570  138.2830 C   0  0  0  0  0  0  0  0  0  0  0  0
  187.2100  178.3970  138.4880 O   0  0  0  0  0  1  0  0  0  0  0  0
  188.9820  179.5490  137.6210 O   0  0  0  0  0  0  0  0  0  0  0  0
  1  5  1  6  0  0  0
  1  8  1  0  0  0  0
  3  8  1  0  0  0  0
  3  4  1  0  0  0  0
  6  3  1  0  0  0  0
  7 19  1  6  0  0  0
  7  5  1  0  0  0  0
  7  6  1  0  0  0  0
  8  2  1  6  0  0  0
  9  1  1  6  0  0  0
  9 16  1  0  0  0  0
 11 18  1  6  0  0  0
 11  9  1  0  0  0  0
 11 13  1  0  0  0  0
 12 14  1  0  0  0  0
 13 17  1  0  0  0  0
 14 13  2  0  0  0  0
 15 12  2  0  0  0  0
 16 17  1  0  0  0  0
 16 10  1  1  0  0  0
 18 12  1  0  0  0  0
 20 19  2  0  0  0  0
 21 20  1  0  0  0  0
 22 21  2  0  0  0  0
 23 24  1  0  0  0  0
 23 21  1  0  0  0  0
 25 23  2  0  0  0  0
M  END
>  <MODEL>
8

>  <REMARK>
 VINA RESULT:      -6.8      3.078      5.697
  Name = 
  4 active torsions:
  status: ('A' for Active; 'I' for Inactive)
    1  A    between atoms: C_1  and  N_3
    2  A    between atoms: C_2  and  CA_21
    3  A    between atoms: C_6  and  C_23
    4  A    between atoms: C_15  and  CA_21
                            x       y       z     vdW  Elec       q    Type
                         _______ _______ _______ _____ _____    ______ ____

>  <TORSDO>
F 4

$$$$
=
 OpenBabel10272400443D

 25 27  0  0  1  0  0  0  0  0999 V2000
  188.5500  177.2530  143.3220 N   0  0  1  0  0  0  0  0  0  0  0  0
  190.7130  177.9690  143.9950 O   0  0  0  0  0  1  0  0  0  0  0  0
  190.4820  175.8920  142.8800 N   0  0  0  0  0  0  0  0  0  0  0  0
  191.7140  175.5760  143.3460 O   0  0  0  0  0  1  0  0  0  0  0  0
  188.6410  177.8970  142.0030 C   0  0  0  0  0  2  0  0  0  0  0  0
  190.6610  176.5150  141.5690 C   0  0  0  0  0  2  0  0  0  0  0  0
  189.3120  176.9540  141.0070 C   0  0  2  0  0  3  0  0  0  0  0  0
  189.8780  176.8560  143.8120 C   0  0  2  0  0  3  0  0  0  0  0  0
  187.8300  178.0380  144.3410 C   0  0  2  0  0  3  0  0  0  0  0  0
  185.6600  178.6810  142.9410 C   0  0  0  0  0  1  0  0  0  0  0  0
  187.9460  177.3380  145.6900 C   0  0  2  0  0  3  0  0  0  0  0  0
  187.7000  177.9980  148.0440 C   0  0  0  0  0  0  0  0  0  0  0  0
  186.5720  177.4890  146.2150 C   0  0  0  0  0  0  0  0  0  0  0  0
  186.4280  177.8260  147.4490 N   0  0  0  0  0  0  0  0  0  0  0  0
  187.8570  178.0380  149.2920 O   0  0  0  0  0  0  0  0  0  0  0  0
  186.3240  178.1400  144.1580 C   0  0  2  0  0  3  0  0  0  0  0  0
  185.6410  177.8630  145.2200 N   0  0  0  0  0  2  0  0  0  0  0  0
  189.0540  178.1530  146.8880 S   0  0  0  0  0  0  0  0  0  0  0  0
  189.5190  177.6420  139.7030 C   0  0  0  0  0  3  0  0  0  0  0  0
  188.5780  177.6190  138.7630 C   0  0  0  0  0  3  0  0  0  0  0  0
  188.7090  178.2770  137.4510 C   0  0  0  0  0  0  0  0  0  0  0  0
  188.9810  179.5400  137.4370 N   0  0  0  0  0  2  0  0  0  0  0  0
  188.5490  177.5720  136.1610 C   0  0  0  0  0  0  0  0  0  0  0  0
  189.6510  176.9780  135.5580 O   0  0  0  0  0  0  0  0  0  0  0  0
  187.4270  177.4950  135.5940 O   0  0  0  0  0  1  0  0  0  0  0  0
  1  5  1  6  0  0  0
  1  8  1  0  0  0  0
  3  4  1  0  0  0  0
  3  8  1  0  0  0  0
  6  3  1  0  0  0  0
  7 19  1  6  0  0  0
  7  6  1  0  0  0  0
  7  5  1  0  0  0  0
  8  2  1  6  0  0  0
  9  1  1  6  0  0  0
  9 11  1  0  0  0  0
 11 13  1  1  0  0  0
 11 18  1  0  0  0  0
 12 15  2  0  0  0  0
 13 14  2  0  0  0  0
 14 12  1  0  0  0  0
 16 10  1  1  0  0  0
 16  9  1  0  0  0  0
 16 17  1  0  0  0  0
 17 13  1  0  0  0  0
 18 12  1  0  0  0  0
 20 19  2  0  0  0  0
 21 20  1  0  0  0  0
 22 21  2  0  0  0  0
 23 21  1  0  0  0  0
 24 23  2  0  0  0  0
 25 23  1  0  0  0  0
M  END
>  <MODEL>
9

>  <REMARK>
 VINA RESULT:      -6.6      3.530      5.159
  Name = 
  4 active torsions:
  status: ('A' for Active; 'I' for Inactive)
    1  A    between atoms: C_1  and  N_3
    2  A    between atoms: C_2  and  CA_21
    3  A    between atoms: C_6  and  C_23
    4  A    between atoms: C_15  and  CA_21
                            x       y       z     vdW  Elec       q    Type
                         _______ _______ _______ _____ _____    ______ ____

>  <TORSDO>
F 4

$$$$
