=
 OpenBabel10272413243D

 32 38  0  0  1  0  0  0  0  0999 V2000
  189.3690  178.0630  137.6270 C   0  0  0  0  0  2  0  0  0  0  0  0
  187.9700  177.7560  142.5060 C   0  0  0  0  0  0  0  0  0  0  0  0
  183.2710  179.0920  142.7170 C   0  0  0  0  0  3  0  0  0  0  0  0
  183.3160  179.0300  144.1110 C   0  0  0  0  0  3  0  0  0  0  0  0
  189.0050  177.4400  144.9430 C   0  0  0  0  0  0  0  0  0  0  0  0
  190.3450  177.2990  144.9540 C   0  0  0  0  0  0  0  0  0  0  0  0
  189.1240  177.3870  140.3850 C   0  0  0  0  0  0  0  0  0  0  0  0
  186.6850  178.0580  140.3360 C   0  0  0  0  0  3  0  0  0  0  0  0
  188.9170  177.3120  147.4870 C   0  0  0  0  0  0  0  0  0  0  0  0
  187.9670  177.9990  138.2170 C   0  0  0  0  0  2  0  0  0  0  0  0
  184.4120  178.8000  141.9630 C   0  0  0  0  0  3  0  0  0  0  0  0
  186.7720  178.1240  141.8440 C   0  0  0  0  0  0  0  0  0  0  0  0
  185.6150  178.4480  142.5970 C   0  0  0  0  0  0  0  0  0  0  0  0
  186.8450  178.0370  144.6370 C   0  0  0  0  0  0  0  0  0  0  0  0
  190.2300  177.0710  147.5040 C   0  0  0  0  0  3  0  0  0  0  0  0
  187.9860  177.9290  139.6790 N   0  0  0  0  0  0  0  0  0  0  0  0
  191.0540  176.9170  146.2400 C   0  0  0  0  0  3  0  0  0  0  0  0
  190.3980  177.0520  139.6700 C   0  0  0  0  0  2  0  0  0  0  0  0
  190.1830  176.8940  138.1640 C   0  0  2  0  0  3  0  0  0  0  0  0
  184.5020  178.6790  144.7590 C   0  0  0  0  0  3  0  0  0  0  0  0
  185.6510  178.3910  144.0130 C   0  0  0  0  0  0  0  0  0  0  0  0
  187.0250  177.8640  146.0410 N   0  0  0  0  0  0  0  0  0  0  0  0
  189.1220  177.3250  141.7120 C   0  0  0  0  0  3  0  0  0  0  0  0
  191.3840  177.5780  143.5710 Cl  0  0  0  0  0  0  0  0  0  0  0  0
  188.1690  177.4440  148.7670 C   0  0  0  0  0  1  0  0  0  0  0  0
  187.9980  177.7760  143.9160 C   0  0  0  0  0  0  0  0  0  0  0  0
  188.2560  177.4980  146.1940 C   0  0  0  0  0  0  0  0  0  0  0  0
  192.8690  175.0520  136.3900 C   0  0  0  0  0  2  0  0  0  0  0  0
  191.4990  176.7520  137.3940 C   0  0  0  0  0  3  0  0  0  0  0  0
  193.4410  175.3240  137.7640 C   0  0  0  0  0  2  0  0  0  0  0  0
  192.7080  176.5410  138.2970 C   0  0  0  0  0  2  0  0  0  0  0  0
  191.4560  175.5810  136.4330 C   0  0  0  0  0  2  0  0  0  0  0  0
  1 19  1  0  0  0  0
  1 10  1  0  0  0  0
  2 26  2  0  0  0  0
  3  4  1  0  0  0  0
  4 20  2  0  0  0  0
  5  6  2  0  0  0  0
  5 27  1  0  0  0  0
  6 17  1  0  0  0  0
  7 23  2  0  0  0  0
  8 12  2  0  0  0  0
  9 15  1  0  0  0  0
  9 25  1  0  0  0  0
 10 16  1  0  0  0  0
 11 13  1  0  0  0  0
 11  3  2  0  0  0  0
 12  2  1  0  0  0  0
 12 13  1  0  0  0  0
 13 21  2  0  0  0  0
 14 22  2  0  0  0  0
 16  8  1  0  0  0  0
 16  7  1  0  0  0  0
 17 15  2  0  0  0  0
 18  7  1  0  0  0  0
 19 29  1  6  0  0  0
 19 18  1  0  0  0  0
 21 14  1  0  0  0  0
 21 20  1  0  0  0  0
 22 27  1  0  0  0  0
 23  2  1  0  0  0  0
 24  6  1  0  0  0  0
 26 14  1  0  0  0  0
 26  5  1  0  0  0  0
 27  9  2  0  0  0  0
 28 32  1  0  0  0  0
 28 30  1  0  0  0  0
 29 31  1  0  0  0  0
 30 31  1  0  0  0  0
 32 29  1  0  0  0  0
M  END
>  <MODEL>
1

>  <REMARK>
 VINA RESULT:     -12.2      0.000      0.000
  Name = 
  1 active torsions:
  status: ('A' for Active; 'I' for Inactive)
    1  A    between atoms: C_10  and  C_24
                            x       y       z     vdW  Elec       q    Type
                         _______ _______ _______ _____ _____    ______ ____

>  <TORSDO>
F 1

$$$$
=
 OpenBabel10272413243D

 32 38  0  0  1  0  0  0  0  0999 V2000
  190.5080  176.9590  138.0720 C   0  0  0  0  0  2  0  0  0  0  0  0
  188.5380  177.6650  142.7070 C   0  0  0  0  0  0  0  0  0  0  0  0
  191.9560  176.2890  145.9210 C   0  0  0  0  0  3  0  0  0  0  0  0
  191.0480  176.4710  146.9660 C   0  0  0  0  0  3  0  0  0  0  0  0
  186.2220  178.2030  143.9150 C   0  0  0  0  0  0  0  0  0  0  0  0
  185.1870  178.3620  143.0670 C   0  0  0  0  0  0  0  0  0  0  0  0
  189.0040  177.8650  140.3180 C   0  0  0  0  0  0  0  0  0  0  0  0
  190.8800  177.1610  141.8630 C   0  0  0  0  0  3  0  0  0  0  0  0
  184.6970  178.5470  145.9270 C   0  0  0  0  0  0  0  0  0  0  0  0
  191.2260  177.0550  139.4120 C   0  0  0  0  0  2  0  0  0  0  0  0
  191.5660  176.5310  144.6000 C   0  0  0  0  0  3  0  0  0  0  0  0
  189.8590  177.2260  142.9750 C   0  0  0  0  0  0  0  0  0  0  0  0
  190.2590  176.9520  144.3070 C   0  0  0  0  0  0  0  0  0  0  0  0
  188.0480  177.5530  145.0800 C   0  0  0  0  0  0  0  0  0  0  0  0
  183.6850  178.8050  145.0950 C   0  0  0  0  0  3  0  0  0  0  0  0
  190.2940  177.2500  140.5240 N   0  0  0  0  0  0  0  0  0  0  0  0
  183.8530  178.8610  143.5890 C   0  0  0  0  0  3  0  0  0  0  0  0
  188.4900  178.1550  138.9400 C   0  0  0  0  0  2  0  0  0  0  0  0
  189.6150  178.1800  137.9030 C   0  0  2  0  0  3  0  0  0  0  0  0
  189.7440  176.8930  146.6950 C   0  0  0  0  0  3  0  0  0  0  0  0
  189.3430  177.1300  145.3750 C   0  0  0  0  0  0  0  0  0  0  0  0
  187.0360  177.8480  146.0400 N   0  0  0  0  0  0  0  0  0  0  0  0
  188.1740  178.0410  141.3400 C   0  0  0  0  0  3  0  0  0  0  0  0
  185.2360  177.9790  141.3580 Cl  0  0  0  0  0  0  0  0  0  0  0  0
  184.4610  178.5150  147.3960 C   0  0  0  0  0  1  0  0  0  0  0  0
  187.6270  177.7660  143.7790 C   0  0  0  0  0  0  0  0  0  0  0  0
  186.0110  178.2410  145.3580 C   0  0  0  0  0  0  0  0  0  0  0  0
  187.1070  177.7890  135.1990 C   0  0  0  0  0  2  0  0  0  0  0  0
  189.0900  178.2730  136.4680 C   0  0  0  0  0  3  0  0  0  0  0  0
  188.0420  176.6130  135.0210 C   0  0  0  0  0  2  0  0  0  0  0  0
  189.3650  177.0230  135.6410 C   0  0  0  0  0  2  0  0  0  0  0  0
  187.5920  178.5010  136.4390 C   0  0  0  0  0  2  0  0  0  0  0  0
  1 10  1  0  0  0  0
  2 12  1  0  0  0  0
  2 26  2  0  0  0  0
  3  4  1  0  0  0  0
  5 27  1  0  0  0  0
  6 17  1  0  0  0  0
  6  5  2  0  0  0  0
  7 16  1  0  0  0  0
  7 23  2  0  0  0  0
  8 12  2  0  0  0  0
  9 25  1  0  0  0  0
 10 16  1  0  0  0  0
 11  3  2  0  0  0  0
 12 13  1  0  0  0  0
 13 11  1  0  0  0  0
 13 21  2  0  0  0  0
 14 21  1  0  0  0  0
 14 22  2  0  0  0  0
 15  9  1  0  0  0  0
 16  8  1  0  0  0  0
 17 15  2  0  0  0  0
 18  7  1  0  0  0  0
 19 29  1  6  0  0  0
 19  1  1  0  0  0  0
 19 18  1  0  0  0  0
 20  4  2  0  0  0  0
 21 20  1  0  0  0  0
 23  2  1  0  0  0  0
 24  6  1  0  0  0  0
 26  5  1  0  0  0  0
 26 14  1  0  0  0  0
 27  9  2  0  0  0  0
 27 22  1  0  0  0  0
 28 32  1  0  0  0  0
 30 28  1  0  0  0  0
 30 31  1  0  0  0  0
 31 29  1  0  0  0  0
 32 29  1  0  0  0  0
M  END
>  <MODEL>
2

>  <REMARK>
 VINA RESULT:     -11.9      1.862      4.840
  Name = 
  1 active torsions:
  status: ('A' for Active; 'I' for Inactive)
    1  A    between atoms: C_10  and  C_24
                            x       y       z     vdW  Elec       q    Type
                         _______ _______ _______ _____ _____    ______ ____

>  <TORSDO>
F 1

$$$$
=
 OpenBabel10272413243D

 32 38  0  0  1  0  0  0  0  0999 V2000
  181.5510  179.3480  143.3270 C   0  0  0  0  0  2  0  0  0  0  0  0
  186.4640  178.0390  143.2680 C   0  0  0  0  0  0  0  0  0  0  0  0
  187.9390  177.8740  147.9270 C   0  0  0  0  0  3  0  0  0  0  0  0
  189.2520  177.6560  147.5040 C   0  0  0  0  0  3  0  0  0  0  0  0
  188.5120  177.7490  141.5850 C   0  0  0  0  0  0  0  0  0  0  0  0
  188.2050  178.0150  140.3000 C   0  0  0  0  0  0  0  0  0  0  0  0
  184.1130  178.2960  142.6560 C   0  0  0  0  0  0  0  0  0  0  0  0
  184.7230  178.2080  145.1100 C   0  0  0  0  0  3  0  0  0  0  0  0
  190.9410  177.2890  140.9670 C   0  0  0  0  0  0  0  0  0  0  0  0
  182.4060  178.7960  144.4590 C   0  0  0  0  0  2  0  0  0  0  0  0
  186.9140  178.0310  146.9880 C   0  0  0  0  0  3  0  0  0  0  0  0
  186.1600  178.1100  144.6510 C   0  0  0  0  0  0  0  0  0  0  0  0
  187.1930  177.9790  145.6130 C   0  0  0  0  0  0  0  0  0  0  0  0
  188.8010  177.7070  143.8280 C   0  0  0  0  0  0  0  0  0  0  0  0
  190.6270  177.4520  139.6790 C   0  0  0  0  0  3  0  0  0  0  0  0
  183.7870  178.5560  144.0390 N   0  0  0  0  0  0  0  0  0  0  0  0
  189.2090  177.7080  139.2060 C   0  0  0  0  0  3  0  0  0  0  0  0
  183.0880  178.4470  141.5730 C   0  0  0  0  0  2  0  0  0  0  0  0
  181.6630  178.4190  142.1260 C   0  0  2  0  0  3  0  0  0  0  0  0
  189.5470  177.5990  146.1410 C   0  0  0  0  0  3  0  0  0  0  0  0
  188.5290  177.7620  145.1940 C   0  0  0  0  0  0  0  0  0  0  0  0
  190.0720  177.4240  143.2480 N   0  0  0  0  0  0  0  0  0  0  0  0
  185.3720  178.0740  142.2930 C   0  0  0  0  0  3  0  0  0  0  0  0
  186.7100  178.7600  139.7700 Cl  0  0  0  0  0  0  0  0  0  0  0  0
  192.3530  177.0330  141.3610 C   0  0  0  0  0  1  0  0  0  0  0  0
  187.8110  177.8930  142.8780 C   0  0  0  0  0  0  0  0  0  0  0  0
  189.8820  177.4270  141.9690 C   0  0  0  0  0  0  0  0  0  0  0  0
  180.4580  179.8210  138.9110 C   0  0  0  0  0  2  0  0  0  0  0  0
  180.6140  178.7730  141.0680 C   0  0  0  0  0  3  0  0  0  0  0  0
  180.1040  180.8740  139.9380 C   0  0  0  0  0  2  0  0  0  0  0  0
  179.9930  180.1500  141.2670 C   0  0  0  0  0  2  0  0  0  0  0  0
  181.2060  178.7540  139.6720 C   0  0  0  0  0  2  0  0  0  0  0  0
  1 10  1  0  0  0  0
  2 12  1  0  0  0  0
  4  3  1  0  0  0  0
  5 27  1  0  0  0  0
  5 26  1  0  0  0  0
  6  5  2  0  0  0  0
  7 16  1  0  0  0  0
  9 25  1  0  0  0  0
  9 27  2  0  0  0  0
 11  3  2  0  0  0  0
 12  8  2  0  0  0  0
 12 13  1  0  0  0  0
 13 11  1  0  0  0  0
 14 21  1  0  0  0  0
 15  9  1  0  0  0  0
 16 10  1  0  0  0  0
 16  8  1  0  0  0  0
 17 15  2  0  0  0  0
 17  6  1  0  0  0  0
 18 19  1  0  0  0  0
 18  7  1  0  0  0  0
 19 29  1  6  0  0  0
 19  1  1  0  0  0  0
 20  4  2  0  0  0  0
 21 13  2  0  0  0  0
 21 20  1  0  0  0  0
 22 14  2  0  0  0  0
 23  7  2  0  0  0  0
 23  2  1  0  0  0  0
 24  6  1  0  0  0  0
 26  2  2  0  0  0  0
 26 14  1  0  0  0  0
 27 22  1  0  0  0  0
 28 32  1  0  0  0  0
 28 30  1  0  0  0  0
 29 31  1  0  0  0  0
 30 31  1  0  0  0  0
 32 29  1  0  0  0  0
M  END
>  <MODEL>
3

>  <REMARK>
 VINA RESULT:     -11.4      2.404      7.528
  Name = 
  1 active torsions:
  status: ('A' for Active; 'I' for Inactive)
    1  A    between atoms: C_10  and  C_24
                            x       y       z     vdW  Elec       q    Type
                         _______ _______ _______ _____ _____    ______ ____

>  <TORSDO>
F 1

$$$$
=
 OpenBabel10272413243D

 32 38  0  0  1  0  0  0  0  0999 V2000
  190.1850  177.0430  139.4620 C   0  0  0  0  0  2  0  0  0  0  0  0
  186.1310  178.2520  142.2840 C   0  0  0  0  0  0  0  0  0  0  0  0
  187.5040  177.8820  146.9630 C   0  0  0  0  0  3  0  0  0  0  0  0
  186.1890  178.1170  147.3670 C   0  0  0  0  0  3  0  0  0  0  0  0
  183.5090  178.6820  142.0680 C   0  0  0  0  0  0  0  0  0  0  0  0
  183.0370  178.5630  140.8110 C   0  0  0  0  0  0  0  0  0  0  0  0
  187.7310  178.1100  140.4440 C   0  0  0  0  0  0  0  0  0  0  0  0
  188.5930  177.9190  142.8150 C   0  0  0  0  0  3  0  0  0  0  0  0
  181.1690  179.1570  142.9580 C   0  0  0  0  0  0  0  0  0  0  0  0
  190.1280  177.4510  140.9280 C   0  0  0  0  0  2  0  0  0  0  0  0
  187.8260  177.8480  145.6020 C   0  0  0  0  0  3  0  0  0  0  0  0
  187.1500  178.0370  143.2470 C   0  0  0  0  0  0  0  0  0  0  0  0
  186.8320  178.0430  144.6290 C   0  0  0  0  0  0  0  0  0  0  0  0
  184.5170  178.4750  144.0810 C   0  0  0  0  0  0  0  0  0  0  0  0
  180.7060  179.1420  141.7060 C   0  0  0  0  0  3  0  0  0  0  0  0
  188.7590  177.7080  141.3760 N   0  0  0  0  0  0  0  0  0  0  0  0
  181.6080  178.9670  140.4990 C   0  0  0  0  0  3  0  0  0  0  0  0
  187.9730  178.0980  138.9650 C   0  0  0  0  0  2  0  0  0  0  0  0
  189.4650  178.0940  138.6290 C   0  0  2  0  0  3  0  0  0  0  0  0
  185.1880  178.3170  146.4150 C   0  0  0  0  0  3  0  0  0  0  0  0
  185.4990  178.2770  145.0500 C   0  0  0  0  0  0  0  0  0  0  0  0
  183.1520  178.7930  144.3400 N   0  0  0  0  0  0  0  0  0  0  0  0
  186.4950  178.3450  140.8690 C   0  0  0  0  0  3  0  0  0  0  0  0
  183.9510  177.9100  139.4660 Cl  0  0  0  0  0  0  0  0  0  0  0  0
  180.2260  179.3410  144.0960 C   0  0  0  0  0  1  0  0  0  0  0  0
  184.8030  178.4120  142.7280 C   0  0  0  0  0  0  0  0  0  0  0  0
  182.5980  178.9330  143.1800 C   0  0  0  0  0  0  0  0  0  0  0  0
  188.6150  177.0760  135.1650 C   0  0  0  0  0  2  0  0  0  0  0  0
  189.7320  177.8780  137.1370 C   0  0  0  0  0  3  0  0  0  0  0  0
  189.4320  175.9240  135.7080 C   0  0  0  0  0  2  0  0  0  0  0  0
  190.2960  176.4990  136.8160 C   0  0  0  0  0  2  0  0  0  0  0  0
  188.4660  178.0380  136.3180 C   0  0  0  0  0  2  0  0  0  0  0  0
  1 10  1  0  0  0  0
  2 26  2  0  0  0  0
  2 12  1  0  0  0  0
  3  4  1  0  0  0  0
  5 26  1  0  0  0  0
  5 27  1  0  0  0  0
  6  5  2  0  0  0  0
  7 23  2  0  0  0  0
  7 16  1  0  0  0  0
  8 12  2  0  0  0  0
  9 27  2  0  0  0  0
  9 25  1  0  0  0  0
 10 16  1  0  0  0  0
 11  3  2  0  0  0  0
 12 13  1  0  0  0  0
 13 21  2  0  0  0  0
 13 11  1  0  0  0  0
 14 22  2  0  0  0  0
 14 21  1  0  0  0  0
 15  9  1  0  0  0  0
 16  8  1  0  0  0  0
 17  6  1  0  0  0  0
 17 15  2  0  0  0  0
 18  7  1  0  0  0  0
 19 29  1  6  0  0  0
 19 18  1  0  0  0  0
 19  1  1  0  0  0  0
 20  4  2  0  0  0  0
 21 20  1  0  0  0  0
 23  2  1  0  0  0  0
 24  6  1  0  0  0  0
 26 14  1  0  0  0  0
 27 22  1  0  0  0  0
 28 30  1  0  0  0  0
 28 32  1  0  0  0  0
 30 31  1  0  0  0  0
 31 29  1  0  0  0  0
 32 29  1  0  0  0  0
M  END
>  <MODEL>
4

>  <REMARK>
 VINA RESULT:     -11.2      2.354      5.344
  Name = 
  1 active torsions:
  status: ('A' for Active; 'I' for Inactive)
    1  A    between atoms: C_10  and  C_24
                            x       y       z     vdW  Elec       q    Type
                         _______ _______ _______ _____ _____    ______ ____

>  <TORSDO>
F 1

$$$$
=
 OpenBabel10272413243D

 32 38  0  0  1  0  0  0  0  0999 V2000
  184.0240  178.4430  138.1080 C   0  0  0  0  0  2  0  0  0  0  0  0
  187.1600  178.2260  142.1040 C   0  0  0  0  0  0  0  0  0  0  0  0
  191.6040  177.1680  140.3590 C   0  0  0  0  0  3  0  0  0  0  0  0
  192.0890  177.0530  141.6640 C   0  0  0  0  0  3  0  0  0  0  0  0
  187.1200  178.1710  144.7700 C   0  0  0  0  0  0  0  0  0  0  0  0
  185.8820  178.2260  145.3000 C   0  0  0  0  0  0  0  0  0  0  0  0
  185.2860  178.7840  140.6400 C   0  0  0  0  0  0  0  0  0  0  0  0
  187.5330  178.2770  139.5920 C   0  0  0  0  0  3  0  0  0  0  0  0
  188.1620  177.9860  147.0890 C   0  0  0  0  0  0  0  0  0  0  0  0
  185.5450  178.5200  138.1350 C   0  0  0  0  0  2  0  0  0  0  0  0
  190.2600  177.4800  140.1340 C   0  0  0  0  0  3  0  0  0  0  0  0
  188.0230  178.0190  140.9990 C   0  0  0  0  0  0  0  0  0  0  0  0
  189.3820  177.6750  141.2130 C   0  0  0  0  0  0  0  0  0  0  0  0
  189.0100  177.7520  143.6010 C   0  0  0  0  0  0  0  0  0  0  0  0
  186.9500  178.1400  147.6280 C   0  0  0  0  0  3  0  0  0  0  0  0
  186.0780  178.4060  139.4930 N   0  0  0  0  0  0  0  0  0  0  0  0
  185.7080  178.3990  146.7960 C   0  0  0  0  0  3  0  0  0  0  0  0
  183.8330  179.1260  140.5060 C   0  0  0  0  0  2  0  0  0  0  0  0
  183.4610  179.4830  139.0660 C   0  0  2  0  0  3  0  0  0  0  0  0
  191.2320  177.2470  142.7490 C   0  0  0  0  0  3  0  0  0  0  0  0
  189.8830  177.5530  142.5330 C   0  0  0  0  0  0  0  0  0  0  0  0
  189.3720  177.7370  144.9800 N   0  0  0  0  0  0  0  0  0  0  0  0
  185.7890  178.6800  141.8660 C   0  0  0  0  0  3  0  0  0  0  0  0
  184.4000  178.0580  144.3790 Cl  0  0  0  0  0  0  0  0  0  0  0  0
  189.3390  177.7420  147.9660 C   0  0  0  0  0  1  0  0  0  0  0  0
  187.6680  178.0280  143.4050 C   0  0  0  0  0  0  0  0  0  0  0  0
  188.2870  178.0030  145.6300 C   0  0  0  0  0  0  0  0  0  0  0  0
  180.2240  181.2930  139.1100 C   0  0  0  0  0  2  0  0  0  0  0  0
  181.9500  179.6380  138.8700 C   0  0  0  0  0  3  0  0  0  0  0  0
  180.2030  180.4490  140.3660 C   0  0  0  0  0  2  0  0  0  0  0  0
  181.1400  179.2840  140.1110 C   0  0  0  0  0  2  0  0  0  0  0  0
  181.5830  181.0600  138.4950 C   0  0  0  0  0  2  0  0  0  0  0  0
  1 10  1  0  0  0  0
  1 19  1  0  0  0  0
  2 26  2  0  0  0  0
  3  4  1  0  0  0  0
  4 20  2  0  0  0  0
  5  6  2  0  0  0  0
  5 27  1  0  0  0  0
  6 17  1  0  0  0  0
  7 23  2  0  0  0  0
  8 12  2  0  0  0  0
  9 15  1  0  0  0  0
  9 25  1  0  0  0  0
 10 16  1  0  0  0  0
 11  3  2  0  0  0  0
 11 13  1  0  0  0  0
 12 13  1  0  0  0  0
 12  2  1  0  0  0  0
 13 21  2  0  0  0  0
 14 22  2  0  0  0  0
 16  8  1  0  0  0  0
 16  7  1  0  0  0  0
 17 15  2  0  0  0  0
 18  7  1  0  0  0  0
 19 29  1  1  0  0  0
 19 18  1  0  0  0  0
 21 20  1  0  0  0  0
 21 14  1  0  0  0  0
 22 27  1  0  0  0  0
 23  2  1  0  0  0  0
 24  6  1  0  0  0  0
 26 14  1  0  0  0  0
 26  5  1  0  0  0  0
 27  9  2  0  0  0  0
 28 30  1  0  0  0  0
 29 31  1  0  0  0  0
 31 30  1  0  0  0  0
 32 29  1  0  0  0  0
 32 28  1  0  0  0  0
M  END
>  <MODEL>
5

>  <REMARK>
 VINA RESULT:     -10.8      2.648      6.602
  Name = 
  1 active torsions:
  status: ('A' for Active; 'I' for Inactive)
    1  A    between atoms: C_10  and  C_24
                            x       y       z     vdW  Elec       q    Type
                         _______ _______ _______ _____ _____    ______ ____

>  <TORSDO>
F 1

$$$$
=
 OpenBabel10272413243D

 32 38  0  0  1  0  0  0  0  0999 V2000
  183.3680  178.4480  140.0900 C   0  0  0  0  0  2  0  0  0  0  0  0
  187.6680  177.9300  142.7540 C   0  0  0  0  0  0  0  0  0  0  0  0
  191.2990  177.5010  139.5070 C   0  0  0  0  0  3  0  0  0  0  0  0
  192.1970  177.2440  140.5450 C   0  0  0  0  0  3  0  0  0  0  0  0
  188.5260  177.4960  145.2410 C   0  0  0  0  0  0  0  0  0  0  0  0
  187.5370  177.3730  146.1470 C   0  0  0  0  0  0  0  0  0  0  0  0
  185.3950  178.5310  142.0920 C   0  0  0  0  0  0  0  0  0  0  0  0
  187.1750  178.3650  140.3000 C   0  0  0  0  0  3  0  0  0  0  0  0
  190.2910  177.0730  147.0300 C   0  0  0  0  0  0  0  0  0  0  0  0
  184.8060  178.6460  139.6310 C   0  0  0  0  0  2  0  0  0  0  0  0
  189.9490  177.7290  139.7860 C   0  0  0  0  0  3  0  0  0  0  0  0
  188.1160  177.9530  141.4080 C   0  0  0  0  0  0  0  0  0  0  0  0
  189.4780  177.6970  141.1090 C   0  0  0  0  0  0  0  0  0  0  0  0
  189.9260  177.4040  143.4670 C   0  0  0  0  0  0  0  0  0  0  0  0
  189.3260  177.0490  147.9530 C   0  0  0  0  0  3  0  0  0  0  0  0
  185.7670  178.3860  140.7030 N   0  0  0  0  0  0  0  0  0  0  0  0
  187.8700  177.3180  147.6260 C   0  0  0  0  0  3  0  0  0  0  0  0
  183.9710  178.7670  142.4960 C   0  0  0  0  0  2  0  0  0  0  0  0
  183.1260  179.2920  141.3330 C   0  0  2  0  0  3  0  0  0  0  0  0
  191.7490  177.2110  141.8670 C   0  0  0  0  0  3  0  0  0  0  0  0
  190.3970  177.4310  142.1550 C   0  0  0  0  0  0  0  0  0  0  0  0
  190.7310  177.2250  144.6310 N   0  0  0  0  0  0  0  0  0  0  0  0
  186.2830  178.2970  143.0520 C   0  0  0  0  0  3  0  0  0  0  0  0
  185.8380  177.2140  145.7460 Cl  0  0  0  0  0  0  0  0  0  0  0  0
  191.7010  176.8060  147.4240 C   0  0  0  0  0  1  0  0  0  0  0  0
  188.5880  177.5940  143.7670 C   0  0  0  0  0  0  0  0  0  0  0  0
  189.9190  177.3060  145.6340 C   0  0  0  0  0  0  0  0  0  0  0  0
  180.0650  178.4200  143.2370 C   0  0  0  0  0  2  0  0  0  0  0  0
  181.6340  179.3470  141.6700 C   0  0  0  0  0  3  0  0  0  0  0  0
  179.9820  177.5800  141.9810 C   0  0  0  0  0  2  0  0  0  0  0  0
  180.8080  178.3000  140.9320 C   0  0  0  0  0  2  0  0  0  0  0  0
  181.3910  179.1370  143.1510 C   0  0  0  0  0  2  0  0  0  0  0  0
  1 19  1  0  0  0  0
  2 23  1  0  0  0  0
  2 26  2  0  0  0  0
  3 11  2  0  0  0  0
  3  4  1  0  0  0  0
  4 20  2  0  0  0  0
  5 27  2  0  0  0  0
  5  6  1  0  0  0  0
  6 17  2  0  0  0  0
  7 18  1  0  0  0  0
  7 23  2  0  0  0  0
  8 16  1  0  0  0  0
  8 12  2  0  0  0  0
  9 25  1  0  0  0  0
  9 15  2  0  0  0  0
 10  1  1  0  0  0  0
 10 16  1  0  0  0  0
 11 13  1  0  0  0  0
 12  2  1  0  0  0  0
 13 12  1  0  0  0  0
 13 21  2  0  0  0  0
 14 26  1  0  0  0  0
 14 22  2  0  0  0  0
 16  7  1  0  0  0  0
 17 15  1  0  0  0  0
 19 29  1  1  0  0  0
 19 18  1  0  0  0  0
 20 21  1  0  0  0  0
 21 14  1  0  0  0  0
 22 27  1  0  0  0  0
 24  6  1  0  0  0  0
 26  5  1  0  0  0  0
 27  9  1  0  0  0  0
 29 32  1  0  0  0  0
 30 28  1  0  0  0  0
 31 29  1  0  0  0  0
 31 30  1  0  0  0  0
 32 28  1  0  0  0  0
M  END
>  <MODEL>
6

>  <REMARK>
 VINA RESULT:     -10.6      2.153      6.828
  Name = 
  1 active torsions:
  status: ('A' for Active; 'I' for Inactive)
    1  A    between atoms: C_10  and  C_24
                            x       y       z     vdW  Elec       q    Type
                         _______ _______ _______ _____ _____    ______ ____

>  <TORSDO>
F 1

$$$$
=
 OpenBabel10272413243D

 32 38  0  0  1  0  0  0  0  0999 V2000
  190.0580  177.7140  145.0510 C   0  0  0  0  0  2  0  0  0  0  0  0
  186.7380  178.1020  141.2200 C   0  0  0  0  0  0  0  0  0  0  0  0
  189.3570  178.3250  137.0960 C   0  0  0  0  0  3  0  0  0  0  0  0
  188.1890  178.5630  136.3670 C   0  0  0  0  0  3  0  0  0  0  0  0
  184.1490  178.5420  140.7570 C   0  0  0  0  0  0  0  0  0  0  0  0
  183.4170  178.7220  141.8730 C   0  0  0  0  0  0  0  0  0  0  0  0
  187.7540  177.5830  143.3790 C   0  0  0  0  0  0  0  0  0  0  0  0
  189.2340  177.6440  141.3280 C   0  0  0  0  0  3  0  0  0  0  0  0
  182.1020  178.9240  139.2880 C   0  0  0  0  0  0  0  0  0  0  0  0
  190.2760  177.4500  143.5670 C   0  0  0  0  0  2  0  0  0  0  0  0
  189.2980  178.1570  138.4830 C   0  0  0  0  0  3  0  0  0  0  0  0
  187.9920  178.0370  140.5610 C   0  0  0  0  0  0  0  0  0  0  0  0
  188.0690  178.2320  139.1600 C   0  0  0  0  0  0  0  0  0  0  0  0
  185.6730  178.5460  139.0850 C   0  0  0  0  0  0  0  0  0  0  0  0
  181.3480  179.0040  140.3870 C   0  0  0  0  0  3  0  0  0  0  0  0
  189.0640  177.6880  142.7820 N   0  0  0  0  0  0  0  0  0  0  0  0
  181.9040  178.7880  141.7810 C   0  0  0  0  0  3  0  0  0  0  0  0
  187.5830  177.4120  144.8590 C   0  0  0  0  0  2  0  0  0  0  0  0
  188.8620  176.9030  145.5260 C   0  0  2  0  0  3  0  0  0  0  0  0
  186.9580  178.6370  137.0220 C   0  0  0  0  0  3  0  0  0  0  0  0
  186.8910  178.4770  138.4110 C   0  0  0  0  0  0  0  0  0  0  0  0
  184.3960  178.7120  138.4730 N   0  0  0  0  0  0  0  0  0  0  0  0
  186.6640  177.7960  142.6490 C   0  0  0  0  0  3  0  0  0  0  0  0
  184.0890  178.9440  143.4760 Cl  0  0  0  0  0  0  0  0  0  0  0  0
  181.4870  179.1390  137.9490 C   0  0  0  0  0  1  0  0  0  0  0  0
  185.5920  178.4170  140.4610 C   0  0  0  0  0  0  0  0  0  0  0  0
  183.5380  178.6820  139.4390 C   0  0  0  0  0  0  0  0  0  0  0  0
  188.2320  178.4130  148.8540 C   0  0  0  0  0  2  0  0  0  0  0  0
  188.7720  176.9150  147.0550 C   0  0  0  0  0  3  0  0  0  0  0  0
  189.7390  178.4140  148.7180 C   0  0  0  0  0  2  0  0  0  0  0  0
  190.0770  177.3080  147.7350 C   0  0  0  0  0  2  0  0  0  0  0  0
  187.7110  177.8830  147.5400 C   0  0  0  0  0  2  0  0  0  0  0  0
  1 19  1  0  0  0  0
  2 23  1  0  0  0  0
  3 11  1  0  0  0  0
  4 20  1  0  0  0  0
  4  3  2  0  0  0  0
  5  6  1  0  0  0  0
  6 24  1  0  0  0  0
  7 18  1  0  0  0  0
  8 16  1  0  0  0  0
  9 27  1  0  0  0  0
  9 15  2  0  0  0  0
 10  1  1  0  0  0  0
 11 13  2  0  0  0  0
 12  2  1  0  0  0  0
 12  8  2  0  0  0  0
 13 12  1  0  0  0  0
 14 26  1  0  0  0  0
 15 17  1  0  0  0  0
 16  7  1  0  0  0  0
 16 10  1  0  0  0  0
 17  6  2  0  0  0  0
 18 19  1  0  0  0  0
 19 29  1  1  0  0  0
 20 21  2  0  0  0  0
 21 14  1  0  0  0  0
 21 13  1  0  0  0  0
 22 14  2  0  0  0  0
 22 27  1  0  0  0  0
 23  7  2  0  0  0  0
 25  9  1  0  0  0  0
 26  5  1  0  0  0  0
 26  2  2  0  0  0  0
 27  5  2  0  0  0  0
 29 32  1  0  0  0  0
 29 31  1  0  0  0  0
 30 28  1  0  0  0  0
 31 30  1  0  0  0  0
 32 28  1  0  0  0  0
M  END
>  <MODEL>
7

>  <REMARK>
 VINA RESULT:     -10.5      2.524      8.032
  Name = 
  1 active torsions:
  status: ('A' for Active; 'I' for Inactive)
    1  A    between atoms: C_10  and  C_24
                            x       y       z     vdW  Elec       q    Type
                         _______ _______ _______ _____ _____    ______ ____

>  <TORSDO>
F 1

$$$$
=
 OpenBabel10272413243D

 32 38  0  0  1  0  0  0  0  0999 V2000
  188.5310  177.1350  146.2600 C   0  0  0  0  0  2  0  0  0  0  0  0
  186.9740  178.1350  141.5240 C   0  0  0  0  0  0  0  0  0  0  0  0
  182.1580  178.9500  141.7610 C   0  0  0  0  0  3  0  0  0  0  0  0
  182.1010  179.0220  140.3680 C   0  0  0  0  0  3  0  0  0  0  0  0
  187.8240  178.0380  138.9980 C   0  0  0  0  0  0  0  0  0  0  0  0
  189.0880  177.5910  138.8630 C   0  0  0  0  0  0  0  0  0  0  0  0
  188.3570  177.9200  143.5250 C   0  0  0  0  0  0  0  0  0  0  0  0
  185.8810  178.3590  143.8060 C   0  0  0  0  0  3  0  0  0  0  0  0
  187.5740  178.2550  136.4710 C   0  0  0  0  0  0  0  0  0  0  0  0
  187.2460  177.8090  145.7980 C   0  0  0  0  0  2  0  0  0  0  0  0
  183.3750  178.7050  142.4030 C   0  0  0  0  0  3  0  0  0  0  0  0
  185.7970  178.3010  142.2980 C   0  0  0  0  0  0  0  0  0  0  0  0
  184.5520  178.5230  141.6580 C   0  0  0  0  0  0  0  0  0  0  0  0
  185.6530  178.4180  139.5080 C   0  0  0  0  0  0  0  0  0  0  0  0
  188.8560  177.9100  136.3310 C   0  0  0  0  0  3  0  0  0  0  0  0
  187.1640  177.9010  144.3400 N   0  0  0  0  0  0  0  0  0  0  0  0
  189.7740  177.6640  137.5130 C   0  0  0  0  0  3  0  0  0  0  0  0
  189.7090  177.6580  144.1170 C   0  0  0  0  0  2  0  0  0  0  0  0
  189.7170  177.8550  145.6340 C   0  0  2  0  0  3  0  0  0  0  0  0
  183.2610  178.8470  139.6100 C   0  0  0  0  0  3  0  0  0  0  0  0
  184.4830  178.5950  140.2440 C   0  0  0  0  0  0  0  0  0  0  0  0
  185.7650  178.5320  138.0910 N   0  0  0  0  0  0  0  0  0  0  0  0
  188.2640  178.0100  142.2030 C   0  0  0  0  0  3  0  0  0  0  0  0
  190.0240  176.8580  140.1510 Cl  0  0  0  0  0  0  0  0  0  0  0  0
  186.7320  178.4890  135.2660 C   0  0  0  0  0  1  0  0  0  0  0  0
  186.8650  178.1410  140.1180 C   0  0  0  0  0  0  0  0  0  0  0  0
  187.0140  178.3380  137.8220 C   0  0  0  0  0  0  0  0  0  0  0  0
  192.3570  175.4130  146.5430 C   0  0  0  0  0  2  0  0  0  0  0  0
  191.0290  177.3990  146.2790 C   0  0  0  0  0  3  0  0  0  0  0  0
  191.5270  175.5590  147.8000 C   0  0  0  0  0  2  0  0  0  0  0  0
  190.8630  176.9200  147.7160 C   0  0  0  0  0  2  0  0  0  0  0  0
  191.6610  176.2600  145.5040 C   0  0  0  0  0  2  0  0  0  0  0  0
  2 23  1  0  0  0  0
  2 12  1  0  0  0  0
  3 11  1  0  0  0  0
  4  3  2  0  0  0  0
  5 26  1  0  0  0  0
  6  5  1  0  0  0  0
  6 24  1  0  0  0  0
  7 18  1  0  0  0  0
  7 16  1  0  0  0  0
  8 16  1  0  0  0  0
  9 27  1  0  0  0  0
 10  1  1  0  0  0  0
 12  8  2  0  0  0  0
 13 12  1  0  0  0  0
 13 11  2  0  0  0  0
 14 26  1  0  0  0  0
 14 21  1  0  0  0  0
 15  9  2  0  0  0  0
 15 17  1  0  0  0  0
 16 10  1  0  0  0  0
 17  6  2  0  0  0  0
 18 19  1  0  0  0  0
 19  1  1  0  0  0  0
 19 29  1  1  0  0  0
 20 21  2  0  0  0  0
 20  4  1  0  0  0  0
 21 13  1  0  0  0  0
 22 14  2  0  0  0  0
 23  7  2  0  0  0  0
 25  9  1  0  0  0  0
 26  2  2  0  0  0  0
 27 22  1  0  0  0  0
 27  5  2  0  0  0  0
 28 30  1  0  0  0  0
 29 31  1  0  0  0  0
 31 30  1  0  0  0  0
 32 29  1  0  0  0  0
 32 28  1  0  0  0  0
M  END
>  <MODEL>
8

>  <REMARK>
 VINA RESULT:     -10.4      1.880      7.018
  Name = 
  1 active torsions:
  status: ('A' for Active; 'I' for Inactive)
    1  A    between atoms: C_10  and  C_24
                            x       y       z     vdW  Elec       q    Type
                         _______ _______ _______ _____ _____    ______ ____

>  <TORSDO>
F 1

$$$$
=
 OpenBabel10272413243D

 32 38  0  0  1  0  0  0  0  0999 V2000
  191.6240  178.0190  143.0350 C   0  0  0  0  0  2  0  0  0  0  0  0
  187.6530  177.9590  139.8600 C   0  0  0  0  0  0  0  0  0  0  0  0
  189.4540  177.3450  135.3550 C   0  0  0  0  0  3  0  0  0  0  0  0
  188.1770  177.5260  134.8200 C   0  0  0  0  0  3  0  0  0  0  0  0
  185.0360  178.4660  139.8040 C   0  0  0  0  0  0  0  0  0  0  0  0
  184.5320  178.8700  140.9860 C   0  0  0  0  0  0  0  0  0  0  0  0
  189.0430  177.7460  141.8570 C   0  0  0  0  0  0  0  0  0  0  0  0
  190.1120  177.3820  139.5920 C   0  0  0  0  0  3  0  0  0  0  0  0
  182.7590  178.7170  138.6860 C   0  0  0  0  0  0  0  0  0  0  0  0
  191.5510  177.5010  141.6050 C   0  0  0  0  0  2  0  0  0  0  0  0
  189.6530  177.4120  136.7380 C   0  0  0  0  0  3  0  0  0  0  0  0
  188.7590  177.7130  139.0070 C   0  0  0  0  0  0  0  0  0  0  0  0
  188.5760  177.6690  137.6020 C   0  0  0  0  0  0  0  0  0  0  0  0
  186.2180  178.1050  137.9100 C   0  0  0  0  0  0  0  0  0  0  0  0
  182.2280  179.0210  139.8730 C   0  0  0  0  0  3  0  0  0  0  0  0
  190.2200  177.6760  141.0230 N   0  0  0  0  0  0  0  0  0  0  0  0
  183.0310  179.0080  141.1600 C   0  0  0  0  0  3  0  0  0  0  0  0
  189.1500  177.8330  143.3490 C   0  0  0  0  0  2  0  0  0  0  0  0
  190.5180  177.3680  143.8530 C   0  0  2  0  0  3  0  0  0  0  0  0
  187.0930  177.7790  135.6630 C   0  0  0  0  0  3  0  0  0  0  0  0
  187.2840  177.8550  137.0480 C   0  0  0  0  0  0  0  0  0  0  0  0
  184.8530  178.2410  137.5190 N   0  0  0  0  0  0  0  0  0  0  0  0
  187.8420  177.8990  141.3100 C   0  0  0  0  0  3  0  0  0  0  0  0
  185.4990  179.3150  142.3780 Cl  0  0  0  0  0  0  0  0  0  0  0  0
  181.9100  178.7430  137.4640 C   0  0  0  0  0  1  0  0  0  0  0  0
  186.3930  178.2100  139.2790 C   0  0  0  0  0  0  0  0  0  0  0  0
  184.1910  178.4210  138.6150 C   0  0  0  0  0  0  0  0  0  0  0  0
  191.0990  176.4440  147.3970 C   0  0  0  0  0  2  0  0  0  0  0  0
  190.7170  177.6380  145.3470 C   0  0  0  0  0  3  0  0  0  0  0  0
  189.6130  176.7170  147.3160 C   0  0  0  0  0  2  0  0  0  0  0  0
  189.4150  177.6520  146.1380 C   0  0  0  0  0  2  0  0  0  0  0  0
  191.6100  176.5930  145.9850 C   0  0  0  0  0  2  0  0  0  0  0  0
  1 19  1  0  0  0  0
  2 23  1  0  0  0  0
  3 11  1  0  0  0  0
  4  3  2  0  0  0  0
  4 20  1  0  0  0  0
  5  6  1  0  0  0  0
  6 17  2  0  0  0  0
  6 24  1  0  0  0  0
  7 18  1  0  0  0  0
  8 16  1  0  0  0  0
  9 15  2  0  0  0  0
 10  1  1  0  0  0  0
 11 13  2  0  0  0  0
 12  8  2  0  0  0  0
 12  2  1  0  0  0  0
 13 12  1  0  0  0  0
 14 26  1  0  0  0  0
 15 17  1  0  0  0  0
 16 10  1  0  0  0  0
 16  7  1  0  0  0  0
 18 19  1  0  0  0  0
 19 29  1  1  0  0  0
 20 21  2  0  0  0  0
 21 13  1  0  0  0  0
 21 14  1  0  0  0  0
 22 14  2  0  0  0  0
 22 27  1  0  0  0  0
 23  7  2  0  0  0  0
 25  9  1  0  0  0  0
 26  5  1  0  0  0  0
 26  2  2  0  0  0  0
 27  9  1  0  0  0  0
 27  5  2  0  0  0  0
 29 32  1  0  0  0  0
 29 31  1  0  0  0  0
 30 28  1  0  0  0  0
 31 30  1  0  0  0  0
 32 28  1  0  0  0  0
M  END
>  <MODEL>
9

>  <REMARK>
 VINA RESULT:     -10.1      2.537      7.744
  Name = 
  1 active torsions:
  status: ('A' for Active; 'I' for Inactive)
    1  A    between atoms: C_10  and  C_24
                            x       y       z     vdW  Elec       q    Type
                         _______ _______ _______ _____ _____    ______ ____

>  <TORSDO>
F 1

$$$$
