=
 OpenBabel10272414353D

 43 48  0  0  1  0  0  0  0  0999 V2000
  188.5820  177.7140  148.2220 C   0  0  1  0  0  3  0  0  0  0  0  0
  185.9620  178.2740  143.7710 C   0  0  0  0  0  0  0  0  0  0  0  0
  187.9020  178.1170  141.7340 C   0  0  0  0  0  0  0  0  0  0  0  0
  186.6440  177.8670  146.5460 C   0  0  1  0  0  3  0  0  0  0  0  0
  189.0200  176.5950  147.2720 C   0  0  0  0  0  2  0  0  0  0  0  0
  189.4220  178.8040  148.0830 F   0  0  0  0  0  0  0  0  0  0  0  0
  187.7890  178.0440  145.5410 C   0  0  1  0  0  3  0  0  0  0  0  0
  187.1270  178.1460  147.9740 C   0  0  0  0  0  2  0  0  0  0  0  0
  188.8840  176.9940  145.7920 C   0  0  0  0  0  2  0  0  0  0  0  0
  188.2800  178.0180  143.0760 C   0  0  0  0  0  3  0  0  0  0  0  0
  187.3240  178.0650  144.1010 C   0  0  0  0  0  0  0  0  0  0  0  0
  184.9080  178.3290  144.8510 C   0  0  0  0  0  2  0  0  0  0  0  0
  185.5830  178.3650  142.4160 C   0  0  0  0  0  0  0  0  0  0  0  0
  186.5520  178.2860  141.4130 C   0  0  0  0  0  3  0  0  0  0  0  0
  185.4790  178.7720  146.1910 C   0  0  0  0  0  2  0  0  0  0  0  0
  188.9220  178.0490  140.6750 C   0  0  0  0  0  0  0  0  0  0  0  0
  190.0030  177.4290  140.8750 O   0  0  0  0  0  0  0  0  0  0  0  0
  188.6830  178.6710  139.4470 O   0  0  0  0  0  0  0  0  0  0  0  0
  189.2690  178.2040  138.2400 C   0  0  0  0  0  2  0  0  0  0  0  0
  186.8080  178.1150  137.8450 C   0  0  0  0  0  2  0  0  0  0  0  0
  188.3160  176.2380  137.0610 C   0  0  0  0  0  2  0  0  0  0  0  0
  186.3160  176.3800  135.1930 C   0  0  2  0  0  3  0  0  0  0  0  0
  188.1830  177.7420  137.2870 C   0  0  2  0  0  3  0  0  0  0  0  0
  185.6780  177.6810  136.9140 C   0  0  0  0  0  2  0  0  0  0  0  0
  187.4570  175.6480  135.9220 C   0  0  1  0  0  0  0  0  0  0  0  0
  187.7010  176.2560  134.5610 C   0  0  0  0  0  2  0  0  0  0  0  0
  186.1240  177.7140  135.5880 O   0  0  0  0  0  0  0  0  0  0  0  0
  187.4060  174.2500  135.8480 O   0  0  0  0  0  0  0  0  0  0  0  0
  187.3550  173.8310  137.0980 O   0  0  0  0  0  0  0  0  0  0  0  0
  186.5140  172.7160  137.0690 C   0  0  0  0  0  2  0  0  0  0  0  0
  185.2400  172.9930  137.8730 C   0  0  0  0  0  2  0  0  0  0  0  0
  184.0390  171.4300  136.6920 O   0  0  0  0  0  1  0  0  0  0  0  0
  183.9290  173.5770  135.9690 C   0  0  0  0  0  1  0  0  0  0  0  0
  184.0040  172.7100  137.1350 N   0  0  0  0  0  0  0  0  0  0  0  0
  184.1500  178.5340  142.0120 C   0  0  0  0  0  2  0  0  0  0  0  0
  182.7130  179.1140  138.5300 C   0  0  0  0  0  2  0  0  0  0  0  0
  181.4030  178.4180  138.9220 C   0  0  2  0  0  3  0  0  0  0  0  0
  182.9560  177.0470  140.3940 C   0  0  0  0  0  2  0  0  0  0  0  0
  183.5350  179.4700  139.7640 C   0  0  0  0  0  2  0  0  0  0  0  0
  183.9520  178.2070  140.5390 C   0  0  1  0  0  3  0  0  0  0  0  0
  181.5270  177.5490  140.1860 C   0  0  0  0  0  2  0  0  0  0  0  0
  182.0110  177.2410  136.8780 N   0  0  0  0  0  1  0  0  0  0  0  0
  180.9040  177.5920  137.7490 C   0  0  0  0  0  2  0  0  0  0  0  0
  1  6  1  6  0  0  0
  2 11  1  0  0  0  0
  2 12  1  0  0  0  0
  3 10  1  0  0  0  0
  4 15  1  6  0  0  0
  4  8  1  0  0  0  0
  5  1  1  0  0  0  0
  7  9  1  6  0  0  0
  7  4  1  0  0  0  0
  8  1  1  0  0  0  0
  9  5  1  0  0  0  0
 10 11  2  0  0  0  0
 11  7  1  0  0  0  0
 12 15  1  0  0  0  0
 13  2  2  0  0  0  0
 14  3  2  0  0  0  0
 14 13  1  0  0  0  0
 16 17  2  0  0  0  0
 16  3  1  0  0  0  0
 18 16  1  0  0  0  0
 19 18  1  0  0  0  0
 21 23  1  0  0  0  0
 22 26  1  6  0  0  0
 22 27  1  0  0  0  0
 22 25  1  0  0  0  0
 23 20  1  0  0  0  0
 23 19  1  1  0  0  0
 24 20  1  0  0  0  0
 25 28  1  1  0  0  0
 25 21  1  0  0  0  0
 26 25  1  0  0  0  0
 27 24  1  0  0  0  0
 28 29  1  0  0  0  0
 30 29  1  0  0  0  0
 30 31  1  0  0  0  0
 32 34  1  0  0  0  0
 33 34  1  0  0  0  0
 34 31  1  0  0  0  0
 35 13  1  0  0  0  0
 36 37  1  0  0  0  0
 36 39  1  0  0  0  0
 37 43  1  6  0  0  0
 37 41  1  0  0  0  0
 38 40  1  0  0  0  0
 39 40  1  0  0  0  0
 40 35  1  1  0  0  0
 41 38  1  0  0  0  0
 42 43  1  0  0  0  0
M  END
>  <MODEL>
1

>  <REMARK>
 VINA RESULT:      -8.4      0.000      0.000
  Name = 
  12 active torsions:
  status: ('A' for Active; 'I' for Inactive)
    1  A    between atoms: C_1  and  C_34
    2  A    between atoms: C_1  and  C_35
    3  A    between atoms: C_2  and  O_6
    4  A    between atoms: C_2  and  C_13
    5  A    between atoms: O_6  and  C_17
    6  A    between atoms: O_11  and  O_14
    7  A    between atoms: O_11  and  C_36
    8  A    between atoms: C_12  and  C_17
    9  A    between atoms: O_14  and  C_22
   10  A    between atoms: C_19  and  C_37
   11  A    between atoms: N_31  and  C_40
   12  A    between atoms: C_36  and  C_40
                            x       y       z     vdW  Elec       q    Type
                         _______ _______ _______ _____ _____    ______ ____

>  <TORSDO>
F 12

$$$$
=
 OpenBabel10272414353D

 43 48  0  0  1  0  0  0  0  0999 V2000
  188.6630  177.7750  148.3410 C   0  0  1  0  0  3  0  0  0  0  0  0
  185.8320  178.3490  144.0230 C   0  0  0  0  0  0  0  0  0  0  0  0
  187.6780  178.2470  141.8970 C   0  0  0  0  0  0  0  0  0  0  0  0
  186.6480  177.9180  146.7580 C   0  0  1  0  0  3  0  0  0  0  0  0
  189.0730  176.6740  147.3570 C   0  0  0  0  0  2  0  0  0  0  0  0
  189.4790  178.8790  148.1770 F   0  0  0  0  0  0  0  0  0  0  0  0
  187.7420  178.1260  145.7040 C   0  0  1  0  0  3  0  0  0  0  0  0
  187.1920  178.1870  148.1650 C   0  0  0  0  0  2  0  0  0  0  0  0
  188.8630  177.0890  145.8910 C   0  0  0  0  0  2  0  0  0  0  0  0
  188.1190  178.1370  143.2190 C   0  0  0  0  0  3  0  0  0  0  0  0
  187.2110  178.1570  144.2870 C   0  0  0  0  0  0  0  0  0  0  0  0
  184.8280  178.3750  145.1510 C   0  0  0  0  0  2  0  0  0  0  0  0
  185.3890  178.4510  142.6880 C   0  0  0  0  0  0  0  0  0  0  0  0
  186.3120  178.4000  141.6400 C   0  0  0  0  0  3  0  0  0  0  0  0
  185.4540  178.8090  146.4690 C   0  0  0  0  0  2  0  0  0  0  0  0
  188.6490  178.2080  140.7910 C   0  0  0  0  0  0  0  0  0  0  0  0
  189.8290  177.8120  140.9980 O   0  0  0  0  0  0  0  0  0  0  0  0
  188.2530  178.6080  139.5120 O   0  0  0  0  0  0  0  0  0  0  0  0
  189.1530  178.6110  138.4130 C   0  0  0  0  0  2  0  0  0  0  0  0
  187.4870  176.8760  137.7510 C   0  0  0  0  0  2  0  0  0  0  0  0
  189.9520  176.3170  137.9020 C   0  0  0  0  0  2  0  0  0  0  0  0
  188.9880  174.7660  135.8590 C   0  0  2  0  0  3  0  0  0  0  0  0
  188.9170  177.3840  137.5530 C   0  0  2  0  0  3  0  0  0  0  0  0
  187.1950  175.6460  136.8960 C   0  0  0  0  0  2  0  0  0  0  0  0
  190.0220  175.1060  136.9470 C   0  0  1  0  0  0  0  0  0  0  0  0
  190.3070  175.4500  135.5050 C   0  0  0  0  0  2  0  0  0  0  0  0
  187.9490  175.7020  135.7180 O   0  0  0  0  0  0  0  0  0  0  0  0
  190.8080  174.0280  137.3750 O   0  0  0  0  0  0  0  0  0  0  0  0
  191.7860  174.5610  138.0800 O   0  0  0  0  0  0  0  0  0  0  0  0
  192.9580  174.1290  137.4520 C   0  0  0  0  0  2  0  0  0  0  0  0
  194.0240  175.2280  137.5090 C   0  0  0  0  0  2  0  0  0  0  0  0
  196.3150  175.0680  137.4570 O   0  0  0  0  0  1  0  0  0  0  0  0
  195.1900  173.4090  138.5180 C   0  0  0  0  0  1  0  0  0  0  0  0
  195.2350  174.8370  138.2400 N   0  0  0  0  0  0  0  0  0  0  0  0
  183.9370  178.6030  142.3520 C   0  0  0  0  0  2  0  0  0  0  0  0
  183.2290  178.9870  138.6270 C   0  0  0  0  0  2  0  0  0  0  0  0
  181.7460  179.2600  138.9060 C   0  0  2  0  0  3  0  0  0  0  0  0
  182.1600  177.6810  140.8540 C   0  0  0  0  0  2  0  0  0  0  0  0
  184.0600  179.1230  139.8990 C   0  0  0  0  0  2  0  0  0  0  0  0
  183.6380  178.0840  140.9540 C   0  0  1  0  0  3  0  0  0  0  0  0
  181.2970  178.8200  140.3120 C   0  0  0  0  0  2  0  0  0  0  0  0
  181.5820  178.6410  136.5570 N   0  0  0  0  0  1  0  0  0  0  0  0
  180.9010  178.5880  137.8380 C   0  0  0  0  0  2  0  0  0  0  0  0
  1  6  1  6  0  0  0
  2 11  1  0  0  0  0
  2 12  1  0  0  0  0
  3 10  1  0  0  0  0
  4 15  1  6  0  0  0
  4  8  1  0  0  0  0
  5  1  1  0  0  0  0
  7  9  1  6  0  0  0
  7  4  1  0  0  0  0
  8  1  1  0  0  0  0
  9  5  1  0  0  0  0
 10 11  2  0  0  0  0
 11  7  1  0  0  0  0
 12 15  1  0  0  0  0
 13  2  2  0  0  0  0
 14  3  2  0  0  0  0
 14 13  1  0  0  0  0
 16 17  2  0  0  0  0
 16  3  1  0  0  0  0
 18 16  1  0  0  0  0
 19 18  1  0  0  0  0
 22 26  1  6  0  0  0
 22 25  1  0  0  0  0
 23 20  1  0  0  0  0
 23 21  1  0  0  0  0
 23 19  1  1  0  0  0
 24 20  1  0  0  0  0
 25 28  1  1  0  0  0
 25 21  1  0  0  0  0
 26 25  1  0  0  0  0
 27 22  1  0  0  0  0
 27 24  1  0  0  0  0
 28 29  1  0  0  0  0
 30 31  1  0  0  0  0
 30 29  1  0  0  0  0
 31 34  1  0  0  0  0
 32 34  1  0  0  0  0
 34 33  1  0  0  0  0
 35 13  1  0  0  0  0
 36 37  1  0  0  0  0
 36 39  1  0  0  0  0
 37 43  1  6  0  0  0
 37 41  1  0  0  0  0
 38 40  1  0  0  0  0
 39 40  1  0  0  0  0
 40 35  1  1  0  0  0
 41 38  1  0  0  0  0
 42 43  1  0  0  0  0
M  END
>  <MODEL>
2

>  <REMARK>
 VINA RESULT:      -8.4      2.928      3.879
  Name = 
  12 active torsions:
  status: ('A' for Active; 'I' for Inactive)
    1  A    between atoms: C_1  and  C_34
    2  A    between atoms: C_1  and  C_35
    3  A    between atoms: C_2  and  O_6
    4  A    between atoms: C_2  and  C_13
    5  A    between atoms: O_6  and  C_17
    6  A    between atoms: O_11  and  O_14
    7  A    between atoms: O_11  and  C_36
    8  A    between atoms: C_12  and  C_17
    9  A    between atoms: O_14  and  C_22
   10  A    between atoms: C_19  and  C_37
   11  A    between atoms: N_31  and  C_40
   12  A    between atoms: C_36  and  C_40
                            x       y       z     vdW  Elec       q    Type
                         _______ _______ _______ _____ _____    ______ ____

>  <TORSDO>
F 12

$$$$
=
 OpenBabel10272414353D

 43 48  0  0  1  0  0  0  0  0999 V2000
  188.5730  177.7500  148.0600 C   0  0  1  0  0  3  0  0  0  0  0  0
  185.8750  178.2480  143.6490 C   0  0  0  0  0  0  0  0  0  0  0  0
  187.7890  178.1490  141.5840 C   0  0  0  0  0  0  0  0  0  0  0  0
  186.6080  177.8530  146.4130 C   0  0  1  0  0  3  0  0  0  0  0  0
  189.0270  176.6450  147.1010 C   0  0  0  0  0  2  0  0  0  0  0  0
  189.3810  178.8620  147.9120 F   0  0  0  0  0  0  0  0  0  0  0  0
  187.7330  178.0640  145.3930 C   0  0  1  0  0  3  0  0  0  0  0  0
  187.1040  178.1420  147.8340 C   0  0  0  0  0  2  0  0  0  0  0  0
  188.8600  177.0430  145.6250 C   0  0  0  0  0  2  0  0  0  0  0  0
  188.1880  178.0570  142.9210 C   0  0  0  0  0  3  0  0  0  0  0  0
  187.2470  178.0760  143.9590 C   0  0  0  0  0  0  0  0  0  0  0  0
  184.8350  178.2720  144.7440 C   0  0  0  0  0  2  0  0  0  0  0  0
  185.4740  178.3320  142.3000 C   0  0  0  0  0  0  0  0  0  0  0  0
  186.4300  178.2820  141.2830 C   0  0  0  0  0  3  0  0  0  0  0  0
  185.4140  178.7270  146.0770 C   0  0  0  0  0  2  0  0  0  0  0  0
  188.7950  178.1110  140.5110 C   0  0  0  0  0  0  0  0  0  0  0  0
  188.7300  178.9320  139.5540 O   0  0  0  0  0  0  0  0  0  0  0  0
  189.8220  177.1650  140.5600 O   0  0  0  0  0  0  0  0  0  0  0  0
  191.1190  177.4360  140.0510 C   0  0  0  0  0  2  0  0  0  0  0  0
  192.9610  176.5010  138.6510 C   0  0  0  0  0  2  0  0  0  0  0  0
  190.6120  176.7140  137.7300 C   0  0  0  0  0  2  0  0  0  0  0  0
  191.6440  174.4650  136.5530 C   0  0  2  0  0  3  0  0  0  0  0  0
  191.4650  176.4340  138.9660 C   0  0  2  0  0  3  0  0  0  0  0  0
  193.3630  175.5020  137.5710 C   0  0  0  0  0  2  0  0  0  0  0  0
  190.6470  175.6360  136.6260 C   0  0  1  0  0  0  0  0  0  0  0  0
  190.2230  174.2560  137.0720 C   0  0  0  0  0  2  0  0  0  0  0  0
  192.5320  174.3770  137.6390 O   0  0  0  0  0  0  0  0  0  0  0  0
  190.0480  175.9800  135.4080 O   0  0  0  0  0  0  0  0  0  0  0  0
  189.4820  177.1540  135.6120 O   0  0  0  0  0  0  0  0  0  0  0  0
  188.4370  177.2140  134.6850 C   0  0  0  0  0  2  0  0  0  0  0  0
  187.0980  177.3880  135.4080 C   0  0  0  0  0  2  0  0  0  0  0  0
  186.8750  175.7280  136.9790 O   0  0  0  0  0  1  0  0  0  0  0  0
  186.1200  177.7900  137.5450 C   0  0  0  0  0  1  0  0  0  0  0  0
  187.1480  177.0460  136.8340 N   0  0  0  0  0  0  0  0  0  0  0  0
  184.0320  178.4630  141.9170 C   0  0  0  0  0  2  0  0  0  0  0  0
  182.5660  179.2020  138.4770 C   0  0  0  0  0  2  0  0  0  0  0  0
  181.2720  178.4610  138.8360 C   0  0  2  0  0  3  0  0  0  0  0  0
  182.8580  177.0420  140.2260 C   0  0  0  0  0  2  0  0  0  0  0  0
  183.3870  179.5070  139.7260 C   0  0  0  0  0  2  0  0  0  0  0  0
  183.8320  178.2120  140.4300 C   0  0  1  0  0  3  0  0  0  0  0  0
  181.4190  177.5270  140.0510 C   0  0  0  0  0  2  0  0  0  0  0  0
  181.9130  177.2280  136.8350 N   0  0  0  0  0  1  0  0  0  0  0  0
  180.7830  177.6890  137.6220 C   0  0  0  0  0  2  0  0  0  0  0  0
  1  6  1  6  0  0  0
  2 11  1  0  0  0  0
  2 12  1  0  0  0  0
  3 10  1  0  0  0  0
  4 15  1  6  0  0  0
  4  8  1  0  0  0  0
  5  1  1  0  0  0  0
  7  9  1  6  0  0  0
  7  4  1  0  0  0  0
  8  1  1  0  0  0  0
  9  5  1  0  0  0  0
 10 11  2  0  0  0  0
 11  7  1  0  0  0  0
 12 15  1  0  0  0  0
 13  2  2  0  0  0  0
 14  3  2  0  0  0  0
 14 13  1  0  0  0  0
 16 18  1  0  0  0  0
 16  3  1  0  0  0  0
 17 16  2  0  0  0  0
 19 18  1  0  0  0  0
 20 23  1  0  0  0  0
 21 23  1  0  0  0  0
 22 25  1  0  0  0  0
 22 26  1  1  0  0  0
 22 27  1  0  0  0  0
 23 19  1  1  0  0  0
 24 27  1  0  0  0  0
 24 20  1  0  0  0  0
 25 28  1  6  0  0  0
 25 26  1  0  0  0  0
 25 21  1  0  0  0  0
 28 29  1  0  0  0  0
 30 31  1  0  0  0  0
 30 29  1  0  0  0  0
 31 34  1  0  0  0  0
 34 32  1  0  0  0  0
 34 33  1  0  0  0  0
 35 13  1  0  0  0  0
 36 37  1  0  0  0  0
 36 39  1  0  0  0  0
 37 43  1  6  0  0  0
 37 41  1  0  0  0  0
 38 40  1  0  0  0  0
 39 40  1  0  0  0  0
 40 35  1  1  0  0  0
 41 38  1  0  0  0  0
 42 43  1  0  0  0  0
M  END
>  <MODEL>
3

>  <REMARK>
 VINA RESULT:      -8.3      1.991      3.160
  Name = 
  12 active torsions:
  status: ('A' for Active; 'I' for Inactive)
    1  A    between atoms: C_1  and  C_34
    2  A    between atoms: C_1  and  C_35
    3  A    between atoms: C_2  and  O_6
    4  A    between atoms: C_2  and  C_13
    5  A    between atoms: O_6  and  C_17
    6  A    between atoms: O_11  and  O_14
    7  A    between atoms: O_11  and  C_36
    8  A    between atoms: C_12  and  C_17
    9  A    between atoms: O_14  and  C_22
   10  A    between atoms: C_19  and  C_37
   11  A    between atoms: N_31  and  C_40
   12  A    between atoms: C_36  and  C_40
                            x       y       z     vdW  Elec       q    Type
                         _______ _______ _______ _____ _____    ______ ____

>  <TORSDO>
F 12

$$$$
=
 OpenBabel10272414353D

 43 48  0  0  1  0  0  0  0  0999 V2000
  190.8260  176.5130  147.4720 C   0  0  1  0  0  3  0  0  0  0  0  0
  189.0080  177.9130  142.8120 C   0  0  0  0  0  0  0  0  0  0  0  0
  186.2170  178.1350  143.1310 C   0  0  0  0  0  0  0  0  0  0  0  0
  190.7460  177.3370  145.0430 C   0  0  1  0  0  3  0  0  0  0  0  0
  189.8820  177.7030  147.6710 C   0  0  0  0  0  2  0  0  0  0  0  0
  190.1220  175.3290  147.5990 F   0  0  0  0  0  0  0  0  0  0  0  0
  189.2350  177.1620  145.2430 C   0  0  1  0  0  3  0  0  0  0  0  0
  191.5270  176.5540  146.1040 C   0  0  0  0  0  2  0  0  0  0  0  0
  188.8010  177.7840  146.5810 C   0  0  0  0  0  2  0  0  0  0  0  0
  187.0220  177.7530  144.2080 C   0  0  0  0  0  3  0  0  0  0  0  0
  188.4150  177.6660  144.0750 C   0  0  0  0  0  0  0  0  0  0  0  0
  190.5050  177.8280  142.6340 C   0  0  0  0  0  2  0  0  0  0  0  0
  188.1950  178.3060  141.7290 C   0  0  0  0  0  0  0  0  0  0  0  0
  186.8120  178.4130  141.8970 C   0  0  0  0  0  3  0  0  0  0  0  0
  191.1530  176.8960  143.6490 C   0  0  0  0  0  2  0  0  0  0  0  0
  184.7590  178.2350  143.3000 C   0  0  0  0  0  0  0  0  0  0  0  0
  184.2650  178.4200  144.4470 O   0  0  0  0  0  0  0  0  0  0  0  0
  183.9260  178.1280  142.1830 O   0  0  0  0  0  0  0  0  0  0  0  0
  182.6360  178.7220  142.1470 C   0  0  0  0  0  2  0  0  0  0  0  0
  180.7880  179.5030  140.6640 C   0  0  0  0  0  2  0  0  0  0  0  0
  182.1040  177.4140  140.1040 C   0  0  0  0  0  2  0  0  0  0  0  0
  181.4590  178.5250  137.6840 C   0  0  2  0  0  3  0  0  0  0  0  0
  182.1540  178.8140  140.7110 C   0  0  2  0  0  3  0  0  0  0  0  0
  180.2630  179.6320  139.2370 C   0  0  0  0  0  2  0  0  0  0  0  0
  181.8840  177.3470  138.5780 C   0  0  1  0  0  0  0  0  0  0  0  0
  182.9180  178.0780  137.7540 C   0  0  0  0  0  2  0  0  0  0  0  0
  181.3390  179.7570  138.3500 O   0  0  0  0  0  0  0  0  0  0  0  0
  181.6220  176.0770  138.0480 O   0  0  0  0  0  0  0  0  0  0  0  0
  182.5350  175.2800  138.5690 O   0  0  0  0  0  0  0  0  0  0  0  0
  182.9260  174.4460  137.5190 C   0  0  0  0  0  2  0  0  0  0  0  0
  184.4460  174.2570  137.5320 C   0  0  0  0  0  2  0  0  0  0  0  0
  186.2200  172.8360  137.8710 O   0  0  0  0  0  1  0  0  0  0  0  0
  184.4260  172.0000  136.7630 C   0  0  0  0  0  1  0  0  0  0  0  0
  184.8670  172.8840  137.8320 N   0  0  0  0  0  0  0  0  0  0  0  0
  188.7770  178.6290  140.3870 C   0  0  0  0  0  2  0  0  0  0  0  0
  190.0030  176.2880  137.6400 C   0  0  0  0  0  2  0  0  0  0  0  0
  189.5730  177.2850  136.5570 C   0  0  2  0  0  3  0  0  0  0  0  0
  187.7560  177.8340  138.2470 C   0  0  0  0  0  2  0  0  0  0  0  0
  190.0460  176.9540  139.0120 C   0  0  0  0  0  2  0  0  0  0  0  0
  188.6510  177.4490  139.4340 C   0  0  1  0  0  3  0  0  0  0  0  0
  188.5750  178.3430  137.0610 C   0  0  0  0  0  2  0  0  0  0  0  0
  189.0770  175.0950  135.6140 N   0  0  0  0  0  1  0  0  0  0  0  0
  188.9980  176.5250  135.3750 C   0  0  0  0  0  2  0  0  0  0  0  0
  1  6  1  6  0  0  0
  1  5  1  0  0  0  0
  2 11  1  0  0  0  0
  3 16  1  0  0  0  0
  3 10  1  0  0  0  0
  4 15  1  6  0  0  0
  4  7  1  0  0  0  0
  4  8  1  0  0  0  0
  7  9  1  1  0  0  0
  8  1  1  0  0  0  0
  9  5  1  0  0  0  0
 11 10  2  0  0  0  0
 11  7  1  0  0  0  0
 12  2  1  0  0  0  0
 12 15  1  0  0  0  0
 13 14  1  0  0  0  0
 13  2  2  0  0  0  0
 14  3  2  0  0  0  0
 16 17  2  0  0  0  0
 18 16  1  0  0  0  0
 19 18  1  0  0  0  0
 20 23  1  0  0  0  0
 21 23  1  0  0  0  0
 22 26  1  6  0  0  0
 22 27  1  0  0  0  0
 22 25  1  0  0  0  0
 23 19  1  1  0  0  0
 24 20  1  0  0  0  0
 25 28  1  6  0  0  0
 25 21  1  0  0  0  0
 26 25  1  0  0  0  0
 27 24  1  0  0  0  0
 28 29  1  0  0  0  0
 30 31  1  0  0  0  0
 30 29  1  0  0  0  0
 31 34  1  0  0  0  0
 33 34  1  0  0  0  0
 34 32  1  0  0  0  0
 35 13  1  0  0  0  0
 36 39  1  0  0  0  0
 37 43  1  6  0  0  0
 37 41  1  0  0  0  0
 37 36  1  0  0  0  0
 38 40  1  0  0  0  0
 39 40  1  0  0  0  0
 40 35  1  1  0  0  0
 41 38  1  0  0  0  0
 43 42  1  0  0  0  0
M  END
>  <MODEL>
4

>  <REMARK>
 VINA RESULT:      -8.1      2.593      5.320
  Name = 
  12 active torsions:
  status: ('A' for Active; 'I' for Inactive)
    1  A    between atoms: C_1  and  C_34
    2  A    between atoms: C_1  and  C_35
    3  A    between atoms: C_2  and  O_6
    4  A    between atoms: C_2  and  C_13
    5  A    between atoms: O_6  and  C_17
    6  A    between atoms: O_11  and  O_14
    7  A    between atoms: O_11  and  C_36
    8  A    between atoms: C_12  and  C_17
    9  A    between atoms: O_14  and  C_22
   10  A    between atoms: C_19  and  C_37
   11  A    between atoms: N_31  and  C_40
   12  A    between atoms: C_36  and  C_40
                            x       y       z     vdW  Elec       q    Type
                         _______ _______ _______ _____ _____    ______ ____

>  <TORSDO>
F 12

$$$$
=
 OpenBabel10272414353D

 43 48  0  0  1  0  0  0  0  0999 V2000
  188.4560  177.8180  148.5650 C   0  0  1  0  0  3  0  0  0  0  0  0
  186.1370  178.3420  143.9460 C   0  0  0  0  0  0  0  0  0  0  0  0
  188.1420  177.8150  142.0370 C   0  0  0  0  0  0  0  0  0  0  0  0
  186.6330  178.0650  146.7760 C   0  0  1  0  0  3  0  0  0  0  0  0
  188.8050  176.5890  147.7190 C   0  0  0  0  0  2  0  0  0  0  0  0
  189.4240  178.7910  148.4000 F   0  0  0  0  0  0  0  0  0  0  0  0
  187.8380  178.0370  145.8280 C   0  0  1  0  0  3  0  0  0  0  0  0
  187.0760  178.3920  148.2070 C   0  0  0  0  0  2  0  0  0  0  0  0
  188.7880  176.8900  146.2110 C   0  0  0  0  0  2  0  0  0  0  0  0
  188.4400  177.7730  143.4020 C   0  0  0  0  0  3  0  0  0  0  0  0
  187.4480  178.0040  144.3660 C   0  0  0  0  0  0  0  0  0  0  0  0
  185.0470  178.5960  144.9590 C   0  0  0  0  0  2  0  0  0  0  0  0
  185.8370  178.3740  142.5690 C   0  0  0  0  0  0  0  0  0  0  0  0
  186.8380  178.1120  141.6300 C   0  0  0  0  0  3  0  0  0  0  0  0
  185.6010  179.0680  146.2960 C   0  0  0  0  0  2  0  0  0  0  0  0
  189.1960  177.5530  141.0440 C   0  0  0  0  0  0  0  0  0  0  0  0
  190.3900  177.3870  141.4170 O   0  0  0  0  0  0  0  0  0  0  0  0
  188.8650  177.4860  139.6880 O   0  0  0  0  0  0  0  0  0  0  0  0
  189.7430  177.9540  138.6760 C   0  0  0  0  0  2  0  0  0  0  0  0
  189.0980  175.7280  137.7540 C   0  0  0  0  0  2  0  0  0  0  0  0
  191.5030  176.2310  138.3640 C   0  0  0  0  0  2  0  0  0  0  0  0
  191.6470  174.5440  136.2090 C   0  0  2  0  0  3  0  0  0  0  0  0
  190.1950  176.7930  137.8110 C   0  0  2  0  0  3  0  0  0  0  0  0
  189.5000  174.5400  136.8850 C   0  0  0  0  0  2  0  0  0  0  0  0
  192.2370  175.2160  137.4620 C   0  0  1  0  0  0  0  0  0  0  0  0
  192.5990  175.7320  136.0890 C   0  0  0  0  0  2  0  0  0  0  0  0
  190.3540  174.9730  135.8630 O   0  0  0  0  0  0  0  0  0  0  0  0
  193.3140  174.5370  138.0460 O   0  0  0  0  0  0  0  0  0  0  0  0
  194.3370  175.3660  137.9720 O   0  0  0  0  0  0  0  0  0  0  0  0
  195.4320  174.6280  138.4300 C   0  0  0  0  0  2  0  0  0  0  0  0
  196.5420  174.6180  137.3740 C   0  0  0  0  0  2  0  0  0  0  0  0
  198.8200  174.7670  137.1170 O   0  0  0  0  0  1  0  0  0  0  0  0
  198.0030  174.9950  139.2200 C   0  0  0  0  0  1  0  0  0  0  0  0
  197.7770  175.2800  137.8110 N   0  0  0  0  0  0  0  0  0  0  0  0
  184.4560  178.6750  142.0740 C   0  0  0  0  0  2  0  0  0  0  0  0
  183.2890  179.1250  138.4740 C   0  0  0  0  0  2  0  0  0  0  0  0
  181.8750  178.6580  138.8420 C   0  0  2  0  0  3  0  0  0  0  0  0
  183.1390  177.2260  140.5180 C   0  0  0  0  0  2  0  0  0  0  0  0
  184.0920  179.4750  139.7220 C   0  0  0  0  0  2  0  0  0  0  0  0
  184.2840  178.2440  140.6250 C   0  0  1  0  0  3  0  0  0  0  0  0
  181.8100  177.9010  140.1810 C   0  0  0  0  0  2  0  0  0  0  0  0
  179.9860  177.3380  138.0530 N   0  0  0  0  0  1  0  0  0  0  0  0
  181.3190  177.8050  137.7150 C   0  0  0  0  0  2  0  0  0  0  0  0
  1  6  1  6  0  0  0
  2 11  1  0  0  0  0
  2 12  1  0  0  0  0
  3 10  1  0  0  0  0
  4 15  1  6  0  0  0
  4  8  1  0  0  0  0
  5  1  1  0  0  0  0
  7  9  1  1  0  0  0
  7  4  1  0  0  0  0
  8  1  1  0  0  0  0
  9  5  1  0  0  0  0
 10 11  2  0  0  0  0
 11  7  1  0  0  0  0
 12 15  1  0  0  0  0
 13  2  2  0  0  0  0
 14  3  2  0  0  0  0
 14 13  1  0  0  0  0
 16 17  2  0  0  0  0
 16  3  1  0  0  0  0
 18 16  1  0  0  0  0
 19 18  1  0  0  0  0
 20 23  1  0  0  0  0
 22 26  1  6  0  0  0
 22 25  1  0  0  0  0
 23 21  1  0  0  0  0
 23 19  1  1  0  0  0
 24 20  1  0  0  0  0
 25 28  1  1  0  0  0
 25 21  1  0  0  0  0
 26 25  1  0  0  0  0
 27 22  1  0  0  0  0
 27 24  1  0  0  0  0
 29 28  1  0  0  0  0
 29 30  1  0  0  0  0
 31 34  1  0  0  0  0
 31 30  1  0  0  0  0
 32 34  1  0  0  0  0
 34 33  1  0  0  0  0
 35 13  1  0  0  0  0
 36 37  1  0  0  0  0
 36 39  1  0  0  0  0
 37 43  1  6  0  0  0
 37 41  1  0  0  0  0
 38 40  1  0  0  0  0
 39 40  1  0  0  0  0
 40 35  1  1  0  0  0
 41 38  1  0  0  0  0
 43 42  1  0  0  0  0
M  END
>  <MODEL>
5

>  <REMARK>
 VINA RESULT:      -8.1      3.885      5.102
  Name = 
  12 active torsions:
  status: ('A' for Active; 'I' for Inactive)
    1  A    between atoms: C_1  and  C_34
    2  A    between atoms: C_1  and  C_35
    3  A    between atoms: C_2  and  O_6
    4  A    between atoms: C_2  and  C_13
    5  A    between atoms: O_6  and  C_17
    6  A    between atoms: O_11  and  O_14
    7  A    between atoms: O_11  and  C_36
    8  A    between atoms: C_12  and  C_17
    9  A    between atoms: O_14  and  C_22
   10  A    between atoms: C_19  and  C_37
   11  A    between atoms: N_31  and  C_40
   12  A    between atoms: C_36  and  C_40
                            x       y       z     vdW  Elec       q    Type
                         _______ _______ _______ _____ _____    ______ ____

>  <TORSDO>
F 12

$$$$
=
 OpenBabel10272414353D

 43 48  0  0  1  0  0  0  0  0999 V2000
  180.2390  178.6290  140.6230 C   0  0  1  0  0  3  0  0  0  0  0  0
  184.3760  178.6900  143.7640 C   0  0  0  0  0  0  0  0  0  0  0  0
  186.5960  178.2450  142.0870 C   0  0  0  0  0  0  0  0  0  0  0  0
  181.7080  178.9720  142.6990 C   0  0  1  0  0  3  0  0  0  0  0  0
  181.2890  179.5560  140.0030 C   0  0  0  0  0  2  0  0  0  0  0  0
  180.3950  177.3460  140.1330 F   0  0  0  0  0  0  0  0  0  0  0  0
  182.8060  178.4550  141.7620 C   0  0  1  0  0  3  0  0  0  0  0  0
  180.3200  178.6110  142.1580 C   0  0  0  0  0  2  0  0  0  0  0  0
  182.7230  179.1680  140.4020 C   0  0  0  0  0  2  0  0  0  0  0  0
  185.3050  178.2740  141.5540 C   0  0  0  0  0  3  0  0  0  0  0  0
  184.1910  178.5230  142.3690 C   0  0  0  0  0  0  0  0  0  0  0  0
  183.1980  178.9610  144.6690 C   0  0  0  0  0  2  0  0  0  0  0  0
  185.6810  178.6700  144.2980 C   0  0  0  0  0  0  0  0  0  0  0  0
  186.7760  178.4480  143.4590 C   0  0  0  0  0  3  0  0  0  0  0  0
  181.8960  178.4150  144.0980 C   0  0  0  0  0  2  0  0  0  0  0  0
  187.7510  177.9980  141.2090 C   0  0  0  0  0  0  0  0  0  0  0  0
  188.6780  177.2280  141.5840 O   0  0  0  0  0  0  0  0  0  0  0  0
  187.8120  178.6170  139.9580 O   0  0  0  0  0  0  0  0  0  0  0  0
  188.9180  178.4420  139.0850 C   0  0  0  0  0  2  0  0  0  0  0  0
  189.2410  178.2410  136.6190 C   0  0  0  0  0  2  0  0  0  0  0  0
  186.9630  177.8740  137.6630 C   0  0  0  0  0  2  0  0  0  0  0  0
  187.0560  176.1650  135.5230 C   0  0  2  0  0  3  0  0  0  0  0  0
  188.4720  177.7110  137.8320 C   0  0  2  0  0  3  0  0  0  0  0  0
  188.8360  177.5280  135.3310 C   0  0  0  0  0  2  0  0  0  0  0  0
  186.3040  176.9840  136.5870 C   0  0  1  0  0  0  0  0  0  0  0  0
  186.5040  175.5000  136.7820 C   0  0  0  0  0  2  0  0  0  0  0  0
  188.4570  176.2120  135.6220 O   0  0  0  0  0  0  0  0  0  0  0  0
  184.9700  177.2780  136.2760 O   0  0  0  0  0  0  0  0  0  0  0  0
  184.3540  177.3970  137.4360 O   0  0  0  0  0  0  0  0  0  0  0  0
  183.0040  177.1760  137.1490 C   0  0  0  0  0  2  0  0  0  0  0  0
  182.4170  176.1540  138.1280 C   0  0  0  0  0  2  0  0  0  0  0  0
  182.4430  174.8780  136.2170 O   0  0  0  0  0  1  0  0  0  0  0  0
  180.9230  174.3240  137.8070 C   0  0  0  0  0  1  0  0  0  0  0  0
  182.2720  174.8090  137.5590 N   0  0  0  0  0  0  0  0  0  0  0  0
  185.9340  178.8930  145.7570 C   0  0  0  0  0  2  0  0  0  0  0  0
  188.3430  177.2740  148.2280 C   0  0  0  0  0  2  0  0  0  0  0  0
  189.5450  177.6670  147.3600 C   0  0  2  0  0  3  0  0  0  0  0  0
  187.8730  177.3380  145.4750 C   0  0  0  0  0  2  0  0  0  0  0  0
  187.0950  178.0490  147.8180 C   0  0  0  0  0  2  0  0  0  0  0  0
  186.6860  177.7210  146.3710 C   0  0  1  0  0  3  0  0  0  0  0  0
  189.1620  178.0320  145.9140 C   0  0  0  0  0  2  0  0  0  0  0  0
  191.6580  176.8440  146.4710 N   0  0  0  0  0  1  0  0  0  0  0  0
  190.5650  176.5420  147.3770 C   0  0  0  0  0  2  0  0  0  0  0  0
  1  6  1  6  0  0  0
  1  8  1  0  0  0  0
  2 13  1  0  0  0  0
  2 12  1  0  0  0  0
  3 14  1  0  0  0  0
  4  8  1  6  0  0  0
  4 15  1  0  0  0  0
  5  9  1  0  0  0  0
  5  1  1  0  0  0  0
  7  9  1  6  0  0  0
  7 11  1  0  0  0  0
  7  4  1  0  0  0  0
 10  3  2  0  0  0  0
 10 11  1  0  0  0  0
 11  2  2  0  0  0  0
 13 35  1  0  0  0  0
 14 13  2  0  0  0  0
 15 12  1  0  0  0  0
 16 17  2  0  0  0  0
 16  3  1  0  0  0  0
 18 16  1  0  0  0  0
 19 18  1  0  0  0  0
 20 23  1  0  0  0  0
 21 23  1  0  0  0  0
 22 27  1  0  0  0  0
 22 25  1  0  0  0  0
 22 26  1  1  0  0  0
 23 19  1  1  0  0  0
 24 27  1  0  0  0  0
 24 20  1  0  0  0  0
 25 28  1  6  0  0  0
 25 26  1  0  0  0  0
 25 21  1  0  0  0  0
 28 29  1  0  0  0  0
 30 29  1  0  0  0  0
 30 31  1  0  0  0  0
 32 34  1  0  0  0  0
 34 33  1  0  0  0  0
 34 31  1  0  0  0  0
 37 43  1  6  0  0  0
 37 36  1  0  0  0  0
 38 41  1  0  0  0  0
 38 40  1  0  0  0  0
 39 36  1  0  0  0  0
 40 35  1  6  0  0  0
 40 39  1  0  0  0  0
 41 37  1  0  0  0  0
 42 43  1  0  0  0  0
M  END
>  <MODEL>
6

>  <REMARK>
 VINA RESULT:      -7.9      3.137      6.430
  Name = 
  12 active torsions:
  status: ('A' for Active; 'I' for Inactive)
    1  A    between atoms: C_1  and  C_34
    2  A    between atoms: C_1  and  C_35
    3  A    between atoms: C_2  and  O_6
    4  A    between atoms: C_2  and  C_13
    5  A    between atoms: O_6  and  C_17
    6  A    between atoms: O_11  and  O_14
    7  A    between atoms: O_11  and  C_36
    8  A    between atoms: C_12  and  C_17
    9  A    between atoms: O_14  and  C_22
   10  A    between atoms: C_19  and  C_37
   11  A    between atoms: N_31  and  C_40
   12  A    between atoms: C_36  and  C_40
                            x       y       z     vdW  Elec       q    Type
                         _______ _______ _______ _____ _____    ______ ____

>  <TORSDO>
F 12

$$$$
=
 OpenBabel10272414353D

 43 48  0  0  1  0  0  0  0  0999 V2000
  188.6670  177.0370  148.1820 C   0  0  1  0  0  3  0  0  0  0  0  0
  188.2210  178.0840  143.1140 C   0  0  0  0  0  0  0  0  0  0  0  0
  185.4550  178.3430  142.6420 C   0  0  0  0  0  0  0  0  0  0  0  0
  189.2710  177.6730  145.7700 C   0  0  1  0  0  3  0  0  0  0  0  0
  187.7350  178.2440  148.0290 C   0  0  0  0  0  2  0  0  0  0  0  0
  187.9250  175.8700  148.1980 F   0  0  0  0  0  0  0  0  0  0  0  0
  187.7600  177.5210  145.5620 C   0  0  1  0  0  3  0  0  0  0  0  0
  189.7150  176.9710  147.0590 C   0  0  0  0  0  2  0  0  0  0  0  0
  186.9930  178.2460  146.6820 C   0  0  0  0  0  2  0  0  0  0  0  0
  185.9270  178.0410  143.9220 C   0  0  0  0  0  3  0  0  0  0  0  0
  187.3010  177.9370  144.1810 C   0  0  0  0  0  0  0  0  0  0  0  0
  189.7070  177.9800  143.3580 C   0  0  0  0  0  2  0  0  0  0  0  0
  187.7440  178.3970  141.8250 C   0  0  0  0  0  0  0  0  0  0  0  0
  186.3700  178.5230  141.6000 C   0  0  0  0  0  3  0  0  0  0  0  0
  190.0310  177.1250  144.5770 C   0  0  0  0  0  2  0  0  0  0  0  0
  184.0090  178.4620  142.3980 C   0  0  0  0  0  0  0  0  0  0  0  0
  183.2080  178.5420  143.3690 O   0  0  0  0  0  0  0  0  0  0  0  0
  183.5310  178.4890  141.0850 O   0  0  0  0  0  0  0  0  0  0  0  0
  182.7410  177.4360  140.5510 C   0  0  0  0  0  2  0  0  0  0  0  0
  183.9050  178.0580  138.4340 C   0  0  0  0  0  2  0  0  0  0  0  0
  182.3790  176.0400  138.5300 C   0  0  0  0  0  2  0  0  0  0  0  0
  184.3480  175.3670  136.7470 C   0  0  2  0  0  3  0  0  0  0  0  0
  183.3880  176.8990  139.2890 C   0  0  2  0  0  3  0  0  0  0  0  0
  184.5780  177.5680  137.1550 C   0  0  0  0  0  2  0  0  0  0  0  0
  182.9450  175.2070  137.3600 C   0  0  1  0  0  0  0  0  0  0  0  0
  184.0470  174.2460  137.7400 C   0  0  0  0  0  2  0  0  0  0  0  0
  185.1650  176.3180  137.3820 O   0  0  0  0  0  0  0  0  0  0  0  0
  182.0020  174.5900  136.5280 O   0  0  0  0  0  0  0  0  0  0  0  0
  181.9150  173.3450  136.9540 O   0  0  0  0  0  0  0  0  0  0  0  0
  181.2540  172.6610  135.9300 C   0  0  0  0  0  2  0  0  0  0  0  0
  181.6960  171.1940  135.9040 C   0  0  0  0  0  2  0  0  0  0  0  0
  183.3680  171.5180  134.3620 O   0  0  0  0  0  1  0  0  0  0  0  0
  183.4250  169.5900  135.5550 C   0  0  0  0  0  1  0  0  0  0  0  0
  183.1180  171.0120  135.5930 N   0  0  0  0  0  0  0  0  0  0  0  0
  188.6770  178.6140  140.6730 C   0  0  0  0  0  2  0  0  0  0  0  0
  190.7290  176.1400  138.6250 C   0  0  0  0  0  2  0  0  0  0  0  0
  190.4900  176.9530  137.3470 C   0  0  2  0  0  3  0  0  0  0  0  0
  188.2770  177.4730  138.4840 C   0  0  0  0  0  2  0  0  0  0  0  0
  190.3810  176.9550  139.8660 C   0  0  0  0  0  2  0  0  0  0  0  0
  188.8880  177.3290  139.8860 C   0  0  1  0  0  3  0  0  0  0  0  0
  189.3120  177.9380  137.4600 C   0  0  0  0  0  2  0  0  0  0  0  0
  189.8520  174.7050  136.6610 N   0  0  0  0  0  1  0  0  0  0  0  0
  190.2860  176.0040  136.1790 C   0  0  0  0  0  2  0  0  0  0  0  0
  1  6  1  6  0  0  0
  2 12  1  0  0  0  0
  2 11  1  0  0  0  0
  3 10  1  0  0  0  0
  4 15  1  6  0  0  0
  4  8  1  0  0  0  0
  5  1  1  0  0  0  0
  7  4  1  0  0  0  0
  7  9  1  1  0  0  0
  8  1  1  0  0  0  0
  9  5  1  0  0  0  0
 10 11  2  0  0  0  0
 11  7  1  0  0  0  0
 12 15  1  0  0  0  0
 13  2  2  0  0  0  0
 14 13  1  0  0  0  0
 14  3  2  0  0  0  0
 16  3  1  0  0  0  0
 16 17  2  0  0  0  0
 18 16  1  0  0  0  0
 19 18  1  0  0  0  0
 20 23  1  0  0  0  0
 21 23  1  0  0  0  0
 22 25  1  0  0  0  0
 22 27  1  0  0  0  0
 22 26  1  1  0  0  0
 23 19  1  1  0  0  0
 24 27  1  0  0  0  0
 24 20  1  0  0  0  0
 25 28  1  6  0  0  0
 25 26  1  0  0  0  0
 25 21  1  0  0  0  0
 28 29  1  0  0  0  0
 30 29  1  0  0  0  0
 31 30  1  0  0  0  0
 32 34  1  0  0  0  0
 33 34  1  0  0  0  0
 34 31  1  0  0  0  0
 35 13  1  0  0  0  0
 36 39  1  0  0  0  0
 37 43  1  6  0  0  0
 37 41  1  0  0  0  0
 37 36  1  0  0  0  0
 38 40  1  0  0  0  0
 39 40  1  0  0  0  0
 40 35  1  6  0  0  0
 41 38  1  0  0  0  0
 43 42  1  0  0  0  0
M  END
>  <MODEL>
7

>  <REMARK>
 VINA RESULT:      -7.7      2.427      4.990
  Name = 
  12 active torsions:
  status: ('A' for Active; 'I' for Inactive)
    1  A    between atoms: C_1  and  C_34
    2  A    between atoms: C_1  and  C_35
    3  A    between atoms: C_2  and  O_6
    4  A    between atoms: C_2  and  C_13
    5  A    between atoms: O_6  and  C_17
    6  A    between atoms: O_11  and  O_14
    7  A    between atoms: O_11  and  C_36
    8  A    between atoms: C_12  and  C_17
    9  A    between atoms: O_14  and  C_22
   10  A    between atoms: C_19  and  C_37
   11  A    between atoms: N_31  and  C_40
   12  A    between atoms: C_36  and  C_40
                            x       y       z     vdW  Elec       q    Type
                         _______ _______ _______ _____ _____    ______ ____

>  <TORSDO>
F 12

$$$$
=
 OpenBabel10272414353D

 43 48  0  0  1  0  0  0  0  0999 V2000
  185.6440  178.4270  146.7710 C   0  0  1  0  0  3  0  0  0  0  0  0
  184.5680  178.6470  141.6930 C   0  0  0  0  0  0  0  0  0  0  0  0
  187.0550  178.4170  140.3890 C   0  0  0  0  0  0  0  0  0  0  0  0
  184.3370  178.4270  144.5620 C   0  0  1  0  0  3  0  0  0  0  0  0
  186.3670  177.2640  146.0840 C   0  0  0  0  0  2  0  0  0  0  0  0
  186.4790  179.5280  146.8330 F   0  0  0  0  0  0  0  0  0  0  0  0
  185.7410  178.5730  143.9620 C   0  0  1  0  0  3  0  0  0  0  0  0
  184.3410  178.8040  146.0480 C   0  0  0  0  0  2  0  0  0  0  0  0
  186.7060  177.5690  144.6150 C   0  0  0  0  0  2  0  0  0  0  0  0
  186.9880  178.4100  141.7850 C   0  0  0  0  0  3  0  0  0  0  0  0
  185.7560  178.4950  142.4500 C   0  0  0  0  0  0  0  0  0  0  0  0
  183.2260  178.7400  142.3790 C   0  0  0  0  0  2  0  0  0  0  0  0
  184.6380  178.6450  140.2850 C   0  0  0  0  0  0  0  0  0  0  0  0
  185.8760  178.5310  139.6470 C   0  0  0  0  0  3  0  0  0  0  0  0
  183.3400  179.2780  143.7980 C   0  0  0  0  0  2  0  0  0  0  0  0
  188.3580  178.3120  139.7140 C   0  0  0  0  0  0  0  0  0  0  0  0
  188.7500  179.2340  138.9470 O   0  0  0  0  0  0  0  0  0  0  0  0
  189.1590  177.1870  139.9310 O   0  0  0  0  0  0  0  0  0  0  0  0
  190.5760  177.2500  139.8660 C   0  0  0  0  0  2  0  0  0  0  0  0
  192.5480  176.5570  138.5030 C   0  0  0  0  0  2  0  0  0  0  0  0
  190.1940  176.2880  137.6100 C   0  0  0  0  0  2  0  0  0  0  0  0
  191.6010  174.1770  136.5730 C   0  0  2  0  0  3  0  0  0  0  0  0
  191.0880  176.2500  138.8470 C   0  0  2  0  0  3  0  0  0  0  0  0
  193.1150  175.5690  137.4870 C   0  0  0  0  0  2  0  0  0  0  0  0
  190.4140  175.1560  136.5830 C   0  0  1  0  0  0  0  0  0  0  0  0
  190.2410  173.7590  137.1300 C   0  0  0  0  0  2  0  0  0  0  0  0
  192.4960  174.3240  137.6470 O   0  0  0  0  0  0  0  0  0  0  0  0
  189.7570  175.3030  135.3540 O   0  0  0  0  0  0  0  0  0  0  0  0
  188.7680  176.1460  135.5800 O   0  0  0  0  0  0  0  0  0  0  0  0
  187.6340  175.5170  135.0580 C   0  0  0  0  0  2  0  0  0  0  0  0
  186.3650  176.1520  135.6360 C   0  0  0  0  0  2  0  0  0  0  0  0
  186.7830  174.5760  137.2550 O   0  0  0  0  0  1  0  0  0  0  0  0
  184.6520  174.7330  136.4940 C   0  0  0  0  0  1  0  0  0  0  0  0
  185.8590  175.4720  136.8330 N   0  0  0  0  0  0  0  0  0  0  0  0
  183.4070  178.7520  139.4390 C   0  0  0  0  0  2  0  0  0  0  0  0
  181.4750  176.4860  137.0590 C   0  0  0  0  0  2  0  0  0  0  0  0
  180.6660  175.9010  138.2230 C   0  0  2  0  0  3  0  0  0  0  0  0
  182.8240  176.3210  139.5000 C   0  0  0  0  0  2  0  0  0  0  0  0
  182.1870  177.7690  137.4760 C   0  0  0  0  0  2  0  0  0  0  0  0
  183.2080  177.5010  138.5960 C   0  0  1  0  0  3  0  0  0  0  0  0
  181.3080  176.1530  139.6000 C   0  0  0  0  0  2  0  0  0  0  0  0
  181.0480  174.0180  136.7270 N   0  0  0  0  0  1  0  0  0  0  0  0
  180.4570  174.4150  137.9930 C   0  0  0  0  0  2  0  0  0  0  0  0
  1  6  1  6  0  0  0
  2 12  1  0  0  0  0
  2 11  1  0  0  0  0
  3 10  1  0  0  0  0
  4 15  1  6  0  0  0
  4  8  1  0  0  0  0
  5  1  1  0  0  0  0
  7  4  1  0  0  0  0
  7  9  1  1  0  0  0
  8  1  1  0  0  0  0
  9  5  1  0  0  0  0
 10 11  2  0  0  0  0
 11  7  1  0  0  0  0
 12 15  1  0  0  0  0
 13  2  2  0  0  0  0
 14 13  1  0  0  0  0
 14  3  2  0  0  0  0
 16 18  1  0  0  0  0
 16  3  1  0  0  0  0
 17 16  2  0  0  0  0
 19 18  1  0  0  0  0
 20 23  1  0  0  0  0
 21 23  1  0  0  0  0
 22 25  1  0  0  0  0
 22 26  1  1  0  0  0
 22 27  1  0  0  0  0
 23 19  1  1  0  0  0
 24 27  1  0  0  0  0
 24 20  1  0  0  0  0
 25 28  1  6  0  0  0
 25 26  1  0  0  0  0
 25 21  1  0  0  0  0
 28 29  1  0  0  0  0
 30 29  1  0  0  0  0
 30 31  1  0  0  0  0
 31 34  1  0  0  0  0
 33 34  1  0  0  0  0
 34 32  1  0  0  0  0
 35 13  1  0  0  0  0
 36 39  1  0  0  0  0
 36 37  1  0  0  0  0
 37 43  1  6  0  0  0
 37 41  1  0  0  0  0
 38 41  1  0  0  0  0
 39 40  1  0  0  0  0
 40 35  1  1  0  0  0
 40 38  1  0  0  0  0
 42 43  1  0  0  0  0
M  END
>  <MODEL>
8

>  <REMARK>
 VINA RESULT:      -7.5      2.163      3.427
  Name = 
  12 active torsions:
  status: ('A' for Active; 'I' for Inactive)
    1  A    between atoms: C_1  and  C_34
    2  A    between atoms: C_1  and  C_35
    3  A    between atoms: C_2  and  O_6
    4  A    between atoms: C_2  and  C_13
    5  A    between atoms: O_6  and  C_17
    6  A    between atoms: O_11  and  O_14
    7  A    between atoms: O_11  and  C_36
    8  A    between atoms: C_12  and  C_17
    9  A    between atoms: O_14  and  C_22
   10  A    between atoms: C_19  and  C_37
   11  A    between atoms: N_31  and  C_40
   12  A    between atoms: C_36  and  C_40
                            x       y       z     vdW  Elec       q    Type
                         _______ _______ _______ _____ _____    ______ ____

>  <TORSDO>
F 12

$$$$
=
 OpenBabel10272414353D

 43 48  0  0  1  0  0  0  0  0999 V2000
  193.4260  174.8960  136.2580 C   0  0  1  0  0  3  0  0  0  0  0  0
  188.9230  177.2170  137.4070 C   0  0  0  0  0  0  0  0  0  0  0  0
  189.0120  177.6940  140.1830 C   0  0  0  0  0  0  0  0  0  0  0  0
  191.1770  176.1020  135.9900 C   0  0  1  0  0  3  0  0  0  0  0  0
  193.7360  176.1370  137.1020 C   0  0  0  0  0  2  0  0  0  0  0  0
  193.2830  173.7930  137.0800 F   0  0  0  0  0  0  0  0  0  0  0  0
  191.2010  176.0670  137.5230 C   0  0  1  0  0  3  0  0  0  0  0  0
  192.1580  175.0780  135.4090 C   0  0  0  0  0  2  0  0  0  0  0  0
  192.5780  176.5110  138.0430 C   0  0  0  0  0  2  0  0  0  0  0  0
  190.0790  177.0580  139.5420 C   0  0  0  0  0  3  0  0  0  0  0  0
  190.0640  176.8390  138.1570 C   0  0  0  0  0  0  0  0  0  0  0  0
  188.8750  176.9960  135.9150 C   0  0  0  0  0  2  0  0  0  0  0  0
  187.8520  177.8670  138.0540 C   0  0  0  0  0  0  0  0  0  0  0  0
  187.9050  178.0990  139.4310 C   0  0  0  0  0  3  0  0  0  0  0  0
  189.7730  175.8480  135.4740 C   0  0  0  0  0  2  0  0  0  0  0  0
  189.0580  177.9270  141.6350 C   0  0  0  0  0  0  0  0  0  0  0  0
  188.0060  178.2370  142.2600 O   0  0  0  0  0  0  0  0  0  0  0  0
  190.2710  177.7990  142.3170 O   0  0  0  0  0  0  0  0  0  0  0  0
  190.6540  178.7000  143.3460 C   0  0  0  0  0  2  0  0  0  0  0  0
  191.6080  176.6480  144.3970 C   0  0  0  0  0  2  0  0  0  0  0  0
  189.4630  177.6740  145.2680 C   0  0  0  0  0  2  0  0  0  0  0  0
  190.7070  176.6290  147.4750 C   0  0  2  0  0  3  0  0  0  0  0  0
  190.8320  177.9430  144.6490 C   0  0  2  0  0  3  0  0  0  0  0  0
  191.8250  175.8540  145.6820 C   0  0  0  0  0  2  0  0  0  0  0  0
  189.4700  177.1440  146.7180 C   0  0  1  0  0  0  0  0  0  0  0  0
  190.1670  178.0370  147.7180 C   0  0  0  0  0  2  0  0  0  0  0  0
  191.9170  176.7330  146.7680 O   0  0  0  0  0  0  0  0  0  0  0  0
  188.2410  176.6920  147.2160 O   0  0  0  0  0  0  0  0  0  0  0  0
  187.4890  177.7690  147.3330 O   0  0  0  0  0  0  0  0  0  0  0  0
  186.4890  177.6160  146.3690 C   0  0  0  0  0  2  0  0  0  0  0  0
  185.2740  178.4780  146.7260 C   0  0  0  0  0  2  0  0  0  0  0  0
  183.3550  179.0430  145.5960 O   0  0  0  0  0  1  0  0  0  0  0  0
  185.1960  178.6020  144.3460 C   0  0  0  0  0  1  0  0  0  0  0  0
  184.7010  179.1930  145.5800 N   0  0  0  0  0  0  0  0  0  0  0  0
  186.6460  178.3330  137.2990 C   0  0  0  0  0  2  0  0  0  0  0  0
  183.3800  176.7390  136.1500 C   0  0  0  0  0  2  0  0  0  0  0  0
  182.5630  177.7690  136.9410 C   0  0  2  0  0  3  0  0  0  0  0  0
  184.5620  177.6620  138.5080 C   0  0  0  0  0  2  0  0  0  0  0  0
  184.8290  177.1890  135.9960 C   0  0  0  0  0  2  0  0  0  0  0  0
  185.5240  177.3070  137.3640 C   0  0  1  0  0  3  0  0  0  0  0  0
  183.3840  178.5040  138.0170 C   0  0  0  0  0  2  0  0  0  0  0  0
  181.0580  175.8570  136.8460 N   0  0  0  0  0  1  0  0  0  0  0  0
  181.3570  177.0850  137.5600 C   0  0  0  0  0  2  0  0  0  0  0  0
  1  6  1  1  0  0  0
  1  5  1  0  0  0  0
  2 13  2  0  0  0  0
  2 11  1  0  0  0  0
  3 16  1  0  0  0  0
  4  8  1  6  0  0  0
  4  7  1  0  0  0  0
  5  9  1  0  0  0  0
  7  9  1  1  0  0  0
  7 11  1  0  0  0  0
  8  1  1  0  0  0  0
 10  3  1  0  0  0  0
 11 10  2  0  0  0  0
 12  2  1  0  0  0  0
 13 14  1  0  0  0  0
 14  3  2  0  0  0  0
 15 12  1  0  0  0  0
 15  4  1  0  0  0  0
 16 17  2  0  0  0  0
 16 18  1  0  0  0  0
 18 19  1  0  0  0  0
 20 23  1  0  0  0  0
 20 24  1  0  0  0  0
 21 25  1  0  0  0  0
 22 26  1  1  0  0  0
 23 19  1  6  0  0  0
 23 21  1  0  0  0  0
 24 27  1  0  0  0  0
 25 28  1  1  0  0  0
 25 22  1  0  0  0  0
 25 26  1  0  0  0  0
 27 22  1  0  0  0  0
 28 29  1  0  0  0  0
 30 31  1  0  0  0  0
 30 29  1  0  0  0  0
 33 34  1  0  0  0  0
 34 32  1  0  0  0  0
 34 31  1  0  0  0  0
 35 13  1  0  0  0  0
 36 37  1  0  0  0  0
 37 43  1  1  0  0  0
 37 41  1  0  0  0  0
 39 36  1  0  0  0  0
 39 40  1  0  0  0  0
 40 35  1  6  0  0  0
 40 38  1  0  0  0  0
 41 38  1  0  0  0  0
 42 43  1  0  0  0  0
M  END
>  <MODEL>
9

>  <REMARK>
 VINA RESULT:      -7.3      3.853      8.695
  Name = 
  12 active torsions:
  status: ('A' for Active; 'I' for Inactive)
    1  A    between atoms: C_1  and  C_34
    2  A    between atoms: C_1  and  C_35
    3  A    between atoms: C_2  and  O_6
    4  A    between atoms: C_2  and  C_13
    5  A    between atoms: O_6  and  C_17
    6  A    between atoms: O_11  and  O_14
    7  A    between atoms: O_11  and  C_36
    8  A    between atoms: C_12  and  C_17
    9  A    between atoms: O_14  and  C_22
   10  A    between atoms: C_19  and  C_37
   11  A    between atoms: N_31  and  C_40
   12  A    between atoms: C_36  and  C_40
                            x       y       z     vdW  Elec       q    Type
                         _______ _______ _______ _____ _____    ______ ____

>  <TORSDO>
F 12

$$$$
