=
 OpenBabel10272400473D

 25 28  0  0  1  0  0  0  0  0999 V2000
  187.4170  177.7490  146.0050 C   0  0  0  0  0  0  0  0  0  0  0  0
  188.6100  177.1600  145.9080 C   0  0  0  0  0  0  0  0  0  0  0  0
  187.7550  178.3150  148.4440 C   0  0  0  0  0  3  0  0  0  0  0  0
  186.4000  178.0930  145.0320 C   0  0  0  0  0  0  0  0  0  0  0  0
  190.5490  177.4090  144.3830 C   0  0  2  0  0  0  0  0  0  0  0  0
  184.2880  179.2290  143.5730 C   0  0  0  0  0  3  0  0  0  0  0  0
  188.9450  177.6970  148.3950 C   0  0  0  0  0  3  0  0  0  0  0  0
  185.4570  178.7420  145.7080 C   0  0  0  0  0  0  0  0  0  0  0  0
  184.1570  179.1490  145.0800 C   0  0  0  0  0  2  0  0  0  0  0  0
  190.8970  177.1300  146.9040 C   0  0  0  0  0  0  0  0  0  0  0  0
  191.7130  177.1180  147.8640 O   0  0  0  0  0  0  0  0  0  0  0  0
  189.1810  176.7420  144.5910 C   0  0  0  0  0  2  0  0  0  0  0  0
  185.2420  178.5570  142.8990 C   0  0  0  0  0  3  0  0  0  0  0  0
  186.9260  178.3090  147.2400 C   0  0  0  0  0  0  0  0  0  0  0  0
  185.7850  178.9030  147.0940 N   0  0  0  0  0  0  0  0  0  0  0  0
  191.3970  177.2190  145.5610 N   0  0  0  0  0  2  0  0  0  0  0  0
  186.2520  177.6740  143.6000 C   0  0  0  0  0  2  0  0  0  0  0  0
  190.3680  178.9060  144.1490 C   0  0  0  0  0  1  0  0  0  0  0  0
  189.4290  176.9290  147.1660 C   0  0  2  0  0  3  0  0  0  0  0  0
  191.2540  176.7840  143.1810 C   0  0  0  0  0  2  0  0  0  0  0  0
  190.3140  175.9910  142.2820 C   0  0  0  0  0  2  0  0  0  0  0  0
  189.5390  177.4560  140.3880 C   0  0  0  0  0  0  0  0  0  0  0  0
  189.7010  177.9120  138.9820 C   0  0  0  0  0  1  0  0  0  0  0  0
  188.6210  177.9420  141.1000 O   0  0  0  0  0  0  0  0  0  0  0  0
  190.4270  176.4710  140.9160 N   0  0  0  0  0  2  0  0  0  0  0  0
  1 14  1  0  0  0  0
  2  1  2  0  0  0  0
  2 19  1  0  0  0  0
  4  8  2  0  0  0  0
  4  1  1  0  0  0  0
  5 18  1  6  0  0  0
  5 12  1  0  0  0  0
  5 16  1  0  0  0  0
  6  9  1  0  0  0  0
  7  3  2  0  0  0  0
  8 15  1  0  0  0  0
  9  8  1  0  0  0  0
 10 19  1  0  0  0  0
 10 11  2  0  0  0  0
 12  2  1  0  0  0  0
 13  6  2  0  0  0  0
 13 17  1  0  0  0  0
 14  3  1  0  0  0  0
 15 14  2  0  0  0  0
 16 10  1  0  0  0  0
 17  4  1  0  0  0  0
 19  7  1  1  0  0  0
 20  5  1  0  0  0  0
 21 20  1  0  0  0  0
 22 25  1  0  0  0  0
 22 24  2  0  0  0  0
 23 22  1  0  0  0  0
 25 21  1  0  0  0  0
M  END
>  <MODEL>
1

>  <REMARK>
 VINA RESULT:     -11.0      0.000      0.000
  Name = 
  3 active torsions:
  status: ('A' for Active; 'I' for Inactive)
    1  A    between atoms: C_6  and  C_15
    2  A    between atoms: C_15  and  C_25
    3  A    between atoms: N_21  and  C_25
                            x       y       z     vdW  Elec       q    Type
                         _______ _______ _______ _____ _____    ______ ____

>  <TORSDO>
F 3

$$$$
=
 OpenBabel10272400473D

 25 28  0  0  1  0  0  0  0  0999 V2000
  187.4810  177.7220  145.9160 C   0  0  0  0  0  0  0  0  0  0  0  0
  188.6630  177.1070  145.8440 C   0  0  0  0  0  0  0  0  0  0  0  0
  187.7920  178.3080  148.3530 C   0  0  0  0  0  3  0  0  0  0  0  0
  186.4880  178.0760  144.9220 C   0  0  0  0  0  0  0  0  0  0  0  0
  190.6310  177.2990  144.3480 C   0  0  2  0  0  0  0  0  0  0  0  0
  184.4240  179.2400  143.4170 C   0  0  0  0  0  3  0  0  0  0  0  0
  188.9690  177.6640  148.3300 C   0  0  0  0  0  3  0  0  0  0  0  0
  185.5480  178.7520  145.5750 C   0  0  0  0  0  0  0  0  0  0  0  0
  184.2670  179.1790  144.9220 C   0  0  0  0  0  2  0  0  0  0  0  0
  190.9330  177.0400  146.8770 C   0  0  0  0  0  0  0  0  0  0  0  0
  191.7330  177.0220  147.8510 O   0  0  0  0  0  0  0  0  0  0  0  0
  189.2470  176.6630  144.5420 C   0  0  0  0  0  2  0  0  0  0  0  0
  185.3750  178.5410  142.7650 C   0  0  0  0  0  3  0  0  0  0  0  0
  186.9820  178.3060  147.1350 C   0  0  0  0  0  0  0  0  0  0  0  0
  185.8560  178.9220  146.9650 N   0  0  0  0  0  0  0  0  0  0  0  0
  191.4560  177.1040  145.5420 N   0  0  0  0  0  2  0  0  0  0  0  0
  186.3540  177.6440  143.4930 C   0  0  0  0  0  2  0  0  0  0  0  0
  190.4860  178.7960  144.0950 C   0  0  0  0  0  1  0  0  0  0  0  0
  189.4570  176.8730  147.1170 C   0  0  2  0  0  3  0  0  0  0  0  0
  191.3420  176.6460  143.1640 C   0  0  0  0  0  2  0  0  0  0  0  0
  191.4530  177.5640  141.9540 C   0  0  0  0  0  2  0  0  0  0  0  0
  190.9510  176.8270  139.5990 C   0  0  0  0  0  0  0  0  0  0  0  0
  189.9560  176.3840  138.5890 C   0  0  0  0  0  1  0  0  0  0  0  0
  192.1640  176.9330  139.2760 O   0  0  0  0  0  0  0  0  0  0  0  0
  190.5220  177.1270  140.9270 N   0  0  0  0  0  2  0  0  0  0  0  0
  1 14  1  0  0  0  0
  2  1  2  0  0  0  0
  2 19  1  0  0  0  0
  4  8  2  0  0  0  0
  4  1  1  0  0  0  0
  5 18  1  6  0  0  0
  5 12  1  0  0  0  0
  5 16  1  0  0  0  0
  6  9  1  0  0  0  0
  7  3  2  0  0  0  0
  8 15  1  0  0  0  0
  9  8  1  0  0  0  0
 10 19  1  0  0  0  0
 10 11  2  0  0  0  0
 12  2  1  0  0  0  0
 13  6  2  0  0  0  0
 13 17  1  0  0  0  0
 14  3  1  0  0  0  0
 15 14  2  0  0  0  0
 16 10  1  0  0  0  0
 17  4  1  0  0  0  0
 19  7  1  1  0  0  0
 20  5  1  0  0  0  0
 21 20  1  0  0  0  0
 22 25  1  0  0  0  0
 23 22  1  0  0  0  0
 24 22  2  0  0  0  0
 25 21  1  0  0  0  0
M  END
>  <MODEL>
2

>  <REMARK>
 VINA RESULT:     -10.7      1.011      1.043
  Name = 
  3 active torsions:
  status: ('A' for Active; 'I' for Inactive)
    1  A    between atoms: C_6  and  C_15
    2  A    between atoms: C_15  and  C_25
    3  A    between atoms: N_21  and  C_25
                            x       y       z     vdW  Elec       q    Type
                         _______ _______ _______ _____ _____    ______ ____

>  <TORSDO>
F 3

$$$$
=
 OpenBabel10272400473D

 25 28  0  0  1  0  0  0  0  0999 V2000
  187.4000  177.4450  144.6700 C   0  0  0  0  0  0  0  0  0  0  0  0
  188.3230  176.9720  143.8320 C   0  0  0  0  0  0  0  0  0  0  0  0
  189.0110  177.4990  146.6150 C   0  0  0  0  0  3  0  0  0  0  0  0
  186.0440  177.9200  144.4840 C   0  0  0  0  0  0  0  0  0  0  0  0
  189.1710  177.6700  141.6090 C   0  0  2  0  0  0  0  0  0  0  0  0
  183.5500  179.1980  144.6490 C   0  0  0  0  0  3  0  0  0  0  0  0
  189.9560  176.9860  145.8120 C   0  0  0  0  0  3  0  0  0  0  0  0
  185.6420  178.3460  145.6770 C   0  0  0  0  0  0  0  0  0  0  0  0
  184.2330  178.7900  145.9370 C   0  0  0  0  0  2  0  0  0  0  0  0
  190.7850  176.8820  143.4330 C   0  0  0  0  0  0  0  0  0  0  0  0
  191.9840  176.7200  143.7870 O   0  0  0  0  0  0  0  0  0  0  0  0
  188.0860  176.8840  142.3590 C   0  0  0  0  0  2  0  0  0  0  0  0
  183.9620  178.7510  143.4450 C   0  0  0  0  0  3  0  0  0  0  0  0
  187.6710  177.6940  146.0640 C   0  0  1  0  0  3  0  0  0  0  0  0
  186.6630  178.2290  146.6760 N   0  0  0  0  0  0  0  0  0  0  0  0
  190.5020  177.2890  142.0860 N   0  0  0  0  0  2  0  0  0  0  0  0
  185.1360  177.8080  143.2960 C   0  0  0  0  0  2  0  0  0  0  0  0
  188.9810  179.1660  141.8350 C   0  0  0  0  0  1  0  0  0  0  0  0
  189.6700  176.5330  144.3810 C   0  0  0  0  0  0  0  0  0  0  0  0
  189.0940  177.3640  140.1140 C   0  0  0  0  0  2  0  0  0  0  0  0
  188.9820  178.6170  139.2530 C   0  0  0  0  0  2  0  0  0  0  0  0
  187.9830  178.1490  136.9900 C   0  0  0  0  0  0  0  0  0  0  0  0
  186.7770  178.0380  136.1290 C   0  0  0  0  0  1  0  0  0  0  0  0
  189.1230  177.9360  136.4980 O   0  0  0  0  0  0  0  0  0  0  0  0
  187.8370  178.4950  138.3670 N   0  0  0  0  0  2  0  0  0  0  0  0
  1 14  1  0  0  0  0
  2 19  2  0  0  0  0
  2  1  1  0  0  0  0
  4  1  2  0  0  0  0
  4  8  1  0  0  0  0
  5 18  1  1  0  0  0
  5 16  1  0  0  0  0
  5 12  1  0  0  0  0
  6  9  1  0  0  0  0
  7  3  2  0  0  0  0
  8  9  1  0  0  0  0
  8 15  2  0  0  0  0
 10 11  2  0  0  0  0
 10 19  1  0  0  0  0
 12  2  1  0  0  0  0
 13  6  2  0  0  0  0
 14  3  1  6  0  0  0
 14 15  1  0  0  0  0
 16 10  1  0  0  0  0
 17 13  1  0  0  0  0
 17  4  1  0  0  0  0
 19  7  1  0  0  0  0
 20  5  1  0  0  0  0
 21 20  1  0  0  0  0
 22 25  1  0  0  0  0
 23 22  1  0  0  0  0
 24 22  2  0  0  0  0
 25 21  1  0  0  0  0
M  END
>  <MODEL>
3

>  <REMARK>
 VINA RESULT:      -8.6      2.059      2.867
  Name = 
  3 active torsions:
  status: ('A' for Active; 'I' for Inactive)
    1  A    between atoms: C_6  and  C_15
    2  A    between atoms: C_15  and  C_25
    3  A    between atoms: N_21  and  C_25
                            x       y       z     vdW  Elec       q    Type
                         _______ _______ _______ _____ _____    ______ ____

>  <TORSDO>
F 3

$$$$
=
 OpenBabel10272400473D

 25 28  0  0  1  0  0  0  0  0999 V2000
  187.5670  177.4630  144.5780 C   0  0  0  0  0  0  0  0  0  0  0  0
  188.4130  177.0100  143.6520 C   0  0  0  0  0  0  0  0  0  0  0  0
  189.3650  177.5730  146.3490 C   0  0  0  0  0  3  0  0  0  0  0  0
  186.1860  177.8980  144.5290 C   0  0  0  0  0  0  0  0  0  0  0  0
  189.0100  177.7190  141.3520 C   0  0  2  0  0  0  0  0  0  0  0  0
  183.6860  179.1070  144.9420 C   0  0  0  0  0  3  0  0  0  0  0  0
  190.2370  177.0820  145.4560 C   0  0  0  0  0  3  0  0  0  0  0  0
  185.8950  178.3190  145.7550 C   0  0  0  0  0  0  0  0  0  0  0  0
  184.5070  178.7250  146.1560 C   0  0  0  0  0  2  0  0  0  0  0  0
  190.8230  176.9880  143.0050 C   0  0  0  0  0  0  0  0  0  0  0  0
  192.0560  176.8620  143.2360 O   0  0  0  0  0  0  0  0  0  0  0  0
  188.0300  176.9070  142.2110 C   0  0  0  0  0  2  0  0  0  0  0  0
  183.9860  178.6640  143.7050 C   0  0  0  0  0  3  0  0  0  0  0  0
  187.9710  177.7270  145.9360 C   0  0  1  0  0  3  0  0  0  0  0  0
  187.0150  178.2370  146.6460 N   0  0  0  0  0  0  0  0  0  0  0  0
  190.3930  177.3790  141.6930 N   0  0  0  0  0  2  0  0  0  0  0  0
  185.1650  177.7540  143.4400 C   0  0  0  0  0  2  0  0  0  0  0  0
  188.8020  179.2110  141.5920 C   0  0  0  0  0  1  0  0  0  0  0  0
  189.8210  176.6120  144.0620 C   0  0  0  0  0  0  0  0  0  0  0  0
  188.7910  177.4030  139.8730 C   0  0  0  0  0  2  0  0  0  0  0  0
  190.0080  177.7110  139.0100 C   0  0  0  0  0  2  0  0  0  0  0  0
  191.7960  176.0840  138.3080 C   0  0  0  0  0  0  0  0  0  0  0  0
  192.1750  174.8400  137.5880 C   0  0  0  0  0  1  0  0  0  0  0  0
  192.6820  176.7560  138.9000 O   0  0  0  0  0  0  0  0  0  0  0  0
  190.4330  176.5030  138.3220 N   0  0  0  0  0  2  0  0  0  0  0  0
  1 14  1  0  0  0  0
  2 19  2  0  0  0  0
  2  1  1  0  0  0  0
  4  1  2  0  0  0  0
  4  8  1  0  0  0  0
  5 18  1  1  0  0  0
  5 16  1  0  0  0  0
  5 12  1  0  0  0  0
  6  9  1  0  0  0  0
  7  3  2  0  0  0  0
  8  9  1  0  0  0  0
  8 15  2  0  0  0  0
 10 11  2  0  0  0  0
 10 19  1  0  0  0  0
 12  2  1  0  0  0  0
 13  6  2  0  0  0  0
 14  3  1  6  0  0  0
 14 15  1  0  0  0  0
 16 10  1  0  0  0  0
 17 13  1  0  0  0  0
 17  4  1  0  0  0  0
 19  7  1  0  0  0  0
 20  5  1  0  0  0  0
 21 20  1  0  0  0  0
 22 25  1  0  0  0  0
 22 24  2  0  0  0  0
 23 22  1  0  0  0  0
 25 21  1  0  0  0  0
M  END
>  <MODEL>
4

>  <REMARK>
 VINA RESULT:      -8.4      1.998      2.957
  Name = 
  3 active torsions:
  status: ('A' for Active; 'I' for Inactive)
    1  A    between atoms: C_6  and  C_15
    2  A    between atoms: C_15  and  C_25
    3  A    between atoms: N_21  and  C_25
                            x       y       z     vdW  Elec       q    Type
                         _______ _______ _______ _____ _____    ______ ____

>  <TORSDO>
F 3

$$$$
=
 OpenBabel10272400473D

 25 28  0  0  1  0  0  0  0  0999 V2000
  187.9230  177.6070  142.2850 C   0  0  0  0  0  0  0  0  0  0  0  0
  188.1950  177.2460  143.5400 C   0  0  0  0  0  0  0  0  0  0  0  0
  185.7190  178.6590  142.9300 C   0  0  0  0  0  3  0  0  0  0  0  0
  188.6910  177.5710  141.0570 C   0  0  0  0  0  0  0  0  0  0  0  0
  190.1230  177.5750  145.0630 C   0  0  2  0  0  0  0  0  0  0  0  0
  189.8010  178.0070  138.5150 C   0  0  0  0  0  3  0  0  0  0  0  0
  185.9380  178.2770  144.1980 C   0  0  0  0  0  3  0  0  0  0  0  0
  187.9240  178.1440  140.1340 C   0  0  0  0  0  0  0  0  0  0  0  0
  188.3050  178.1780  138.6830 C   0  0  0  0  0  2  0  0  0  0  0  0
  187.7240  177.8270  145.9200 C   0  0  0  0  0  0  0  0  0  0  0  0
  186.9710  178.1430  146.8800 O   0  0  0  0  0  0  0  0  0  0  0  0
  189.5320  176.7120  143.9390 C   0  0  0  0  0  2  0  0  0  0  0  0
  190.5660  177.4160  139.4540 C   0  0  0  0  0  3  0  0  0  0  0  0
  186.7020  178.2790  141.9170 C   0  0  0  0  0  0  0  0  0  0  0  0
  186.6780  178.6120  140.6660 N   0  0  0  0  0  0  0  0  0  0  0  0
  189.1420  177.7640  146.1330 N   0  0  0  0  0  2  0  0  0  0  0  0
  189.9840  176.8800  140.7450 C   0  0  0  0  0  2  0  0  0  0  0  0
  190.5180  178.9430  144.5160 C   0  0  0  0  0  1  0  0  0  0  0  0
  187.1240  177.4040  144.6060 C   0  0  2  0  0  3  0  0  0  0  0  0
  191.3510  176.8870  145.6570 C   0  0  0  0  0  2  0  0  0  0  0  0
  191.0910  176.2820  147.0300 C   0  0  0  0  0  2  0  0  0  0  0  0
  192.8840  176.2710  148.7970 C   0  0  0  0  0  0  0  0  0  0  0  0
  193.6890  177.0180  149.7980 C   0  0  0  0  0  1  0  0  0  0  0  0
  193.0730  175.0360  148.6400 O   0  0  0  0  0  0  0  0  0  0  0  0
  191.9050  176.9630  148.0230 N   0  0  0  0  0  2  0  0  0  0  0  0
  1  2  2  0  0  0  0
  2 12  1  0  0  0  0
  2 19  1  0  0  0  0
  3  7  2  0  0  0  0
  4  1  1  0  0  0  0
  5 18  1  6  0  0  0
  5 20  1  0  0  0  0
  5 16  1  0  0  0  0
  6  9  1  0  0  0  0
  6 13  2  0  0  0  0
  8 15  1  0  0  0  0
  8  4  2  0  0  0  0
  9  8  1  0  0  0  0
 10 16  1  0  0  0  0
 10 11  2  0  0  0  0
 12  5  1  0  0  0  0
 13 17  1  0  0  0  0
 14  1  1  0  0  0  0
 14  3  1  0  0  0  0
 15 14  2  0  0  0  0
 17  4  1  0  0  0  0
 19  7  1  6  0  0  0
 19 10  1  0  0  0  0
 20 21  1  0  0  0  0
 21 25  1  0  0  0  0
 22 23  1  0  0  0  0
 24 22  2  0  0  0  0
 25 22  1  0  0  0  0
M  END
>  <MODEL>
5

>  <REMARK>
 VINA RESULT:      -8.3      2.230      5.767
  Name = 
  3 active torsions:
  status: ('A' for Active; 'I' for Inactive)
    1  A    between atoms: C_6  and  C_15
    2  A    between atoms: C_15  and  C_25
    3  A    between atoms: N_21  and  C_25
                            x       y       z     vdW  Elec       q    Type
                         _______ _______ _______ _____ _____    ______ ____

>  <TORSDO>
F 3

$$$$
=
 OpenBabel10272400473D

 25 28  0  0  1  0  0  0  0  0999 V2000
  187.1140  177.7990  142.9490 C   0  0  0  0  0  0  0  0  0  0  0  0
  186.8450  177.5180  144.2250 C   0  0  0  0  0  0  0  0  0  0  0  0
  185.1140  179.3280  142.7320 C   0  0  0  0  0  3  0  0  0  0  0  0
  188.2320  177.4880  142.0820 C   0  0  0  0  0  0  0  0  0  0  0  0
  188.1450  177.6090  146.3340 C   0  0  2  0  0  0  0  0  0  0  0  0
  190.2230  177.4370  140.1040 C   0  0  0  0  0  3  0  0  0  0  0  0
  184.7890  179.0390  144.0010 C   0  0  0  0  0  3  0  0  0  0  0  0
  187.9810  178.1060  140.9320 C   0  0  0  0  0  0  0  0  0  0  0  0
  188.8400  177.9190  139.7170 C   0  0  0  0  0  2  0  0  0  0  0  0
  185.7170  178.4180  146.2620 C   0  0  0  0  0  0  0  0  0  0  0  0
  184.7680  178.9720  146.8780 O   0  0  0  0  0  0  0  0  0  0  0  0
  187.8060  176.7720  145.0920 C   0  0  0  0  0  2  0  0  0  0  0  0
  190.4630  176.8030  141.2690 C   0  0  0  0  0  3  0  0  0  0  0  0
  186.2780  178.6600  142.1510 C   0  0  0  0  0  0  0  0  0  0  0  0
  186.7640  178.8640  140.9680 N   0  0  0  0  0  0  0  0  0  0  0  0
  186.9210  178.0960  146.9740 N   0  0  0  0  0  2  0  0  0  0  0  0
  189.3660  176.5260  142.2740 C   0  0  0  0  0  2  0  0  0  0  0  0
  188.9980  178.8090  145.9370 C   0  0  0  0  0  1  0  0  0  0  0  0
  185.5340  177.9930  144.8300 C   0  0  2  0  0  3  0  0  0  0  0  0
  188.9050  176.7530  147.3460 C   0  0  0  0  0  2  0  0  0  0  0  0
  190.4150  176.9370  147.2700 C   0  0  0  0  0  2  0  0  0  0  0  0
  191.5990  176.2420  145.1600 C   0  0  0  0  0  0  0  0  0  0  0  0
  192.1670  175.1570  144.3170 C   0  0  0  0  0  1  0  0  0  0  0  0
  191.6640  177.4370  144.7670 O   0  0  0  0  0  0  0  0  0  0  0  0
  190.9860  175.9170  146.4070 N   0  0  0  0  0  2  0  0  0  0  0  0
  1  2  2  0  0  0  0
  2 19  1  0  0  0  0
  2 12  1  0  0  0  0
  3  7  2  0  0  0  0
  4 17  1  0  0  0  0
  4  1  1  0  0  0  0
  5 18  1  6  0  0  0
  5 16  1  0  0  0  0
  5 20  1  0  0  0  0
  6 13  2  0  0  0  0
  8 15  1  0  0  0  0
  8  4  2  0  0  0  0
  9  6  1  0  0  0  0
  9  8  1  0  0  0  0
 10 11  2  0  0  0  0
 10 16  1  0  0  0  0
 12  5  1  0  0  0  0
 13 17  1  0  0  0  0
 14  3  1  0  0  0  0
 14  1  1  0  0  0  0
 15 14  2  0  0  0  0
 19  7  1  6  0  0  0
 19 10  1  0  0  0  0
 21 20  1  0  0  0  0
 22 25  1  0  0  0  0
 23 22  1  0  0  0  0
 24 22  2  0  0  0  0
 25 21  1  0  0  0  0
M  END
>  <MODEL>
6

>  <REMARK>
 VINA RESULT:      -8.3      2.140      5.161
  Name = 
  3 active torsions:
  status: ('A' for Active; 'I' for Inactive)
    1  A    between atoms: C_6  and  C_15
    2  A    between atoms: C_15  and  C_25
    3  A    between atoms: N_21  and  C_25
                            x       y       z     vdW  Elec       q    Type
                         _______ _______ _______ _____ _____    ______ ____

>  <TORSDO>
F 3

$$$$
=
 OpenBabel10272400473D

 25 28  0  0  1  0  0  0  0  0999 V2000
  186.7310  177.9830  144.4500 C   0  0  0  0  0  0  0  0  0  0  0  0
  187.6240  177.4430  145.2810 C   0  0  0  0  0  0  0  0  0  0  0  0
  185.3790  178.9720  146.3410 C   0  0  0  0  0  3  0  0  0  0  0  0
  186.6700  178.1070  143.0080 C   0  0  0  0  0  0  0  0  0  0  0  0
  190.0950  177.5210  145.4620 C   0  0  2  0  0  0  0  0  0  0  0  0
  186.1980  178.8770  140.3500 C   0  0  0  0  0  3  0  0  0  0  0  0
  186.2350  178.4110  147.2100 C   0  0  0  0  0  3  0  0  0  0  0  0
  185.5760  178.8170  142.7520 C   0  0  0  0  0  0  0  0  0  0  0  0
  185.0790  179.0480  141.3550 C   0  0  0  0  0  2  0  0  0  0  0  0
  188.6270  177.6920  147.5530 C   0  0  0  0  0  0  0  0  0  0  0  0
  188.5760  177.8830  148.7970 O   0  0  0  0  0  0  0  0  0  0  0  0
  188.8970  176.8350  144.7900 C   0  0  0  0  0  2  0  0  0  0  0  0
  187.2990  178.1460  140.6180 C   0  0  0  0  0  3  0  0  0  0  0  0
  185.5840  178.7210  144.9160 C   0  0  0  0  0  0  0  0  0  0  0  0
  184.8930  179.2270  143.9440 N   0  0  0  0  0  0  0  0  0  0  0  0
  189.9070  177.5750  146.9140 N   0  0  0  0  0  2  0  0  0  0  0  0
  187.4940  177.4440  141.9450 C   0  0  0  0  0  2  0  0  0  0  0  0
  190.2430  178.9450  144.9370 C   0  0  0  0  0  1  0  0  0  0  0  0
  187.3570  177.4690  146.7770 C   0  0  2  0  0  3  0  0  0  0  0  0
  191.3730  176.7340  145.1760 C   0  0  0  0  0  2  0  0  0  0  0  0
  191.3240  175.9740  143.8560 C   0  0  0  0  0  2  0  0  0  0  0  0
  191.3660  176.8070  141.4810 C   0  0  0  0  0  0  0  0  0  0  0  0
  191.9980  177.6630  140.4430 C   0  0  0  0  0  1  0  0  0  0  0  0
  190.3640  176.1040  141.1850 O   0  0  0  0  0  0  0  0  0  0  0  0
  191.9020  176.7920  142.8030 N   0  0  0  0  0  2  0  0  0  0  0  0
  1 14  1  0  0  0  0
  1  2  2  0  0  0  0
  2 19  1  0  0  0  0
  3  7  2  0  0  0  0
  4  1  1  0  0  0  0
  5 18  1  6  0  0  0
  5 16  1  0  0  0  0
  6 13  2  0  0  0  0
  6  9  1  0  0  0  0
  8  4  2  0  0  0  0
  8 15  1  0  0  0  0
  9  8  1  0  0  0  0
 10 11  2  0  0  0  0
 12  2  1  0  0  0  0
 12  5  1  0  0  0  0
 13 17  1  0  0  0  0
 14  3  1  0  0  0  0
 15 14  2  0  0  0  0
 16 10  1  0  0  0  0
 17  4  1  0  0  0  0
 19  7  1  6  0  0  0
 19 10  1  0  0  0  0
 20  5  1  0  0  0  0
 21 20  1  0  0  0  0
 22 25  1  0  0  0  0
 23 22  1  0  0  0  0
 24 22  2  0  0  0  0
 25 21  1  0  0  0  0
M  END
>  <MODEL>
7

>  <REMARK>
 VINA RESULT:      -8.3      1.758      2.518
  Name = 
  3 active torsions:
  status: ('A' for Active; 'I' for Inactive)
    1  A    between atoms: C_6  and  C_15
    2  A    between atoms: C_15  and  C_25
    3  A    between atoms: N_21  and  C_25
                            x       y       z     vdW  Elec       q    Type
                         _______ _______ _______ _____ _____    ______ ____

>  <TORSDO>
F 3

$$$$
=
 OpenBabel10272400473D

 25 28  0  0  1  0  0  0  0  0999 V2000
  186.5520  178.5480  142.7170 C   0  0  0  0  0  0  0  0  0  0  0  0
  187.7820  178.4170  142.2170 C   0  0  0  0  0  0  0  0  0  0  0  0
  185.4800  178.5060  140.4310 C   0  0  0  0  0  3  0  0  0  0  0  0
  186.0270  178.5330  144.0670 C   0  0  2  0  0  3  0  0  0  0  0  0
  189.6700  176.8670  142.6370 C   0  0  2  0  0  0  0  0  0  0  0  0
  184.4680  178.2880  146.3900 C   0  0  0  0  0  3  0  0  0  0  0  0
  186.7030  178.4130  139.8880 C   0  0  0  0  0  3  0  0  0  0  0  0
  184.7070  178.6300  143.9430 C   0  0  0  0  0  0  0  0  0  0  0  0
  183.7990  178.7880  145.1270 C   0  0  0  0  0  2  0  0  0  0  0  0
  189.0420  177.5420  140.2480 C   0  0  0  0  0  0  0  0  0  0  0  0
  189.2430  177.3790  139.0150 O   0  0  0  0  0  0  0  0  0  0  0  0
  188.9680  178.1560  143.0870 C   0  0  0  0  0  2  0  0  0  0  0  0
  185.8090  178.2030  146.5060 C   0  0  0  0  0  3  0  0  0  0  0  0
  185.3790  178.6310  141.8840 C   0  0  0  0  0  0  0  0  0  0  0  0
  184.2840  178.6720  142.5730 N   0  0  0  0  0  0  0  0  0  0  0  0
  189.9050  176.8890  141.1910 N   0  0  0  0  0  2  0  0  0  0  0  0
  186.7410  178.6040  145.3830 C   0  0  0  0  0  2  0  0  0  0  0  0
  188.8040  175.6570  142.9710 C   0  0  0  0  0  1  0  0  0  0  0  0
  187.9850  178.5070  140.7140 C   0  0  0  0  0  0  0  0  0  0  0  0
  191.0220  176.7390  143.3380 C   0  0  0  0  0  2  0  0  0  0  0  0
  191.1000  177.5350  144.6340 C   0  0  0  0  0  2  0  0  0  0  0  0
  191.4670  176.5200  146.9080 C   0  0  0  0  0  0  0  0  0  0  0  0
  192.3570  175.7890  147.8470 C   0  0  0  0  0  1  0  0  0  0  0  0
  190.3150  176.8660  147.2810 O   0  0  0  0  0  0  0  0  0  0  0  0
  191.9290  176.8230  145.5920 N   0  0  0  0  0  2  0  0  0  0  0  0
  1  4  1  0  0  0  0
  2  1  1  0  0  0  0
  2 12  1  0  0  0  0
  3 14  1  0  0  0  0
  4 17  1  1  0  0  0
  5 18  1  1  0  0  0
  5 12  1  0  0  0  0
  5 20  1  0  0  0  0
  6 13  2  0  0  0  0
  7  3  2  0  0  0  0
  7 19  1  0  0  0  0
  8  4  1  0  0  0  0
  8  9  1  0  0  0  0
  9  6  1  0  0  0  0
 10 19  1  0  0  0  0
 10 16  1  0  0  0  0
 11 10  2  0  0  0  0
 14 15  1  0  0  0  0
 14  1  2  0  0  0  0
 15  8  2  0  0  0  0
 16  5  1  0  0  0  0
 17 13  1  0  0  0  0
 19  2  2  0  0  0  0
 20 21  1  0  0  0  0
 21 25  1  0  0  0  0
 22 24  2  0  0  0  0
 22 23  1  0  0  0  0
 25 22  1  0  0  0  0
M  END
>  <MODEL>
8

>  <REMARK>
 VINA RESULT:      -8.2      1.770      5.278
  Name = 
  3 active torsions:
  status: ('A' for Active; 'I' for Inactive)
    1  A    between atoms: C_6  and  C_15
    2  A    between atoms: C_15  and  C_25
    3  A    between atoms: N_21  and  C_25
                            x       y       z     vdW  Elec       q    Type
                         _______ _______ _______ _____ _____    ______ ____

>  <TORSDO>
F 3

$$$$
