=
 OpenBabel10272413233D

 32 37  0  0  1  0  0  0  0  0999 V2000
  181.0580  178.0130  139.7570 C   0  0  0  0  0  3  0  0  0  0  0  0
  185.8840  178.3680  141.9130 C   0  0  1  0  0  3  0  0  0  0  0  0
  184.6220  178.4290  146.6380 C   0  0  0  0  0  3  0  0  0  0  0  0
  185.9550  178.2090  146.9770 C   0  0  0  0  0  3  0  0  0  0  0  0
  188.1460  177.8310  141.4300 C   0  0  2  0  0  3  0  0  0  0  0  0
  189.0620  177.2170  142.3680 N   0  0  0  0  0  0  0  0  0  0  0  0
  184.0770  178.6270  140.1330 C   0  0  0  0  0  0  0  0  0  0  0  0
  183.4790  178.5040  142.5500 C   0  0  0  0  0  2  0  0  0  0  0  0
  190.7010  176.4450  144.4620 C   0  0  0  0  0  0  0  0  0  0  0  0
  181.6630  178.5490  140.8200 C   0  0  0  0  0  3  0  0  0  0  0  0
  184.2750  178.6830  145.3100 C   0  0  0  0  0  3  0  0  0  0  0  0
  184.8900  179.0110  142.8780 C   0  0  1  0  0  3  0  0  0  0  0  0
  185.2570  178.6960  144.3010 C   0  0  0  0  0  0  0  0  0  0  0  0
  187.7040  178.6900  143.6220 C   0  0  2  0  0  3  0  0  0  0  0  0
  190.9070  175.8850  143.2590 C   0  0  0  0  0  3  0  0  0  0  0  0
  182.7900  178.1680  138.0300 C   0  0  0  0  0  3  0  0  0  0  0  0
  183.1170  178.5630  141.0900 C   0  0  0  0  0  0  0  0  0  0  0  0
  189.9400  176.0750  142.1100 C   0  0  0  0  0  2  0  0  0  0  0  0
  183.8040  178.7360  138.6850 C   0  0  0  0  0  3  0  0  0  0  0  0
  181.7760  177.2620  138.6730 C   0  0  1  0  0  3  0  0  0  0  0  0
  186.9400  178.2600  145.9890 C   0  0  0  0  0  3  0  0  0  0  0  0
  186.6040  178.4960  144.6460 C   0  0  0  0  0  0  0  0  0  0  0  0
  189.5640  177.3610  144.6860 C   0  0  0  0  0  3  0  0  0  0  0  0
  185.5220  178.8370  140.5010 C   0  0  0  0  0  2  0  0  0  0  0  0
  188.9280  178.6030  140.3800 C   0  0  0  0  0  1  0  0  0  0  0  0
  191.6490  176.1660  145.5740 C   0  0  0  0  0  1  0  0  0  0  0  0
  187.2770  178.7630  142.1920 N   0  0  2  0  0  0  0  0  0  0  0  0
  188.7730  177.6720  143.6600 C   0  0  0  0  0  0  0  0  0  0  0  0
  181.2890  175.1390  139.6160 C   0  0  0  0  0  1  0  0  0  0  0  0
  182.3710  176.0150  139.1860 N   0  0  0  0  0  0  0  0  0  0  0  0
  183.0350  175.3060  138.0970 C   0  0  0  0  0  2  0  0  0  0  0  0
  182.0120  174.5170  137.3030 C   0  0  0  0  0  1  0  0  0  0  0  0
  1 10  2  0  0  0  0
  2 24  1  6  0  0  0
  2 27  1  0  0  0  0
  2 12  1  0  0  0  0
  3  4  1  0  0  0  0
  5 25  1  6  0  0  0
  5 27  1  0  0  0  0
  5  6  1  0  0  0  0
  6 28  1  0  0  0  0
  7 24  1  0  0  0  0
  7 17  2  0  0  0  0
  9 23  1  0  0  0  0
  9 26  1  0  0  0  0
 10 17  1  0  0  0  0
 11  3  2  0  0  0  0
 12  8  1  6  0  0  0
 12 13  1  0  0  0  0
 13 22  2  0  0  0  0
 13 11  1  0  0  0  0
 14 28  1  6  0  0  0
 14 22  1  0  0  0  0
 15  9  2  0  0  0  0
 16 20  1  0  0  0  0
 16 19  2  0  0  0  0
 17  8  1  0  0  0  0
 18  6  1  0  0  0  0
 18 15  1  0  0  0  0
 19  7  1  0  0  0  0
 20 30  1  1  0  0  0
 20  1  1  0  0  0  0
 21  4  2  0  0  0  0
 22 21  1  0  0  0  0
 27 14  1  0  0  0  0
 28 23  2  0  0  0  0
 30 29  1  0  0  0  0
 31 30  1  0  0  0  0
 32 31  1  0  0  0  0
M  END
>  <MODEL>
1

>  <REMARK>
 VINA RESULT:      -9.1      0.000      0.000
  Name = 
  2 active torsions:
  status: ('A' for Active; 'I' for Inactive)
    1  A    between atoms: C_1  and  N_20
    2  A    between atoms: N_20  and  C_24
                            x       y       z     vdW  Elec       q    Type
                         _______ _______ _______ _____ _____    ______ ____

>  <TORSDO>
F 2

$$$$
=
 OpenBabel10272413233D

 32 37  0  0  1  0  0  0  0  0999 V2000
  182.6640  176.5510  136.0000 C   0  0  0  0  0  3  0  0  0  0  0  0
  184.8200  178.2600  140.5280 C   0  0  1  0  0  3  0  0  0  0  0  0
  180.7490  178.7420  143.1940 C   0  0  0  0  0  3  0  0  0  0  0  0
  181.5360  178.8700  144.3370 C   0  0  0  0  0  3  0  0  0  0  0  0
  186.8650  178.1630  141.7290 C   0  0  2  0  0  3  0  0  0  0  0  0
  186.9710  177.9080  143.1500 N   0  0  0  0  0  0  0  0  0  0  0  0
  184.6300  177.8550  138.0170 C   0  0  0  0  0  0  0  0  0  0  0  0
  182.5930  177.9630  139.4510 C   0  0  0  0  0  2  0  0  0  0  0  0
  186.8630  177.8290  145.9160 C   0  0  0  0  0  0  0  0  0  0  0  0
  182.3770  177.3560  137.0260 C   0  0  0  0  0  3  0  0  0  0  0  0
  181.3510  178.7160  141.9350 C   0  0  0  0  0  3  0  0  0  0  0  0
  183.3960  178.8070  140.4490 C   0  0  1  0  0  3  0  0  0  0  0  0
  182.7500  178.7930  141.8060 C   0  0  0  0  0  0  0  0  0  0  0  0
  185.0290  179.2190  142.8460 C   0  0  2  0  0  3  0  0  0  0  0  0
  187.8500  177.1550  145.3030 C   0  0  0  0  0  3  0  0  0  0  0  0
  185.0890  176.8220  135.7780 C   0  0  0  0  0  3  0  0  0  0  0  0
  183.2840  177.7260  138.1350 C   0  0  0  0  0  0  0  0  0  0  0  0
  187.8750  176.9590  143.8020 C   0  0  0  0  0  2  0  0  0  0  0  0
  185.3760  177.6870  136.7530 C   0  0  0  0  0  3  0  0  0  0  0  0
  183.9680  175.8220  135.8450 C   0  0  1  0  0  3  0  0  0  0  0  0
  182.9220  178.9870  144.2160 C   0  0  0  0  0  3  0  0  0  0  0  0
  183.5420  178.9440  142.9570 C   0  0  0  0  0  0  0  0  0  0  0  0
  185.8040  178.4990  145.1340 C   0  0  0  0  0  3  0  0  0  0  0  0
  185.4520  178.4260  139.1420 C   0  0  0  0  0  2  0  0  0  0  0  0
  188.0920  178.9230  141.2520 C   0  0  0  0  0  1  0  0  0  0  0  0
  186.8550  177.9290  147.4000 C   0  0  0  0  0  1  0  0  0  0  0  0
  185.6500  178.9860  141.5060 N   0  0  2  0  0  0  0  0  0  0  0  0
  185.8710  178.4750  143.8030 C   0  0  0  0  0  0  0  0  0  0  0  0
  183.0930  173.8340  136.8020 C   0  0  0  0  0  1  0  0  0  0  0  0
  184.1570  174.8240  136.9130 N   0  0  0  0  0  0  0  0  0  0  0  0
  185.3960  174.0900  136.6810 C   0  0  0  0  0  2  0  0  0  0  0  0
  185.5250  172.9720  137.6970 C   0  0  0  0  0  1  0  0  0  0  0  0
  1 10  2  0  0  0  0
  2 24  1  6  0  0  0
  2 27  1  0  0  0  0
  3  4  1  0  0  0  0
  5 25  1  1  0  0  0
  5  6  1  0  0  0  0
  6 18  1  0  0  0  0
  6 28  1  0  0  0  0
  7 17  2  0  0  0  0
  7 24  1  0  0  0  0
  9 26  1  0  0  0  0
 10 17  1  0  0  0  0
 11  3  2  0  0  0  0
 12  8  1  6  0  0  0
 12  2  1  0  0  0  0
 12 13  1  0  0  0  0
 13 11  1  0  0  0  0
 13 22  2  0  0  0  0
 14 22  1  6  0  0  0
 14 28  1  0  0  0  0
 15  9  2  0  0  0  0
 16 20  1  0  0  0  0
 16 19  2  0  0  0  0
 17  8  1  0  0  0  0
 18 15  1  0  0  0  0
 19  7  1  0  0  0  0
 20  1  1  0  0  0  0
 20 30  1  1  0  0  0
 21  4  2  0  0  0  0
 22 21  1  0  0  0  0
 23  9  1  0  0  0  0
 27  5  1  0  0  0  0
 27 14  1  0  0  0  0
 28 23  2  0  0  0  0
 29 30  1  0  0  0  0
 31 30  1  0  0  0  0
 31 32  1  0  0  0  0
M  END
>  <MODEL>
2

>  <REMARK>
 VINA RESULT:      -8.9      1.824      3.489
  Name = 
  2 active torsions:
  status: ('A' for Active; 'I' for Inactive)
    1  A    between atoms: C_1  and  N_20
    2  A    between atoms: N_20  and  C_24
                            x       y       z     vdW  Elec       q    Type
                         _______ _______ _______ _____ _____    ______ ____

>  <TORSDO>
F 2

$$$$
=
 OpenBabel10272413233D

 32 37  0  0  1  0  0  0  0  0999 V2000
  182.8990  176.6030  135.7710 C   0  0  0  0  0  3  0  0  0  0  0  0
  186.1730  177.9850  139.7010 C   0  0  1  0  0  3  0  0  0  0  0  0
  182.8690  178.7900  143.2170 C   0  0  0  0  0  3  0  0  0  0  0  0
  183.9010  178.8130  144.1530 C   0  0  0  0  0  3  0  0  0  0  0  0
  188.4150  177.6620  140.4110 C   0  0  2  0  0  3  0  0  0  0  0  0
  188.8100  177.3620  141.7710 N   0  0  0  0  0  0  0  0  0  0  0  0
  185.3860  177.6620  137.2960 C   0  0  0  0  0  0  0  0  0  0  0  0
  183.7430  177.9300  139.1520 C   0  0  0  0  0  2  0  0  0  0  0  0
  189.3160  177.2260  144.4900 C   0  0  0  0  0  0  0  0  0  0  0  0
  182.9300  177.4060  136.8360 C   0  0  0  0  0  3  0  0  0  0  0  0
  183.1690  178.7370  141.8540 C   0  0  0  0  0  3  0  0  0  0  0  0
  184.8280  178.6680  139.9470 C   0  0  1  0  0  3  0  0  0  0  0  0
  184.5050  178.6820  141.4140 C   0  0  0  0  0  0  0  0  0  0  0  0
  186.9890  178.8610  141.9150 C   0  0  2  0  0  3  0  0  0  0  0  0
  190.0690  176.4760  143.6680 C   0  0  0  0  0  3  0  0  0  0  0  0
  185.2280  176.6440  135.0090 C   0  0  0  0  0  3  0  0  0  0  0  0
  184.0950  177.6600  137.7140 C   0  0  0  0  0  0  0  0  0  0  0  0
  189.7380  176.3150  142.2000 C   0  0  0  0  0  2  0  0  0  0  0  0
  185.8100  177.4540  135.8960 C   0  0  0  0  0  3  0  0  0  0  0  0
  184.0560  175.7560  135.3240 C   0  0  1  0  0  3  0  0  0  0  0  0
  185.2290  178.8000  143.7230 C   0  0  0  0  0  3  0  0  0  0  0  0
  185.5450  178.7280  142.3570 C   0  0  0  0  0  0  0  0  0  0  0  0
  188.1810  178.0140  143.9680 C   0  0  0  0  0  3  0  0  0  0  0  0
  186.4910  178.1230  138.2090 C   0  0  0  0  0  2  0  0  0  0  0  0
  189.5730  178.3120  139.6710 C   0  0  0  0  0  1  0  0  0  0  0  0
  189.6500  177.2900  145.9380 C   0  0  0  0  0  1  0  0  0  0  0  0
  187.2680  178.6030  140.4690 N   0  0  2  0  0  0  0  0  0  0  0  0
  187.9450  178.0170  142.6560 C   0  0  0  0  0  0  0  0  0  0  0  0
  183.2570  173.7910  136.3890 C   0  0  0  0  0  1  0  0  0  0  0  0
  184.3790  174.7190  136.3200 N   0  0  0  0  0  0  0  0  0  0  0  0
  185.5100  173.9260  135.8490 C   0  0  0  0  0  2  0  0  0  0  0  0
  186.5340  173.7870  136.9590 C   0  0  0  0  0  1  0  0  0  0  0  0
  1 10  2  0  0  0  0
  2 24  1  6  0  0  0
  2 12  1  0  0  0  0
  2 27  1  0  0  0  0
  3  4  1  0  0  0  0
  5 25  1  6  0  0  0
  5 27  1  0  0  0  0
  5  6  1  0  0  0  0
  6 18  1  0  0  0  0
  6 28  1  0  0  0  0
  7 17  2  0  0  0  0
  7 24  1  0  0  0  0
  9 26  1  0  0  0  0
 10 17  1  0  0  0  0
 11  3  2  0  0  0  0
 12  8  1  6  0  0  0
 12 13  1  0  0  0  0
 13 11  1  0  0  0  0
 13 22  2  0  0  0  0
 14 22  1  1  0  0  0
 14 28  1  0  0  0  0
 15  9  2  0  0  0  0
 16 20  1  0  0  0  0
 16 19  2  0  0  0  0
 17  8  1  0  0  0  0
 18 15  1  0  0  0  0
 19  7  1  0  0  0  0
 20  1  1  0  0  0  0
 20 30  1  1  0  0  0
 21  4  2  0  0  0  0
 22 21  1  0  0  0  0
 23  9  1  0  0  0  0
 27 14  1  0  0  0  0
 28 23  2  0  0  0  0
 30 29  1  0  0  0  0
 31 30  1  0  0  0  0
 31 32  1  0  0  0  0
M  END
>  <MODEL>
3

>  <REMARK>
 VINA RESULT:      -8.6      2.004      3.048
  Name = 
  2 active torsions:
  status: ('A' for Active; 'I' for Inactive)
    1  A    between atoms: C_1  and  N_20
    2  A    between atoms: N_20  and  C_24
                            x       y       z     vdW  Elec       q    Type
                         _______ _______ _______ _____ _____    ______ ____

>  <TORSDO>
F 2

$$$$
=
 OpenBabel10272413233D

 32 37  0  0  1  0  0  0  0  0999 V2000
  180.6480  178.4290  141.4510 C   0  0  0  0  0  3  0  0  0  0  0  0
  185.7270  178.4110  139.9400 C   0  0  1  0  0  3  0  0  0  0  0  0
  187.8160  177.4240  144.2510 C   0  0  0  0  0  3  0  0  0  0  0  0
  189.0140  177.1640  143.5890 C   0  0  0  0  0  3  0  0  0  0  0  0
  187.0580  178.0380  138.0100 C   0  0  2  0  0  3  0  0  0  0  0  0
  188.2760  177.2550  137.9920 N   0  0  0  0  0  0  0  0  0  0  0  0
  183.2490  179.0100  139.8590 C   0  0  0  0  0  0  0  0  0  0  0  0
  184.3350  178.3560  142.0060 C   0  0  0  0  0  2  0  0  0  0  0  0
  190.7640  176.0840  138.3220 C   0  0  0  0  0  0  0  0  0  0  0  0
  181.8560  178.7350  141.9310 C   0  0  0  0  0  3  0  0  0  0  0  0
  186.7330  177.9520  143.5460 C   0  0  0  0  0  3  0  0  0  0  0  0
  185.6760  178.8100  141.4140 C   0  0  1  0  0  3  0  0  0  0  0  0
  186.8280  178.2030  142.1640 C   0  0  0  0  0  0  0  0  0  0  0  0
  188.2410  178.3940  140.0620 C   0  0  2  0  0  3  0  0  0  0  0  0
  190.0750  175.8020  137.2040 C   0  0  0  0  0  3  0  0  0  0  0  0
  180.8670  178.9880  139.0750 C   0  0  0  0  0  3  0  0  0  0  0  0
  183.1310  178.7210  141.1800 C   0  0  0  0  0  0  0  0  0  0  0  0
  188.6300  176.2150  137.0250 C   0  0  0  0  0  2  0  0  0  0  0  0
  182.1260  179.4230  138.9930 C   0  0  0  0  0  3  0  0  0  0  0  0
  180.4000  177.9440  140.0510 C   0  0  1  0  0  3  0  0  0  0  0  0
  189.1300  177.4480  142.2260 C   0  0  0  0  0  3  0  0  0  0  0  0
  188.0430  177.9610  141.5010 C   0  0  0  0  0  0  0  0  0  0  0  0
  190.1630  176.9070  139.3930 C   0  0  0  0  0  3  0  0  0  0  0  0
  184.6040  179.1660  139.2220 C   0  0  0  0  0  2  0  0  0  0  0  0
  187.0720  179.0350  136.8630 C   0  0  0  0  0  1  0  0  0  0  0  0
  192.1590  175.5920  138.4710 C   0  0  0  0  0  1  0  0  0  0  0  0
  187.0080  178.7660  139.3030 N   0  0  2  0  0  0  0  0  0  0  0  0
  188.9450  177.4150  139.2110 C   0  0  0  0  0  0  0  0  0  0  0  0
  180.1310  175.6040  140.3470 C   0  0  0  0  0  1  0  0  0  0  0  0
  181.0230  176.6280  139.8190 N   0  0  0  0  0  0  0  0  0  0  0  0
  181.1030  176.3730  138.3840 C   0  0  0  0  0  2  0  0  0  0  0  0
  182.4550  175.7730  138.0480 C   0  0  0  0  0  1  0  0  0  0  0  0
  1 10  2  0  0  0  0
  2 24  1  6  0  0  0
  2 12  1  0  0  0  0
  4  3  1  0  0  0  0
  5 25  1  6  0  0  0
  5 27  1  0  0  0  0
  6  5  1  0  0  0  0
  6 28  1  0  0  0  0
  7 17  2  0  0  0  0
  9 26  1  0  0  0  0
  9 23  1  0  0  0  0
 11  3  2  0  0  0  0
 12  8  1  1  0  0  0
 12 13  1  0  0  0  0
 13 11  1  0  0  0  0
 14 28  1  6  0  0  0
 14 22  1  0  0  0  0
 15  9  2  0  0  0  0
 16 20  1  0  0  0  0
 17 10  1  0  0  0  0
 17  8  1  0  0  0  0
 18 15  1  0  0  0  0
 18  6  1  0  0  0  0
 19 16  2  0  0  0  0
 19  7  1  0  0  0  0
 20 30  1  6  0  0  0
 20  1  1  0  0  0  0
 21  4  2  0  0  0  0
 22 13  2  0  0  0  0
 22 21  1  0  0  0  0
 24  7  1  0  0  0  0
 27  2  1  0  0  0  0
 27 14  1  0  0  0  0
 28 23  2  0  0  0  0
 30 29  1  0  0  0  0
 31 30  1  0  0  0  0
 32 31  1  0  0  0  0
M  END
>  <MODEL>
4

>  <REMARK>
 VINA RESULT:      -8.5      2.188      3.540
  Name = 
  2 active torsions:
  status: ('A' for Active; 'I' for Inactive)
    1  A    between atoms: C_1  and  N_20
    2  A    between atoms: N_20  and  C_24
                            x       y       z     vdW  Elec       q    Type
                         _______ _______ _______ _____ _____    ______ ____

>  <TORSDO>
F 2

$$$$
=
 OpenBabel10272413233D

 32 37  0  0  1  0  0  0  0  0999 V2000
  185.8840  177.3370  136.6720 C   0  0  0  0  0  3  0  0  0  0  0  0
  188.7220  177.8160  141.1210 C   0  0  1  0  0  3  0  0  0  0  0  0
  185.0620  178.3260  144.3260 C   0  0  0  0  0  3  0  0  0  0  0  0
  185.9680  178.1190  145.3640 C   0  0  0  0  0  3  0  0  0  0  0  0
  190.8340  177.2060  142.0170 C   0  0  2  0  0  3  0  0  0  0  0  0
  191.0370  176.6660  143.3440 N   0  0  0  0  0  0  0  0  0  0  0  0
  188.2220  177.9380  138.6230 C   0  0  0  0  0  0  0  0  0  0  0  0
  186.3800  178.0450  140.3000 C   0  0  0  0  0  2  0  0  0  0  0  0
  191.1910  176.0650  146.0440 C   0  0  0  0  0  0  0  0  0  0  0  0
  185.8320  177.9580  137.8530 C   0  0  0  0  0  3  0  0  0  0  0  0
  185.5250  178.4630  143.0160 C   0  0  0  0  0  3  0  0  0  0  0  0
  187.4020  178.5590  141.3230 C   0  0  1  0  0  3  0  0  0  0  0  0
  186.8990  178.3700  142.7260 C   0  0  0  0  0  0  0  0  0  0  0  0
  189.3080  178.2660  143.5270 C   0  0  2  0  0  3  0  0  0  0  0  0
  191.9930  175.3940  145.2000 C   0  0  0  0  0  3  0  0  0  0  0  0
  188.2880  177.3080  136.1960 C   0  0  0  0  0  3  0  0  0  0  0  0
  186.8910  177.9760  138.8860 C   0  0  0  0  0  0  0  0  0  0  0  0
  191.8380  175.4930  143.6970 C   0  0  0  0  0  2  0  0  0  0  0  0
  188.8040  177.9190  137.2650 C   0  0  0  0  0  3  0  0  0  0  0  0
  187.0330  176.4800  136.2260 C   0  0  1  0  0  3  0  0  0  0  0  0
  187.3370  178.0650  145.0900 C   0  0  0  0  0  3  0  0  0  0  0  0
  187.8150  178.1830  143.7760 C   0  0  0  0  0  0  0  0  0  0  0  0
  190.1800  177.0140  145.5340 C   0  0  0  0  0  3  0  0  0  0  0  0
  189.2310  178.1600  139.7180 C   0  0  0  0  0  2  0  0  0  0  0  0
  192.1120  177.8670  141.5300 C   0  0  0  0  0  1  0  0  0  0  0  0
  191.3450  175.8740  147.5100 C   0  0  0  0  0  1  0  0  0  0  0  0
  189.7490  178.2150  142.1000 N   0  0  2  0  0  0  0  0  0  0  0  0
  190.1110  177.2410  144.2220 C   0  0  0  0  0  0  0  0  0  0  0  0
  185.9120  174.5350  136.9980 C   0  0  0  0  0  1  0  0  0  0  0  0
  187.1650  175.2760  137.0670 N   0  0  0  0  0  0  0  0  0  0  0  0
  188.1730  174.3890  136.4950 C   0  0  0  0  0  2  0  0  0  0  0  0
  187.9570  172.9770  137.0020 C   0  0  0  0  0  1  0  0  0  0  0  0
  1 10  2  0  0  0  0
  2 24  1  6  0  0  0
  2 12  1  0  0  0  0
  2 27  1  0  0  0  0
  3  4  1  0  0  0  0
  5 25  1  1  0  0  0
  5 27  1  0  0  0  0
  5  6  1  0  0  0  0
  6 18  1  0  0  0  0
  6 28  1  0  0  0  0
  7 17  2  0  0  0  0
  7 24  1  0  0  0  0
  9 26  1  0  0  0  0
 10 17  1  0  0  0  0
 11  3  2  0  0  0  0
 12  8  1  6  0  0  0
 12 13  1  0  0  0  0
 13 11  1  0  0  0  0
 13 22  2  0  0  0  0
 14 22  1  6  0  0  0
 14 28  1  0  0  0  0
 15  9  2  0  0  0  0
 16 20  1  0  0  0  0
 16 19  2  0  0  0  0
 17  8  1  0  0  0  0
 18 15  1  0  0  0  0
 19  7  1  0  0  0  0
 20  1  1  0  0  0  0
 20 30  1  1  0  0  0
 21  4  2  0  0  0  0
 22 21  1  0  0  0  0
 23  9  1  0  0  0  0
 27 14  1  0  0  0  0
 28 23  2  0  0  0  0
 29 30  1  0  0  0  0
 31 32  1  0  0  0  0
 31 30  1  0  0  0  0
M  END
>  <MODEL>
5

>  <REMARK>
 VINA RESULT:      -8.4      2.555      3.733
  Name = 
  2 active torsions:
  status: ('A' for Active; 'I' for Inactive)
    1  A    between atoms: C_1  and  N_20
    2  A    between atoms: N_20  and  C_24
                            x       y       z     vdW  Elec       q    Type
                         _______ _______ _______ _____ _____    ______ ____

>  <TORSDO>
F 2

$$$$
=
 OpenBabel10272413233D

 32 37  0  0  1  0  0  0  0  0999 V2000
  185.4310  175.9370  134.6570 C   0  0  0  0  0  3  0  0  0  0  0  0
  185.7800  178.0590  139.4990 C   0  0  1  0  0  3  0  0  0  0  0  0
  181.0130  178.4370  140.5280 C   0  0  0  0  0  3  0  0  0  0  0  0
  181.3410  178.6860  141.8590 C   0  0  0  0  0  3  0  0  0  0  0  0
  187.2710  178.1690  141.3430 C   0  0  2  0  0  3  0  0  0  0  0  0
  186.8780  178.0090  142.7270 N   0  0  0  0  0  0  0  0  0  0  0  0
  186.5050  177.4880  137.1220 C   0  0  0  0  0  0  0  0  0  0  0  0
  184.0900  177.5520  137.7400 C   0  0  0  0  0  2  0  0  0  0  0  0
  185.8040  178.0930  145.2780 C   0  0  0  0  0  0  0  0  0  0  0  0
  184.7690  176.7840  135.4490 C   0  0  0  0  0  3  0  0  0  0  0  0
  182.0220  178.3730  139.5650 C   0  0  0  0  0  3  0  0  0  0  0  0
  184.4550  178.5060  138.8850 C   0  0  1  0  0  3  0  0  0  0  0  0
  183.3730  178.5330  139.9270 C   0  0  0  0  0  0  0  0  0  0  0  0
  185.1190  179.1700  141.6590 C   0  0  2  0  0  3  0  0  0  0  0  0
  186.9690  177.4490  145.1040 C   0  0  0  0  0  3  0  0  0  0  0  0
  187.7660  176.3510  135.2750 C   0  0  0  0  0  3  0  0  0  0  0  0
  185.2100  177.2790  136.7720 C   0  0  0  0  0  0  0  0  0  0  0  0
  187.5310  177.1630  143.7280 C   0  0  0  0  0  2  0  0  0  0  0  0
  187.6550  177.2920  136.2160 C   0  0  0  0  0  3  0  0  0  0  0  0
  186.7330  175.2870  135.0260 C   0  0  1  0  0  3  0  0  0  0  0  0
  182.6740  178.8860  142.2210 C   0  0  0  0  0  3  0  0  0  0  0  0
  183.7000  178.8060  141.2660 C   0  0  0  0  0  0  0  0  0  0  0  0
  185.0630  178.6430  144.1240 C   0  0  0  0  0  3  0  0  0  0  0  0
  186.8530  178.1800  138.4130 C   0  0  0  0  0  2  0  0  0  0  0  0
  188.5570  178.9770  141.2650 C   0  0  0  0  0  1  0  0  0  0  0  0
  185.2680  178.2840  146.6520 C   0  0  0  0  0  1  0  0  0  0  0  0
  186.1810  178.8960  140.6440 N   0  0  2  0  0  0  0  0  0  0  0  0
  185.5970  178.5430  142.9070 C   0  0  0  0  0  0  0  0  0  0  0  0
  185.8180  173.2090  135.7170 C   0  0  0  0  0  1  0  0  0  0  0  0
  186.5720  174.3710  136.1690 N   0  0  0  0  0  0  0  0  0  0  0  0
  187.8770  173.8560  136.5700 C   0  0  0  0  0  2  0  0  0  0  0  0
  187.7510  172.3960  136.9620 C   0  0  0  0  0  1  0  0  0  0  0  0
  1 20  1  0  0  0  0
  1 10  2  0  0  0  0
  2 24  1  6  0  0  0
  2 27  1  0  0  0  0
  3  4  1  0  0  0  0
  4 21  2  0  0  0  0
  5 25  1  1  0  0  0
  5  6  1  0  0  0  0
  6 28  1  0  0  0  0
  6 18  1  0  0  0  0
  7 24  1  0  0  0  0
  9 26  1  0  0  0  0
 10 17  1  0  0  0  0
 11 13  1  0  0  0  0
 11  3  2  0  0  0  0
 12  8  1  6  0  0  0
 12  2  1  0  0  0  0
 12 13  1  0  0  0  0
 13 22  2  0  0  0  0
 14 22  1  6  0  0  0
 14 28  1  0  0  0  0
 15  9  2  0  0  0  0
 16 19  2  0  0  0  0
 17  7  2  0  0  0  0
 17  8  1  0  0  0  0
 18 15  1  0  0  0  0
 19  7  1  0  0  0  0
 20 16  1  0  0  0  0
 20 30  1  1  0  0  0
 22 21  1  0  0  0  0
 23  9  1  0  0  0  0
 27  5  1  0  0  0  0
 27 14  1  0  0  0  0
 28 23  2  0  0  0  0
 29 30  1  0  0  0  0
 30 31  1  0  0  0  0
 31 32  1  0  0  0  0
M  END
>  <MODEL>
6

>  <REMARK>
 VINA RESULT:      -8.2      2.854      4.975
  Name = 
  2 active torsions:
  status: ('A' for Active; 'I' for Inactive)
    1  A    between atoms: C_1  and  N_20
    2  A    between atoms: N_20  and  C_24
                            x       y       z     vdW  Elec       q    Type
                         _______ _______ _______ _____ _____    ______ ____

>  <TORSDO>
F 2

$$$$
=
 OpenBabel10272413233D

 32 37  0  0  1  0  0  0  0  0999 V2000
  180.6690  176.6190  137.7550 C   0  0  0  0  0  3  0  0  0  0  0  0
  185.3160  178.1080  139.8210 C   0  0  1  0  0  3  0  0  0  0  0  0
  184.0120  178.4130  144.5250 C   0  0  0  0  0  3  0  0  0  0  0  0
  185.3590  178.4880  144.8730 C   0  0  0  0  0  3  0  0  0  0  0  0
  187.6430  177.9660  139.3760 C   0  0  2  0  0  3  0  0  0  0  0  0
  188.6490  177.6370  140.3640 N   0  0  0  0  0  0  0  0  0  0  0  0
  183.5120  177.8330  138.0390 C   0  0  0  0  0  0  0  0  0  0  0  0
  182.9220  177.8480  140.4610 C   0  0  0  0  0  2  0  0  0  0  0  0
  190.3820  177.4120  142.5120 C   0  0  0  0  0  0  0  0  0  0  0  0
  181.1490  177.3670  138.7510 C   0  0  0  0  0  3  0  0  0  0  0  0
  183.6380  178.4590  143.1810 C   0  0  0  0  0  3  0  0  0  0  0  0
  184.2060  178.6460  140.7230 C   0  0  1  0  0  3  0  0  0  0  0  0
  184.6100  178.5550  142.1670 C   0  0  0  0  0  0  0  0  0  0  0  0
  187.0220  178.9450  141.4710 C   0  0  2  0  0  3  0  0  0  0  0  0
  190.7040  176.7810  141.3710 C   0  0  0  0  0  3  0  0  0  0  0  0
  182.3590  176.9220  136.0060 C   0  0  0  0  0  3  0  0  0  0  0  0
  182.5710  177.6860  139.0060 C   0  0  0  0  0  0  0  0  0  0  0  0
  189.7320  176.6640  140.2170 C   0  0  0  0  0  2  0  0  0  0  0  0
  183.2390  177.7380  136.5900 C   0  0  0  0  0  3  0  0  0  0  0  0
  181.5300  175.9110  136.7480 C   0  0  1  0  0  3  0  0  0  0  0  0
  186.3270  178.6240  143.8760 C   0  0  0  0  0  3  0  0  0  0  0  0
  185.9670  178.6520  142.5190 C   0  0  0  0  0  0  0  0  0  0  0  0
  189.0890  178.1130  142.6500 C   0  0  0  0  0  3  0  0  0  0  0  0
  184.8860  178.3520  138.3710 C   0  0  0  0  0  2  0  0  0  0  0  0
  188.2750  178.7610  138.2450 C   0  0  0  0  0  1  0  0  0  0  0  0
  191.3530  177.4350  143.6390 C   0  0  0  0  0  1  0  0  0  0  0  0
  186.6040  178.7880  140.0450 N   0  0  2  0  0  0  0  0  0  0  0  0
  188.2640  178.1600  141.6040 C   0  0  0  0  0  0  0  0  0  0  0  0
  181.4690  173.7450  137.7160 C   0  0  0  0  0  1  0  0  0  0  0  0
  182.3460  174.8600  137.3820 N   0  0  0  0  0  0  0  0  0  0  0  0
  183.2980  174.3300  136.4120 C   0  0  0  0  0  2  0  0  0  0  0  0
  184.6710  174.2280  137.0470 C   0  0  0  0  0  1  0  0  0  0  0  0
  1 10  2  0  0  0  0
  2 24  1  6  0  0  0
  2 27  1  0  0  0  0
  2 12  1  0  0  0  0
  3  4  1  0  0  0  0
  5 25  1  6  0  0  0
  5 27  1  0  0  0  0
  5  6  1  0  0  0  0
  6 28  1  0  0  0  0
  7 24  1  0  0  0  0
  7 17  2  0  0  0  0
  9 23  1  0  0  0  0
  9 26  1  0  0  0  0
 10 17  1  0  0  0  0
 11  3  2  0  0  0  0
 12  8  1  1  0  0  0
 12 13  1  0  0  0  0
 13 22  2  0  0  0  0
 13 11  1  0  0  0  0
 14 28  1  1  0  0  0
 14 22  1  0  0  0  0
 15  9  2  0  0  0  0
 16 19  2  0  0  0  0
 16 20  1  0  0  0  0
 17  8  1  0  0  0  0
 18  6  1  0  0  0  0
 18 15  1  0  0  0  0
 19  7  1  0  0  0  0
 20 30  1  1  0  0  0
 20  1  1  0  0  0  0
 21  4  2  0  0  0  0
 22 21  1  0  0  0  0
 27 14  1  0  0  0  0
 28 23  2  0  0  0  0
 30 29  1  0  0  0  0
 31 32  1  0  0  0  0
 31 30  1  0  0  0  0
M  END
>  <MODEL>
7

>  <REMARK>
 VINA RESULT:      -7.7      1.484      2.260
  Name = 
  2 active torsions:
  status: ('A' for Active; 'I' for Inactive)
    1  A    between atoms: C_1  and  N_20
    2  A    between atoms: N_20  and  C_24
                            x       y       z     vdW  Elec       q    Type
                         _______ _______ _______ _____ _____    ______ ____

>  <TORSDO>
F 2

$$$$
=
 OpenBabel10272413233D

 32 37  0  0  1  0  0  0  0  0999 V2000
  191.2710  177.8510  141.5790 C   0  0  0  0  0  3  0  0  0  0  0  0
  188.4590  175.5130  137.7450 C   0  0  1  0  0  3  0  0  0  0  0  0
  191.9790  172.7460  135.7770 C   0  0  0  0  0  3  0  0  0  0  0  0
  191.0040  172.0430  135.0710 C   0  0  0  0  0  3  0  0  0  0  0  0
  186.2230  174.9030  137.2320 C   0  0  2  0  0  3  0  0  0  0  0  0
  185.8280  173.6260  136.6770 N   0  0  0  0  0  0  0  0  0  0  0  0
  189.0840  177.3100  139.4440 C   0  0  0  0  0  0  0  0  0  0  0  0
  190.8140  175.7720  138.5170 C   0  0  0  0  0  2  0  0  0  0  0  0
  185.4030  171.2980  135.2370 C   0  0  0  0  0  0  0  0  0  0  0  0
  191.4300  177.3850  140.3380 C   0  0  0  0  0  3  0  0  0  0  0  0
  191.6260  173.8870  136.5000 C   0  0  0  0  0  3  0  0  0  0  0  0
  189.9160  175.5750  137.2890 C   0  0  1  0  0  3  0  0  0  0  0  0
  190.2890  174.3240  136.5450 C   0  0  0  0  0  0  0  0  0  0  0  0
  187.9020  174.1750  135.6870 C   0  0  2  0  0  3  0  0  0  0  0  0
  184.4930  171.6440  136.1630 C   0  0  0  0  0  3  0  0  0  0  0  0
  188.9660  178.6810  141.5410 C   0  0  0  0  0  3  0  0  0  0  0  0
  190.3660  176.8650  139.4510 C   0  0  0  0  0  0  0  0  0  0  0  0
  184.7350  172.7710  137.1440 C   0  0  0  0  0  2  0  0  0  0  0  0
  188.5780  178.4080  140.2930 C   0  0  0  0  0  3  0  0  0  0  0  0
  189.9600  177.8580  142.3110 C   0  0  1  0  0  3  0  0  0  0  0  0
  189.6820  172.4930  135.0780 C   0  0  0  0  0  3  0  0  0  0  0  0
  189.3100  173.6280  135.8150 C   0  0  0  0  0  0  0  0  0  0  0  0
  186.6470  172.0780  135.0700 C   0  0  0  0  0  3  0  0  0  0  0  0
  188.1190  176.8670  138.3770 C   0  0  0  0  0  2  0  0  0  0  0  0
  185.1820  175.9560  136.8880 C   0  0  0  0  0  1  0  0  0  0  0  0
  185.1390  170.1370  134.3460 C   0  0  0  0  0  1  0  0  0  0  0  0
  187.5270  175.2740  136.6280 N   0  0  2  0  0  0  0  0  0  0  0  0
  186.8310  173.1680  135.8150 C   0  0  0  0  0  0  0  0  0  0  0  0
  190.5090  175.7900  143.3390 C   0  0  0  0  0  1  0  0  0  0  0  0
  189.4840  176.4880  142.5740 N   0  0  0  0  0  0  0  0  0  0  0  0
  188.3140  176.5360  143.4440 C   0  0  0  0  0  2  0  0  0  0  0  0
  188.7190  177.0400  144.8160 C   0  0  0  0  0  1  0  0  0  0  0  0
  1 20  1  0  0  0  0
  2 24  1  6  0  0  0
  3 11  1  0  0  0  0
  4 21  1  0  0  0  0
  4  3  2  0  0  0  0
  5 25  1  6  0  0  0
  6 18  1  0  0  0  0
  6  5  1  0  0  0  0
  7 17  2  0  0  0  0
  7 19  1  0  0  0  0
  8 17  1  0  0  0  0
  9 15  2  0  0  0  0
 10  1  2  0  0  0  0
 11 13  2  0  0  0  0
 12  2  1  0  0  0  0
 12  8  1  1  0  0  0
 13 12  1  0  0  0  0
 14 28  1  1  0  0  0
 14 22  1  0  0  0  0
 14 27  1  0  0  0  0
 15 18  1  0  0  0  0
 16 20  1  0  0  0  0
 17 10  1  0  0  0  0
 19 16  2  0  0  0  0
 20 30  1  6  0  0  0
 21 22  2  0  0  0  0
 22 13  1  0  0  0  0
 23  9  1  0  0  0  0
 23 28  2  0  0  0  0
 24  7  1  0  0  0  0
 26  9  1  0  0  0  0
 27  5  1  0  0  0  0
 27  2  1  0  0  0  0
 28  6  1  0  0  0  0
 30 29  1  0  0  0  0
 30 31  1  0  0  0  0
 31 32  1  0  0  0  0
M  END
>  <MODEL>
8

>  <REMARK>
 VINA RESULT:      -6.9      4.478      9.489
  Name = 
  2 active torsions:
  status: ('A' for Active; 'I' for Inactive)
    1  A    between atoms: C_1  and  N_20
    2  A    between atoms: N_20  and  C_24
                            x       y       z     vdW  Elec       q    Type
                         _______ _______ _______ _____ _____    ______ ____

>  <TORSDO>
F 2

$$$$
=
 OpenBabel10272413233D

 32 37  0  0  1  0  0  0  0  0999 V2000
  180.5100  175.4080  136.3410 C   0  0  0  0  0  3  0  0  0  0  0  0
  185.2450  177.3450  137.7210 C   0  0  1  0  0  3  0  0  0  0  0  0
  184.2420  178.6410  142.3290 C   0  0  0  0  0  3  0  0  0  0  0  0
  185.6070  178.8000  142.5610 C   0  0  0  0  0  3  0  0  0  0  0  0
  187.5420  177.1310  137.1590 C   0  0  2  0  0  3  0  0  0  0  0  0
  188.6170  177.0300  138.1240 N   0  0  0  0  0  0  0  0  0  0  0  0
  183.3370  176.6790  136.1660 C   0  0  0  0  0  0  0  0  0  0  0  0
  182.9040  177.2080  138.5630 C   0  0  0  0  0  2  0  0  0  0  0  0
  190.4900  177.2860  140.1480 C   0  0  0  0  0  0  0  0  0  0  0  0
  181.0370  176.3570  137.1200 C   0  0  0  0  0  3  0  0  0  0  0  0
  183.7810  178.3940  141.0350 C   0  0  0  0  0  3  0  0  0  0  0  0
  184.1840  178.0540  138.5610 C   0  0  1  0  0  3  0  0  0  0  0  0
  184.6830  178.2780  139.9610 C   0  0  0  0  0  0  0  0  0  0  0  0
  187.0350  178.5310  139.0350 C   0  0  2  0  0  3  0  0  0  0  0  0
  190.7520  176.4270  139.1490 C   0  0  0  0  0  3  0  0  0  0  0  0
  182.0760  175.3440  134.4570 C   0  0  0  0  0  3  0  0  0  0  0  0
  182.4640  176.7350  137.2040 C   0  0  0  0  0  0  0  0  0  0  0  0
  189.7100  176.0570  138.1150 C   0  0  0  0  0  2  0  0  0  0  0  0
  182.9740  176.2730  134.7920 C   0  0  0  0  0  3  0  0  0  0  0  0
  181.3200  174.5080  135.4530 C   0  0  1  0  0  3  0  0  0  0  0  0
  186.5050  178.7270  141.4940 C   0  0  0  0  0  3  0  0  0  0  0  0
  186.0570  178.4610  140.1910 C   0  0  0  0  0  0  0  0  0  0  0  0
  189.1920  177.9890  140.2210 C   0  0  0  0  0  3  0  0  0  0  0  0
  184.7170  177.2680  136.2850 C   0  0  0  0  0  2  0  0  0  0  0  0
  188.0810  177.6690  135.8450 C   0  0  0  0  0  1  0  0  0  0  0  0
  191.5310  177.5580  141.1750 C   0  0  0  0  0  1  0  0  0  0  0  0
  186.5290  178.0680  137.7060 N   0  0  2  0  0  0  0  0  0  0  0  0
  188.3010  177.8030  139.2470 C   0  0  0  0  0  0  0  0  0  0  0  0
  181.3600  172.6840  136.9720 C   0  0  0  0  0  1  0  0  0  0  0  0
  182.1990  173.6250  136.2400 N   0  0  0  0  0  0  0  0  0  0  0  0
  183.0030  172.8070  135.3370 C   0  0  0  0  0  2  0  0  0  0  0  0
  184.4340  172.7510  135.8370 C   0  0  0  0  0  1  0  0  0  0  0  0
  1 10  2  0  0  0  0
  2 24  1  6  0  0  0
  2 12  1  0  0  0  0
  3  4  1  0  0  0  0
  5 25  1  6  0  0  0
  5 27  1  0  0  0  0
  5  6  1  0  0  0  0
  6 28  1  0  0  0  0
  7 24  1  0  0  0  0
  7 17  2  0  0  0  0
  9 23  1  0  0  0  0
  9 26  1  0  0  0  0
 10 17  1  0  0  0  0
 11  3  2  0  0  0  0
 12  8  1  1  0  0  0
 12 13  1  0  0  0  0
 13 22  2  0  0  0  0
 13 11  1  0  0  0  0
 14 28  1  1  0  0  0
 14 22  1  0  0  0  0
 15  9  2  0  0  0  0
 16 19  2  0  0  0  0
 16 20  1  0  0  0  0
 17  8  1  0  0  0  0
 18  6  1  0  0  0  0
 18 15  1  0  0  0  0
 19  7  1  0  0  0  0
 20 30  1  1  0  0  0
 20  1  1  0  0  0  0
 21  4  2  0  0  0  0
 22 21  1  0  0  0  0
 27  2  1  0  0  0  0
 27 14  1  0  0  0  0
 28 23  2  0  0  0  0
 30 29  1  0  0  0  0
 31 32  1  0  0  0  0
 31 30  1  0  0  0  0
M  END
>  <MODEL>
9

>  <REMARK>
 VINA RESULT:      -6.5      2.723      4.337
  Name = 
  2 active torsions:
  status: ('A' for Active; 'I' for Inactive)
    1  A    between atoms: C_1  and  N_20
    2  A    between atoms: N_20  and  C_24
                            x       y       z     vdW  Elec       q    Type
                         _______ _______ _______ _____ _____    ______ ____

>  <TORSDO>
F 2

$$$$
