=
 OpenBabel10272400363D

 31 34  0  0  1  0  0  0  0  0999 V2000
  191.0070  177.0270  144.9370 C   0  0  1  0  0  3  0  0  0  0  0  0
  187.5930  177.5890  143.2690 C   0  0  0  0  0  0  0  0  0  0  0  0
  186.5430  177.9080  144.1610 C   0  0  0  0  0  0  0  0  0  0  0  0
  185.5620  177.8370  146.3870 C   0  0  0  0  0  3  0  0  0  0  0  0
  188.8140  176.8460  143.7710 C   0  0  2  0  0  3  0  0  0  0  0  0
  191.6750  176.6220  143.7670 O   0  0  0  0  0  0  0  0  0  0  0  0
  186.5990  177.5170  145.5090 C   0  0  0  0  0  3  0  0  0  0  0  0
  188.5350  177.5800  140.8860 C   0  0  1  0  0  3  0  0  0  0  0  0
  191.8390  177.8610  145.6810 O   0  0  0  0  0  1  0  0  0  0  0  0
  185.3420  179.0090  142.3550 C   0  0  0  0  0  3  0  0  0  0  0  0
  184.4540  178.5490  145.9300 C   0  0  0  0  0  3  0  0  0  0  0  0
  189.8510  177.1230  141.5090 C   0  0  0  0  0  2  0  0  0  0  0  0
  187.5070  178.0000  141.9150 C   0  0  0  0  0  0  0  0  0  0  0  0
  189.7300  177.7800  144.5690 C   0  0  0  0  0  2  0  0  0  0  0  0
  183.1610  179.7070  144.1580 C   0  0  0  0  0  1  0  0  0  0  0  0
  189.5850  176.1430  142.6420 C   0  0  1  0  0  3  0  0  0  0  0  0
  190.9050  175.5920  143.1920 C   0  0  0  0  0  2  0  0  0  0  0  0
  186.3700  178.6880  141.4750 C   0  0  0  0  0  3  0  0  0  0  0  0
  185.4130  178.6300  143.7000 C   0  0  0  0  0  0  0  0  0  0  0  0
  184.3700  178.9490  144.5950 C   0  0  0  0  0  0  0  0  0  0  0  0
  188.9710  179.4920  137.7890 O   0  0  0  0  0  0  0  0  0  0  0  0
  188.6050  178.5490  138.5400 C   0  0  0  0  0  0  0  0  0  0  0  0
  188.8020  178.6670  139.9500 N   0  0  0  0  0  2  0  0  0  0  0  0
  186.6240  177.5830  137.3240 C   0  0  0  0  0  1  0  0  0  0  0  0
  187.9970  177.3090  137.9470 C   0  0  1  0  0  3  0  0  0  0  0  0
  188.2430  176.0350  135.9070 C   0  0  0  0  0  1  0  0  0  0  0  0
  188.9410  176.6240  137.0460 N   0  0  0  0  0  0  0  0  0  0  0  0
  189.5930  175.5340  137.7650 C   0  0  0  0  0  2  0  0  0  0  0  0
  191.0880  175.5360  137.4930 C   0  0  2  0  0  3  0  0  0  0  0  0
  191.6130  174.2840  137.8060 O   0  0  0  0  0  1  0  0  0  0  0  0
  191.7700  176.5880  138.3450 C   0  0  0  0  0  1  0  0  0  0  0  0
  1  9  1  6  0  0  0
  2  5  1  0  0  0  0
  2  3  1  0  0  0  0
  3  7  1  0  0  0  0
  5 14  1  6  0  0  0
  6  1  1  0  0  0  0
  7  4  2  0  0  0  0
  8 23  1  6  0  0  0
  8 12  1  0  0  0  0
  8 13  1  0  0  0  0
 10 19  1  0  0  0  0
 11  4  1  0  0  0  0
 13  2  2  0  0  0  0
 14  1  1  0  0  0  0
 15 20  1  0  0  0  0
 16 12  1  6  0  0  0
 16 17  1  0  0  0  0
 16  5  1  0  0  0  0
 17  6  1  0  0  0  0
 18 13  1  0  0  0  0
 18 10  2  0  0  0  0
 19  3  2  0  0  0  0
 19 20  1  0  0  0  0
 20 11  2  0  0  0  0
 21 22  2  0  0  0  0
 22 23  1  0  0  0  0
 25 24  1  6  0  0  0
 25 22  1  0  0  0  0
 26 27  1  0  0  0  0
 27 28  1  0  0  0  0
 27 25  1  0  0  0  0
 29 28  1  0  0  0  0
 29 30  1  0  0  0  0
 29 31  1  1  0  0  0
M  END
>  <MODEL>
1

>  <REMARK>
 VINA RESULT:     -10.2      0.000      0.000
  Name = 
  5 active torsions:
  status: ('A' for Active; 'I' for Inactive)
    1  A    between atoms: C_1  and  C_24
    2  A    between atoms: C_9  and  C_22
    3  A    between atoms: C_15  and  N_23
    4  A    between atoms: N_19  and  C_22
    5  A    between atoms: N_19  and  C_24
                            x       y       z     vdW  Elec       q    Type
                         _______ _______ _______ _____ _____    ______ ____

>  <TORSDO>
F 5

$$$$
=
 OpenBabel10272400363D

 31 34  0  0  1  0  0  0  0  0999 V2000
  191.0790  177.2170  144.7010 C   0  0  1  0  0  3  0  0  0  0  0  0
  187.6050  177.6620  143.1260 C   0  0  0  0  0  0  0  0  0  0  0  0
  186.5660  177.9320  144.0490 C   0  0  0  0  0  0  0  0  0  0  0  0
  185.6470  177.8010  146.2980 C   0  0  0  0  0  3  0  0  0  0  0  0
  188.8660  176.9630  143.5890 C   0  0  2  0  0  3  0  0  0  0  0  0
  191.7320  176.8500  143.5100 O   0  0  0  0  0  0  0  0  0  0  0  0
  186.6720  177.5310  145.3900 C   0  0  0  0  0  3  0  0  0  0  0  0
  188.4830  177.7130  140.7200 C   0  0  1  0  0  3  0  0  0  0  0  0
  191.8980  178.0760  145.4320 O   0  0  0  0  0  1  0  0  0  0  0  0
  185.2770  179.0040  142.2860 C   0  0  0  0  0  3  0  0  0  0  0  0
  184.5010  178.4750  145.8780 C   0  0  0  0  0  3  0  0  0  0  0  0
  189.8320  177.3020  141.3050 C   0  0  0  0  0  2  0  0  0  0  0  0
  187.4680  178.0830  141.7800 C   0  0  0  0  0  0  0  0  0  0  0  0
  189.7660  177.9240  144.3740 C   0  0  0  0  0  2  0  0  0  0  0  0
  183.1180  179.5990  144.1510 C   0  0  0  0  0  1  0  0  0  0  0  0
  189.6340  176.3020  142.4340 C   0  0  1  0  0  3  0  0  0  0  0  0
  190.9870  175.7970  142.9440 C   0  0  0  0  0  2  0  0  0  0  0  0
  186.2940  178.7310  141.3770 C   0  0  0  0  0  3  0  0  0  0  0  0
  185.3970  178.6140  143.6240 C   0  0  0  0  0  0  0  0  0  0  0  0
  184.3660  178.8830  144.5490 C   0  0  0  0  0  0  0  0  0  0  0  0
  189.0980  179.6290  137.6560 O   0  0  0  0  0  0  0  0  0  0  0  0
  188.8080  178.6380  138.3780 C   0  0  0  0  0  0  0  0  0  0  0  0
  188.6850  178.8190  139.7900 N   0  0  0  0  0  2  0  0  0  0  0  0
  189.7070  176.2930  138.2050 C   0  0  0  0  0  1  0  0  0  0  0  0
  188.6250  177.2820  137.7550 C   0  0  1  0  0  3  0  0  0  0  0  0
  187.0640  175.5040  137.2610 C   0  0  0  0  0  1  0  0  0  0  0  0
  187.2480  176.7890  137.9290 N   0  0  0  0  0  0  0  0  0  0  0  0
  186.3150  177.7310  137.3200 C   0  0  0  0  0  2  0  0  0  0  0  0
  184.9180  177.5360  137.8830 C   0  0  2  0  0  3  0  0  0  0  0  0
  184.0490  177.1920  136.8480 O   0  0  0  0  0  1  0  0  0  0  0  0
  184.4340  178.8180  138.5320 C   0  0  0  0  0  1  0  0  0  0  0  0
  1  9  1  6  0  0  0
  2  5  1  0  0  0  0
  2  3  1  0  0  0  0
  3  7  1  0  0  0  0
  5 14  1  6  0  0  0
  6  1  1  0  0  0  0
  7  4  2  0  0  0  0
  8 23  1  6  0  0  0
  8 12  1  0  0  0  0
  8 13  1  0  0  0  0
 10 19  1  0  0  0  0
 11  4  1  0  0  0  0
 13  2  2  0  0  0  0
 14  1  1  0  0  0  0
 15 20  1  0  0  0  0
 16 12  1  6  0  0  0
 16 17  1  0  0  0  0
 16  5  1  0  0  0  0
 17  6  1  0  0  0  0
 18 13  1  0  0  0  0
 18 10  2  0  0  0  0
 19  3  2  0  0  0  0
 19 20  1  0  0  0  0
 20 11  2  0  0  0  0
 21 22  2  0  0  0  0
 22 23  1  0  0  0  0
 25 27  1  0  0  0  0
 25 24  1  1  0  0  0
 25 22  1  0  0  0  0
 26 27  1  0  0  0  0
 28 29  1  0  0  0  0
 28 27  1  0  0  0  0
 29 31  1  6  0  0  0
 30 29  1  0  0  0  0
M  END
>  <MODEL>
2

>  <REMARK>
 VINA RESULT:      -9.1      1.294      2.566
  Name = 
  5 active torsions:
  status: ('A' for Active; 'I' for Inactive)
    1  A    between atoms: C_1  and  C_24
    2  A    between atoms: C_9  and  C_22
    3  A    between atoms: C_15  and  N_23
    4  A    between atoms: N_19  and  C_22
    5  A    between atoms: N_19  and  C_24
                            x       y       z     vdW  Elec       q    Type
                         _______ _______ _______ _____ _____    ______ ____

>  <TORSDO>
F 5

$$$$
=
 OpenBabel10272400363D

 31 34  0  0  1  0  0  0  0  0999 V2000
  185.8250  179.0360  146.3840 C   0  0  1  0  0  3  0  0  0  0  0  0
  184.1980  178.3310  142.9770 C   0  0  0  0  0  0  0  0  0  0  0  0
  182.8030  178.5660  142.9270 C   0  0  0  0  0  0  0  0  0  0  0  0
  180.6470  178.7480  144.0390 C   0  0  0  0  0  3  0  0  0  0  0  0
  184.8710  178.0520  144.3050 C   0  0  2  0  0  3  0  0  0  0  0  0
  187.1030  178.5620  146.0350 O   0  0  0  0  0  0  0  0  0  0  0  0
  182.0210  178.5130  144.0920 C   0  0  0  0  0  3  0  0  0  0  0  0
  186.4280  178.0290  141.7520 C   0  0  1  0  0  3  0  0  0  0  0  0
  185.9530  180.1980  147.1440 O   0  0  0  0  0  1  0  0  0  0  0  0
  182.9460  178.8970  140.5210 C   0  0  0  0  0  3  0  0  0  0  0  0
  180.0340  179.0370  142.8200 C   0  0  0  0  0  3  0  0  0  0  0  0
  187.0820  178.0700  143.1310 C   0  0  0  0  0  2  0  0  0  0  0  0
  184.9590  178.3950  141.7840 C   0  0  0  0  0  0  0  0  0  0  0  0
  185.0240  179.3410  145.1210 C   0  0  0  0  0  2  0  0  0  0  0  0
  180.0800  179.4060  140.3670 C   0  0  0  0  0  1  0  0  0  0  0  0
  186.2200  177.3330  144.1450 C   0  0  1  0  0  3  0  0  0  0  0  0
  186.9280  177.2700  145.5030 C   0  0  0  0  0  2  0  0  0  0  0  0
  184.3150  178.6570  140.5690 C   0  0  0  0  0  3  0  0  0  0  0  0
  182.1760  178.8580  141.6880 C   0  0  0  0  0  0  0  0  0  0  0  0
  180.7860  179.0940  141.6440 C   0  0  0  0  0  0  0  0  0  0  0  0
  189.0630  179.4520  139.6370 O   0  0  0  0  0  0  0  0  0  0  0  0
  188.4440  178.5860  140.3130 C   0  0  0  0  0  0  0  0  0  0  0  0
  187.1600  178.9110  140.8510 N   0  0  0  0  0  2  0  0  0  0  0  0
  189.3410  176.4790  139.2680 C   0  0  0  0  0  1  0  0  0  0  0  0
  189.0700  177.2440  140.5690 C   0  0  1  0  0  3  0  0  0  0  0  0
  191.4840  177.2920  140.6950 C   0  0  0  0  0  1  0  0  0  0  0  0
  190.2410  177.3550  141.4570 N   0  0  0  0  0  0  0  0  0  0  0  0
  190.2480  176.2350  142.3910 C   0  0  0  0  0  2  0  0  0  0  0  0
  191.2330  176.4890  143.5200 C   0  0  2  0  0  3  0  0  0  0  0  0
  191.8250  175.2830  143.8940 O   0  0  0  0  0  1  0  0  0  0  0  0
  190.5130  177.0800  144.7160 C   0  0  0  0  0  1  0  0  0  0  0  0
  1  9  1  1  0  0  0
  2  5  1  0  0  0  0
  3  2  1  0  0  0  0
  3  7  1  0  0  0  0
  4  7  2  0  0  0  0
  5 14  1  6  0  0  0
  6  1  1  0  0  0  0
  8 23  1  6  0  0  0
  8 13  1  0  0  0  0
  8 12  1  0  0  0  0
 10 18  2  0  0  0  0
 10 19  1  0  0  0  0
 11  4  1  0  0  0  0
 13  2  2  0  0  0  0
 14  1  1  0  0  0  0
 15 20  1  0  0  0  0
 16 12  1  6  0  0  0
 16  5  1  0  0  0  0
 16 17  1  0  0  0  0
 17  6  1  0  0  0  0
 18 13  1  0  0  0  0
 19  3  2  0  0  0  0
 20 19  1  0  0  0  0
 20 11  2  0  0  0  0
 21 22  2  0  0  0  0
 22 25  1  0  0  0  0
 22 23  1  0  0  0  0
 25 24  1  6  0  0  0
 25 27  1  0  0  0  0
 26 27  1  0  0  0  0
 27 28  1  0  0  0  0
 28 29  1  0  0  0  0
 29 30  1  0  0  0  0
 29 31  1  1  0  0  0
M  END
>  <MODEL>
3

>  <REMARK>
 VINA RESULT:      -7.7      2.415      4.483
  Name = 
  5 active torsions:
  status: ('A' for Active; 'I' for Inactive)
    1  A    between atoms: C_1  and  C_24
    2  A    between atoms: C_9  and  C_22
    3  A    between atoms: C_15  and  N_23
    4  A    between atoms: N_19  and  C_22
    5  A    between atoms: N_19  and  C_24
                            x       y       z     vdW  Elec       q    Type
                         _______ _______ _______ _____ _____    ______ ____

>  <TORSDO>
F 5

$$$$
=
 OpenBabel10272400363D

 31 34  0  0  1  0  0  0  0  0999 V2000
  182.6660  178.0250  140.2900 C   0  0  1  0  0  3  0  0  0  0  0  0
  185.8350  178.4860  142.4110 C   0  0  0  0  0  0  0  0  0  0  0  0
  185.6250  178.4340  143.8100 C   0  0  0  0  0  0  0  0  0  0  0  0
  184.1670  178.6890  145.7410 C   0  0  0  0  0  3  0  0  0  0  0  0
  184.6900  178.8450  141.4860 C   0  0  2  0  0  3  0  0  0  0  0  0
  183.2830  178.2740  139.0510 O   0  0  0  0  0  0  0  0  0  0  0  0
  184.3710  178.7440  144.3610 C   0  0  0  0  0  3  0  0  0  0  0  0
  187.4330  178.3250  140.4150 C   0  0  1  0  0  3  0  0  0  0  0  0
  181.7690  176.9670  140.1570 O   0  0  0  0  0  1  0  0  0  0  0  0
  187.9430  177.7740  144.1340 C   0  0  0  0  0  3  0  0  0  0  0  0
  185.2130  178.3260  146.5880 C   0  0  0  0  0  3  0  0  0  0  0  0
  186.1870  178.3790  139.5340 C   0  0  0  0  0  2  0  0  0  0  0  0
  187.1110  178.1650  141.8860 C   0  0  0  0  0  0  0  0  0  0  0  0
  183.7230  177.6660  141.3320 C   0  0  0  0  0  2  0  0  0  0  0  0
  187.5570  177.6360  147.0200 C   0  0  0  0  0  1  0  0  0  0  0  0
  185.1720  179.3510  140.1170 C   0  0  1  0  0  3  0  0  0  0  0  0
  183.9710  179.4970  139.1760 C   0  0  0  0  0  2  0  0  0  0  0  0
  188.1530  177.8330  142.7600 C   0  0  0  0  0  3  0  0  0  0  0  0
  186.6870  178.0690  144.6750 C   0  0  0  0  0  0  0  0  0  0  0  0
  186.4710  178.0160  146.0680 C   0  0  0  0  0  0  0  0  0  0  0  0
  189.2650  176.0000  138.2520 O   0  0  0  0  0  0  0  0  0  0  0  0
  188.6100  177.0270  138.5780 C   0  0  0  0  0  0  0  0  0  0  0  0
  188.2950  177.2420  139.9550 N   0  0  0  0  0  2  0  0  0  0  0  0
  189.1240  179.1550  137.3350 C   0  0  0  0  0  1  0  0  0  0  0  0
  188.1460  177.9890  137.5200 C   0  0  1  0  0  3  0  0  0  0  0  0
  188.7290  177.6380  135.2010 C   0  0  0  0  0  1  0  0  0  0  0  0
  187.7980  177.2910  136.2700 N   0  0  0  0  0  0  0  0  0  0  0  0
  186.4680  177.7050  135.8380 C   0  0  0  0  0  2  0  0  0  0  0  0
  185.4040  176.8230  136.4690 C   0  0  2  0  0  3  0  0  0  0  0  0
  185.7880  175.4870  136.3560 O   0  0  0  0  0  1  0  0  0  0  0  0
  184.0780  177.0200  135.7610 C   0  0  0  0  0  1  0  0  0  0  0  0
  1  9  1  6  0  0  0
  1 14  1  0  0  0  0
  2  3  1  0  0  0  0
  3  7  2  0  0  0  0
  3 19  1  0  0  0  0
  4 11  2  0  0  0  0
  5 14  1  6  0  0  0
  5  2  1  0  0  0  0
  6 17  1  0  0  0  0
  6  1  1  0  0  0  0
  7  4  1  0  0  0  0
  8 23  1  6  0  0  0
  8 13  1  0  0  0  0
 10 19  1  0  0  0  0
 12 16  1  0  0  0  0
 12  8  1  0  0  0  0
 13  2  2  0  0  0  0
 13 18  1  0  0  0  0
 16 17  1  6  0  0  0
 16  5  1  0  0  0  0
 18 10  2  0  0  0  0
 19 20  2  0  0  0  0
 20 11  1  0  0  0  0
 20 15  1  0  0  0  0
 21 22  2  0  0  0  0
 22 23  1  0  0  0  0
 25 24  1  6  0  0  0
 25 22  1  0  0  0  0
 26 27  1  0  0  0  0
 27 25  1  0  0  0  0
 28 27  1  0  0  0  0
 28 29  1  0  0  0  0
 29 31  1  6  0  0  0
 30 29  1  0  0  0  0
M  END
>  <MODEL>
4

>  <REMARK>
 VINA RESULT:      -7.5      2.599      5.066
  Name = 
  5 active torsions:
  status: ('A' for Active; 'I' for Inactive)
    1  A    between atoms: C_1  and  C_24
    2  A    between atoms: C_9  and  C_22
    3  A    between atoms: C_15  and  N_23
    4  A    between atoms: N_19  and  C_22
    5  A    between atoms: N_19  and  C_24
                            x       y       z     vdW  Elec       q    Type
                         _______ _______ _______ _____ _____    ______ ____

>  <TORSDO>
F 5

$$$$
=
 OpenBabel10272400363D

 31 34  0  0  1  0  0  0  0  0999 V2000
  185.9410  178.8640  146.4880 C   0  0  1  0  0  3  0  0  0  0  0  0
  184.5490  178.3230  142.9500 C   0  0  0  0  0  0  0  0  0  0  0  0
  183.1610  178.5640  142.8150 C   0  0  0  0  0  0  0  0  0  0  0  0
  180.9340  178.7000  143.7860 C   0  0  0  0  0  3  0  0  0  0  0  0
  185.1310  177.9810  144.3060 C   0  0  2  0  0  3  0  0  0  0  0  0
  187.2400  178.4030  146.2050 O   0  0  0  0  0  0  0  0  0  0  0  0
  182.3020  178.4590  143.9210 C   0  0  0  0  0  3  0  0  0  0  0  0
  186.8580  178.0720  141.8660 C   0  0  1  0  0  3  0  0  0  0  0  0
  186.0170  179.9890  147.3080 O   0  0  0  0  0  1  0  0  0  0  0  0
  183.4670  179.0060  140.4430 C   0  0  0  0  0  3  0  0  0  0  0  0
  180.4060  179.0480  142.5430 C   0  0  0  0  0  3  0  0  0  0  0  0
  187.4170  178.0470  143.2870 C   0  0  0  0  0  2  0  0  0  0  0  0
  185.3900  178.4400  141.8150 C   0  0  0  0  0  0  0  0  0  0  0  0
  185.2280  179.2290  145.1890 C   0  0  0  0  0  2  0  0  0  0  0  0
  180.6180  179.5300  140.1180 C   0  0  0  0  0  1  0  0  0  0  0  0
  186.4880  177.2660  144.2040 C   0  0  1  0  0  3  0  0  0  0  0  0
  187.1020  177.1380  145.6020 C   0  0  0  0  0  2  0  0  0  0  0  0
  184.8300  178.7610  140.5730 C   0  0  0  0  0  3  0  0  0  0  0  0
  182.6200  178.9150  141.5520 C   0  0  0  0  0  0  0  0  0  0  0  0
  181.2360  179.1570  141.4250 C   0  0  0  0  0  0  0  0  0  0  0  0
  189.1750  179.4110  139.3610 O   0  0  0  0  0  0  0  0  0  0  0  0
  188.4260  178.5750  139.9340 C   0  0  0  0  0  0  0  0  0  0  0  0
  187.6500  178.9930  141.0580 N   0  0  0  0  0  2  0  0  0  0  0  0
  187.7100  177.0340  138.0770 C   0  0  0  0  0  1  0  0  0  0  0  0
  188.3800  177.1530  139.4500 C   0  0  1  0  0  3  0  0  0  0  0  0
  190.3430  176.7910  140.8130 C   0  0  0  0  0  1  0  0  0  0  0  0
  189.7050  176.5130  139.5300 N   0  0  0  0  0  0  0  0  0  0  0  0
  190.5690  177.0560  138.4890 C   0  0  0  0  0  2  0  0  0  0  0  0
  191.2220  175.9340  137.6980 C   0  0  2  0  0  3  0  0  0  0  0  0
  190.6570  174.7170  138.0760 O   0  0  0  0  0  1  0  0  0  0  0  0
  192.7110  175.8980  137.9770 C   0  0  0  0  0  1  0  0  0  0  0  0
  1  9  1  1  0  0  0
  2  5  1  0  0  0  0
  3  2  1  0  0  0  0
  3  7  1  0  0  0  0
  4  7  2  0  0  0  0
  5 14  1  1  0  0  0
  6  1  1  0  0  0  0
  8 23  1  6  0  0  0
  8 12  1  0  0  0  0
 10 18  2  0  0  0  0
 10 19  1  0  0  0  0
 11  4  1  0  0  0  0
 13  8  1  0  0  0  0
 13  2  2  0  0  0  0
 14  1  1  0  0  0  0
 15 20  1  0  0  0  0
 16 12  1  6  0  0  0
 16  5  1  0  0  0  0
 16 17  1  0  0  0  0
 17  6  1  0  0  0  0
 18 13  1  0  0  0  0
 19  3  2  0  0  0  0
 20 19  1  0  0  0  0
 20 11  2  0  0  0  0
 21 22  2  0  0  0  0
 22 23  1  0  0  0  0
 25 24  1  6  0  0  0
 25 27  1  0  0  0  0
 25 22  1  0  0  0  0
 27 26  1  0  0  0  0
 28 27  1  0  0  0  0
 29 31  1  1  0  0  0
 29 30  1  0  0  0  0
 29 28  1  0  0  0  0
M  END
>  <MODEL>
5

>  <REMARK>
 VINA RESULT:      -7.3      2.305      3.663
  Name = 
  5 active torsions:
  status: ('A' for Active; 'I' for Inactive)
    1  A    between atoms: C_1  and  C_24
    2  A    between atoms: C_9  and  C_22
    3  A    between atoms: C_15  and  N_23
    4  A    between atoms: N_19  and  C_22
    5  A    between atoms: N_19  and  C_24
                            x       y       z     vdW  Elec       q    Type
                         _______ _______ _______ _____ _____    ______ ____

>  <TORSDO>
F 5

$$$$
=
 OpenBabel10272400363D

 31 34  0  0  1  0  0  0  0  0999 V2000
  185.8640  179.3910  147.4480 C   0  0  1  0  0  3  0  0  0  0  0  0
  184.9490  178.2000  143.9130 C   0  0  0  0  0  0  0  0  0  0  0  0
  183.6470  178.5550  143.4860 C   0  0  0  0  0  0  0  0  0  0  0  0
  181.3450  179.1590  143.9940 C   0  0  0  0  0  3  0  0  0  0  0  0
  185.2650  178.1200  145.3930 C   0  0  2  0  0  3  0  0  0  0  0  0
  187.1070  178.7360  147.5040 O   0  0  0  0  0  0  0  0  0  0  0  0
  182.6270  178.8060  144.4180 C   0  0  0  0  0  3  0  0  0  0  0  0
  187.3290  177.4490  143.3360 C   0  0  1  0  0  3  0  0  0  0  0  0
  185.9820  180.6600  148.0120 O   0  0  0  0  0  1  0  0  0  0  0  0
  184.3630  178.3960  141.1670 C   0  0  0  0  0  3  0  0  0  0  0  0
  181.0640  179.2640  142.6320 C   0  0  0  0  0  3  0  0  0  0  0  0
  187.6610  177.6930  144.8060 C   0  0  0  0  0  2  0  0  0  0  0  0
  185.9570  177.9550  142.9470 C   0  0  0  0  0  0  0  0  0  0  0  0
  185.4130  179.5210  145.9950 C   0  0  0  0  0  2  0  0  0  0  0  0
  181.7040  179.1420  140.2380 C   0  0  0  0  0  1  0  0  0  0  0  0
  186.5010  177.2550  145.6870 C   0  0  1  0  0  3  0  0  0  0  0  0
  186.8750  177.3890  147.1670 C   0  0  0  0  0  2  0  0  0  0  0  0
  185.6410  178.0380  141.5860 C   0  0  0  0  0  3  0  0  0  0  0  0
  183.3570  178.6600  142.1020 C   0  0  0  0  0  0  0  0  0  0  0  0
  182.0590  179.0180  141.6820 C   0  0  0  0  0  0  0  0  0  0  0  0
  190.5880  178.4310  141.9720 O   0  0  0  0  0  0  0  0  0  0  0  0
  189.7520  177.7710  142.6460 C   0  0  0  0  0  0  0  0  0  0  0  0
  188.3600  178.0630  142.5060 N   0  0  0  0  0  2  0  0  0  0  0  0
  191.1130  175.6710  142.9140 C   0  0  0  0  0  1  0  0  0  0  0  0
  190.2250  176.7130  143.6030 C   0  0  1  0  0  3  0  0  0  0  0  0
  191.7220  178.4030  144.4670 C   0  0  0  0  0  1  0  0  0  0  0  0
  190.8220  177.3080  144.8120 N   0  0  0  0  0  0  0  0  0  0  0  0
  191.6140  176.2990  145.5080 C   0  0  0  0  0  2  0  0  0  0  0  0
  191.6070  176.5560  147.0060 C   0  0  2  0  0  3  0  0  0  0  0  0
  192.0510  175.4130  147.6700 O   0  0  0  0  0  1  0  0  0  0  0  0
  190.2030  176.8860  147.4710 C   0  0  0  0  0  1  0  0  0  0  0  0
  1  6  1  0  0  0  0
  1  9  1  6  0  0  0
  2  5  1  0  0  0  0
  3  2  1  0  0  0  0
  3  7  1  0  0  0  0
  4  7  2  0  0  0  0
  5 16  1  0  0  0  0
  5 14  1  6  0  0  0
  8 23  1  6  0  0  0
  8 12  1  0  0  0  0
 10 18  2  0  0  0  0
 10 19  1  0  0  0  0
 11  4  1  0  0  0  0
 13  8  1  0  0  0  0
 13  2  2  0  0  0  0
 14  1  1  0  0  0  0
 15 20  1  0  0  0  0
 16 12  1  6  0  0  0
 16 17  1  0  0  0  0
 17  6  1  0  0  0  0
 18 13  1  0  0  0  0
 19  3  2  0  0  0  0
 20 19  1  0  0  0  0
 20 11  2  0  0  0  0
 21 22  2  0  0  0  0
 22 25  1  0  0  0  0
 23 22  1  0  0  0  0
 25 24  1  6  0  0  0
 25 27  1  0  0  0  0
 26 27  1  0  0  0  0
 27 28  1  0  0  0  0
 28 29  1  0  0  0  0
 29 31  1  1  0  0  0
 29 30  1  0  0  0  0
M  END
>  <MODEL>
6

>  <REMARK>
 VINA RESULT:      -7.2      3.212      5.707
  Name = 
  5 active torsions:
  status: ('A' for Active; 'I' for Inactive)
    1  A    between atoms: C_1  and  C_24
    2  A    between atoms: C_9  and  C_22
    3  A    between atoms: C_15  and  N_23
    4  A    between atoms: N_19  and  C_22
    5  A    between atoms: N_19  and  C_24
                            x       y       z     vdW  Elec       q    Type
                         _______ _______ _______ _____ _____    ______ ____

>  <TORSDO>
F 5

$$$$
