=
 OpenBabel10272400223D

 31 35  0  0  1  0  0  0  0  0999 V2000
  184.1890  178.8560  144.8710 C   0  0  0  0  0  0  0  0  0  0  0  0
  187.7710  177.6230  144.2130 C   0  0  0  0  0  0  0  0  0  0  0  0
  188.4070  177.3500  145.4590 C   0  0  0  0  0  0  0  0  0  0  0  0
  188.1020  178.3310  147.7070 C   0  0  0  0  0  3  0  0  0  0  0  0
  186.3420  178.0380  144.0570 C   0  0  0  0  0  0  0  0  0  0  0  0
  183.7210  179.1060  143.5040 C   0  0  0  0  0  3  0  0  0  0  0  0
  187.6250  177.3050  146.7370 C   0  0  0  0  0  2  0  0  0  0  0  0
  187.8250  177.6990  141.6770 C   0  0  2  0  0  3  0  0  0  0  0  0
  183.4360  179.0920  145.8510 O   0  0  0  0  0  0  0  0  0  0  0  0
  190.4690  176.8300  144.2790 C   0  0  0  0  0  3  0  0  0  0  0  0
  189.3160  178.2910  148.2530 C   0  0  0  0  0  3  0  0  0  0  0  0
  186.7730  178.6330  141.7840 O   0  0  0  0  0  0  0  0  0  0  0  0
  188.5170  177.4990  143.0160 C   0  0  0  0  0  0  0  0  0  0  0  0
  185.5590  178.3790  145.0890 C   0  0  0  0  0  3  0  0  0  0  0  0
  190.3550  177.3000  147.9140 C   0  0  0  0  0  3  0  0  0  0  0  0
  185.8090  178.0640  142.6320 C   0  0  2  0  0  3  0  0  0  0  0  0
  184.4860  178.7720  142.4640 C   0  0  0  0  0  3  0  0  0  0  0  0
  189.8470  177.0730  143.0610 C   0  0  0  0  0  3  0  0  0  0  0  0
  189.7760  176.9860  145.4800 C   0  0  0  0  0  0  0  0  0  0  0  0
  190.5450  176.7320  146.7170 C   0  0  0  0  0  3  0  0  0  0  0  0
  187.7740  176.9950  138.9050 O   0  0  0  0  0  0  0  0  0  0  0  0
  188.6790  177.7840  139.2920 C   0  0  0  0  0  0  0  0  0  0  0  0
  188.7740  178.1590  140.6690 N   0  0  0  0  0  2  0  0  0  0  0  0
  188.9550  179.2430  137.3020 C   0  0  0  0  0  1  0  0  0  0  0  0
  189.6520  178.3270  138.2950 C   0  0  2  0  0  3  0  0  0  0  0  0
  190.0010  176.8790  136.4380 O   0  0  0  0  0  0  0  0  0  0  0  0
  190.3770  177.2250  137.5900 C   0  0  0  0  0  0  0  0  0  0  0  0
  191.4960  176.5860  138.2100 N   0  0  0  0  0  2  0  0  0  0  0  0
  192.2500  175.5350  137.5460 C   0  0  2  0  0  3  0  0  0  0  0  0
  193.6650  175.5930  137.9750 C   0  0  0  0  0  2  0  0  0  0  0  0
  193.2450  176.1240  136.7420 O   0  0  0  0  0  0  0  0  0  0  0  0
  1 14  1  0  0  0  0
  1  9  2  0  0  0  0
  2  3  1  0  0  0  0
  3 19  2  0  0  0  0
  3  7  1  0  0  0  0
  4 11  2  0  0  0  0
  5  2  1  0  0  0  0
  5 14  2  0  0  0  0
  6  1  1  0  0  0  0
  7  4  1  0  0  0  0
  8 23  1  6  0  0  0
  8 12  1  0  0  0  0
  8 13  1  0  0  0  0
 10 19  1  0  0  0  0
 12 16  1  0  0  0  0
 13 18  1  0  0  0  0
 13  2  2  0  0  0  0
 15 11  1  0  0  0  0
 16 17  1  1  0  0  0
 16  5  1  0  0  0  0
 17  6  2  0  0  0  0
 18 10  2  0  0  0  0
 19 20  1  0  0  0  0
 20 15  2  0  0  0  0
 21 22  2  0  0  0  0
 22 23  1  0  0  0  0
 25 24  1  6  0  0  0
 25 22  1  0  0  0  0
 26 27  2  0  0  0  0
 27 28  1  0  0  0  0
 27 25  1  0  0  0  0
 29 30  1  0  0  0  0
 29 28  1  1  0  0  0
 31 29  1  0  0  0  0
 31 30  1  0  0  0  0
M  END
>  <MODEL>
1

>  <REMARK>
 VINA RESULT:     -10.7      0.000      0.000
  Name = 
  4 active torsions:
  status: ('A' for Active; 'I' for Inactive)
    1  A    between atoms: C_1  and  N_24
    2  A    between atoms: C_9  and  C_22
    3  A    between atoms: C_15  and  N_23
    4  A    between atoms: C_19  and  C_22
                            x       y       z     vdW  Elec       q    Type
                         _______ _______ _______ _____ _____    ______ ____

>  <TORSDO>
F 4

$$$$
=
 OpenBabel10272400223D

 31 35  0  0  1  0  0  0  0  0999 V2000
  188.9390  177.3730  147.3610 C   0  0  0  0  0  0  0  0  0  0  0  0
  187.4680  178.1720  143.9000 C   0  0  0  0  0  0  0  0  0  0  0  0
  186.1480  178.6860  144.0600 C   0  0  0  0  0  0  0  0  0  0  0  0
  184.4290  178.2830  145.7900 C   0  0  0  0  0  3  0  0  0  0  0  0
  188.3930  177.8300  145.0240 C   0  0  0  0  0  0  0  0  0  0  0  0
  190.2540  176.8410  146.9930 C   0  0  0  0  0  3  0  0  0  0  0  0
  185.6280  179.0820  145.4090 C   0  0  0  0  0  2  0  0  0  0  0  0
  189.4080  177.4980  142.4090 C   0  0  2  0  0  3  0  0  0  0  0  0
  188.5930  177.4250  148.5690 O   0  0  0  0  0  0  0  0  0  0  0  0
  185.9000  178.7730  141.6420 C   0  0  0  0  0  3  0  0  0  0  0  0
  183.2730  178.3690  145.1330 C   0  0  0  0  0  3  0  0  0  0  0  0
  189.8240  176.6890  143.4870 O   0  0  0  0  0  0  0  0  0  0  0  0
  187.9710  177.9600  142.5930 C   0  0  0  0  0  0  0  0  0  0  0  0
  188.0090  177.7940  146.3070 C   0  0  0  0  0  3  0  0  0  0  0  0
  183.0560  179.1800  143.9210 C   0  0  0  0  0  3  0  0  0  0  0  0
  189.8270  177.5050  144.6300 C   0  0  2  0  0  3  0  0  0  0  0  0
  190.6550  176.8690  145.7210 C   0  0  0  0  0  3  0  0  0  0  0  0
  187.1940  178.2930  141.4800 C   0  0  0  0  0  3  0  0  0  0  0  0
  185.3570  178.9510  142.9150 C   0  0  0  0  0  0  0  0  0  0  0  0
  183.9610  179.4360  142.9690 C   0  0  0  0  0  3  0  0  0  0  0  0
  191.5520  177.7920  140.5390 O   0  0  0  0  0  0  0  0  0  0  0  0
  190.6650  176.9330  140.2810 C   0  0  0  0  0  0  0  0  0  0  0  0
  189.5550  176.7520  141.1650 N   0  0  0  0  0  2  0  0  0  0  0  0
  192.0180  176.5010  138.2450 C   0  0  0  0  0  1  0  0  0  0  0  0
  190.7880  176.1030  139.0450 C   0  0  2  0  0  3  0  0  0  0  0  0
  189.2230  175.2120  137.4880 O   0  0  0  0  0  0  0  0  0  0  0  0
  189.5520  176.1920  138.2080 C   0  0  0  0  0  0  0  0  0  0  0  0
  188.7420  177.3710  138.2410 N   0  0  0  0  0  2  0  0  0  0  0  0
  187.5150  177.4860  137.4700 C   0  0  2  0  0  3  0  0  0  0  0  0
  187.5550  178.7220  136.6560 C   0  0  0  0  0  2  0  0  0  0  0  0
  186.8360  178.6560  137.8630 O   0  0  0  0  0  0  0  0  0  0  0  0
  1  9  2  0  0  0  0
  2  3  1  0  0  0  0
  2  5  1  0  0  0  0
  3  7  1  0  0  0  0
  5 14  2  0  0  0  0
  6  1  1  0  0  0  0
  7  4  1  0  0  0  0
  8 23  1  6  0  0  0
  8 13  1  0  0  0  0
  8 12  1  0  0  0  0
 10 19  1  0  0  0  0
 11  4  2  0  0  0  0
 12 16  1  0  0  0  0
 13  2  2  0  0  0  0
 14  1  1  0  0  0  0
 15 11  1  0  0  0  0
 16  5  1  0  0  0  0
 16 17  1  1  0  0  0
 17  6  2  0  0  0  0
 18 10  2  0  0  0  0
 18 13  1  0  0  0  0
 19 20  1  0  0  0  0
 19  3  2  0  0  0  0
 20 15  2  0  0  0  0
 22 21  2  0  0  0  0
 22 23  1  0  0  0  0
 25 24  1  6  0  0  0
 25 22  1  0  0  0  0
 26 27  2  0  0  0  0
 27 28  1  0  0  0  0
 27 25  1  0  0  0  0
 29 31  1  0  0  0  0
 29 28  1  1  0  0  0
 30 29  1  0  0  0  0
 30 31  1  0  0  0  0
M  END
>  <MODEL>
2

>  <REMARK>
 VINA RESULT:      -9.7      1.999      4.800
  Name = 
  4 active torsions:
  status: ('A' for Active; 'I' for Inactive)
    1  A    between atoms: C_1  and  N_24
    2  A    between atoms: C_9  and  C_22
    3  A    between atoms: C_15  and  N_23
    4  A    between atoms: C_19  and  C_22
                            x       y       z     vdW  Elec       q    Type
                         _______ _______ _______ _____ _____    ______ ____

>  <TORSDO>
F 4

$$$$
=
 OpenBabel10272400223D

 31 35  0  0  1  0  0  0  0  0999 V2000
  190.3950  176.9450  146.1170 C   0  0  0  0  0  0  0  0  0  0  0  0
  187.7420  178.1160  143.5930 C   0  0  0  0  0  0  0  0  0  0  0  0
  186.5820  178.5490  144.3000 C   0  0  0  0  0  0  0  0  0  0  0  0
  185.6320  177.8550  146.4750 C   0  0  0  0  0  3  0  0  0  0  0  0
  189.0180  177.6730  144.2360 C   0  0  0  0  0  0  0  0  0  0  0  0
  191.4720  176.5210  145.2180 C   0  0  0  0  0  3  0  0  0  0  0  0
  186.6080  178.7470  145.7860 C   0  0  0  0  0  2  0  0  0  0  0  0
  188.9760  177.7210  141.4110 C   0  0  2  0  0  3  0  0  0  0  0  0
  190.5270  176.8270  147.3630 O   0  0  0  0  0  0  0  0  0  0  0  0
  185.4480  178.9330  142.1840 C   0  0  0  0  0  3  0  0  0  0  0  0
  184.3160  177.9750  146.3130 C   0  0  0  0  0  3  0  0  0  0  0  0
  189.7590  176.8000  142.1380 O   0  0  0  0  0  0  0  0  0  0  0  0
  187.7170  178.0950  142.1780 C   0  0  0  0  0  0  0  0  0  0  0  0
  189.1410  177.4570  145.5520 C   0  0  0  0  0  3  0  0  0  0  0  0
  183.6670  178.9240  145.3900 C   0  0  0  0  0  3  0  0  0  0  0  0
  190.1970  177.4630  143.2970 C   0  0  2  0  0  3  0  0  0  0  0  0
  191.3670  176.7280  143.9040 C   0  0  0  0  0  3  0  0  0  0  0  0
  186.5830  178.5340  141.4890 C   0  0  0  0  0  3  0  0  0  0  0  0
  185.4220  178.9240  143.5790 C   0  0  0  0  0  0  0  0  0  0  0  0
  184.1520  179.3380  144.2130 C   0  0  0  0  0  3  0  0  0  0  0  0
  189.0400  179.1120  138.9120 O   0  0  0  0  0  0  0  0  0  0  0  0
  188.7130  177.8940  138.8960 C   0  0  0  0  0  0  0  0  0  0  0  0
  188.6400  177.1470  140.1140 N   0  0  0  0  0  2  0  0  0  0  0  0
  189.0090  178.0180  136.4340 C   0  0  0  0  0  1  0  0  0  0  0  0
  188.4050  177.2370  137.5890 C   0  0  2  0  0  3  0  0  0  0  0  0
  186.5050  176.0700  136.7560 O   0  0  0  0  0  0  0  0  0  0  0  0
  186.9310  177.0620  137.4050 C   0  0  0  0  0  0  0  0  0  0  0  0
  186.0160  178.0010  137.9780 N   0  0  0  0  0  2  0  0  0  0  0  0
  184.5760  177.8490  137.8530 C   0  0  2  0  0  3  0  0  0  0  0  0
  183.8960  178.8750  138.6760 C   0  0  0  0  0  2  0  0  0  0  0  0
  184.0360  177.5460  139.1180 O   0  0  0  0  0  0  0  0  0  0  0  0
  1  9  2  0  0  0  0
  2  5  1  0  0  0  0
  2  3  1  0  0  0  0
  3  7  1  0  0  0  0
  5 14  2  0  0  0  0
  6  1  1  0  0  0  0
  7  4  1  0  0  0  0
  8 23  1  6  0  0  0
  8 12  1  0  0  0  0
  8 13  1  0  0  0  0
 10 19  1  0  0  0  0
 11  4  2  0  0  0  0
 12 16  1  0  0  0  0
 13  2  2  0  0  0  0
 14  1  1  0  0  0  0
 15 11  1  0  0  0  0
 16 17  1  1  0  0  0
 16  5  1  0  0  0  0
 17  6  2  0  0  0  0
 18 13  1  0  0  0  0
 18 10  2  0  0  0  0
 19 20  1  0  0  0  0
 19  3  2  0  0  0  0
 20 15  2  0  0  0  0
 22 21  2  0  0  0  0
 22 23  1  0  0  0  0
 25 24  1  6  0  0  0
 25 22  1  0  0  0  0
 26 27  2  0  0  0  0
 27 25  1  0  0  0  0
 27 28  1  0  0  0  0
 29 28  1  1  0  0  0
 29 30  1  0  0  0  0
 29 31  1  0  0  0  0
 30 31  1  0  0  0  0
M  END
>  <MODEL>
3

>  <REMARK>
 VINA RESULT:      -9.5      2.604      5.224
  Name = 
  4 active torsions:
  status: ('A' for Active; 'I' for Inactive)
    1  A    between atoms: C_1  and  N_24
    2  A    between atoms: C_9  and  C_22
    3  A    between atoms: C_15  and  N_23
    4  A    between atoms: C_19  and  C_22
                            x       y       z     vdW  Elec       q    Type
                         _______ _______ _______ _____ _____    ______ ____

>  <TORSDO>
F 4

$$$$
=
 OpenBabel10272400223D

 31 35  0  0  1  0  0  0  0  0999 V2000
  181.2100  178.8110  141.8130 C   0  0  0  0  0  0  0  0  0  0  0  0
  185.0430  178.5850  141.6200 C   0  0  0  0  0  0  0  0  0  0  0  0
  185.4410  178.5530  140.2520 C   0  0  0  0  0  0  0  0  0  0  0  0
  184.3030  177.6980  138.2310 C   0  0  0  0  0  3  0  0  0  0  0  0
  183.6360  178.7590  142.0960 C   0  0  0  0  0  0  0  0  0  0  0  0
  181.0000  178.8030  143.2640 C   0  0  0  0  0  3  0  0  0  0  0  0
  184.4680  178.8570  139.1530 C   0  0  0  0  0  2  0  0  0  0  0  0
  185.6280  178.5710  144.0890 C   0  0  2  0  0  3  0  0  0  0  0  0
  180.2260  178.8540  141.0310 O   0  0  0  0  0  0  0  0  0  0  0  0
  187.7560  178.2720  140.9430 C   0  0  0  0  0  3  0  0  0  0  0  0
  185.2910  177.2500  137.4600 C   0  0  0  0  0  3  0  0  0  0  0  0
  184.3100  178.1130  144.2950 O   0  0  0  0  0  0  0  0  0  0  0  0
  186.0280  178.4480  142.6270 C   0  0  0  0  0  0  0  0  0  0  0  0
  182.5740  178.7160  141.2800 C   0  0  0  0  0  3  0  0  0  0  0  0
  186.6700  177.7720  137.4760 C   0  0  0  0  0  3  0  0  0  0  0  0
  183.4620  178.9840  143.5910 C   0  0  2  0  0  3  0  0  0  0  0  0
  182.0440  178.8480  144.0920 C   0  0  0  0  0  3  0  0  0  0  0  0
  187.3760  178.3250  142.2780 C   0  0  0  0  0  3  0  0  0  0  0  0
  186.8060  178.3590  139.9250 C   0  0  0  0  0  0  0  0  0  0  0  0
  187.3180  178.2590  138.5410 C   0  0  0  0  0  3  0  0  0  0  0  0
  186.3010  179.2150  146.7940 O   0  0  0  0  0  0  0  0  0  0  0  0
  186.8160  178.1780  146.2940 C   0  0  0  0  0  0  0  0  0  0  0  0
  186.5370  177.8120  144.9390 N   0  0  0  0  0  2  0  0  0  0  0  0
  187.6760  177.7730  148.5880 C   0  0  0  0  0  1  0  0  0  0  0  0
  187.7180  177.3320  147.1340 C   0  0  2  0  0  3  0  0  0  0  0  0
  189.3950  178.0700  145.6130 O   0  0  0  0  0  0  0  0  0  0  0  0
  189.1180  177.3480  146.6090 C   0  0  0  0  0  0  0  0  0  0  0  0
  190.1350  176.5670  147.2430 N   0  0  0  0  0  2  0  0  0  0  0  0
  191.5150  176.5800  146.7860 C   0  0  2  0  0  3  0  0  0  0  0  0
  192.2850  175.5400  147.5060 C   0  0  0  0  0  2  0  0  0  0  0  0
  192.3540  176.8970  147.8730 O   0  0  0  0  0  0  0  0  0  0  0  0
  1  6  1  0  0  0  0
  2  5  1  0  0  0  0
  2 13  1  0  0  0  0
  3  2  2  0  0  0  0
  4  7  1  0  0  0  0
  5 16  1  0  0  0  0
  6 17  2  0  0  0  0
  7  3  1  0  0  0  0
  8 12  1  0  0  0  0
  8 23  1  1  0  0  0
  9  1  2  0  0  0  0
 10 18  1  0  0  0  0
 11 15  1  0  0  0  0
 11  4  2  0  0  0  0
 13  8  1  0  0  0  0
 14  1  1  0  0  0  0
 14  5  2  0  0  0  0
 15 20  2  0  0  0  0
 16 17  1  1  0  0  0
 16 12  1  0  0  0  0
 18 13  2  0  0  0  0
 19  3  1  0  0  0  0
 19 10  2  0  0  0  0
 20 19  1  0  0  0  0
 22 21  2  0  0  0  0
 22 25  1  0  0  0  0
 23 22  1  0  0  0  0
 25 24  1  1  0  0  0
 26 27  2  0  0  0  0
 27 25  1  0  0  0  0
 27 28  1  0  0  0  0
 29 28  1  1  0  0  0
 29 30  1  0  0  0  0
 29 31  1  0  0  0  0
 30 31  1  0  0  0  0
M  END
>  <MODEL>
4

>  <REMARK>
 VINA RESULT:      -9.4      3.948      7.388
  Name = 
  4 active torsions:
  status: ('A' for Active; 'I' for Inactive)
    1  A    between atoms: C_1  and  N_24
    2  A    between atoms: C_9  and  C_22
    3  A    between atoms: C_15  and  N_23
    4  A    between atoms: C_19  and  C_22
                            x       y       z     vdW  Elec       q    Type
                         _______ _______ _______ _____ _____    ______ ____

>  <TORSDO>
F 4

$$$$
=
 OpenBabel10272400223D

 31 35  0  0  1  0  0  0  0  0999 V2000
  190.7640  177.5380  141.5610 C   0  0  0  0  0  0  0  0  0  0  0  0
  187.7140  178.1340  143.8250 C   0  0  0  0  0  0  0  0  0  0  0  0
  188.1220  178.0550  145.1890 C   0  0  0  0  0  0  0  0  0  0  0  0
  189.9290  176.7760  146.2890 C   0  0  0  0  0  3  0  0  0  0  0  0
  188.6380  178.0440  142.6510 C   0  0  0  0  0  0  0  0  0  0  0  0
  190.1510  177.6280  140.2320 C   0  0  0  0  0  3  0  0  0  0  0  0
  189.5720  178.0290  145.5650 C   0  0  0  0  0  2  0  0  0  0  0  0
  185.9080  178.4920  142.0790 C   0  0  2  0  0  3  0  0  0  0  0  0
  191.9920  177.2880  141.6760 O   0  0  0  0  0  0  0  0  0  0  0  0
  185.8110  178.3540  145.8850 C   0  0  0  0  0  3  0  0  0  0  0  0
  189.4380  176.4800  147.4910 C   0  0  0  0  0  3  0  0  0  0  0  0
  186.7550  177.7810  141.2030 O   0  0  0  0  0  0  0  0  0  0  0  0
  186.3430  178.3150  143.5250 C   0  0  0  0  0  0  0  0  0  0  0  0
  189.9250  177.6900  142.7550 C   0  0  0  0  0  3  0  0  0  0  0  0
  188.4380  177.2890  148.2120 C   0  0  0  0  0  3  0  0  0  0  0  0
  188.0260  178.3720  141.2970 C   0  0  2  0  0  3  0  0  0  0  0  0
  188.8710  177.9810  140.1090 C   0  0  0  0  0  3  0  0  0  0  0  0
  185.4110  178.4550  144.5580 C   0  0  0  0  0  3  0  0  0  0  0  0
  187.1480  178.1310  146.2150 C   0  0  0  0  0  0  0  0  0  0  0  0
  187.4550  178.0090  147.6560 C   0  0  0  0  0  3  0  0  0  0  0  0
  184.0570  179.5370  140.1640 O   0  0  0  0  0  0  0  0  0  0  0  0
  183.6660  178.5910  140.9000 C   0  0  0  0  0  0  0  0  0  0  0  0
  184.5350  178.0370  141.8920 N   0  0  0  0  0  2  0  0  0  0  0  0
  182.2640  176.9530  139.6680 C   0  0  0  0  0  1  0  0  0  0  0  0
  182.2840  178.0490  140.7210 C   0  0  2  0  0  3  0  0  0  0  0  0
  180.7320  179.7540  141.3120 O   0  0  0  0  0  0  0  0  0  0  0  0
  181.3160  179.1370  140.3820 C   0  0  0  0  0  0  0  0  0  0  0  0
  181.0710  179.4850  139.0160 N   0  0  0  0  0  2  0  0  0  0  0  0
  180.1640  180.5580  138.6440 C   0  0  2  0  0  3  0  0  0  0  0  0
  180.6990  181.2710  137.4610 C   0  0  0  0  0  2  0  0  0  0  0  0
  180.8400  181.7890  138.7620 O   0  0  0  0  0  0  0  0  0  0  0  0
  1  9  2  0  0  0  0
  1 14  1  0  0  0  0
  2  3  1  0  0  0  0
  3  7  1  0  0  0  0
  3 19  2  0  0  0  0
  4 11  2  0  0  0  0
  5 14  2  0  0  0  0
  5  2  1  0  0  0  0
  6  1  1  0  0  0  0
  7  4  1  0  0  0  0
  8 23  1  1  0  0  0
  8 13  1  0  0  0  0
 10 19  1  0  0  0  0
 11 15  1  0  0  0  0
 12 16  1  0  0  0  0
 12  8  1  0  0  0  0
 13  2  2  0  0  0  0
 13 18  1  0  0  0  0
 16 17  1  6  0  0  0
 16  5  1  0  0  0  0
 17  6  2  0  0  0  0
 18 10  2  0  0  0  0
 19 20  1  0  0  0  0
 20 15  2  0  0  0  0
 21 22  2  0  0  0  0
 22 23  1  0  0  0  0
 25 24  1  6  0  0  0
 25 22  1  0  0  0  0
 27 25  1  0  0  0  0
 27 26  2  0  0  0  0
 28 27  1  0  0  0  0
 29 31  1  0  0  0  0
 29 28  1  1  0  0  0
 30 29  1  0  0  0  0
 30 31  1  0  0  0  0
M  END
>  <MODEL>
5

>  <REMARK>
 VINA RESULT:      -9.1      3.340      6.842
  Name = 
  4 active torsions:
  status: ('A' for Active; 'I' for Inactive)
    1  A    between atoms: C_1  and  N_24
    2  A    between atoms: C_9  and  C_22
    3  A    between atoms: C_15  and  N_23
    4  A    between atoms: C_19  and  C_22
                            x       y       z     vdW  Elec       q    Type
                         _______ _______ _______ _____ _____    ______ ____

>  <TORSDO>
F 4

$$$$
=
 OpenBabel10272400223D

 31 35  0  0  1  0  0  0  0  0999 V2000
  190.5300  176.9320  145.9340 C   0  0  0  0  0  0  0  0  0  0  0  0
  187.8300  178.0760  143.4470 C   0  0  0  0  0  0  0  0  0  0  0  0
  186.6700  178.4800  144.1690 C   0  0  0  0  0  0  0  0  0  0  0  0
  185.7540  177.7480  146.3460 C   0  0  0  0  0  3  0  0  0  0  0  0
  189.1210  177.6510  144.0730 C   0  0  0  0  0  0  0  0  0  0  0  0
  191.6060  176.5380  145.0200 C   0  0  0  0  0  3  0  0  0  0  0  0
  186.7070  178.6650  145.6570 C   0  0  0  0  0  2  0  0  0  0  0  0
  189.0500  177.7260  141.2500 C   0  0  2  0  0  3  0  0  0  0  0  0
  190.6760  176.8060  147.1770 O   0  0  0  0  0  0  0  0  0  0  0  0
  185.5070  178.8630  142.0680 C   0  0  0  0  0  3  0  0  0  0  0  0
  184.4350  177.8440  146.1990 C   0  0  0  0  0  3  0  0  0  0  0  0
  189.8570  176.8130  141.9600 O   0  0  0  0  0  0  0  0  0  0  0  0
  187.7920  178.0680  142.0320 C   0  0  0  0  0  0  0  0  0  0  0  0
  189.2610  177.4260  145.3850 C   0  0  0  0  0  3  0  0  0  0  0  0
  183.7590  178.7890  145.2910 C   0  0  0  0  0  3  0  0  0  0  0  0
  190.2940  177.4730  143.1210 C   0  0  2  0  0  3  0  0  0  0  0  0
  191.4840  176.7550  143.7100 C   0  0  0  0  0  3  0  0  0  0  0  0
  186.6430  178.4920  141.3590 C   0  0  0  0  0  3  0  0  0  0  0  0
  185.4950  178.8400  143.4630 C   0  0  0  0  0  0  0  0  0  0  0  0
  184.2240  179.2240  144.1140 C   0  0  0  0  0  3  0  0  0  0  0  0
  188.9800  179.1610  138.7760 O   0  0  0  0  0  0  0  0  0  0  0  0
  188.7160  177.9290  138.7450 C   0  0  0  0  0  0  0  0  0  0  0  0
  188.7130  177.1580  139.9500 N   0  0  0  0  0  2  0  0  0  0  0  0
  186.9950  176.7250  137.4210 C   0  0  0  0  0  1  0  0  0  0  0  0
  188.4100  177.2790  137.4340 C   0  0  2  0  0  3  0  0  0  0  0  0
  189.0120  175.0250  136.9600 O   0  0  0  0  0  0  0  0  0  0  0  0
  189.4080  176.2120  137.1130 C   0  0  0  0  0  0  0  0  0  0  0  0
  190.7920  176.5390  136.9630 N   0  0  0  0  0  2  0  0  0  0  0  0
  191.7890  175.5390  136.6180 C   0  0  2  0  0  3  0  0  0  0  0  0
  192.7990  175.4530  137.6970 C   0  0  0  0  0  2  0  0  0  0  0  0
  193.0460  176.1650  136.5090 O   0  0  0  0  0  0  0  0  0  0  0  0
  1  9  2  0  0  0  0
  2  5  1  0  0  0  0
  2  3  1  0  0  0  0
  3  7  1  0  0  0  0
  5 14  2  0  0  0  0
  6  1  1  0  0  0  0
  7  4  1  0  0  0  0
  8 23  1  6  0  0  0
  8 12  1  0  0  0  0
  8 13  1  0  0  0  0
 10 19  1  0  0  0  0
 11  4  2  0  0  0  0
 12 16  1  0  0  0  0
 13  2  2  0  0  0  0
 14  1  1  0  0  0  0
 15 11  1  0  0  0  0
 16 17  1  1  0  0  0
 16  5  1  0  0  0  0
 17  6  2  0  0  0  0
 18 13  1  0  0  0  0
 18 10  2  0  0  0  0
 19 20  1  0  0  0  0
 19  3  2  0  0  0  0
 20 15  2  0  0  0  0
 22 21  2  0  0  0  0
 22 23  1  0  0  0  0
 25 24  1  1  0  0  0
 25 22  1  0  0  0  0
 26 27  2  0  0  0  0
 27 25  1  0  0  0  0
 28 27  1  0  0  0  0
 29 28  1  1  0  0  0
 29 30  1  0  0  0  0
 31 29  1  0  0  0  0
 31 30  1  0  0  0  0
M  END
>  <MODEL>
6

>  <REMARK>
 VINA RESULT:      -9.1      2.043      4.209
  Name = 
  4 active torsions:
  status: ('A' for Active; 'I' for Inactive)
    1  A    between atoms: C_1  and  N_24
    2  A    between atoms: C_9  and  C_22
    3  A    between atoms: C_15  and  N_23
    4  A    between atoms: C_19  and  C_22
                            x       y       z     vdW  Elec       q    Type
                         _______ _______ _______ _____ _____    ______ ____

>  <TORSDO>
F 4

$$$$
=
 OpenBabel10272400223D

 31 35  0  0  1  0  0  0  0  0999 V2000
  183.9090  178.7120  140.5940 C   0  0  0  0  0  0  0  0  0  0  0  0
  187.6320  178.1410  139.8200 C   0  0  0  0  0  0  0  0  0  0  0  0
  187.8050  178.0330  138.4090 C   0  0  0  0  0  0  0  0  0  0  0  0
  186.2950  177.2220  136.6280 C   0  0  0  0  0  3  0  0  0  0  0  0
  186.3360  178.4530  140.5000 C   0  0  0  0  0  0  0  0  0  0  0  0
  183.9310  178.7650  142.0590 C   0  0  0  0  0  3  0  0  0  0  0  0
  186.6990  178.3900  137.4620 C   0  0  0  0  0  2  0  0  0  0  0  0
  188.5960  178.1480  142.1670 C   0  0  2  0  0  3  0  0  0  0  0  0
  182.8210  178.8180  139.9720 O   0  0  0  0  0  0  0  0  0  0  0  0
  190.1680  177.5690  138.7460 C   0  0  0  0  0  3  0  0  0  0  0  0
  187.1090  176.6660  135.7330 C   0  0  0  0  0  3  0  0  0  0  0  0
  187.2930  177.8160  142.5940 O   0  0  0  0  0  0  0  0  0  0  0  0
  188.7490  177.9470  140.6680 C   0  0  0  0  0  0  0  0  0  0  0  0
  185.1590  178.4800  139.8610 C   0  0  0  0  0  3  0  0  0  0  0  0
  188.5110  177.0650  135.5130 C   0  0  0  0  0  3  0  0  0  0  0  0
  186.4200  178.7370  141.9920 C   0  0  2  0  0  3  0  0  0  0  0  0
  185.0930  178.7420  142.7120 C   0  0  0  0  0  3  0  0  0  0  0  0
  190.0100  177.6950  140.1200 C   0  0  0  0  0  3  0  0  0  0  0  0
  189.0800  177.7100  137.8840 C   0  0  0  0  0  0  0  0  0  0  0  0
  189.3580  177.5230  136.4430 C   0  0  0  0  0  3  0  0  0  0  0  0
  190.6950  179.1590  143.8280 O   0  0  0  0  0  0  0  0  0  0  0  0
  190.5780  177.9070  143.7300 C   0  0  0  0  0  0  0  0  0  0  0  0
  189.5620  177.3370  142.8990 N   0  0  0  0  0  2  0  0  0  0  0  0
  191.6090  175.6520  143.8490 C   0  0  0  0  0  1  0  0  0  0  0  0
  191.5080  177.0240  144.4960 C   0  0  2  0  0  3  0  0  0  0  0  0
  191.9730  176.7480  146.8150 O   0  0  0  0  0  0  0  0  0  0  0  0
  191.0930  176.9120  145.9280 C   0  0  0  0  0  0  0  0  0  0  0  0
  189.7120  177.0090  146.2880 N   0  0  0  0  0  2  0  0  0  0  0  0
  189.2680  176.9400  147.6710 C   0  0  2  0  0  3  0  0  0  0  0  0
  187.9910  177.6740  147.8190 C   0  0  0  0  0  2  0  0  0  0  0  0
  189.2190  178.2440  148.2010 O   0  0  0  0  0  0  0  0  0  0  0  0
  1  6  1  0  0  0  0
  2  5  1  0  0  0  0
  2 13  1  0  0  0  0
  3  2  2  0  0  0  0
  4  7  1  0  0  0  0
  5 16  1  0  0  0  0
  6 17  2  0  0  0  0
  7  3  1  0  0  0  0
  8 12  1  0  0  0  0
  8 23  1  1  0  0  0
  9  1  2  0  0  0  0
 10 18  1  0  0  0  0
 11  4  2  0  0  0  0
 13  8  1  0  0  0  0
 14  5  2  0  0  0  0
 14  1  1  0  0  0  0
 15 11  1  0  0  0  0
 15 20  2  0  0  0  0
 16 12  1  0  0  0  0
 16 17  1  1  0  0  0
 18 13  2  0  0  0  0
 19  3  1  0  0  0  0
 19 10  2  0  0  0  0
 20 19  1  0  0  0  0
 22 21  2  0  0  0  0
 22 25  1  0  0  0  0
 23 22  1  0  0  0  0
 25 24  1  6  0  0  0
 25 27  1  0  0  0  0
 27 28  1  0  0  0  0
 27 26  2  0  0  0  0
 29 28  1  6  0  0  0
 29 30  1  0  0  0  0
 29 31  1  0  0  0  0
 30 31  1  0  0  0  0
M  END
>  <MODEL>
7

>  <REMARK>
 VINA RESULT:      -9.1      2.920      7.496
  Name = 
  4 active torsions:
  status: ('A' for Active; 'I' for Inactive)
    1  A    between atoms: C_1  and  N_24
    2  A    between atoms: C_9  and  C_22
    3  A    between atoms: C_15  and  N_23
    4  A    between atoms: C_19  and  C_22
                            x       y       z     vdW  Elec       q    Type
                         _______ _______ _______ _____ _____    ______ ____

>  <TORSDO>
F 4

$$$$
=
 OpenBabel10272400223D

 31 35  0  0  1  0  0  0  0  0999 V2000
  191.0450  177.2250  142.0850 C   0  0  0  0  0  0  0  0  0  0  0  0
  187.7880  178.1000  143.9310 C   0  0  0  0  0  0  0  0  0  0  0  0
  188.0160  178.0400  145.3370 C   0  0  0  0  0  0  0  0  0  0  0  0
  189.5790  176.6820  146.6890 C   0  0  0  0  0  3  0  0  0  0  0  0
  188.8410  177.9080  142.8860 C   0  0  0  0  0  0  0  0  0  0  0  0
  190.6090  177.3110  140.6880 C   0  0  0  0  0  3  0  0  0  0  0  0
  189.4040  177.9300  145.8930 C   0  0  0  0  0  2  0  0  0  0  0  0
  186.2410  178.5180  141.9630 C   0  0  2  0  0  3  0  0  0  0  0  0
  192.2280  176.8980  142.3600 O   0  0  0  0  0  0  0  0  0  0  0  0
  185.6640  178.5160  145.7290 C   0  0  0  0  0  3  0  0  0  0  0  0
  188.9240  176.4600  147.8260 C   0  0  0  0  0  3  0  0  0  0  0  0
  187.1380  177.7220  141.2190 O   0  0  0  0  0  0  0  0  0  0  0  0
  186.4800  178.3610  143.4570 C   0  0  0  0  0  0  0  0  0  0  0  0
  190.0770  177.4730  143.1600 C   0  0  0  0  0  3  0  0  0  0  0  0
  187.9020  177.3580  148.3940 C   0  0  0  0  0  3  0  0  0  0  0  0
  188.4260  178.2300  141.4580 C   0  0  2  0  0  3  0  0  0  0  0  0
  189.3820  177.7430  140.3950 C   0  0  0  0  0  3  0  0  0  0  0  0
  185.4400  178.5980  144.3600 C   0  0  0  0  0  3  0  0  0  0  0  0
  186.9310  178.2160  146.2300 C   0  0  0  0  0  0  0  0  0  0  0  0
  187.0480  178.1220  147.7010 C   0  0  0  0  0  3  0  0  0  0  0  0
  184.6150  179.8210  140.0040 O   0  0  0  0  0  0  0  0  0  0  0  0
  184.1200  178.8320  140.6100 C   0  0  0  0  0  0  0  0  0  0  0  0
  184.8740  178.1490  141.6170 N   0  0  0  0  0  2  0  0  0  0  0  0
  181.8620  178.3140  141.5020 C   0  0  0  0  0  1  0  0  0  0  0  0
  182.7400  178.3770  140.2630 C   0  0  2  0  0  3  0  0  0  0  0  0
  181.9460  176.1630  139.8950 O   0  0  0  0  0  0  0  0  0  0  0  0
  182.7660  177.0580  139.5580 C   0  0  0  0  0  0  0  0  0  0  0  0
  183.6990  176.8250  138.4980 N   0  0  0  0  0  2  0  0  0  0  0  0
  183.7350  175.5710  137.7640 C   0  0  2  0  0  3  0  0  0  0  0  0
  184.2210  175.8160  136.3870 C   0  0  0  0  0  2  0  0  0  0  0  0
  182.8520  175.6570  136.6700 O   0  0  0  0  0  0  0  0  0  0  0  0
  1  9  2  0  0  0  0
  1 14  1  0  0  0  0
  2  3  1  0  0  0  0
  3  7  1  0  0  0  0
  3 19  2  0  0  0  0
  4 11  2  0  0  0  0
  5 14  2  0  0  0  0
  5  2  1  0  0  0  0
  6  1  1  0  0  0  0
  7  4  1  0  0  0  0
  8 23  1  1  0  0  0
  8 13  1  0  0  0  0
 10 19  1  0  0  0  0
 11 15  1  0  0  0  0
 12 16  1  0  0  0  0
 12  8  1  0  0  0  0
 13  2  2  0  0  0  0
 13 18  1  0  0  0  0
 16 17  1  6  0  0  0
 16  5  1  0  0  0  0
 17  6  2  0  0  0  0
 18 10  2  0  0  0  0
 19 20  1  0  0  0  0
 20 15  2  0  0  0  0
 21 22  2  0  0  0  0
 22 23  1  0  0  0  0
 25 22  1  0  0  0  0
 25 24  1  1  0  0  0
 27 26  2  0  0  0  0
 27 25  1  0  0  0  0
 28 27  1  0  0  0  0
 29 28  1  1  0  0  0
 30 31  1  0  0  0  0
 30 29  1  0  0  0  0
 31 29  1  0  0  0  0
M  END
>  <MODEL>
8

>  <REMARK>
 VINA RESULT:      -9.1      2.984      5.792
  Name = 
  4 active torsions:
  status: ('A' for Active; 'I' for Inactive)
    1  A    between atoms: C_1  and  N_24
    2  A    between atoms: C_9  and  C_22
    3  A    between atoms: C_15  and  N_23
    4  A    between atoms: C_19  and  C_22
                            x       y       z     vdW  Elec       q    Type
                         _______ _______ _______ _____ _____    ______ ____

>  <TORSDO>
F 4

$$$$
=
 OpenBabel10272400223D

 31 35  0  0  1  0  0  0  0  0999 V2000
  185.0490  178.7520  145.0630 C   0  0  0  0  0  0  0  0  0  0  0  0
  188.1710  177.4660  143.2250 C   0  0  0  0  0  0  0  0  0  0  0  0
  189.1160  176.9920  144.1820 C   0  0  0  0  0  0  0  0  0  0  0  0
  189.5570  177.6610  146.5210 C   0  0  0  0  0  3  0  0  0  0  0  0
  186.7980  177.9610  143.5530 C   0  0  0  0  0  0  0  0  0  0  0  0
  184.2290  179.2110  143.9390 C   0  0  0  0  0  3  0  0  0  0  0  0
  188.7360  176.8040  145.6200 C   0  0  0  0  0  2  0  0  0  0  0  0
  187.4970  177.8950  140.8160 C   0  0  2  0  0  3  0  0  0  0  0  0
  184.6350  178.8810  146.2440 O   0  0  0  0  0  0  0  0  0  0  0  0
  190.6980  176.5520  142.3880 C   0  0  0  0  0  3  0  0  0  0  0  0
  190.8690  177.4900  146.6700 C   0  0  0  0  0  3  0  0  0  0  0  0
  186.6020  178.8490  141.3440 O   0  0  0  0  0  0  0  0  0  0  0  0
  188.5260  177.4780  141.8540 C   0  0  0  0  0  0  0  0  0  0  0  0
  186.3790  178.1880  144.8050 C   0  0  0  0  0  3  0  0  0  0  0  0
  191.6790  176.5120  145.9210 C   0  0  0  0  0  3  0  0  0  0  0  0
  185.8800  178.2110  142.3650 C   0  0  2  0  0  3  0  0  0  0  0  0
  184.6290  178.9930  142.6850 C   0  0  0  0  0  3  0  0  0  0  0  0
  189.7720  176.9920  141.4480 C   0  0  0  0  0  3  0  0  0  0  0  0
  190.3970  176.5690  143.7500 C   0  0  0  0  0  0  0  0  0  0  0  0
  191.4660  176.1100  144.6620 C   0  0  0  0  0  3  0  0  0  0  0  0
  188.1510  176.4380  138.4430 O   0  0  0  0  0  0  0  0  0  0  0  0
  188.4300  177.6670  138.4700 C   0  0  0  0  0  0  0  0  0  0  0  0
  188.1480  178.4480  139.6350 N   0  0  0  0  0  2  0  0  0  0  0  0
  189.0440  179.8170  137.3910 C   0  0  0  0  0  1  0  0  0  0  0  0
  189.0540  178.3020  137.2700 C   0  0  2  0  0  3  0  0  0  0  0  0
  189.0750  177.4090  135.0630 O   0  0  0  0  0  0  0  0  0  0  0  0
  188.3780  177.8610  136.0110 C   0  0  0  0  0  0  0  0  0  0  0  0
  186.9540  177.9320  135.8930 N   0  0  0  0  0  2  0  0  0  0  0  0
  186.2550  177.4820  134.7010 C   0  0  2  0  0  3  0  0  0  0  0  0
  184.9160  176.9720  135.0740 C   0  0  0  0  0  2  0  0  0  0  0  0
  185.9930  176.1030  134.8180 O   0  0  0  0  0  0  0  0  0  0  0  0
  1  9  2  0  0  0  0
  2  5  1  0  0  0  0
  2  3  1  0  0  0  0
  3  7  1  0  0  0  0
  4 11  2  0  0  0  0
  5 14  2  0  0  0  0
  6  1  1  0  0  0  0
  7  4  1  0  0  0  0
  8 23  1  6  0  0  0
  8 12  1  0  0  0  0
  8 13  1  0  0  0  0
 10 19  1  0  0  0  0
 12 16  1  0  0  0  0
 13  2  2  0  0  0  0
 14  1  1  0  0  0  0
 15 11  1  0  0  0  0
 16 17  1  1  0  0  0
 16  5  1  0  0  0  0
 17  6  2  0  0  0  0
 18 13  1  0  0  0  0
 18 10  2  0  0  0  0
 19  3  2  0  0  0  0
 19 20  1  0  0  0  0
 20 15  2  0  0  0  0
 21 22  2  0  0  0  0
 22 23  1  0  0  0  0
 25 24  1  1  0  0  0
 25 22  1  0  0  0  0
 26 27  2  0  0  0  0
 27 25  1  0  0  0  0
 28 27  1  0  0  0  0
 29 31  1  0  0  0  0
 29 30  1  0  0  0  0
 29 28  1  1  0  0  0
 31 30  1  0  0  0  0
M  END
>  <MODEL>
9

>  <REMARK>
 VINA RESULT:      -9.0      1.954      2.993
  Name = 
  4 active torsions:
  status: ('A' for Active; 'I' for Inactive)
    1  A    between atoms: C_1  and  N_24
    2  A    between atoms: C_9  and  C_22
    3  A    between atoms: C_15  and  N_23
    4  A    between atoms: C_19  and  C_22
                            x       y       z     vdW  Elec       q    Type
                         _______ _______ _______ _____ _____    ______ ____

>  <TORSDO>
F 4

$$$$
