=
 OpenBabel10272415073D

 37 38  0  0  1  0  0  0  0  0999 V2000
  186.1710  172.9970  135.9660 C   0  0  0  0  0  2  0  0  0  0  0  0
  180.9100  179.1820  137.1350 O   0  0  0  0  0  0  0  0  0  0  0  0
  185.0240  172.6040  135.0430 C   0  0  2  0  0  3  0  0  0  0  0  0
  184.1030  178.0170  138.5110 C   0  0  0  0  0  2  0  0  0  0  0  0
  181.6200  176.1730  136.1340 C   0  0  0  0  0  2  0  0  0  0  0  0
  183.2300  179.5150  139.0430 S   0  0  0  0  0  0  0  0  0  0  0  0
  187.5200  177.1880  137.1670 C   0  0  2  0  0  3  0  0  0  0  0  0
  182.0610  173.9240  137.1190 C   0  0  0  0  0  0  0  0  0  0  0  0
  182.7810  173.0950  134.3680 O   0  0  0  0  0  1  0  0  0  0  0  0
  187.7520  176.8850  134.7020 C   0  0  0  0  0  1  0  0  0  0  0  0
  185.9910  177.1780  137.1790 C   0  0  0  0  0  2  0  0  0  0  0  0
  182.0040  178.3370  141.0980 N   0  0  0  0  0  2  0  0  0  0  0  0
  183.7310  173.3610  135.3560 C   0  0  1  0  0  3  0  0  0  0  0  0
  180.9600  177.8400  139.0550 N   0  0  0  0  0  2  0  0  0  0  0  0
  181.9340  178.5510  139.8280 C   0  0  0  0  0  0  0  0  0  0  0  0
  188.1710  176.3160  136.0590 C   0  0  2  0  0  0  0  0  0  0  0  0
  184.8180  171.2250  135.1090 O   0  0  0  0  0  1  0  0  0  0  0  0
  183.1720  173.0000  136.7300 C   0  0  0  0  0  2  0  0  0  0  0  0
  179.9820  176.7410  136.6920 S   0  0  0  0  0  0  0  0  0  0  0  0
  187.7300  174.8760  136.1950 C   0  0  0  0  0  3  0  0  0  0  0  0
  185.4560  178.3740  137.9410 C   0  0  0  0  0  2  0  0  0  0  0  0
  182.3340  175.3930  137.2300 C   0  0  0  0  0  2  0  0  0  0  0  0
  180.8760  173.3720  137.7120 S   0  0  0  0  0  0  0  0  0  0  0  0
  180.6800  178.0650  137.6710 C   0  0  0  0  0  0  0  0  0  0  0  0
  186.5460  174.4280  135.7690 C   0  0  0  0  0  3  0  0  0  0  0  0
  188.7330  177.8900  139.3340 C   0  0  0  0  0  0  0  0  0  0  0  0
  188.0750  176.9300  138.5010 N   0  0  0  0  0  2  0  0  0  0  0  0
  188.9720  179.0550  138.9220 O   0  0  0  0  0  0  0  0  0  0  0  0
  189.2450  177.4190  140.9780 S   0  0  0  0  0  1  0  0  0  0  0  0
  190.2820  177.0190  135.0720 O   0  0  0  0  0  1  0  0  0  0  0  0
  189.7190  176.4060  136.1960 C   0  0  2  0  0  3  0  0  0  0  0  0
  192.8050  173.6800  137.7290 O   0  0  0  0  0  1  0  0  0  0  0  0
  190.9740  175.0840  137.8710 O   0  0  0  0  0  0  0  0  0  0  0  0
  192.3050  174.9510  137.4400 C   0  0  1  0  0  0  0  0  0  0  0  0
  193.2050  176.0510  137.9710 C   0  0  0  0  0  1  0  0  0  0  0  0
  190.5400  175.1400  136.5340 C   0  0  2  0  0  3  0  0  0  0  0  0
  191.9460  175.0970  135.9850 C   0  0  0  0  0  2  0  0  0  0  0  0
  2 24  2  0  0  0  0
  3 17  1  1  0  0  0
  3 13  1  0  0  0  0
  3  1  1  0  0  0  0
  4  6  1  0  0  0  0
  5 19  1  0  0  0  0
  5 22  1  0  0  0  0
  6 15  1  0  0  0  0
  7 11  1  0  0  0  0
  7 27  1  1  0  0  0
  8 22  1  0  0  0  0
  8 23  2  0  0  0  0
 11 21  1  0  0  0  0
 13  9  1  6  0  0  0
 13 18  1  0  0  0  0
 14 15  1  0  0  0  0
 15 12  2  0  0  0  0
 16 10  1  6  0  0  0
 16 20  1  0  0  0  0
 16 31  1  0  0  0  0
 16  7  1  0  0  0  0
 18  8  1  0  0  0  0
 19 24  1  0  0  0  0
 21  4  1  0  0  0  0
 24 14  1  0  0  0  0
 25  1  1  0  0  0  0
 25 20  2  0  0  0  0
 26 29  1  0  0  0  0
 27 26  1  0  0  0  0
 28 26  2  0  0  0  0
 31 30  1  6  0  0  0
 34 32  1  0  0  0  0
 34 33  1  0  0  0  0
 34 35  1  1  0  0  0
 36 31  1  1  0  0  0
 36 33  1  0  0  0  0
 37 36  1  0  0  0  0
 37 34  1  0  0  0  0
M  END
>  <MODEL>
1

>  <REMARK>
 VINA RESULT:      -6.1      0.000      0.000
  Name = 
  3 active torsions:
  status: ('A' for Active; 'I' for Inactive)
    1  A    between atoms: C_10  and  N_22
    2  A    between atoms: C_20  and  C_24
    3  A    between atoms: C_24  and  C_30
                            x       y       z     vdW  Elec       q    Type
                         _______ _______ _______ _____ _____    ______ ____

>  <TORSDO>
F 3

$$$$
=
 OpenBabel10272415073D

 37 38  0  0  1  0  0  0  0  0999 V2000
  187.7990  173.7330  136.5890 C   0  0  0  0  0  2  0  0  0  0  0  0
  183.7220  180.3470  139.2210 O   0  0  0  0  0  0  0  0  0  0  0  0
  186.7640  173.9160  135.4860 C   0  0  2  0  0  3  0  0  0  0  0  0
  186.3580  178.1060  140.4320 C   0  0  0  0  0  2  0  0  0  0  0  0
  183.9870  177.6960  137.3620 C   0  0  0  0  0  2  0  0  0  0  0  0
  185.7180  179.5390  141.3410 S   0  0  0  0  0  0  0  0  0  0  0  0
  189.7220  176.9320  139.2150 C   0  0  2  0  0  3  0  0  0  0  0  0
  183.8150  175.2180  137.5950 C   0  0  0  0  0  0  0  0  0  0  0  0
  184.8000  175.1010  134.8030 O   0  0  0  0  0  1  0  0  0  0  0  0
  190.2900  177.3320  136.8190 C   0  0  0  0  0  1  0  0  0  0  0  0
  188.2390  177.2810  139.0800 C   0  0  0  0  0  2  0  0  0  0  0  0
  183.9680  178.1260  142.7740 N   0  0  0  0  0  2  0  0  0  0  0  0
  185.6090  174.8280  135.9070 C   0  0  1  0  0  3  0  0  0  0  0  0
  183.1960  178.5220  140.5920 N   0  0  0  0  0  2  0  0  0  0  0  0
  184.1500  178.7190  141.6420 C   0  0  0  0  0  0  0  0  0  0  0  0
  190.3630  176.3030  137.9480 C   0  0  2  0  0  0  0  0  0  0  0  0
  186.2850  172.6700  135.0780 O   0  0  0  0  0  1  0  0  0  0  0  0
  184.7730  174.2160  137.0300 C   0  0  0  0  0  2  0  0  0  0  0  0
  182.4220  178.4420  137.9200 S   0  0  0  0  0  0  0  0  0  0  0  0
  189.6340  175.0340  137.5650 C   0  0  0  0  0  3  0  0  0  0  0  0
  187.8300  178.2860  140.1380 C   0  0  0  0  0  2  0  0  0  0  0  0
  184.3460  176.4780  138.2040 C   0  0  0  0  0  2  0  0  0  0  0  0
  182.4650  174.8100  137.8610 S   0  0  0  0  0  0  0  0  0  0  0  0
  183.1950  179.2090  139.3380 C   0  0  0  0  0  0  0  0  0  0  0  0
  188.4710  175.0260  136.9070 C   0  0  0  0  0  3  0  0  0  0  0  0
  190.5620  176.6830  141.6420 C   0  0  0  0  0  0  0  0  0  0  0  0
  189.9910  176.1640  140.4360 N   0  0  0  0  0  2  0  0  0  0  0  0
  190.9760  177.8700  141.7090 O   0  0  0  0  0  0  0  0  0  0  0  0
  190.7110  175.6200  143.0690 S   0  0  0  0  0  1  0  0  0  0  0  0
  192.5550  177.1410  138.5920 O   0  0  0  0  0  1  0  0  0  0  0  0
  191.8560  175.9790  138.2510 C   0  0  2  0  0  3  0  0  0  0  0  0
  194.9980  173.5440  136.3790 O   0  0  0  0  0  1  0  0  0  0  0  0
  193.1570  173.9410  137.7200 O   0  0  0  0  0  0  0  0  0  0  0  0
  194.4800  174.3110  137.4240 C   0  0  1  0  0  0  0  0  0  0  0  0
  195.3810  174.2920  138.6450 C   0  0  0  0  0  1  0  0  0  0  0  0
  192.6950  175.1760  137.2290 C   0  0  2  0  0  3  0  0  0  0  0  0
  194.0900  175.6930  136.9680 C   0  0  0  0  0  2  0  0  0  0  0  0
  1 25  1  0  0  0  0
  2 24  2  0  0  0  0
  3 17  1  1  0  0  0
  3 13  1  0  0  0  0
  3  1  1  0  0  0  0
  4  6  1  0  0  0  0
  5 19  1  0  0  0  0
  5 22  1  0  0  0  0
  6 15  1  0  0  0  0
  7 27  1  1  0  0  0
  8 23  2  0  0  0  0
  8 22  1  0  0  0  0
 11  7  1  0  0  0  0
 11 21  1  0  0  0  0
 13  9  1  6  0  0  0
 13 18  1  0  0  0  0
 14 15  1  0  0  0  0
 15 12  2  0  0  0  0
 16 10  1  6  0  0  0
 16 31  1  0  0  0  0
 16  7  1  0  0  0  0
 18  8  1  0  0  0  0
 19 24  1  0  0  0  0
 20 16  1  0  0  0  0
 21  4  1  0  0  0  0
 24 14  1  0  0  0  0
 25 20  2  0  0  0  0
 26 28  2  0  0  0  0
 26 29  1  0  0  0  0
 27 26  1  0  0  0  0
 31 30  1  6  0  0  0
 32 34  1  0  0  0  0
 34 33  1  0  0  0  0
 34 35  1  1  0  0  0
 36 33  1  0  0  0  0
 36 31  1  1  0  0  0
 37 36  1  0  0  0  0
 37 34  1  0  0  0  0
M  END
>  <MODEL>
2

>  <REMARK>
 VINA RESULT:      -5.5      2.237      2.834
  Name = 
  3 active torsions:
  status: ('A' for Active; 'I' for Inactive)
    1  A    between atoms: C_10  and  N_22
    2  A    between atoms: C_20  and  C_24
    3  A    between atoms: C_24  and  C_30
                            x       y       z     vdW  Elec       q    Type
                         _______ _______ _______ _____ _____    ______ ____

>  <TORSDO>
F 3

$$$$
=
 OpenBabel10272415073D

 37 38  0  0  1  0  0  0  0  0999 V2000
  185.0480  177.7870  142.7820 C   0  0  0  0  0  2  0  0  0  0  0  0
  191.2310  177.2880  137.4140 O   0  0  0  0  0  0  0  0  0  0  0  0
  186.1680  178.4960  143.5350 C   0  0  2  0  0  3  0  0  0  0  0  0
  187.7960  176.0490  137.7440 C   0  0  0  0  0  2  0  0  0  0  0  0
  190.0680  177.7640  140.4110 C   0  0  0  0  0  2  0  0  0  0  0  0
  188.8830  175.7260  136.3280 S   0  0  0  0  0  0  0  0  0  0  0  0
  184.3860  177.5530  138.2730 C   0  0  2  0  0  3  0  0  0  0  0  0
  189.1690  176.4170  142.3080 C   0  0  0  0  0  0  0  0  0  0  0  0
  188.5030  179.0190  143.5590 O   0  0  0  0  0  1  0  0  0  0  0  0
  184.2730  179.9250  139.0350 C   0  0  0  0  0  1  0  0  0  0  0  0
  185.8840  177.3830  138.5250 C   0  0  0  0  0  2  0  0  0  0  0  0
  189.7370  173.3700  137.2400 N   0  0  0  0  0  2  0  0  0  0  0  0
  187.5500  178.2030  142.9480 C   0  0  1  0  0  3  0  0  0  0  0  0
  190.8120  175.1630  138.3070 N   0  0  0  0  0  2  0  0  0  0  0  0
  189.9300  174.6440  137.3050 C   0  0  0  0  0  0  0  0  0  0  0  0
  183.6670  178.5350  139.2380 C   0  0  2  0  0  0  0  0  0  0  0  0
  186.1210  178.1470  144.8860 O   0  0  0  0  0  1  0  0  0  0  0  0
  187.9410  176.7340  143.1030 C   0  0  0  0  0  2  0  0  0  0  0  0
  191.7390  177.1600  140.0100 S   0  0  0  0  0  0  0  0  0  0  0  0
  183.8360  178.0820  140.6710 C   0  0  0  0  0  3  0  0  0  0  0  0
  186.5690  176.8130  137.3000 C   0  0  0  0  0  2  0  0  0  0  0  0
  189.1540  176.6180  140.8240 C   0  0  0  0  0  2  0  0  0  0  0  0
  190.1940  175.6120  142.9090 S   0  0  0  0  0  0  0  0  0  0  0  0
  191.2220  176.5280  138.4190 C   0  0  0  0  0  0  0  0  0  0  0  0
  184.9480  178.2910  141.3820 C   0  0  0  0  0  3  0  0  0  0  0  0
  183.2980  175.6300  136.9390 C   0  0  0  0  0  0  0  0  0  0  0  0
  183.7040  176.2580  138.1600 N   0  0  0  0  0  2  0  0  0  0  0  0
  183.4260  176.2160  135.8310 O   0  0  0  0  0  0  0  0  0  0  0  0
  182.5800  173.9960  136.9900 S   0  0  0  0  0  1  0  0  0  0  0  0
  181.9790  178.7960  137.5060 O   0  0  0  0  0  1  0  0  0  0  0  0
  182.1540  178.5770  138.8750 C   0  0  2  0  0  3  0  0  0  0  0  0
  179.9820  180.6390  142.0900 O   0  0  0  0  0  1  0  0  0  0  0  0
  181.8010  180.1570  140.7480 O   0  0  0  0  0  0  0  0  0  0  0  0
  180.8200  179.6330  141.6060 C   0  0  1  0  0  0  0  0  0  0  0  0
  181.4090  178.7950  142.7260 C   0  0  0  0  0  1  0  0  0  0  0  0
  181.1980  179.5110  139.6530 C   0  0  2  0  0  3  0  0  0  0  0  0
  180.1630  178.8290  140.5150 C   0  0  0  0  0  2  0  0  0  0  0  0
  1  3  1  0  0  0  0
  2 24  2  0  0  0  0
  3 17  1  1  0  0  0
  5 22  1  0  0  0  0
  6 15  1  0  0  0  0
  6  4  1  0  0  0  0
  7 27  1  1  0  0  0
  7 11  1  0  0  0  0
  7 16  1  0  0  0  0
  8 23  2  0  0  0  0
  8 18  1  0  0  0  0
 12 15  2  0  0  0  0
 13 18  1  0  0  0  0
 13  3  1  0  0  0  0
 13  9  1  1  0  0  0
 14 24  1  0  0  0  0
 15 14  1  0  0  0  0
 16 10  1  6  0  0  0
 16 20  1  0  0  0  0
 19  5  1  0  0  0  0
 20 25  2  0  0  0  0
 21  4  1  0  0  0  0
 21 11  1  0  0  0  0
 22  8  1  0  0  0  0
 24 19  1  0  0  0  0
 25  1  1  0  0  0  0
 26 29  1  0  0  0  0
 26 27  1  0  0  0  0
 28 26  2  0  0  0  0
 31 30  1  6  0  0  0
 31 16  1  0  0  0  0
 33 34  1  0  0  0  0
 34 32  1  0  0  0  0
 34 35  1  1  0  0  0
 36 31  1  1  0  0  0
 36 37  1  0  0  0  0
 36 33  1  0  0  0  0
 37 34  1  0  0  0  0
M  END
>  <MODEL>
3

>  <REMARK>
 VINA RESULT:      -4.7      3.083      9.350
  Name = 
  3 active torsions:
  status: ('A' for Active; 'I' for Inactive)
    1  A    between atoms: C_10  and  N_22
    2  A    between atoms: C_20  and  C_24
    3  A    between atoms: C_24  and  C_30
                            x       y       z     vdW  Elec       q    Type
                         _______ _______ _______ _____ _____    ______ ____

>  <TORSDO>
F 3

$$$$
=
 OpenBabel10272415073D

 37 38  0  0  1  0  0  0  0  0999 V2000
  188.0210  171.8690  136.5280 C   0  0  0  0  0  2  0  0  0  0  0  0
  182.3840  177.8000  135.9420 O   0  0  0  0  0  0  0  0  0  0  0  0
  187.0830  171.2990  135.4700 C   0  0  2  0  0  3  0  0  0  0  0  0
  185.3090  177.0090  138.0060 C   0  0  0  0  0  2  0  0  0  0  0  0
  183.3920  174.7470  135.4720 C   0  0  0  0  0  2  0  0  0  0  0  0
  184.2910  178.5000  138.1790 S   0  0  0  0  0  0  0  0  0  0  0  0
  188.9480  176.2480  137.4150 C   0  0  2  0  0  3  0  0  0  0  0  0
  183.7340  172.6600  136.7960 C   0  0  0  0  0  0  0  0  0  0  0  0
  184.9870  171.5650  134.3460 O   0  0  0  0  0  1  0  0  0  0  0  0
  189.6480  175.6760  135.0890 C   0  0  0  0  0  1  0  0  0  0  0  0
  187.4460  176.1420  137.1520 C   0  0  0  0  0  2  0  0  0  0  0  0
  182.7540  177.4930  140.1110 N   0  0  0  0  0  2  0  0  0  0  0  0
  185.7250  172.0030  135.4470 C   0  0  1  0  0  3  0  0  0  0  0  0
  182.1310  176.6960  137.9930 N   0  0  0  0  0  2  0  0  0  0  0  0
  182.9130  177.5530  138.8320 C   0  0  0  0  0  0  0  0  0  0  0  0
  189.8300  175.2970  136.5600 C   0  0  2  0  0  0  0  0  0  0  0  0
  186.9260  169.9270  135.6710 O   0  0  0  0  0  1  0  0  0  0  0  0
  184.9340  171.7690  136.7330 C   0  0  0  0  0  2  0  0  0  0  0  0
  181.6560  175.2700  135.6500 S   0  0  0  0  0  0  0  0  0  0  0  0
  189.4310  173.8570  136.7950 C   0  0  0  0  0  3  0  0  0  0  0  0
  186.7300  177.3820  137.6480 C   0  0  0  0  0  2  0  0  0  0  0  0
  183.9200  174.1460  136.7680 C   0  0  0  0  0  2  0  0  0  0  0  0
  182.4820  172.1060  137.2310 S   0  0  0  0  0  0  0  0  0  0  0  0
  182.1050  176.7400  136.5640 C   0  0  0  0  0  0  0  0  0  0  0  0
  188.3670  173.2880  136.2230 C   0  0  0  0  0  3  0  0  0  0  0  0
  189.6220  177.2900  139.6780 C   0  0  0  0  0  0  0  0  0  0  0  0
  189.2550  176.1820  138.8480 N   0  0  0  0  0  2  0  0  0  0  0  0
  189.8010  178.4370  139.1900 O   0  0  0  0  0  0  0  0  0  0  0  0
  189.8490  177.0360  141.4300 S   0  0  0  0  0  1  0  0  0  0  0  0
  191.7080  176.8300  136.7690 O   0  0  0  0  0  1  0  0  0  0  0  0
  191.3210  175.5010  136.9610 C   0  0  2  0  0  3  0  0  0  0  0  0
  195.0080  173.1780  136.4000 O   0  0  0  0  0  1  0  0  0  0  0  0
  192.9320  173.6520  137.3010 O   0  0  0  0  0  0  0  0  0  0  0  0
  194.2310  174.1320  137.0600 C   0  0  1  0  0  0  0  0  0  0  0  0
  194.9080  174.6480  138.3160 C   0  0  0  0  0  1  0  0  0  0  0  0
  192.4120  174.5750  136.3750 C   0  0  2  0  0  3  0  0  0  0  0  0
  193.7570  175.2150  136.1260 C   0  0  0  0  0  2  0  0  0  0  0  0
  2 24  2  0  0  0  0
  3 17  1  1  0  0  0
  3  1  1  0  0  0  0
  4  6  1  0  0  0  0
  5 19  1  0  0  0  0
  5 22  1  0  0  0  0
  6 15  1  0  0  0  0
  7 27  1  1  0  0  0
  8 23  2  0  0  0  0
 11  7  1  0  0  0  0
 11 21  1  0  0  0  0
 13  9  1  6  0  0  0
 13  3  1  0  0  0  0
 13 18  1  0  0  0  0
 14 15  1  0  0  0  0
 15 12  2  0  0  0  0
 16 10  1  6  0  0  0
 16 20  1  0  0  0  0
 16 31  1  0  0  0  0
 16  7  1  0  0  0  0
 18  8  1  0  0  0  0
 19 24  1  0  0  0  0
 21  4  1  0  0  0  0
 22  8  1  0  0  0  0
 24 14  1  0  0  0  0
 25  1  1  0  0  0  0
 25 20  2  0  0  0  0
 26 29  1  0  0  0  0
 27 26  1  0  0  0  0
 28 26  2  0  0  0  0
 31 30  1  6  0  0  0
 32 34  1  0  0  0  0
 34 33  1  0  0  0  0
 34 35  1  1  0  0  0
 36 31  1  1  0  0  0
 36 33  1  0  0  0  0
 37 36  1  0  0  0  0
 37 34  1  0  0  0  0
M  END
>  <MODEL>
4

>  <REMARK>
 VINA RESULT:      -4.7      1.622      2.056
  Name = 
  3 active torsions:
  status: ('A' for Active; 'I' for Inactive)
    1  A    between atoms: C_10  and  N_22
    2  A    between atoms: C_20  and  C_24
    3  A    between atoms: C_24  and  C_30
                            x       y       z     vdW  Elec       q    Type
                         _______ _______ _______ _____ _____    ______ ____

>  <TORSDO>
F 3

$$$$
=
 OpenBabel10272415073D

 37 38  0  0  1  0  0  0  0  0999 V2000
  187.9520  173.9670  136.9980 C   0  0  0  0  0  2  0  0  0  0  0  0
  180.0380  175.5690  135.5500 O   0  0  0  0  0  0  0  0  0  0  0  0
  187.6720  173.0730  135.7960 C   0  0  2  0  0  3  0  0  0  0  0  0
  182.5770  176.4060  138.0580 C   0  0  0  0  0  2  0  0  0  0  0  0
  182.6960  173.7290  135.2240 C   0  0  0  0  0  2  0  0  0  0  0  0
  180.8660  177.0060  138.0750 S   0  0  0  0  0  0  0  0  0  0  0  0
  186.0080  177.9560  138.0650 C   0  0  2  0  0  3  0  0  0  0  0  0
  184.0260  172.1010  136.5670 C   0  0  0  0  0  0  0  0  0  0  0  0
  185.9840  172.1920  134.3460 O   0  0  0  0  0  1  0  0  0  0  0  0
  187.2000  178.1380  135.8800 C   0  0  0  0  0  1  0  0  0  0  0  0
  184.9030  177.0290  137.5580 C   0  0  0  0  0  2  0  0  0  0  0  0
  179.9820  175.1020  139.7200 N   0  0  0  0  0  2  0  0  0  0  0  0
  186.1760  172.8600  135.5570 C   0  0  1  0  0  3  0  0  0  0  0  0
  180.2220  174.3160  137.5210 N   0  0  0  0  0  2  0  0  0  0  0  0
  180.2370  175.3760  138.4850 C   0  0  0  0  0  0  0  0  0  0  0  0
  187.3810  177.7840  137.3580 C   0  0  2  0  0  0  0  0  0  0  0  0
  188.3260  171.8510  135.9560 O   0  0  0  0  0  1  0  0  0  0  0  0
  185.5170  172.0800  136.6940 C   0  0  0  0  0  2  0  0  0  0  0  0
  180.9790  173.1310  135.1190 S   0  0  0  0  0  0  0  0  0  0  0  0
  187.8760  176.3630  137.5110 C   0  0  0  0  0  3  0  0  0  0  0  0
  183.5390  177.5670  137.9410 C   0  0  0  0  0  2  0  0  0  0  0  0
  183.3060  173.4140  136.5830 C   0  0  0  0  0  2  0  0  0  0  0  0
  183.2960  170.8840  136.7860 S   0  0  0  0  0  0  0  0  0  0  0  0
  180.3570  174.4850  136.1080 C   0  0  0  0  0  0  0  0  0  0  0  0
  187.4340  175.3470  136.7670 C   0  0  0  0  0  3  0  0  0  0  0  0
  185.5090  178.8730  140.4250 C   0  0  0  0  0  0  0  0  0  0  0  0
  186.1090  177.9310  139.5280 N   0  0  0  0  0  2  0  0  0  0  0  0
  184.8980  179.8850  139.9920 O   0  0  0  0  0  0  0  0  0  0  0  0
  185.6470  178.6170  142.1860 S   0  0  0  0  0  1  0  0  0  0  0  0
  189.3160  179.2260  137.0460 O   0  0  0  0  0  1  0  0  0  0  0  0
  188.4010  178.7690  138.0000 C   0  0  2  0  0  3  0  0  0  0  0  0
  191.2320  176.8680  140.7700 O   0  0  0  0  0  1  0  0  0  0  0  0
  190.5720  178.3300  139.1050 O   0  0  0  0  0  0  0  0  0  0  0  0
  190.6030  176.9910  139.5300 C   0  0  1  0  0  0  0  0  0  0  0  0
  191.2040  176.0610  138.4920 C   0  0  0  0  0  1  0  0  0  0  0  0
  189.1750  178.3580  139.2740 C   0  0  2  0  0  3  0  0  0  0  0  0
  189.1040  176.8960  139.6480 C   0  0  0  0  0  2  0  0  0  0  0  0
  2 24  2  0  0  0  0
  3 17  1  1  0  0  0
  3  1  1  0  0  0  0
  4  6  1  0  0  0  0
  5 22  1  0  0  0  0
  6 15  1  0  0  0  0
  7 27  1  1  0  0  0
  8 22  1  0  0  0  0
  8 18  1  0  0  0  0
  8 23  2  0  0  0  0
 11 21  1  0  0  0  0
 11  7  1  0  0  0  0
 13  9  1  6  0  0  0
 13  3  1  0  0  0  0
 13 18  1  0  0  0  0
 14 15  1  0  0  0  0
 15 12  2  0  0  0  0
 16 10  1  6  0  0  0
 16 20  1  0  0  0  0
 16 31  1  0  0  0  0
 16  7  1  0  0  0  0
 19  5  1  0  0  0  0
 19 24  1  0  0  0  0
 21  4  1  0  0  0  0
 24 14  1  0  0  0  0
 25  1  1  0  0  0  0
 25 20  2  0  0  0  0
 26 29  1  0  0  0  0
 27 26  1  0  0  0  0
 28 26  2  0  0  0  0
 31 30  1  6  0  0  0
 33 36  1  0  0  0  0
 33 34  1  0  0  0  0
 34 35  1  6  0  0  0
 34 37  1  0  0  0  0
 34 32  1  0  0  0  0
 36 31  1  6  0  0  0
 36 37  1  0  0  0  0
M  END
>  <MODEL>
5

>  <REMARK>
 VINA RESULT:      -4.5      2.378      3.236
  Name = 
  3 active torsions:
  status: ('A' for Active; 'I' for Inactive)
    1  A    between atoms: C_10  and  N_22
    2  A    between atoms: C_20  and  C_24
    3  A    between atoms: C_24  and  C_30
                            x       y       z     vdW  Elec       q    Type
                         _______ _______ _______ _____ _____    ______ ____

>  <TORSDO>
F 3

$$$$
=
 OpenBabel10272415073D

 37 38  0  0  1  0  0  0  0  0999 V2000
  184.9080  177.7050  142.9030 C   0  0  0  0  0  2  0  0  0  0  0  0
  191.0980  177.4790  137.5250 O   0  0  0  0  0  0  0  0  0  0  0  0
  186.0130  178.4140  143.6760 C   0  0  2  0  0  3  0  0  0  0  0  0
  187.6890  176.1640  137.8180 C   0  0  0  0  0  2  0  0  0  0  0  0
  189.9270  177.8480  140.5330 C   0  0  0  0  0  2  0  0  0  0  0  0
  188.7820  175.9030  136.3950 S   0  0  0  0  0  0  0  0  0  0  0  0
  184.2490  177.5840  138.3880 C   0  0  2  0  0  3  0  0  0  0  0  0
  189.0550  176.4310  142.3920 C   0  0  0  0  0  0  0  0  0  0  0  0
  188.3380  178.9820  143.7150 O   0  0  0  0  0  1  0  0  0  0  0  0
  184.0890  179.9320  139.2170 C   0  0  0  0  0  1  0  0  0  0  0  0
  185.7510  177.4370  138.6360 C   0  0  0  0  0  2  0  0  0  0  0  0
  189.6820  173.5390  137.2400 N   0  0  0  0  0  2  0  0  0  0  0  0
  187.4010  178.1650  143.0810 C   0  0  1  0  0  3  0  0  0  0  0  0
  190.7220  175.3220  138.3580 N   0  0  0  0  0  2  0  0  0  0  0  0
  189.8500  174.8140  137.3410 C   0  0  0  0  0  0  0  0  0  0  0  0
  183.5120  178.5250  139.3810 C   0  0  2  0  0  0  0  0  0  0  0  0
  185.9730  178.0270  145.0160 O   0  0  0  0  0  1  0  0  0  0  0  0
  187.8210  176.7010  143.1950 C   0  0  0  0  0  2  0  0  0  0  0  0
  191.6100  177.2880  140.1160 S   0  0  0  0  0  0  0  0  0  0  0  0
  183.6900  178.0340  140.8000 C   0  0  0  0  0  3  0  0  0  0  0  0
  186.4470  176.9150  137.3960 C   0  0  0  0  0  2  0  0  0  0  0  0
  189.0360  176.6720  140.9140 C   0  0  0  0  0  2  0  0  0  0  0  0
  190.0960  175.6290  142.9710 S   0  0  0  0  0  0  0  0  0  0  0  0
  191.1050  176.6920  138.5080 C   0  0  0  0  0  0  0  0  0  0  0  0
  184.7970  178.2450  141.5170 C   0  0  0  0  0  3  0  0  0  0  0  0
  183.2430  175.6570  136.9980 C   0  0  0  0  0  0  0  0  0  0  0  0
  183.5930  176.2800  138.2380 N   0  0  0  0  0  2  0  0  0  0  0  0
  183.4020  176.2550  135.9010 O   0  0  0  0  0  0  0  0  0  0  0  0
  182.5500  174.0120  137.0080 S   0  0  0  0  0  1  0  0  0  0  0  0
  181.3320  177.4660  139.6050 O   0  0  0  0  0  1  0  0  0  0  0  0
  181.9980  178.5460  139.0180 C   0  0  2  0  0  3  0  0  0  0  0  0
  180.3540  180.0130  135.2170 O   0  0  0  0  0  1  0  0  0  0  0  0
  181.8930  179.8820  136.9370 O   0  0  0  0  0  0  0  0  0  0  0  0
  180.5450  180.0900  136.5980 C   0  0  1  0  0  0  0  0  0  0  0  0
  179.9860  181.3750  137.1800 C   0  0  0  0  0  1  0  0  0  0  0  0
  181.5590  178.6550  137.5390 C   0  0  2  0  0  3  0  0  0  0  0  0
  180.0800  178.8420  137.3010 C   0  0  0  0  0  2  0  0  0  0  0  0
  1  3  1  0  0  0  0
  2 24  2  0  0  0  0
  3 17  1  1  0  0  0
  5 22  1  0  0  0  0
  6 15  1  0  0  0  0
  6  4  1  0  0  0  0
  7 27  1  1  0  0  0
  7 11  1  0  0  0  0
  7 16  1  0  0  0  0
  8 23  2  0  0  0  0
  8 18  1  0  0  0  0
 12 15  2  0  0  0  0
 13 18  1  0  0  0  0
 13  3  1  0  0  0  0
 13  9  1  1  0  0  0
 14 24  1  0  0  0  0
 15 14  1  0  0  0  0
 16 10  1  6  0  0  0
 16 20  1  0  0  0  0
 19  5  1  0  0  0  0
 20 25  2  0  0  0  0
 21  4  1  0  0  0  0
 21 11  1  0  0  0  0
 22  8  1  0  0  0  0
 24 19  1  0  0  0  0
 25  1  1  0  0  0  0
 26 29  1  0  0  0  0
 26 27  1  0  0  0  0
 28 26  2  0  0  0  0
 31 16  1  0  0  0  0
 31 30  1  6  0  0  0
 32 34  1  0  0  0  0
 33 36  1  0  0  0  0
 34 33  1  0  0  0  0
 34 35  1  1  0  0  0
 34 37  1  0  0  0  0
 36 31  1  1  0  0  0
 37 36  1  0  0  0  0
M  END
>  <MODEL>
6

>  <REMARK>
 VINA RESULT:      -4.2      2.980      9.298
  Name = 
  3 active torsions:
  status: ('A' for Active; 'I' for Inactive)
    1  A    between atoms: C_10  and  N_22
    2  A    between atoms: C_20  and  C_24
    3  A    between atoms: C_24  and  C_30
                            x       y       z     vdW  Elec       q    Type
                         _______ _______ _______ _____ _____    ______ ____

>  <TORSDO>
F 3

$$$$
=
 OpenBabel10272415073D

 37 38  0  0  1  0  0  0  0  0999 V2000
  186.7860  173.9900  137.3010 C   0  0  0  0  0  2  0  0  0  0  0  0
  180.6870  179.3520  136.1410 O   0  0  0  0  0  0  0  0  0  0  0  0
  186.2080  173.5170  135.9730 C   0  0  2  0  0  3  0  0  0  0  0  0
  183.1270  178.5160  138.7460 C   0  0  0  0  0  2  0  0  0  0  0  0
  182.1840  176.5360  135.5210 C   0  0  0  0  0  2  0  0  0  0  0  0
  181.9030  179.8500  138.8620 S   0  0  0  0  0  0  0  0  0  0  0  0
  186.8720  178.2270  138.9940 C   0  0  2  0  0  3  0  0  0  0  0  0
  182.4880  174.3000  136.5850 C   0  0  0  0  0  0  0  0  0  0  0  0
  184.4180  173.7610  134.4030 O   0  0  0  0  0  1  0  0  0  0  0  0
  188.1690  178.1260  136.8640 C   0  0  0  0  0  1  0  0  0  0  0  0
  185.5020  178.0200  138.3480 C   0  0  0  0  0  2  0  0  0  0  0  0
  180.1080  178.3850  140.1840 N   0  0  0  0  0  2  0  0  0  0  0  0
  184.8100  174.0780  135.7050 C   0  0  1  0  0  3  0  0  0  0  0  0
  180.1140  177.8990  137.8870 N   0  0  0  0  0  2  0  0  0  0  0  0
  180.5530  178.6760  139.0080 C   0  0  0  0  0  0  0  0  0  0  0  0
  188.0510  177.5240  138.2660 C   0  0  2  0  0  0  0  0  0  0  0  0
  186.1970  172.1220  135.9340 O   0  0  0  0  0  1  0  0  0  0  0  0
  183.7800  173.5550  136.7040 C   0  0  0  0  0  2  0  0  0  0  0  0
  180.4000  176.8490  135.3260 S   0  0  0  0  0  0  0  0  0  0  0  0
  187.8080  176.0340  138.1900 C   0  0  0  0  0  3  0  0  0  0  0  0
  184.5270  179.0820  138.8140 C   0  0  0  0  0  2  0  0  0  0  0  0
  182.4710  175.7800  136.8120 C   0  0  0  0  0  2  0  0  0  0  0  0
  181.2570  173.5610  136.6080 S   0  0  0  0  0  0  0  0  0  0  0  0
  180.4170  178.1810  136.5180 C   0  0  0  0  0  0  0  0  0  0  0  0
  186.9960  175.4670  137.2940 C   0  0  0  0  0  3  0  0  0  0  0  0
  186.1960  178.7570  141.4270 C   0  0  0  0  0  0  0  0  0  0  0  0
  186.8410  177.9510  140.4350 N   0  0  0  0  0  2  0  0  0  0  0  0
  185.6620  179.8570  141.1270 O   0  0  0  0  0  0  0  0  0  0  0  0
  186.1670  178.2010  143.1230 S   0  0  0  0  0  1  0  0  0  0  0  0
  190.4250  178.0540  138.1800 O   0  0  0  0  0  1  0  0  0  0  0  0
  189.3640  177.8030  139.0550 C   0  0  2  0  0  3  0  0  0  0  0  0
  190.5290  176.0020  142.8900 O   0  0  0  0  0  1  0  0  0  0  0  0
  189.0570  176.8250  141.3080 O   0  0  0  0  0  0  0  0  0  0  0  0
  190.2020  177.0910  142.0790 C   0  0  1  0  0  0  0  0  0  0  0  0
  190.0870  178.3790  142.8730 C   0  0  0  0  0  1  0  0  0  0  0  0
  189.8400  176.8080  140.1390 C   0  0  2  0  0  3  0  0  0  0  0  0
  191.1030  177.1870  140.8750 C   0  0  0  0  0  2  0  0  0  0  0  0
  2 24  2  0  0  0  0
  3 17  1  1  0  0  0
  3  1  1  0  0  0  0
  4 21  1  0  0  0  0
  4  6  1  0  0  0  0
  5 22  1  0  0  0  0
  6 15  1  0  0  0  0
  7 27  1  1  0  0  0
  8 23  2  0  0  0  0
  8 18  1  0  0  0  0
  8 22  1  0  0  0  0
 11 21  1  0  0  0  0
 11  7  1  0  0  0  0
 13  9  1  6  0  0  0
 13  3  1  0  0  0  0
 13 18  1  0  0  0  0
 14 15  1  0  0  0  0
 15 12  2  0  0  0  0
 16 10  1  6  0  0  0
 16  7  1  0  0  0  0
 16 31  1  0  0  0  0
 19  5  1  0  0  0  0
 19 24  1  0  0  0  0
 20 16  1  0  0  0  0
 24 14  1  0  0  0  0
 25  1  1  0  0  0  0
 25 20  2  0  0  0  0
 26 29  1  0  0  0  0
 27 26  1  0  0  0  0
 28 26  2  0  0  0  0
 31 30  1  6  0  0  0
 33 34  1  0  0  0  0
 34 35  1  1  0  0  0
 34 32  1  0  0  0  0
 36 31  1  6  0  0  0
 36 37  1  0  0  0  0
 36 33  1  0  0  0  0
 37 34  1  0  0  0  0
M  END
>  <MODEL>
7

>  <REMARK>
 VINA RESULT:      -4.1      2.264      2.880
  Name = 
  3 active torsions:
  status: ('A' for Active; 'I' for Inactive)
    1  A    between atoms: C_10  and  N_22
    2  A    between atoms: C_20  and  C_24
    3  A    between atoms: C_24  and  C_30
                            x       y       z     vdW  Elec       q    Type
                         _______ _______ _______ _____ _____    ______ ____

>  <TORSDO>
F 3

$$$$
=
 OpenBabel10272415073D

 37 38  0  0  1  0  0  0  0  0999 V2000
  188.3700  174.7500  137.5190 C   0  0  0  0  0  2  0  0  0  0  0  0
  181.7370  179.5500  137.0100 O   0  0  0  0  0  0  0  0  0  0  0  0
  188.0270  174.6460  136.0380 C   0  0  2  0  0  3  0  0  0  0  0  0
  183.9500  178.2200  139.6130 C   0  0  0  0  0  2  0  0  0  0  0  0
  183.6890  177.2260  135.8500 C   0  0  0  0  0  2  0  0  0  0  0  0
  182.5410  179.3210  139.9140 S   0  0  0  0  0  0  0  0  0  0  0  0
  187.6420  178.2590  140.3450 C   0  0  2  0  0  3  0  0  0  0  0  0
  184.1860  174.8160  136.2640 C   0  0  0  0  0  0  0  0  0  0  0  0
  186.4160  175.1680  134.3460 O   0  0  0  0  0  1  0  0  0  0  0  0
  189.1800  178.9430  138.5040 C   0  0  0  0  0  1  0  0  0  0  0  0
  186.4020  178.1160  139.4630 C   0  0  0  0  0  2  0  0  0  0  0  0
  180.8340  177.3470  140.4660 N   0  0  0  0  0  2  0  0  0  0  0  0
  186.6030  175.1130  135.7280 C   0  0  1  0  0  3  0  0  0  0  0  0
  181.1800  177.5850  138.1560 N   0  0  0  0  0  2  0  0  0  0  0  0
  181.3670  178.0250  139.5060 C   0  0  0  0  0  0  0  0  0  0  0  0
  188.9880  177.9360  139.6390 C   0  0  2  0  0  0  0  0  0  0  0  0
  188.2230  173.3340  135.6010 O   0  0  0  0  0  1  0  0  0  0  0  0
  185.5500  174.2080  136.3630 C   0  0  0  0  0  2  0  0  0  0  0  0
  181.9140  177.3970  135.4780 S   0  0  0  0  0  0  0  0  0  0  0  0
  188.9740  176.5210  139.1030 C   0  0  0  0  0  3  0  0  0  0  0  0
  185.2360  178.8800  140.0560 C   0  0  0  0  0  2  0  0  0  0  0  0
  183.9290  176.1480  136.8990 C   0  0  0  0  0  2  0  0  0  0  0  0
  183.0820  173.9820  135.8830 S   0  0  0  0  0  0  0  0  0  0  0  0
  181.5970  178.2980  136.9900 C   0  0  0  0  0  0  0  0  0  0  0  0
  188.3630  176.1720  137.9680 C   0  0  0  0  0  3  0  0  0  0  0  0
  186.7570  178.0400  142.7590 C   0  0  0  0  0  0  0  0  0  0  0  0
  187.4820  177.5560  141.6240 N   0  0  0  0  0  2  0  0  0  0  0  0
  186.2580  179.1960  142.7690 O   0  0  0  0  0  0  0  0  0  0  0  0
  186.5760  176.9940  144.1940 S   0  0  0  0  0  1  0  0  0  0  0  0
  191.3680  177.7250  140.1010 O   0  0  0  0  0  1  0  0  0  0  0  0
  190.1450  178.0960  140.6680 C   0  0  2  0  0  3  0  0  0  0  0  0
  190.6030  177.2230  144.9500 O   0  0  0  0  0  1  0  0  0  0  0  0
  189.8120  178.3710  143.1060 O   0  0  0  0  0  0  0  0  0  0  0  0
  190.9510  177.8950  143.7770 C   0  0  1  0  0  0  0  0  0  0  0  0
  191.9800  178.9820  144.0260 C   0  0  0  0  0  1  0  0  0  0  0  0
  190.0290  177.4470  142.0670 C   0  0  2  0  0  3  0  0  0  0  0  0
  191.3180  176.9410  142.6700 C   0  0  0  0  0  2  0  0  0  0  0  0
  1 25  1  0  0  0  0
  3 17  1  1  0  0  0
  3  1  1  0  0  0  0
  4  6  1  0  0  0  0
  4 21  1  0  0  0  0
  5 22  1  0  0  0  0
  7 27  1  1  0  0  0
  8 18  1  0  0  0  0
  8 22  1  0  0  0  0
 11 21  1  0  0  0  0
 11  7  1  0  0  0  0
 13  9  1  6  0  0  0
 13  3  1  0  0  0  0
 13 18  1  0  0  0  0
 14 15  1  0  0  0  0
 15  6  1  0  0  0  0
 15 12  2  0  0  0  0
 16 10  1  6  0  0  0
 16  7  1  0  0  0  0
 16 31  1  0  0  0  0
 19  5  1  0  0  0  0
 19 24  1  0  0  0  0
 20 16  1  0  0  0  0
 23  8  2  0  0  0  0
 24  2  2  0  0  0  0
 24 14  1  0  0  0  0
 25 20  2  0  0  0  0
 26 28  2  0  0  0  0
 26 29  1  0  0  0  0
 27 26  1  0  0  0  0
 31 30  1  6  0  0  0
 33 34  1  0  0  0  0
 34 35  1  1  0  0  0
 34 32  1  0  0  0  0
 36 31  1  6  0  0  0
 36 37  1  0  0  0  0
 36 33  1  0  0  0  0
 37 34  1  0  0  0  0
M  END
>  <MODEL>
8

>  <REMARK>
 VINA RESULT:      -3.3      2.918      4.045
  Name = 
  3 active torsions:
  status: ('A' for Active; 'I' for Inactive)
    1  A    between atoms: C_10  and  N_22
    2  A    between atoms: C_20  and  C_24
    3  A    between atoms: C_24  and  C_30
                            x       y       z     vdW  Elec       q    Type
                         _______ _______ _______ _____ _____    ______ ____

>  <TORSDO>
F 3

$$$$
