=
 OpenBabel10262423583D

 34 38  0  0  1  0  0  0  0  0999 V2000
  189.8390  177.2580  147.1700 C   0  0  0  0  0  0  0  0  0  0  0  0
  190.1900  176.5550  144.8590 C   0  0  0  0  0  0  0  0  0  0  0  0
  188.0710  177.5570  145.5280 C   0  0  0  0  0  0  0  0  0  0  0  0
  186.6770  178.2560  143.5910 N   0  0  0  0  0  0  0  0  0  0  0  0
  191.9340  176.2330  146.5110 C   0  0  0  0  0  3  0  0  0  0  0  0
  191.4750  176.1200  145.1930 C   0  0  0  0  0  3  0  0  0  0  0  0
  188.5490  176.9250  143.1740 C   0  0  0  0  0  0  0  0  0  0  0  0
  189.3650  177.1150  145.8530 C   0  0  0  0  0  0  0  0  0  0  0  0
  186.8040  178.0740  142.1370 C   0  0  0  0  0  2  0  0  0  0  0  0
  191.1210  176.8070  147.4960 C   0  0  0  0  0  3  0  0  0  0  0  0
  187.7390  178.2810  147.7720 C   0  0  0  0  0  3  0  0  0  0  0  0
  189.0220  177.8540  148.1330 C   0  0  0  0  0  3  0  0  0  0  0  0
  189.7660  176.5880  143.4870 N   0  0  0  0  0  0  0  0  0  0  0  0
  188.1210  177.3560  141.8290 C   0  0  1  0  0  3  0  0  0  0  0  0
  187.4950  177.2040  144.1770 C   0  0  1  0  0  3  0  0  0  0  0  0
  187.2900  178.1110  146.4960 N   0  0  0  0  0  0  0  0  0  0  0  0
  189.0950  178.3690  141.2310 C   0  0  0  0  0  2  0  0  0  0  0  0
  189.4390  178.0000  139.7960 C   0  0  0  0  0  2  0  0  0  0  0  0
  188.9910  179.0410  138.8900 N   0  0  0  0  0  2  0  0  0  0  0  0
  188.5050  178.3760  137.6940 C   0  0  0  0  0  2  0  0  0  0  0  0
  187.2980  177.5070  138.0310 C   0  0  0  0  0  2  0  0  0  0  0  0
  185.9680  178.2120  137.7680 C   0  0  2  0  0  3  0  0  0  0  0  0
  185.5620  178.9410  138.8900 O   0  0  0  0  0  1  0  0  0  0  0  0
  185.6810  176.1600  136.9860 C   0  0  0  0  0  1  0  0  0  0  0  0
  184.9790  177.2860  137.4190 O   0  0  0  0  0  0  0  0  0  0  0  0
  185.2960  177.9610  143.9300 C   0  0  0  0  0  2  0  0  0  0  0  0
  184.4640  179.2260  143.8340 C   0  0  0  0  0  2  0  0  0  0  0  0
  180.0860  178.7180  142.6570 C   0  0  0  0  0  3  0  0  0  0  0  0
  180.6830  178.5320  143.8340 C   0  0  0  0  0  3  0  0  0  0  0  0
  183.1170  178.9020  143.2890 C   0  0  0  0  0  0  0  0  0  0  0  0
  182.0860  178.8730  144.1470 C   0  0  0  0  0  3  0  0  0  0  0  0
  181.9800  178.6780  141.0720 C   0  0  0  0  0  3  0  0  0  0  0  0
  183.0370  178.5040  141.8660 C   0  0  0  0  0  3  0  0  0  0  0  0
  180.7450  179.3980  141.5030 C   0  0  0  0  0  2  0  0  0  0  0  0
  1 10  1  0  0  0  0
  1 12  1  0  0  0  0
  2  6  2  0  0  0  0
  2  8  1  0  0  0  0
  3  8  1  0  0  0  0
  3 16  2  0  0  0  0
  4 26  1  0  0  0  0
  4 15  1  0  0  0  0
  5 10  2  0  0  0  0
  6  5  1  0  0  0  0
  7 13  2  0  0  0  0
  8  1  2  0  0  0  0
  9  4  1  0  0  0  0
 11 12  2  0  0  0  0
 13  2  1  0  0  0  0
 14 17  1  1  0  0  0
 14  9  1  0  0  0  0
 14  7  1  0  0  0  0
 15  7  1  6  0  0  0
 15  3  1  0  0  0  0
 16 11  1  0  0  0  0
 18 17  1  0  0  0  0
 19 18  1  0  0  0  0
 20 21  1  0  0  0  0
 20 19  1  0  0  0  0
 22 21  1  0  0  0  0
 22 23  1  1  0  0  0
 24 25  1  0  0  0  0
 25 22  1  0  0  0  0
 27 26  1  0  0  0  0
 28 29  2  0  0  0  0
 29 31  1  0  0  0  0
 30 27  1  0  0  0  0
 30 31  2  0  0  0  0
 32 34  1  0  0  0  0
 32 33  2  0  0  0  0
 33 30  1  0  0  0  0
 34 28  1  0  0  0  0
M  END
>  <MODEL>
1

>  <REMARK>
 VINA RESULT:      -8.7      0.000      0.000
  Name = 
  10 active torsions:
  status: ('A' for Active; 'I' for Inactive)
    1  A    between atoms: C_3  and  N_13
    2  A    between atoms: C_3  and  C_17
    3  A    between atoms: N_5  and  C_26
    4  A    between atoms: C_12  and  C_28
    5  A    between atoms: N_13  and  C_33
    6  A    between atoms: O_14  and  C_20
    7  A    between atoms: C_17  and  C_29
    8  A    between atoms: C_20  and  C_34
    9  A    between atoms: C_26  and  C_28
   10  A    between atoms: C_33  and  C_34
                            x       y       z     vdW  Elec       q    Type
                         _______ _______ _______ _____ _____    ______ ____

>  <TORSDO>
F 10

$$$$
=
 OpenBabel10262423583D

 34 38  0  0  1  0  0  0  0  0999 V2000
  189.7520  177.2940  147.1920 C   0  0  0  0  0  0  0  0  0  0  0  0
  190.5110  176.4220  145.0420 C   0  0  0  0  0  0  0  0  0  0  0  0
  188.3220  177.4740  145.2350 C   0  0  0  0  0  0  0  0  0  0  0  0
  187.3190  178.0310  143.0280 N   0  0  0  0  0  0  0  0  0  0  0  0
  191.9170  176.2200  147.0070 C   0  0  0  0  0  3  0  0  0  0  0  0
  191.7070  176.0100  145.6380 C   0  0  0  0  0  3  0  0  0  0  0  0
  189.2150  176.6690  143.0610 C   0  0  0  0  0  0  0  0  0  0  0  0
  189.5270  177.0550  145.8230 C   0  0  0  0  0  0  0  0  0  0  0  0
  187.7080  177.7410  141.6390 C   0  0  0  0  0  2  0  0  0  0  0  0
  190.9450  176.8660  147.7810 C   0  0  0  0  0  3  0  0  0  0  0  0
  187.5940  178.3630  147.3200 C   0  0  0  0  0  3  0  0  0  0  0  0
  188.7810  177.9610  147.9420 C   0  0  0  0  0  3  0  0  0  0  0  0
  190.3480  176.3540  143.6170 N   0  0  0  0  0  0  0  0  0  0  0  0
  189.0480  177.0000  141.6320 C   0  0  1  0  0  3  0  0  0  0  0  0
  187.9990  177.0230  143.8300 C   0  0  1  0  0  3  0  0  0  0  0  0
  187.3840  178.1000  145.9990 N   0  0  0  0  0  0  0  0  0  0  0  0
  190.1300  177.9640  141.1530 C   0  0  0  0  0  2  0  0  0  0  0  0
  191.1100  177.2560  140.2290 C   0  0  0  0  0  2  0  0  0  0  0  0
  190.4100  176.2860  139.4070 N   0  0  0  0  0  2  0  0  0  0  0  0
  190.1270  176.9370  138.1400 C   0  0  0  0  0  2  0  0  0  0  0  0
  188.6250  176.9390  137.8760 C   0  0  0  0  0  2  0  0  0  0  0  0
  188.0690  178.3410  137.6270 C   0  0  2  0  0  3  0  0  0  0  0  0
  188.9890  179.3180  138.0190 O   0  0  0  0  0  1  0  0  0  0  0  0
  185.9320  177.7550  137.6070 C   0  0  0  0  0  1  0  0  0  0  0  0
  186.8620  178.5230  138.3110 O   0  0  0  0  0  0  0  0  0  0  0  0
  185.8940  177.7630  143.1270 C   0  0  0  0  0  2  0  0  0  0  0  0
  185.1260  179.0720  143.1070 C   0  0  0  0  0  2  0  0  0  0  0  0
  180.5770  178.7890  142.9190 C   0  0  0  0  0  3  0  0  0  0  0  0
  181.4000  178.6650  143.9600 C   0  0  0  0  0  3  0  0  0  0  0  0
  183.6780  178.8020  142.8890 C   0  0  0  0  0  0  0  0  0  0  0  0
  182.8540  178.9270  143.9390 C   0  0  0  0  0  3  0  0  0  0  0  0
  182.0850  178.4650  140.9900 C   0  0  0  0  0  3  0  0  0  0  0  0
  183.2760  178.2850  141.5620 C   0  0  0  0  0  3  0  0  0  0  0  0
  181.0110  179.3110  141.5900 C   0  0  0  0  0  2  0  0  0  0  0  0
  1 10  1  0  0  0  0
  1 12  1  0  0  0  0
  2  6  2  0  0  0  0
  2  8  1  0  0  0  0
  3  8  1  0  0  0  0
  3 16  2  0  0  0  0
  4 26  1  0  0  0  0
  4 15  1  0  0  0  0
  5 10  2  0  0  0  0
  6  5  1  0  0  0  0
  7 13  2  0  0  0  0
  8  1  2  0  0  0  0
  9  4  1  0  0  0  0
 11 12  2  0  0  0  0
 13  2  1  0  0  0  0
 14 17  1  1  0  0  0
 14  9  1  0  0  0  0
 14  7  1  0  0  0  0
 15  7  1  6  0  0  0
 15  3  1  0  0  0  0
 16 11  1  0  0  0  0
 18 17  1  0  0  0  0
 19 18  1  0  0  0  0
 20 19  1  0  0  0  0
 21 20  1  0  0  0  0
 22 21  1  0  0  0  0
 22 23  1  1  0  0  0
 22 25  1  0  0  0  0
 24 25  1  0  0  0  0
 27 26  1  0  0  0  0
 28 29  2  0  0  0  0
 30 27  1  0  0  0  0
 30 31  2  0  0  0  0
 31 29  1  0  0  0  0
 32 33  2  0  0  0  0
 32 34  1  0  0  0  0
 33 30  1  0  0  0  0
 34 28  1  0  0  0  0
M  END
>  <MODEL>
2

>  <REMARK>
 VINA RESULT:      -8.6      1.159      1.305
  Name = 
  10 active torsions:
  status: ('A' for Active; 'I' for Inactive)
    1  A    between atoms: C_3  and  N_13
    2  A    between atoms: C_3  and  C_17
    3  A    between atoms: N_5  and  C_26
    4  A    between atoms: C_12  and  C_28
    5  A    between atoms: N_13  and  C_33
    6  A    between atoms: O_14  and  C_20
    7  A    between atoms: C_17  and  C_29
    8  A    between atoms: C_20  and  C_34
    9  A    between atoms: C_26  and  C_28
   10  A    between atoms: C_33  and  C_34
                            x       y       z     vdW  Elec       q    Type
                         _______ _______ _______ _____ _____    ______ ____

>  <TORSDO>
F 10

$$$$
=
 OpenBabel10262423583D

 34 38  0  0  1  0  0  0  0  0999 V2000
  189.8290  177.2820  147.2050 C   0  0  0  0  0  0  0  0  0  0  0  0
  190.0590  176.6380  144.8620 C   0  0  0  0  0  0  0  0  0  0  0  0
  187.9780  177.6210  145.6660 C   0  0  0  0  0  0  0  0  0  0  0  0
  186.4860  178.3680  143.8220 N   0  0  0  0  0  0  0  0  0  0  0  0
  191.8860  176.2760  146.4130 C   0  0  0  0  0  3  0  0  0  0  0  0
  191.3590  176.1950  145.1180 C   0  0  0  0  0  3  0  0  0  0  0  0
  188.3330  177.0490  143.2740 C   0  0  0  0  0  0  0  0  0  0  0  0
  189.2870  177.1720  145.9110 C   0  0  0  0  0  0  0  0  0  0  0  0
  186.5370  178.2220  142.3590 C   0  0  0  0  0  2  0  0  0  0  0  0
  191.1250  176.8240  147.4530 C   0  0  0  0  0  3  0  0  0  0  0  0
  187.7640  178.2880  147.9410 C   0  0  0  0  0  3  0  0  0  0  0  0
  189.0630  177.8520  148.2240 C   0  0  0  0  0  3  0  0  0  0  0  0
  189.5640  176.7050  143.5160 N   0  0  0  0  0  0  0  0  0  0  0  0
  187.8350  177.5140  141.9650 C   0  0  1  0  0  3  0  0  0  0  0  0
  187.3330  177.3020  144.3380 C   0  0  1  0  0  3  0  0  0  0  0  0
  187.2490  178.1500  146.6870 N   0  0  0  0  0  0  0  0  0  0  0  0
  188.7770  178.5420  141.3430 C   0  0  0  0  0  2  0  0  0  0  0  0
  188.7140  178.4800  139.8250 C   0  0  0  0  0  2  0  0  0  0  0  0
  189.4520  177.3280  139.3400 N   0  0  0  0  0  2  0  0  0  0  0  0
  190.7660  177.3820  139.9570 C   0  0  0  0  0  2  0  0  0  0  0  0
  191.8010  176.7370  139.0420 C   0  0  0  0  0  2  0  0  0  0  0  0
  191.1710  175.9910  137.8660 C   0  0  2  0  0  3  0  0  0  0  0  0
  191.0540  174.6270  138.1490 O   0  0  0  0  0  1  0  0  0  0  0  0
  193.2400  176.3360  137.1530 C   0  0  0  0  0  1  0  0  0  0  0  0
  191.9290  176.1720  136.7030 O   0  0  0  0  0  0  0  0  0  0  0  0
  185.1240  178.0630  144.2250 C   0  0  0  0  0  2  0  0  0  0  0  0
  184.2560  179.2980  144.0700 C   0  0  0  0  0  2  0  0  0  0  0  0
  179.9830  178.6110  142.6290 C   0  0  0  0  0  3  0  0  0  0  0  0
  180.5230  178.4110  143.8320 C   0  0  0  0  0  3  0  0  0  0  0  0
  182.9600  178.9260  143.4380 C   0  0  0  0  0  0  0  0  0  0  0  0
  181.8870  178.8120  144.2350 C   0  0  0  0  0  3  0  0  0  0  0  0
  181.9600  178.7270  141.1540 C   0  0  0  0  0  3  0  0  0  0  0  0
  182.9800  178.5790  142.0010 C   0  0  0  0  0  3  0  0  0  0  0  0
  180.6660  179.3670  141.5390 C   0  0  0  0  0  2  0  0  0  0  0  0
  1 10  1  0  0  0  0
  1 12  1  0  0  0  0
  2  6  2  0  0  0  0
  2  8  1  0  0  0  0
  3  8  1  0  0  0  0
  3 16  2  0  0  0  0
  4 26  1  0  0  0  0
  4 15  1  0  0  0  0
  5 10  2  0  0  0  0
  6  5  1  0  0  0  0
  7 13  2  0  0  0  0
  8  1  2  0  0  0  0
  9  4  1  0  0  0  0
 11 12  2  0  0  0  0
 13  2  1  0  0  0  0
 14 17  1  1  0  0  0
 14  9  1  0  0  0  0
 14  7  1  0  0  0  0
 15  7  1  6  0  0  0
 15  3  1  0  0  0  0
 16 11  1  0  0  0  0
 18 17  1  0  0  0  0
 19 18  1  0  0  0  0
 19 20  1  0  0  0  0
 21 20  1  0  0  0  0
 22 23  1  1  0  0  0
 22 21  1  0  0  0  0
 25 24  1  0  0  0  0
 25 22  1  0  0  0  0
 27 26  1  0  0  0  0
 28 29  2  0  0  0  0
 29 31  1  0  0  0  0
 30 27  1  0  0  0  0
 30 31  2  0  0  0  0
 32 34  1  0  0  0  0
 32 33  2  0  0  0  0
 33 30  1  0  0  0  0
 34 28  1  0  0  0  0
M  END
>  <MODEL>
3

>  <REMARK>
 VINA RESULT:      -8.6      2.064      2.585
  Name = 
  10 active torsions:
  status: ('A' for Active; 'I' for Inactive)
    1  A    between atoms: C_3  and  N_13
    2  A    between atoms: C_3  and  C_17
    3  A    between atoms: N_5  and  C_26
    4  A    between atoms: C_12  and  C_28
    5  A    between atoms: N_13  and  C_33
    6  A    between atoms: O_14  and  C_20
    7  A    between atoms: C_17  and  C_29
    8  A    between atoms: C_20  and  C_34
    9  A    between atoms: C_26  and  C_28
   10  A    between atoms: C_33  and  C_34
                            x       y       z     vdW  Elec       q    Type
                         _______ _______ _______ _____ _____    ______ ____

>  <TORSDO>
F 10

$$$$
=
 OpenBabel10262423583D

 34 38  0  0  1  0  0  0  0  0999 V2000
  184.2340  178.6420  141.5980 C   0  0  0  0  0  0  0  0  0  0  0  0
  185.5990  178.6800  139.5740 C   0  0  0  0  0  0  0  0  0  0  0  0
  186.6480  178.4020  141.7560 C   0  0  0  0  0  0  0  0  0  0  0  0
  189.0060  177.6260  141.6030 N   0  0  0  0  0  0  0  0  0  0  0  0
  183.1940  178.9510  139.4310 C   0  0  0  0  0  3  0  0  0  0  0  0
  184.4440  178.8600  138.8070 C   0  0  0  0  0  3  0  0  0  0  0  0
  187.9530  178.3330  139.6430 C   0  0  0  0  0  0  0  0  0  0  0  0
  185.4940  178.5830  140.9740 C   0  0  0  0  0  0  0  0  0  0  0  0
  189.9330  177.4280  140.4790 C   0  0  0  0  0  2  0  0  0  0  0  0
  183.0880  178.8350  140.8220 C   0  0  0  0  0  3  0  0  0  0  0  0
  185.3180  178.3230  143.7290 C   0  0  0  0  0  3  0  0  0  0  0  0
  184.1460  178.5020  142.9840 C   0  0  0  0  0  3  0  0  0  0  0  0
  186.8630  178.4310  138.9400 N   0  0  0  0  0  0  0  0  0  0  0  0
  189.2050  177.7150  139.1640 C   0  0  1  0  0  3  0  0  0  0  0  0
  188.0030  178.5580  141.1070 C   0  0  1  0  0  3  0  0  0  0  0  0
  186.5310  178.2940  143.1090 N   0  0  0  0  0  0  0  0  0  0  0  0
  188.9380  176.3880  138.4590 C   0  0  0  0  0  2  0  0  0  0  0  0
  190.0870  176.0340  137.5270 C   0  0  0  0  0  2  0  0  0  0  0  0
  190.9150  175.0030  138.1240 N   0  0  0  0  0  2  0  0  0  0  0  0
  191.6760  174.3990  137.0440 C   0  0  0  0  0  2  0  0  0  0  0  0
  193.1360  174.2420  137.4550 C   0  0  0  0  0  2  0  0  0  0  0  0
  193.7300  175.5240  138.0370 C   0  0  2  0  0  3  0  0  0  0  0  0
  193.8790  176.4980  137.0440 O   0  0  0  0  0  1  0  0  0  0  0  0
  195.1600  173.8930  138.4850 C   0  0  0  0  0  1  0  0  0  0  0  0
  194.9660  175.2670  138.6410 O   0  0  0  0  0  0  0  0  0  0  0  0
  189.7510  178.3150  142.6430 C   0  0  0  0  0  2  0  0  0  0  0  0
  190.7930  177.3820  143.2310 C   0  0  0  0  0  2  0  0  0  0  0  0
  190.4590  176.9280  147.7570 C   0  0  0  0  0  3  0  0  0  0  0  0
  191.4240  176.5330  146.9260 C   0  0  0  0  0  3  0  0  0  0  0  0
  190.4800  177.1160  144.6620 C   0  0  0  0  0  0  0  0  0  0  0  0
  191.5060  176.8660  145.4890 C   0  0  0  0  0  3  0  0  0  0  0  0
  188.5460  177.2950  146.2380 C   0  0  0  0  0  3  0  0  0  0  0  0
  189.0530  177.0120  145.0380 C   0  0  0  0  0  3  0  0  0  0  0  0
  189.3620  177.8570  147.3560 C   0  0  0  0  0  2  0  0  0  0  0  0
  1 12  1  0  0  0  0
  2  8  1  0  0  0  0
  3 16  2  0  0  0  0
  4 26  1  0  0  0  0
  5 10  2  0  0  0  0
  6  5  1  0  0  0  0
  6  2  2  0  0  0  0
  8  1  2  0  0  0  0
  8  3  1  0  0  0  0
  9  4  1  0  0  0  0
 10  1  1  0  0  0  0
 12 11  2  0  0  0  0
 13  2  1  0  0  0  0
 13  7  2  0  0  0  0
 14 17  1  1  0  0  0
 14  7  1  0  0  0  0
 14  9  1  0  0  0  0
 15  7  1  6  0  0  0
 15  4  1  0  0  0  0
 15  3  1  0  0  0  0
 16 11  1  0  0  0  0
 18 19  1  0  0  0  0
 18 17  1  0  0  0  0
 20 21  1  0  0  0  0
 20 19  1  0  0  0  0
 21 22  1  0  0  0  0
 22 23  1  6  0  0  0
 22 25  1  0  0  0  0
 24 25  1  0  0  0  0
 26 27  1  0  0  0  0
 27 30  1  0  0  0  0
 29 28  2  0  0  0  0
 30 33  1  0  0  0  0
 30 31  2  0  0  0  0
 31 29  1  0  0  0  0
 32 34  1  0  0  0  0
 33 32  2  0  0  0  0
 34 28  1  0  0  0  0
M  END
>  <MODEL>
4

>  <REMARK>
 VINA RESULT:      -8.3      3.415      7.423
  Name = 
  10 active torsions:
  status: ('A' for Active; 'I' for Inactive)
    1  A    between atoms: C_3  and  N_13
    2  A    between atoms: C_3  and  C_17
    3  A    between atoms: N_5  and  C_26
    4  A    between atoms: C_12  and  C_28
    5  A    between atoms: N_13  and  C_33
    6  A    between atoms: O_14  and  C_20
    7  A    between atoms: C_17  and  C_29
    8  A    between atoms: C_20  and  C_34
    9  A    between atoms: C_26  and  C_28
   10  A    between atoms: C_33  and  C_34
                            x       y       z     vdW  Elec       q    Type
                         _______ _______ _______ _____ _____    ______ ____

>  <TORSDO>
F 10

$$$$
=
 OpenBabel10262423583D

 34 38  0  0  1  0  0  0  0  0999 V2000
  184.4130  178.7940  143.7140 C   0  0  0  0  0  0  0  0  0  0  0  0
  186.4260  177.8900  144.7570 C   0  0  0  0  0  0  0  0  0  0  0  0
  186.3470  178.2430  142.3470 C   0  0  0  0  0  0  0  0  0  0  0  0
  188.5910  178.1410  141.2800 N   0  0  0  0  0  0  0  0  0  0  0  0
  184.4810  178.4130  146.1060 C   0  0  0  0  0  3  0  0  0  0  0  0
  185.8000  177.9530  146.0050 C   0  0  0  0  0  3  0  0  0  0  0  0
  188.3960  177.4400  143.4980 C   0  0  0  0  0  0  0  0  0  0  0  0
  185.7270  178.3000  143.6070 C   0  0  0  0  0  0  0  0  0  0  0  0
  189.9300  177.7850  141.7750 C   0  0  0  0  0  2  0  0  0  0  0  0
  183.7910  178.8390  144.9640 C   0  0  0  0  0  3  0  0  0  0  0  0
  184.4000  179.1620  141.3300 C   0  0  0  0  0  3  0  0  0  0  0  0
  183.7500  179.2350  142.5670 C   0  0  0  0  0  3  0  0  0  0  0  0
  187.8220  177.5690  144.6590 N   0  0  0  0  0  0  0  0  0  0  0  0
  189.8550  177.4940  143.2760 C   0  0  1  0  0  3  0  0  0  0  0  0
  187.6640  177.5160  142.2130 C   0  0  1  0  0  3  0  0  0  0  0  0
  185.6640  178.6590  141.2440 N   0  0  0  0  0  0  0  0  0  0  0  0
  190.4910  178.6600  144.0270 C   0  0  0  0  0  2  0  0  0  0  0  0
  191.6680  178.1820  144.8630 C   0  0  0  0  0  2  0  0  0  0  0  0
  191.5630  176.7550  145.1060 N   0  0  0  0  0  2  0  0  0  0  0  0
  191.6380  176.5680  146.5440 C   0  0  0  0  0  2  0  0  0  0  0  0
  190.2660  176.1940  147.0960 C   0  0  0  0  0  2  0  0  0  0  0  0
  189.4820  177.4030  147.6050 C   0  0  2  0  0  3  0  0  0  0  0  0
  190.2000  178.0810  148.5940 O   0  0  0  0  0  1  0  0  0  0  0  0
  187.8570  178.0370  148.9700 C   0  0  0  0  0  1  0  0  0  0  0  0
  188.2370  177.0080  148.1070 O   0  0  0  0  0  0  0  0  0  0  0  0
  188.4260  177.4710  140.0010 C   0  0  0  0  0  2  0  0  0  0  0  0
  189.1030  178.2780  138.9090 C   0  0  0  0  0  2  0  0  0  0  0  0
  190.9040  176.0600  135.3530 C   0  0  0  0  0  3  0  0  0  0  0  0
  189.7760  176.7650  135.4400 C   0  0  0  0  0  3  0  0  0  0  0  0
  189.6790  177.3590  137.8890 C   0  0  0  0  0  0  0  0  0  0  0  0
  189.3590  177.5740  136.6040 C   0  0  0  0  0  3  0  0  0  0  0  0
  191.4370  175.5880  137.7180 C   0  0  0  0  0  3  0  0  0  0  0  0
  190.4510  176.1970  138.3790 C   0  0  0  0  0  3  0  0  0  0  0  0
  191.9610  176.0730  136.4060 C   0  0  0  0  0  2  0  0  0  0  0  0
  1 10  2  0  0  0  0
  2  6  1  0  0  0  0
  3  8  1  0  0  0  0
  4  9  1  0  0  0  0
  4 15  1  0  0  0  0
  6  5  2  0  0  0  0
  7 13  2  0  0  0  0
  8  1  1  0  0  0  0
  8  2  2  0  0  0  0
  9 14  1  0  0  0  0
 10  5  1  0  0  0  0
 11 12  2  0  0  0  0
 12  1  1  0  0  0  0
 13  2  1  0  0  0  0
 14  7  1  0  0  0  0
 14 17  1  1  0  0  0
 15  3  1  1  0  0  0
 15  7  1  0  0  0  0
 16 11  1  0  0  0  0
 16  3  2  0  0  0  0
 17 18  1  0  0  0  0
 18 19  1  0  0  0  0
 19 20  1  0  0  0  0
 20 21  1  0  0  0  0
 21 22  1  0  0  0  0
 22 25  1  0  0  0  0
 22 23  1  1  0  0  0
 25 24  1  0  0  0  0
 26  4  1  0  0  0  0
 27 26  1  0  0  0  0
 28 29  2  0  0  0  0
 28 34  1  0  0  0  0
 29 31  1  0  0  0  0
 30 33  1  0  0  0  0
 30 27  1  0  0  0  0
 31 30  2  0  0  0  0
 32 33  2  0  0  0  0
 34 32  1  0  0  0  0
M  END
>  <MODEL>
5

>  <REMARK>
 VINA RESULT:      -8.1      3.174      7.950
  Name = 
  10 active torsions:
  status: ('A' for Active; 'I' for Inactive)
    1  A    between atoms: C_3  and  N_13
    2  A    between atoms: C_3  and  C_17
    3  A    between atoms: N_5  and  C_26
    4  A    between atoms: C_12  and  C_28
    5  A    between atoms: N_13  and  C_33
    6  A    between atoms: O_14  and  C_20
    7  A    between atoms: C_17  and  C_29
    8  A    between atoms: C_20  and  C_34
    9  A    between atoms: C_26  and  C_28
   10  A    between atoms: C_33  and  C_34
                            x       y       z     vdW  Elec       q    Type
                         _______ _______ _______ _____ _____    ______ ____

>  <TORSDO>
F 10

$$$$
=
 OpenBabel10262423583D

 34 38  0  0  1  0  0  0  0  0999 V2000
  188.0140  177.5210  137.1060 C   0  0  0  0  0  0  0  0  0  0  0  0
  189.6930  177.4820  138.8780 C   0  0  0  0  0  0  0  0  0  0  0  0
  187.3930  178.1120  139.3810 C   0  0  0  0  0  0  0  0  0  0  0  0
  186.9040  178.1180  141.8200 N   0  0  0  0  0  0  0  0  0  0  0  0
  190.3080  176.9250  136.6000 C   0  0  0  0  0  3  0  0  0  0  0  0
  190.6570  177.0840  137.9470 C   0  0  0  0  0  3  0  0  0  0  0  0
  189.1320  177.9340  141.1470 C   0  0  0  0  0  0  0  0  0  0  0  0
  188.3710  177.7130  138.4540 C   0  0  0  0  0  0  0  0  0  0  0  0
  187.7400  177.9500  143.0180 C   0  0  0  0  0  2  0  0  0  0  0  0
  188.9880  177.1360  136.1810 C   0  0  0  0  0  3  0  0  0  0  0  0
  185.7430  178.1120  137.6650 C   0  0  0  0  0  3  0  0  0  0  0  0
  186.6880  177.7140  136.7130 C   0  0  0  0  0  3  0  0  0  0  0  0
  189.9990  177.4980  140.2800 N   0  0  0  0  0  0  0  0  0  0  0  0
  189.1800  177.6480  142.5940 C   0  0  1  0  0  3  0  0  0  0  0  0
  187.8270  178.5240  140.7680 C   0  0  1  0  0  3  0  0  0  0  0  0
  186.1150  178.3160  138.9600 N   0  0  0  0  0  0  0  0  0  0  0  0
  189.4640  176.1730  142.8630 C   0  0  0  0  0  2  0  0  0  0  0  0
  190.8250  176.0000  143.5210 C   0  0  0  0  0  2  0  0  0  0  0  0
  191.1220  177.1420  144.3640 N   0  0  0  0  0  2  0  0  0  0  0  0
  190.7090  176.7880  145.7110 C   0  0  0  0  0  2  0  0  0  0  0  0
  189.6850  177.7930  146.2270 C   0  0  0  0  0  2  0  0  0  0  0  0
  188.4190  177.1270  146.7650 C   0  0  2  0  0  3  0  0  0  0  0  0
  187.2830  177.8620  146.4130 O   0  0  0  0  0  1  0  0  0  0  0  0
  188.1060  178.2390  148.6560 C   0  0  0  0  0  1  0  0  0  0  0  0
  188.4860  176.9920  148.1570 O   0  0  0  0  0  0  0  0  0  0  0  0
  186.0270  179.2470  142.0770 C   0  0  0  0  0  2  0  0  0  0  0  0
  185.1800  178.9690  143.3050 C   0  0  0  0  0  2  0  0  0  0  0  0
  180.7010  178.8420  142.4550 C   0  0  0  0  0  3  0  0  0  0  0  0
  181.3530  178.8110  143.6180 C   0  0  0  0  0  3  0  0  0  0  0  0
  183.7680  178.7310  142.8980 C   0  0  0  0  0  0  0  0  0  0  0  0
  182.8060  179.0120  143.7900 C   0  0  0  0  0  3  0  0  0  0  0  0
  182.4560  178.2340  140.8280 C   0  0  0  0  0  3  0  0  0  0  0  0
  183.5370  178.0770  141.5920 C   0  0  0  0  0  3  0  0  0  0  0  0
  181.3540  179.1860  141.1580 C   0  0  0  0  0  2  0  0  0  0  0  0
  1  8  1  0  0  0  0
  2 13  1  0  0  0  0
  4 26  1  0  0  0  0
  4  9  1  0  0  0  0
  5  6  1  0  0  0  0
  6  2  2  0  0  0  0
  7 14  1  0  0  0  0
  8  2  1  0  0  0  0
  8  3  2  0  0  0  0
 10  5  2  0  0  0  0
 10  1  1  0  0  0  0
 11 16  2  0  0  0  0
 12  1  2  0  0  0  0
 12 11  1  0  0  0  0
 13  7  2  0  0  0  0
 14 17  1  6  0  0  0
 14  9  1  0  0  0  0
 15  3  1  6  0  0  0
 15  7  1  0  0  0  0
 15  4  1  0  0  0  0
 16  3  1  0  0  0  0
 17 18  1  0  0  0  0
 18 19  1  0  0  0  0
 19 20  1  0  0  0  0
 20 21  1  0  0  0  0
 21 22  1  0  0  0  0
 22 23  1  1  0  0  0
 22 25  1  0  0  0  0
 25 24  1  0  0  0  0
 26 27  1  0  0  0  0
 28 29  2  0  0  0  0
 29 31  1  0  0  0  0
 30 27  1  0  0  0  0
 30 31  2  0  0  0  0
 32 34  1  0  0  0  0
 32 33  2  0  0  0  0
 33 30  1  0  0  0  0
 34 28  1  0  0  0  0
M  END
>  <MODEL>
6

>  <REMARK>
 VINA RESULT:      -7.9      2.561      6.653
  Name = 
  10 active torsions:
  status: ('A' for Active; 'I' for Inactive)
    1  A    between atoms: C_3  and  N_13
    2  A    between atoms: C_3  and  C_17
    3  A    between atoms: N_5  and  C_26
    4  A    between atoms: C_12  and  C_28
    5  A    between atoms: N_13  and  C_33
    6  A    between atoms: O_14  and  C_20
    7  A    between atoms: C_17  and  C_29
    8  A    between atoms: C_20  and  C_34
    9  A    between atoms: C_26  and  C_28
   10  A    between atoms: C_33  and  C_34
                            x       y       z     vdW  Elec       q    Type
                         _______ _______ _______ _____ _____    ______ ____

>  <TORSDO>
F 10

$$$$
=
 OpenBabel10262423583D

 34 38  0  0  1  0  0  0  0  0999 V2000
  189.8280  177.1790  146.8590 C   0  0  0  0  0  0  0  0  0  0  0  0
  190.9240  176.2370  144.8920 C   0  0  0  0  0  0  0  0  0  0  0  0
  188.7610  177.3410  144.6810 C   0  0  0  0  0  0  0  0  0  0  0  0
  188.1690  177.8640  142.3230 N   0  0  0  0  0  0  0  0  0  0  0  0
  191.9630  176.0530  147.0740 C   0  0  0  0  0  3  0  0  0  0  0  0
  191.9870  175.8140  145.6950 C   0  0  0  0  0  3  0  0  0  0  0  0
  189.9950  176.4630  142.7120 C   0  0  0  0  0  0  0  0  0  0  0  0
  189.8360  176.9100  145.4780 C   0  0  0  0  0  0  0  0  0  0  0  0
  188.7850  177.5320  141.0290 C   0  0  0  0  0  2  0  0  0  0  0  0
  190.8900  176.7390  147.6550 C   0  0  0  0  0  3  0  0  0  0  0  0
  187.7080  178.2970  146.5900 C   0  0  0  0  0  3  0  0  0  0  0  0
  188.7600  177.8850  147.4160 C   0  0  0  0  0  3  0  0  0  0  0  0
  191.0070  176.1370  143.4620 N   0  0  0  0  0  0  0  0  0  0  0  0
  190.0860  176.7620  141.2690 C   0  0  1  0  0  3  0  0  0  0  0  0
  188.6740  176.8620  143.2510 C   0  0  1  0  0  3  0  0  0  0  0  0
  187.7230  178.0060  145.2590 N   0  0  0  0  0  0  0  0  0  0  0  0
  191.2590  177.6900  140.9640 C   0  0  0  0  0  2  0  0  0  0  0  0
  191.9310  177.2940  139.6590 C   0  0  0  0  0  2  0  0  0  0  0  0
  191.0820  176.3820  138.9150 N   0  0  0  0  0  2  0  0  0  0  0  0
  191.8250  175.9890  137.7300 C   0  0  0  0  0  2  0  0  0  0  0  0
  193.3160  175.9220  138.0440 C   0  0  0  0  0  2  0  0  0  0  0  0
  194.1330  175.2950  136.9150 C   0  0  2  0  0  3  0  0  0  0  0  0
  195.0120  174.3300  137.4140 O   0  0  0  0  0  1  0  0  0  0  0  0
  194.2340  176.3490  134.9690 C   0  0  0  0  0  1  0  0  0  0  0  0
  194.8490  176.2770  136.2190 O   0  0  0  0  0  0  0  0  0  0  0  0
  186.7420  177.6310  142.1790 C   0  0  0  0  0  2  0  0  0  0  0  0
  186.0070  178.9580  142.1550 C   0  0  0  0  0  2  0  0  0  0  0  0
  181.7650  178.9080  143.8320 C   0  0  0  0  0  3  0  0  0  0  0  0
  182.9350  178.7970  144.4610 C   0  0  0  0  0  3  0  0  0  0  0  0
  184.5870  178.7540  142.5570 C   0  0  0  0  0  0  0  0  0  0  0  0
  184.2620  178.9790  143.8380 C   0  0  0  0  0  3  0  0  0  0  0  0
  182.3540  178.4010  141.4870 C   0  0  0  0  0  3  0  0  0  0  0  0
  183.6690  178.1890  141.5440 C   0  0  0  0  0  3  0  0  0  0  0  0
  181.6370  179.3340  142.4070 C   0  0  0  0  0  2  0  0  0  0  0  0
  1 12  1  0  0  0  0
  1 10  2  0  0  0  0
  2  8  2  0  0  0  0
  2  6  1  0  0  0  0
  3 16  2  0  0  0  0
  3  8  1  0  0  0  0
  4 15  1  0  0  0  0
  5 10  1  0  0  0  0
  6  5  2  0  0  0  0
  7 13  2  0  0  0  0
  8  1  1  0  0  0  0
  9 14  1  0  0  0  0
  9  4  1  0  0  0  0
 11 12  2  0  0  0  0
 13  2  1  0  0  0  0
 14 17  1  1  0  0  0
 14  7  1  0  0  0  0
 15  7  1  6  0  0  0
 15  3  1  0  0  0  0
 16 11  1  0  0  0  0
 18 17  1  0  0  0  0
 19 18  1  0  0  0  0
 20 21  1  0  0  0  0
 20 19  1  0  0  0  0
 22 23  1  1  0  0  0
 22 21  1  0  0  0  0
 24 25  1  0  0  0  0
 25 22  1  0  0  0  0
 26  4  1  0  0  0  0
 27 26  1  0  0  0  0
 27 30  1  0  0  0  0
 28 29  2  0  0  0  0
 30 31  2  0  0  0  0
 31 29  1  0  0  0  0
 32 33  2  0  0  0  0
 32 34  1  0  0  0  0
 33 30  1  0  0  0  0
 34 28  1  0  0  0  0
M  END
>  <MODEL>
7

>  <REMARK>
 VINA RESULT:      -7.7      3.332      3.846
  Name = 
  10 active torsions:
  status: ('A' for Active; 'I' for Inactive)
    1  A    between atoms: C_3  and  N_13
    2  A    between atoms: C_3  and  C_17
    3  A    between atoms: N_5  and  C_26
    4  A    between atoms: C_12  and  C_28
    5  A    between atoms: N_13  and  C_33
    6  A    between atoms: O_14  and  C_20
    7  A    between atoms: C_17  and  C_29
    8  A    between atoms: C_20  and  C_34
    9  A    between atoms: C_26  and  C_28
   10  A    between atoms: C_33  and  C_34
                            x       y       z     vdW  Elec       q    Type
                         _______ _______ _______ _____ _____    ______ ____

>  <TORSDO>
F 10

$$$$
=
 OpenBabel10262423583D

 34 38  0  0  1  0  0  0  0  0999 V2000
  184.1970  178.6400  142.0470 C   0  0  0  0  0  0  0  0  0  0  0  0
  185.3860  178.7900  139.9210 C   0  0  0  0  0  0  0  0  0  0  0  0
  186.6110  178.3640  141.9840 C   0  0  0  0  0  0  0  0  0  0  0  0
  188.9350  177.5730  141.5840 N   0  0  0  0  0  0  0  0  0  0  0  0
  182.9830  179.0950  139.9990 C   0  0  0  0  0  3  0  0  0  0  0  0
  184.1740  179.0290  139.2670 C   0  0  0  0  0  3  0  0  0  0  0  0
  187.7320  178.4120  139.7680 C   0  0  0  0  0  0  0  0  0  0  0  0
  185.3990  178.6060  141.3160 C   0  0  0  0  0  0  0  0  0  0  0  0
  189.7610  177.4350  140.3750 C   0  0  0  0  0  2  0  0  0  0  0  0
  182.9920  178.8940  141.3850 C   0  0  0  0  0  3  0  0  0  0  0  0
  185.4500  178.1770  144.0540 C   0  0  0  0  0  3  0  0  0  0  0  0
  184.2230  178.4150  143.4240 C   0  0  0  0  0  3  0  0  0  0  0  0
  186.5880  178.5660  139.1670 N   0  0  0  0  0  0  0  0  0  0  0  0
  188.9290  177.8120  139.1460 C   0  0  1  0  0  3  0  0  0  0  0  0
  187.9090  178.5450  141.2330 C   0  0  1  0  0  3  0  0  0  0  0  0
  186.6060  178.1730  143.3320 N   0  0  0  0  0  0  0  0  0  0  0  0
  188.5820  176.5340  138.3870 C   0  0  0  0  0  2  0  0  0  0  0  0
  188.8430  176.7070  136.8980 C   0  0  0  0  0  2  0  0  0  0  0  0
  187.7330  176.1740  136.1310 N   0  0  0  0  0  2  0  0  0  0  0  0
  186.8970  175.4340  137.0600 C   0  0  0  0  0  2  0  0  0  0  0  0
  186.3580  174.1740  136.3920 C   0  0  0  0  0  2  0  0  0  0  0  0
  185.0790  173.6540  137.0490 C   0  0  2  0  0  3  0  0  0  0  0  0
  185.3800  172.7890  138.1060 O   0  0  0  0  0  1  0  0  0  0  0  0
  185.0630  171.9510  135.6320 C   0  0  0  0  0  1  0  0  0  0  0  0
  184.2740  172.9980  136.1120 O   0  0  0  0  0  0  0  0  0  0  0  0
  189.7750  178.1880  142.5970 C   0  0  0  0  0  2  0  0  0  0  0  0
  190.7650  177.1680  143.1280 C   0  0  0  0  0  2  0  0  0  0  0  0
  190.7170  176.8770  147.6800 C   0  0  0  0  0  3  0  0  0  0  0  0
  191.6140  176.4250  146.8030 C   0  0  0  0  0  3  0  0  0  0  0  0
  190.5400  176.9600  144.5850 C   0  0  0  0  0  0  0  0  0  0  0  0
  191.6110  176.7070  145.3530 C   0  0  0  0  0  3  0  0  0  0  0  0
  188.7200  177.2510  146.2760 C   0  0  0  0  0  3  0  0  0  0  0  0
  189.1390  176.9120  145.0560 C   0  0  0  0  0  3  0  0  0  0  0  0
  189.6230  177.8250  147.3190 C   0  0  0  0  0  2  0  0  0  0  0  0
  1 12  1  0  0  0  0
  2  8  1  0  0  0  0
  3 16  2  0  0  0  0
  4 26  1  0  0  0  0
  5 10  2  0  0  0  0
  6  2  2  0  0  0  0
  6  5  1  0  0  0  0
  8  3  1  0  0  0  0
  8  1  2  0  0  0  0
  9  4  1  0  0  0  0
 10  1  1  0  0  0  0
 12 11  2  0  0  0  0
 13  7  2  0  0  0  0
 13  2  1  0  0  0  0
 14 17  1  1  0  0  0
 14  7  1  0  0  0  0
 14  9  1  0  0  0  0
 15  7  1  6  0  0  0
 15  4  1  0  0  0  0
 15  3  1  0  0  0  0
 16 11  1  0  0  0  0
 18 17  1  0  0  0  0
 19 18  1  0  0  0  0
 19 20  1  0  0  0  0
 21 22  1  0  0  0  0
 21 20  1  0  0  0  0
 22 23  1  1  0  0  0
 24 25  1  0  0  0  0
 25 22  1  0  0  0  0
 26 27  1  0  0  0  0
 27 30  1  0  0  0  0
 29 28  2  0  0  0  0
 30 33  1  0  0  0  0
 30 31  2  0  0  0  0
 31 29  1  0  0  0  0
 32 34  1  0  0  0  0
 33 32  2  0  0  0  0
 34 28  1  0  0  0  0
M  END
>  <MODEL>
8

>  <REMARK>
 VINA RESULT:      -7.7      2.095      6.794
  Name = 
  10 active torsions:
  status: ('A' for Active; 'I' for Inactive)
    1  A    between atoms: C_3  and  N_13
    2  A    between atoms: C_3  and  C_17
    3  A    between atoms: N_5  and  C_26
    4  A    between atoms: C_12  and  C_28
    5  A    between atoms: N_13  and  C_33
    6  A    between atoms: O_14  and  C_20
    7  A    between atoms: C_17  and  C_29
    8  A    between atoms: C_20  and  C_34
    9  A    between atoms: C_26  and  C_28
   10  A    between atoms: C_33  and  C_34
                            x       y       z     vdW  Elec       q    Type
                         _______ _______ _______ _____ _____    ______ ____

>  <TORSDO>
F 10

$$$$
=
 OpenBabel10262423583D

 34 38  0  0  1  0  0  0  0  0999 V2000
  190.0560  176.3320  136.9000 C   0  0  0  0  0  0  0  0  0  0  0  0
  191.2450  176.9080  138.9530 C   0  0  0  0  0  0  0  0  0  0  0  0
  188.8280  177.1950  138.8130 C   0  0  0  0  0  0  0  0  0  0  0  0
  187.7660  177.5440  141.0350 N   0  0  0  0  0  0  0  0  0  0  0  0
  192.4620  176.0760  137.0290 C   0  0  0  0  0  3  0  0  0  0  0  0
  192.4500  176.5310  138.3530 C   0  0  0  0  0  3  0  0  0  0  0  0
  190.0950  177.6460  140.9020 C   0  0  0  0  0  0  0  0  0  0  0  0
  190.0460  176.8200  138.2200 C   0  0  0  0  0  0  0  0  0  0  0  0
  188.3010  177.7430  142.3900 C   0  0  0  0  0  2  0  0  0  0  0  0
  191.2680  175.9710  136.3060 C   0  0  0  0  0  3  0  0  0  0  0  0
  187.6590  176.5970  136.8270 C   0  0  0  0  0  3  0  0  0  0  0  0
  188.8520  176.2120  136.2030 C   0  0  0  0  0  3  0  0  0  0  0  0
  191.1960  177.2270  140.3520 N   0  0  0  0  0  0  0  0  0  0  0  0
  189.8270  177.6340  142.3540 C   0  0  1  0  0  3  0  0  0  0  0  0
  188.8530  177.9160  140.1400 C   0  0  1  0  0  3  0  0  0  0  0  0
  187.6740  177.0900  138.0980 N   0  0  0  0  0  0  0  0  0  0  0  0
  190.2320  176.3050  142.9850 C   0  0  0  0  0  2  0  0  0  0  0  0
  191.5810  176.4270  143.6770 C   0  0  0  0  0  2  0  0  0  0  0  0
  191.5080  175.8770  145.0180 N   0  0  0  0  0  2  0  0  0  0  0  0
  191.6620  176.9920  145.9380 C   0  0  0  0  0  2  0  0  0  0  0  0
  190.8960  176.7170  147.2270 C   0  0  0  0  0  2  0  0  0  0  0  0
  189.5320  177.4060  147.2650 C   0  0  2  0  0  3  0  0  0  0  0  0
  188.5460  176.5300  147.7290 O   0  0  0  0  0  1  0  0  0  0  0  0
  187.7940  177.7830  145.9450 C   0  0  0  0  0  1  0  0  0  0  0  0
  189.1850  177.8850  145.9970 O   0  0  0  0  0  0  0  0  0  0  0  0
  186.7100  178.5260  140.8530 C   0  0  0  0  0  2  0  0  0  0  0  0
  186.3890  179.1830  142.1830 C   0  0  0  0  0  2  0  0  0  0  0  0
  182.1430  178.8060  143.8060 C   0  0  0  0  0  3  0  0  0  0  0  0
  183.3070  178.8470  144.4550 C   0  0  0  0  0  3  0  0  0  0  0  0
  184.9900  178.8620  142.5780 C   0  0  0  0  0  0  0  0  0  0  0  0
  184.6210  179.1250  143.8400 C   0  0  0  0  0  3  0  0  0  0  0  0
  182.8210  178.2290  141.5030 C   0  0  0  0  0  3  0  0  0  0  0  0
  184.1500  178.1520  141.5880 C   0  0  0  0  0  3  0  0  0  0  0  0
  182.0000  179.1370  142.3580 C   0  0  0  0  0  2  0  0  0  0  0  0
  1  8  1  0  0  0  0
  2 13  1  0  0  0  0
  4  9  1  0  0  0  0
  5  6  2  0  0  0  0
  6  2  1  0  0  0  0
  7 14  1  0  0  0  0
  8  3  1  0  0  0  0
  8  2  2  0  0  0  0
 10  1  2  0  0  0  0
 10  5  1  0  0  0  0
 11 16  1  0  0  0  0
 12 11  2  0  0  0  0
 12  1  1  0  0  0  0
 13  7  2  0  0  0  0
 14  9  1  0  0  0  0
 14 17  1  6  0  0  0
 15  3  1  6  0  0  0
 15  7  1  0  0  0  0
 15  4  1  0  0  0  0
 16  3  2  0  0  0  0
 17 18  1  0  0  0  0
 18 19  1  0  0  0  0
 19 20  1  0  0  0  0
 20 21  1  0  0  0  0
 21 22  1  0  0  0  0
 22 23  1  6  0  0  0
 24 25  1  0  0  0  0
 25 22  1  0  0  0  0
 26  4  1  0  0  0  0
 26 27  1  0  0  0  0
 27 30  1  0  0  0  0
 28 29  2  0  0  0  0
 30 31  2  0  0  0  0
 31 29  1  0  0  0  0
 32 33  2  0  0  0  0
 32 34  1  0  0  0  0
 33 30  1  0  0  0  0
 34 28  1  0  0  0  0
M  END
>  <MODEL>
9

>  <REMARK>
 VINA RESULT:      -7.7      2.909      6.834
  Name = 
  10 active torsions:
  status: ('A' for Active; 'I' for Inactive)
    1  A    between atoms: C_3  and  N_13
    2  A    between atoms: C_3  and  C_17
    3  A    between atoms: N_5  and  C_26
    4  A    between atoms: C_12  and  C_28
    5  A    between atoms: N_13  and  C_33
    6  A    between atoms: O_14  and  C_20
    7  A    between atoms: C_17  and  C_29
    8  A    between atoms: C_20  and  C_34
    9  A    between atoms: C_26  and  C_28
   10  A    between atoms: C_33  and  C_34
                            x       y       z     vdW  Elec       q    Type
                         _______ _______ _______ _____ _____    ______ ____

>  <TORSDO>
F 10

$$$$
