=
 OpenBabel10272415223D

 34 39  0  0  0  0  0  0  0  0999 V2000
  190.7130  176.3550  138.1240 C   0  0  0  0  0  0  0  0  0  0  0  0
  192.9570  176.1420  135.1860 C   0  0  0  0  0  3  0  0  0  0  0  0
  190.3380  175.5520  135.0930 S   0  0  0  0  0  0  0  0  0  0  0  0
  188.7850  177.8250  139.4950 N   0  0  0  0  0  0  0  0  0  0  0  0
  190.7480  176.4740  139.5230 C   0  0  0  0  0  3  0  0  0  0  0  0
  188.7100  177.7360  138.1420 C   0  0  0  0  0  0  0  0  0  0  0  0
  187.6360  178.3480  136.1000 N   0  0  0  0  0  0  0  0  0  0  0  0
  187.7220  178.4420  137.4520 C   0  0  0  0  0  3  0  0  0  0  0  0
  189.7580  177.1930  140.2060 C   0  0  0  0  0  0  0  0  0  0  0  0
  189.4720  176.8160  136.0270 C   0  0  0  0  0  0  0  0  0  0  0  0
  189.6340  176.9470  137.4240 C   0  0  0  0  0  0  0  0  0  0  0  0
  188.4710  177.5480  135.3850 C   0  0  0  0  0  3  0  0  0  0  0  0
  194.2980  176.4050  135.7840 C   0  0  0  0  0  2  0  0  0  0  0  0
  194.8010  175.1870  136.4900 C   0  0  0  0  0  0  0  0  0  0  0  0
  194.1630  174.7000  137.5640 C   0  0  0  0  0  3  0  0  0  0  0  0
  191.8840  175.8530  135.9220 C   0  0  0  0  0  0  0  0  0  0  0  0
  192.8920  175.2230  138.1050 C   0  0  0  0  0  3  0  0  0  0  0  0
  191.8850  175.7770  137.4030 C   0  0  0  0  0  0  0  0  0  0  0  0
  191.0380  177.4740  143.7650 C   0  0  0  0  0  3  0  0  0  0  0  0
  188.5900  177.3620  142.4050 C   0  0  0  0  0  3  0  0  0  0  0  0
  188.6610  177.6880  146.5990 C   0  0  0  0  0  0  0  0  0  0  0  0
  189.8610  177.6350  145.8750 C   0  0  0  0  0  3  0  0  0  0  0  0
  189.8420  177.5270  144.4820 C   0  0  0  0  0  0  0  0  0  0  0  0
  187.4120  177.5230  144.5160 C   0  0  0  0  0  3  0  0  0  0  0  0
  188.6080  177.4700  143.7980 C   0  0  0  0  0  0  0  0  0  0  0  0
  187.4380  177.6300  145.9090 C   0  0  0  0  0  3  0  0  0  0  0  0
  189.7900  177.3090  141.6790 C   0  0  0  0  0  0  0  0  0  0  0  0
  191.0120  177.3650  142.3710 C   0  0  0  0  0  3  0  0  0  0  0  0
  188.6850  177.8000  148.0280 N   0  0  0  0  0  0  0  0  0  0  0  0
  189.6220  178.3910  148.6030 O   0  0  0  0  0  0  0  0  0  0  0  0
  187.6720  177.2560  148.7840 O   0  0  0  0  0  0  0  0  0  0  0  0
  195.9770  174.5950  136.0180 O   0  0  0  0  0  0  0  0  0  0  0  0
  197.2630  175.1810  136.1790 C   0  0  0  0  0  2  0  0  0  0  0  0
  197.8950  174.6710  137.4560 C   0  0  0  0  0  1  0  0  0  0  0  0
  1  5  1  0  0  0  0
  2 13  1  0  0  0  0
  2 16  2  0  0  0  0
  3 16  1  0  0  0  0
  3 10  1  0  0  0  0
  4  9  1  0  0  0  0
  5  9  2  0  0  0  0
  6  4  2  0  0  0  0
  7  8  2  0  0  0  0
  8  6  1  0  0  0  0
  9 27  1  0  0  0  0
 10 11  1  0  0  0  0
 11  1  2  0  0  0  0
 11  6  1  0  0  0  0
 12 10  2  0  0  0  0
 12  7  1  0  0  0  0
 13 14  1  0  0  0  0
 14 15  2  0  0  0  0
 15 17  1  0  0  0  0
 16 18  1  0  0  0  0
 18 17  2  0  0  0  0
 18  1  1  0  0  0  0
 19 23  1  0  0  0  0
 20 25  1  0  0  0  0
 21 29  1  0  0  0  0
 22 21  2  0  0  0  0
 23 22  1  0  0  0  0
 24 26  2  0  0  0  0
 25 23  2  0  0  0  0
 25 24  1  0  0  0  0
 26 21  1  0  0  0  0
 27 28  1  0  0  0  0
 27 20  2  0  0  0  0
 28 19  2  0  0  0  0
 29 30  2  0  0  0  0
 29 31  2  0  0  0  0
 32 33  1  0  0  0  0
 32 14  1  0  0  0  0
 33 34  1  0  0  0  0
M  END
>  <MODEL>
1

>  <REMARK>
 VINA RESULT:      -9.3      0.000      0.000
  Name = 
  4 active torsions:
  status: ('A' for Active; 'I' for Inactive)
    1  A    between atoms: O_3  and  C_13
    2  A    between atoms: O_3  and  C_25
    3  A    between atoms: C_7  and  N_11
    4  A    between atoms: C_18  and  C_30
                            x       y       z     vdW  Elec       q    Type
                         _______ _______ _______ _____ _____    ______ ____

>  <TORSDO>
F 4

$$$$
=
 OpenBabel10272415223D

 34 39  0  0  0  0  0  0  0  0999 V2000
  188.6410  177.2470  138.2900 C   0  0  0  0  0  0  0  0  0  0  0  0
  186.3760  176.4320  135.4760 C   0  0  0  0  0  3  0  0  0  0  0  0
  188.8140  177.5140  135.1490 S   0  0  0  0  0  0  0  0  0  0  0  0
  190.8450  176.4900  139.8150 N   0  0  0  0  0  0  0  0  0  0  0  0
  188.6440  177.3930  139.6870 C   0  0  0  0  0  3  0  0  0  0  0  0
  190.8890  176.3320  138.4670 C   0  0  0  0  0  0  0  0  0  0  0  0
  192.0490  175.5720  136.5240 N   0  0  0  0  0  0  0  0  0  0  0  0
  191.9960  175.7230  137.8730 C   0  0  0  0  0  3  0  0  0  0  0  0
  189.7670  177.0360  140.4430 C   0  0  0  0  0  0  0  0  0  0  0  0
  189.9330  176.6550  136.2580 C   0  0  0  0  0  0  0  0  0  0  0  0
  189.8140  176.7650  137.6610 C   0  0  0  0  0  0  0  0  0  0  0  0
  191.0580  176.0340  135.7150 C   0  0  0  0  0  3  0  0  0  0  0  0
  185.1260  176.0220  136.1760 C   0  0  0  0  0  2  0  0  0  0  0  0
  184.3850  177.2230  136.6680 C   0  0  0  0  0  0  0  0  0  0  0  0
  184.9170  178.0270  137.6000 C   0  0  0  0  0  3  0  0  0  0  0  0
  187.3720  177.0690  136.0920 C   0  0  0  0  0  0  0  0  0  0  0  0
  186.2740  177.8870  138.1670 C   0  0  0  0  0  3  0  0  0  0  0  0
  187.3680  177.4250  137.5320 C   0  0  0  0  0  0  0  0  0  0  0  0
  190.9830  177.5110  144.0040 C   0  0  0  0  0  3  0  0  0  0  0  0
  188.5640  177.1970  142.6240 C   0  0  0  0  0  3  0  0  0  0  0  0
  188.5630  177.6590  146.8050 C   0  0  0  0  0  0  0  0  0  0  0  0
  189.7730  177.6610  146.0960 C   0  0  0  0  0  3  0  0  0  0  0  0
  189.7780  177.5080  144.7070 C   0  0  0  0  0  0  0  0  0  0  0  0
  187.3520  177.3470  144.7160 C   0  0  0  0  0  3  0  0  0  0  0  0
  188.5580  177.3500  144.0120 C   0  0  0  0  0  0  0  0  0  0  0  0
  187.3550  177.5000  146.1050 C   0  0  0  0  0  3  0  0  0  0  0  0
  189.7730  177.2000  141.9120 C   0  0  0  0  0  0  0  0  0  0  0  0
  190.9810  177.3570  142.6140 C   0  0  0  0  0  3  0  0  0  0  0  0
  188.5630  177.8160  148.2300 N   0  0  0  0  0  0  0  0  0  0  0  0
  187.6070  177.3970  148.9150 O   0  0  0  0  0  0  0  0  0  0  0  0
  189.6200  178.4320  148.8610 O   0  0  0  0  0  0  0  0  0  0  0  0
  183.1070  177.4630  136.1510 O   0  0  0  0  0  0  0  0  0  0  0  0
  182.0260  177.9410  136.9410 C   0  0  0  0  0  2  0  0  0  0  0  0
  181.2210  178.9440  136.1430 C   0  0  0  0  0  1  0  0  0  0  0  0
  1  5  1  0  0  0  0
  2 16  2  0  0  0  0
  2 13  1  0  0  0  0
  3 16  1  0  0  0  0
  3 10  1  0  0  0  0
  4  9  1  0  0  0  0
  5  9  2  0  0  0  0
  6  4  2  0  0  0  0
  7  8  2  0  0  0  0
  8  6  1  0  0  0  0
  9 27  1  0  0  0  0
 10 11  1  0  0  0  0
 11  1  2  0  0  0  0
 11  6  1  0  0  0  0
 12 10  2  0  0  0  0
 12  7  1  0  0  0  0
 13 14  1  0  0  0  0
 14 15  2  0  0  0  0
 15 17  1  0  0  0  0
 16 18  1  0  0  0  0
 18 17  2  0  0  0  0
 18  1  1  0  0  0  0
 19 23  1  0  0  0  0
 20 25  1  0  0  0  0
 21 29  1  0  0  0  0
 22 21  2  0  0  0  0
 23 22  1  0  0  0  0
 24 26  2  0  0  0  0
 25 23  2  0  0  0  0
 25 24  1  0  0  0  0
 26 21  1  0  0  0  0
 27 28  1  0  0  0  0
 27 20  2  0  0  0  0
 28 19  2  0  0  0  0
 29 31  2  0  0  0  0
 29 30  2  0  0  0  0
 32 14  1  0  0  0  0
 32 33  1  0  0  0  0
 34 33  1  0  0  0  0
M  END
>  <MODEL>
2

>  <REMARK>
 VINA RESULT:      -9.2      3.159      6.060
  Name = 
  4 active torsions:
  status: ('A' for Active; 'I' for Inactive)
    1  A    between atoms: O_3  and  C_13
    2  A    between atoms: O_3  and  C_25
    3  A    between atoms: C_7  and  N_11
    4  A    between atoms: C_18  and  C_30
                            x       y       z     vdW  Elec       q    Type
                         _______ _______ _______ _____ _____    ______ ____

>  <TORSDO>
F 4

$$$$
=
 OpenBabel10272415223D

 34 39  0  0  0  0  0  0  0  0999 V2000
  190.6680  176.2020  137.5290 C   0  0  0  0  0  0  0  0  0  0  0  0
  193.0680  176.0650  134.7120 C   0  0  0  0  0  3  0  0  0  0  0  0
  190.4890  175.3450  134.4950 S   0  0  0  0  0  0  0  0  0  0  0  0
  188.6030  177.5920  138.7780 N   0  0  0  0  0  0  0  0  0  0  0  0
  190.6250  176.3400  138.9260 C   0  0  0  0  0  3  0  0  0  0  0  0
  188.6020  177.4830  137.4250 C   0  0  0  0  0  0  0  0  0  0  0  0
  187.6060  178.0160  135.3220 N   0  0  0  0  0  0  0  0  0  0  0  0
  187.6180  178.1310  136.6760 C   0  0  0  0  0  3  0  0  0  0  0  0
  189.5680  177.0170  139.5470 C   0  0  0  0  0  0  0  0  0  0  0  0
  189.5160  176.5760  135.3660 C   0  0  0  0  0  0  0  0  0  0  0  0
  189.5990  176.7320  136.7660 C   0  0  0  0  0  0  0  0  0  0  0  0
  188.5150  177.2500  134.6620 C   0  0  0  0  0  3  0  0  0  0  0  0
  194.3620  176.4000  135.3730 C   0  0  0  0  0  2  0  0  0  0  0  0
  194.8870  175.2180  136.1220 C   0  0  0  0  0  0  0  0  0  0  0  0
  194.2190  174.7130  137.1690 C   0  0  0  0  0  3  0  0  0  0  0  0
  191.9740  175.7320  135.3960 C   0  0  0  0  0  0  0  0  0  0  0  0
  192.8980  175.1800  137.6370 C   0  0  0  0  0  3  0  0  0  0  0  0
  191.9020  175.6750  136.8770 C   0  0  0  0  0  0  0  0  0  0  0  0
  188.3690  177.8740  143.0420 C   0  0  0  0  0  3  0  0  0  0  0  0
  190.5860  176.6880  141.8030 C   0  0  0  0  0  3  0  0  0  0  0  0
  190.4620  177.0690  145.9910 C   0  0  0  0  0  0  0  0  0  0  0  0
  189.3960  177.5340  145.2090 C   0  0  0  0  0  3  0  0  0  0  0  0
  189.4320  177.4100  143.8170 C   0  0  0  0  0  0  0  0  0  0  0  0
  191.6130  176.3480  143.9700 C   0  0  0  0  0  3  0  0  0  0  0  0
  190.5500  176.8120  143.1940 C   0  0  0  0  0  0  0  0  0  0  0  0
  191.5700  176.4770  145.3610 C   0  0  0  0  0  3  0  0  0  0  0  0
  189.5190  177.1530  141.0190 C   0  0  0  0  0  0  0  0  0  0  0  0
  188.4120  177.7460  141.6500 C   0  0  0  0  0  3  0  0  0  0  0  0
  190.4200  177.1980  147.4180 N   0  0  0  0  0  0  0  0  0  0  0  0
  189.3300  177.3360  148.0110 O   0  0  0  0  0  0  0  0  0  0  0  0
  191.5840  177.1700  148.1520 O   0  0  0  0  0  0  0  0  0  0  0  0
  196.1130  174.6790  135.7190 O   0  0  0  0  0  0  0  0  0  0  0  0
  197.3670  175.2500  136.0680 C   0  0  0  0  0  2  0  0  0  0  0  0
  198.2800  175.2430  134.8610 C   0  0  0  0  0  1  0  0  0  0  0  0
  1  5  1  0  0  0  0
  2 13  1  0  0  0  0
  2 16  2  0  0  0  0
  3 10  1  0  0  0  0
  3 16  1  0  0  0  0
  4  9  1  0  0  0  0
  5  9  2  0  0  0  0
  6  4  2  0  0  0  0
  7  8  2  0  0  0  0
  8  6  1  0  0  0  0
  9 27  1  0  0  0  0
 10 11  1  0  0  0  0
 11  6  1  0  0  0  0
 11  1  2  0  0  0  0
 12  7  1  0  0  0  0
 12 10  2  0  0  0  0
 13 14  1  0  0  0  0
 14 15  2  0  0  0  0
 15 17  1  0  0  0  0
 16 18  1  0  0  0  0
 18  1  1  0  0  0  0
 18 17  2  0  0  0  0
 19 23  1  0  0  0  0
 20 25  1  0  0  0  0
 21 29  1  0  0  0  0
 22 21  2  0  0  0  0
 23 22  1  0  0  0  0
 24 26  2  0  0  0  0
 25 23  2  0  0  0  0
 25 24  1  0  0  0  0
 26 21  1  0  0  0  0
 27 28  1  0  0  0  0
 27 20  2  0  0  0  0
 28 19  2  0  0  0  0
 29 30  2  0  0  0  0
 29 31  2  0  0  0  0
 32 33  1  0  0  0  0
 32 14  1  0  0  0  0
 34 33  1  0  0  0  0
M  END
>  <MODEL>
3

>  <REMARK>
 VINA RESULT:      -8.8      1.000      1.751
  Name = 
  4 active torsions:
  status: ('A' for Active; 'I' for Inactive)
    1  A    between atoms: O_3  and  C_13
    2  A    between atoms: O_3  and  C_25
    3  A    between atoms: C_7  and  N_11
    4  A    between atoms: C_18  and  C_30
                            x       y       z     vdW  Elec       q    Type
                         _______ _______ _______ _____ _____    ______ ____

>  <TORSDO>
F 4

$$$$
=
 OpenBabel10272415223D

 34 39  0  0  0  0  0  0  0  0999 V2000
  189.3710  176.7500  137.6840 C   0  0  0  0  0  0  0  0  0  0  0  0
  187.5850  175.2880  134.7880 C   0  0  0  0  0  3  0  0  0  0  0  0
  189.7590  176.8490  134.5520 S   0  0  0  0  0  0  0  0  0  0  0  0
  191.5430  176.5850  139.4200 N   0  0  0  0  0  0  0  0  0  0  0  0
  189.2210  176.9800  139.0610 C   0  0  0  0  0  3  0  0  0  0  0  0
  191.7370  176.3550  138.0950 C   0  0  0  0  0  0  0  0  0  0  0  0
  193.1960  175.7440  136.3090 N   0  0  0  0  0  0  0  0  0  0  0  0
  192.9950  175.9640  137.6340 C   0  0  0  0  0  3  0  0  0  0  0  0
  190.3230  176.9230  139.9220 C   0  0  0  0  0  0  0  0  0  0  0  0
  190.9310  176.3250  135.8040 C   0  0  0  0  0  0  0  0  0  0  0  0
  190.6700  176.4940  137.1810 C   0  0  0  0  0  0  0  0  0  0  0  0
  192.2060  175.9280  135.3950 C   0  0  0  0  0  3  0  0  0  0  0  0
  186.3920  174.6620  135.4260 C   0  0  0  0  0  2  0  0  0  0  0  0
  185.3740  175.7040  135.7660 C   0  0  0  0  0  0  0  0  0  0  0  0
  185.6410  176.6610  136.6660 C   0  0  0  0  0  3  0  0  0  0  0  0
  188.3660  176.1630  135.4210 C   0  0  0  0  0  0  0  0  0  0  0  0
  186.9420  176.8530  137.3390 C   0  0  0  0  0  3  0  0  0  0  0  0
  188.1600  176.6000  136.8240 C   0  0  0  0  0  0  0  0  0  0  0  0
  191.1200  177.7600  143.5340 C   0  0  0  0  0  3  0  0  0  0  0  0
  188.9010  177.0710  141.9680 C   0  0  0  0  0  3  0  0  0  0  0  0
  188.4350  177.7850  146.0870 C   0  0  0  0  0  0  0  0  0  0  0  0
  189.7000  177.8910  145.4920 C   0  0  0  0  0  3  0  0  0  0  0  0
  189.8600  177.6550  144.1240 C   0  0  0  0  0  0  0  0  0  0  0  0
  187.4800  177.2010  143.9260 C   0  0  0  0  0  3  0  0  0  0  0  0
  188.7410  177.3070  143.3350 C   0  0  0  0  0  0  0  0  0  0  0  0
  187.3280  177.4380  145.2950 C   0  0  0  0  0  3  0  0  0  0  0  0
  190.1660  177.1760  141.3700 C   0  0  0  0  0  0  0  0  0  0  0  0
  191.2720  177.5220  142.1650 C   0  0  0  0  0  3  0  0  0  0  0  0
  188.2760  178.0290  147.4910 N   0  0  0  0  0  0  0  0  0  0  0  0
  187.1770  178.4020  147.9500 O   0  0  0  0  0  0  0  0  0  0  0  0
  189.3370  177.8530  148.3500 O   0  0  0  0  0  0  0  0  0  0  0  0
  184.1250  175.6280  135.1400 O   0  0  0  0  0  0  0  0  0  0  0  0
  183.1560  174.6370  135.4570 C   0  0  0  0  0  2  0  0  0  0  0  0
  182.0670  175.2490  136.3120 C   0  0  0  0  0  1  0  0  0  0  0  0
  1  5  1  0  0  0  0
  2 16  2  0  0  0  0
  2 13  1  0  0  0  0
  3 16  1  0  0  0  0
  3 10  1  0  0  0  0
  4  9  1  0  0  0  0
  5  9  2  0  0  0  0
  6  4  2  0  0  0  0
  7  8  2  0  0  0  0
  8  6  1  0  0  0  0
  9 27  1  0  0  0  0
 10 11  1  0  0  0  0
 11  1  2  0  0  0  0
 11  6  1  0  0  0  0
 12 10  2  0  0  0  0
 12  7  1  0  0  0  0
 13 14  1  0  0  0  0
 14 15  2  0  0  0  0
 15 17  1  0  0  0  0
 16 18  1  0  0  0  0
 18 17  2  0  0  0  0
 18  1  1  0  0  0  0
 19 23  1  0  0  0  0
 20 25  1  0  0  0  0
 21 29  1  0  0  0  0
 22 21  1  0  0  0  0
 23 22  2  0  0  0  0
 24 26  1  0  0  0  0
 25 24  2  0  0  0  0
 25 23  1  0  0  0  0
 26 21  2  0  0  0  0
 27 20  2  0  0  0  0
 27 28  1  0  0  0  0
 28 19  2  0  0  0  0
 29 30  2  0  0  0  0
 29 31  2  0  0  0  0
 32 33  1  0  0  0  0
 32 14  1  0  0  0  0
 33 34  1  0  0  0  0
M  END
>  <MODEL>
4

>  <REMARK>
 VINA RESULT:      -8.6      3.105      5.573
  Name = 
  4 active torsions:
  status: ('A' for Active; 'I' for Inactive)
    1  A    between atoms: O_3  and  C_13
    2  A    between atoms: O_3  and  C_25
    3  A    between atoms: C_7  and  N_11
    4  A    between atoms: C_18  and  C_30
                            x       y       z     vdW  Elec       q    Type
                         _______ _______ _______ _____ _____    ______ ____

>  <TORSDO>
F 4

$$$$
=
 OpenBabel10272415223D

 34 39  0  0  0  0  0  0  0  0999 V2000
  188.7190  177.0680  137.9680 C   0  0  0  0  0  0  0  0  0  0  0  0
  187.1720  175.8730  134.8230 C   0  0  0  0  0  3  0  0  0  0  0  0
  189.4540  177.2890  134.9060 S   0  0  0  0  0  0  0  0  0  0  0  0
  190.6720  176.6710  139.9140 N   0  0  0  0  0  0  0  0  0  0  0  0
  188.4330  177.2430  139.3320 C   0  0  0  0  0  3  0  0  0  0  0  0
  190.9950  176.4920  138.6080 C   0  0  0  0  0  0  0  0  0  0  0  0
  192.6010  175.8660  136.9560 N   0  0  0  0  0  0  0  0  0  0  0  0
  192.2690  176.0370  138.2620 C   0  0  0  0  0  3  0  0  0  0  0  0
  189.4280  177.0680  140.3020 C   0  0  0  0  0  0  0  0  0  0  0  0
  190.4460  176.6260  136.2460 C   0  0  0  0  0  0  0  0  0  0  0  0
  190.0460  176.7470  137.5940 C   0  0  0  0  0  0  0  0  0  0  0  0
  191.7300  176.1620  135.9530 C   0  0  0  0  0  3  0  0  0  0  0  0
  185.8790  175.3010  135.2950 C   0  0  0  0  0  2  0  0  0  0  0  0
  184.8990  176.3930  135.5810 C   0  0  0  0  0  0  0  0  0  0  0  0
  185.1250  177.2850  136.5560 C   0  0  0  0  0  3  0  0  0  0  0  0
  187.9330  176.6610  135.5830 C   0  0  0  0  0  0  0  0  0  0  0  0
  186.3540  177.3550  137.3730 C   0  0  0  0  0  3  0  0  0  0  0  0
  187.6030  177.0440  136.9780 C   0  0  0  0  0  0  0  0  0  0  0  0
  187.5740  177.8600  143.5140 C   0  0  0  0  0  3  0  0  0  0  0  0
  190.1260  177.0380  142.6980 C   0  0  0  0  0  3  0  0  0  0  0  0
  189.2930  177.5910  146.7840 C   0  0  0  0  0  0  0  0  0  0  0  0
  188.2960  177.8170  145.8250 C   0  0  0  0  0  3  0  0  0  0  0  0
  188.5680  177.6340  144.4670 C   0  0  0  0  0  0  0  0  0  0  0  0
  190.8500  176.9940  145.0100 C   0  0  0  0  0  3  0  0  0  0  0  0
  189.8550  177.2200  144.0560 C   0  0  0  0  0  0  0  0  0  0  0  0
  190.5700  177.1800  146.3670 C   0  0  0  0  0  3  0  0  0  0  0  0
  189.1290  177.2630  141.7360 C   0  0  0  0  0  0  0  0  0  0  0  0
  187.8530  177.6750  142.1560 C   0  0  0  0  0  3  0  0  0  0  0  0
  189.0100  177.7790  148.1770 N   0  0  0  0  0  0  0  0  0  0  0  0
  189.8010  178.4120  148.9070 O   0  0  0  0  0  0  0  0  0  0  0  0
  187.8580  177.2650  148.7260 O   0  0  0  0  0  0  0  0  0  0  0  0
  183.7240  176.4340  134.8230 O   0  0  0  0  0  0  0  0  0  0  0  0
  182.4250  176.3950  135.4000 C   0  0  0  0  0  2  0  0  0  0  0  0
  182.1740  175.0220  135.9870 C   0  0  0  0  0  1  0  0  0  0  0  0
  1  5  1  0  0  0  0
  2 13  1  0  0  0  0
  2 16  2  0  0  0  0
  3 16  1  0  0  0  0
  3 10  1  0  0  0  0
  4  9  1  0  0  0  0
  5  9  2  0  0  0  0
  6  4  2  0  0  0  0
  7  8  2  0  0  0  0
  8  6  1  0  0  0  0
  9 27  1  0  0  0  0
 10 11  1  0  0  0  0
 11  1  2  0  0  0  0
 11  6  1  0  0  0  0
 12 10  2  0  0  0  0
 12  7  1  0  0  0  0
 13 14  1  0  0  0  0
 14 15  2  0  0  0  0
 15 17  1  0  0  0  0
 16 18  1  0  0  0  0
 18 17  2  0  0  0  0
 18  1  1  0  0  0  0
 19 23  1  0  0  0  0
 20 25  1  0  0  0  0
 21 29  1  0  0  0  0
 22 21  2  0  0  0  0
 23 22  1  0  0  0  0
 24 26  2  0  0  0  0
 25 23  2  0  0  0  0
 25 24  1  0  0  0  0
 26 21  1  0  0  0  0
 27 28  1  0  0  0  0
 27 20  2  0  0  0  0
 28 19  2  0  0  0  0
 29 31  2  0  0  0  0
 29 30  2  0  0  0  0
 32 33  1  0  0  0  0
 32 14  1  0  0  0  0
 33 34  1  0  0  0  0
M  END
>  <MODEL>
5

>  <REMARK>
 VINA RESULT:      -8.4      3.110      5.842
  Name = 
  4 active torsions:
  status: ('A' for Active; 'I' for Inactive)
    1  A    between atoms: O_3  and  C_13
    2  A    between atoms: O_3  and  C_25
    3  A    between atoms: C_7  and  N_11
    4  A    between atoms: C_18  and  C_30
                            x       y       z     vdW  Elec       q    Type
                         _______ _______ _______ _____ _____    ______ ____

>  <TORSDO>
F 4

$$$$
=
 OpenBabel10272415223D

 34 39  0  0  0  0  0  0  0  0999 V2000
  182.6390  177.3620  138.7510 C   0  0  0  0  0  0  0  0  0  0  0  0
  182.9300  175.8950  135.3630 C   0  0  0  0  0  3  0  0  0  0  0  0
  180.7570  177.2240  136.2190 S   0  0  0  0  0  0  0  0  0  0  0  0
  182.7940  179.6500  140.3310 N   0  0  0  0  0  0  0  0  0  0  0  0
  183.2530  177.3340  140.0130 C   0  0  0  0  0  3  0  0  0  0  0  0
  182.1890  179.7260  139.1180 C   0  0  0  0  0  0  0  0  0  0  0  0
  181.1110  181.0340  137.4370 N   0  0  0  0  0  0  0  0  0  0  0  0
  181.7270  180.9550  138.6460 C   0  0  0  0  0  3  0  0  0  0  0  0
  183.3020  178.4830  140.8130 C   0  0  0  0  0  0  0  0  0  0  0  0
  181.3320  178.6760  137.1030 C   0  0  0  0  0  0  0  0  0  0  0  0
  182.0380  178.5700  138.3210 C   0  0  0  0  0  0  0  0  0  0  0  0
  180.8950  179.9300  136.6730 C   0  0  0  0  0  3  0  0  0  0  0  0
  184.2180  175.1500  135.4430 C   0  0  0  0  0  2  0  0  0  0  0  0
  184.0330  173.8660  136.1860 C   0  0  0  0  0  0  0  0  0  0  0  0
  183.6840  173.8620  137.4810 C   0  0  0  0  0  3  0  0  0  0  0  0
  182.2930  176.3530  136.4410 C   0  0  0  0  0  0  0  0  0  0  0  0
  183.3670  175.0660  138.2770 C   0  0  0  0  0  3  0  0  0  0  0  0
  182.7890  176.1980  137.8300 C   0  0  0  0  0  0  0  0  0  0  0  0
  183.8270  178.7850  144.5570 C   0  0  0  0  0  3  0  0  0  0  0  0
  185.2780  178.0480  142.2750 C   0  0  0  0  0  3  0  0  0  0  0  0
  187.1090  177.9500  146.0610 C   0  0  0  0  0  0  0  0  0  0  0  0
  185.7710  178.3520  145.9350 C   0  0  0  0  0  3  0  0  0  0  0  0
  185.1590  178.3850  144.6790 C   0  0  0  0  0  0  0  0  0  0  0  0
  187.2230  177.6140  143.6530 C   0  0  0  0  0  3  0  0  0  0  0  0
  185.8900  178.0140  143.5300 C   0  0  0  0  0  0  0  0  0  0  0  0
  187.8290  177.5840  144.9120 C   0  0  0  0  0  3  0  0  0  0  0  0
  183.9390  178.4490  142.1460 C   0  0  0  0  0  0  0  0  0  0  0  0
  183.2210  178.8170  143.2970 C   0  0  0  0  0  3  0  0  0  0  0  0
  187.7330  177.9170  147.3510 N   0  0  0  0  0  0  0  0  0  0  0  0
  187.4390  178.7630  148.2210 O   0  0  0  0  0  0  0  0  0  0  0  0
  188.6640  176.9470  147.6470 O   0  0  0  0  0  0  0  0  0  0  0  0
  184.2670  172.6700  135.4980 O   0  0  0  0  0  0  0  0  0  0  0  0
  183.2750  171.6680  135.3200 C   0  0  0  0  0  2  0  0  0  0  0  0
  183.7190  170.3910  136.0010 C   0  0  0  0  0  1  0  0  0  0  0  0
  1  5  1  0  0  0  0
  2 13  1  0  0  0  0
  2 16  2  0  0  0  0
  3 16  1  0  0  0  0
  3 10  1  0  0  0  0
  4  9  1  0  0  0  0
  5  9  2  0  0  0  0
  6  4  2  0  0  0  0
  7  8  2  0  0  0  0
  8  6  1  0  0  0  0
  9 27  1  0  0  0  0
 10 11  1  0  0  0  0
 11  1  2  0  0  0  0
 11  6  1  0  0  0  0
 12 10  2  0  0  0  0
 12  7  1  0  0  0  0
 13 14  1  0  0  0  0
 14 15  2  0  0  0  0
 15 17  1  0  0  0  0
 16 18  1  0  0  0  0
 18 17  2  0  0  0  0
 18  1  1  0  0  0  0
 19 23  1  0  0  0  0
 20 25  1  0  0  0  0
 21 29  1  0  0  0  0
 22 21  1  0  0  0  0
 23 22  2  0  0  0  0
 24 26  1  0  0  0  0
 25 24  2  0  0  0  0
 25 23  1  0  0  0  0
 26 21  2  0  0  0  0
 27 20  2  0  0  0  0
 27 28  1  0  0  0  0
 28 19  2  0  0  0  0
 29 31  2  0  0  0  0
 29 30  2  0  0  0  0
 32 14  1  0  0  0  0
 33 32  1  0  0  0  0
 33 34  1  0  0  0  0
M  END
>  <MODEL>
6

>  <REMARK>
 VINA RESULT:      -8.3      6.701      7.932
  Name = 
  4 active torsions:
  status: ('A' for Active; 'I' for Inactive)
    1  A    between atoms: O_3  and  C_13
    2  A    between atoms: O_3  and  C_25
    3  A    between atoms: C_7  and  N_11
    4  A    between atoms: C_18  and  C_30
                            x       y       z     vdW  Elec       q    Type
                         _______ _______ _______ _____ _____    ______ ____

>  <TORSDO>
F 4

$$$$
=
 OpenBabel10272415223D

 34 39  0  0  0  0  0  0  0  0999 V2000
  190.8210  176.9920  139.2560 C   0  0  0  0  0  0  0  0  0  0  0  0
  188.6510  176.9530  142.2570 C   0  0  0  0  0  3  0  0  0  0  0  0
  188.1200  178.4140  140.0650 S   0  0  0  0  0  0  0  0  0  0  0  0
  191.2580  176.0500  136.6720 N   0  0  0  0  0  0  0  0  0  0  0  0
  192.1030  176.6140  138.8270 C   0  0  0  0  0  3  0  0  0  0  0  0
  190.0000  176.4040  137.0410 C   0  0  0  0  0  0  0  0  0  0  0  0
  187.6780  176.5830  136.5180 N   0  0  0  0  0  0  0  0  0  0  0  0
  188.9360  176.2200  136.1570 C   0  0  0  0  0  3  0  0  0  0  0  0
  192.3180  176.1680  137.5170 C   0  0  0  0  0  0  0  0  0  0  0  0
  188.4500  177.3760  138.6390 C   0  0  0  0  0  0  0  0  0  0  0  0
  189.7570  176.9450  138.3220 C   0  0  0  0  0  0  0  0  0  0  0  0
  187.4200  177.1640  137.7200 C   0  0  0  0  0  3  0  0  0  0  0  0
  189.4470  176.1420  143.2210 C   0  0  0  0  0  2  0  0  0  0  0  0
  190.5540  176.9610  143.8030 C   0  0  0  0  0  0  0  0  0  0  0  0
  191.5420  177.4330  143.0300 C   0  0  0  0  0  3  0  0  0  0  0  0
  189.1690  177.4540  141.1350 C   0  0  0  0  0  0  0  0  0  0  0  0
  191.6130  177.2890  141.5610 C   0  0  0  0  0  3  0  0  0  0  0  0
  190.5740  177.2530  140.7040 C   0  0  0  0  0  0  0  0  0  0  0  0
  195.5050  175.9690  135.4700 C   0  0  0  0  0  3  0  0  0  0  0  0
  194.4170  174.8450  137.7960 C   0  0  0  0  0  3  0  0  0  0  0  0
  198.2650  173.7290  136.5160 C   0  0  0  0  0  0  0  0  0  0  0  0
  197.5220  174.6640  135.7810 C   0  0  0  0  0  3  0  0  0  0  0  0
  196.2430  175.0380  136.2030 C   0  0  0  0  0  0  0  0  0  0  0  0
  196.4340  173.5390  138.1080 C   0  0  0  0  0  3  0  0  0  0  0  0
  195.6950  174.4710  137.3750 C   0  0  0  0  0  0  0  0  0  0  0  0
  197.7120  173.1700  137.6790 C   0  0  0  0  0  3  0  0  0  0  0  0
  193.6710  175.7810  137.0630 C   0  0  0  0  0  0  0  0  0  0  0  0
  194.2260  176.3380  135.8980 C   0  0  0  0  0  3  0  0  0  0  0  0
  199.5770  173.3490  136.0800 N   0  0  0  0  0  0  0  0  0  0  0  0
  200.1680  174.0050  135.1970 O   0  0  0  0  0  0  0  0  0  0  0  0
  200.2030  172.2550  136.6320 O   0  0  0  0  0  0  0  0  0  0  0  0
  190.5450  177.1890  145.1830 O   0  0  0  0  0  0  0  0  0  0  0  0
  189.4000  177.6530  145.8870 C   0  0  0  0  0  2  0  0  0  0  0  0
  189.2820  176.9150  147.2030 C   0  0  0  0  0  1  0  0  0  0  0  0
  1 18  1  0  0  0  0
  2 13  1  0  0  0  0
  3 16  1  0  0  0  0
  4  6  2  0  0  0  0
  4  9  1  0  0  0  0
  5  1  1  0  0  0  0
  6 11  1  0  0  0  0
  7 12  1  0  0  0  0
  8  7  2  0  0  0  0
  8  6  1  0  0  0  0
  9  5  2  0  0  0  0
 10  3  1  0  0  0  0
 11 10  1  0  0  0  0
 11  1  2  0  0  0  0
 12 10  2  0  0  0  0
 13 14  1  0  0  0  0
 14 32  1  0  0  0  0
 15 14  2  0  0  0  0
 16  2  2  0  0  0  0
 17 15  1  0  0  0  0
 18 16  1  0  0  0  0
 18 17  2  0  0  0  0
 19 28  2  0  0  0  0
 19 23  1  0  0  0  0
 21 26  1  0  0  0  0
 22 23  1  0  0  0  0
 22 21  2  0  0  0  0
 23 25  2  0  0  0  0
 25 20  1  0  0  0  0
 25 24  1  0  0  0  0
 26 24  2  0  0  0  0
 27  9  1  0  0  0  0
 27 20  2  0  0  0  0
 28 27  1  0  0  0  0
 29 21  1  0  0  0  0
 29 31  2  0  0  0  0
 30 29  2  0  0  0  0
 32 33  1  0  0  0  0
 33 34  1  0  0  0  0
M  END
>  <MODEL>
7

>  <REMARK>
 VINA RESULT:      -8.1      2.940      9.380
  Name = 
  4 active torsions:
  status: ('A' for Active; 'I' for Inactive)
    1  A    between atoms: O_3  and  C_13
    2  A    between atoms: O_3  and  C_25
    3  A    between atoms: C_7  and  N_11
    4  A    between atoms: C_18  and  C_30
                            x       y       z     vdW  Elec       q    Type
                         _______ _______ _______ _____ _____    ______ ____

>  <TORSDO>
F 4

$$$$
=
 OpenBabel10272415223D

 34 39  0  0  0  0  0  0  0  0999 V2000
  189.5840  176.3680  137.9260 C   0  0  0  0  0  0  0  0  0  0  0  0
  189.1300  174.2450  134.9270 C   0  0  0  0  0  3  0  0  0  0  0  0
  190.8000  176.3470  135.0120 S   0  0  0  0  0  0  0  0  0  0  0  0
  191.1440  176.9670  140.1550 N   0  0  0  0  0  0  0  0  0  0  0  0
  188.9970  176.6450  139.1710 C   0  0  0  0  0  3  0  0  0  0  0  0
  191.7560  176.7070  138.9710 C   0  0  0  0  0  0  0  0  0  0  0  0
  193.7670  176.4170  137.7180 N   0  0  0  0  0  0  0  0  0  0  0  0
  193.1490  176.6660  138.9020 C   0  0  0  0  0  3  0  0  0  0  0  0
  189.7880  176.9720  140.2800 C   0  0  0  0  0  0  0  0  0  0  0  0
  191.6660  176.2780  136.5820 C   0  0  0  0  0  0  0  0  0  0  0  0
  190.9920  176.4640  137.8090 C   0  0  0  0  0  0  0  0  0  0  0  0
  193.0620  176.2400  136.5690 C   0  0  0  0  0  3  0  0  0  0  0  0
  188.0100  173.3480  135.3320 C   0  0  0  0  0  2  0  0  0  0  0  0
  186.7050  174.0710  135.2470 C   0  0  0  0  0  0  0  0  0  0  0  0
  186.4490  175.1270  136.0320 C   0  0  0  0  0  3  0  0  0  0  0  0
  189.4460  175.3520  135.5980 C   0  0  0  0  0  0  0  0  0  0  0  0
  187.4120  175.7370  136.9730 C   0  0  0  0  0  3  0  0  0  0  0  0
  188.7480  175.8120  136.8230 C   0  0  0  0  0  0  0  0  0  0  0  0
  189.3360  177.5130  144.0070 C   0  0  0  0  0  3  0  0  0  0  0  0
  187.8080  177.6090  141.6590 C   0  0  0  0  0  3  0  0  0  0  0  0
  186.0270  178.4670  145.3730 C   0  0  0  0  0  0  0  0  0  0  0  0
  187.3870  178.1320  145.3040 C   0  0  0  0  0  3  0  0  0  0  0  0
  187.9820  177.8460  144.0720 C   0  0  0  0  0  0  0  0  0  0  0  0
  185.8570  178.2280  142.9560 C   0  0  0  0  0  3  0  0  0  0  0  0
  187.2120  177.8940  142.8900 C   0  0  0  0  0  0  0  0  0  0  0  0
  185.2680  178.5110  144.1920 C   0  0  0  0  0  3  0  0  0  0  0  0
  189.1680  177.2740  141.5880 C   0  0  0  0  0  0  0  0  0  0  0  0
  189.9260  177.2290  142.7710 C   0  0  0  0  0  3  0  0  0  0  0  0
  185.4200  178.7600  146.6390 N   0  0  0  0  0  0  0  0  0  0  0  0
  184.3840  178.1640  146.9990 O   0  0  0  0  0  0  0  0  0  0  0  0
  185.9760  179.7020  147.4730 O   0  0  0  0  0  0  0  0  0  0  0  0
  185.7470  173.5910  134.3470 O   0  0  0  0  0  0  0  0  0  0  0  0
  184.8510  172.5320  134.6580 C   0  0  0  0  0  2  0  0  0  0  0  0
  183.8330  173.0120  135.6700 C   0  0  0  0  0  1  0  0  0  0  0  0
  1  5  1  0  0  0  0
  2 13  1  0  0  0  0
  2 16  2  0  0  0  0
  3 16  1  0  0  0  0
  3 10  1  0  0  0  0
  4  9  1  0  0  0  0
  5  9  2  0  0  0  0
  6  4  2  0  0  0  0
  7  8  2  0  0  0  0
  8  6  1  0  0  0  0
  9 27  1  0  0  0  0
 10 11  1  0  0  0  0
 11  1  2  0  0  0  0
 11  6  1  0  0  0  0
 12 10  2  0  0  0  0
 12  7  1  0  0  0  0
 14 13  1  0  0  0  0
 14 15  2  0  0  0  0
 15 17  1  0  0  0  0
 16 18  1  0  0  0  0
 18 17  2  0  0  0  0
 18  1  1  0  0  0  0
 19 23  1  0  0  0  0
 20 25  1  0  0  0  0
 21 29  1  0  0  0  0
 22 21  1  0  0  0  0
 23 22  2  0  0  0  0
 24 26  1  0  0  0  0
 25 24  2  0  0  0  0
 25 23  1  0  0  0  0
 26 21  2  0  0  0  0
 27 20  2  0  0  0  0
 27 28  1  0  0  0  0
 28 19  2  0  0  0  0
 29 30  2  0  0  0  0
 29 31  2  0  0  0  0
 32 33  1  0  0  0  0
 32 14  1  0  0  0  0
 33 34  1  0  0  0  0
M  END
>  <MODEL>
8

>  <REMARK>
 VINA RESULT:      -8.1      3.233      5.290
  Name = 
  4 active torsions:
  status: ('A' for Active; 'I' for Inactive)
    1  A    between atoms: O_3  and  C_13
    2  A    between atoms: O_3  and  C_25
    3  A    between atoms: C_7  and  N_11
    4  A    between atoms: C_18  and  C_30
                            x       y       z     vdW  Elec       q    Type
                         _______ _______ _______ _____ _____    ______ ____

>  <TORSDO>
F 4

$$$$
=
 OpenBabel10272415223D

 34 39  0  0  0  0  0  0  0  0999 V2000
  183.1120  177.8900  141.0410 C   0  0  0  0  0  0  0  0  0  0  0  0
  181.4420  178.5190  137.7970 C   0  0  0  0  0  3  0  0  0  0  0  0
  180.1190  177.8440  140.0360 S   0  0  0  0  0  0  0  0  0  0  0  0
  183.7930  178.8810  143.5530 N   0  0  0  0  0  0  0  0  0  0  0  0
  184.3830  177.6610  141.5930 C   0  0  0  0  0  3  0  0  0  0  0  0
  182.5520  179.1260  143.0610 C   0  0  0  0  0  0  0  0  0  0  0  0
  180.4190  180.1700  143.2960 N   0  0  0  0  0  0  0  0  0  0  0  0
  181.6650  179.9310  143.7780 C   0  0  0  0  0  3  0  0  0  0  0  0
  184.7070  178.1400  142.8680 C   0  0  0  0  0  0  0  0  0  0  0  0
  180.8280  178.7950  141.3820 C   0  0  0  0  0  0  0  0  0  0  0  0
  182.1540  178.5830  141.8200 C   0  0  0  0  0  0  0  0  0  0  0  0
  179.9830  179.6130  142.1340 C   0  0  0  0  0  3  0  0  0  0  0  0
  182.5940  178.6900  136.8670 C   0  0  0  0  0  2  0  0  0  0  0  0
  183.1840  177.3610  136.5180 C   0  0  0  0  0  0  0  0  0  0  0  0
  183.7570  176.5930  137.4550 C   0  0  0  0  0  3  0  0  0  0  0  0
  181.5710  178.0050  139.0200 C   0  0  0  0  0  0  0  0  0  0  0  0
  183.7970  176.9050  138.8990 C   0  0  0  0  0  3  0  0  0  0  0  0
  182.8610  177.5660  139.6060 C   0  0  0  0  0  0  0  0  0  0  0  0
  188.4190  177.4280  143.1840 C   0  0  0  0  0  3  0  0  0  0  0  0
  186.2060  177.8700  144.8460 C   0  0  0  0  0  3  0  0  0  0  0  0
  189.9960  177.1560  146.5260 C   0  0  0  0  0  0  0  0  0  0  0  0
  189.8340  177.1730  145.1330 C   0  0  0  0  0  3  0  0  0  0  0  0
  188.5770  177.4110  144.5710 C   0  0  0  0  0  0  0  0  0  0  0  0
  187.6210  177.6160  146.7960 C   0  0  0  0  0  3  0  0  0  0  0  0
  187.4620  177.6330  145.4090 C   0  0  0  0  0  0  0  0  0  0  0  0
  188.8810  177.3780  147.3510 C   0  0  0  0  0  3  0  0  0  0  0  0
  186.0420  177.8890  143.4530 C   0  0  0  0  0  0  0  0  0  0  0  0
  187.1580  177.6660  142.6290 C   0  0  0  0  0  3  0  0  0  0  0  0
  191.2880  176.9120  147.0990 N   0  0  0  0  0  0  0  0  0  0  0  0
  191.5840  177.3790  148.2180 O   0  0  0  0  0  0  0  0  0  0  0  0
  192.2170  176.1590  146.4190 O   0  0  0  0  0  0  0  0  0  0  0  0
  183.1510  176.9610  135.1770 O   0  0  0  0  0  0  0  0  0  0  0  0
  182.8040  175.6440  134.7670 C   0  0  0  0  0  2  0  0  0  0  0  0
  181.3330  175.4050  135.0270 C   0  0  0  0  0  1  0  0  0  0  0  0
  1  5  2  0  0  0  0
  1 11  1  0  0  0  0
  2 16  2  0  0  0  0
  3 10  1  0  0  0  0
  5  9  1  0  0  0  0
  6  4  1  0  0  0  0
  6  8  1  0  0  0  0
  7  8  2  0  0  0  0
  9 27  1  0  0  0  0
  9  4  2  0  0  0  0
 10 11  1  0  0  0  0
 10 12  2  0  0  0  0
 11  6  2  0  0  0  0
 12  7  1  0  0  0  0
 13  2  1  0  0  0  0
 14 13  1  0  0  0  0
 14 15  2  0  0  0  0
 15 17  1  0  0  0  0
 16 18  1  0  0  0  0
 16  3  1  0  0  0  0
 17 18  2  0  0  0  0
 18  1  1  0  0  0  0
 19 23  1  0  0  0  0
 20 25  1  0  0  0  0
 21 29  1  0  0  0  0
 21 26  1  0  0  0  0
 22 21  2  0  0  0  0
 23 22  1  0  0  0  0
 23 25  2  0  0  0  0
 24 26  2  0  0  0  0
 25 24  1  0  0  0  0
 27 20  2  0  0  0  0
 28 19  2  0  0  0  0
 28 27  1  0  0  0  0
 29 30  2  0  0  0  0
 31 29  2  0  0  0  0
 32 14  1  0  0  0  0
 33 34  1  0  0  0  0
 33 32  1  0  0  0  0
M  END
>  <MODEL>
9

>  <REMARK>
 VINA RESULT:      -8.1      6.389      8.561
  Name = 
  4 active torsions:
  status: ('A' for Active; 'I' for Inactive)
    1  A    between atoms: O_3  and  C_13
    2  A    between atoms: O_3  and  C_25
    3  A    between atoms: C_7  and  N_11
    4  A    between atoms: C_18  and  C_30
                            x       y       z     vdW  Elec       q    Type
                         _______ _______ _______ _____ _____    ______ ____

>  <TORSDO>
F 4

$$$$
