=
 OpenBabel10272413273D

 32 38  0  0  1  0  0  0  0  0999 V2000
  189.1700  174.7960  137.2290 C   0  0  0  0  0  2  0  0  0  0  0  0
  191.2260  175.8120  136.0420 C   0  0  1  0  0  3  0  0  0  0  0  0
  191.0080  174.6090  135.1020 C   0  0  1  0  0  3  0  0  0  0  0  0
  193.5080  174.7220  136.5990 C   0  0  2  0  0  3  0  0  0  0  0  0
  192.5890  173.5140  136.8000 C   0  0  0  0  0  2  0  0  0  0  0  0
  191.6770  173.3110  135.5890 C   0  0  0  0  0  2  0  0  0  0  0  0
  193.1390  176.5880  137.6160 C   0  0  0  0  0  2  0  0  0  0  0  0
  188.5500  174.8680  135.8320 C   0  0  1  0  0  3  0  0  0  0  0  0
  189.5330  174.3570  134.7640 C   0  0  0  0  0  2  0  0  0  0  0  0
  193.8910  175.3090  137.9450 C   0  0  0  0  0  2  0  0  0  0  0  0
  190.3860  175.7260  137.3440 C   0  0  1  0  0  3  0  0  0  0  0  0
  192.7490  176.0110  136.2640 C   0  0  2  0  0  3  0  0  0  0  0  0
  188.3120  177.2680  139.9800 O   0  0  0  0  0  0  0  0  0  0  0  0
  190.5290  176.4980  140.2860 C   0  0  0  0  0  2  0  0  0  0  0  0
  187.9050  178.0580  138.9000 C   0  0  0  0  0  2  0  0  0  0  0  0
  188.3950  178.5120  136.5110 C   0  0  0  0  0  1  0  0  0  0  0  0
  188.5210  177.4980  137.6290 C   0  0  1  0  0  3  0  0  0  0  0  0
  190.0000  177.1270  137.8390 C   0  0  1  0  0  3  0  0  0  0  0  0
  189.6060  177.6980  140.3240 C   0  0  1  0  0  3  0  0  0  0  0  0
  190.6390  177.5420  139.1880 C   0  0  1  0  0  3  0  0  0  0  0  0
  185.4000  174.4470  137.2740 C   0  0  0  0  0  3  0  0  0  0  0  0
  187.1770  174.1730  135.7510 C   0  0  1  0  0  0  0  0  0  0  0  0
  186.9100  173.6470  134.3460 C   0  0  0  0  0  1  0  0  0  0  0  0
  185.9420  173.2890  137.5990 C   0  0  0  0  0  3  0  0  0  0  0  0
  187.1130  172.9870  136.7190 C   0  0  0  0  0  2  0  0  0  0  0  0
  186.0910  175.0450  136.1940 N   0  0  0  0  0  0  0  0  0  0  0  0
  185.7180  176.3310  135.6180 C   0  0  0  0  0  2  0  0  0  0  0  0
  182.9700  176.8540  135.8780 S   0  0  0  0  0  0  0  0  0  0  0  0
  184.7050  177.6320  137.4980 N   0  0  0  0  0  0  0  0  0  0  0  0
  182.4000  177.7570  137.1800 C   0  0  0  0  0  3  0  0  0  0  0  0
  184.5700  176.9240  136.3600 C   0  0  0  0  0  0  0  0  0  0  0  0
  183.5080  178.0910  137.9570 C   0  0  0  0  0  3  0  0  0  0  0  0
  1 11  1  0  0  0  0
  2 12  1  0  0  0  0
  2 11  1  0  0  0  0
  3  6  1  0  0  0  0
  3  2  1  0  0  0  0
  4  5  1  0  0  0  0
  4 10  1  0  0  0  0
  6  5  1  0  0  0  0
  7 10  1  0  0  0  0
  8  1  1  0  0  0  0
  9  3  1  0  0  0  0
  9  8  1  0  0  0  0
 11 18  1  0  0  0  0
 12  4  1  0  0  0  0
 12  7  1  0  0  0  0
 13 19  1  0  0  0  0
 14 19  1  0  0  0  0
 15 13  1  0  0  0  0
 16 17  1  0  0  0  0
 17 18  1  0  0  0  0
 17 15  1  0  0  0  0
 18 20  1  0  0  0  0
 20 14  1  0  0  0  0
 20 19  1  0  0  0  0
 21 24  2  0  0  0  0
 22  8  1  0  0  0  0
 22 26  1  0  0  0  0
 22 25  1  0  0  0  0
 23 22  1  0  0  0  0
 25 24  1  0  0  0  0
 26 21  1  0  0  0  0
 27 26  1  0  0  0  0
 27 31  1  0  0  0  0
 28 31  1  0  0  0  0
 28 30  1  0  0  0  0
 29 32  1  0  0  0  0
 30 32  2  0  0  0  0
 31 29  2  0  0  0  0
M  END
>  <MODEL>
1

>  <REMARK>
 VINA RESULT:      -5.4      0.000      0.000
  Name = 
  4 active torsions:
  status: ('A' for Active; 'I' for Inactive)
    1  A    between atoms: C_8  and  C_28
    2  A    between atoms: C_16  and  C_31
    3  A    between atoms: C_19  and  C_24
    4  A    between atoms: N_23  and  C_24
                            x       y       z     vdW  Elec       q    Type
                         _______ _______ _______ _____ _____    ______ ____

>  <TORSDO>
F 4

$$$$
=
 OpenBabel10272413273D

 32 38  0  0  1  0  0  0  0  0999 V2000
  189.6320  176.5290  140.1800 C   0  0  0  0  0  2  0  0  0  0  0  0
  189.1630  178.5120  138.5930 C   0  0  1  0  0  3  0  0  0  0  0  0
  188.2520  178.9490  139.7600 C   0  0  1  0  0  3  0  0  0  0  0  0
  186.9850  178.3560  137.2020 C   0  0  2  0  0  3  0  0  0  0  0  0
  186.5630  177.5480  138.4310 C   0  0  0  0  0  2  0  0  0  0  0  0
  186.8470  178.3210  139.7200 C   0  0  0  0  0  2  0  0  0  0  0  0
  188.7800  177.8720  136.1070 C   0  0  0  0  0  2  0  0  0  0  0  0
  189.9540  177.6390  141.1830 C   0  0  1  0  0  3  0  0  0  0  0  0
  188.8900  178.7490  141.1410 C   0  0  0  0  0  2  0  0  0  0  0  0
  187.3290  177.4170  136.0600 C   0  0  0  0  0  2  0  0  0  0  0  0
  189.6780  177.0550  138.7390 C   0  0  1  0  0  3  0  0  0  0  0  0
  188.4460  178.8160  137.2510 C   0  0  2  0  0  3  0  0  0  0  0  0
  192.0840  174.3750  137.9290 O   0  0  0  0  0  0  0  0  0  0  0  0
  190.2550  175.0030  136.5650 C   0  0  0  0  0  2  0  0  0  0  0  0
  192.9710  175.2880  138.5100 C   0  0  0  0  0  2  0  0  0  0  0  0
  193.0970  177.6000  139.4000 C   0  0  0  0  0  1  0  0  0  0  0  0
  192.1690  176.4450  139.0840 C   0  0  1  0  0  3  0  0  0  0  0  0
  191.0710  176.9040  138.1090 C   0  0  1  0  0  3  0  0  0  0  0  0
  191.7620  174.8860  136.6590 C   0  0  1  0  0  3  0  0  0  0  0  0
  191.0830  176.2710  136.6950 C   0  0  1  0  0  3  0  0  0  0  0  0
  189.3870  178.0710  144.6000 C   0  0  0  0  0  3  0  0  0  0  0  0
  190.1930  177.1040  142.6090 C   0  0  1  0  0  0  0  0  0  0  0  0
  190.6130  175.6390  142.5820 C   0  0  0  0  0  1  0  0  0  0  0  0
  190.6550  178.4300  144.5450 C   0  0  0  0  0  3  0  0  0  0  0  0
  191.3030  177.8990  143.3050 C   0  0  0  0  0  2  0  0  0  0  0  0
  189.0310  177.2940  143.4720 N   0  0  0  0  0  0  0  0  0  0  0  0
  187.6920  176.7570  143.2600 C   0  0  0  0  0  2  0  0  0  0  0  0
  186.3330  177.6860  145.5370 S   0  0  0  0  0  0  0  0  0  0  0  0
  185.8590  178.4570  143.2080 N   0  0  0  0  0  0  0  0  0  0  0  0
  185.1010  178.8240  145.3810 C   0  0  0  0  0  3  0  0  0  0  0  0
  186.6690  177.6320  143.8990 C   0  0  0  0  0  0  0  0  0  0  0  0
  184.9940  179.1210  144.0230 C   0  0  0  0  0  3  0  0  0  0  0  0
  1  8  1  0  0  0  0
  2 11  1  0  0  0  0
  2  3  1  0  0  0  0
  3  9  1  0  0  0  0
  4 12  1  0  0  0  0
  4  5  1  0  0  0  0
  5  6  1  0  0  0  0
  6  3  1  0  0  0  0
  7 12  1  0  0  0  0
  8 22  1  0  0  0  0
  9  8  1  0  0  0  0
 10  7  1  0  0  0  0
 10  4  1  0  0  0  0
 11  1  1  0  0  0  0
 12  2  1  0  0  0  0
 13 15  1  0  0  0  0
 14 19  1  0  0  0  0
 14 20  1  0  0  0  0
 15 17  1  0  0  0  0
 17 16  1  0  0  0  0
 18 11  1  0  0  0  0
 18 17  1  0  0  0  0
 19 20  1  0  0  0  0
 19 13  1  0  0  0  0
 20 18  1  0  0  0  0
 22 25  1  0  0  0  0
 22 26  1  0  0  0  0
 23 22  1  0  0  0  0
 24 21  2  0  0  0  0
 25 24  1  0  0  0  0
 26 21  1  0  0  0  0
 27 26  1  0  0  0  0
 27 31  1  0  0  0  0
 29 31  2  0  0  0  0
 29 32  1  0  0  0  0
 30 28  1  0  0  0  0
 31 28  1  0  0  0  0
 32 30  2  0  0  0  0
M  END
>  <MODEL>
2

>  <REMARK>
 VINA RESULT:      -5.3      3.676      6.801
  Name = 
  4 active torsions:
  status: ('A' for Active; 'I' for Inactive)
    1  A    between atoms: C_8  and  C_28
    2  A    between atoms: C_16  and  C_31
    3  A    between atoms: C_19  and  C_24
    4  A    between atoms: N_23  and  C_24
                            x       y       z     vdW  Elec       q    Type
                         _______ _______ _______ _____ _____    ______ ____

>  <TORSDO>
F 4

$$$$
=
 OpenBabel10272413273D

 32 38  0  0  1  0  0  0  0  0999 V2000
  188.8450  178.3760  142.3620 C   0  0  0  0  0  2  0  0  0  0  0  0
  186.6960  177.3330  143.3430 C   0  0  1  0  0  3  0  0  0  0  0  0
  186.0890  177.8910  142.0380 C   0  0  1  0  0  3  0  0  0  0  0  0
  185.0990  178.9670  144.5610 C   0  0  2  0  0  3  0  0  0  0  0  0
  185.7340  179.9290  143.5540 C   0  0  0  0  0  2  0  0  0  0  0  0
  185.6600  179.3660  142.1340 C   0  0  0  0  0  2  0  0  0  0  0  0
  186.3140  177.7620  145.8740 C   0  0  0  0  0  2  0  0  0  0  0  0
  188.4760  177.5430  141.1330 C   0  0  1  0  0  3  0  0  0  0  0  0
  186.9780  177.6700  140.8080 C   0  0  0  0  0  2  0  0  0  0  0  0
  185.7270  179.1630  145.9290 C   0  0  0  0  0  2  0  0  0  0  0  0
  188.1300  177.8570  143.6170 C   0  0  1  0  0  3  0  0  0  0  0  0
  185.6900  177.5540  144.5030 C   0  0  2  0  0  3  0  0  0  0  0  0
  191.3370  177.6280  145.4320 O   0  0  0  0  0  0  0  0  0  0  0  0
  189.3050  178.3900  146.3760 C   0  0  0  0  0  2  0  0  0  0  0  0
  191.4490  176.4690  144.6560 C   0  0  0  0  0  2  0  0  0  0  0  0
  190.1760  175.0390  143.0790 C   0  0  0  0  0  1  0  0  0  0  0  0
  190.2850  176.4250  143.6800 C   0  0  1  0  0  3  0  0  0  0  0  0
  188.9620  176.8060  144.3660 C   0  0  1  0  0  3  0  0  0  0  0  0
  190.3980  177.3450  146.4400 C   0  0  1  0  0  3  0  0  0  0  0  0
  188.9980  176.9780  145.9060 C   0  0  1  0  0  3  0  0  0  0  0  0
  190.6780  176.2750  138.7400 C   0  0  0  0  0  3  0  0  0  0  0  0
  189.3730  177.8440  139.9160 C   0  0  1  0  0  0  0  0  0  0  0  0
  188.9820  179.1640  139.2600 C   0  0  0  0  0  1  0  0  0  0  0  0
  191.5390  176.9160  139.5060 C   0  0  0  0  0  3  0  0  0  0  0  0
  190.8420  177.9450  140.3390 C   0  0  0  0  0  2  0  0  0  0  0  0
  189.3630  176.7570  138.9400 N   0  0  0  0  0  0  0  0  0  0  0  0
  188.2020  176.2360  138.2300 C   0  0  0  0  0  2  0  0  0  0  0  0
  188.6460  175.0160  135.7380 S   0  0  0  0  0  0  0  0  0  0  0  0
  188.4680  177.4850  136.0800 N   0  0  0  0  0  0  0  0  0  0  0  0
  188.8260  175.9590  134.3550 C   0  0  0  0  0  3  0  0  0  0  0  0
  188.4070  176.3220  136.7570 C   0  0  0  0  0  0  0  0  0  0  0  0
  188.6950  177.2890  134.7520 C   0  0  0  0  0  3  0  0  0  0  0  0
  1 11  1  0  0  0  0
  2 11  1  0  0  0  0
  2 12  1  0  0  0  0
  3  6  1  0  0  0  0
  3  2  1  0  0  0  0
  4 10  1  0  0  0  0
  5  4  1  0  0  0  0
  6  5  1  0  0  0  0
  7 10  1  0  0  0  0
  8  1  1  0  0  0  0
  9  8  1  0  0  0  0
  9  3  1  0  0  0  0
 11 18  1  0  0  0  0
 12  4  1  0  0  0  0
 12  7  1  0  0  0  0
 13 19  1  0  0  0  0
 14 19  1  0  0  0  0
 15 13  1  0  0  0  0
 16 17  1  0  0  0  0
 17 18  1  0  0  0  0
 17 15  1  0  0  0  0
 18 20  1  0  0  0  0
 20 14  1  0  0  0  0
 20 19  1  0  0  0  0
 21 26  1  0  0  0  0
 21 24  2  0  0  0  0
 22 25  1  0  0  0  0
 22  8  1  0  0  0  0
 23 22  1  0  0  0  0
 24 25  1  0  0  0  0
 26 22  1  0  0  0  0
 27 26  1  0  0  0  0
 28 31  1  0  0  0  0
 29 31  2  0  0  0  0
 30 32  2  0  0  0  0
 30 28  1  0  0  0  0
 31 27  1  0  0  0  0
 32 29  1  0  0  0  0
M  END
>  <MODEL>
3

>  <REMARK>
 VINA RESULT:      -5.3      4.181      7.701
  Name = 
  4 active torsions:
  status: ('A' for Active; 'I' for Inactive)
    1  A    between atoms: C_8  and  C_28
    2  A    between atoms: C_16  and  C_31
    3  A    between atoms: C_19  and  C_24
    4  A    between atoms: N_23  and  C_24
                            x       y       z     vdW  Elec       q    Type
                         _______ _______ _______ _____ _____    ______ ____

>  <TORSDO>
F 4

$$$$
=
 OpenBabel10272413273D

 32 38  0  0  1  0  0  0  0  0999 V2000
  185.2680  175.0710  135.6050 C   0  0  0  0  0  2  0  0  0  0  0  0
  184.5390  173.2480  137.2830 C   0  0  1  0  0  3  0  0  0  0  0  0
  186.0280  172.8560  137.1710 C   0  0  1  0  0  3  0  0  0  0  0  0
  184.0440  170.9150  136.2750 C   0  0  2  0  0  3  0  0  0  0  0  0
  185.0840  171.4140  135.2700 C   0  0  0  0  0  2  0  0  0  0  0  0
  186.3370  171.9260  135.9840 C   0  0  0  0  0  2  0  0  0  0  0  0
  182.2870  172.0790  136.7380 C   0  0  0  0  0  2  0  0  0  0  0  0
  186.3390  175.3620  136.6570 C   0  0  1  0  0  3  0  0  0  0  0  0
  186.9780  174.0600  137.1700 C   0  0  0  0  0  2  0  0  0  0  0  0
  182.6520  171.0440  135.6850 C   0  0  0  0  0  2  0  0  0  0  0  0
  184.1000  174.2770  136.2070 C   0  0  1  0  0  3  0  0  0  0  0  0
  183.6790  171.9580  137.3380 C   0  0  2  0  0  3  0  0  0  0  0  0
  182.9320  177.7570  135.8110 O   0  0  0  0  0  0  0  0  0  0  0  0
  182.3610  175.9700  134.3690 C   0  0  0  0  0  2  0  0  0  0  0  0
  182.8870  177.6750  137.2070 C   0  0  0  0  0  2  0  0  0  0  0  0
  183.1430  176.0740  139.0840 C   0  0  0  0  0  1  0  0  0  0  0  0
  183.4900  176.3480  137.6350 C   0  0  1  0  0  3  0  0  0  0  0  0
  182.9930  175.1930  136.7480 C   0  0  1  0  0  3  0  0  0  0  0  0
  181.8380  177.0140  135.3320 C   0  0  1  0  0  3  0  0  0  0  0  0
  181.8680  175.5250  135.7350 C   0  0  1  0  0  3  0  0  0  0  0  0
  187.3320  178.7060  136.5720 C   0  0  0  0  0  3  0  0  0  0  0  0
  187.3860  176.3850  136.1760 C   0  0  1  0  0  0  0  0  0  0  0  0
  188.6980  175.6980  135.8130 C   0  0  0  0  0  1  0  0  0  0  0  0
  186.9230  178.5720  135.3260 C   0  0  0  0  0  3  0  0  0  0  0  0
  186.8840  177.1290  134.9340 C   0  0  0  0  0  2  0  0  0  0  0  0
  187.6100  177.4470  137.1530 N   0  0  0  0  0  0  0  0  0  0  0  0
  188.0800  177.2840  138.5240 C   0  0  0  0  0  2  0  0  0  0  0  0
  187.5740  178.3990  141.0520 S   0  0  0  0  0  0  0  0  0  0  0  0
  185.9280  178.3800  139.1730 N   0  0  0  0  0  0  0  0  0  0  0  0
  186.0790  179.1000  141.3840 C   0  0  0  0  0  3  0  0  0  0  0  0
  187.1860  178.0030  139.4730 C   0  0  0  0  0  0  0  0  0  0  0  0
  185.3140  178.9900  140.2230 C   0  0  0  0  0  3  0  0  0  0  0  0
  1 11  1  0  0  0  0
  1  8  1  0  0  0  0
  2 12  1  0  0  0  0
  3  2  1  0  0  0  0
  4 12  1  0  0  0  0
  5  6  1  0  0  0  0
  5  4  1  0  0  0  0
  6  3  1  0  0  0  0
  7 12  1  0  0  0  0
  8  9  1  0  0  0  0
  9  3  1  0  0  0  0
 10  4  1  0  0  0  0
 10  7  1  0  0  0  0
 11 18  1  0  0  0  0
 11  2  1  0  0  0  0
 13 15  1  0  0  0  0
 14 19  1  0  0  0  0
 14 20  1  0  0  0  0
 15 17  1  0  0  0  0
 17 16  1  0  0  0  0
 18 17  1  0  0  0  0
 19 20  1  0  0  0  0
 19 13  1  0  0  0  0
 20 18  1  0  0  0  0
 21 26  1  0  0  0  0
 22  8  1  0  0  0  0
 22 26  1  0  0  0  0
 23 22  1  0  0  0  0
 24 21  2  0  0  0  0
 25 24  1  0  0  0  0
 25 22  1  0  0  0  0
 26 27  1  0  0  0  0
 27 31  1  0  0  0  0
 28 30  1  0  0  0  0
 29 31  2  0  0  0  0
 29 32  1  0  0  0  0
 31 28  1  0  0  0  0
 32 30  2  0  0  0  0
M  END
>  <MODEL>
4

>  <REMARK>
 VINA RESULT:      -5.2      3.148      6.748
  Name = 
  4 active torsions:
  status: ('A' for Active; 'I' for Inactive)
    1  A    between atoms: C_8  and  C_28
    2  A    between atoms: C_16  and  C_31
    3  A    between atoms: C_19  and  C_24
    4  A    between atoms: N_23  and  C_24
                            x       y       z     vdW  Elec       q    Type
                         _______ _______ _______ _____ _____    ______ ____

>  <TORSDO>
F 4

$$$$
=
 OpenBabel10272413273D

 32 38  0  0  1  0  0  0  0  0999 V2000
  185.0450  176.4810  138.0110 C   0  0  0  0  0  2  0  0  0  0  0  0
  183.0310  178.0970  138.0100 C   0  0  1  0  0  3  0  0  0  0  0  0
  183.9760  178.9310  138.9010 C   0  0  1  0  0  3  0  0  0  0  0  0
  181.4860  177.9810  140.0840 C   0  0  2  0  0  3  0  0  0  0  0  0
  182.8080  177.5540  140.7250 C   0  0  0  0  0  2  0  0  0  0  0  0
  183.9250  178.5450  140.3910 C   0  0  0  0  0  2  0  0  0  0  0  0
  180.7130  176.9760  138.3390 C   0  0  0  0  0  2  0  0  0  0  0  0
  185.8160  177.7230  137.5610 C   0  0  1  0  0  3  0  0  0  0  0  0
  185.4260  178.9500  138.4020 C   0  0  0  0  0  2  0  0  0  0  0  0
  180.6130  176.7630  139.8410 C   0  0  0  0  0  2  0  0  0  0  0  0
  183.5380  176.6490  137.7770 C   0  0  1  0  0  3  0  0  0  0  0  0
  181.5880  178.1980  138.5700 C   0  0  2  0  0  3  0  0  0  0  0  0
  184.6810  174.2390  135.2240 O   0  0  0  0  0  0  0  0  0  0  0  0
  183.3950  173.6770  137.1300 C   0  0  0  0  0  2  0  0  0  0  0  0
  184.3940  175.3190  134.3830 C   0  0  0  0  0  2  0  0  0  0  0  0
  183.3960  177.5900  134.3840 C   0  0  0  0  0  1  0  0  0  0  0  0
  184.0440  176.5230  135.2420 C   0  0  1  0  0  3  0  0  0  0  0  0
  183.1040  176.1350  136.3960 C   0  0  1  0  0  3  0  0  0  0  0  0
  183.4430  173.6990  135.6170 C   0  0  1  0  0  3  0  0  0  0  0  0
  182.5430  174.6900  136.3840 C   0  0  1  0  0  3  0  0  0  0  0  0
  188.9820  178.9980  138.2900 C   0  0  0  0  0  3  0  0  0  0  0  0
  187.3400  177.4970  137.5170 C   0  0  1  0  0  0  0  0  0  0  0  0
  187.6700  176.0180  137.3460 C   0  0  0  0  0  1  0  0  0  0  0  0
  188.9880  179.1450  136.9790 C   0  0  0  0  0  3  0  0  0  0  0  0
  187.9650  178.2570  136.3420 C   0  0  0  0  0  2  0  0  0  0  0  0
  188.0140  178.0470  138.6900 N   0  0  0  0  0  0  0  0  0  0  0  0
  187.7810  177.6780  140.0810 C   0  0  0  0  0  2  0  0  0  0  0  0
  190.4740  176.9140  140.3110 S   0  0  0  0  0  0  0  0  0  0  0  0
  189.2180  178.1710  142.0670 N   0  0  0  0  0  0  0  0  0  0  0  0
  191.3430  177.2870  141.7040 C   0  0  0  0  0  3  0  0  0  0  0  0
  189.0640  177.6450  140.8360 C   0  0  0  0  0  0  0  0  0  0  0  0
  190.4770  177.9800  142.5480 C   0  0  0  0  0  3  0  0  0  0  0  0
  2 12  1  0  0  0  0
  2  3  1  0  0  0  0
  3  6  1  0  0  0  0
  4  5  1  0  0  0  0
  6  5  1  0  0  0  0
  7 12  1  0  0  0  0
  7 10  1  0  0  0  0
  8  1  1  0  0  0  0
  8  9  1  0  0  0  0
  9  3  1  0  0  0  0
 10  4  1  0  0  0  0
 11  2  1  0  0  0  0
 11  1  1  0  0  0  0
 12  4  1  0  0  0  0
 13 19  1  0  0  0  0
 15 13  1  0  0  0  0
 15 17  1  0  0  0  0
 16 17  1  0  0  0  0
 17 18  1  0  0  0  0
 18 11  1  0  0  0  0
 19 20  1  0  0  0  0
 19 14  1  0  0  0  0
 20 18  1  0  0  0  0
 20 14  1  0  0  0  0
 21 26  1  0  0  0  0
 22  8  1  0  0  0  0
 22 26  1  0  0  0  0
 23 22  1  0  0  0  0
 24 21  2  0  0  0  0
 25 24  1  0  0  0  0
 25 22  1  0  0  0  0
 26 27  1  0  0  0  0
 27 31  1  0  0  0  0
 28 31  1  0  0  0  0
 28 30  1  0  0  0  0
 29 32  1  0  0  0  0
 30 32  2  0  0  0  0
 31 29  2  0  0  0  0
M  END
>  <MODEL>
5

>  <REMARK>
 VINA RESULT:      -5.0      3.693      8.108
  Name = 
  4 active torsions:
  status: ('A' for Active; 'I' for Inactive)
    1  A    between atoms: C_8  and  C_28
    2  A    between atoms: C_16  and  C_31
    3  A    between atoms: C_19  and  C_24
    4  A    between atoms: N_23  and  C_24
                            x       y       z     vdW  Elec       q    Type
                         _______ _______ _______ _____ _____    ______ ____

>  <TORSDO>
F 4

$$$$
=
 OpenBabel10272413273D

 32 38  0  0  1  0  0  0  0  0999 V2000
  189.2090  176.5040  136.2260 C   0  0  0  0  0  2  0  0  0  0  0  0
  190.5740  174.4930  137.1010 C   0  0  1  0  0  3  0  0  0  0  0  0
  191.2300  175.5920  137.9640 C   0  0  1  0  0  3  0  0  0  0  0  0
  192.9210  174.1780  136.0540 C   0  0  2  0  0  3  0  0  0  0  0  0
  192.7830  175.6960  135.9250 C   0  0  0  0  0  2  0  0  0  0  0  0
  192.3840  176.3280  137.2600 C   0  0  0  0  0  2  0  0  0  0  0  0
  191.4110  172.8480  135.2770 C   0  0  0  0  0  2  0  0  0  0  0  0
  188.9360  176.7390  137.7130 C   0  0  1  0  0  3  0  0  0  0  0  0
  190.2250  176.5970  138.5400 C   0  0  0  0  0  2  0  0  0  0  0  0
  192.6540  173.5180  134.7140 C   0  0  0  0  0  2  0  0  0  0  0  0
  189.6780  175.0650  135.9690 C   0  0  1  0  0  3  0  0  0  0  0  0
  191.6680  173.5020  136.6250 C   0  0  2  0  0  3  0  0  0  0  0  0
  185.9900  175.0640  136.1380 O   0  0  0  0  0  0  0  0  0  0  0  0
  187.2580  175.9490  134.3460 C   0  0  0  0  0  2  0  0  0  0  0  0
  186.2290  173.8130  136.7170 C   0  0  0  0  0  2  0  0  0  0  0  0
  188.0460  172.1940  137.1980 C   0  0  0  0  0  1  0  0  0  0  0  0
  187.7280  173.6460  136.9080 C   0  0  1  0  0  3  0  0  0  0  0  0
  188.5080  174.1180  135.6680 C   0  0  1  0  0  3  0  0  0  0  0  0
  186.2300  174.9180  134.7600 C   0  0  1  0  0  3  0  0  0  0  0  0
  187.6720  174.4890  134.4180 C   0  0  1  0  0  3  0  0  0  0  0  0
  186.5580  178.4270  139.6290 C   0  0  0  0  0  3  0  0  0  0  0  0
  188.2040  178.0680  137.9830 C   0  0  1  0  0  0  0  0  0  0  0  0
  188.9700  179.2460  137.3920 C   0  0  0  0  0  1  0  0  0  0  0  0
  185.8820  178.3090  138.5030 C   0  0  0  0  0  3  0  0  0  0  0  0
  186.8060  178.0520  137.3550 C   0  0  0  0  0  2  0  0  0  0  0  0
  187.9460  178.2770  139.4050 N   0  0  0  0  0  0  0  0  0  0  0  0
  188.9420  178.3590  140.4670 C   0  0  0  0  0  2  0  0  0  0  0  0
  189.0290  176.5070  142.5780 S   0  0  0  0  0  0  0  0  0  0  0  0
  187.2880  178.2830  142.3410 N   0  0  0  0  0  0  0  0  0  0  0  0
  187.8500  176.5390  143.7800 C   0  0  0  0  0  3  0  0  0  0  0  0
  188.3960  177.8100  141.7400 C   0  0  0  0  0  0  0  0  0  0  0  0
  186.9850  177.5870  143.4710 C   0  0  0  0  0  3  0  0  0  0  0  0
  1  8  1  0  0  0  0
  2  3  1  0  0  0  0
  3  9  1  0  0  0  0
  4 12  1  0  0  0  0
  5  4  1  0  0  0  0
  5  6  1  0  0  0  0
  6  3  1  0  0  0  0
  7 12  1  0  0  0  0
  8 22  1  0  0  0  0
  8  9  1  0  0  0  0
 10  7  1  0  0  0  0
 10  4  1  0  0  0  0
 11  1  1  0  0  0  0
 11  2  1  0  0  0  0
 12  2  1  0  0  0  0
 13 15  1  0  0  0  0
 14 20  1  0  0  0  0
 14 19  1  0  0  0  0
 15 17  1  0  0  0  0
 17 16  1  0  0  0  0
 18 11  1  0  0  0  0
 18 17  1  0  0  0  0
 19 13  1  0  0  0  0
 20 19  1  0  0  0  0
 20 18  1  0  0  0  0
 22 26  1  0  0  0  0
 23 22  1  0  0  0  0
 24 21  2  0  0  0  0
 25 22  1  0  0  0  0
 25 24  1  0  0  0  0
 26 21  1  0  0  0  0
 26 27  1  0  0  0  0
 27 31  1  0  0  0  0
 28 30  1  0  0  0  0
 29 32  1  0  0  0  0
 31 29  2  0  0  0  0
 31 28  1  0  0  0  0
 32 30  2  0  0  0  0
M  END
>  <MODEL>
6

>  <REMARK>
 VINA RESULT:      -5.0      2.666      5.148
  Name = 
  4 active torsions:
  status: ('A' for Active; 'I' for Inactive)
    1  A    between atoms: C_8  and  C_28
    2  A    between atoms: C_16  and  C_31
    3  A    between atoms: C_19  and  C_24
    4  A    between atoms: N_23  and  C_24
                            x       y       z     vdW  Elec       q    Type
                         _______ _______ _______ _____ _____    ______ ____

>  <TORSDO>
F 4

$$$$
=
 OpenBabel10272413273D

 32 38  0  0  1  0  0  0  0  0999 V2000
  183.7480  176.6640  138.1770 C   0  0  0  0  0  2  0  0  0  0  0  0
  182.5370  178.7950  138.9890 C   0  0  1  0  0  3  0  0  0  0  0  0
  183.9740  179.2030  139.3770 C   0  0  1  0  0  3  0  0  0  0  0  0
  182.0220  178.9080  141.5230 C   0  0  2  0  0  3  0  0  0  0  0  0
  183.2800  178.0380  141.5550 C   0  0  0  0  0  2  0  0  0  0  0  0
  184.4150  178.6830  140.7570 C   0  0  0  0  0  2  0  0  0  0  0  0
  180.3300  178.3850  140.2920 C   0  0  0  0  0  2  0  0  0  0  0  0
  184.6190  177.6630  137.4140 C   0  0  1  0  0  3  0  0  0  0  0  0
  185.0180  178.8470  138.3120 C   0  0  0  0  0  2  0  0  0  0  0  0
  180.7890  178.0410  141.7000 C   0  0  0  0  0  2  0  0  0  0  0  0
  182.4150  177.2980  138.5970 C   0  0  1  0  0  3  0  0  0  0  0  0
  181.5610  179.2570  140.1030 C   0  0  2  0  0  3  0  0  0  0  0  0
  181.3250  174.7330  136.1770 O   0  0  0  0  0  0  0  0  0  0  0  0
  180.7400  174.7590  138.4700 C   0  0  0  0  0  2  0  0  0  0  0  0
  181.2550  175.8540  135.3430 C   0  0  0  0  0  2  0  0  0  0  0  0
  181.4490  178.3270  135.3680 C   0  0  0  0  0  1  0  0  0  0  0  0
  181.8250  177.0490  136.0900 C   0  0  1  0  0  3  0  0  0  0  0  0
  181.3180  177.0970  137.5420 C   0  0  1  0  0  3  0  0  0  0  0  0
  180.2240  174.8140  137.0480 C   0  0  1  0  0  3  0  0  0  0  0  0
  180.2160  176.0790  137.9310 C   0  0  1  0  0  3  0  0  0  0  0  0
  187.7970  178.1010  136.0390 C   0  0  0  0  0  3  0  0  0  0  0  0
  185.8340  177.0000  136.7350 C   0  0  1  0  0  0  0  0  0  0  0  0
  185.8400  175.4950  136.9710 C   0  0  0  0  0  1  0  0  0  0  0  0
  187.1060  177.9190  134.9300 C   0  0  0  0  0  3  0  0  0  0  0  0
  185.8050  177.2400  135.2220 C   0  0  0  0  0  2  0  0  0  0  0  0
  187.0980  177.5970  137.1600 N   0  0  0  0  0  0  0  0  0  0  0  0
  187.6160  177.6580  138.5220 C   0  0  0  0  0  2  0  0  0  0  0  0
  189.5600  175.7880  137.7360 S   0  0  0  0  0  0  0  0  0  0  0  0
  189.9730  177.6420  139.3590 N   0  0  0  0  0  0  0  0  0  0  0  0
  191.1150  175.8640  138.3780 C   0  0  0  0  0  3  0  0  0  0  0  0
  189.0060  177.1250  138.5770 C   0  0  0  0  0  0  0  0  0  0  0  0
  191.1410  176.9520  139.2490 C   0  0  0  0  0  3  0  0  0  0  0  0
  1 11  1  0  0  0  0
  2  3  1  0  0  0  0
  2 12  1  0  0  0  0
  3  6  1  0  0  0  0
  4  5  1  0  0  0  0
  4 10  1  0  0  0  0
  6  5  1  0  0  0  0
  7 10  1  0  0  0  0
  8  1  1  0  0  0  0
  8  9  1  0  0  0  0
  9  3  1  0  0  0  0
 11  2  1  0  0  0  0
 12  7  1  0  0  0  0
 12  4  1  0  0  0  0
 13 19  1  0  0  0  0
 15 17  1  0  0  0  0
 15 13  1  0  0  0  0
 16 17  1  0  0  0  0
 17 18  1  0  0  0  0
 18 20  1  0  0  0  0
 18 11  1  0  0  0  0
 19 20  1  0  0  0  0
 19 14  1  0  0  0  0
 20 14  1  0  0  0  0
 21 26  1  0  0  0  0
 22 23  1  0  0  0  0
 22 26  1  0  0  0  0
 22  8  1  0  0  0  0
 24 25  1  0  0  0  0
 24 21  2  0  0  0  0
 25 22  1  0  0  0  0
 26 27  1  0  0  0  0
 27 31  1  0  0  0  0
 28 30  1  0  0  0  0
 28 31  1  0  0  0  0
 30 32  2  0  0  0  0
 31 29  2  0  0  0  0
 32 29  1  0  0  0  0
M  END
>  <MODEL>
7

>  <REMARK>
 VINA RESULT:      -4.8      3.151      8.442
  Name = 
  4 active torsions:
  status: ('A' for Active; 'I' for Inactive)
    1  A    between atoms: C_8  and  C_28
    2  A    between atoms: C_16  and  C_31
    3  A    between atoms: C_19  and  C_24
    4  A    between atoms: N_23  and  C_24
                            x       y       z     vdW  Elec       q    Type
                         _______ _______ _______ _____ _____    ______ ____

>  <TORSDO>
F 4

$$$$
=
 OpenBabel10272413273D

 32 38  0  0  1  0  0  0  0  0999 V2000
  187.4650  178.9270  144.2520 C   0  0  0  0  0  2  0  0  0  0  0  0
  187.4020  177.1270  146.1040 C   0  0  1  0  0  3  0  0  0  0  0  0
  186.0030  177.7320  146.3430 C   0  0  1  0  0  3  0  0  0  0  0  0
  187.9570  177.9460  148.4960 C   0  0  2  0  0  3  0  0  0  0  0  0
  187.3670  179.2320  147.9150 C   0  0  0  0  0  2  0  0  0  0  0  0
  186.0090  178.9670  147.2610 C   0  0  0  0  0  2  0  0  0  0  0  0
  189.5730  176.9110  147.5100 C   0  0  0  0  0  2  0  0  0  0  0  0
  186.1430  178.2850  143.8300 C   0  0  1  0  0  3  0  0  0  0  0  0
  185.2370  178.0320  145.0470 C   0  0  0  0  0  2  0  0  0  0  0  0
  189.4720  178.0390  148.5250 C   0  0  0  0  0  2  0  0  0  0  0  0
  188.2780  177.9820  145.1490 C   0  0  1  0  0  3  0  0  0  0  0  0
  188.0560  176.8080  147.4740 C   0  0  2  0  0  3  0  0  0  0  0  0
  190.3070  178.1630  142.0710 O   0  0  0  0  0  0  0  0  0  0  0  0
  190.9890  178.9780  144.1850 C   0  0  0  0  0  2  0  0  0  0  0  0
  189.7300  176.9040  141.8710 C   0  0  0  0  0  2  0  0  0  0  0  0
  188.3160  175.1990  142.9870 C   0  0  0  0  0  1  0  0  0  0  0  0
  188.7000  176.6640  142.9620 C   0  0  1  0  0  3  0  0  0  0  0  0
  189.2330  177.0920  144.3410 C   0  0  1  0  0  3  0  0  0  0  0  0
  191.2850  177.9990  143.0680 C   0  0  1  0  0  3  0  0  0  0  0  0
  190.7260  177.4990  144.4160 C   0  0  1  0  0  3  0  0  0  0  0  0
  184.3130  178.1370  140.8610 C   0  0  0  0  0  3  0  0  0  0  0  0
  185.4260  179.0720  142.7150 C   0  0  1  0  0  0  0  0  0  0  0  0
  185.1110  180.4940  143.1630 C   0  0  0  0  0  1  0  0  0  0  0  0
  185.4690  178.5510  140.3810 C   0  0  0  0  0  3  0  0  0  0  0  0
  186.3060  179.1570  141.4630 C   0  0  0  0  0  2  0  0  0  0  0  0
  184.2190  178.3950  142.2490 N   0  0  0  0  0  0  0  0  0  0  0  0
  183.0530  178.0460  143.0510 C   0  0  0  0  0  2  0  0  0  0  0  0
  181.2280  178.7080  141.0200 S   0  0  0  0  0  0  0  0  0  0  0  0
  181.1420  179.6330  143.3390 N   0  0  0  0  0  0  0  0  0  0  0  0
  179.9870  179.8040  141.3230 C   0  0  0  0  0  3  0  0  0  0  0  0
  181.8490  178.7800  142.5730 C   0  0  0  0  0  0  0  0  0  0  0  0
  180.1100  180.1980  142.6550 C   0  0  0  0  0  3  0  0  0  0  0  0
  1 11  1  0  0  0  0
  2  3  1  0  0  0  0
  2 12  1  0  0  0  0
  3  6  1  0  0  0  0
  4 10  1  0  0  0  0
  5  4  1  0  0  0  0
  6  5  1  0  0  0  0
  7 10  1  0  0  0  0
  8  1  1  0  0  0  0
  8  9  1  0  0  0  0
  9  3  1  0  0  0  0
 11  2  1  0  0  0  0
 12  7  1  0  0  0  0
 12  4  1  0  0  0  0
 13 19  1  0  0  0  0
 14 20  1  0  0  0  0
 15 13  1  0  0  0  0
 15 17  1  0  0  0  0
 17 16  1  0  0  0  0
 17 18  1  0  0  0  0
 18 20  1  0  0  0  0
 18 11  1  0  0  0  0
 19 14  1  0  0  0  0
 19 20  1  0  0  0  0
 21 26  1  0  0  0  0
 22 23  1  0  0  0  0
 22  8  1  0  0  0  0
 24 21  2  0  0  0  0
 24 25  1  0  0  0  0
 25 22  1  0  0  0  0
 26 22  1  0  0  0  0
 26 27  1  0  0  0  0
 28 30  1  0  0  0  0
 28 31  1  0  0  0  0
 30 32  2  0  0  0  0
 31 27  1  0  0  0  0
 31 29  2  0  0  0  0
 32 29  1  0  0  0  0
M  END
>  <MODEL>
8

>  <REMARK>
 VINA RESULT:      -4.8      5.528      8.754
  Name = 
  4 active torsions:
  status: ('A' for Active; 'I' for Inactive)
    1  A    between atoms: C_8  and  C_28
    2  A    between atoms: C_16  and  C_31
    3  A    between atoms: C_19  and  C_24
    4  A    between atoms: N_23  and  C_24
                            x       y       z     vdW  Elec       q    Type
                         _______ _______ _______ _____ _____    ______ ____

>  <TORSDO>
F 4

$$$$
=
 OpenBabel10272413273D

 32 38  0  0  1  0  0  0  0  0999 V2000
  184.6860  174.9180  135.8260 C   0  0  0  0  0  2  0  0  0  0  0  0
  183.9120  172.8810  137.2110 C   0  0  1  0  0  3  0  0  0  0  0  0
  185.4070  172.5120  137.1010 C   0  0  1  0  0  3  0  0  0  0  0  0
  183.4720  170.7060  135.8770 C   0  0  2  0  0  3  0  0  0  0  0  0
  184.5440  171.3410  134.9880 C   0  0  0  0  0  2  0  0  0  0  0  0
  185.7660  171.7540  135.8100 C   0  0  0  0  0  2  0  0  0  0  0  0
  181.6910  171.7910  136.4290 C   0  0  0  0  0  2  0  0  0  0  0  0
  185.7170  175.0650  136.9460 C   0  0  1  0  0  3  0  0  0  0  0  0
  186.3470  173.7070  137.2990 C   0  0  0  0  0  2  0  0  0  0  0  0
  182.1010  170.9100  135.2590 C   0  0  0  0  0  2  0  0  0  0  0  0
  183.5040  174.0460  136.2710 C   0  0  1  0  0  3  0  0  0  0  0  0
  183.0610  171.5930  137.0580 C   0  0  2  0  0  3  0  0  0  0  0  0
  181.9920  177.3940  135.9050 O   0  0  0  0  0  0  0  0  0  0  0  0
  181.4590  175.5200  134.5630 C   0  0  0  0  0  2  0  0  0  0  0  0
  182.0800  177.3520  137.3010 C   0  0  0  0  0  2  0  0  0  0  0  0
  182.6500  175.8380  139.1820 C   0  0  0  0  0  1  0  0  0  0  0  0
  182.8380  176.0970  137.7020 C   0  0  1  0  0  3  0  0  0  0  0  0
  182.3710  174.8760  136.8910 C   0  0  1  0  0  3  0  0  0  0  0  0
  180.9320  176.5430  135.5470 C   0  0  1  0  0  3  0  0  0  0  0  0
  181.1340  175.0760  135.9790 C   0  0  1  0  0  3  0  0  0  0  0  0
  188.4140  176.9250  138.1480 C   0  0  0  0  0  3  0  0  0  0  0  0
  186.7730  176.1480  136.6480 C   0  0  1  0  0  0  0  0  0  0  0  0
  186.9500  176.3420  135.1470 C   0  0  0  0  0  1  0  0  0  0  0  0
  187.4870  177.8630  138.1550 C   0  0  0  0  0  3  0  0  0  0  0  0
  186.3530  177.4930  137.2510 C   0  0  0  0  0  2  0  0  0  0  0  0
  188.0530  175.8610  137.2890 N   0  0  0  0  0  0  0  0  0  0  0  0
  188.8860  174.6820  137.0810 C   0  0  0  0  0  2  0  0  0  0  0  0
  191.0620  175.8900  135.7780 S   0  0  0  0  0  0  0  0  0  0  0  0
  191.2180  174.7310  137.9850 N   0  0  0  0  0  0  0  0  0  0  0  0
  192.5950  175.8480  136.4730 C   0  0  0  0  0  3  0  0  0  0  0  0
  190.3260  175.0610  137.0310 C   0  0  0  0  0  0  0  0  0  0  0  0
  192.4710  175.1670  137.6840 C   0  0  0  0  0  3  0  0  0  0  0  0
  1 11  1  0  0  0  0
  1  8  1  0  0  0  0
  3  2  1  0  0  0  0
  3  9  1  0  0  0  0
  4 12  1  0  0  0  0
  5  6  1  0  0  0  0
  5  4  1  0  0  0  0
  6  3  1  0  0  0  0
  7 12  1  0  0  0  0
  8  9  1  0  0  0  0
 10  4  1  0  0  0  0
 10  7  1  0  0  0  0
 11 18  1  0  0  0  0
 11  2  1  0  0  0  0
 12  2  1  0  0  0  0
 13 15  1  0  0  0  0
 14 19  1  0  0  0  0
 14 20  1  0  0  0  0
 15 17  1  0  0  0  0
 17 16  1  0  0  0  0
 18 17  1  0  0  0  0
 19 13  1  0  0  0  0
 19 20  1  0  0  0  0
 20 18  1  0  0  0  0
 21 24  2  0  0  0  0
 22  8  1  0  0  0  0
 22 25  1  0  0  0  0
 22 26  1  0  0  0  0
 23 22  1  0  0  0  0
 25 24  1  0  0  0  0
 26 21  1  0  0  0  0
 27 26  1  0  0  0  0
 28 30  1  0  0  0  0
 28 31  1  0  0  0  0
 30 32  2  0  0  0  0
 31 27  1  0  0  0  0
 31 29  2  0  0  0  0
 32 29  1  0  0  0  0
M  END
>  <MODEL>
9

>  <REMARK>
 VINA RESULT:      -4.8      3.180      7.650
  Name = 
  4 active torsions:
  status: ('A' for Active; 'I' for Inactive)
    1  A    between atoms: C_8  and  C_28
    2  A    between atoms: C_16  and  C_31
    3  A    between atoms: C_19  and  C_24
    4  A    between atoms: N_23  and  C_24
                            x       y       z     vdW  Elec       q    Type
                         _______ _______ _______ _____ _____    ______ ____

>  <TORSDO>
F 4

$$$$
