=
 OpenBabel10272400223D

 31 35  0  0  1  0  0  0  0  0999 V2000
  187.5250  177.8050  146.0340 C   0  0  0  0  0  0  0  0  0  0  0  0
  191.2770  175.8380  136.1470 C   0  0  0  0  0  3  0  0  0  0  0  0
  187.5890  177.7480  143.5810 C   0  0  0  0  0  2  0  0  0  0  0  0
  189.1860  175.9740  137.5910 C   0  0  1  0  0  3  0  0  0  0  0  0
  188.3610  176.1330  136.3040 C   0  0  1  0  0  3  0  0  0  0  0  0
  190.9700  178.0710  144.8890 O   0  0  0  0  0  0  0  0  0  0  0  0
  190.9800  177.0120  142.4490 O   0  0  0  0  0  0  0  0  0  0  0  0
  186.7880  178.0420  147.0530 N   0  0  0  0  0  2  0  0  0  0  0  0
  189.7430  177.2520  142.4240 C   0  0  0  0  0  0  0  0  0  0  0  0
  186.6290  175.0150  134.9240 C   0  0  0  0  0  2  0  0  0  0  0  0
  186.9150  177.1810  144.8210 C   0  0  0  0  0  2  0  0  0  0  0  0
  190.6690  176.1530  137.3710 C   0  0  0  0  0  0  0  0  0  0  0  0
  193.4560  176.3090  137.0930 C   0  0  0  0  0  3  0  0  0  0  0  0
  187.1020  175.2780  136.3480 C   0  0  0  0  0  2  0  0  0  0  0  0
  189.5830  176.9160  139.8940 C   0  0  0  0  0  0  0  0  0  0  0  0
  193.4120  175.5570  134.4680 Cl  0  0  0  0  0  0  0  0  0  0  0  0
  188.0910  178.5050  136.8740 N   0  0  0  0  0  0  0  0  0  0  0  0
  185.6220  176.0510  134.4050 C   0  0  0  0  0  2  0  0  0  0  0  0
  189.7340  177.8260  144.8830 C   0  0  0  0  0  0  0  0  0  0  0  0
  190.8710  176.7940  139.7400 N   0  0  0  0  0  0  0  0  0  0  0  0
  188.6640  176.9010  138.7030 C   0  0  1  0  0  3  0  0  0  0  0  0
  189.0400  177.5630  143.6420 N   0  0  0  0  0  0  0  0  0  0  0  0
  189.0220  177.1900  141.1840 N   0  0  0  0  0  2  0  0  0  0  0  0
  189.0130  177.7710  146.2010 C   0  0  0  0  0  2  0  0  0  0  0  0
  192.6650  175.9310  136.0050 C   0  0  0  0  0  0  0  0  0  0  0  0
  185.9290  177.5230  134.7150 C   0  0  0  0  0  2  0  0  0  0  0  0
  191.4720  176.5190  138.4680 C   0  0  0  0  0  0  0  0  0  0  0  0
  192.8610  176.5980  138.3250 C   0  0  0  0  0  3  0  0  0  0  0  0
  188.5140  178.2570  138.1900 N   0  0  0  0  0  2  0  0  0  0  0  0
  188.0260  177.5670  135.9770 C   0  0  0  0  0  0  0  0  0  0  0  0
  187.4110  177.8710  134.6530 C   0  0  0  0  0  2  0  0  0  0  0  0
  1 24  1  0  0  0  0
  1  8  2  0  0  0  0
  2 12  1  0  0  0  0
  3 22  1  0  0  0  0
  3 11  1  0  0  0  0
  4 12  1  6  0  0  0
  4 21  1  0  0  0  0
  5 14  1  1  0  0  0
  5  4  1  0  0  0  0
  9  7  2  0  0  0  0
  9 22  1  0  0  0  0
 10 14  1  0  0  0  0
 11  1  1  0  0  0  0
 12 27  2  0  0  0  0
 13 28  2  0  0  0  0
 15 23  1  0  0  0  0
 16 25  1  0  0  0  0
 17 29  1  0  0  0  0
 18 26  1  0  0  0  0
 18 10  1  0  0  0  0
 19  6  2  0  0  0  0
 19 24  1  0  0  0  0
 20 15  2  0  0  0  0
 21 29  1  6  0  0  0
 21 15  1  0  0  0  0
 22 19  1  0  0  0  0
 23  9  1  0  0  0  0
 25  2  2  0  0  0  0
 25 13  1  0  0  0  0
 27 20  1  0  0  0  0
 28 27  1  0  0  0  0
 30  5  1  0  0  0  0
 30 17  2  0  0  0  0
 31 26  1  0  0  0  0
 31 30  1  0  0  0  0
M  END
>  <MODEL>
1

>  <REMARK>
 VINA RESULT:      -9.4      0.000      0.000
  Name = 
  0 active torsions:
  status: ('A' for Active; 'I' for Inactive)
                            x       y       z     vdW  Elec       q    Type
                         _______ _______ _______ _____ _____    ______ ____

>  <TORSDO>
F 0

$$$$
=
 OpenBabel10272400223D

 31 35  0  0  1  0  0  0  0  0999 V2000
  181.2920  178.1760  137.6560 C   0  0  0  0  0  0  0  0  0  0  0  0
  187.6740  177.6820  146.3020 C   0  0  0  0  0  3  0  0  0  0  0  0
  183.3630  178.1800  138.9740 C   0  0  0  0  0  2  0  0  0  0  0  0
  187.4680  177.1090  143.8300 C   0  0  1  0  0  3  0  0  0  0  0  0
  189.0000  177.0100  143.7700 C   0  0  1  0  0  3  0  0  0  0  0  0
  180.6440  179.5660  140.9590 O   0  0  0  0  0  0  0  0  0  0  0  0
  182.5760  178.6030  142.5140 O   0  0  0  0  0  0  0  0  0  0  0  0
  180.8100  178.1460  136.4720 N   0  0  0  0  0  2  0  0  0  0  0  0
  183.2350  178.4280  141.4530 C   0  0  0  0  0  0  0  0  0  0  0  0
  190.8580  175.4100  143.3890 C   0  0  0  0  0  2  0  0  0  0  0  0
  182.5360  177.4060  137.9590 C   0  0  0  0  0  2  0  0  0  0  0  0
  186.9640  177.7640  145.0940 C   0  0  0  0  0  0  0  0  0  0  0  0
  185.8740  178.8220  147.4520 C   0  0  0  0  0  3  0  0  0  0  0  0
  189.4430  175.7910  142.9720 C   0  0  0  0  0  2  0  0  0  0  0  0
  185.4380  178.0950  142.7080 C   0  0  0  0  0  0  0  0  0  0  0  0
  188.0380  178.1350  148.9690 Cl  0  0  0  0  0  0  0  0  0  0  0  0
  189.0070  179.1570  142.5810 N   0  0  0  0  0  0  0  0  0  0  0  0
  191.9520  176.0690  142.5390 C   0  0  0  0  0  2  0  0  0  0  0  0
  181.2120  178.9310  140.0290 C   0  0  0  0  0  0  0  0  0  0  0  0
  184.9270  178.4010  143.8670 N   0  0  0  0  0  0  0  0  0  0  0  0
  186.9080  177.8000  142.5740 C   0  0  1  0  0  3  0  0  0  0  0  0
  182.5760  178.4760  140.1740 N   0  0  0  0  0  0  0  0  0  0  0  0
  184.6430  178.1530  141.5180 N   0  0  0  0  0  2  0  0  0  0  0  0
  180.4200  178.6260  138.7890 C   0  0  0  0  0  2  0  0  0  0  0  0
  187.1360  178.2230  147.4720 C   0  0  0  0  0  0  0  0  0  0  0  0
  191.7640  177.5560  142.2080 C   0  0  0  0  0  2  0  0  0  0  0  0
  185.6870  178.3560  145.0820 C   0  0  0  0  0  0  0  0  0  0  0  0
  185.1480  178.8840  146.2590 C   0  0  0  0  0  3  0  0  0  0  0  0
  187.6300  179.0410  142.3240 N   0  0  0  0  0  2  0  0  0  0  0  0
  189.6660  178.2620  143.2540 C   0  0  0  0  0  0  0  0  0  0  0  0
  191.1500  178.3690  143.3420 C   0  0  0  0  0  2  0  0  0  0  0  0
  1 11  1  0  0  0  0
  1 24  1  0  0  0  0
  2 25  1  0  0  0  0
  3 22  1  0  0  0  0
  4 12  1  1  0  0  0
  5 14  1  6  0  0  0
  5  4  1  0  0  0  0
  8  1  2  0  0  0  0
  9 23  1  0  0  0  0
  9  7  2  0  0  0  0
 11  3  1  0  0  0  0
 12  2  2  0  0  0  0
 13 25  2  0  0  0  0
 14 10  1  0  0  0  0
 15 20  2  0  0  0  0
 17 30  2  0  0  0  0
 18 10  1  0  0  0  0
 19 22  1  0  0  0  0
 19  6  2  0  0  0  0
 20 27  1  0  0  0  0
 21 29  1  1  0  0  0
 21 15  1  0  0  0  0
 21  4  1  0  0  0  0
 22  9  1  0  0  0  0
 23 15  1  0  0  0  0
 24 19  1  0  0  0  0
 25 16  1  0  0  0  0
 26 18  1  0  0  0  0
 26 31  1  0  0  0  0
 27 12  1  0  0  0  0
 27 28  2  0  0  0  0
 28 13  1  0  0  0  0
 29 17  1  0  0  0  0
 30 31  1  0  0  0  0
 30  5  1  0  0  0  0
M  END
>  <MODEL>
2

>  <REMARK>
 VINA RESULT:      -9.1      5.475      9.208
  Name = 
  0 active torsions:
  status: ('A' for Active; 'I' for Inactive)
                            x       y       z     vdW  Elec       q    Type
                         _______ _______ _______ _____ _____    ______ ____

>  <TORSDO>
F 0

$$$$
=
 OpenBabel10272400223D

 31 35  0  0  1  0  0  0  0  0999 V2000
  188.3260  177.6040  147.4630 C   0  0  0  0  0  0  0  0  0  0  0  0
  186.3450  177.9570  136.8960 C   0  0  0  0  0  3  0  0  0  0  0  0
  187.1070  178.0390  145.3780 C   0  0  0  0  0  2  0  0  0  0  0  0
  185.3100  177.6270  139.1990 C   0  0  1  0  0  3  0  0  0  0  0  0
  183.9440  177.9670  138.5850 C   0  0  1  0  0  3  0  0  0  0  0  0
  190.6850  178.3820  144.8010 O   0  0  0  0  0  0  0  0  0  0  0  0
  189.3950  177.8310  142.5410 O   0  0  0  0  0  0  0  0  0  0  0  0
  188.2320  177.5710  148.7390 N   0  0  0  0  0  2  0  0  0  0  0  0
  188.3320  177.9660  143.2060 C   0  0  0  0  0  0  0  0  0  0  0  0
  181.7130  177.0020  138.0860 C   0  0  0  0  0  2  0  0  0  0  0  0
  187.1570  177.1830  146.6340 C   0  0  0  0  0  2  0  0  0  0  0  0
  186.4700  177.9700  138.2930 C   0  0  0  0  0  0  0  0  0  0  0  0
  188.7110  178.4130  136.6670 C   0  0  0  0  0  3  0  0  0  0  0  0
  182.8640  177.0170  139.0840 C   0  0  0  0  0  2  0  0  0  0  0  0
  186.8730  178.1240  141.1120 C   0  0  0  0  0  0  0  0  0  0  0  0
  187.2900  178.1950  134.3460 Cl  0  0  0  0  0  0  0  0  0  0  0  0
  184.0820  180.1480  139.7020 N   0  0  0  0  0  0  0  0  0  0  0  0
  180.6160  178.0310  138.3910 C   0  0  0  0  0  2  0  0  0  0  0  0
  189.6180  178.0380  145.3780 C   0  0  0  0  0  0  0  0  0  0  0  0
  187.8900  178.1450  140.2970 N   0  0  0  0  0  0  0  0  0  0  0  0
  185.4700  178.2680  140.5880 C   0  0  1  0  0  3  0  0  0  0  0  0
  188.3730  177.9690  144.6450 N   0  0  0  0  0  0  0  0  0  0  0  0
  187.0710  178.0890  142.5310 N   0  0  0  0  0  2  0  0  0  0  0  0
  189.6830  177.6630  146.8320 C   0  0  0  0  0  2  0  0  0  0  0  0
  187.4600  178.1930  136.0870 C   0  0  0  0  0  0  0  0  0  0  0  0
  181.0840  179.4330  138.8050 C   0  0  0  0  0  2  0  0  0  0  0  0
  187.7360  178.1790  138.8730 C   0  0  0  0  0  0  0  0  0  0  0  0
  188.8510  178.4020  138.0580 C   0  0  0  0  0  3  0  0  0  0  0  0
  185.1180  179.6820  140.5280 N   0  0  0  0  0  2  0  0  0  0  0  0
  183.5320  179.4040  138.7900 C   0  0  0  0  0  0  0  0  0  0  0  0
  182.3300  179.9110  138.0690 C   0  0  0  0  0  2  0  0  0  0  0  0
  1  8  2  0  0  0  0
  2 12  1  0  0  0  0
  3 11  1  0  0  0  0
  4 12  1  6  0  0  0
  4 21  1  0  0  0  0
  5 30  1  0  0  0  0
  5 14  1  1  0  0  0
  5  4  1  0  0  0  0
  6 19  2  0  0  0  0
  7  9  2  0  0  0  0
  9 22  1  0  0  0  0
 10 18  1  0  0  0  0
 10 14  1  0  0  0  0
 11  1  1  0  0  0  0
 12 27  2  0  0  0  0
 13 28  2  0  0  0  0
 15 23  1  0  0  0  0
 16 25  1  0  0  0  0
 17 29  1  0  0  0  0
 18 26  1  0  0  0  0
 19 24  1  0  0  0  0
 20 15  2  0  0  0  0
 21 29  1  6  0  0  0
 21 15  1  0  0  0  0
 22 19  1  0  0  0  0
 22  3  1  0  0  0  0
 23  9  1  0  0  0  0
 24  1  1  0  0  0  0
 25 13  1  0  0  0  0
 25  2  2  0  0  0  0
 27 20  1  0  0  0  0
 28 27  1  0  0  0  0
 30 17  2  0  0  0  0
 31 30  1  0  0  0  0
 31 26  1  0  0  0  0
M  END
>  <MODEL>
3

>  <REMARK>
 VINA RESULT:      -8.3      3.509      4.330
  Name = 
  0 active torsions:
  status: ('A' for Active; 'I' for Inactive)
                            x       y       z     vdW  Elec       q    Type
                         _______ _______ _______ _____ _____    ______ ____

>  <TORSDO>
F 0

$$$$
=
 OpenBabel10272400223D

 31 35  0  0  1  0  0  0  0  0999 V2000
  191.1310  176.6540  146.7370 C   0  0  0  0  0  0  0  0  0  0  0  0
  188.8630  177.8230  136.2870 C   0  0  0  0  0  3  0  0  0  0  0  0
  191.1920  176.2250  144.3210 C   0  0  0  0  0  2  0  0  0  0  0  0
  190.6700  177.1990  137.9680 C   0  0  1  0  0  3  0  0  0  0  0  0
  191.4130  176.4770  136.8350 C   0  0  1  0  0  3  0  0  0  0  0  0
  187.9120  177.4930  145.2590 O   0  0  0  0  0  0  0  0  0  0  0  0
  188.4200  177.9490  142.6880 O   0  0  0  0  0  0  0  0  0  0  0  0
  191.6720  176.3690  147.8610 N   0  0  0  0  0  2  0  0  0  0  0  0
  189.4600  177.2550  142.8510 C   0  0  0  0  0  0  0  0  0  0  0  0
  193.5000  176.5390  135.4950 C   0  0  0  0  0  2  0  0  0  0  0  0
  191.9860  176.7340  145.5140 C   0  0  0  0  0  2  0  0  0  0  0  0
  189.2470  177.5590  137.6100 C   0  0  0  0  0  0  0  0  0  0  0  0
  186.6420  178.4250  137.0380 C   0  0  0  0  0  3  0  0  0  0  0  0
  192.9060  176.7760  136.8770 C   0  0  0  0  0  2  0  0  0  0  0  0
  189.8400  176.9760  140.3380 C   0  0  0  0  0  0  0  0  0  0  0  0
  187.0840  178.5450  134.3460 Cl  0  0  0  0  0  0  0  0  0  0  0  0
  190.6960  174.3530  137.8350 N   0  0  0  0  0  0  0  0  0  0  0  0
  194.0320  175.1140  135.2850 C   0  0  0  0  0  2  0  0  0  0  0  0
  189.1430  177.2410  145.3560 C   0  0  0  0  0  0  0  0  0  0  0  0
  188.7140  177.5460  140.0140 N   0  0  0  0  0  0  0  0  0  0  0  0
  190.7350  176.3940  139.2780 C   0  0  1  0  0  3  0  0  0  0  0  0
  189.9320  176.9580  144.1780 N   0  0  0  0  0  0  0  0  0  0  0  0
  190.1950  176.7810  141.7120 N   0  0  0  0  0  2  0  0  0  0  0  0
  189.7730  177.2870  146.7190 C   0  0  0  0  0  2  0  0  0  0  0  0
  187.5600  178.2390  136.0020 C   0  0  0  0  0  0  0  0  0  0  0  0
  193.1540  173.9690  135.8070 C   0  0  0  0  0  2  0  0  0  0  0  0
  188.3220  177.7610  138.6520 C   0  0  0  0  0  0  0  0  0  0  0  0
  187.0230  178.1910  138.3630 C   0  0  0  0  0  3  0  0  0  0  0  0
  190.3540  175.0090  139.0300 N   0  0  0  0  0  2  0  0  0  0  0  0
  191.1640  174.9890  136.8030 C   0  0  0  0  0  0  0  0  0  0  0  0
  191.6590  174.2070  135.6340 C   0  0  0  0  0  2  0  0  0  0  0  0
  1  8  2  0  0  0  0
  2 12  1  0  0  0  0
  3 11  1  0  0  0  0
  4 12  1  6  0  0  0
  4 21  1  0  0  0  0
  5 14  1  1  0  0  0
  5  4  1  0  0  0  0
  6 19  2  0  0  0  0
  7  9  2  0  0  0  0
  9 22  1  0  0  0  0
 10 14  1  0  0  0  0
 11  1  1  0  0  0  0
 12 27  2  0  0  0  0
 13 28  2  0  0  0  0
 15 23  1  0  0  0  0
 16 25  1  0  0  0  0
 17 29  1  0  0  0  0
 18 10  1  0  0  0  0
 18 26  1  0  0  0  0
 19 24  1  0  0  0  0
 20 15  2  0  0  0  0
 21 29  1  6  0  0  0
 21 15  1  0  0  0  0
 22  3  1  0  0  0  0
 22 19  1  0  0  0  0
 23  9  1  0  0  0  0
 24  1  1  0  0  0  0
 25  2  2  0  0  0  0
 25 13  1  0  0  0  0
 27 20  1  0  0  0  0
 28 27  1  0  0  0  0
 30  5  1  0  0  0  0
 30 17  2  0  0  0  0
 31 26  1  0  0  0  0
 31 30  1  0  0  0  0
M  END
>  <MODEL>
4

>  <REMARK>
 VINA RESULT:      -7.5      2.388      4.537
  Name = 
  0 active torsions:
  status: ('A' for Active; 'I' for Inactive)
                            x       y       z     vdW  Elec       q    Type
                         _______ _______ _______ _____ _____    ______ ____

>  <TORSDO>
F 0

$$$$
=
 OpenBabel10272400223D

 31 35  0  0  1  0  0  0  0  0999 V2000
  187.0590  177.6650  146.4750 C   0  0  0  0  0  0  0  0  0  0  0  0
  182.0840  179.4670  137.1100 C   0  0  0  0  0  3  0  0  0  0  0  0
  186.3170  177.2790  144.1680 C   0  0  0  0  0  2  0  0  0  0  0  0
  184.1460  178.4610  138.2130 C   0  0  1  0  0  3  0  0  0  0  0  0
  184.3630  177.6250  136.9420 C   0  0  1  0  0  3  0  0  0  0  0  0
  183.7790  179.1630  145.9720 O   0  0  0  0  0  0  0  0  0  0  0  0
  183.5850  179.5570  143.3490 O   0  0  0  0  0  0  0  0  0  0  0  0
  187.8400  177.2550  147.4020 N   0  0  0  0  0  2  0  0  0  0  0  0
  184.4680  178.6650  143.2290 C   0  0  0  0  0  0  0  0  0  0  0  0
  185.9300  177.2920  135.0480 C   0  0  0  0  0  2  0  0  0  0  0  0
  187.5120  177.5950  145.0540 C   0  0  0  0  0  2  0  0  0  0  0  0
  182.7810  179.1070  138.2720 C   0  0  0  0  0  0  0  0  0  0  0  0
  180.3480  180.4890  138.4540 C   0  0  0  0  0  3  0  0  0  0  0  0
  185.8300  177.6170  136.5320 C   0  0  0  0  0  2  0  0  0  0  0  0
  184.0260  178.3640  140.7280 C   0  0  0  0  0  0  0  0  0  0  0  0
  179.9900  180.5700  135.7480 Cl  0  0  0  0  0  0  0  0  0  0  0  0
  183.5680  175.6710  138.1950 N   0  0  0  0  0  0  0  0  0  0  0  0
  186.0840  175.7940  134.7510 C   0  0  0  0  0  2  0  0  0  0  0  0
  184.9090  178.6670  145.7150 C   0  0  0  0  0  0  0  0  0  0  0  0
  182.9900  179.1550  140.7250 N   0  0  0  0  0  0  0  0  0  0  0  0
  184.4340  177.6340  139.4770 C   0  0  1  0  0  3  0  0  0  0  0  0
  185.2420  178.2530  144.3710 N   0  0  0  0  0  0  0  0  0  0  0  0
  184.7250  178.0740  141.9450 N   0  0  0  0  0  2  0  0  0  0  0  0
  185.9090  178.5590  146.8300 C   0  0  0  0  0  2  0  0  0  0  0  0
  180.8640  180.1430  137.2020 C   0  0  0  0  0  0  0  0  0  0  0  0
  185.1910  174.8390  135.5540 C   0  0  0  0  0  2  0  0  0  0  0  0
  182.2640  179.4700  139.5300 C   0  0  0  0  0  0  0  0  0  0  0  0
  181.0500  180.1580  139.6170 C   0  0  0  0  0  3  0  0  0  0  0  0
  183.7310  176.3590  139.4090 N   0  0  0  0  0  2  0  0  0  0  0  0
  183.8260  176.2190  137.0460 C   0  0  0  0  0  0  0  0  0  0  0  0
  183.7890  175.3770  135.8170 C   0  0  0  0  0  2  0  0  0  0  0  0
  1 24  1  0  0  0  0
  1  8  2  0  0  0  0
  2 25  2  0  0  0  0
  2 12  1  0  0  0  0
  3 22  1  0  0  0  0
  3 11  1  0  0  0  0
  4 12  1  1  0  0  0
  4 21  1  0  0  0  0
  5 14  1  1  0  0  0
  5 30  1  0  0  0  0
  5  4  1  0  0  0  0
  9  7  2  0  0  0  0
  9 22  1  0  0  0  0
 10 14  1  0  0  0  0
 11  1  1  0  0  0  0
 12 27  2  0  0  0  0
 13 28  2  0  0  0  0
 15 23  1  0  0  0  0
 16 25  1  0  0  0  0
 17 29  1  0  0  0  0
 18 10  1  0  0  0  0
 18 26  1  0  0  0  0
 19  6  2  0  0  0  0
 19 24  1  0  0  0  0
 20 15  2  0  0  0  0
 21 29  1  6  0  0  0
 21 15  1  0  0  0  0
 22 19  1  0  0  0  0
 23  9  1  0  0  0  0
 25 13  1  0  0  0  0
 26 31  1  0  0  0  0
 27 28  1  0  0  0  0
 27 20  1  0  0  0  0
 30 17  2  0  0  0  0
 31 30  1  0  0  0  0
M  END
>  <MODEL>
5

>  <REMARK>
 VINA RESULT:      -6.8      5.118      6.934
  Name = 
  0 active torsions:
  status: ('A' for Active; 'I' for Inactive)
                            x       y       z     vdW  Elec       q    Type
                         _______ _______ _______ _____ _____    ______ ____

>  <TORSDO>
F 0

$$$$
