=
 OpenBabel10272414213D

 43 47  0  0  1  0  0  0  0  0999 V2000
  184.1790  178.8380  139.0460 C   0  0  0  0  0  0  0  0  0  0  0  0
  188.5990  176.6020  138.0070 C   0  0  0  0  0  0  0  0  0  0  0  0
  190.5510  177.5590  139.7950 C   0  0  2  0  0  3  0  0  0  0  0  0
  185.9580  177.5530  138.0170 C   0  0  0  0  0  0  0  0  0  0  0  0
  185.0270  179.1740  140.0990 C   0  0  0  0  0  3  0  0  0  0  0  0
  182.7810  179.3480  139.0260 C   0  0  0  0  0  1  0  0  0  0  0  0
  186.8300  177.8970  139.0760 C   0  0  0  0  0  0  0  0  0  0  0  0
  184.6450  178.0290  138.0070 C   0  0  0  0  0  3  0  0  0  0  0  0
  186.3450  178.7080  140.1140 C   0  0  0  0  0  3  0  0  0  0  0  0
  189.0880  177.7350  140.2070 C   0  0  0  0  0  2  0  0  0  0  0  0
  188.1600  177.4280  139.0640 C   0  0  0  0  0  0  0  0  0  0  0  0
  187.7180  176.2650  136.9760 C   0  0  0  0  0  3  0  0  0  0  0  0
  190.0210  176.1030  137.9410 C   0  0  2  0  0  3  0  0  0  0  0  0
  190.7410  176.2260  139.2150 N   0  0  0  0  0  2  0  0  0  0  0  0
  186.4060  176.7370  136.9800 C   0  0  0  0  0  3  0  0  0  0  0  0
  191.5020  177.7680  140.9820 C   0  0  2  0  0  3  0  0  0  0  0  0
  192.8950  177.2190  140.6810 C   0  0  0  0  0  1  0  0  0  0  0  0
  190.9630  177.1130  142.1690 N   0  0  0  0  0  2  0  0  0  0  0  0
  191.3410  177.4680  143.5000 C   0  0  0  0  0  0  0  0  0  0  0  0
  191.9560  178.5450  143.7250 O   0  0  0  0  0  0  0  0  0  0  0  0
  191.0840  176.5070  144.6260 C   0  0  0  0  0  2  0  0  0  0  0  0
  189.8400  176.7710  145.3580 N   0  0  0  0  0  0  0  0  0  0  0  0
  190.1490  177.2590  146.6990 C   0  0  0  0  0  2  0  0  0  0  0  0
  188.6670  178.1120  148.5070 C   0  0  0  0  0  1  0  0  0  0  0  0
  189.0280  176.9080  147.6600 C   0  0  0  0  0  2  0  0  0  0  0  0
  189.0480  177.7820  144.6640 C   0  0  0  0  0  2  0  0  0  0  0  0
  187.7820  177.1760  144.1520 C   0  0  0  0  0  0  0  0  0  0  0  0
  187.8510  176.1620  143.4030 O   0  0  0  0  0  0  0  0  0  0  0  0
  186.4630  177.7340  144.5250 C   0  0  0  0  0  0  0  0  0  0  0  0
  184.2990  178.6360  143.8750 C   0  0  0  0  0  3  0  0  0  0  0  0
  184.8600  178.4200  146.2190 C   0  0  0  0  0  3  0  0  0  0  0  0
  183.9540  178.7870  145.2210 C   0  0  0  0  0  3  0  0  0  0  0  0
  186.1090  177.8970  145.8730 C   0  0  0  0  0  3  0  0  0  0  0  0
  185.5510  178.1120  143.5270 C   0  0  0  0  0  3  0  0  0  0  0  0
  190.7880  176.7700  136.8070 C   0  0  0  0  0  2  0  0  0  0  0  0
  194.2340  175.0780  136.6400 C   0  0  0  0  0  3  0  0  0  0  0  0
  193.8510  173.7940  136.4800 C   0  0  0  0  0  0  0  0  0  0  0  0
  191.4760  174.4120  136.4830 C   0  0  0  0  0  3  0  0  0  0  0  0
  193.2200  176.1380  136.9820 C   0  0  0  0  0  2  0  0  0  0  0  0
  191.8770  175.8520  136.2740 C   0  0  2  0  0  3  0  0  0  0  0  0
  192.4110  173.4500  136.5480 C   0  0  0  0  0  3  0  0  0  0  0  0
  194.7780  172.7730  136.2390 O   0  0  0  0  0  0  0  0  0  0  0  0
  195.1270  171.7990  137.2190 C   0  0  0  0  0  1  0  0  0  0  0  0
  1  5  1  0  0  0  0
  2 11  1  0  0  0  0
  3 10  1  0  0  0  0
  3 16  1  1  0  0  0
  4  7  1  0  0  0  0
  5  9  2  0  0  0  0
  6  1  1  0  0  0  0
  7  9  1  0  0  0  0
  8  4  1  0  0  0  0
  8  1  2  0  0  0  0
 11  7  2  0  0  0  0
 11 10  1  0  0  0  0
 12 15  1  0  0  0  0
 12  2  2  0  0  0  0
 13 35  1  6  0  0  0
 13  2  1  0  0  0  0
 13 14  1  0  0  0  0
 14  3  1  0  0  0  0
 15  4  2  0  0  0  0
 16 17  1  6  0  0  0
 16 18  1  0  0  0  0
 18 19  1  0  0  0  0
 19 20  2  0  0  0  0
 19 21  1  0  0  0  0
 21 22  1  0  0  0  0
 22 23  1  0  0  0  0
 23 25  1  0  0  0  0
 25 24  1  0  0  0  0
 26 22  1  0  0  0  0
 27 29  1  0  0  0  0
 27 26  1  0  0  0  0
 28 27  2  0  0  0  0
 29 33  1  0  0  0  0
 30 32  2  0  0  0  0
 32 31  1  0  0  0  0
 33 31  2  0  0  0  0
 34 30  1  0  0  0  0
 34 29  2  0  0  0  0
 36 39  1  0  0  0  0
 37 41  1  0  0  0  0
 37 36  2  0  0  0  0
 38 41  2  0  0  0  0
 40 38  1  0  0  0  0
 40 35  1  1  0  0  0
 40 39  1  0  0  0  0
 42 37  1  0  0  0  0
 42 43  1  0  0  0  0
M  END
>  <MODEL>
1

>  <REMARK>
 VINA RESULT:      -8.7      0.000      0.000
  Name = 
  12 active torsions:
  status: ('A' for Active; 'I' for Inactive)
    1  A    between atoms: C_1  and  C_34
    2  A    between atoms: C_1  and  C_35
    3  A    between atoms: C_2  and  N_6
    4  A    between atoms: C_2  and  C_13
    5  A    between atoms: C_3  and  N_4
    6  A    between atoms: C_3  and  C_12
    7  A    between atoms: N_4  and  C_15
    8  A    between atoms: N_4  and  C_22
    9  A    between atoms: C_11  and  C_14
   10  A    between atoms: C_14  and  C_22
   11  A    between atoms: C_15  and  C_42
   12  A    between atoms: C_19  and  O_25
                            x       y       z     vdW  Elec       q    Type
                         _______ _______ _______ _____ _____    ______ ____

>  <TORSDO>
F 12

$$$$
=
 OpenBabel10272414213D

 43 47  0  0  1  0  0  0  0  0999 V2000
  193.7950  175.3490  136.5530 C   0  0  0  0  0  0  0  0  0  0  0  0
  189.2010  177.3980  137.1160 C   0  0  0  0  0  0  0  0  0  0  0  0
  188.6730  177.7190  139.8620 C   0  0  2  0  0  3  0  0  0  0  0  0
  191.5610  176.2090  136.1700 C   0  0  0  0  0  0  0  0  0  0  0  0
  193.6990  175.6910  137.9000 C   0  0  0  0  0  3  0  0  0  0  0  0
  195.0320  174.7010  136.0370 C   0  0  0  0  0  1  0  0  0  0  0  0
  191.4500  176.5500  137.5370 C   0  0  0  0  0  0  0  0  0  0  0  0
  192.7280  175.6070  135.6900 C   0  0  0  0  0  3  0  0  0  0  0  0
  192.5330  176.2870  138.3900 C   0  0  0  0  0  3  0  0  0  0  0  0
  190.1390  177.5600  139.4520 C   0  0  0  0  0  2  0  0  0  0  0  0
  190.2600  177.1380  138.0140 C   0  0  0  0  0  0  0  0  0  0  0  0
  189.3370  177.0620  135.7670 C   0  0  0  0  0  3  0  0  0  0  0  0
  187.9020  177.9980  137.5900 C   0  0  2  0  0  3  0  0  0  0  0  0
  187.9940  178.6130  138.9200 N   0  0  0  0  0  2  0  0  0  0  0  0
  190.5090  176.4720  135.2960 C   0  0  0  0  0  3  0  0  0  0  0  0
  188.5420  178.2500  141.2960 C   0  0  2  0  0  3  0  0  0  0  0  0
  189.7210  177.8130  142.1610 C   0  0  0  0  0  1  0  0  0  0  0  0
  187.2960  177.7740  141.8890 N   0  0  0  0  0  2  0  0  0  0  0  0
  186.1030  178.5570  141.9440 C   0  0  0  0  0  0  0  0  0  0  0  0
  185.9890  179.5980  141.2430 O   0  0  0  0  0  0  0  0  0  0  0  0
  185.0160  178.1870  142.9120 C   0  0  0  0  0  2  0  0  0  0  0  0
  185.0580  178.9450  144.1680 N   0  0  0  0  0  0  0  0  0  0  0  0
  183.8440  179.7430  144.3050 C   0  0  0  0  0  2  0  0  0  0  0  0
  181.8840  178.9770  142.9760 C   0  0  0  0  0  1  0  0  0  0  0  0
  182.6190  178.8460  144.2950 C   0  0  0  0  0  2  0  0  0  0  0  0
  185.1510  178.0360  145.3060 C   0  0  0  0  0  2  0  0  0  0  0  0
  186.0300  178.6260  146.3610 C   0  0  0  0  0  0  0  0  0  0  0  0
  185.5850  179.5780  147.0600 O   0  0  0  0  0  0  0  0  0  0  0  0
  187.3910  178.0990  146.6040 C   0  0  0  0  0  0  0  0  0  0  0  0
  189.4150  177.0350  145.7730 C   0  0  0  0  0  3  0  0  0  0  0  0
  189.2520  177.6610  148.1050 C   0  0  0  0  0  3  0  0  0  0  0  0
  189.9780  177.1020  147.0500 C   0  0  0  0  0  3  0  0  0  0  0  0
  187.9640  178.1550  147.8840 C   0  0  0  0  0  3  0  0  0  0  0  0
  188.1230  177.5300  145.5500 C   0  0  0  0  0  3  0  0  0  0  0  0
  186.7700  176.9800  137.5300 C   0  0  0  0  0  2  0  0  0  0  0  0
  183.1840  177.2310  136.1710 C   0  0  0  0  0  3  0  0  0  0  0  0
  182.6180  177.9620  137.1540 C   0  0  0  0  0  0  0  0  0  0  0  0
  184.7380  178.1130  138.3810 C   0  0  0  0  0  3  0  0  0  0  0  0
  184.5690  176.6650  136.3460 C   0  0  0  0  0  2  0  0  0  0  0  0
  185.4590  177.6460  137.1400 C   0  0  2  0  0  3  0  0  0  0  0  0
  183.4070  178.2860  138.3670 C   0  0  0  0  0  3  0  0  0  0  0  0
  181.3040  178.4360  137.0570 O   0  0  0  0  0  0  0  0  0  0  0  0
  180.9840  179.7330  136.5630 C   0  0  0  0  0  1  0  0  0  0  0  0
  1  5  1  0  0  0  0
  2 13  1  0  0  0  0
  2 11  1  0  0  0  0
  3 16  1  1  0  0  0
  4  7  1  0  0  0  0
  5  9  2  0  0  0  0
  6  1  1  0  0  0  0
  7 11  2  0  0  0  0
  7  9  1  0  0  0  0
  8  4  1  0  0  0  0
  8  1  2  0  0  0  0
 10  3  1  0  0  0  0
 11 10  1  0  0  0  0
 12  2  2  0  0  0  0
 13 35  1  1  0  0  0
 13 14  1  0  0  0  0
 14  3  1  0  0  0  0
 15 12  1  0  0  0  0
 15  4  2  0  0  0  0
 16 18  1  0  0  0  0
 16 17  1  1  0  0  0
 18 19  1  0  0  0  0
 19 21  1  0  0  0  0
 20 19  2  0  0  0  0
 21 22  1  0  0  0  0
 22 23  1  0  0  0  0
 22 26  1  0  0  0  0
 24 25  1  0  0  0  0
 25 23  1  0  0  0  0
 26 27  1  0  0  0  0
 27 29  1  0  0  0  0
 27 28  2  0  0  0  0
 29 33  1  0  0  0  0
 30 32  2  0  0  0  0
 32 31  1  0  0  0  0
 33 31  2  0  0  0  0
 34 30  1  0  0  0  0
 34 29  2  0  0  0  0
 36 39  1  0  0  0  0
 36 37  2  0  0  0  0
 37 41  1  0  0  0  0
 39 40  1  0  0  0  0
 40 35  1  1  0  0  0
 40 38  1  0  0  0  0
 41 38  2  0  0  0  0
 42 37  1  0  0  0  0
 43 42  1  0  0  0  0
M  END
>  <MODEL>
2

>  <REMARK>
 VINA RESULT:      -8.6      2.801      7.200
  Name = 
  12 active torsions:
  status: ('A' for Active; 'I' for Inactive)
    1  A    between atoms: C_1  and  C_34
    2  A    between atoms: C_1  and  C_35
    3  A    between atoms: C_2  and  N_6
    4  A    between atoms: C_2  and  C_13
    5  A    between atoms: C_3  and  N_4
    6  A    between atoms: C_3  and  C_12
    7  A    between atoms: N_4  and  C_15
    8  A    between atoms: N_4  and  C_22
    9  A    between atoms: C_11  and  C_14
   10  A    between atoms: C_14  and  C_22
   11  A    between atoms: C_15  and  C_42
   12  A    between atoms: C_19  and  O_25
                            x       y       z     vdW  Elec       q    Type
                         _______ _______ _______ _____ _____    ______ ____

>  <TORSDO>
F 12

$$$$
=
 OpenBabel10272414213D

 43 47  0  0  1  0  0  0  0  0999 V2000
  190.9630  176.6200  146.2580 C   0  0  0  0  0  0  0  0  0  0  0  0
  189.6990  177.8350  141.5100 C   0  0  0  0  0  0  0  0  0  0  0  0
  186.9340  178.3560  141.4040 C   0  0  2  0  0  3  0  0  0  0  0  0
  190.9810  177.0040  143.8650 C   0  0  0  0  0  0  0  0  0  0  0  0
  189.6520  177.0850  146.3260 C   0  0  0  0  0  3  0  0  0  0  0  0
  191.6530  176.1580  147.4940 C   0  0  0  0  0  1  0  0  0  0  0  0
  189.6470  177.4690  143.9210 C   0  0  0  0  0  0  0  0  0  0  0  0
  191.6260  176.5790  145.0290 C   0  0  0  0  0  3  0  0  0  0  0  0
  188.9970  177.5070  145.1650 C   0  0  0  0  0  3  0  0  0  0  0  0
  187.6010  178.4260  142.7800 C   0  0  0  0  0  2  0  0  0  0  0  0
  189.0000  177.8750  142.7360 C   0  0  0  0  0  0  0  0  0  0  0  0
  191.0200  177.3820  141.4780 C   0  0  0  0  0  3  0  0  0  0  0  0
  189.0340  178.2320  140.2160 C   0  0  2  0  0  3  0  0  0  0  0  0
  187.7960  178.9990  140.4080 N   0  0  0  0  0  2  0  0  0  0  0  0
  191.6570  176.9690  142.6470 C   0  0  0  0  0  3  0  0  0  0  0  0
  185.5460  179.0090  141.4150 C   0  0  2  0  0  3  0  0  0  0  0  0
  184.8920  178.9040  142.7910 C   0  0  0  0  0  1  0  0  0  0  0  0
  184.6910  178.3750  140.4170 N   0  0  0  0  0  2  0  0  0  0  0  0
  184.1130  179.0780  139.3170 C   0  0  0  0  0  0  0  0  0  0  0  0
  184.5300  180.2250  139.0010 O   0  0  0  0  0  0  0  0  0  0  0  0
  182.9400  178.4860  138.5900 C   0  0  0  0  0  2  0  0  0  0  0  0
  183.1220  177.0780  138.2190 N   0  0  0  0  0  0  0  0  0  0  0  0
  181.8620  176.3580  138.3770 C   0  0  0  0  0  2  0  0  0  0  0  0
  180.2970  175.3090  140.0030 C   0  0  0  0  0  1  0  0  0  0  0  0
  181.5960  176.0730  139.8430 C   0  0  0  0  0  2  0  0  0  0  0  0
  183.5510  176.9700  136.8290 C   0  0  0  0  0  2  0  0  0  0  0  0
  185.0090  176.6490  136.7670 C   0  0  0  0  0  0  0  0  0  0  0  0
  185.8300  177.5840  136.5560 O   0  0  0  0  0  0  0  0  0  0  0  0
  185.4950  175.2650  136.9670 C   0  0  0  0  0  0  0  0  0  0  0  0
  185.0730  172.9600  137.6190 C   0  0  0  0  0  3  0  0  0  0  0  0
  187.2820  173.6190  136.8850 C   0  0  0  0  0  3  0  0  0  0  0  0
  186.4030  172.6350  137.3430 C   0  0  0  0  0  3  0  0  0  0  0  0
  186.8310  174.9290  136.7000 C   0  0  0  0  0  3  0  0  0  0  0  0
  184.6190  174.2730  137.4340 C   0  0  0  0  0  3  0  0  0  0  0  0
  188.8020  177.0230  139.3200 C   0  0  0  0  0  2  0  0  0  0  0  0
  191.1020  175.4240  136.6890 C   0  0  0  0  0  3  0  0  0  0  0  0
  190.8120  176.2050  135.6270 C   0  0  0  0  0  0  0  0  0  0  0  0
  189.2470  177.5620  136.9430 C   0  0  0  0  0  3  0  0  0  0  0  0
  190.2760  175.5120  137.9460 C   0  0  0  0  0  2  0  0  0  0  0  0
  189.8320  176.9690  138.2020 C   0  0  2  0  0  3  0  0  0  0  0  0
  189.7350  177.2180  135.7410 C   0  0  0  0  0  3  0  0  0  0  0  0
  191.5080  176.0930  134.4180 O   0  0  0  0  0  0  0  0  0  0  0  0
  192.9290  176.0290  134.3460 C   0  0  0  0  0  1  0  0  0  0  0  0
  1  5  1  0  0  0  0
  1  6  1  0  0  0  0
  2 11  1  0  0  0  0
  3 16  1  1  0  0  0
  3 10  1  0  0  0  0
  4  7  1  0  0  0  0
  4  8  1  0  0  0  0
  7  9  1  0  0  0  0
  8  1  2  0  0  0  0
  9  5  2  0  0  0  0
 11 10  1  0  0  0  0
 11  7  2  0  0  0  0
 12  2  2  0  0  0  0
 12 15  1  0  0  0  0
 13 35  1  1  0  0  0
 13 14  1  0  0  0  0
 13  2  1  0  0  0  0
 14  3  1  0  0  0  0
 15  4  2  0  0  0  0
 16 17  1  1  0  0  0
 18 16  1  0  0  0  0
 19 18  1  0  0  0  0
 20 19  2  0  0  0  0
 21 19  1  0  0  0  0
 22 23  1  0  0  0  0
 22 21  1  0  0  0  0
 23 25  1  0  0  0  0
 25 24  1  0  0  0  0
 26 22  1  0  0  0  0
 27 26  1  0  0  0  0
 27 29  1  0  0  0  0
 28 27  2  0  0  0  0
 29 34  1  0  0  0  0
 31 32  2  0  0  0  0
 32 30  1  0  0  0  0
 33 31  1  0  0  0  0
 33 29  2  0  0  0  0
 34 30  2  0  0  0  0
 36 39  1  0  0  0  0
 37 41  1  0  0  0  0
 37 36  2  0  0  0  0
 38 40  1  0  0  0  0
 39 40  1  0  0  0  0
 40 35  1  1  0  0  0
 41 38  2  0  0  0  0
 42 37  1  0  0  0  0
 43 42  1  0  0  0  0
M  END
>  <MODEL>
3

>  <REMARK>
 VINA RESULT:      -8.5      3.014      7.630
  Name = 
  12 active torsions:
  status: ('A' for Active; 'I' for Inactive)
    1  A    between atoms: C_1  and  C_34
    2  A    between atoms: C_1  and  C_35
    3  A    between atoms: C_2  and  N_6
    4  A    between atoms: C_2  and  C_13
    5  A    between atoms: C_3  and  N_4
    6  A    between atoms: C_3  and  C_12
    7  A    between atoms: N_4  and  C_15
    8  A    between atoms: N_4  and  C_22
    9  A    between atoms: C_11  and  C_14
   10  A    between atoms: C_14  and  C_22
   11  A    between atoms: C_15  and  C_42
   12  A    between atoms: C_19  and  O_25
                            x       y       z     vdW  Elec       q    Type
                         _______ _______ _______ _____ _____    ______ ____

>  <TORSDO>
F 12

$$$$
=
 OpenBabel10272414213D

 43 47  0  0  1  0  0  0  0  0999 V2000
  182.1650  178.8860  142.6870 C   0  0  0  0  0  0  0  0  0  0  0  0
  186.5750  178.1650  145.0640 C   0  0  0  0  0  0  0  0  0  0  0  0
  188.4230  177.0630  143.2480 C   0  0  2  0  0  3  0  0  0  0  0  0
  183.9100  178.6940  144.3580 C   0  0  0  0  0  0  0  0  0  0  0  0
  183.0820  178.5660  141.6880 C   0  0  0  0  0  3  0  0  0  0  0  0
  180.7430  179.1510  142.3340 C   0  0  0  0  0  1  0  0  0  0  0  0
  184.8460  178.3580  143.3530 C   0  0  0  0  0  0  0  0  0  0  0  0
  182.5780  178.9490  144.0200 C   0  0  0  0  0  3  0  0  0  0  0  0
  184.4140  178.3030  142.0180 C   0  0  0  0  0  3  0  0  0  0  0  0
  187.2080  177.7780  142.6530 C   0  0  0  0  0  2  0  0  0  0  0  0
  186.1820  178.0820  143.7100 C   0  0  0  0  0  0  0  0  0  0  0  0
  185.6360  178.5090  146.0390 C   0  0  0  0  0  3  0  0  0  0  0  0
  187.9860  177.8490  145.4900 C   0  0  2  0  0  3  0  0  0  0  0  0
  188.9440  177.8390  144.3770 N   0  0  0  0  0  2  0  0  0  0  0  0
  184.3120  178.7710  145.6900 C   0  0  0  0  0  3  0  0  0  0  0  0
  189.5190  176.8420  142.1980 C   0  0  2  0  0  3  0  0  0  0  0  0
  190.8920  177.2400  142.7350 C   0  0  0  0  0  1  0  0  0  0  0  0
  189.2200  177.6160  140.9980 N   0  0  0  0  0  2  0  0  0  0  0  0
  189.7310  177.2890  139.7050 C   0  0  0  0  0  0  0  0  0  0  0  0
  190.2490  176.1600  139.4890 O   0  0  0  0  0  0  0  0  0  0  0  0
  189.7350  178.3300  138.6220 C   0  0  0  0  0  2  0  0  0  0  0  0
  188.6930  178.1330  137.6080 N   0  0  0  0  0  0  0  0  0  0  0  0
  189.2860  177.5870  136.3900 C   0  0  0  0  0  2  0  0  0  0  0  0
  188.4840  175.9020  134.7440 C   0  0  0  0  0  1  0  0  0  0  0  0
  188.8550  176.1450  136.1940 C   0  0  0  0  0  2  0  0  0  0  0  0
  187.6820  177.2000  138.0940 C   0  0  0  0  0  2  0  0  0  0  0  0
  186.4050  177.9280  138.3680 C   0  0  0  0  0  0  0  0  0  0  0  0
  186.3820  178.7890  139.2910 O   0  0  0  0  0  0  0  0  0  0  0  0
  185.1890  177.6660  137.5660 C   0  0  0  0  0  0  0  0  0  0  0  0
  184.1560  176.9180  135.4960 C   0  0  0  0  0  3  0  0  0  0  0  0
  182.7690  177.6560  137.3370 C   0  0  0  0  0  3  0  0  0  0  0  0
  182.8900  177.1580  136.0370 C   0  0  0  0  0  3  0  0  0  0  0  0
  183.9140  177.9100  138.0970 C   0  0  0  0  0  3  0  0  0  0  0  0
  185.3030  177.1730  136.2570 C   0  0  0  0  0  3  0  0  0  0  0  0
  188.0450  176.5490  146.2810 C   0  0  0  0  0  2  0  0  0  0  0  0
  191.5990  176.6270  147.7430 C   0  0  0  0  0  3  0  0  0  0  0  0
  191.4720  177.6650  148.5950 C   0  0  0  0  0  0  0  0  0  0  0  0
  189.1120  177.9770  148.0030 C   0  0  0  0  0  3  0  0  0  0  0  0
  190.5110  176.3250  146.7450 C   0  0  0  0  0  2  0  0  0  0  0  0
  189.1210  176.6140  147.3550 C   0  0  2  0  0  3  0  0  0  0  0  0
  190.2140  178.4480  148.6080 C   0  0  0  0  0  3  0  0  0  0  0  0
  192.4970  178.0210  149.4800 O   0  0  0  0  0  0  0  0  0  0  0  0
  193.5290  177.1200  149.8720 C   0  0  0  0  0  1  0  0  0  0  0  0
  1  8  1  0  0  0  0
  2 13  1  0  0  0  0
  2 12  1  0  0  0  0
  3 16  1  6  0  0  0
  3 14  1  0  0  0  0
  4 15  1  0  0  0  0
  5  9  1  0  0  0  0
  5  1  2  0  0  0  0
  6  1  1  0  0  0  0
  7 11  1  0  0  0  0
  7  4  1  0  0  0  0
  8  4  2  0  0  0  0
  9  7  2  0  0  0  0
 10  3  1  0  0  0  0
 10 11  1  0  0  0  0
 11  2  2  0  0  0  0
 13 35  1  6  0  0  0
 14 13  1  0  0  0  0
 15 12  2  0  0  0  0
 16 17  1  1  0  0  0
 18 16  1  0  0  0  0
 19 18  1  0  0  0  0
 20 19  2  0  0  0  0
 21 19  1  0  0  0  0
 22 26  1  0  0  0  0
 22 21  1  0  0  0  0
 23 22  1  0  0  0  0
 24 25  1  0  0  0  0
 25 23  1  0  0  0  0
 26 27  1  0  0  0  0
 27 28  2  0  0  0  0
 29 33  1  0  0  0  0
 29 27  1  0  0  0  0
 30 32  2  0  0  0  0
 30 34  1  0  0  0  0
 31 33  2  0  0  0  0
 32 31  1  0  0  0  0
 34 29  2  0  0  0  0
 36 37  2  0  0  0  0
 37 41  1  0  0  0  0
 37 42  1  0  0  0  0
 38 41  2  0  0  0  0
 39 40  1  0  0  0  0
 39 36  1  0  0  0  0
 40 35  1  6  0  0  0
 40 38  1  0  0  0  0
 42 43  1  0  0  0  0
M  END
>  <MODEL>
4

>  <REMARK>
 VINA RESULT:      -8.5      2.806      8.374
  Name = 
  12 active torsions:
  status: ('A' for Active; 'I' for Inactive)
    1  A    between atoms: C_1  and  C_34
    2  A    between atoms: C_1  and  C_35
    3  A    between atoms: C_2  and  N_6
    4  A    between atoms: C_2  and  C_13
    5  A    between atoms: C_3  and  N_4
    6  A    between atoms: C_3  and  C_12
    7  A    between atoms: N_4  and  C_15
    8  A    between atoms: N_4  and  C_22
    9  A    between atoms: C_11  and  C_14
   10  A    between atoms: C_14  and  C_22
   11  A    between atoms: C_15  and  C_42
   12  A    between atoms: C_19  and  O_25
                            x       y       z     vdW  Elec       q    Type
                         _______ _______ _______ _____ _____    ______ ____

>  <TORSDO>
F 12

$$$$
=
 OpenBabel10272414213D

 43 47  0  0  1  0  0  0  0  0999 V2000
  188.9190  177.3740  144.6160 C   0  0  0  0  0  0  0  0  0  0  0  0
  190.7920  177.3290  139.9140 C   0  0  0  0  0  0  0  0  0  0  0  0
  188.6650  177.0910  138.0840 C   0  0  2  0  0  3  0  0  0  0  0  0
  190.3920  177.3040  142.6920 C   0  0  0  0  0  0  0  0  0  0  0  0
  187.8170  177.4900  143.7710 C   0  0  0  0  0  3  0  0  0  0  0  0
  188.7250  177.3400  146.0910 C   0  0  0  0  0  1  0  0  0  0  0  0
  189.2790  177.4110  141.8260 C   0  0  0  0  0  0  0  0  0  0  0  0
  190.2040  177.2800  144.0760 C   0  0  0  0  0  3  0  0  0  0  0  0
  187.9950  177.5080  142.3850 C   0  0  0  0  0  3  0  0  0  0  0  0
  188.3180  177.5820  139.4920 C   0  0  0  0  0  2  0  0  0  0  0  0
  189.4800  177.4130  140.4300 C   0  0  0  0  0  0  0  0  0  0  0  0
  191.8780  177.2340  140.7870 C   0  0  0  0  0  3  0  0  0  0  0  0
  191.0470  177.2980  138.4280 C   0  0  2  0  0  3  0  0  0  0  0  0
  189.8980  177.7410  137.6280 N   0  0  0  0  0  2  0  0  0  0  0  0
  191.6800  177.2210  142.1670 C   0  0  0  0  0  3  0  0  0  0  0  0
  187.5220  177.3560  137.0950 C   0  0  2  0  0  3  0  0  0  0  0  0
  187.6430  178.7410  136.4640 C   0  0  0  0  0  1  0  0  0  0  0  0
  186.2380  177.2390  137.7780 N   0  0  0  0  0  2  0  0  0  0  0  0
  185.1820  176.3910  137.3260 C   0  0  0  0  0  0  0  0  0  0  0  0
  185.4040  175.4980  136.4650 O   0  0  0  0  0  0  0  0  0  0  0  0
  183.7800  176.6270  137.8110 C   0  0  0  0  0  2  0  0  0  0  0  0
  183.5790  177.9450  138.4250 N   0  0  0  0  0  0  0  0  0  0  0  0
  182.4750  178.6340  137.7640 C   0  0  0  0  0  2  0  0  0  0  0  0
  181.7740  180.9100  138.4850 C   0  0  0  0  0  1  0  0  0  0  0  0
  181.6670  179.4260  138.7740 C   0  0  0  0  0  2  0  0  0  0  0  0
  183.2600  177.8010  139.8410 C   0  0  0  0  0  2  0  0  0  0  0  0
  184.0910  178.7440  140.6500 C   0  0  0  0  0  0  0  0  0  0  0  0
  184.9720  179.4330  140.0660 O   0  0  0  0  0  0  0  0  0  0  0  0
  183.8800  178.8880  142.1080 C   0  0  0  0  0  0  0  0  0  0  0  0
  182.4020  178.8140  144.0380 C   0  0  0  0  0  3  0  0  0  0  0  0
  184.7400  179.3650  144.3310 C   0  0  0  0  0  3  0  0  0  0  0  0
  183.4700  179.1530  144.8730 C   0  0  0  0  0  3  0  0  0  0  0  0
  184.9440  179.2350  142.9550 C   0  0  0  0  0  3  0  0  0  0  0  0
  182.6050  178.6840  142.6580 C   0  0  0  0  0  3  0  0  0  0  0  0
  191.5350  175.9260  137.9810 C   0  0  0  0  0  2  0  0  0  0  0  0
  195.0760  174.6340  137.2300 C   0  0  0  0  0  3  0  0  0  0  0  0
  195.2490  175.1470  135.9950 C   0  0  0  0  0  0  0  0  0  0  0  0
  193.0410  176.2140  136.0340 C   0  0  0  0  0  3  0  0  0  0  0  0
  193.7220  174.6790  137.8900 C   0  0  0  0  0  2  0  0  0  0  0  0
  192.9850  175.9860  137.5250 C   0  0  2  0  0  3  0  0  0  0  0  0
  194.1220  175.8420  135.3300 C   0  0  0  0  0  3  0  0  0  0  0  0
  196.4730  175.0510  135.3220 O   0  0  0  0  0  0  0  0  0  0  0  0
  197.0770  176.1540  134.6510 C   0  0  0  0  0  1  0  0  0  0  0  0
  1  6  1  0  0  0  0
  2 11  2  0  0  0  0
  2 12  1  0  0  0  0
  3 16  1  6  0  0  0
  3 10  1  0  0  0  0
  4  8  2  0  0  0  0
  5  1  2  0  0  0  0
  7  9  2  0  0  0  0
  7  4  1  0  0  0  0
  8  1  1  0  0  0  0
  9  5  1  0  0  0  0
 10 11  1  0  0  0  0
 11  7  1  0  0  0  0
 12 15  2  0  0  0  0
 13 35  1  6  0  0  0
 13  2  1  0  0  0  0
 14  3  1  0  0  0  0
 14 13  1  0  0  0  0
 15  4  1  0  0  0  0
 16 17  1  1  0  0  0
 16 18  1  0  0  0  0
 19 18  1  0  0  0  0
 19 21  1  0  0  0  0
 20 19  2  0  0  0  0
 21 22  1  0  0  0  0
 22 26  1  0  0  0  0
 23 22  1  0  0  0  0
 23 25  1  0  0  0  0
 24 25  1  0  0  0  0
 26 27  1  0  0  0  0
 27 29  1  0  0  0  0
 28 27  2  0  0  0  0
 29 34  2  0  0  0  0
 29 33  1  0  0  0  0
 30 32  2  0  0  0  0
 31 32  1  0  0  0  0
 33 31  2  0  0  0  0
 34 30  1  0  0  0  0
 36 39  1  0  0  0  0
 37 36  2  0  0  0  0
 38 40  1  0  0  0  0
 40 39  1  0  0  0  0
 40 35  1  6  0  0  0
 41 37  1  0  0  0  0
 41 38  2  0  0  0  0
 42 37  1  0  0  0  0
 43 42  1  0  0  0  0
M  END
>  <MODEL>
5

>  <REMARK>
 VINA RESULT:      -8.4      2.525      6.048
  Name = 
  12 active torsions:
  status: ('A' for Active; 'I' for Inactive)
    1  A    between atoms: C_1  and  C_34
    2  A    between atoms: C_1  and  C_35
    3  A    between atoms: C_2  and  N_6
    4  A    between atoms: C_2  and  C_13
    5  A    between atoms: C_3  and  N_4
    6  A    between atoms: C_3  and  C_12
    7  A    between atoms: N_4  and  C_15
    8  A    between atoms: N_4  and  C_22
    9  A    between atoms: C_11  and  C_14
   10  A    between atoms: C_14  and  C_22
   11  A    between atoms: C_15  and  C_42
   12  A    between atoms: C_19  and  O_25
                            x       y       z     vdW  Elec       q    Type
                         _______ _______ _______ _____ _____    ______ ____

>  <TORSDO>
F 12

$$$$
=
 OpenBabel10272414213D

 43 47  0  0  1  0  0  0  0  0999 V2000
  191.3380  176.4790  146.9000 C   0  0  0  0  0  0  0  0  0  0  0  0
  187.7740  177.5970  143.4850 C   0  0  0  0  0  0  0  0  0  0  0  0
  189.0020  178.0360  140.9910 C   0  0  2  0  0  3  0  0  0  0  0  0
  189.2480  177.0390  145.8080 C   0  0  0  0  0  0  0  0  0  0  0  0
  191.9800  176.4520  145.6640 C   0  0  0  0  0  3  0  0  0  0  0  0
  192.1080  176.2040  148.1440 C   0  0  0  0  0  1  0  0  0  0  0  0
  189.8930  177.0250  144.5490 C   0  0  0  0  0  0  0  0  0  0  0  0
  189.9750  176.7730  146.9710 C   0  0  0  0  0  3  0  0  0  0  0  0
  191.2630  176.7240  144.4960 C   0  0  0  0  0  3  0  0  0  0  0  0
  189.8050  177.2510  142.0300 C   0  0  0  0  0  2  0  0  0  0  0  0
  189.1540  177.3160  143.3840 C   0  0  0  0  0  0  0  0  0  0  0  0
  187.1550  177.5960  144.7380 C   0  0  0  0  0  3  0  0  0  0  0  0
  186.9540  177.9420  142.2680 C   0  0  2  0  0  3  0  0  0  0  0  0
  187.6080  177.5830  141.0030 N   0  0  0  0  0  2  0  0  0  0  0  0
  187.8860  177.3190  145.8920 C   0  0  0  0  0  3  0  0  0  0  0  0
  189.6010  177.8900  139.5860 C   0  0  2  0  0  3  0  0  0  0  0  0
  188.9830  178.8900  138.6110 C   0  0  0  0  0  1  0  0  0  0  0  0
  189.3890  176.5330  139.0950 N   0  0  0  0  0  2  0  0  0  0  0  0
  190.1840  175.9350  138.0700 C   0  0  0  0  0  0  0  0  0  0  0  0
  191.2800  176.4550  137.7260 O   0  0  0  0  0  0  0  0  0  0  0  0
  189.6660  174.7320  137.3340 C   0  0  0  0  0  2  0  0  0  0  0  0
  188.8640  175.0620  136.1500 N   0  0  0  0  0  0  0  0  0  0  0  0
  189.0690  174.0500  135.1170 C   0  0  0  0  0  2  0  0  0  0  0  0
  188.8470  171.5800  134.9090 C   0  0  0  0  0  1  0  0  0  0  0  0
  188.1650  172.8560  135.3600 C   0  0  0  0  0  2  0  0  0  0  0  0
  187.4460  175.0990  136.4920 C   0  0  0  0  0  2  0  0  0  0  0  0
  186.8830  176.4490  136.1880 C   0  0  0  0  0  0  0  0  0  0  0  0
  187.4220  177.1430  135.2810 O   0  0  0  0  0  0  0  0  0  0  0  0
  185.7020  176.9660  136.9150 C   0  0  0  0  0  0  0  0  0  0  0  0
  183.3230  176.8600  137.4100 C   0  0  0  0  0  3  0  0  0  0  0  0
  184.7060  178.5260  138.4910 C   0  0  0  0  0  3  0  0  0  0  0  0
  183.4560  177.9320  138.2960 C   0  0  0  0  0  3  0  0  0  0  0  0
  185.8230  178.0470  137.8020 C   0  0  0  0  0  3  0  0  0  0  0  0
  184.4420  176.3790  136.7190 C   0  0  0  0  0  3  0  0  0  0  0  0
  186.5390  179.4080  142.2790 C   0  0  0  0  0  2  0  0  0  0  0  0
  182.8420  178.3560  142.2820 C   0  0  0  0  0  3  0  0  0  0  0  0
  182.4920  178.7570  143.5210 C   0  0  0  0  0  0  0  0  0  0  0  0
  184.7410  179.6300  143.9690 C   0  0  0  0  0  3  0  0  0  0  0  0
  184.2900  178.3500  141.8660 C   0  0  0  0  0  2  0  0  0  0  0  0
  185.0390  179.5470  142.4920 C   0  0  2  0  0  3  0  0  0  0  0  0
  183.5310  179.2840  144.4380 C   0  0  0  0  0  3  0  0  0  0  0  0
  181.1660  178.7000  143.9670 O   0  0  0  0  0  0  0  0  0  0  0  0
  180.0900  179.3310  143.2780 C   0  0  0  0  0  1  0  0  0  0  0  0
  1  8  1  0  0  0  0
  1  6  1  0  0  0  0
  2 12  1  0  0  0  0
  3 16  1  6  0  0  0
  3 14  1  0  0  0  0
  3 10  1  0  0  0  0
  4 15  1  0  0  0  0
  4  8  2  0  0  0  0
  5  1  2  0  0  0  0
  7  4  1  0  0  0  0
  9  7  2  0  0  0  0
  9  5  1  0  0  0  0
 10 11  1  0  0  0  0
 11  2  2  0  0  0  0
 11  7  1  0  0  0  0
 12 15  2  0  0  0  0
 13 35  1  6  0  0  0
 13  2  1  0  0  0  0
 14 13  1  0  0  0  0
 16 17  1  6  0  0  0
 18 16  1  0  0  0  0
 19 18  1  0  0  0  0
 20 19  2  0  0  0  0
 21 19  1  0  0  0  0
 22 26  1  0  0  0  0
 22 21  1  0  0  0  0
 23 25  1  0  0  0  0
 23 22  1  0  0  0  0
 24 25  1  0  0  0  0
 27 26  1  0  0  0  0
 27 29  1  0  0  0  0
 28 27  2  0  0  0  0
 29 33  1  0  0  0  0
 30 32  2  0  0  0  0
 32 31  1  0  0  0  0
 33 31  2  0  0  0  0
 34 29  2  0  0  0  0
 34 30  1  0  0  0  0
 36 37  2  0  0  0  0
 37 42  1  0  0  0  0
 37 41  1  0  0  0  0
 38 41  2  0  0  0  0
 39 36  1  0  0  0  0
 39 40  1  0  0  0  0
 40 35  1  1  0  0  0
 40 38  1  0  0  0  0
 43 42  1  0  0  0  0
M  END
>  <MODEL>
6

>  <REMARK>
 VINA RESULT:      -8.3      2.758      9.385
  Name = 
  12 active torsions:
  status: ('A' for Active; 'I' for Inactive)
    1  A    between atoms: C_1  and  C_34
    2  A    between atoms: C_1  and  C_35
    3  A    between atoms: C_2  and  N_6
    4  A    between atoms: C_2  and  C_13
    5  A    between atoms: C_3  and  N_4
    6  A    between atoms: C_3  and  C_12
    7  A    between atoms: N_4  and  C_15
    8  A    between atoms: N_4  and  C_22
    9  A    between atoms: C_11  and  C_14
   10  A    between atoms: C_14  and  C_22
   11  A    between atoms: C_15  and  C_42
   12  A    between atoms: C_19  and  O_25
                            x       y       z     vdW  Elec       q    Type
                         _______ _______ _______ _____ _____    ______ ____

>  <TORSDO>
F 12

$$$$
=
 OpenBabel10272414213D

 43 47  0  0  1  0  0  0  0  0999 V2000
  191.4720  176.5280  147.3580 C   0  0  0  0  0  0  0  0  0  0  0  0
  187.6690  177.5270  144.1710 C   0  0  0  0  0  0  0  0  0  0  0  0
  188.6690  177.5760  141.5400 C   0  0  2  0  0  3  0  0  0  0  0  0
  189.3270  177.1240  146.4000 C   0  0  0  0  0  0  0  0  0  0  0  0
  191.9840  176.3080  146.0810 C   0  0  0  0  0  3  0  0  0  0  0  0
  192.3420  176.3370  148.5510 C   0  0  0  0  0  1  0  0  0  0  0  0
  189.8400  176.9130  145.1000 C   0  0  0  0  0  0  0  0  0  0  0  0
  190.1460  176.9360  147.5170 C   0  0  0  0  0  3  0  0  0  0  0  0
  191.1740  176.4990  144.9590 C   0  0  0  0  0  3  0  0  0  0  0  0
  189.5160  176.8540  142.5910 C   0  0  0  0  0  2  0  0  0  0  0  0
  189.0100  177.1260  143.9800 C   0  0  0  0  0  0  0  0  0  0  0  0
  187.1800  177.7200  145.4650 C   0  0  0  0  0  3  0  0  0  0  0  0
  186.7570  177.7940  143.0010 C   0  0  2  0  0  3  0  0  0  0  0  0
  187.2550  177.2410  141.7340 N   0  0  0  0  0  2  0  0  0  0  0  0
  188.0020  177.5210  146.5730 C   0  0  0  0  0  3  0  0  0  0  0  0
  189.1130  177.2220  140.1150 C   0  0  2  0  0  3  0  0  0  0  0  0
  190.5470  177.6750  139.8500 C   0  0  0  0  0  1  0  0  0  0  0  0
  188.2170  177.8450  139.1470 N   0  0  0  0  0  2  0  0  0  0  0  0
  188.0900  177.4010  137.7950 C   0  0  0  0  0  0  0  0  0  0  0  0
  188.5470  176.2790  137.4450 O   0  0  0  0  0  0  0  0  0  0  0  0
  187.4900  178.3160  136.7660 C   0  0  0  0  0  2  0  0  0  0  0  0
  186.0690  178.0590  136.5020 N   0  0  0  0  0  0  0  0  0  0  0  0
  185.9320  177.2080  135.3230 C   0  0  0  0  0  2  0  0  0  0  0  0
  186.5880  174.8360  134.9550 C   0  0  0  0  0  1  0  0  0  0  0  0
  185.6840  175.7690  135.7360 C   0  0  0  0  0  2  0  0  0  0  0  0
  185.4560  177.3830  137.6400 C   0  0  0  0  0  2  0  0  0  0  0  0
  184.5820  178.3350  138.3900 C   0  0  0  0  0  0  0  0  0  0  0  0
  185.0590  179.4510  138.7410 O   0  0  0  0  0  0  0  0  0  0  0  0
  183.1770  177.9970  138.7050 C   0  0  0  0  0  0  0  0  0  0  0  0
  180.9220  178.7010  139.2870 C   0  0  0  0  0  3  0  0  0  0  0  0
  181.4190  176.3470  139.0190 C   0  0  0  0  0  3  0  0  0  0  0  0
  180.5050  177.3680  139.2980 C   0  0  0  0  0  3  0  0  0  0  0  0
  182.7480  176.6610  138.7260 C   0  0  0  0  0  3  0  0  0  0  0  0
  182.2550  179.0160  138.9940 C   0  0  0  0  0  3  0  0  0  0  0  0
  186.4480  179.2800  142.8700 C   0  0  0  0  0  2  0  0  0  0  0  0
  182.6710  178.6780  142.4850 C   0  0  0  0  0  3  0  0  0  0  0  0
  182.2810  178.8530  143.7640 C   0  0  0  0  0  0  0  0  0  0  0  0
  184.5710  179.3530  144.4870 C   0  0  0  0  0  3  0  0  0  0  0  0
  184.1360  178.5930  142.1420 C   0  0  0  0  0  2  0  0  0  0  0  0
  184.9590  179.5420  143.0400 C   0  0  2  0  0  3  0  0  0  0  0  0
  183.3040  179.0580  144.8170 C   0  0  0  0  0  3  0  0  0  0  0  0
  180.9280  178.8570  144.1280 O   0  0  0  0  0  0  0  0  0  0  0  0
  179.9850  177.9240  143.6080 C   0  0  0  0  0  1  0  0  0  0  0  0
  1  8  1  0  0  0  0
  1  6  1  0  0  0  0
  2 12  1  0  0  0  0
  3 16  1  6  0  0  0
  3 14  1  0  0  0  0
  3 10  1  0  0  0  0
  4 15  1  0  0  0  0
  4  8  2  0  0  0  0
  5  1  2  0  0  0  0
  7  4  1  0  0  0  0
  9  7  2  0  0  0  0
  9  5  1  0  0  0  0
 10 11  1  0  0  0  0
 11  2  2  0  0  0  0
 11  7  1  0  0  0  0
 12 15  2  0  0  0  0
 13 35  1  6  0  0  0
 13  2  1  0  0  0  0
 14 13  1  0  0  0  0
 16 17  1  6  0  0  0
 18 16  1  0  0  0  0
 19 18  1  0  0  0  0
 20 19  2  0  0  0  0
 21 19  1  0  0  0  0
 22 21  1  0  0  0  0
 22 26  1  0  0  0  0
 23 25  1  0  0  0  0
 23 22  1  0  0  0  0
 24 25  1  0  0  0  0
 26 27  1  0  0  0  0
 27 29  1  0  0  0  0
 27 28  2  0  0  0  0
 29 33  2  0  0  0  0
 29 34  1  0  0  0  0
 30 32  1  0  0  0  0
 31 32  2  0  0  0  0
 33 31  1  0  0  0  0
 34 30  2  0  0  0  0
 36 37  2  0  0  0  0
 37 42  1  0  0  0  0
 37 41  1  0  0  0  0
 38 41  2  0  0  0  0
 39 36  1  0  0  0  0
 39 40  1  0  0  0  0
 40 35  1  1  0  0  0
 40 38  1  0  0  0  0
 43 42  1  0  0  0  0
M  END
>  <MODEL>
7

>  <REMARK>
 VINA RESULT:      -8.2      3.320      9.468
  Name = 
  12 active torsions:
  status: ('A' for Active; 'I' for Inactive)
    1  A    between atoms: C_1  and  C_34
    2  A    between atoms: C_1  and  C_35
    3  A    between atoms: C_2  and  N_6
    4  A    between atoms: C_2  and  C_13
    5  A    between atoms: C_3  and  N_4
    6  A    between atoms: C_3  and  C_12
    7  A    between atoms: N_4  and  C_15
    8  A    between atoms: N_4  and  C_22
    9  A    between atoms: C_11  and  C_14
   10  A    between atoms: C_14  and  C_22
   11  A    between atoms: C_15  and  C_42
   12  A    between atoms: C_19  and  O_25
                            x       y       z     vdW  Elec       q    Type
                         _______ _______ _______ _____ _____    ______ ____

>  <TORSDO>
F 12

$$$$
=
 OpenBabel10272414213D

 43 47  0  0  1  0  0  0  0  0999 V2000
  191.3180  176.4490  146.8450 C   0  0  0  0  0  0  0  0  0  0  0  0
  187.7950  177.6050  143.4000 C   0  0  0  0  0  0  0  0  0  0  0  0
  189.0530  178.0620  140.9240 C   0  0  2  0  0  3  0  0  0  0  0  0
  189.2420  177.0230  145.7340 C   0  0  0  0  0  0  0  0  0  0  0  0
  191.9740  176.4310  145.6160 C   0  0  0  0  0  3  0  0  0  0  0  0
  192.0740  176.1610  148.0950 C   0  0  0  0  0  1  0  0  0  0  0  0
  189.9010  177.0180  144.4830 C   0  0  0  0  0  0  0  0  0  0  0  0
  189.9550  176.7450  146.9040 C   0  0  0  0  0  3  0  0  0  0  0  0
  191.2710  176.7140  144.4420 C   0  0  0  0  0  3  0  0  0  0  0  0
  189.8410  177.2660  141.9660 C   0  0  0  0  0  2  0  0  0  0  0  0
  189.1760  177.3210  143.3120 C   0  0  0  0  0  0  0  0  0  0  0  0
  187.1620  177.5950  144.6460 C   0  0  0  0  0  3  0  0  0  0  0  0
  186.9900  177.9620  142.1770 C   0  0  2  0  0  3  0  0  0  0  0  0
  187.6570  177.6130  140.9160 N   0  0  0  0  0  2  0  0  0  0  0  0
  187.8800  177.3060  145.8050 C   0  0  0  0  0  3  0  0  0  0  0  0
  189.6670  177.9270  139.5240 C   0  0  2  0  0  3  0  0  0  0  0  0
  188.9800  178.8540  138.5240 C   0  0  0  0  0  1  0  0  0  0  0  0
  189.5590  176.5460  139.0670 N   0  0  0  0  0  2  0  0  0  0  0  0
  190.4060  175.9820  138.0650 C   0  0  0  0  0  0  0  0  0  0  0  0
  191.4650  176.5710  137.7180 O   0  0  0  0  0  0  0  0  0  0  0  0
  189.9850  174.7260  137.3560 C   0  0  0  0  0  2  0  0  0  0  0  0
  188.7610  174.8780  136.5590 N   0  0  0  0  0  0  0  0  0  0  0  0
  188.7730  176.1690  135.8770 C   0  0  0  0  0  2  0  0  0  0  0  0
  186.5210  176.7030  136.7910 C   0  0  0  0  0  1  0  0  0  0  0  0
  187.3590  176.5970  135.5320 C   0  0  0  0  0  2  0  0  0  0  0  0
  188.6740  173.8210  135.5580 C   0  0  0  0  0  2  0  0  0  0  0  0
  187.7580  172.7400  136.0350 C   0  0  0  0  0  0  0  0  0  0  0  0
  188.2380  171.5970  136.2720 O   0  0  0  0  0  0  0  0  0  0  0  0
  186.3170  172.9990  136.2470 C   0  0  0  0  0  0  0  0  0  0  0  0
  184.3800  173.0380  137.7180 C   0  0  0  0  0  3  0  0  0  0  0  0
  184.1470  173.6980  135.4010 C   0  0  0  0  0  3  0  0  0  0  0  0
  183.5840  173.4930  136.6640 C   0  0  0  0  0  3  0  0  0  0  0  0
  185.5060  173.4500  135.1930 C   0  0  0  0  0  3  0  0  0  0  0  0
  185.7430  172.7890  137.5110 C   0  0  0  0  0  3  0  0  0  0  0  0
  186.5780  179.4290  142.1960 C   0  0  0  0  0  2  0  0  0  0  0  0
  182.8780  178.3990  142.3300 C   0  0  0  0  0  3  0  0  0  0  0  0
  182.5810  178.7770  143.5900 C   0  0  0  0  0  0  0  0  0  0  0  0
  184.8520  179.6260  143.9630 C   0  0  0  0  0  3  0  0  0  0  0  0
  184.3070  178.3930  141.8540 C   0  0  0  0  0  2  0  0  0  0  0  0
  185.0890  179.5720  142.4730 C   0  0  2  0  0  3  0  0  0  0  0  0
  183.6610  179.2780  144.4740 C   0  0  0  0  0  3  0  0  0  0  0  0
  181.2740  178.7180  144.0890 O   0  0  0  0  0  0  0  0  0  0  0  0
  180.1480  178.4080  143.2730 C   0  0  0  0  0  1  0  0  0  0  0  0
  1  8  1  0  0  0  0
  1  6  1  0  0  0  0
  2 12  1  0  0  0  0
  3 16  1  6  0  0  0
  3 10  1  0  0  0  0
  4 15  1  0  0  0  0
  4  8  2  0  0  0  0
  5  1  2  0  0  0  0
  7  4  1  0  0  0  0
  9  7  2  0  0  0  0
  9  5  1  0  0  0  0
 10 11  1  0  0  0  0
 11  2  2  0  0  0  0
 11  7  1  0  0  0  0
 12 15  2  0  0  0  0
 13 35  1  6  0  0  0
 13  2  1  0  0  0  0
 14  3  1  0  0  0  0
 14 13  1  0  0  0  0
 16 17  1  6  0  0  0
 18 16  1  0  0  0  0
 19 18  1  0  0  0  0
 20 19  2  0  0  0  0
 21 19  1  0  0  0  0
 22 21  1  0  0  0  0
 23 22  1  0  0  0  0
 25 23  1  0  0  0  0
 25 24  1  0  0  0  0
 26 27  1  0  0  0  0
 26 22  1  0  0  0  0
 27 29  1  0  0  0  0
 27 28  2  0  0  0  0
 29 34  1  0  0  0  0
 31 32  2  0  0  0  0
 32 30  1  0  0  0  0
 33 31  1  0  0  0  0
 33 29  2  0  0  0  0
 34 30  2  0  0  0  0
 36 37  2  0  0  0  0
 37 42  1  0  0  0  0
 37 41  1  0  0  0  0
 38 41  2  0  0  0  0
 39 36  1  0  0  0  0
 39 40  1  0  0  0  0
 40 35  1  1  0  0  0
 40 38  1  0  0  0  0
 43 42  1  0  0  0  0
M  END
>  <MODEL>
8

>  <REMARK>
 VINA RESULT:      -8.2      2.847      9.566
  Name = 
  12 active torsions:
  status: ('A' for Active; 'I' for Inactive)
    1  A    between atoms: C_1  and  C_34
    2  A    between atoms: C_1  and  C_35
    3  A    between atoms: C_2  and  N_6
    4  A    between atoms: C_2  and  C_13
    5  A    between atoms: C_3  and  N_4
    6  A    between atoms: C_3  and  C_12
    7  A    between atoms: N_4  and  C_15
    8  A    between atoms: N_4  and  C_22
    9  A    between atoms: C_11  and  C_14
   10  A    between atoms: C_14  and  C_22
   11  A    between atoms: C_15  and  C_42
   12  A    between atoms: C_19  and  O_25
                            x       y       z     vdW  Elec       q    Type
                         _______ _______ _______ _____ _____    ______ ____

>  <TORSDO>
F 12

$$$$
=
 OpenBabel10272414213D

 43 47  0  0  1  0  0  0  0  0999 V2000
  187.3110  177.7170  144.9600 C   0  0  0  0  0  0  0  0  0  0  0  0
  189.9800  177.3410  140.6760 C   0  0  0  0  0  0  0  0  0  0  0  0
  188.2150  177.4520  138.4860 C   0  0  2  0  0  3  0  0  0  0  0  0
  189.0800  177.3950  143.3340 C   0  0  0  0  0  0  0  0  0  0  0  0
  186.4170  178.0110  143.9330 C   0  0  0  0  0  3  0  0  0  0  0  0
  186.8470  177.7230  146.3740 C   0  0  0  0  0  1  0  0  0  0  0  0
  188.1770  177.6820  142.2840 C   0  0  0  0  0  0  0  0  0  0  0  0
  188.6400  177.4090  144.6600 C   0  0  0  0  0  3  0  0  0  0  0  0
  186.8460  177.9930  142.6030 C   0  0  0  0  0  3  0  0  0  0  0  0
  187.7010  178.0000  139.8190 C   0  0  0  0  0  2  0  0  0  0  0  0
  188.6280  177.6440  140.9480 C   0  0  0  0  0  0  0  0  0  0  0  0
  190.8570  177.0710  141.7290 C   0  0  0  0  0  3  0  0  0  0  0  0
  190.4950  177.2610  139.2610 C   0  0  2  0  0  3  0  0  0  0  0  0
  189.6000  177.8850  138.2780 N   0  0  0  0  0  2  0  0  0  0  0  0
  190.4100  177.0970  143.0500 C   0  0  0  0  0  3  0  0  0  0  0  0
  187.3320  177.8990  137.3130 C   0  0  2  0  0  3  0  0  0  0  0  0
  187.9020  179.1390  136.6290 C   0  0  0  0  0  1  0  0  0  0  0  0
  185.9810  178.1780  137.7880 N   0  0  0  0  0  2  0  0  0  0  0  0
  184.8340  177.4360  137.3730 C   0  0  0  0  0  0  0  0  0  0  0  0
  184.9670  176.3300  136.7830 O   0  0  0  0  0  0  0  0  0  0  0  0
  183.4620  178.0200  137.5590 C   0  0  0  0  0  2  0  0  0  0  0  0
  182.7760  177.5480  138.7680 N   0  0  0  0  0  0  0  0  0  0  0  0
  182.1400  176.2610  138.5030 C   0  0  0  0  0  2  0  0  0  0  0  0
  180.2580  174.9240  139.4320 C   0  0  0  0  0  1  0  0  0  0  0  0
  180.6870  176.2920  138.9380 C   0  0  0  0  0  2  0  0  0  0  0  0
  183.7300  177.3830  139.8600 C   0  0  0  0  0  2  0  0  0  0  0  0
  183.6950  178.5800  140.7540 C   0  0  0  0  0  0  0  0  0  0  0  0
  184.4660  179.5480  140.5040 O   0  0  0  0  0  0  0  0  0  0  0  0
  182.7660  178.6480  141.9030 C   0  0  0  0  0  0  0  0  0  0  0  0
  182.3930  178.8530  144.2980 C   0  0  0  0  0  3  0  0  0  0  0  0
  180.5050  178.6470  142.7970 C   0  0  0  0  0  3  0  0  0  0  0  0
  181.0120  178.7870  144.0920 C   0  0  0  0  0  3  0  0  0  0  0  0
  181.3780  178.5760  141.7080 C   0  0  0  0  0  3  0  0  0  0  0  0
  183.2680  178.7810  143.2070 C   0  0  0  0  0  3  0  0  0  0  0  0
  190.8250  175.8250  138.8740 C   0  0  0  0  0  2  0  0  0  0  0  0
  193.8980  176.2910  136.6140 C   0  0  0  0  0  3  0  0  0  0  0  0
  193.9210  175.0860  136.0090 C   0  0  0  0  0  0  0  0  0  0  0  0
  191.9140  174.3470  137.2110 C   0  0  0  0  0  3  0  0  0  0  0  0
  192.9810  176.5380  137.7840 C   0  0  0  0  0  2  0  0  0  0  0  0
  191.6470  175.7820  137.5950 C   0  0  2  0  0  3  0  0  0  0  0  0
  192.9690  174.0360  136.4410 C   0  0  0  0  0  3  0  0  0  0  0  0
  194.8170  174.7990  134.9720 O   0  0  0  0  0  0  0  0  0  0  0  0
  196.2300  174.7750  135.1540 C   0  0  0  0  0  1  0  0  0  0  0  0
  1  6  1  0  0  0  0
  2 11  2  0  0  0  0
  2 12  1  0  0  0  0
  3 16  1  6  0  0  0
  3 10  1  0  0  0  0
  4  8  2  0  0  0  0
  5  1  2  0  0  0  0
  7  9  2  0  0  0  0
  7  4  1  0  0  0  0
  8  1  1  0  0  0  0
  9  5  1  0  0  0  0
 10 11  1  0  0  0  0
 11  7  1  0  0  0  0
 12 15  2  0  0  0  0
 13 35  1  6  0  0  0
 13  2  1  0  0  0  0
 14  3  1  0  0  0  0
 14 13  1  0  0  0  0
 15  4  1  0  0  0  0
 16 17  1  1  0  0  0
 16 18  1  0  0  0  0
 19 21  1  0  0  0  0
 19 18  1  0  0  0  0
 20 19  2  0  0  0  0
 21 22  1  0  0  0  0
 22 26  1  0  0  0  0
 23 22  1  0  0  0  0
 23 25  1  0  0  0  0
 25 24  1  0  0  0  0
 26 27  1  0  0  0  0
 27 29  1  0  0  0  0
 28 27  2  0  0  0  0
 29 34  1  0  0  0  0
 31 32  2  0  0  0  0
 32 30  1  0  0  0  0
 33 29  2  0  0  0  0
 33 31  1  0  0  0  0
 34 30  2  0  0  0  0
 36 39  1  0  0  0  0
 37 41  1  0  0  0  0
 37 36  2  0  0  0  0
 38 40  1  0  0  0  0
 40 39  1  0  0  0  0
 40 35  1  1  0  0  0
 41 38  2  0  0  0  0
 42 43  1  0  0  0  0
 42 37  1  0  0  0  0
M  END
>  <MODEL>
9

>  <REMARK>
 VINA RESULT:      -8.0      2.781      6.059
  Name = 
  12 active torsions:
  status: ('A' for Active; 'I' for Inactive)
    1  A    between atoms: C_1  and  C_34
    2  A    between atoms: C_1  and  C_35
    3  A    between atoms: C_2  and  N_6
    4  A    between atoms: C_2  and  C_13
    5  A    between atoms: C_3  and  N_4
    6  A    between atoms: C_3  and  C_12
    7  A    between atoms: N_4  and  C_15
    8  A    between atoms: N_4  and  C_22
    9  A    between atoms: C_11  and  C_14
   10  A    between atoms: C_14  and  C_22
   11  A    between atoms: C_15  and  C_42
   12  A    between atoms: C_19  and  O_25
                            x       y       z     vdW  Elec       q    Type
                         _______ _______ _______ _____ _____    ______ ____

>  <TORSDO>
F 12

$$$$
