=
 OpenBabel10272413293D

 32 38  0  0  1  0  0  0  0  0999 V2000
  186.1100  176.7870  137.4580 C   0  0  0  0  0  2  0  0  0  0  0  0
  188.6450  178.1410  141.6010 C   0  0  2  0  0  3  0  0  0  0  0  0
  187.0220  178.0780  139.6720 C   0  0  2  0  0  3  0  0  0  0  0  0
  189.0080  176.6230  139.5580 C   0  0  0  0  0  2  0  0  0  0  0  0
  187.6340  176.9990  137.4610 C   0  0  2  0  0  3  0  0  0  0  0  0
  190.1380  176.2650  141.6750 N   0  0  0  0  0  2  0  0  0  0  0  0
  189.6360  177.3060  140.7840 C   0  0  2  0  0  3  0  0  0  0  0  0
  189.2260  176.1810  142.8200 C   0  0  2  0  0  3  0  0  0  0  0  0
  188.0590  177.1390  142.5540 C   0  0  1  0  0  3  0  0  0  0  0  0
  185.3150  177.8750  138.2180 C   0  0  0  0  0  2  0  0  0  0  0  0
  188.1560  177.6030  138.7770 C   0  0  1  0  0  3  0  0  0  0  0  0
  186.1230  178.8140  138.8940 O   0  0  0  0  0  0  0  0  0  0  0  0
  187.6010  178.9260  140.7900 C   0  0  0  0  0  2  0  0  0  0  0  0
  186.1560  178.1380  143.8480 C   0  0  0  0  0  0  0  0  0  0  0  0
  185.9730  178.5790  145.2120 C   0  0  1  0  0  3  0  0  0  0  0  0
  186.9570  178.1430  147.1990 C   0  0  0  0  0  0  0  0  0  0  0  0
  185.6730  178.0650  147.3800 N   0  0  0  0  0  0  0  0  0  0  0  0
  185.0420  178.2600  146.1020 C   0  0  0  0  0  2  0  0  0  0  0  0
  188.1020  177.8610  145.0430 N   0  0  0  0  0  2  0  0  0  0  0  0
  184.9250  177.9790  142.6100 Cl  0  0  0  0  0  0  0  0  0  0  0  0
  187.9590  177.9010  148.2710 C   0  0  0  0  0  1  0  0  0  0  0  0
  187.4390  177.7700  143.7680 C   0  0  0  0  0  0  0  0  0  0  0  0
  187.2430  178.4400  145.8140 C   0  0  1  0  0  3  0  0  0  0  0  0
  189.3010  177.4950  135.4190 C   0  0  0  0  0  0  0  0  0  0  0  0
  189.1900  175.9600  135.3710 C   0  0  0  0  0  2  0  0  0  0  0  0
  190.4040  176.5610  135.9430 C   0  0  0  0  0  2  0  0  0  0  0  0
  189.3660  178.4720  136.5940 C   0  0  0  0  0  2  0  0  0  0  0  0
  188.0480  177.8880  136.2770 C   0  0  2  0  0  3  0  0  0  0  0  0
  190.0020  176.5010  144.0960 C   0  0  0  0  0  2  0  0  0  0  0  0
  191.4250  176.9170  143.7640 C   0  0  0  0  0  2  0  0  0  0  0  0
  191.0040  179.2690  143.7790 O   0  0  0  0  0  1  0  0  0  0  0  0
  191.7400  178.2600  144.4030 C   0  0  0  0  0  2  0  0  0  0  0  0
  1 10  1  0  0  0  0
  2 13  1  6  0  0  0
  2  9  1  0  0  0  0
  3 13  1  1  0  0  0
  5  1  1  1  0  0  0
  5 11  1  0  0  0  0
  6  8  1  0  0  0  0
  7  4  1  6  0  0  0
  7  2  1  0  0  0  0
  7  6  1  0  0  0  0
  8 29  1  1  0  0  0
  9  8  1  0  0  0  0
  9 22  1  1  0  0  0
 10 12  1  0  0  0  0
 11  4  1  1  0  0  0
 11  3  1  0  0  0  0
 12  3  1  0  0  0  0
 14 15  1  0  0  0  0
 15 23  1  0  0  0  0
 15 18  1  1  0  0  0
 16 17  2  0  0  0  0
 16 21  1  0  0  0  0
 18 17  1  0  0  0  0
 20 14  1  0  0  0  0
 22 14  2  0  0  0  0
 22 19  1  0  0  0  0
 23 19  1  6  0  0  0
 23 16  1  0  0  0  0
 24 26  1  0  0  0  0
 24 28  1  0  0  0  0
 24 27  1  0  0  0  0
 25 24  1  0  0  0  0
 25 26  1  0  0  0  0
 28 27  1  1  0  0  0
 28  5  1  0  0  0  0
 30 29  1  0  0  0  0
 30 32  1  0  0  0  0
 31 32  1  0  0  0  0
M  END
>  <MODEL>
1

>  <REMARK>
 VINA RESULT:      -8.1      0.000      0.000
  Name = 
  5 active torsions:
  status: ('A' for Active; 'I' for Inactive)
    1  A    between atoms: C_5  and  C_25
    2  A    between atoms: C_12  and  C_24
    3  A    between atoms: C_15  and  C_26
    4  A    between atoms: C_16  and  C_31
    5  A    between atoms: C_25  and  C_26
                            x       y       z     vdW  Elec       q    Type
                         _______ _______ _______ _____ _____    ______ ____

>  <TORSDO>
F 5

$$$$
=
 OpenBabel10272413293D

 32 38  0  0  1  0  0  0  0  0999 V2000
  189.7640  176.1660  141.6890 C   0  0  0  0  0  2  0  0  0  0  0  0
  185.7120  179.1680  141.7140 C   0  0  2  0  0  3  0  0  0  0  0  0
  187.8740  178.0290  141.0910 C   0  0  2  0  0  3  0  0  0  0  0  0
  187.0630  177.7800  143.4050 C   0  0  0  0  0  2  0  0  0  0  0  0
  189.4490  177.1180  142.8570 C   0  0  2  0  0  3  0  0  0  0  0  0
  184.7250  178.3350  143.7360 N   0  0  0  0  0  2  0  0  0  0  0  0
  185.9780  178.8460  143.1890 C   0  0  2  0  0  3  0  0  0  0  0  0
  183.8670  177.9590  142.6080 C   0  0  2  0  0  3  0  0  0  0  0  0
  184.6820  178.1480  141.3230 C   0  0  1  0  0  3  0  0  0  0  0  0
  189.5770  176.7950  140.2880 C   0  0  0  0  0  2  0  0  0  0  0  0
  188.2830  178.0770  142.5550 C   0  0  1  0  0  3  0  0  0  0  0  0
  189.0300  178.0960  140.3060 O   0  0  0  0  0  0  0  0  0  0  0  0
  186.9480  179.1980  140.8020 C   0  0  0  0  0  2  0  0  0  0  0  0
  183.1790  177.6810  139.3690 C   0  0  0  0  0  0  0  0  0  0  0  0
  182.5090  178.4970  138.3820 C   0  0  1  0  0  3  0  0  0  0  0  0
  181.8370  180.6500  138.2490 C   0  0  0  0  0  0  0  0  0  0  0  0
  180.8410  179.9110  137.8610 N   0  0  0  0  0  0  0  0  0  0  0  0
  181.2330  178.5360  138.0200 C   0  0  0  0  0  2  0  0  0  0  0  0
  183.6700  179.9030  139.7060 N   0  0  0  0  0  2  0  0  0  0  0  0
  182.9750  175.9610  139.6400 Cl  0  0  0  0  0  0  0  0  0  0  0  0
  181.7840  182.1350  138.3240 C   0  0  0  0  0  1  0  0  0  0  0  0
  183.8980  178.5380  140.1020 C   0  0  0  0  0  0  0  0  0  0  0  0
  182.9490  179.8140  138.6370 C   0  0  1  0  0  3  0  0  0  0  0  0
  191.3000  177.7800  144.6800 C   0  0  0  0  0  0  0  0  0  0  0  0
  191.0960  176.2810  144.9670 C   0  0  0  0  0  2  0  0  0  0  0  0
  190.4780  177.2620  145.8710 C   0  0  0  0  0  2  0  0  0  0  0  0
  190.3150  178.8830  144.2900 C   0  0  0  0  0  2  0  0  0  0  0  0
  190.7020  177.9230  143.2380 C   0  0  2  0  0  3  0  0  0  0  0  0
  182.5910  178.7980  142.6540 C   0  0  0  0  0  2  0  0  0  0  0  0
  181.9870  178.7710  144.0470 C   0  0  0  0  0  2  0  0  0  0  0  0
  179.9820  177.4770  144.1750 O   0  0  0  0  0  1  0  0  0  0  0  0
  180.4690  178.7670  143.9590 C   0  0  0  0  0  2  0  0  0  0  0  0
  2 13  1  6  0  0  0
  2  7  1  0  0  0  0
  3 13  1  6  0  0  0
  3 11  1  0  0  0  0
  5  1  1  6  0  0  0
  5 28  1  0  0  0  0
  7  4  1  6  0  0  0
  7  6  1  0  0  0  0
  8 29  1  6  0  0  0
  8  6  1  0  0  0  0
  9 22  1  6  0  0  0
  9  2  1  0  0  0  0
  9  8  1  0  0  0  0
 10 12  1  0  0  0  0
 10  1  1  0  0  0  0
 11  5  1  0  0  0  0
 11  4  1  1  0  0  0
 12  3  1  0  0  0  0
 14 20  1  0  0  0  0
 14 22  2  0  0  0  0
 15 18  1  1  0  0  0
 15 23  1  0  0  0  0
 15 14  1  0  0  0  0
 16 21  1  0  0  0  0
 17 18  1  0  0  0  0
 17 16  2  0  0  0  0
 19 22  1  0  0  0  0
 23 16  1  1  0  0  0
 23 19  1  0  0  0  0
 24 25  1  0  0  0  0
 24 26  1  0  0  0  0
 25 26  1  0  0  0  0
 27 24  1  0  0  0  0
 28 27  1  1  0  0  0
 28 24  1  0  0  0  0
 29 30  1  0  0  0  0
 32 30  1  0  0  0  0
 32 31  1  0  0  0  0
M  END
>  <MODEL>
2

>  <REMARK>
 VINA RESULT:      -7.5      3.780      7.456
  Name = 
  5 active torsions:
  status: ('A' for Active; 'I' for Inactive)
    1  A    between atoms: C_5  and  C_25
    2  A    between atoms: C_12  and  C_24
    3  A    between atoms: C_15  and  C_26
    4  A    between atoms: C_16  and  C_31
    5  A    between atoms: C_25  and  C_26
                            x       y       z     vdW  Elec       q    Type
                         _______ _______ _______ _____ _____    ______ ____

>  <TORSDO>
F 5

$$$$
=
 OpenBabel10272413293D

 32 38  0  0  1  0  0  0  0  0999 V2000
  188.8580  175.7430  137.3230 C   0  0  0  0  0  2  0  0  0  0  0  0
  189.0400  178.0010  141.8280 C   0  0  2  0  0  3  0  0  0  0  0  0
  188.6050  177.4830  139.3980 C   0  0  2  0  0  3  0  0  0  0  0  0
  190.2960  176.1350  140.5820 C   0  0  0  0  0  2  0  0  0  0  0  0
  190.1840  176.0270  138.0520 C   0  0  2  0  0  3  0  0  0  0  0  0
  190.1870  176.2520  143.0030 N   0  0  0  0  0  2  0  0  0  0  0  0
  190.2600  177.0740  141.7990 C   0  0  2  0  0  3  0  0  0  0  0  0
  188.8200  176.3470  143.5250 C   0  0  2  0  0  3  0  0  0  0  0  0
  188.0000  177.1760  142.5290 C   0  0  1  0  0  3  0  0  0  0  0  0
  187.8510  176.9170  137.3540 C   0  0  0  0  0  2  0  0  0  0  0  0
  190.0070  176.9010  139.3060 C   0  0  1  0  0  3  0  0  0  0  0  0
  188.2610  178.0090  138.1490 O   0  0  0  0  0  0  0  0  0  0  0  0
  188.5910  178.5610  140.4690 C   0  0  0  0  0  2  0  0  0  0  0  0
  185.8930  178.5320  142.4050 C   0  0  0  0  0  0  0  0  0  0  0  0
  185.0080  179.1270  143.3800 C   0  0  1  0  0  3  0  0  0  0  0  0
  184.5270  178.7730  145.5590 C   0  0  0  0  0  0  0  0  0  0  0  0
  183.3960  178.8760  144.9270 N   0  0  0  0  0  0  0  0  0  0  0  0
  183.6930  179.0200  143.5270 C   0  0  0  0  0  2  0  0  0  0  0  0
  186.6670  178.1330  144.5350 N   0  0  0  0  0  2  0  0  0  0  0  0
  185.6370  178.4050  140.6750 Cl  0  0  0  0  0  0  0  0  0  0  0  0
  184.6360  178.5160  147.0200 C   0  0  0  0  0  1  0  0  0  0  0  0
  186.8900  177.9980  143.1190 C   0  0  0  0  0  0  0  0  0  0  0  0
  185.6240  178.8900  144.6280 C   0  0  1  0  0  3  0  0  0  0  0  0
  192.4280  175.8730  136.5910 C   0  0  0  0  0  0  0  0  0  0  0  0
  191.8380  174.4620  136.4130 C   0  0  0  0  0  2  0  0  0  0  0  0
  192.9660  174.6420  137.3390 C   0  0  0  0  0  2  0  0  0  0  0  0
  192.4740  176.8100  137.8000 C   0  0  0  0  0  2  0  0  0  0  0  0
  191.1860  176.6890  137.0910 C   0  0  2  0  0  3  0  0  0  0  0  0
  188.8660  176.9460  144.9290 C   0  0  0  0  0  2  0  0  0  0  0  0
  190.3050  177.1380  145.3790 C   0  0  0  0  0  2  0  0  0  0  0  0
  191.7560  176.8860  147.2600 O   0  0  0  0  0  1  0  0  0  0  0  0
  190.4140  176.9370  146.8820 C   0  0  0  0  0  2  0  0  0  0  0  0
  1 10  1  0  0  0  0
  2 13  1  6  0  0  0
  2  9  1  0  0  0  0
  3 13  1  1  0  0  0
  5  1  1  6  0  0  0
  5 11  1  0  0  0  0
  6  8  1  0  0  0  0
  7  4  1  6  0  0  0
  7  2  1  0  0  0  0
  7  6  1  0  0  0  0
  8 29  1  1  0  0  0
  9 22  1  1  0  0  0
  9  8  1  0  0  0  0
 10 12  1  0  0  0  0
 11  3  1  0  0  0  0
 11  4  1  1  0  0  0
 12  3  1  0  0  0  0
 14 22  2  0  0  0  0
 14 15  1  0  0  0  0
 15 18  1  1  0  0  0
 15 23  1  0  0  0  0
 16 21  1  0  0  0  0
 17 16  2  0  0  0  0
 18 17  1  0  0  0  0
 20 14  1  0  0  0  0
 22 19  1  0  0  0  0
 23 19  1  6  0  0  0
 23 16  1  0  0  0  0
 24 28  1  0  0  0  0
 24 26  1  0  0  0  0
 24 27  1  0  0  0  0
 25 24  1  0  0  0  0
 25 26  1  0  0  0  0
 28 27  1  1  0  0  0
 28  5  1  0  0  0  0
 29 30  1  0  0  0  0
 30 32  1  0  0  0  0
 32 31  1  0  0  0  0
M  END
>  <MODEL>
3

>  <REMARK>
 VINA RESULT:      -7.4      1.936      2.523
  Name = 
  5 active torsions:
  status: ('A' for Active; 'I' for Inactive)
    1  A    between atoms: C_5  and  C_25
    2  A    between atoms: C_12  and  C_24
    3  A    between atoms: C_15  and  C_26
    4  A    between atoms: C_16  and  C_31
    5  A    between atoms: C_25  and  C_26
                            x       y       z     vdW  Elec       q    Type
                         _______ _______ _______ _____ _____    ______ ____

>  <TORSDO>
F 5

$$$$
=
 OpenBabel10272413293D

 32 38  0  0  1  0  0  0  0  0999 V2000
  186.8050  178.7060  145.1120 C   0  0  0  0  0  2  0  0  0  0  0  0
  190.1170  176.1770  142.2740 C   0  0  2  0  0  3  0  0  0  0  0  0
  187.9990  176.9810  143.3810 C   0  0  2  0  0  3  0  0  0  0  0  0
  190.1500  177.6510  144.3810 C   0  0  0  0  0  2  0  0  0  0  0  0
  188.0180  177.9740  145.7140 C   0  0  2  0  0  3  0  0  0  0  0  0
  192.0770  177.3950  142.9290 N   0  0  0  0  0  2  0  0  0  0  0  0
  190.9260  176.6820  143.4740 C   0  0  2  0  0  3  0  0  0  0  0  0
  191.7940  177.6880  141.5210 C   0  0  2  0  0  3  0  0  0  0  0  0
  190.3600  177.2290  141.2310 C   0  0  1  0  0  3  0  0  0  0  0  0
  186.0490  177.9010  144.0290 C   0  0  0  0  0  2  0  0  0  0  0  0
  188.7680  177.1070  144.6860 C   0  0  1  0  0  3  0  0  0  0  0  0
  186.6660  176.6810  143.6800 O   0  0  0  0  0  0  0  0  0  0  0  0
  188.6320  175.8850  142.5420 C   0  0  0  0  0  2  0  0  0  0  0  0
  189.5010  177.4830  138.8870 C   0  0  0  0  0  0  0  0  0  0  0  0
  189.5640  176.6800  137.6880 C   0  0  1  0  0  3  0  0  0  0  0  0
  190.9120  175.0440  136.9040 C   0  0  0  0  0  0  0  0  0  0  0  0
  190.7560  175.9070  135.9460 N   0  0  0  0  0  0  0  0  0  0  0  0
  189.9660  176.9920  136.4630 C   0  0  0  0  0  2  0  0  0  0  0  0
  190.6350  175.5230  139.2990 N   0  0  0  0  0  2  0  0  0  0  0  0
  188.9090  179.1260  139.0350 Cl  0  0  0  0  0  0  0  0  0  0  0  0
  191.7530  173.8230  136.7880 C   0  0  0  0  0  1  0  0  0  0  0  0
  190.0970  176.7470  139.8320 C   0  0  0  0  0  0  0  0  0  0  0  0
  190.2000  175.4820  138.0820 C   0  0  1  0  0  3  0  0  0  0  0  0
  188.0940  177.4580  148.3440 C   0  0  0  0  0  0  0  0  0  0  0  0
  188.0880  178.9970  148.3240 C   0  0  0  0  0  2  0  0  0  0  0  0
  189.3560  178.3020  148.5890 C   0  0  0  0  0  2  0  0  0  0  0  0
  188.7770  176.4330  147.4370 C   0  0  0  0  0  2  0  0  0  0  0  0
  187.5770  177.1080  146.9050 C   0  0  2  0  0  3  0  0  0  0  0  0
  192.8450  177.0020  140.6500 C   0  0  0  0  0  2  0  0  0  0  0  0
  193.2250  177.8880  139.4770 C   0  0  0  0  0  2  0  0  0  0  0  0
  194.2510  175.9190  138.5940 O   0  0  0  0  0  1  0  0  0  0  0  0
  193.4940  177.0380  138.2450 C   0  0  0  0  0  2  0  0  0  0  0  0
  2 13  1  1  0  0  0
  2  7  1  0  0  0  0
  3 13  1  6  0  0  0
  3 12  1  0  0  0  0
  3 11  1  0  0  0  0
  5  1  1  6  0  0  0
  5 28  1  0  0  0  0
  6  7  1  0  0  0  0
  7  4  1  6  0  0  0
  8 29  1  6  0  0  0
  8  6  1  0  0  0  0
  9 22  1  6  0  0  0
  9  8  1  0  0  0  0
  9  2  1  0  0  0  0
 10  1  1  0  0  0  0
 11  4  1  6  0  0  0
 11  5  1  0  0  0  0
 12 10  1  0  0  0  0
 14 20  1  0  0  0  0
 14 22  2  0  0  0  0
 15 18  1  6  0  0  0
 15 23  1  0  0  0  0
 15 14  1  0  0  0  0
 17 18  1  0  0  0  0
 17 16  2  0  0  0  0
 19 22  1  0  0  0  0
 21 16  1  0  0  0  0
 23 16  1  6  0  0  0
 23 19  1  0  0  0  0
 24 26  1  0  0  0  0
 25 24  1  0  0  0  0
 25 26  1  0  0  0  0
 27 24  1  0  0  0  0
 28 27  1  6  0  0  0
 28 24  1  0  0  0  0
 30 29  1  0  0  0  0
 32 31  1  0  0  0  0
 32 30  1  0  0  0  0
M  END
>  <MODEL>
4

>  <REMARK>
 VINA RESULT:      -6.6      2.831      8.032
  Name = 
  5 active torsions:
  status: ('A' for Active; 'I' for Inactive)
    1  A    between atoms: C_5  and  C_25
    2  A    between atoms: C_12  and  C_24
    3  A    between atoms: C_15  and  C_26
    4  A    between atoms: C_16  and  C_31
    5  A    between atoms: C_25  and  C_26
                            x       y       z     vdW  Elec       q    Type
                         _______ _______ _______ _____ _____    ______ ____

>  <TORSDO>
F 5

$$$$
=
 OpenBabel10272413293D

 32 38  0  0  1  0  0  0  0  0999 V2000
  180.8330  177.8290  142.1670 C   0  0  0  0  0  2  0  0  0  0  0  0
  185.6080  179.3190  142.8030 C   0  0  2  0  0  3  0  0  0  0  0  0
  183.1290  178.9560  143.0920 C   0  0  2  0  0  3  0  0  0  0  0  0
  184.1180  178.4700  140.8870 C   0  0  0  0  0  2  0  0  0  0  0  0
  181.5970  178.6310  141.0980 C   0  0  2  0  0  3  0  0  0  0  0  0
  186.5310  178.2210  140.8790 N   0  0  0  0  0  2  0  0  0  0  0  0
  185.4530  179.1150  141.2920 C   0  0  2  0  0  3  0  0  0  0  0  0
  187.0590  177.5740  142.0840 C   0  0  2  0  0  3  0  0  0  0  0  0
  186.1850  178.0130  143.2660 C   0  0  1  0  0  3  0  0  0  0  0  0
  181.0240  178.3500  143.6110 C   0  0  0  0  0  2  0  0  0  0  0  0
  182.9600  179.1470  141.5930 C   0  0  1  0  0  3  0  0  0  0  0  0
  181.9640  179.3960  143.7280 O   0  0  0  0  0  0  0  0  0  0  0  0
  184.3390  179.7500  143.5540 C   0  0  0  0  0  2  0  0  0  0  0  0
  186.2460  178.2090  145.7670 C   0  0  0  0  0  0  0  0  0  0  0  0
  187.2880  178.1590  146.7660 C   0  0  1  0  0  3  0  0  0  0  0  0
  189.3730  177.2940  146.8890 C   0  0  0  0  0  0  0  0  0  0  0  0
  188.7460  176.9430  147.9710 N   0  0  0  0  0  0  0  0  0  0  0  0
  187.3930  177.4210  147.8640 C   0  0  0  0  0  2  0  0  0  0  0  0
  188.2960  177.9080  144.7660 N   0  0  0  0  0  2  0  0  0  0  0  0
  184.5140  178.2400  146.0380 Cl  0  0  0  0  0  0  0  0  0  0  0  0
  190.7740  176.9020  146.5810 C   0  0  0  0  0  1  0  0  0  0  0  0
  186.8810  178.1110  144.5940 C   0  0  0  0  0  0  0  0  0  0  0  0
  188.4920  178.0570  146.0350 C   0  0  1  0  0  3  0  0  0  0  0  0
  180.2750  179.8510  139.1090 C   0  0  0  0  0  0  0  0  0  0  0  0
  179.9820  178.3680  138.8200 C   0  0  0  0  0  2  0  0  0  0  0  0
  180.9860  179.0600  137.9980 C   0  0  0  0  0  2  0  0  0  0  0  0
  181.5340  180.5580  139.6140 C   0  0  0  0  0  2  0  0  0  0  0  0
  180.7390  179.8090  140.6070 C   0  0  2  0  0  3  0  0  0  0  0  0
  188.5330  177.9430  142.2410 C   0  0  0  0  0  2  0  0  0  0  0  0
  189.2910  177.6640  140.9550 C   0  0  0  0  0  2  0  0  0  0  0  0
  190.1340  175.8250  142.2260 O   0  0  0  0  0  1  0  0  0  0  0  0
  190.4700  176.7440  141.2320 C   0  0  0  0  0  2  0  0  0  0  0  0
  1 10  1  0  0  0  0
  2  9  1  0  0  0  0
  2 13  1  1  0  0  0
  3 13  1  1  0  0  0
  3 12  1  0  0  0  0
  5 11  1  0  0  0  0
  5  1  1  1  0  0  0
  6  7  1  0  0  0  0
  6  8  1  0  0  0  0
  7  4  1  1  0  0  0
  7  2  1  0  0  0  0
  8 29  1  1  0  0  0
  8  9  1  0  0  0  0
  9 22  1  1  0  0  0
 10 12  1  0  0  0  0
 11  4  1  6  0  0  0
 11  3  1  0  0  0  0
 14 20  1  0  0  0  0
 14 15  1  0  0  0  0
 15 18  1  1  0  0  0
 16 17  2  0  0  0  0
 18 17  1  0  0  0  0
 21 16  1  0  0  0  0
 22 19  1  0  0  0  0
 22 14  2  0  0  0  0
 23 19  1  6  0  0  0
 23 15  1  0  0  0  0
 23 16  1  0  0  0  0
 24 27  1  0  0  0  0
 24 28  1  0  0  0  0
 25 24  1  0  0  0  0
 26 25  1  0  0  0  0
 26 24  1  0  0  0  0
 28 27  1  6  0  0  0
 28  5  1  0  0  0  0
 30 32  1  0  0  0  0
 30 29  1  0  0  0  0
 32 31  1  0  0  0  0
M  END
>  <MODEL>
5

>  <REMARK>
 VINA RESULT:      -6.4      3.416      5.397
  Name = 
  5 active torsions:
  status: ('A' for Active; 'I' for Inactive)
    1  A    between atoms: C_5  and  C_25
    2  A    between atoms: C_12  and  C_24
    3  A    between atoms: C_15  and  C_26
    4  A    between atoms: C_16  and  C_31
    5  A    between atoms: C_25  and  C_26
                            x       y       z     vdW  Elec       q    Type
                         _______ _______ _______ _____ _____    ______ ____

>  <TORSDO>
F 5

$$$$
=
 OpenBabel10272413293D

 32 38  0  0  1  0  0  0  0  0999 V2000
  190.4600  174.6590  135.9240 C   0  0  0  0  0  2  0  0  0  0  0  0
  189.6730  178.1320  139.4950 C   0  0  2  0  0  3  0  0  0  0  0  0
  189.6740  176.8590  137.3170 C   0  0  2  0  0  3  0  0  0  0  0  0
  191.3370  176.2290  139.0230 C   0  0  0  0  0  2  0  0  0  0  0  0
  191.6140  175.3680  136.6550 C   0  0  2  0  0  3  0  0  0  0  0  0
  190.8590  177.0280  141.2640 N   0  0  0  0  0  2  0  0  0  0  0  0
  190.9970  177.4610  139.8770 C   0  0  2  0  0  3  0  0  0  0  0  0
  189.4300  177.0350  141.5920 C   0  0  2  0  0  3  0  0  0  0  0  0
  188.6610  177.3810  140.3110 C   0  0  1  0  0  3  0  0  0  0  0  0
  189.3110  175.5990  135.4870 C   0  0  0  0  0  2  0  0  0  0  0  0
  191.1390  176.5260  137.5500 C   0  0  1  0  0  3  0  0  0  0  0  0
  189.4490  176.9290  135.9380 O   0  0  0  0  0  0  0  0  0  0  0  0
  189.3580  178.1830  137.9910 C   0  0  0  0  0  2  0  0  0  0  0  0
  186.4090  178.2120  139.5820 C   0  0  0  0  0  0  0  0  0  0  0  0
  185.3300  178.9250  140.2270 C   0  0  1  0  0  3  0  0  0  0  0  0
  184.6370  179.2330  142.3550 C   0  0  0  0  0  0  0  0  0  0  0  0
  183.5930  178.9120  141.6530 N   0  0  0  0  0  0  0  0  0  0  0  0
  184.0380  178.6360  140.3140 C   0  0  0  0  0  2  0  0  0  0  0  0
  186.9600  178.6900  141.7640 N   0  0  0  0  0  2  0  0  0  0  0  0
  186.3940  177.4750  137.9920 Cl  0  0  0  0  0  0  0  0  0  0  0  0
  184.6000  179.4990  143.8180 C   0  0  0  0  0  1  0  0  0  0  0  0
  187.3770  178.1370  140.5020 C   0  0  0  0  0  0  0  0  0  0  0  0
  185.8140  179.2320  141.5170 C   0  0  1  0  0  3  0  0  0  0  0  0
  194.1220  175.3530  135.7080 C   0  0  0  0  0  0  0  0  0  0  0  0
  193.9180  173.8740  136.0840 C   0  0  0  0  0  2  0  0  0  0  0  0
  194.7200  174.7230  136.9770 C   0  0  0  0  0  2  0  0  0  0  0  0
  193.6670  176.6450  136.3860 C   0  0  0  0  0  2  0  0  0  0  0  0
  192.6480  175.8820  135.6400 C   0  0  2  0  0  3  0  0  0  0  0  0
  189.1880  178.0170  142.7370 C   0  0  0  0  0  2  0  0  0  0  0  0
  190.3010  177.9190  143.7660 C   0  0  0  0  0  2  0  0  0  0  0  0
  188.4590  177.4920  145.2270 O   0  0  0  0  0  1  0  0  0  0  0  0
  189.7300  178.0640  145.1680 C   0  0  0  0  0  2  0  0  0  0  0  0
  2 13  1  6  0  0  0
  2  7  1  0  0  0  0
  2  9  1  0  0  0  0
  3 11  1  0  0  0  0
  3 13  1  1  0  0  0
  5  1  1  6  0  0  0
  5 11  1  0  0  0  0
  6  8  1  0  0  0  0
  7  4  1  6  0  0  0
  7  6  1  0  0  0  0
  8 29  1  1  0  0  0
  9 22  1  1  0  0  0
  9  8  1  0  0  0  0
 10  1  1  0  0  0  0
 10 12  1  0  0  0  0
 11  4  1  1  0  0  0
 12  3  1  0  0  0  0
 14 15  1  0  0  0  0
 14 22  2  0  0  0  0
 15 18  1  1  0  0  0
 15 23  1  0  0  0  0
 16 21  1  0  0  0  0
 17 16  2  0  0  0  0
 18 17  1  0  0  0  0
 20 14  1  0  0  0  0
 22 19  1  0  0  0  0
 23 19  1  1  0  0  0
 23 16  1  0  0  0  0
 24 25  1  0  0  0  0
 24 27  1  0  0  0  0
 24 26  1  0  0  0  0
 25 26  1  0  0  0  0
 28 24  1  0  0  0  0
 28 27  1  1  0  0  0
 28  5  1  0  0  0  0
 29 30  1  0  0  0  0
 30 32  1  0  0  0  0
 32 31  1  0  0  0  0
M  END
>  <MODEL>
6

>  <REMARK>
 VINA RESULT:      -6.3      2.743      4.163
  Name = 
  5 active torsions:
  status: ('A' for Active; 'I' for Inactive)
    1  A    between atoms: C_5  and  C_25
    2  A    between atoms: C_12  and  C_24
    3  A    between atoms: C_15  and  C_26
    4  A    between atoms: C_16  and  C_31
    5  A    between atoms: C_25  and  C_26
                            x       y       z     vdW  Elec       q    Type
                         _______ _______ _______ _____ _____    ______ ____

>  <TORSDO>
F 5

$$$$
=
 OpenBabel10272413293D

 32 38  0  0  1  0  0  0  0  0999 V2000
  188.3590  178.9240  147.8190 C   0  0  0  0  0  2  0  0  0  0  0  0
  187.1290  177.1460  143.2640 C   0  0  2  0  0  3  0  0  0  0  0  0
  187.1520  177.6660  145.7320 C   0  0  2  0  0  3  0  0  0  0  0  0
  189.2180  178.0650  144.4480 C   0  0  0  0  0  2  0  0  0  0  0  0
  189.3220  178.0630  146.9810 C   0  0  2  0  0  3  0  0  0  0  0  0
  188.9260  178.1620  142.0420 N   0  0  0  0  0  2  0  0  0  0  0  0
  188.6480  177.3420  143.2170 C   0  0  2  0  0  3  0  0  0  0  0  0
  187.6670  178.7880  141.6280 C   0  0  2  0  0  3  0  0  0  0  0  0
  186.6020  178.4180  142.6670 C   0  0  1  0  0  3  0  0  0  0  0  0
  186.9010  178.4080  147.8420 C   0  0  0  0  0  2  0  0  0  0  0  0
  188.6600  177.4690  145.7250 C   0  0  1  0  0  3  0  0  0  0  0  0
  186.6640  177.3060  146.9920 O   0  0  0  0  0  0  0  0  0  0  0  0
  186.5400  176.8030  144.6420 C   0  0  0  0  0  2  0  0  0  0  0  0
  184.1050  178.5490  142.8760 C   0  0  0  0  0  0  0  0  0  0  0  0
  182.9990  178.4140  141.9560 C   0  0  1  0  0  3  0  0  0  0  0  0
  182.7170  178.6120  139.7230 C   0  0  0  0  0  0  0  0  0  0  0  0
  181.7580  179.2780  140.2930 N   0  0  0  0  0  0  0  0  0  0  0  0
  181.9770  179.2250  141.7130 C   0  0  0  0  0  2  0  0  0  0  0  0
  184.8790  178.0760  140.7610 N   0  0  0  0  0  2  0  0  0  0  0  0
  184.0400  179.0830  144.5440 Cl  0  0  0  0  0  0  0  0  0  0  0  0
  182.8930  178.5140  138.2490 C   0  0  0  0  0  1  0  0  0  0  0  0
  185.1980  178.2910  142.1490 C   0  0  0  0  0  0  0  0  0  0  0  0
  183.5880  178.0450  140.7270 C   0  0  1  0  0  3  0  0  0  0  0  0
  191.1850  176.1680  147.3420 C   0  0  0  0  0  0  0  0  0  0  0  0
  192.0030  177.2940  146.6840 C   0  0  0  0  0  2  0  0  0  0  0  0
  191.6070  176.1410  145.8640 C   0  0  0  0  0  2  0  0  0  0  0  0
  189.7590  175.6720  147.0960 C   0  0  0  0  0  2  0  0  0  0  0  0
  189.9120  176.9360  147.8440 C   0  0  2  0  0  3  0  0  0  0  0  0
  187.3270  178.3300  140.2110 C   0  0  0  0  0  2  0  0  0  0  0  0
  188.5830  177.8930  139.4770 C   0  0  0  0  0  2  0  0  0  0  0  0
  188.9820  179.5380  137.7920 O   0  0  0  0  0  1  0  0  0  0  0  0
  188.4800  178.2540  138.0040 C   0  0  0  0  0  2  0  0  0  0  0  0
  1 10  1  0  0  0  0
  2 13  1  1  0  0  0
  3 13  1  6  0  0  0
  3 12  1  0  0  0  0
  5  1  1  1  0  0  0
  5 28  1  0  0  0  0
  6  7  1  0  0  0  0
  7  2  1  0  0  0  0
  7  4  1  1  0  0  0
  8 29  1  6  0  0  0
  8  6  1  0  0  0  0
  8  9  1  0  0  0  0
  9 22  1  6  0  0  0
  9  2  1  0  0  0  0
 11  4  1  6  0  0  0
 11  3  1  0  0  0  0
 11  5  1  0  0  0  0
 12 10  1  0  0  0  0
 14 20  1  0  0  0  0
 15 18  1  6  0  0  0
 15 14  1  0  0  0  0
 16 17  2  0  0  0  0
 17 18  1  0  0  0  0
 19 22  1  0  0  0  0
 21 16  1  0  0  0  0
 22 14  2  0  0  0  0
 23 16  1  6  0  0  0
 23 19  1  0  0  0  0
 23 15  1  0  0  0  0
 24 28  1  0  0  0  0
 25 24  1  0  0  0  0
 26 25  1  0  0  0  0
 26 24  1  0  0  0  0
 27 24  1  0  0  0  0
 28 27  1  6  0  0  0
 30 29  1  0  0  0  0
 31 32  1  0  0  0  0
 32 30  1  0  0  0  0
M  END
>  <MODEL>
7

>  <REMARK>
 VINA RESULT:      -6.0      2.944      7.352
  Name = 
  5 active torsions:
  status: ('A' for Active; 'I' for Inactive)
    1  A    between atoms: C_5  and  C_25
    2  A    between atoms: C_12  and  C_24
    3  A    between atoms: C_15  and  C_26
    4  A    between atoms: C_16  and  C_31
    5  A    between atoms: C_25  and  C_26
                            x       y       z     vdW  Elec       q    Type
                         _______ _______ _______ _____ _____    ______ ____

>  <TORSDO>
F 5

$$$$
=
 OpenBabel10272413293D

 32 38  0  0  1  0  0  0  0  0999 V2000
  190.6350  175.7800  146.5270 C   0  0  0  0  0  2  0  0  0  0  0  0
  188.5260  178.7250  143.0190 C   0  0  2  0  0  3  0  0  0  0  0  0
  190.1840  177.5620  144.5220 C   0  0  2  0  0  3  0  0  0  0  0  0
  187.8050  177.5040  145.1640 C   0  0  0  0  0  2  0  0  0  0  0  0
  189.5580  176.8250  146.8650 C   0  0  2  0  0  3  0  0  0  0  0  0
  186.2510  178.0580  143.3860 N   0  0  0  0  0  2  0  0  0  0  0  0
  187.4410  178.5350  144.0840 C   0  0  2  0  0  3  0  0  0  0  0  0
  186.6720  177.5770  142.0660 C   0  0  2  0  0  3  0  0  0  0  0  0
  188.2020  177.6640  142.0080 C   0  0  1  0  0  3  0  0  0  0  0  0
  191.7250  176.2830  145.5500 C   0  0  0  0  0  2  0  0  0  0  0  0
  189.2120  177.7410  145.6770 C   0  0  1  0  0  3  0  0  0  0  0  0
  191.4860  177.5740  145.0330 O   0  0  0  0  0  0  0  0  0  0  0  0
  189.9770  178.6910  143.5270 C   0  0  0  0  0  2  0  0  0  0  0  0
  189.9930  177.5020  140.2570 C   0  0  0  0  0  0  0  0  0  0  0  0
  190.0960  177.8900  138.8700 C   0  0  1  0  0  3  0  0  0  0  0  0
  188.6400  178.3030  137.1910 C   0  0  0  0  0  0  0  0  0  0  0  0
  189.5590  177.5160  136.7190 N   0  0  0  0  0  0  0  0  0  0  0  0
  190.4440  177.1830  137.8020 C   0  0  0  0  0  2  0  0  0  0  0  0
  188.0480  178.5210  139.5670 N   0  0  0  0  0  2  0  0  0  0  0  0
  191.1310  176.5390  141.1790 Cl  0  0  0  0  0  0  0  0  0  0  0  0
  187.4820  178.7920  136.3960 C   0  0  0  0  0  1  0  0  0  0  0  0
  188.7910  177.9380  140.6530 C   0  0  0  0  0  0  0  0  0  0  0  0
  188.8910  178.5710  138.5880 C   0  0  1  0  0  3  0  0  0  0  0  0
  188.9180  178.3570  148.9710 C   0  0  0  0  0  0  0  0  0  0  0  0
  187.8100  177.2890  149.0100 C   0  0  0  0  0  2  0  0  0  0  0  0
  187.4830  178.6230  148.4870 C   0  0  0  0  0  2  0  0  0  0  0  0
  189.6010  179.0700  147.8030 C   0  0  0  0  0  2  0  0  0  0  0  0
  190.0030  177.6750  148.0670 C   0  0  2  0  0  3  0  0  0  0  0  0
  185.9700  178.4020  140.9890 C   0  0  0  0  0  2  0  0  0  0  0  0
  184.4660  178.3800  141.1990 C   0  0  0  0  0  2  0  0  0  0  0  0
  184.7160  179.8850  139.3610 O   0  0  0  0  0  1  0  0  0  0  0  0
  183.7730  179.1730  140.1020 C   0  0  0  0  0  2  0  0  0  0  0  0
  2 13  1  1  0  0  0
  2  7  1  0  0  0  0
  3 13  1  6  0  0  0
  3 12  1  0  0  0  0
  3 11  1  0  0  0  0
  5  1  1  6  0  0  0
  5 28  1  0  0  0  0
  6  7  1  0  0  0  0
  7  4  1  1  0  0  0
  8 29  1  6  0  0  0
  8  6  1  0  0  0  0
  9 22  1  6  0  0  0
  9  8  1  0  0  0  0
  9  2  1  0  0  0  0
 10  1  1  0  0  0  0
 11  4  1  6  0  0  0
 11  5  1  0  0  0  0
 12 10  1  0  0  0  0
 14 22  2  0  0  0  0
 14 20  1  0  0  0  0
 15 18  1  6  0  0  0
 15 14  1  0  0  0  0
 17 16  2  0  0  0  0
 17 18  1  0  0  0  0
 19 22  1  0  0  0  0
 21 16  1  0  0  0  0
 23 16  1  6  0  0  0
 23 15  1  0  0  0  0
 23 19  1  0  0  0  0
 24 25  1  0  0  0  0
 26 24  1  0  0  0  0
 26 25  1  0  0  0  0
 27 24  1  0  0  0  0
 28 27  1  6  0  0  0
 28 24  1  0  0  0  0
 29 30  1  0  0  0  0
 31 32  1  0  0  0  0
 32 30  1  0  0  0  0
M  END
>  <MODEL>
8

>  <REMARK>
 VINA RESULT:      -5.9      2.334      8.445
  Name = 
  5 active torsions:
  status: ('A' for Active; 'I' for Inactive)
    1  A    between atoms: C_5  and  C_25
    2  A    between atoms: C_12  and  C_24
    3  A    between atoms: C_15  and  C_26
    4  A    between atoms: C_16  and  C_31
    5  A    between atoms: C_25  and  C_26
                            x       y       z     vdW  Elec       q    Type
                         _______ _______ _______ _____ _____    ______ ____

>  <TORSDO>
F 5

$$$$
=
 OpenBabel10272413293D

 32 38  0  0  1  0  0  0  0  0999 V2000
  195.5300  175.7830  134.3460 C   0  0  0  0  0  2  0  0  0  0  0  0
  191.6250  175.2610  137.4940 C   0  0  2  0  0  3  0  0  0  0  0  0
  193.6670  176.1320  136.2980 C   0  0  2  0  0  3  0  0  0  0  0  0
  193.0790  173.7580  135.9990 C   0  0  0  0  0  2  0  0  0  0  0  0
  195.3700  174.5610  135.2680 C   0  0  2  0  0  3  0  0  0  0  0  0
  190.8090  173.1770  136.6290 N   0  0  0  0  0  2  0  0  0  0  0  0
  192.0220  173.8310  137.1120 C   0  0  2  0  0  3  0  0  0  0  0  0
  189.8300  174.2250  136.3240 C   0  0  2  0  0  3  0  0  0  0  0  0
  190.5210  175.5790  136.5270 C   0  0  1  0  0  3  0  0  0  0  0  0
  195.2310  177.1390  135.0290 C   0  0  0  0  0  2  0  0  0  0  0  0
  194.2200  174.7160  136.2800 C   0  0  1  0  0  3  0  0  0  0  0  0
  194.7420  177.0260  136.3480 O   0  0  0  0  0  0  0  0  0  0  0  0
  192.7650  176.2920  137.5100 C   0  0  0  0  0  2  0  0  0  0  0  0
  188.6890  177.2680  136.2310 C   0  0  0  0  0  0  0  0  0  0  0  0
  188.0190  178.2050  137.1030 C   0  0  1  0  0  3  0  0  0  0  0  0
  187.6870  178.3920  139.3300 C   0  0  0  0  0  0  0  0  0  0  0  0
  186.5400  178.5860  138.7520 N   0  0  0  0  0  0  0  0  0  0  0  0
  186.7270  178.3880  137.3400 C   0  0  0  0  0  2  0  0  0  0  0  0
  189.5730  177.1560  138.3530 N   0  0  0  0  0  2  0  0  0  0  0  0
  188.2560  176.8530  134.5840 Cl  0  0  0  0  0  0  0  0  0  0  0  0
  187.8830  178.4130  140.8040 C   0  0  0  0  0  1  0  0  0  0  0  0
  189.6360  176.7030  136.9880 C   0  0  0  0  0  0  0  0  0  0  0  0
  188.6970  178.1060  138.3380 C   0  0  1  0  0  3  0  0  0  0  0  0
  197.2580  172.8230  136.0470 C   0  0  0  0  0  0  0  0  0  0  0  0
  196.9190  172.3100  134.6360 C   0  0  0  0  0  2  0  0  0  0  0  0
  196.3830  171.5840  135.7960 C   0  0  0  0  0  2  0  0  0  0  0  0
  196.3770  173.4020  137.1560 C   0  0  0  0  0  2  0  0  0  0  0  0
  196.6860  174.2830  136.0130 C   0  0  2  0  0  3  0  0  0  0  0  0
  188.6000  174.0260  137.2080 C   0  0  0  0  0  2  0  0  0  0  0  0
  187.3680  173.7720  136.3560 C   0  0  0  0  0  2  0  0  0  0  0  0
  185.6410  175.3860  136.0040 O   0  0  0  0  0  1  0  0  0  0  0  0
  186.1670  174.4980  136.9430 C   0  0  0  0  0  2  0  0  0  0  0  0
  1 10  1  0  0  0  0
  2 13  1  6  0  0  0
  3 12  1  0  0  0  0
  3 13  1  1  0  0  0
  5  1  1  1  0  0  0
  5 28  1  0  0  0  0
  5 11  1  0  0  0  0
  6  7  1  0  0  0  0
  7  4  1  6  0  0  0
  7  2  1  0  0  0  0
  8  9  1  0  0  0  0
  8  6  1  0  0  0  0
  8 29  1  1  0  0  0
  9 22  1  1  0  0  0
  9  2  1  0  0  0  0
 10 12  1  0  0  0  0
 11  4  1  6  0  0  0
 11  3  1  0  0  0  0
 14 22  2  0  0  0  0
 14 15  1  0  0  0  0
 15 18  1  1  0  0  0
 15 23  1  0  0  0  0
 16 21  1  0  0  0  0
 17 16  2  0  0  0  0
 18 17  1  0  0  0  0
 20 14  1  0  0  0  0
 22 19  1  0  0  0  0
 23 19  1  1  0  0  0
 23 16  1  0  0  0  0
 24 27  1  0  0  0  0
 25 26  1  0  0  0  0
 25 24  1  0  0  0  0
 26 24  1  0  0  0  0
 28 24  1  0  0  0  0
 28 27  1  1  0  0  0
 30 32  1  0  0  0  0
 30 29  1  0  0  0  0
 31 32  1  0  0  0  0
M  END
>  <MODEL>
9

>  <REMARK>
 VINA RESULT:      -5.9      4.707      8.130
  Name = 
  5 active torsions:
  status: ('A' for Active; 'I' for Inactive)
    1  A    between atoms: C_5  and  C_25
    2  A    between atoms: C_12  and  C_24
    3  A    between atoms: C_15  and  C_26
    4  A    between atoms: C_16  and  C_31
    5  A    between atoms: C_25  and  C_26
                            x       y       z     vdW  Elec       q    Type
                         _______ _______ _______ _____ _____    ______ ____

>  <TORSDO>
F 5

$$$$
