=
 OpenBabel10272401143D

 27 30  0  0  1  0  0  0  0  0999 V2000
  188.1010  176.7880  144.3740 C   0  0  0  0  0  2  0  0  0  0  0  0
  188.2620  177.6860  141.3400 C   0  0  1  0  0  3  0  0  0  0  0  0
  186.1180  177.7410  142.5250 N   0  0  0  0  0  2  0  0  0  0  0  0
  189.6920  177.3830  139.2480 C   0  0  1  0  0  3  0  0  0  0  0  0
  188.7960  178.3130  140.0590 C   0  0  0  0  0  2  0  0  0  0  0  0
  191.1690  176.7700  144.5810 C   0  0  0  0  0  2  0  0  0  0  0  0
  189.4100  177.6570  142.3730 C   0  0  2  0  0  3  0  0  0  0  0  0
  184.6150  178.9800  145.7230 N   0  0  0  0  0  2  0  0  0  0  0  0
  190.2880  176.3910  142.2700 C   0  0  2  0  0  3  0  0  0  0  0  0
  185.5960  178.5700  146.6800 C   0  0  0  0  0  0  0  0  0  0  0  0
  189.0190  177.8950  143.8450 C   0  0  2  0  0  3  0  0  0  0  0  0
  190.9120  176.8760  140.0190 C   0  0  2  0  0  3  0  0  0  0  0  0
  186.7530  177.3220  144.8580 C   0  0  1  0  0  3  0  0  0  0  0  0
  187.0730  178.5390  141.7730 C   0  0  0  0  0  2  0  0  0  0  0  0
  184.6500  178.5610  144.3230 C   0  0  2  0  0  3  0  0  0  0  0  0
  188.9540  176.3130  138.7410 O   0  0  0  0  0  1  0  0  0  0  0  0
  185.4060  178.7980  147.9030 O   0  0  0  0  0  0  0  0  0  0  0  0
  191.5490  176.5160  143.1240 C   0  0  0  0  0  2  0  0  0  0  0  0
  186.8920  177.9650  146.2330 C   0  0  0  0  0  2  0  0  0  0  0  0
  190.5670  175.8840  140.9740 O   0  0  0  0  0  0  0  0  0  0  0  0
  186.0910  178.2940  143.8720 C   0  0  2  0  0  3  0  0  0  0  0  0
  190.2780  178.0110  144.7100 C   0  0  0  0  0  2  0  0  0  0  0  0
  192.9870  177.6530  140.0810 C   0  0  0  0  0  1  0  0  0  0  0  0
  191.6950  177.9180  140.5360 O   0  0  0  0  0  0  0  0  0  0  0  0
  183.9960  179.6370  143.4730 C   0  0  0  0  0  2  0  0  0  0  0  0
  182.3980  178.6170  141.5860 C   0  0  0  0  0  1  0  0  0  0  0  0
  182.2950  179.1820  143.0890 S   0  0  0  0  0  0  0  0  0  0  0  0
  1 13  1  0  0  0  0
  2  5  1  6  0  0  0
  2 14  1  0  0  0  0
  2  7  1  0  0  0  0
  3 21  1  0  0  0  0
  4 16  1  1  0  0  0
  4 12  1  0  0  0  0
  4  5  1  0  0  0  0
  6 22  1  0  0  0  0
  7 11  1  0  0  0  0
  8 10  1  0  0  0  0
  9  7  1  0  0  0  0
  9 18  1  0  0  0  0
 10 17  2  0  0  0  0
 11  1  1  0  0  0  0
 11 22  1  0  0  0  0
 12 24  1  0  0  0  0
 12 20  1  0  0  0  0
 13 19  1  0  0  0  0
 14  3  1  0  0  0  0
 15  8  1  0  0  0  0
 18  6  1  0  0  0  0
 19 10  1  0  0  0  0
 20  9  1  0  0  0  0
 21 15  1  0  0  0  0
 21 13  1  0  0  0  0
 23 24  1  0  0  0  0
 25 15  1  0  0  0  0
 26 27  1  0  0  0  0
 27 25  1  0  0  0  0
M  END
>  <MODEL>
1

>  <REMARK>
 VINA RESULT:      -8.5      0.000      0.000
  Name = 
  3 active torsions:
  status: ('A' for Active; 'I' for Inactive)
    1  A    between atoms: S_12  and  C_14
    2  A    between atoms: C_14  and  C_20
    3  A    between atoms: O_16  and  C_17
                            x       y       z     vdW  Elec       q    Type
                         _______ _______ _______ _____ _____    ______ ____

>  <TORSDO>
F 3

$$$$
=
 OpenBabel10272401143D

 27 30  0  0  1  0  0  0  0  0999 V2000
  188.4170  178.5020  142.1350 C   0  0  0  0  0  2  0  0  0  0  0  0
  186.2660  178.4060  144.4580 C   0  0  1  0  0  3  0  0  0  0  0  0
  185.6460  179.2530  142.2450 N   0  0  0  0  0  2  0  0  0  0  0  0
  186.0860  178.3620  147.0030 C   0  0  1  0  0  3  0  0  0  0  0  0
  185.4920  177.9120  145.6730 C   0  0  0  0  0  2  0  0  0  0  0  0
  190.3590  176.7940  143.7980 C   0  0  0  0  0  2  0  0  0  0  0  0
  187.5510  177.5600  144.3340 C   0  0  2  0  0  3  0  0  0  0  0  0
  185.8830  178.3250  138.6250 N   0  0  0  0  0  2  0  0  0  0  0  0
  188.7320  178.1240  145.1560 C   0  0  2  0  0  3  0  0  0  0  0  0
  187.2440  177.8940  138.5260 C   0  0  0  0  0  0  0  0  0  0  0  0
  188.0280  177.2360  142.9040 C   0  0  2  0  0  3  0  0  0  0  0  0
  187.5360  177.9220  147.2110 C   0  0  2  0  0  3  0  0  0  0  0  0
  187.5940  178.6950  140.8610 C   0  0  1  0  0  3  0  0  0  0  0  0
  185.3260  178.2680  143.2640 C   0  0  0  0  0  2  0  0  0  0  0  0
  185.3410  178.9720  139.8180 C   0  0  2  0  0  3  0  0  0  0  0  0
  185.9680  179.7440  147.1490 O   0  0  0  0  0  1  0  0  0  0  0  0
  187.7020  177.5270  137.4140 O   0  0  0  0  0  0  0  0  0  0  0  0
  189.8940  177.1340  145.2120 C   0  0  0  0  0  2  0  0  0  0  0  0
  188.0980  177.7790  139.7520 C   0  0  0  0  0  2  0  0  0  0  0  0
  188.4430  178.6830  146.4270 O   0  0  0  0  0  0  0  0  0  0  0  0
  186.0860  178.5070  141.0740 C   0  0  2  0  0  3  0  0  0  0  0  0
  189.2010  176.2520  142.9520 C   0  0  0  0  0  2  0  0  0  0  0  0
  188.4440  176.1660  148.2120 C   0  0  0  0  0  1  0  0  0  0  0  0
  187.7030  176.5350  147.0890 O   0  0  0  0  0  0  0  0  0  0  0  0
  183.8560  178.6640  139.9110 C   0  0  0  0  0  2  0  0  0  0  0  0
  182.6470  176.3040  139.5580 C   0  0  0  0  0  1  0  0  0  0  0  0
  183.3960  177.4280  138.6830 S   0  0  0  0  0  0  0  0  0  0  0  0
  1 11  1  0  0  0  0
  2 14  1  6  0  0  0
  2  5  1  0  0  0  0
  3 14  1  0  0  0  0
  4 16  1  6  0  0  0
  4 12  1  0  0  0  0
  5  4  1  0  0  0  0
  6 18  1  0  0  0  0
  7  2  1  0  0  0  0
  7  9  1  0  0  0  0
  8 15  1  0  0  0  0
  9 18  1  0  0  0  0
  9 20  1  0  0  0  0
 10  8  1  0  0  0  0
 10 19  1  0  0  0  0
 11 22  1  0  0  0  0
 11  7  1  0  0  0  0
 13 21  1  0  0  0  0
 13  1  1  0  0  0  0
 15 25  1  0  0  0  0
 15 21  1  0  0  0  0
 17 10  2  0  0  0  0
 19 13  1  0  0  0  0
 20 12  1  0  0  0  0
 21  3  1  0  0  0  0
 22  6  1  0  0  0  0
 24 12  1  0  0  0  0
 24 23  1  0  0  0  0
 27 26  1  0  0  0  0
 27 25  1  0  0  0  0
M  END
>  <MODEL>
2

>  <REMARK>
 VINA RESULT:      -7.1      2.404      5.807
  Name = 
  3 active torsions:
  status: ('A' for Active; 'I' for Inactive)
    1  A    between atoms: S_12  and  C_14
    2  A    between atoms: C_14  and  C_20
    3  A    between atoms: O_16  and  C_17
                            x       y       z     vdW  Elec       q    Type
                         _______ _______ _______ _____ _____    ______ ____

>  <TORSDO>
F 3

$$$$
=
 OpenBabel10272401143D

 27 30  0  0  1  0  0  0  0  0999 V2000
  187.0340  177.1190  144.4980 C   0  0  0  0  0  2  0  0  0  0  0  0
  190.1880  176.9470  144.7260 C   0  0  1  0  0  3  0  0  0  0  0  0
  189.1130  176.9130  142.5250 N   0  0  0  0  0  2  0  0  0  0  0  0
  192.0330  176.2860  146.3600 C   0  0  1  0  0  3  0  0  0  0  0  0
  191.6040  177.2060  145.2230 C   0  0  0  0  0  2  0  0  0  0  0  0
  186.8120  177.8680  147.4720 C   0  0  0  0  0  2  0  0  0  0  0  0
  189.2030  177.5310  145.7610 C   0  0  2  0  0  3  0  0  0  0  0  0
  186.5600  178.7870  140.5260 N   0  0  0  0  0  2  0  0  0  0  0  0
  188.8500  176.5390  146.8910 C   0  0  2  0  0  3  0  0  0  0  0  0
  185.5130  178.9600  141.4860 C   0  0  0  0  0  0  0  0  0  0  0  0
  187.9090  178.1580  145.2040 C   0  0  2  0  0  3  0  0  0  0  0  0
  191.1250  176.3600  147.5900 C   0  0  2  0  0  3  0  0  0  0  0  0
  186.7760  177.4650  143.0310 C   0  0  1  0  0  3  0  0  0  0  0  0
  190.0900  177.6030  143.3510 C   0  0  0  0  0  2  0  0  0  0  0  0
  187.7250  177.9380  140.7690 C   0  0  2  0  0  3  0  0  0  0  0  0
  192.1390  174.9690  145.9100 O   0  0  0  0  0  1  0  0  0  0  0  0
  184.4480  179.5390  141.1490 O   0  0  0  0  0  0  0  0  0  0  0  0
  188.0860  177.2280  148.0200 C   0  0  0  0  0  2  0  0  0  0  0  0
  185.7110  178.5490  142.9140 C   0  0  0  0  0  2  0  0  0  0  0  0
  189.8860  175.7000  147.3800 O   0  0  0  0  0  0  0  0  0  0  0  0
  188.0440  177.8680  142.2670 C   0  0  2  0  0  3  0  0  0  0  0  0
  187.1310  178.8420  146.3320 C   0  0  0  0  0  2  0  0  0  0  0  0
  191.9300  177.7400  149.1260 C   0  0  0  0  0  1  0  0  0  0  0  0
  190.9990  177.6650  148.0890 O   0  0  0  0  0  0  0  0  0  0  0  0
  188.9020  178.4840  139.9780 C   0  0  0  0  0  2  0  0  0  0  0  0
  190.8580  176.8010  139.2740 C   0  0  0  0  0  1  0  0  0  0  0  0
  189.4240  177.2920  138.7320 S   0  0  0  0  0  0  0  0  0  0  0  0
  1 11  1  0  0  0  0
  2 14  1  6  0  0  0
  2  5  1  0  0  0  0
  2  7  1  0  0  0  0
  3 14  1  0  0  0  0
  4 16  1  6  0  0  0
  4 12  1  0  0  0  0
  5  4  1  0  0  0  0
  6 18  1  0  0  0  0
  7  9  1  0  0  0  0
  8 15  1  0  0  0  0
  8 10  1  0  0  0  0
  9 20  1  0  0  0  0
  9 18  1  0  0  0  0
 10 19  1  0  0  0  0
 11  7  1  0  0  0  0
 11 22  1  0  0  0  0
 12 24  1  0  0  0  0
 13  1  1  0  0  0  0
 15 21  1  0  0  0  0
 17 10  2  0  0  0  0
 19 13  1  0  0  0  0
 20 12  1  0  0  0  0
 21  3  1  0  0  0  0
 21 13  1  0  0  0  0
 22  6  1  0  0  0  0
 24 23  1  0  0  0  0
 25 15  1  0  0  0  0
 27 26  1  0  0  0  0
 27 25  1  0  0  0  0
M  END
>  <MODEL>
3

>  <REMARK>
 VINA RESULT:      -7.1      3.255      5.751
  Name = 
  3 active torsions:
  status: ('A' for Active; 'I' for Inactive)
    1  A    between atoms: S_12  and  C_14
    2  A    between atoms: C_14  and  C_20
    3  A    between atoms: O_16  and  C_17
                            x       y       z     vdW  Elec       q    Type
                         _______ _______ _______ _____ _____    ______ ____

>  <TORSDO>
F 3

$$$$
=
 OpenBabel10272401143D

 27 30  0  0  1  0  0  0  0  0999 V2000
  188.9720  178.6170  142.4530 C   0  0  0  0  0  2  0  0  0  0  0  0
  187.7920  177.7810  145.2720 C   0  0  1  0  0  3  0  0  0  0  0  0
  186.3400  178.8140  143.5900 N   0  0  0  0  0  2  0  0  0  0  0  0
  188.5150  177.3310  147.6770 C   0  0  1  0  0  3  0  0  0  0  0  0
  187.5570  176.9790  146.5440 C   0  0  0  0  0  2  0  0  0  0  0  0
  191.5690  177.0750  143.0290 C   0  0  0  0  0  2  0  0  0  0  0  0
  189.0500  177.2170  144.5760 C   0  0  2  0  0  3  0  0  0  0  0  0
  185.4190  178.4890  139.9760 N   0  0  0  0  0  2  0  0  0  0  0  0
  190.3620  177.8640  145.0740 C   0  0  2  0  0  3  0  0  0  0  0  0
  186.7040  178.3370  139.3630 C   0  0  0  0  0  0  0  0  0  0  0  0
  189.0360  177.2010  143.0340 C   0  0  2  0  0  3  0  0  0  0  0  0
  189.9900  177.1430  147.3180 C   0  0  2  0  0  3  0  0  0  0  0  0
  187.7400  178.8370  141.5750 C   0  0  1  0  0  3  0  0  0  0  0  0
  186.5210  177.6470  144.4380 C   0  0  0  0  0  2  0  0  0  0  0  0
  185.2490  178.8410  141.3840 C   0  0  2  0  0  3  0  0  0  0  0  0
  188.2820  178.6300  148.1280 O   0  0  0  0  0  1  0  0  0  0  0  0
  186.7890  178.2290  138.1130 O   0  0  0  0  0  0  0  0  0  0  0  0
  191.5860  177.1100  144.5560 C   0  0  0  0  0  2  0  0  0  0  0  0
  187.9380  178.2050  140.2020 C   0  0  0  0  0  2  0  0  0  0  0  0
  190.4650  178.1670  146.4560 O   0  0  0  0  0  0  0  0  0  0  0  0
  186.4370  178.3430  142.2160 C   0  0  2  0  0  3  0  0  0  0  0  0
  190.2670  176.4570  142.5070 C   0  0  0  0  0  2  0  0  0  0  0  0
  191.4490  175.4900  147.5410 C   0  0  0  0  0  1  0  0  0  0  0  0
  190.2770  175.8450  146.8730 O   0  0  0  0  0  0  0  0  0  0  0  0
  183.9400  178.2510  141.8810 C   0  0  0  0  0  2  0  0  0  0  0  0
  181.3430  178.6910  141.4170 C   0  0  0  0  0  1  0  0  0  0  0  0
  182.6830  178.3460  140.5950 S   0  0  0  0  0  0  0  0  0  0  0  0
  1 11  1  0  0  0  0
  2 14  1  6  0  0  0
  2  5  1  0  0  0  0
  3 14  1  0  0  0  0
  4 16  1  6  0  0  0
  5  4  1  0  0  0  0
  6 18  1  0  0  0  0
  7  9  1  0  0  0  0
  7  2  1  0  0  0  0
  8 15  1  0  0  0  0
  9 20  1  0  0  0  0
 10  8  1  0  0  0  0
 10 19  1  0  0  0  0
 11  7  1  0  0  0  0
 12  4  1  0  0  0  0
 13 21  1  0  0  0  0
 13  1  1  0  0  0  0
 15 25  1  0  0  0  0
 15 21  1  0  0  0  0
 17 10  2  0  0  0  0
 18  9  1  0  0  0  0
 19 13  1  0  0  0  0
 20 12  1  0  0  0  0
 21  3  1  0  0  0  0
 22  6  1  0  0  0  0
 22 11  1  0  0  0  0
 24 12  1  0  0  0  0
 24 23  1  0  0  0  0
 27 26  1  0  0  0  0
 27 25  1  0  0  0  0
M  END
>  <MODEL>
4

>  <REMARK>
 VINA RESULT:      -7.1      2.280      5.221
  Name = 
  3 active torsions:
  status: ('A' for Active; 'I' for Inactive)
    1  A    between atoms: S_12  and  C_14
    2  A    between atoms: C_14  and  C_20
    3  A    between atoms: O_16  and  C_17
                            x       y       z     vdW  Elec       q    Type
                         _______ _______ _______ _____ _____    ______ ____

>  <TORSDO>
F 3

$$$$
=
 OpenBabel10272401143D

 27 30  0  0  1  0  0  0  0  0999 V2000
  188.1190  178.5750  145.7950 C   0  0  0  0  0  2  0  0  0  0  0  0
  186.7690  178.2010  142.9540 C   0  0  1  0  0  3  0  0  0  0  0  0
  189.1990  178.0010  143.1940 N   0  0  0  0  0  2  0  0  0  0  0  0
  184.6600  178.8180  141.6560 C   0  0  1  0  0  3  0  0  0  0  0  0
  185.7580  177.7870  141.8930 C   0  0  0  0  0  2  0  0  0  0  0  0
  185.3700  178.4800  147.1680 C   0  0  0  0  0  2  0  0  0  0  0  0
  186.1080  178.0250  144.3380 C   0  0  2  0  0  3  0  0  0  0  0  0
  191.7620  176.2770  145.3110 N   0  0  0  0  0  2  0  0  0  0  0  0
  185.3120  179.2680  144.7940 C   0  0  2  0  0  3  0  0  0  0  0  0
  191.2410  176.4930  146.6270 C   0  0  0  0  0  0  0  0  0  0  0  0
  187.0240  177.5520  145.4850 C   0  0  2  0  0  3  0  0  0  0  0  0
  183.8520  179.1550  142.9110 C   0  0  2  0  0  3  0  0  0  0  0  0
  189.5270  178.0020  145.6260 C   0  0  1  0  0  3  0  0  0  0  0  0
  187.9960  177.3180  142.7470 C   0  0  0  0  0  2  0  0  0  0  0  0
  191.2090  176.9260  144.1240 C   0  0  2  0  0  3  0  0  0  0  0  0
  185.1910  179.9770  141.0900 O   0  0  0  0  0  1  0  0  0  0  0  0
  191.8760  176.0660  147.6250 O   0  0  0  0  0  0  0  0  0  0  0  0
  184.4710  178.9680  146.0340 C   0  0  0  0  0  2  0  0  0  0  0  0
  189.9000  177.1320  146.8210 C   0  0  0  0  0  2  0  0  0  0  0  0
  184.5780  179.9790  143.8100 O   0  0  0  0  0  0  0  0  0  0  0  0
  189.7180  177.2290  144.3150 C   0  0  2  0  0  3  0  0  0  0  0  0
  186.1900  177.2590  146.7350 C   0  0  0  0  0  2  0  0  0  0  0  0
  181.9460  178.3590  143.7150 C   0  0  0  0  0  1  0  0  0  0  0  0
  183.2840  178.0210  143.5090 O   0  0  0  0  0  0  0  0  0  0  0  0
  191.4410  176.0270  142.9210 C   0  0  0  0  0  2  0  0  0  0  0  0
  190.8060  176.7230  140.4180 C   0  0  0  0  0  1  0  0  0  0  0  0
  191.9630  177.0050  141.5010 S   0  0  0  0  0  0  0  0  0  0  0  0
  2  5  1  6  0  0  0
  2  7  1  0  0  0  0
  3 21  1  0  0  0  0
  4 16  1  1  0  0  0
  4  5  1  0  0  0  0
  4 12  1  0  0  0  0
  7  9  1  0  0  0  0
  7 11  1  0  0  0  0
  8 10  1  0  0  0  0
  9 18  1  0  0  0  0
 10 19  1  0  0  0  0
 10 17  2  0  0  0  0
 11  1  1  0  0  0  0
 11 22  1  0  0  0  0
 12 24  1  0  0  0  0
 12 20  1  0  0  0  0
 13  1  1  0  0  0  0
 13 19  1  0  0  0  0
 14  2  1  0  0  0  0
 14  3  1  0  0  0  0
 15 21  1  0  0  0  0
 15  8  1  0  0  0  0
 18  6  1  0  0  0  0
 20  9  1  0  0  0  0
 21 13  1  0  0  0  0
 22  6  1  0  0  0  0
 24 23  1  0  0  0  0
 25 15  1  0  0  0  0
 26 27  1  0  0  0  0
 27 25  1  0  0  0  0
M  END
>  <MODEL>
5

>  <REMARK>
 VINA RESULT:      -6.9      3.445      6.385
  Name = 
  3 active torsions:
  status: ('A' for Active; 'I' for Inactive)
    1  A    between atoms: S_12  and  C_14
    2  A    between atoms: C_14  and  C_20
    3  A    between atoms: O_16  and  C_17
                            x       y       z     vdW  Elec       q    Type
                         _______ _______ _______ _____ _____    ______ ____

>  <TORSDO>
F 3

$$$$
=
 OpenBabel10272401143D

 27 30  0  0  1  0  0  0  0  0999 V2000
  187.7230  177.0790  143.1490 C   0  0  0  0  0  2  0  0  0  0  0  0
  186.5310  178.0880  140.3930 C   0  0  1  0  0  3  0  0  0  0  0  0
  185.0840  177.9000  142.3610 N   0  0  0  0  0  2  0  0  0  0  0  0
  186.9680  177.9910  137.8810 C   0  0  1  0  0  3  0  0  0  0  0  0
  186.4310  178.8050  139.0530 C   0  0  0  0  0  2  0  0  0  0  0  0
  190.5870  177.3440  142.0620 C   0  0  0  0  0  2  0  0  0  0  0  0
  188.0040  178.1340  140.8510 C   0  0  2  0  0  3  0  0  0  0  0  0
  184.9750  178.8840  145.9730 N   0  0  0  0  0  2  0  0  0  0  0  0
  188.8470  176.9600  140.3050 C   0  0  2  0  0  3  0  0  0  0  0  0
  186.2950  178.5380  146.4050 C   0  0  0  0  0  0  0  0  0  0  0  0
  188.2510  178.2840  142.3660 C   0  0  2  0  0  3  0  0  0  0  0  0
  188.4320  177.5770  138.0380 C   0  0  2  0  0  3  0  0  0  0  0  0
  186.6670  177.4660  144.1850 C   0  0  1  0  0  3  0  0  0  0  0  0
  185.5750  178.8090  141.3380 C   0  0  0  0  0  2  0  0  0  0  0  0
  184.4510  178.5170  144.6590 C   0  0  2  0  0  3  0  0  0  0  0  0
  186.1650  176.8740  137.6530 O   0  0  0  0  0  1  0  0  0  0  0  0
  186.6200  178.7060  147.6090 O   0  0  0  0  0  0  0  0  0  0  0  0
  190.3380  177.1760  140.5650 C   0  0  0  0  0  2  0  0  0  0  0  0
  187.3240  178.0730  145.4200 C   0  0  0  0  0  2  0  0  0  0  0  0
  188.5930  176.5260  138.9790 O   0  0  0  0  0  0  0  0  0  0  0  0
  185.5850  178.4030  143.6330 C   0  0  2  0  0  3  0  0  0  0  0  0
  189.7450  178.4900  142.6350 C   0  0  0  0  0  2  0  0  0  0  0  0
  189.1330  179.4690  137.1200 C   0  0  0  0  0  1  0  0  0  0  0  0
  189.2830  178.6710  138.2550 O   0  0  0  0  0  0  0  0  0  0  0  0
  183.4240  179.5540  144.2340 C   0  0  0  0  0  2  0  0  0  0  0  0
  181.6090  178.9880  142.3530 C   0  0  0  0  0  1  0  0  0  0  0  0
  181.8310  178.7690  143.9320 S   0  0  0  0  0  0  0  0  0  0  0  0
  1 13  1  0  0  0  0
  2  5  1  6  0  0  0
  2  7  1  0  0  0  0
  2 14  1  0  0  0  0
  3 21  1  0  0  0  0
  4 16  1  1  0  0  0
  4 12  1  0  0  0  0
  4  5  1  0  0  0  0
  6 22  1  0  0  0  0
  7 11  1  0  0  0  0
  8 10  1  0  0  0  0
  9 18  1  0  0  0  0
  9  7  1  0  0  0  0
 10 17  2  0  0  0  0
 11 22  1  0  0  0  0
 11  1  1  0  0  0  0
 12 24  1  0  0  0  0
 12 20  1  0  0  0  0
 13 19  1  0  0  0  0
 14  3  1  0  0  0  0
 15  8  1  0  0  0  0
 18  6  1  0  0  0  0
 19 10  1  0  0  0  0
 20  9  1  0  0  0  0
 21 13  1  0  0  0  0
 21 15  1  0  0  0  0
 23 24  1  0  0  0  0
 25 15  1  0  0  0  0
 26 27  1  0  0  0  0
 27 25  1  0  0  0  0
M  END
>  <MODEL>
6

>  <REMARK>
 VINA RESULT:      -6.8      1.545      2.228
  Name = 
  3 active torsions:
  status: ('A' for Active; 'I' for Inactive)
    1  A    between atoms: S_12  and  C_14
    2  A    between atoms: C_14  and  C_20
    3  A    between atoms: O_16  and  C_17
                            x       y       z     vdW  Elec       q    Type
                         _______ _______ _______ _____ _____    ______ ____

>  <TORSDO>
F 3

$$$$
=
 OpenBabel10272401143D

 27 30  0  0  1  0  0  0  0  0999 V2000
  190.5440  178.0700  142.8790 C   0  0  0  0  0  2  0  0  0  0  0  0
  187.5750  177.9400  143.9760 C   0  0  1  0  0  3  0  0  0  0  0  0
  187.9920  178.4750  141.6220 N   0  0  0  0  0  2  0  0  0  0  0  0
  186.2450  178.1300  146.1450 C   0  0  1  0  0  3  0  0  0  0  0  0
  186.3620  177.4780  144.7720 C   0  0  0  0  0  2  0  0  0  0  0  0
  191.6070  176.7950  145.4670 C   0  0  0  0  0  2  0  0  0  0  0  0
  188.8250  177.2530  144.5670 C   0  0  2  0  0  3  0  0  0  0  0  0
  189.9310  177.2240  138.6730 N   0  0  0  0  0  2  0  0  0  0  0  0
  189.4540  178.0400  145.7380 C   0  0  2  0  0  3  0  0  0  0  0  0
  191.2090  176.9580  139.2610 C   0  0  0  0  0  0  0  0  0  0  0  0
  189.9270  176.8490  143.5680 C   0  0  2  0  0  3  0  0  0  0  0  0
  187.4610  177.8990  147.0430 C   0  0  2  0  0  3  0  0  0  0  0  0
  190.3910  178.0280  141.3580 C   0  0  1  0  0  3  0  0  0  0  0  0
  187.3030  177.5650  142.5220 C   0  0  0  0  0  2  0  0  0  0  0  0
  188.8600  177.9150  139.3870 C   0  0  2  0  0  3  0  0  0  0  0  0
  185.9830  179.4950  146.0170 O   0  0  0  0  0  1  0  0  0  0  0  0
  192.1520  176.5410  138.5390 O   0  0  0  0  0  0  0  0  0  0  0  0
  190.5210  177.2140  146.4560 C   0  0  0  0  0  2  0  0  0  0  0  0
  191.4080  177.0750  140.7410 C   0  0  0  0  0  2  0  0  0  0  0  0
  188.5760  178.6850  146.6480 O   0  0  0  0  0  0  0  0  0  0  0  0
  188.9700  177.6750  140.8970 C   0  0  2  0  0  3  0  0  0  0  0  0
  191.0070  176.0300  144.2820 C   0  0  0  0  0  2  0  0  0  0  0  0
  187.8570  176.3680  148.5950 C   0  0  0  0  0  1  0  0  0  0  0  0
  187.7550  176.5390  147.2150 O   0  0  0  0  0  0  0  0  0  0  0  0
  187.5230  177.4340  138.8480 C   0  0  0  0  0  2  0  0  0  0  0  0
  187.3450  178.4050  136.3620 C   0  0  0  0  0  1  0  0  0  0  0  0
  187.6680  177.0130  137.1020 S   0  0  0  0  0  0  0  0  0  0  0  0
  1 11  1  0  0  0  0
  2 14  1  6  0  0  0
  2  7  1  0  0  0  0
  2  5  1  0  0  0  0
  3 14  1  0  0  0  0
  4 16  1  6  0  0  0
  4 12  1  0  0  0  0
  5  4  1  0  0  0  0
  6 18  1  0  0  0  0
  7  9  1  0  0  0  0
  8 10  1  0  0  0  0
  8 15  1  0  0  0  0
  9 18  1  0  0  0  0
  9 20  1  0  0  0  0
 10 19  1  0  0  0  0
 11 22  1  0  0  0  0
 11  7  1  0  0  0  0
 12 24  1  0  0  0  0
 13  1  1  0  0  0  0
 15 21  1  0  0  0  0
 17 10  2  0  0  0  0
 19 13  1  0  0  0  0
 20 12  1  0  0  0  0
 21 13  1  0  0  0  0
 21  3  1  0  0  0  0
 22  6  1  0  0  0  0
 24 23  1  0  0  0  0
 25 15  1  0  0  0  0
 26 27  1  0  0  0  0
 27 25  1  0  0  0  0
M  END
>  <MODEL>
7

>  <REMARK>
 VINA RESULT:      -6.7      2.690      6.383
  Name = 
  3 active torsions:
  status: ('A' for Active; 'I' for Inactive)
    1  A    between atoms: S_12  and  C_14
    2  A    between atoms: C_14  and  C_20
    3  A    between atoms: O_16  and  C_17
                            x       y       z     vdW  Elec       q    Type
                         _______ _______ _______ _____ _____    ______ ____

>  <TORSDO>
F 3

$$$$
=
 OpenBabel10272401143D

 27 30  0  0  1  0  0  0  0  0999 V2000
  190.7180  176.0860  142.0670 C   0  0  0  0  0  2  0  0  0  0  0  0
  188.3550  177.3390  140.3690 C   0  0  1  0  0  3  0  0  0  0  0  0
  188.0230  176.8250  142.7420 N   0  0  0  0  0  2  0  0  0  0  0  0
  187.5400  177.5730  137.9620 C   0  0  1  0  0  3  0  0  0  0  0  0
  187.6280  178.2040  139.3470 C   0  0  0  0  0  2  0  0  0  0  0  0
  192.7150  176.6630  139.8030 C   0  0  0  0  0  2  0  0  0  0  0  0
  189.8690  177.4250  140.0770 C   0  0  2  0  0  3  0  0  0  0  0  0
  189.6530  177.3600  146.0700 N   0  0  0  0  0  2  0  0  0  0  0  0
  190.3480  176.3810  139.0440 C   0  0  2  0  0  3  0  0  0  0  0  0
  191.0190  177.0500  145.7760 C   0  0  0  0  0  0  0  0  0  0  0  0
  190.8090  177.4080  141.2990 C   0  0  2  0  0  3  0  0  0  0  0  0
  188.9020  177.2370  137.3500 C   0  0  2  0  0  3  0  0  0  0  0  0
  190.2850  176.2780  143.5210 C   0  0  1  0  0  3  0  0  0  0  0  0
  187.9670  177.8800  141.7420 C   0  0  0  0  0  2  0  0  0  0  0  0
  188.5640  177.1200  145.1250 C   0  0  2  0  0  3  0  0  0  0  0  0
  186.7250  176.4410  137.9920 O   0  0  0  0  0  1  0  0  0  0  0  0
  191.8780  177.0930  146.6920 O   0  0  0  0  0  0  0  0  0  0  0  0
  191.7820  176.6600  138.5940 C   0  0  0  0  0  2  0  0  0  0  0  0
  191.4520  176.7740  144.3680 C   0  0  0  0  0  2  0  0  0  0  0  0
  189.4910  176.0940  137.9500 O   0  0  0  0  0  0  0  0  0  0  0  0
  189.0710  177.2030  143.6800 C   0  0  2  0  0  3  0  0  0  0  0  0
  192.2500  177.6760  140.8560 C   0  0  0  0  0  2  0  0  0  0  0  0
  188.9400  179.3950  136.8470 C   0  0  0  0  0  1  0  0  0  0  0  0
  189.7530  178.3500  137.2850 O   0  0  0  0  0  0  0  0  0  0  0  0
  187.4600  178.1320  145.3820 C   0  0  0  0  0  2  0  0  0  0  0  0
  185.3200  178.4040  146.9630 C   0  0  0  0  0  1  0  0  0  0  0  0
  186.8730  177.9990  147.0800 S   0  0  0  0  0  0  0  0  0  0  0  0
  1 13  1  0  0  0  0
  2  5  1  6  0  0  0
  2 14  1  0  0  0  0
  3 21  1  0  0  0  0
  4 16  1  1  0  0  0
  4  5  1  0  0  0  0
  6 22  1  0  0  0  0
  7  2  1  0  0  0  0
  7 11  1  0  0  0  0
  9  7  1  0  0  0  0
 10  8  1  0  0  0  0
 10 17  2  0  0  0  0
 11  1  1  0  0  0  0
 12 20  1  0  0  0  0
 12  4  1  0  0  0  0
 13 21  1  0  0  0  0
 13 19  1  0  0  0  0
 14  3  1  0  0  0  0
 15 25  1  0  0  0  0
 15  8  1  0  0  0  0
 18  9  1  0  0  0  0
 18  6  1  0  0  0  0
 19 10  1  0  0  0  0
 20  9  1  0  0  0  0
 21 15  1  0  0  0  0
 22 11  1  0  0  0  0
 23 24  1  0  0  0  0
 24 12  1  0  0  0  0
 25 27  1  0  0  0  0
 26 27  1  0  0  0  0
M  END
>  <MODEL>
8

>  <REMARK>
 VINA RESULT:      -6.6      2.825      4.126
  Name = 
  3 active torsions:
  status: ('A' for Active; 'I' for Inactive)
    1  A    between atoms: S_12  and  C_14
    2  A    between atoms: C_14  and  C_20
    3  A    between atoms: O_16  and  C_17
                            x       y       z     vdW  Elec       q    Type
                         _______ _______ _______ _____ _____    ______ ____

>  <TORSDO>
F 3

$$$$
=
 OpenBabel10272401143D

 27 30  0  0  1  0  0  0  0  0999 V2000
  184.4090  177.8030  143.8130 C   0  0  0  0  0  2  0  0  0  0  0  0
  187.0310  178.1500  142.0700 C   0  0  1  0  0  3  0  0  0  0  0  0
  184.8360  178.0830  140.9840 N   0  0  0  0  0  2  0  0  0  0  0  0
  189.5420  177.7000  142.1400 C   0  0  1  0  0  3  0  0  0  0  0  0
  188.4210  178.6100  141.6500 C   0  0  0  0  0  2  0  0  0  0  0  0
  186.0010  178.3020  146.3950 C   0  0  0  0  0  2  0  0  0  0  0  0
  186.8460  178.4880  143.5640 C   0  0  2  0  0  3  0  0  0  0  0  0
  181.4360  179.6300  141.2430 N   0  0  0  0  0  2  0  0  0  0  0  0
  187.3590  177.3770  144.5070 C   0  0  2  0  0  3  0  0  0  0  0  0
  181.1930  179.5590  142.6520 C   0  0  0  0  0  0  0  0  0  0  0  0
  185.4340  178.9250  144.0030 C   0  0  2  0  0  3  0  0  0  0  0  0
  189.5840  177.5380  143.6610 C   0  0  2  0  0  3  0  0  0  0  0  0
  183.2710  178.1980  142.8710 C   0  0  1  0  0  3  0  0  0  0  0  0
  186.0460  178.8700  141.1540 C   0  0  0  0  0  2  0  0  0  0  0  0
  182.5730  178.9750  140.6010 C   0  0  2  0  0  3  0  0  0  0  0  0
  189.4680  176.4540  141.5170 O   0  0  0  0  0  1  0  0  0  0  0  0
  180.1000  179.9720  143.1180 O   0  0  0  0  0  0  0  0  0  0  0  0
  187.3940  177.8510  145.9600 C   0  0  0  0  0  2  0  0  0  0  0  0
  182.2660  179.0930  143.5880 C   0  0  0  0  0  2  0  0  0  0  0  0
  188.5470  176.6950  144.1380 O   0  0  0  0  0  0  0  0  0  0  0  0
  183.7530  178.8590  141.5730 C   0  0  2  0  0  3  0  0  0  0  0  0
  185.4590  179.3910  145.4620 C   0  0  0  0  0  2  0  0  0  0  0  0
  190.9700  179.2160  144.0790 C   0  0  0  0  0  1  0  0  0  0  0  0
  189.6740  178.7660  144.3330 O   0  0  0  0  0  0  0  0  0  0  0  0
  182.9560  179.7640  139.3600 C   0  0  0  0  0  2  0  0  0  0  0  0
  181.4670  181.7310  138.3280 C   0  0  0  0  0  1  0  0  0  0  0  0
  181.4920  180.1230  138.3730 S   0  0  0  0  0  0  0  0  0  0  0  0
  1 11  1  0  0  0  0
  2 14  1  6  0  0  0
  2  7  1  0  0  0  0
  3 14  1  0  0  0  0
  3 21  1  0  0  0  0
  4 16  1  6  0  0  0
  4 12  1  0  0  0  0
  5  2  1  0  0  0  0
  5  4  1  0  0  0  0
  7 11  1  0  0  0  0
  7  9  1  0  0  0  0
  8 10  1  0  0  0  0
  9 18  1  0  0  0  0
 10 17  2  0  0  0  0
 10 19  1  0  0  0  0
 11 22  1  0  0  0  0
 12 20  1  0  0  0  0
 12 24  1  0  0  0  0
 13 19  1  0  0  0  0
 13  1  1  0  0  0  0
 15  8  1  0  0  0  0
 15 21  1  0  0  0  0
 18  6  1  0  0  0  0
 20  9  1  0  0  0  0
 21 13  1  0  0  0  0
 22  6  1  0  0  0  0
 23 24  1  0  0  0  0
 25 15  1  0  0  0  0
 26 27  1  0  0  0  0
 27 25  1  0  0  0  0
M  END
>  <MODEL>
9

>  <REMARK>
 VINA RESULT:      -6.6      2.686      4.281
  Name = 
  3 active torsions:
  status: ('A' for Active; 'I' for Inactive)
    1  A    between atoms: S_12  and  C_14
    2  A    between atoms: C_14  and  C_20
    3  A    between atoms: O_16  and  C_17
                            x       y       z     vdW  Elec       q    Type
                         _______ _______ _______ _____ _____    ______ ____

>  <TORSDO>
F 3

$$$$
