=
 OpenBabel10272400583D

 27 31  0  0  1  0  0  0  0  0999 V2000
  191.7260  177.6390  139.2150 N   0  0  0  0  0  2  0  0  0  0  0  0
  189.3350  177.7680  138.9090 C   0  0  0  0  0  0  0  0  0  0  0  0
  189.7750  175.4020  138.0930 C   0  0  0  0  0  2  0  0  0  0  0  0
  186.7090  178.1180  135.7250 N   0  0  0  0  0  0  0  0  0  0  0  0
  185.5890  176.4330  134.3460 C   0  0  0  0  0  1  0  0  0  0  0  0
  188.9800  178.9710  138.5290 N   0  0  0  0  0  0  0  0  0  0  0  0
  187.2410  176.0340  136.1840 C   0  0  0  0  0  0  0  0  0  0  0  0
  193.1200  174.8870  136.3350 C   0  0  0  0  0  2  0  0  0  0  0  0
  187.1810  174.5430  136.1720 C   0  0  0  0  0  1  0  0  0  0  0  0
  193.9770  175.0970  137.5680 C   0  0  1  0  0  3  0  0  0  0  0  0
  187.9670  176.8210  137.0500 C   0  0  0  0  0  0  0  0  0  0  0  0
  190.4460  177.6150  139.7930 N   0  0  0  0  0  0  0  0  0  0  0  0
  186.5120  176.8500  135.3880 N   0  0  0  0  0  0  0  0  0  0  0  0
  187.5930  178.0910  136.7400 C   0  0  0  0  0  0  0  0  0  0  0  0
  192.0650  176.3070  138.7030 C   0  0  2  0  0  3  0  0  0  0  0  0
  188.7380  176.5110  138.2950 C   0  0  2  0  0  3  0  0  0  0  0  0
  191.6820  174.6680  136.7720 C   0  0  0  0  0  2  0  0  0  0  0  0
  188.0430  179.2030  137.5000 N   0  0  0  0  0  2  0  0  0  0  0  0
  195.3120  175.2200  137.1890 O   0  0  0  0  0  1  0  0  0  0  0  0
  193.5300  176.3710  138.2630 C   0  0  0  0  0  2  0  0  0  0  0  0
  191.1240  175.8690  137.5390 C   0  0  1  0  0  3  0  0  0  0  0  0
  189.9440  176.6370  143.8600 N   0  0  0  0  0  0  0  0  0  0  0  0
  190.2690  177.2780  141.1820 C   0  0  0  0  0  0  0  0  0  0  0  0
  191.3670  177.2790  142.0530 C   0  0  0  0  0  3  0  0  0  0  0  0
  191.1830  176.9520  143.3980 C   0  0  0  0  0  3  0  0  0  0  0  0
  188.8600  176.6300  143.0390 C   0  0  0  0  0  3  0  0  0  0  0  0
  189.0020  176.9500  141.6880 C   0  0  0  0  0  3  0  0  0  0  0  0
  1 12  1  0  0  0  0
  2 12  1  0  0  0  0
  4 14  2  0  0  0  0
  5 13  1  0  0  0  0
  6  2  2  0  0  0  0
  7 11  2  0  0  0  0
  8 17  1  0  0  0  0
  8 10  1  0  0  0  0
  9  7  1  0  0  0  0
 10 19  1  6  0  0  0
 10 20  1  0  0  0  0
 11 16  1  0  0  0  0
 12 23  1  0  0  0  0
 13  4  1  0  0  0  0
 13  7  1  0  0  0  0
 14 11  1  0  0  0  0
 14 18  1  0  0  0  0
 15 20  1  6  0  0  0
 15  1  1  0  0  0  0
 16  3  1  6  0  0  0
 16  2  1  0  0  0  0
 18  6  1  0  0  0  0
 21 17  1  1  0  0  0
 21  3  1  0  0  0  0
 21 15  1  0  0  0  0
 23 27  2  0  0  0  0
 23 24  1  0  0  0  0
 24 25  2  0  0  0  0
 25 22  1  0  0  0  0
 26 22  2  0  0  0  0
 27 26  1  0  0  0  0
M  END
>  <MODEL>
1

>  <REMARK>
 VINA RESULT:      -6.7      0.000      0.000
  Name = 
  1 active torsions:
  status: ('A' for Active; 'I' for Inactive)
    1  A    between atoms: C_9  and  N_15
                            x       y       z     vdW  Elec       q    Type
                         _______ _______ _______ _____ _____    ______ ____

>  <TORSDO>
F 1

$$$$
=
 OpenBabel10272400583D

 27 31  0  0  1  0  0  0  0  0999 V2000
  181.0050  178.0670  137.9940 N   0  0  0  0  0  2  0  0  0  0  0  0
  181.8580  179.2990  139.8860 C   0  0  0  0  0  0  0  0  0  0  0  0
  184.0340  178.6020  138.7730 C   0  0  0  0  0  2  0  0  0  0  0  0
  183.7010  178.4130  143.4880 N   0  0  0  0  0  0  0  0  0  0  0  0
  186.0610  178.1830  144.0970 C   0  0  0  0  0  1  0  0  0  0  0  0
  181.1010  179.1140  140.9400 N   0  0  0  0  0  0  0  0  0  0  0  0
  185.1180  178.6270  141.8220 C   0  0  0  0  0  0  0  0  0  0  0  0
  183.9570  175.2050  137.0430 C   0  0  0  0  0  2  0  0  0  0  0  0
  186.4180  178.7890  141.1060 C   0  0  0  0  0  1  0  0  0  0  0  0
  183.0050  175.6160  135.9370 C   0  0  1  0  0  3  0  0  0  0  0  0
  183.8590  178.7830  141.2850 C   0  0  0  0  0  0  0  0  0  0  0  0
  181.2600  179.3130  138.5900 N   0  0  0  0  0  0  0  0  0  0  0  0
  184.9820  178.3850  143.1450 N   0  0  0  0  0  0  0  0  0  0  0  0
  183.0250  178.6580  142.3510 C   0  0  0  0  0  0  0  0  0  0  0  0
  182.2180  177.5760  137.3290 C   0  0  2  0  0  3  0  0  0  0  0  0
  183.3770  179.3020  139.9660 C   0  0  2  0  0  3  0  0  0  0  0  0
  184.4870  176.4550  137.7200 C   0  0  0  0  0  2  0  0  0  0  0  0
  181.6260  178.8720  142.2260 N   0  0  0  0  0  2  0  0  0  0  0  0
  182.5710  174.4810  135.2530 O   0  0  0  0  0  1  0  0  0  0  0  0
  181.8110  176.3200  136.5550 C   0  0  0  0  0  2  0  0  0  0  0  0
  183.3680  177.2920  138.3440 C   0  0  1  0  0  3  0  0  0  0  0  0
  180.7320  182.8810  136.4130 N   0  0  0  0  0  0  0  0  0  0  0  0
  181.0830  180.5350  137.8500 C   0  0  0  0  0  0  0  0  0  0  0  0
  180.6950  180.4950  136.5030 C   0  0  0  0  0  3  0  0  0  0  0  0
  180.5250  181.6870  135.7970 C   0  0  0  0  0  3  0  0  0  0  0  0
  181.1040  182.9510  137.7190 C   0  0  0  0  0  3  0  0  0  0  0  0
  181.2860  181.7820  138.4600 C   0  0  0  0  0  3  0  0  0  0  0  0
  1 12  1  0  0  0  0
  2 16  1  0  0  0  0
  2  6  2  0  0  0  0
  6 18  1  0  0  0  0
  7 13  1  0  0  0  0
  8 17  1  0  0  0  0
  9  7  1  0  0  0  0
 10 19  1  1  0  0  0
 10 20  1  0  0  0  0
 10  8  1  0  0  0  0
 11  7  2  0  0  0  0
 11 14  1  0  0  0  0
 12  2  1  0  0  0  0
 13  4  1  0  0  0  0
 13  5  1  0  0  0  0
 14  4  2  0  0  0  0
 15 20  1  1  0  0  0
 15  1  1  0  0  0  0
 15 21  1  0  0  0  0
 16  3  1  6  0  0  0
 16 11  1  0  0  0  0
 18 14  1  0  0  0  0
 21 17  1  6  0  0  0
 21  3  1  0  0  0  0
 22 26  1  0  0  0  0
 23 27  1  0  0  0  0
 23 12  1  0  0  0  0
 24 23  2  0  0  0  0
 25 22  2  0  0  0  0
 25 24  1  0  0  0  0
 26 27  2  0  0  0  0
M  END
>  <MODEL>
2

>  <REMARK>
 VINA RESULT:      -6.0      6.270      9.582
  Name = 
  1 active torsions:
  status: ('A' for Active; 'I' for Inactive)
    1  A    between atoms: C_9  and  N_15
                            x       y       z     vdW  Elec       q    Type
                         _______ _______ _______ _____ _____    ______ ____

>  <TORSDO>
F 1

$$$$
=
 OpenBabel10272400583D

 27 31  0  0  1  0  0  0  0  0999 V2000
  181.7750  177.7920  139.1630 N   0  0  0  0  0  2  0  0  0  0  0  0
  183.7720  179.1350  139.3470 C   0  0  0  0  0  0  0  0  0  0  0  0
  184.4170  177.6170  137.4140 C   0  0  0  0  0  2  0  0  0  0  0  0
  187.6450  178.6210  140.7230 N   0  0  0  0  0  0  0  0  0  0  0  0
  189.6890  177.8820  139.5950 C   0  0  0  0  0  1  0  0  0  0  0  0
  184.0270  179.4190  140.6010 N   0  0  0  0  0  0  0  0  0  0  0  0
  187.3900  178.0380  138.6180 C   0  0  0  0  0  0  0  0  0  0  0  0
  183.0140  174.0760  137.5930 C   0  0  0  0  0  2  0  0  0  0  0  0
  187.7520  177.6580  137.2210 C   0  0  0  0  0  1  0  0  0  0  0  0
  181.5660  174.4720  137.3820 C   0  0  1  0  0  3  0  0  0  0  0  0
  186.1450  178.4130  139.0730 C   0  0  0  0  0  0  0  0  0  0  0  0
  182.4160  179.0190  138.9190 N   0  0  0  0  0  0  0  0  0  0  0  0
  188.2630  178.1550  139.6450 N   0  0  0  0  0  0  0  0  0  0  0  0
  186.3580  178.7780  140.3650 C   0  0  0  0  0  0  0  0  0  0  0  0
  182.1000  176.8410  138.0940 C   0  0  2  0  0  3  0  0  0  0  0  0
  184.8630  178.7290  138.3670 C   0  0  2  0  0  3  0  0  0  0  0  0
  183.9010  175.2480  137.2120 C   0  0  0  0  0  2  0  0  0  0  0  0
  185.3210  179.3420  141.1550 N   0  0  0  0  0  2  0  0  0  0  0  0
  180.7430  173.3800  137.6510 O   0  0  0  0  0  1  0  0  0  0  0  0
  181.2260  175.6060  138.3310 C   0  0  0  0  0  2  0  0  0  0  0  0
  183.6180  176.4860  138.0670 C   0  0  1  0  0  3  0  0  0  0  0  0
  180.5700  182.0090  136.5960 N   0  0  0  0  0  0  0  0  0  0  0  0
  181.7810  180.0370  138.1220 C   0  0  0  0  0  0  0  0  0  0  0  0
  181.8360  181.3800  138.5200 C   0  0  0  0  0  3  0  0  0  0  0  0
  181.2190  182.3580  137.7380 C   0  0  0  0  0  3  0  0  0  0  0  0
  180.5030  180.7150  136.1830 C   0  0  0  0  0  3  0  0  0  0  0  0
  181.1070  179.7070  136.9370 C   0  0  0  0  0  3  0  0  0  0  0  0
  2  6  2  0  0  0  0
  3 21  1  0  0  0  0
  5 13  1  0  0  0  0
  6 18  1  0  0  0  0
  7 11  2  0  0  0  0
  7 13  1  0  0  0  0
  9  7  1  0  0  0  0
 10  8  1  0  0  0  0
 10 19  1  1  0  0  0
 10 20  1  0  0  0  0
 11 14  1  0  0  0  0
 12  1  1  0  0  0  0
 12  2  1  0  0  0  0
 13  4  1  0  0  0  0
 14  4  2  0  0  0  0
 14 18  1  0  0  0  0
 15 20  1  1  0  0  0
 15  1  1  0  0  0  0
 16  3  1  1  0  0  0
 16 11  1  0  0  0  0
 16  2  1  0  0  0  0
 17  8  1  0  0  0  0
 21 17  1  6  0  0  0
 21 15  1  0  0  0  0
 22 25  1  0  0  0  0
 23 24  1  0  0  0  0
 23 12  1  0  0  0  0
 25 24  2  0  0  0  0
 26 22  2  0  0  0  0
 26 27  1  0  0  0  0
 27 23  2  0  0  0  0
M  END
>  <MODEL>
3

>  <REMARK>
 VINA RESULT:      -5.9      5.545      8.723
  Name = 
  1 active torsions:
  status: ('A' for Active; 'I' for Inactive)
    1  A    between atoms: C_9  and  N_15
                            x       y       z     vdW  Elec       q    Type
                         _______ _______ _______ _____ _____    ______ ____

>  <TORSDO>
F 1

$$$$
=
 OpenBabel10272400583D

 27 31  0  0  1  0  0  0  0  0999 V2000
  191.0010  177.0830  137.8920 N   0  0  0  0  0  2  0  0  0  0  0  0
  188.6330  177.5440  137.8220 C   0  0  0  0  0  0  0  0  0  0  0  0
  188.6080  175.0040  137.7520 C   0  0  0  0  0  2  0  0  0  0  0  0
  185.6100  177.4080  134.9930 N   0  0  0  0  0  0  0  0  0  0  0  0
  184.0640  175.6220  134.3460 C   0  0  0  0  0  1  0  0  0  0  0  0
  188.3910  178.6250  137.1210 N   0  0  0  0  0  0  0  0  0  0  0  0
  185.9150  175.4910  136.0260 C   0  0  0  0  0  0  0  0  0  0  0  0
  191.5300  173.4030  135.8960 C   0  0  0  0  0  2  0  0  0  0  0  0
  185.6500  174.0980  136.4920 C   0  0  0  0  0  1  0  0  0  0  0  0
  192.5920  173.8090  136.8990 C   0  0  1  0  0  3  0  0  0  0  0  0
  186.8710  176.3550  136.5160 C   0  0  0  0  0  0  0  0  0  0  0  0
  189.8370  177.4610  138.5830 N   0  0  0  0  0  0  0  0  0  0  0  0
  185.1900  176.1530  135.0970 N   0  0  0  0  0  0  0  0  0  0  0  0
  186.6300  177.5220  135.8630 C   0  0  0  0  0  0  0  0  0  0  0  0
  191.0690  175.6210  137.7930 C   0  0  2  0  0  3  0  0  0  0  0  0
  187.7790  176.2910  137.7030 C   0  0  2  0  0  3  0  0  0  0  0  0
  190.1630  173.5840  136.5320 C   0  0  0  0  0  2  0  0  0  0  0  0
  187.3440  178.7090  136.1800 N   0  0  0  0  0  2  0  0  0  0  0  0
  193.8550  173.5730  136.3580 O   0  0  0  0  0  1  0  0  0  0  0  0
  192.4400  175.2890  137.2000 C   0  0  0  0  0  2  0  0  0  0  0  0
  189.9040  175.0380  136.9360 C   0  0  1  0  0  3  0  0  0  0  0  0
  189.8210  177.8210  142.7800 N   0  0  0  0  0  0  0  0  0  0  0  0
  189.8380  177.5840  140.0170 C   0  0  0  0  0  0  0  0  0  0  0  0
  188.6940  178.0430  140.6870 C   0  0  0  0  0  3  0  0  0  0  0  0
  188.7070  178.1570  142.0780 C   0  0  0  0  0  3  0  0  0  0  0  0
  190.9440  177.3700  142.1590 C   0  0  0  0  0  3  0  0  0  0  0  0
  190.9720  177.2430  140.7690 C   0  0  0  0  0  3  0  0  0  0  0  0
  1 12  1  0  0  0  0
  2 12  1  0  0  0  0
  4 13  1  0  0  0  0
  4 14  2  0  0  0  0
  5 13  1  0  0  0  0
  6  2  2  0  0  0  0
  7  9  1  0  0  0  0
  7 11  2  0  0  0  0
  8 17  1  0  0  0  0
  8 10  1  0  0  0  0
 10 19  1  6  0  0  0
 10 20  1  0  0  0  0
 11 16  1  0  0  0  0
 12 23  1  0  0  0  0
 13  7  1  0  0  0  0
 14 18  1  0  0  0  0
 14 11  1  0  0  0  0
 15 20  1  6  0  0  0
 15  1  1  0  0  0  0
 16  3  1  6  0  0  0
 16  2  1  0  0  0  0
 18  6  1  0  0  0  0
 21 17  1  1  0  0  0
 21  3  1  0  0  0  0
 21 15  1  0  0  0  0
 23 24  2  0  0  0  0
 23 27  1  0  0  0  0
 24 25  1  0  0  0  0
 25 22  2  0  0  0  0
 26 22  1  0  0  0  0
 27 26  2  0  0  0  0
M  END
>  <MODEL>
4

>  <REMARK>
 VINA RESULT:      -5.8      1.351      1.826
  Name = 
  1 active torsions:
  status: ('A' for Active; 'I' for Inactive)
    1  A    between atoms: C_9  and  N_15
                            x       y       z     vdW  Elec       q    Type
                         _______ _______ _______ _____ _____    ______ ____

>  <TORSDO>
F 1

$$$$
=
 OpenBabel10272400583D

 27 31  0  0  1  0  0  0  0  0999 V2000
  190.8570  175.4130  138.8460 N   0  0  0  0  0  2  0  0  0  0  0  0
  189.5580  174.8170  136.9010 C   0  0  0  0  0  0  0  0  0  0  0  0
  188.6150  177.1250  137.3930 C   0  0  0  0  0  2  0  0  0  0  0  0
  185.6610  173.6610  136.1060 N   0  0  0  0  0  0  0  0  0  0  0  0
  183.6560  174.9580  135.5650 C   0  0  0  0  0  1  0  0  0  0  0  0
  189.2800  173.5360  136.9030 N   0  0  0  0  0  0  0  0  0  0  0  0
  185.9300  175.8430  136.1210 C   0  0  0  0  0  0  0  0  0  0  0  0
  188.4490  178.0570  141.0870 C   0  0  0  0  0  2  0  0  0  0  0  0
  185.6300  177.2880  135.9030 C   0  0  0  0  0  1  0  0  0  0  0  0
  189.9480  178.1370  141.2940 C   0  0  1  0  0  3  0  0  0  0  0  0
  187.1520  175.2970  136.4490 C   0  0  0  0  0  0  0  0  0  0  0  0
  190.7980  175.2630  137.4500 N   0  0  0  0  0  0  0  0  0  0  0  0
  185.0530  174.8290  135.9430 N   0  0  0  0  0  0  0  0  0  0  0  0
  186.9380  173.9550  136.4100 C   0  0  0  0  0  0  0  0  0  0  0  0
  190.3200  176.7240  139.2280 C   0  0  2  0  0  3  0  0  0  0  0  0
  188.5320  175.8720  136.5160 C   0  0  2  0  0  3  0  0  0  0  0  0
  188.1610  178.0530  139.5970 C   0  0  0  0  0  2  0  0  0  0  0  0
  188.0030  173.0310  136.5820 N   0  0  0  0  0  2  0  0  0  0  0  0
  190.2230  178.2220  142.6580 O   0  0  0  0  0  1  0  0  0  0  0  0
  190.5880  176.8840  140.7270 C   0  0  0  0  0  2  0  0  0  0  0  0
  188.8030  176.8570  138.8890 C   0  0  1  0  0  3  0  0  0  0  0  0
  193.9840  176.5560  135.0170 N   0  0  0  0  0  0  0  0  0  0  0  0
  191.8830  175.7060  136.6140 C   0  0  0  0  0  0  0  0  0  0  0  0
  193.0960  176.1130  137.1880 C   0  0  0  0  0  3  0  0  0  0  0  0
  194.1410  176.5380  136.3660 C   0  0  0  0  0  3  0  0  0  0  0  0
  192.8210  176.1630  134.4310 C   0  0  0  0  0  3  0  0  0  0  0  0
  191.7510  175.7320  135.2180 C   0  0  0  0  0  3  0  0  0  0  0  0
  1 15  1  0  0  0  0
  2  6  2  0  0  0  0
  2 12  1  0  0  0  0
  4 14  2  0  0  0  0
  5 13  1  0  0  0  0
  7 11  2  0  0  0  0
  8 10  1  0  0  0  0
  9  7  1  0  0  0  0
 10 19  1  1  0  0  0
 11 16  1  0  0  0  0
 12  1  1  0  0  0  0
 13  4  1  0  0  0  0
 13  7  1  0  0  0  0
 14 11  1  0  0  0  0
 14 18  1  0  0  0  0
 15 20  1  1  0  0  0
 16  2  1  0  0  0  0
 16  3  1  1  0  0  0
 17  8  1  0  0  0  0
 18  6  1  0  0  0  0
 20 10  1  0  0  0  0
 21  3  1  6  0  0  0
 21 15  1  0  0  0  0
 21 17  1  0  0  0  0
 22 25  1  0  0  0  0
 23 24  1  0  0  0  0
 23 12  1  0  0  0  0
 25 24  2  0  0  0  0
 26 22  2  0  0  0  0
 26 27  1  0  0  0  0
 27 23  2  0  0  0  0
M  END
>  <MODEL>
5

>  <REMARK>
 VINA RESULT:      -5.6      2.749      5.243
  Name = 
  1 active torsions:
  status: ('A' for Active; 'I' for Inactive)
    1  A    between atoms: C_9  and  N_15
                            x       y       z     vdW  Elec       q    Type
                         _______ _______ _______ _____ _____    ______ ____

>  <TORSDO>
F 1

$$$$
=
 OpenBabel10272400583D

 27 31  0  0  1  0  0  0  0  0999 V2000
  182.3490  177.3490  139.8830 N   0  0  0  0  0  2  0  0  0  0  0  0
  184.2820  178.6560  139.2690 C   0  0  0  0  0  0  0  0  0  0  0  0
  183.7600  177.5380  137.0480 C   0  0  0  0  0  2  0  0  0  0  0  0
  188.2710  177.9370  138.4160 N   0  0  0  0  0  0  0  0  0  0  0  0
  189.4240  177.4490  136.3120 C   0  0  0  0  0  1  0  0  0  0  0  0
  185.1440  178.7010  140.2550 N   0  0  0  0  0  0  0  0  0  0  0  0
  186.9640  177.7590  136.6570 C   0  0  0  0  0  0  0  0  0  0  0  0
  182.3350  174.0100  137.3020 C   0  0  0  0  0  2  0  0  0  0  0  0
  186.5570  177.6530  135.2250 C   0  0  0  0  0  1  0  0  0  0  0  0
  181.0100  174.4210  137.9130 C   0  0  1  0  0  3  0  0  0  0  0  0
  186.1410  178.0270  137.7290 C   0  0  0  0  0  0  0  0  0  0  0  0
  182.8860  178.6060  139.5640 N   0  0  0  0  0  0  0  0  0  0  0  0
  188.2360  177.6910  137.1130 N   0  0  0  0  0  0  0  0  0  0  0  0
  186.9930  178.1440  138.7810 C   0  0  0  0  0  0  0  0  0  0  0  0
  182.0230  176.6190  138.6520 C   0  0  2  0  0  3  0  0  0  0  0  0
  184.7100  178.4550  137.8230 C   0  0  2  0  0  3  0  0  0  0  0  0
  183.0150  175.2420  136.7340 C   0  0  0  0  0  2  0  0  0  0  0  0
  186.5320  178.5370  140.0660 N   0  0  0  0  0  2  0  0  0  0  0  0
  180.3380  173.2880  138.3680 O   0  0  0  0  0  1  0  0  0  0  0  0
  181.2790  175.3520  139.0810 C   0  0  0  0  0  2  0  0  0  0  0  0
  183.2950  176.2940  137.8100 C   0  0  1  0  0  3  0  0  0  0  0  0
  180.3730  181.9450  139.0290 N   0  0  0  0  0  0  0  0  0  0  0  0
  182.0300  179.7490  139.3760 C   0  0  0  0  0  0  0  0  0  0  0  0
  180.8040  179.8300  140.0520 C   0  0  0  0  0  3  0  0  0  0  0  0
  179.9840  180.9440  139.8620 C   0  0  0  0  0  3  0  0  0  0  0  0
  181.5580  181.8950  138.3630 C   0  0  0  0  0  3  0  0  0  0  0  0
  182.4060  180.7980  138.5240 C   0  0  0  0  0  3  0  0  0  0  0  0
  2 12  1  0  0  0  0
  2  6  2  0  0  0  0
  3 21  1  0  0  0  0
  4 14  2  0  0  0  0
  5 13  1  0  0  0  0
  7 13  1  0  0  0  0
  7 11  2  0  0  0  0
  8 10  1  0  0  0  0
  9  7  1  0  0  0  0
 10 19  1  1  0  0  0
 10 20  1  0  0  0  0
 11 16  1  0  0  0  0
 11 14  1  0  0  0  0
 12  1  1  0  0  0  0
 13  4  1  0  0  0  0
 14 18  1  0  0  0  0
 15 20  1  1  0  0  0
 15  1  1  0  0  0  0
 16  3  1  1  0  0  0
 16  2  1  0  0  0  0
 17  8  1  0  0  0  0
 18  6  1  0  0  0  0
 21 17  1  6  0  0  0
 21 15  1  0  0  0  0
 22 25  1  0  0  0  0
 23 12  1  0  0  0  0
 23 24  1  0  0  0  0
 25 24  2  0  0  0  0
 26 27  1  0  0  0  0
 26 22  2  0  0  0  0
 27 23  2  0  0  0  0
M  END
>  <MODEL>
6

>  <REMARK>
 VINA RESULT:      -5.5      5.705      8.379
  Name = 
  1 active torsions:
  status: ('A' for Active; 'I' for Inactive)
    1  A    between atoms: C_9  and  N_15
                            x       y       z     vdW  Elec       q    Type
                         _______ _______ _______ _____ _____    ______ ____

>  <TORSDO>
F 1

$$$$
=
 OpenBabel10272400583D

 27 31  0  0  1  0  0  0  0  0999 V2000
  190.6180  176.5740  135.5100 N   0  0  0  0  0  2  0  0  0  0  0  0
  191.7290  175.9610  137.5620 C   0  0  0  0  0  0  0  0  0  0  0  0
  189.3160  176.0400  138.3530 C   0  0  0  0  0  2  0  0  0  0  0  0
  192.7060  177.8080  141.1390 N   0  0  0  0  0  0  0  0  0  0  0  0
  191.4930  177.9990  143.2580 C   0  0  0  0  0  1  0  0  0  0  0  0
  192.8940  176.5560  137.6550 N   0  0  0  0  0  0  0  0  0  0  0  0
  190.6940  176.9200  141.1450 C   0  0  0  0  0  0  0  0  0  0  0  0
  187.1350  178.6660  136.6520 C   0  0  0  0  0  2  0  0  0  0  0  0
  189.3960  176.4080  141.6720 C   0  0  0  0  0  1  0  0  0  0  0  0
  187.1330  178.0050  135.2880 C   0  0  1  0  0  3  0  0  0  0  0  0
  191.2070  176.7170  139.8820 C   0  0  0  0  0  0  0  0  0  0  0  0
  191.2420  175.5770  136.2770 N   0  0  0  0  0  0  0  0  0  0  0  0
  191.6160  177.5980  141.8660 N   0  0  0  0  0  0  0  0  0  0  0  0
  192.4490  177.2660  139.9350 C   0  0  0  0  0  0  0  0  0  0  0  0
  189.2110  176.7000  135.9060 C   0  0  2  0  0  3  0  0  0  0  0  0
  190.7820  175.8400  138.7460 C   0  0  2  0  0  3  0  0  0  0  0  0
  187.6340  177.6640  137.6780 C   0  0  0  0  0  2  0  0  0  0  0  0
  193.3540  177.1580  138.8450 N   0  0  0  0  0  2  0  0  0  0  0  0
  186.6020  178.8860  134.3470 O   0  0  0  0  0  1  0  0  0  0  0  0
  188.5620  177.6630  134.9080 C   0  0  0  0  0  2  0  0  0  0  0  0
  189.0590  177.1920  137.3780 C   0  0  1  0  0  3  0  0  0  0  0  0
  191.2190  171.5500  135.0390 N   0  0  0  0  0  0  0  0  0  0  0  0
  191.2290  174.2020  135.8510 C   0  0  0  0  0  0  0  0  0  0  0  0
  192.4100  173.4450  135.8720 C   0  0  0  0  0  3  0  0  0  0  0  0
  192.3840  172.1120  135.4580 C   0  0  0  0  0  3  0  0  0  0  0  0
  190.0580  172.2580  135.0110 C   0  0  0  0  0  3  0  0  0  0  0  0
  190.0420  173.5940  135.4160 C   0  0  0  0  0  3  0  0  0  0  0  0
  1 15  1  0  0  0  0
  1 12  1  0  0  0  0
  2  6  2  0  0  0  0
  2 16  1  0  0  0  0
  4 13  1  0  0  0  0
  6 18  1  0  0  0  0
  7  9  1  0  0  0  0
  7 13  1  0  0  0  0
  8 17  1  0  0  0  0
 10 19  1  6  0  0  0
 10  8  1  0  0  0  0
 11 14  1  0  0  0  0
 11  7  2  0  0  0  0
 12  2  1  0  0  0  0
 13  5  1  0  0  0  0
 14  4  2  0  0  0  0
 15 20  1  6  0  0  0
 15 21  1  0  0  0  0
 16  3  1  6  0  0  0
 16 11  1  0  0  0  0
 18 14  1  0  0  0  0
 20 10  1  0  0  0  0
 21 17  1  6  0  0  0
 21  3  1  0  0  0  0
 22 25  1  0  0  0  0
 23 24  1  0  0  0  0
 23 12  1  0  0  0  0
 25 24  2  0  0  0  0
 26 22  2  0  0  0  0
 26 27  1  0  0  0  0
 27 23  2  0  0  0  0
M  END
>  <MODEL>
7

>  <REMARK>
 VINA RESULT:      -5.2      3.027      6.672
  Name = 
  1 active torsions:
  status: ('A' for Active; 'I' for Inactive)
    1  A    between atoms: C_9  and  N_15
                            x       y       z     vdW  Elec       q    Type
                         _______ _______ _______ _____ _____    ______ ____

>  <TORSDO>
F 1

$$$$
=
 OpenBabel10272400583D

 27 31  0  0  1  0  0  0  0  0999 V2000
  190.9210  177.1920  137.2640 N   0  0  0  0  0  2  0  0  0  0  0  0
  188.6090  176.5070  137.3520 C   0  0  0  0  0  0  0  0  0  0  0  0
  189.7600  174.2430  137.4180 C   0  0  0  0  0  2  0  0  0  0  0  0
  185.8700  174.7680  134.7770 N   0  0  0  0  0  0  0  0  0  0  0  0
  185.3000  172.4260  134.3460 C   0  0  0  0  0  1  0  0  0  0  0  0
  187.8630  177.2960  136.6160 N   0  0  0  0  0  0  0  0  0  0  0  0
  187.0740  173.2970  135.8820 C   0  0  0  0  0  0  0  0  0  0  0  0
  193.0050  174.0130  135.4290 C   0  0  0  0  0  2  0  0  0  0  0  0
  187.5040  171.9820  136.4400 C   0  0  0  0  0  1  0  0  0  0  0  0
  193.8020  174.9420  136.3240 C   0  0  1  0  0  3  0  0  0  0  0  0
  187.5410  174.5400  136.2510 C   0  0  0  0  0  0  0  0  0  0  0  0
  189.7470  177.0490  138.0220 N   0  0  0  0  0  0  0  0  0  0  0  0
  186.0840  173.4740  134.9780 N   0  0  0  0  0  0  0  0  0  0  0  0
  186.7590  175.4090  135.5580 C   0  0  0  0  0  0  0  0  0  0  0  0
  191.6540  175.9210  137.2370 C   0  0  2  0  0  3  0  0  0  0  0  0
  188.4280  174.9970  137.3660 C   0  0  2  0  0  3  0  0  0  0  0  0
  191.7400  173.5990  136.1580 C   0  0  0  0  0  2  0  0  0  0  0  0
  186.8560  176.8120  135.7560 N   0  0  0  0  0  2  0  0  0  0  0  0
  195.0050  175.2680  135.7010 O   0  0  0  0  0  1  0  0  0  0  0  0
  192.9960  176.2070  136.5580 C   0  0  0  0  0  2  0  0  0  0  0  0
  190.8550  174.8000  136.5040 C   0  0  1  0  0  3  0  0  0  0  0  0
  189.7500  177.7150  142.1810 N   0  0  0  0  0  0  0  0  0  0  0  0
  189.7540  177.2760  139.4430 C   0  0  0  0  0  0  0  0  0  0  0  0
  188.6420  177.8570  140.0700 C   0  0  0  0  0  3  0  0  0  0  0  0
  188.6600  178.0710  141.4500 C   0  0  0  0  0  3  0  0  0  0  0  0
  190.8410  177.1480  141.6010 C   0  0  0  0  0  3  0  0  0  0  0  0
  190.8630  176.9180  140.2250 C   0  0  0  0  0  3  0  0  0  0  0  0
  1 12  1  0  0  0  0
  2 16  1  0  0  0  0
  2 12  1  0  0  0  0
  4 13  1  0  0  0  0
  4 14  2  0  0  0  0
  5 13  1  0  0  0  0
  6  2  2  0  0  0  0
  7 11  2  0  0  0  0
  7  9  1  0  0  0  0
  8 17  1  0  0  0  0
  8 10  1  0  0  0  0
 10 19  1  6  0  0  0
 10 20  1  0  0  0  0
 11 16  1  0  0  0  0
 12 23  1  0  0  0  0
 13  7  1  0  0  0  0
 14 18  1  0  0  0  0
 14 11  1  0  0  0  0
 15 20  1  6  0  0  0
 15  1  1  0  0  0  0
 16  3  1  6  0  0  0
 18  6  1  0  0  0  0
 21 17  1  1  0  0  0
 21 15  1  0  0  0  0
 21  3  1  0  0  0  0
 23 24  2  0  0  0  0
 23 27  1  0  0  0  0
 24 25  1  0  0  0  0
 25 22  2  0  0  0  0
 26 22  1  0  0  0  0
 27 26  2  0  0  0  0
M  END
>  <MODEL>
8

>  <REMARK>
 VINA RESULT:      -5.1      1.645      2.462
  Name = 
  1 active torsions:
  status: ('A' for Active; 'I' for Inactive)
    1  A    between atoms: C_9  and  N_15
                            x       y       z     vdW  Elec       q    Type
                         _______ _______ _______ _____ _____    ______ ____

>  <TORSDO>
F 1

$$$$
=
 OpenBabel10272400583D

 27 31  0  0  1  0  0  0  0  0999 V2000
  185.5160  179.1450  138.1460 N   0  0  0  0  0  2  0  0  0  0  0  0
  183.2990  178.2100  138.3370 C   0  0  0  0  0  0  0  0  0  0  0  0
  184.6340  176.1180  137.7910 C   0  0  0  0  0  2  0  0  0  0  0  0
  180.4050  176.7410  135.7630 N   0  0  0  0  0  0  0  0  0  0  0  0
  179.9820  174.4870  134.9060 C   0  0  0  0  0  1  0  0  0  0  0  0
  182.4020  179.0450  137.8730 N   0  0  0  0  0  0  0  0  0  0  0  0
  181.8600  175.2160  136.3900 C   0  0  0  0  0  0  0  0  0  0  0  0
  187.6030  176.6500  135.4570 C   0  0  0  0  0  2  0  0  0  0  0  0
  182.4680  173.8700  136.6030 C   0  0  0  0  0  1  0  0  0  0  0  0
  188.4280  177.4590  136.4380 C   0  0  1  0  0  3  0  0  0  0  0  0
  182.2660  176.4020  136.9630 C   0  0  0  0  0  0  0  0  0  0  0  0
  184.4660  178.7250  138.9780 N   0  0  0  0  0  0  0  0  0  0  0  0
  180.7500  175.4640  135.6590 N   0  0  0  0  0  0  0  0  0  0  0  0
  181.3310  177.3030  136.5610 C   0  0  0  0  0  0  0  0  0  0  0  0
  186.3420  177.9940  137.7670 C   0  0  2  0  0  3  0  0  0  0  0  0
  183.2490  176.7180  138.0470 C   0  0  2  0  0  3  0  0  0  0  0  0
  186.4810  175.9620  136.2140 C   0  0  0  0  0  2  0  0  0  0  0  0
  181.3360  178.6390  137.0430 N   0  0  0  0  0  2  0  0  0  0  0  0
  189.5090  178.0330  135.7710 O   0  0  0  0  0  1  0  0  0  0  0  0
  187.5570  178.5550  137.0230 C   0  0  0  0  0  2  0  0  0  0  0  0
  185.5510  176.9640  136.9030 C   0  0  1  0  0  3  0  0  0  0  0  0
  184.9840  178.5410  143.1550 N   0  0  0  0  0  0  0  0  0  0  0  0
  184.6380  178.6600  140.4060 C   0  0  0  0  0  0  0  0  0  0  0  0
  185.9150  178.7880  140.9700 C   0  0  0  0  0  3  0  0  0  0  0  0
  186.0680  178.7250  142.3570 C   0  0  0  0  0  3  0  0  0  0  0  0
  183.7330  178.4170  142.6370 C   0  0  0  0  0  3  0  0  0  0  0  0
  183.5370  178.4740  141.2560 C   0  0  0  0  0  3  0  0  0  0  0  0
  1 12  1  0  0  0  0
  2 12  1  0  0  0  0
  4 14  2  0  0  0  0
  5 13  1  0  0  0  0
  6  2  2  0  0  0  0
  7  9  1  0  0  0  0
  7 11  2  0  0  0  0
  8 17  1  0  0  0  0
  8 10  1  0  0  0  0
 10 19  1  6  0  0  0
 10 20  1  0  0  0  0
 11 16  1  0  0  0  0
 12 23  1  0  0  0  0
 13  4  1  0  0  0  0
 13  7  1  0  0  0  0
 14 11  1  0  0  0  0
 14 18  1  0  0  0  0
 15 20  1  6  0  0  0
 15  1  1  0  0  0  0
 16  3  1  6  0  0  0
 16  2  1  0  0  0  0
 18  6  1  0  0  0  0
 21 17  1  1  0  0  0
 21 15  1  0  0  0  0
 21  3  1  0  0  0  0
 23 24  2  0  0  0  0
 23 27  1  0  0  0  0
 24 25  1  0  0  0  0
 25 22  2  0  0  0  0
 26 22  1  0  0  0  0
 27 26  2  0  0  0  0
M  END
>  <MODEL>
9

>  <REMARK>
 VINA RESULT:      -5.0      4.345      5.915
  Name = 
  1 active torsions:
  status: ('A' for Active; 'I' for Inactive)
    1  A    between atoms: C_9  and  N_15
                            x       y       z     vdW  Elec       q    Type
                         _______ _______ _______ _____ _____    ______ ____

>  <TORSDO>
F 1

$$$$
