=
 OpenBabel10272415023D

 37 41  0  0  1  0  0  0  0  0999 V2000
  191.7520  179.2760  144.4610 O   0  0  0  0  0  1  0  0  0  0  0  0
  189.9460  176.2710  141.0980 C   0  0  2  0  0  3  0  0  0  0  0  0
  187.2680  178.1080  139.1570 C   0  0  0  0  0  2  0  0  0  0  0  0
  191.2140  177.7540  142.6830 C   0  0  2  0  0  3  0  0  0  0  0  0
  188.9760  177.3190  140.8050 N   0  0  1  0  0  0  0  0  0  0  0  0
  190.3470  176.4740  142.5440 C   0  0  1  0  0  3  0  0  0  0  0  0
  188.2570  176.9900  139.5620 C   0  0  2  0  0  3  0  0  0  0  0  0
  192.3590  177.7900  141.6630 C   0  0  0  0  0  2  0  0  0  0  0  0
  188.9520  176.6770  143.1290 C   0  0  1  0  0  3  0  0  0  0  0  0
  189.7810  177.3270  145.4330 C   0  0  0  0  0  3  0  0  0  0  0  0
  192.9270  177.6430  139.3640 F   0  0  0  0  0  0  0  0  0  0  0  0
  191.8500  177.6340  140.2310 C   0  0  1  0  0  3  0  0  0  0  0  0
  188.7760  177.2110  144.5480 C   0  0  0  0  0  0  0  0  0  0  0  0
  186.4620  178.7090  140.3020 C   0  0  0  0  0  2  0  0  0  0  0  0
  191.0990  176.3100  140.1150 C   0  0  2  0  0  3  0  0  0  0  0  0
  188.1100  177.2850  141.9850 C   0  0  1  0  0  3  0  0  0  0  0  0
  191.8180  177.9350  144.0780 C   0  0  2  0  0  3  0  0  0  0  0  0
  189.2720  176.8770  138.3930 C   0  0  1  0  0  3  0  0  0  0  0  0
  191.2250  177.0350  145.1600 C   0  0  0  0  0  2  0  0  0  0  0  0
  187.5690  178.6950  142.2790 C   0  0  0  0  0  2  0  0  0  0  0  0
  187.3270  179.4500  141.1180 O   0  0  0  0  0  0  0  0  0  0  0  0
  190.5350  176.0500  138.7180 C   0  0  0  0  0  2  0  0  0  0  0  0
  188.5980  176.3880  137.1050 C   0  0  2  0  0  3  0  0  0  0  0  0
  188.9500  174.9410  136.7810 C   0  0  0  0  0  2  0  0  0  0  0  0
  187.8070  174.1450  136.8440 O   0  0  0  0  0  1  0  0  0  0  0  0
  189.0050  177.4840  135.7090 S   0  0  0  0  0  0  0  0  0  0  0  0
  186.3110  177.1960  136.0880 F   0  0  0  0  0  0  0  0  0  0  0  0
  186.9720  178.4260  134.3460 O   0  0  0  0  0  0  0  0  0  0  0  0
  187.2790  177.7470  135.3120 C   0  0  0  0  0  0  0  0  0  0  0  0
  187.3780  177.3370  145.0880 C   0  0  0  0  0  2  0  0  0  0  0  0
  187.2970  178.2320  146.3230 C   0  0  2  0  0  3  0  0  0  0  0  0
  187.5150  177.4120  147.5810 C   0  0  0  0  0  1  0  0  0  0  0  0
  185.9260  178.8890  146.4100 C   0  0  0  0  0  2  0  0  0  0  0  0
  185.1950  178.8390  145.0770 C   0  0  0  0  0  2  0  0  0  0  0  0
  183.6920  178.8490  145.2960 C   0  0  0  0  0  2  0  0  0  0  0  0
  182.9570  178.8610  143.9680 C   0  0  0  0  0  2  0  0  0  0  0  0
  183.9310  178.6690  142.8210 C   0  0  0  0  0  1  0  0  0  0  0  0
  2  6  1  0  0  0  0
  3  7  1  0  0  0  0
  3 14  1  0  0  0  0
  4 17  1  0  0  0  0
  5  2  1  0  0  0  0
  5 16  1  0  0  0  0
  6  4  1  0  0  0  0
  6  9  1  0  0  0  0
  7  5  1  0  0  0  0
  8  4  1  0  0  0  0
  9 13  1  0  0  0  0
 11 12  1  0  0  0  0
 12  8  1  0  0  0  0
 13 30  1  0  0  0  0
 13 10  2  0  0  0  0
 14 21  1  0  0  0  0
 15 12  1  0  0  0  0
 15  2  1  0  0  0  0
 16 20  1  0  0  0  0
 16  9  1  0  0  0  0
 17  1  1  0  0  0  0
 17 19  1  0  0  0  0
 18 22  1  0  0  0  0
 18  7  1  0  0  0  0
 19 10  1  0  0  0  0
 21 20  1  0  0  0  0
 22 15  1  0  0  0  0
 23 18  1  0  0  0  0
 24 25  1  0  0  0  0
 24 23  1  0  0  0  0
 26 23  1  0  0  0  0
 28 29  2  0  0  0  0
 29 26  1  0  0  0  0
 29 27  1  0  0  0  0
 30 31  1  0  0  0  0
 31 33  1  0  0  0  0
 31 32  1  0  0  0  0
 34 35  1  0  0  0  0
 34 33  1  0  0  0  0
 36 35  1  0  0  0  0
 37 36  1  0  0  0  0
M  END
>  <MODEL>
1

>  <REMARK>
 VINA RESULT:      -7.4      0.000      0.000
  Name = 
  10 active torsions:
  status: ('A' for Active; 'I' for Inactive)
    1  A    between atoms: C_1  and  C_5
    2  A    between atoms: C_1  and  C_23
    3  A    between atoms: C_2  and  C_6
    4  A    between atoms: C_5  and  C_17
    5  A    between atoms: C_6  and  S_8
    6  A    between atoms: C_6  and  C_31
    7  A    between atoms: S_8  and  C_19
    8  A    between atoms: C_11  and  C_26
    9  A    between atoms: C_17  and  C_26
   10  A    between atoms: C_23  and  C_25
                            x       y       z     vdW  Elec       q    Type
                         _______ _______ _______ _____ _____    ______ ____

>  <TORSDO>
F 10

$$$$
=
 OpenBabel10272415023D

 37 41  0  0  1  0  0  0  0  0999 V2000
  191.5340  179.2780  144.4480 O   0  0  0  0  0  1  0  0  0  0  0  0
  190.0590  176.2440  140.9540 C   0  0  2  0  0  3  0  0  0  0  0  0
  187.5340  178.0420  138.7860 C   0  0  0  0  0  2  0  0  0  0  0  0
  191.1690  177.7460  142.6360 C   0  0  2  0  0  3  0  0  0  0  0  0
  189.1050  177.2780  140.5750 N   0  0  1  0  0  0  0  0  0  0  0  0
  190.3340  176.4540  142.4270 C   0  0  1  0  0  3  0  0  0  0  0  0
  188.4990  176.9380  139.2760 C   0  0  2  0  0  3  0  0  0  0  0  0
  192.3960  177.7940  141.7170 C   0  0  0  0  0  2  0  0  0  0  0  0
  188.8910  176.6410  142.8910 C   0  0  1  0  0  3  0  0  0  0  0  0
  189.5120  177.3060  145.2550 C   0  0  0  0  0  3  0  0  0  0  0  0
  193.1600  177.6500  139.4750 F   0  0  0  0  0  0  0  0  0  0  0  0
  192.0130  177.6280  140.2470 C   0  0  1  0  0  3  0  0  0  0  0  0
  188.5880  177.1760  144.2880 C   0  0  0  0  0  0  0  0  0  0  0  0
  186.6260  178.6350  139.8560 C   0  0  0  0  0  2  0  0  0  0  0  0
  191.2910  176.2950  140.0720 C   0  0  2  0  0  3  0  0  0  0  0  0
  188.1420  177.2350  141.6780 C   0  0  1  0  0  3  0  0  0  0  0  0
  191.6500  177.9380  144.0770 C   0  0  2  0  0  3  0  0  0  0  0  0
  189.6110  176.8350  138.1990 C   0  0  1  0  0  3  0  0  0  0  0  0
  190.9780  177.0320  145.1070 C   0  0  0  0  0  2  0  0  0  0  0  0
  187.5600  178.6390  141.9210 C   0  0  0  0  0  2  0  0  0  0  0  0
  187.4080  179.3890  140.7400 O   0  0  0  0  0  0  0  0  0  0  0  0
  190.8520  176.0250  138.6330 C   0  0  0  0  0  2  0  0  0  0  0  0
  189.0550  176.3350  136.8600 C   0  0  2  0  0  3  0  0  0  0  0  0
  188.3350  174.9980  136.9950 C   0  0  0  0  0  2  0  0  0  0  0  0
  186.9940  175.1400  136.6410 O   0  0  0  0  0  1  0  0  0  0  0  0
  190.3750  176.2390  135.6090 S   0  0  0  0  0  0  0  0  0  0  0  0
  190.8520  173.6360  136.3000 F   0  0  0  0  0  0  0  0  0  0  0  0
  189.4870  174.0010  134.5720 O   0  0  0  0  0  0  0  0  0  0  0  0
  190.1990  174.4650  135.4470 C   0  0  0  0  0  0  0  0  0  0  0  0
  187.1480  177.2850  144.7070 C   0  0  0  0  0  2  0  0  0  0  0  0
  186.9310  178.2970  145.8300 C   0  0  2  0  0  3  0  0  0  0  0  0
  186.6500  177.5800  147.1370 C   0  0  0  0  0  1  0  0  0  0  0  0
  185.7430  179.1940  145.5100 C   0  0  0  0  0  2  0  0  0  0  0  0
  184.4210  178.4900  145.7760 C   0  0  0  0  0  2  0  0  0  0  0  0
  183.3950  178.8740  144.7240 C   0  0  0  0  0  2  0  0  0  0  0  0
  184.0810  179.3170  143.4440 C   0  0  0  0  0  2  0  0  0  0  0  0
  184.0110  178.2200  142.3980 C   0  0  0  0  0  1  0  0  0  0  0  0
  2  6  1  0  0  0  0
  3  7  1  0  0  0  0
  3 14  1  0  0  0  0
  4 17  1  0  0  0  0
  5  2  1  0  0  0  0
  5 16  1  0  0  0  0
  6  4  1  0  0  0  0
  6  9  1  0  0  0  0
  7  5  1  0  0  0  0
  8  4  1  0  0  0  0
  9 13  1  0  0  0  0
 11 12  1  0  0  0  0
 12  8  1  0  0  0  0
 13 30  1  0  0  0  0
 13 10  2  0  0  0  0
 14 21  1  0  0  0  0
 15 12  1  0  0  0  0
 15  2  1  0  0  0  0
 16 20  1  0  0  0  0
 16  9  1  0  0  0  0
 17  1  1  0  0  0  0
 17 19  1  0  0  0  0
 18 22  1  0  0  0  0
 18  7  1  0  0  0  0
 19 10  1  0  0  0  0
 21 20  1  0  0  0  0
 22 15  1  0  0  0  0
 23 24  1  0  0  0  0
 23 18  1  0  0  0  0
 25 24  1  0  0  0  0
 26 23  1  0  0  0  0
 28 29  2  0  0  0  0
 29 26  1  0  0  0  0
 29 27  1  0  0  0  0
 30 31  1  0  0  0  0
 31 32  1  0  0  0  0
 33 34  1  0  0  0  0
 33 31  1  0  0  0  0
 35 34  1  0  0  0  0
 36 35  1  0  0  0  0
 37 36  1  0  0  0  0
M  END
>  <MODEL>
2

>  <REMARK>
 VINA RESULT:      -6.8      1.369      1.582
  Name = 
  10 active torsions:
  status: ('A' for Active; 'I' for Inactive)
    1  A    between atoms: C_1  and  C_5
    2  A    between atoms: C_1  and  C_23
    3  A    between atoms: C_2  and  C_6
    4  A    between atoms: C_5  and  C_17
    5  A    between atoms: C_6  and  S_8
    6  A    between atoms: C_6  and  C_31
    7  A    between atoms: S_8  and  C_19
    8  A    between atoms: C_11  and  C_26
    9  A    between atoms: C_17  and  C_26
   10  A    between atoms: C_23  and  C_25
                            x       y       z     vdW  Elec       q    Type
                         _______ _______ _______ _____ _____    ______ ____

>  <TORSDO>
F 10

$$$$
=
 OpenBabel10272415023D

 37 41  0  0  1  0  0  0  0  0999 V2000
  185.8940  173.7830  137.6800 O   0  0  0  0  0  1  0  0  0  0  0  0
  189.9250  175.8510  135.9300 C   0  0  2  0  0  3  0  0  0  0  0  0
  192.2680  176.5540  138.8160 C   0  0  0  0  0  2  0  0  0  0  0  0
  187.9100  174.5030  136.5940 C   0  0  2  0  0  3  0  0  0  0  0  0
  190.3370  176.0240  137.3170 N   0  0  1  0  0  0  0  0  0  0  0  0
  188.4120  175.8230  135.9490 C   0  0  1  0  0  3  0  0  0  0  0  0
  191.7520  176.4310  137.3640 C   0  0  2  0  0  3  0  0  0  0  0  0
  188.5920  173.2690  135.9880 C   0  0  0  0  0  2  0  0  0  0  0  0
  188.1860  177.0170  136.8730 C   0  0  1  0  0  3  0  0  0  0  0  0
  185.6880  176.6510  137.0850 C   0  0  0  0  0  3  0  0  0  0  0  0
  190.6700  172.2430  135.4780 F   0  0  0  0  0  0  0  0  0  0  0  0
  190.1150  173.3650  136.0650 C   0  0  1  0  0  3  0  0  0  0  0  0
  186.8090  177.2820  137.4760 C   0  0  0  0  0  0  0  0  0  0  0  0
  191.3080  177.2200  139.7940 C   0  0  0  0  0  2  0  0  0  0  0  0
  190.5690  174.6200  135.3230 C   0  0  2  0  0  3  0  0  0  0  0  0
  189.4310  177.0750  137.7860 C   0  0  1  0  0  3  0  0  0  0  0  0
  186.3960  174.3060  136.4880 C   0  0  2  0  0  3  0  0  0  0  0  0
  192.6260  175.3390  136.6920 C   0  0  1  0  0  3  0  0  0  0  0  0
  185.6120  175.5490  136.0720 C   0  0  0  0  0  2  0  0  0  0  0  0
  189.1270  176.8760  139.2810 C   0  0  0  0  0  2  0  0  0  0  0  0
  190.2190  176.3650  140.0060 O   0  0  0  0  0  0  0  0  0  0  0  0
  192.0840  174.8230  135.3420 C   0  0  0  0  0  2  0  0  0  0  0  0
  194.0910  175.7780  136.5770 C   0  0  2  0  0  3  0  0  0  0  0  0
  194.3340  176.6690  135.3640 C   0  0  0  0  0  2  0  0  0  0  0  0
  195.3220  177.6100  135.6510 O   0  0  0  0  0  1  0  0  0  0  0  0
  195.1990  174.3330  136.5560 S   0  0  0  0  0  0  0  0  0  0  0  0
  194.9040  173.0070  138.9300 F   0  0  0  0  0  0  0  0  0  0  0  0
  195.4300  175.1740  139.0290 O   0  0  0  0  0  0  0  0  0  0  0  0
  195.1830  174.1970  138.3400 C   0  0  0  0  0  0  0  0  0  0  0  0
  186.6340  178.5050  138.3330 C   0  0  0  0  0  2  0  0  0  0  0  0
  185.5020  178.3630  139.3480 C   0  0  2  0  0  3  0  0  0  0  0  0
  184.3690  179.3130  139.0090 C   0  0  0  0  0  1  0  0  0  0  0  0
  186.0040  178.6940  140.7470 C   0  0  0  0  0  2  0  0  0  0  0  0
  184.8550  178.8680  141.7290 C   0  0  0  0  0  2  0  0  0  0  0  0
  185.2490  178.3500  143.1020 C   0  0  0  0  0  2  0  0  0  0  0  0
  186.6050  177.6690  143.0480 C   0  0  0  0  0  2  0  0  0  0  0  0
  187.1340  177.4270  144.4490 C   0  0  0  0  0  1  0  0  0  0  0  0
  2  6  1  0  0  0  0
  2  5  1  0  0  0  0
  3 14  1  0  0  0  0
  5  7  1  0  0  0  0
  5 16  1  0  0  0  0
  6  4  1  0  0  0  0
  6  9  1  0  0  0  0
  7  3  1  0  0  0  0
  8 12  1  0  0  0  0
  8  4  1  0  0  0  0
  9 13  1  0  0  0  0
  9 16  1  0  0  0  0
 10 13  2  0  0  0  0
 11 12  1  0  0  0  0
 13 30  1  0  0  0  0
 14 21  1  0  0  0  0
 15 22  1  0  0  0  0
 15  2  1  0  0  0  0
 15 12  1  0  0  0  0
 16 20  1  0  0  0  0
 17  4  1  0  0  0  0
 17  1  1  0  0  0  0
 18  7  1  0  0  0  0
 19 17  1  0  0  0  0
 19 10  1  0  0  0  0
 20 21  1  0  0  0  0
 22 18  1  0  0  0  0
 23 18  1  0  0  0  0
 24 25  1  0  0  0  0
 24 23  1  0  0  0  0
 26 23  1  0  0  0  0
 26 29  1  0  0  0  0
 29 27  1  0  0  0  0
 29 28  2  0  0  0  0
 30 31  1  0  0  0  0
 31 33  1  0  0  0  0
 32 31  1  0  0  0  0
 33 34  1  0  0  0  0
 34 35  1  0  0  0  0
 36 35  1  0  0  0  0
 36 37  1  0  0  0  0
M  END
>  <MODEL>
3

>  <REMARK>
 VINA RESULT:      -6.3      3.473      6.842
  Name = 
  10 active torsions:
  status: ('A' for Active; 'I' for Inactive)
    1  A    between atoms: C_1  and  C_5
    2  A    between atoms: C_1  and  C_23
    3  A    between atoms: C_2  and  C_6
    4  A    between atoms: C_5  and  C_17
    5  A    between atoms: C_6  and  S_8
    6  A    between atoms: C_6  and  C_31
    7  A    between atoms: S_8  and  C_19
    8  A    between atoms: C_11  and  C_26
    9  A    between atoms: C_17  and  C_26
   10  A    between atoms: C_23  and  C_25
                            x       y       z     vdW  Elec       q    Type
                         _______ _______ _______ _____ _____    ______ ____

>  <TORSDO>
F 10

$$$$
=
 OpenBabel10272415023D

 37 41  0  0  1  0  0  0  0  0999 V2000
  183.6860  176.8700  139.7410 O   0  0  0  0  0  1  0  0  0  0  0  0
  188.3130  178.2620  139.2460 C   0  0  2  0  0  3  0  0  0  0  0  0
  190.4490  176.1980  141.5890 C   0  0  0  0  0  2  0  0  0  0  0  0
  185.9270  177.4810  139.1320 C   0  0  2  0  0  3  0  0  0  0  0  0
  188.6130  177.3660  140.3550 N   0  0  1  0  0  0  0  0  0  0  0  0
  186.8700  178.6780  139.4300 C   0  0  1  0  0  3  0  0  0  0  0  0
  190.0730  177.2030  140.4760 C   0  0  2  0  0  3  0  0  0  0  0  0
  186.2590  176.8030  137.7970 C   0  0  0  0  0  2  0  0  0  0  0  0
  186.9230  178.9880  140.9240 C   0  0  1  0  0  3  0  0  0  0  0  0
  184.4250  179.3340  141.1590 C   0  0  0  0  0  3  0  0  0  0  0  0
  187.9670  175.7960  136.4940 F   0  0  0  0  0  0  0  0  0  0  0  0
  187.7230  176.3700  137.7270 C   0  0  1  0  0  3  0  0  0  0  0  0
  185.6380  179.1930  141.7210 C   0  0  0  0  0  0  0  0  0  0  0  0
  189.6420  176.3200  142.8760 C   0  0  0  0  0  2  0  0  0  0  0  0
  188.6110  177.5970  137.9170 C   0  0  2  0  0  3  0  0  0  0  0  0
  188.0260  178.0700  141.4970 C   0  0  1  0  0  3  0  0  0  0  0  0
  184.4430  177.8600  139.1140 C   0  0  2  0  0  3  0  0  0  0  0  0
  190.6370  176.6100  139.1580 C   0  0  1  0  0  3  0  0  0  0  0  0
  184.1220  179.2350  139.6950 C   0  0  0  0  0  2  0  0  0  0  0  0
  187.5250  177.0550  142.5380 C   0  0  0  0  0  2  0  0  0  0  0  0
  188.3280  175.9030  142.6230 O   0  0  0  0  0  0  0  0  0  0  0  0
  190.1050  177.2800  137.8730 C   0  0  0  0  0  2  0  0  0  0  0  0
  192.1690  176.5590  139.1720 C   0  0  2  0  0  3  0  0  0  0  0  0
  192.7800  177.7440  139.9120 C   0  0  0  0  0  2  0  0  0  0  0  0
  194.1020  177.4620  140.2580 O   0  0  0  0  0  1  0  0  0  0  0  0
  192.8270  176.4440  137.4770 S   0  0  0  0  0  0  0  0  0  0  0  0
  193.2700  173.7810  137.9160 F   0  0  0  0  0  0  0  0  0  0  0  0
  195.0180  175.1540  138.1180 O   0  0  0  0  0  0  0  0  0  0  0  0
  193.8290  175.0170  137.8800 C   0  0  0  0  0  0  0  0  0  0  0  0
  185.7570  179.5520  143.1760 C   0  0  0  0  0  2  0  0  0  0  0  0
  185.0020  178.5870  144.0890 C   0  0  2  0  0  3  0  0  0  0  0  0
  183.5270  178.9430  144.1250 C   0  0  0  0  0  1  0  0  0  0  0  0
  185.5490  178.6670  145.5080 C   0  0  0  0  0  2  0  0  0  0  0  0
  186.3810  177.4420  145.8580 C   0  0  0  0  0  2  0  0  0  0  0  0
  187.8590  177.7940  145.8800 C   0  0  0  0  0  2  0  0  0  0  0  0
  188.4940  177.3520  147.1860 C   0  0  0  0  0  2  0  0  0  0  0  0
  187.8450  178.0610  148.3590 C   0  0  0  0  0  1  0  0  0  0  0  0
  2  6  1  0  0  0  0
  2  5  1  0  0  0  0
  3 14  1  0  0  0  0
  4  6  1  0  0  0  0
  5  7  1  0  0  0  0
  5 16  1  0  0  0  0
  6  9  1  0  0  0  0
  7  3  1  0  0  0  0
  8  4  1  0  0  0  0
  9 16  1  0  0  0  0
  9 13  1  0  0  0  0
 10 13  2  0  0  0  0
 11 12  1  0  0  0  0
 12  8  1  0  0  0  0
 12 15  1  0  0  0  0
 13 30  1  0  0  0  0
 15  2  1  0  0  0  0
 16 20  1  0  0  0  0
 17  4  1  0  0  0  0
 17 19  1  0  0  0  0
 17  1  1  0  0  0  0
 18 23  1  0  0  0  0
 18  7  1  0  0  0  0
 19 10  1  0  0  0  0
 20 21  1  0  0  0  0
 21 14  1  0  0  0  0
 22 15  1  0  0  0  0
 22 18  1  0  0  0  0
 23 24  1  0  0  0  0
 24 25  1  0  0  0  0
 26 29  1  0  0  0  0
 26 23  1  0  0  0  0
 29 27  1  0  0  0  0
 29 28  2  0  0  0  0
 30 31  1  0  0  0  0
 31 32  1  0  0  0  0
 31 33  1  0  0  0  0
 33 34  1  0  0  0  0
 34 35  1  0  0  0  0
 35 36  1  0  0  0  0
 36 37  1  0  0  0  0
M  END
>  <MODEL>
4

>  <REMARK>
 VINA RESULT:      -5.7      2.450      5.515
  Name = 
  10 active torsions:
  status: ('A' for Active; 'I' for Inactive)
    1  A    between atoms: C_1  and  C_5
    2  A    between atoms: C_1  and  C_23
    3  A    between atoms: C_2  and  C_6
    4  A    between atoms: C_5  and  C_17
    5  A    between atoms: C_6  and  S_8
    6  A    between atoms: C_6  and  C_31
    7  A    between atoms: S_8  and  C_19
    8  A    between atoms: C_11  and  C_26
    9  A    between atoms: C_17  and  C_26
   10  A    between atoms: C_23  and  C_25
                            x       y       z     vdW  Elec       q    Type
                         _______ _______ _______ _____ _____    ______ ____

>  <TORSDO>
F 10

$$$$
=
 OpenBabel10272415023D

 37 41  0  0  1  0  0  0  0  0999 V2000
  190.1160  175.5970  142.4390 O   0  0  0  0  0  1  0  0  0  0  0  0
  187.2610  178.7800  140.1360 C   0  0  2  0  0  3  0  0  0  0  0  0
  185.3640  176.9520  137.4210 C   0  0  0  0  0  2  0  0  0  0  0  0
  188.5650  177.2460  141.6400 C   0  0  2  0  0  3  0  0  0  0  0  0
  186.9380  177.6970  139.2160 N   0  0  1  0  0  0  0  0  0  0  0  0
  188.6370  178.4640  140.6800 C   0  0  1  0  0  3  0  0  0  0  0  0
  185.8020  178.0940  138.3660 C   0  0  2  0  0  3  0  0  0  0  0  0
  187.4540  177.4020  142.6870 C   0  0  0  0  0  2  0  0  0  0  0  0
  189.3120  178.0960  139.3610 C   0  0  1  0  0  3  0  0  0  0  0  0
  191.4540  177.2800  140.4380 C   0  0  0  0  0  3  0  0  0  0  0  0
  185.1450  177.8240  143.0310 F   0  0  0  0  0  0  0  0  0  0  0  0
  186.0950  177.6630  142.0400 C   0  0  1  0  0  3  0  0  0  0  0  0
  190.6740  177.4080  139.3510 C   0  0  0  0  0  0  0  0  0  0  0  0
  186.5000  176.1770  136.7650 C   0  0  0  0  0  2  0  0  0  0  0  0
  186.1860  178.9300  141.1940 C   0  0  2  0  0  3  0  0  0  0  0  0
  188.1840  177.5450  138.4600 C   0  0  1  0  0  3  0  0  0  0  0  0
  189.8760  176.9700  142.3800 C   0  0  2  0  0  3  0  0  0  0  0  0
  184.5720  178.4040  139.2600 C   0  0  1  0  0  3  0  0  0  0  0  0
  191.0950  177.7080  141.8290 C   0  0  0  0  0  2  0  0  0  0  0  0
  188.3680  176.0750  138.0450 C   0  0  0  0  0  2  0  0  0  0  0  0
  187.1570  175.4250  137.7490 O   0  0  0  0  0  0  0  0  0  0  0  0
  184.8770  179.2870  140.4880 C   0  0  0  0  0  2  0  0  0  0  0  0
  183.4050  178.9670  138.4390 C   0  0  2  0  0  3  0  0  0  0  0  0
  183.0480  180.3930  138.8460 C   0  0  0  0  0  2  0  0  0  0  0  0
  181.6870  180.4780  139.1410 O   0  0  0  0  0  1  0  0  0  0  0  0
  181.9520  177.8760  138.5500 S   0  0  0  0  0  0  0  0  0  0  0  0
  181.8140  178.8320  135.9910 F   0  0  0  0  0  0  0  0  0  0  0  0
  181.7820  176.6150  136.2570 O   0  0  0  0  0  0  0  0  0  0  0  0
  181.8360  177.7210  136.7710 C   0  0  0  0  0  0  0  0  0  0  0  0
  191.3130  177.1220  138.0200 C   0  0  0  0  0  2  0  0  0  0  0  0
  192.2850  175.9440  138.0690 C   0  0  2  0  0  3  0  0  0  0  0  0
  193.5080  176.2360  137.2200 C   0  0  0  0  0  1  0  0  0  0  0  0
  191.6160  174.6860  137.5310 C   0  0  0  0  0  2  0  0  0  0  0  0
  191.8870  174.4990  136.0460 C   0  0  0  0  0  2  0  0  0  0  0  0
  190.6410  174.8190  135.2360 C   0  0  0  0  0  2  0  0  0  0  0  0
  190.7900  176.1550  134.5310 C   0  0  0  0  0  2  0  0  0  0  0  0
  189.5110  176.9620  134.6470 C   0  0  0  0  0  1  0  0  0  0  0  0
  2  6  1  0  0  0  0
  2 15  1  0  0  0  0
  3  7  1  0  0  0  0
  4 17  1  0  0  0  0
  4  8  1  0  0  0  0
  5  2  1  0  0  0  0
  6  4  1  0  0  0  0
  7  5  1  0  0  0  0
  7 18  1  0  0  0  0
  9  6  1  0  0  0  0
 10 19  1  0  0  0  0
 12  8  1  0  0  0  0
 12 11  1  0  0  0  0
 13  9  1  0  0  0  0
 13 10  2  0  0  0  0
 14  3  1  0  0  0  0
 14 21  1  0  0  0  0
 15 12  1  0  0  0  0
 16  5  1  0  0  0  0
 16  9  1  0  0  0  0
 17  1  1  0  0  0  0
 18 22  1  0  0  0  0
 19 17  1  0  0  0  0
 20 16  1  0  0  0  0
 21 20  1  0  0  0  0
 22 15  1  0  0  0  0
 23 26  1  0  0  0  0
 23 24  1  0  0  0  0
 23 18  1  0  0  0  0
 24 25  1  0  0  0  0
 27 29  1  0  0  0  0
 28 29  2  0  0  0  0
 29 26  1  0  0  0  0
 30 31  1  0  0  0  0
 30 13  1  0  0  0  0
 32 31  1  0  0  0  0
 33 31  1  0  0  0  0
 34 33  1  0  0  0  0
 35 34  1  0  0  0  0
 36 37  1  0  0  0  0
 36 35  1  0  0  0  0
M  END
>  <MODEL>
5

>  <REMARK>
 VINA RESULT:      -5.4      3.286      7.041
  Name = 
  10 active torsions:
  status: ('A' for Active; 'I' for Inactive)
    1  A    between atoms: C_1  and  C_5
    2  A    between atoms: C_1  and  C_23
    3  A    between atoms: C_2  and  C_6
    4  A    between atoms: C_5  and  C_17
    5  A    between atoms: C_6  and  S_8
    6  A    between atoms: C_6  and  C_31
    7  A    between atoms: S_8  and  C_19
    8  A    between atoms: C_11  and  C_26
    9  A    between atoms: C_17  and  C_26
   10  A    between atoms: C_23  and  C_25
                            x       y       z     vdW  Elec       q    Type
                         _______ _______ _______ _____ _____    ______ ____

>  <TORSDO>
F 10

$$$$
=
 OpenBabel10272415023D

 37 41  0  0  1  0  0  0  0  0999 V2000
  183.6880  180.8140  144.2770 O   0  0  0  0  0  1  0  0  0  0  0  0
  186.8530  177.1710  144.8290 C   0  0  2  0  0  3  0  0  0  0  0  0
  190.0400  178.0560  142.9920 C   0  0  0  0  0  2  0  0  0  0  0  0
  185.2020  179.0640  144.9180 C   0  0  2  0  0  3  0  0  0  0  0  0
  187.7160  177.8920  143.9020 N   0  0  1  0  0  0  0  0  0  0  0  0
  185.4390  177.5910  144.4890 C   0  0  1  0  0  3  0  0  0  0  0  0
  189.0570  177.2820  143.9010 C   0  0  2  0  0  3  0  0  0  0  0  0
  185.6440  179.3220  146.3640 C   0  0  0  0  0  2  0  0  0  0  0  0
  185.5340  177.4600  142.9710 C   0  0  1  0  0  3  0  0  0  0  0  0
  183.2650  178.4950  142.5260 C   0  0  0  0  0  3  0  0  0  0  0  0
  187.4280  179.1450  147.9190 F   0  0  0  0  0  0  0  0  0  0  0  0
  187.0990  178.9180  146.5950 C   0  0  1  0  0  3  0  0  0  0  0  0
  184.4460  178.0420  142.0720 C   0  0  0  0  0  0  0  0  0  0  0  0
  189.4690  178.5110  141.6550 C   0  0  0  0  0  2  0  0  0  0  0  0
  187.2590  177.4370  146.2650 C   0  0  2  0  0  3  0  0  0  0  0  0
  187.0170  177.7230  142.6260 C   0  0  1  0  0  3  0  0  0  0  0  0
  183.7450  179.5140  144.7820 C   0  0  2  0  0  3  0  0  0  0  0  0
  189.6550  177.3500  145.3310 C   0  0  1  0  0  3  0  0  0  0  0  0
  182.8550  178.5800  143.9650 C   0  0  0  0  0  2  0  0  0  0  0  0
  187.2480  178.9560  141.7350 C   0  0  0  0  0  2  0  0  0  0  0  0
  188.5270  179.5210  141.8890 O   0  0  0  0  0  0  0  0  0  0  0  0
  188.6860  176.9220  146.4530 C   0  0  0  0  0  2  0  0  0  0  0  0
  190.9870  176.5950  145.4220 C   0  0  2  0  0  3  0  0  0  0  0  0
  191.3830  175.9580  144.0940 C   0  0  0  0  0  2  0  0  0  0  0  0
  192.0560  174.7580  144.3210 O   0  0  0  0  0  1  0  0  0  0  0  0
  190.9340  175.3490  146.7490 S   0  0  0  0  0  0  0  0  0  0  0  0
  193.4170  175.6130  147.8650 F   0  0  0  0  0  0  0  0  0  0  0  0
  191.9710  177.2850  148.1830 O   0  0  0  0  0  0  0  0  0  0  0  0
  192.2000  176.1900  147.6950 C   0  0  0  0  0  0  0  0  0  0  0  0
  184.5670  177.8320  140.5880 C   0  0  0  0  0  2  0  0  0  0  0  0
  183.2130  177.6710  139.8990 C   0  0  2  0  0  3  0  0  0  0  0  0
  182.9890  176.2210  139.5120 C   0  0  0  0  0  1  0  0  0  0  0  0
  183.1620  178.5180  138.6340 C   0  0  0  0  0  2  0  0  0  0  0  0
  182.8210  179.9680  138.9440 C   0  0  0  0  0  2  0  0  0  0  0  0
  181.4670  180.0590  139.6280 C   0  0  0  0  0  2  0  0  0  0  0  0
  180.6290  181.1630  139.0090 C   0  0  0  0  0  2  0  0  0  0  0  0
  181.4840  182.0440  138.1190 C   0  0  0  0  0  1  0  0  0  0  0  0
  1 17  1  0  0  0  0
  2 15  1  0  0  0  0
  3  7  1  0  0  0  0
  4  8  1  0  0  0  0
  5  2  1  0  0  0  0
  6  2  1  0  0  0  0
  6  4  1  0  0  0  0
  7  5  1  0  0  0  0
  7 18  1  0  0  0  0
  8 12  1  0  0  0  0
  9  6  1  0  0  0  0
 10 19  1  0  0  0  0
 12 11  1  0  0  0  0
 13 10  2  0  0  0  0
 13  9  1  0  0  0  0
 14 21  1  0  0  0  0
 14  3  1  0  0  0  0
 15 22  1  0  0  0  0
 15 12  1  0  0  0  0
 16  9  1  0  0  0  0
 16  5  1  0  0  0  0
 17  4  1  0  0  0  0
 18 23  1  0  0  0  0
 18 22  1  0  0  0  0
 19 17  1  0  0  0  0
 20 21  1  0  0  0  0
 20 16  1  0  0  0  0
 23 26  1  0  0  0  0
 24 25  1  0  0  0  0
 24 23  1  0  0  0  0
 26 29  1  0  0  0  0
 29 27  1  0  0  0  0
 29 28  2  0  0  0  0
 30 13  1  0  0  0  0
 31 30  1  0  0  0  0
 32 31  1  0  0  0  0
 33 34  1  0  0  0  0
 33 31  1  0  0  0  0
 34 35  1  0  0  0  0
 36 35  1  0  0  0  0
 37 36  1  0  0  0  0
M  END
>  <MODEL>
6

>  <REMARK>
 VINA RESULT:      -5.3      4.302      7.711
  Name = 
  10 active torsions:
  status: ('A' for Active; 'I' for Inactive)
    1  A    between atoms: C_1  and  C_5
    2  A    between atoms: C_1  and  C_23
    3  A    between atoms: C_2  and  C_6
    4  A    between atoms: C_5  and  C_17
    5  A    between atoms: C_6  and  S_8
    6  A    between atoms: C_6  and  C_31
    7  A    between atoms: S_8  and  C_19
    8  A    between atoms: C_11  and  C_26
    9  A    between atoms: C_17  and  C_26
   10  A    between atoms: C_23  and  C_25
                            x       y       z     vdW  Elec       q    Type
                         _______ _______ _______ _____ _____    ______ ____

>  <TORSDO>
F 10

$$$$
=
 OpenBabel10272415023D

 37 41  0  0  1  0  0  0  0  0999 V2000
  184.3530  180.7390  144.6960 O   0  0  0  0  0  1  0  0  0  0  0  0
  187.4180  177.0040  145.1930 C   0  0  2  0  0  3  0  0  0  0  0  0
  190.6100  177.8090  143.3280 C   0  0  0  0  0  2  0  0  0  0  0  0
  185.8220  178.9420  145.3110 C   0  0  2  0  0  3  0  0  0  0  0  0
  188.2920  177.7060  144.2620 N   0  0  1  0  0  0  0  0  0  0  0  0
  186.0140  177.4660  144.8700 C   0  0  1  0  0  3  0  0  0  0  0  0
  189.6150  177.0580  144.2430 C   0  0  2  0  0  3  0  0  0  0  0  0
  186.2870  179.1790  146.7530 C   0  0  0  0  0  2  0  0  0  0  0  0
  186.0890  177.3420  143.3510 C   0  0  1  0  0  3  0  0  0  0  0  0
  183.8460  178.4430  142.9360 C   0  0  0  0  0  3  0  0  0  0  0  0
  188.0810  178.9420  148.2880 F   0  0  0  0  0  0  0  0  0  0  0  0
  187.7320  178.7330  146.9670 C   0  0  1  0  0  3  0  0  0  0  0  0
  185.0090  177.9590  142.4670 C   0  0  0  0  0  0  0  0  0  0  0  0
  190.0380  178.2890  142.0000 C   0  0  0  0  0  2  0  0  0  0  0  0
  187.8470  177.2490  146.6260 C   0  0  2  0  0  3  0  0  0  0  0  0
  187.5750  177.5650  142.9920 C   0  0  1  0  0  3  0  0  0  0  0  0
  184.3780  179.4350  145.1920 C   0  0  2  0  0  3  0  0  0  0  0  0
  190.2300  177.1000  145.6660 C   0  0  1  0  0  3  0  0  0  0  0  0
  183.4530  178.5310  144.3800 C   0  0  0  0  0  2  0  0  0  0  0  0
  187.8320  178.7960  142.1050 C   0  0  0  0  0  2  0  0  0  0  0  0
  189.1280  179.3240  142.2500 O   0  0  0  0  0  0  0  0  0  0  0  0
  189.2600  176.6930  146.7970 C   0  0  0  0  0  2  0  0  0  0  0  0
  191.5400  176.3070  145.7390 C   0  0  2  0  0  3  0  0  0  0  0  0
  191.8230  175.5370  144.4540 C   0  0  0  0  0  2  0  0  0  0  0  0
  192.3910  174.2990  144.7530 O   0  0  0  0  0  1  0  0  0  0  0  0
  191.5410  175.1910  147.1780 S   0  0  0  0  0  0  0  0  0  0  0  0
  191.7330  177.5740  148.5080 F   0  0  0  0  0  0  0  0  0  0  0  0
  193.4650  176.1730  148.6640 O   0  0  0  0  0  0  0  0  0  0  0  0
  192.3540  176.4020  148.2150 C   0  0  0  0  0  0  0  0  0  0  0  0
  185.1080  177.7550  140.9800 C   0  0  0  0  0  2  0  0  0  0  0  0
  183.8490  178.1920  140.2350 C   0  0  2  0  0  3  0  0  0  0  0  0
  182.9750  176.9900  139.9290 C   0  0  0  0  0  1  0  0  0  0  0  0
  184.2200  178.8630  138.9200 C   0  0  0  0  0  2  0  0  0  0  0  0
  184.9370  177.9020  137.9840 C   0  0  0  0  0  2  0  0  0  0  0  0
  186.3290  178.4190  137.6590 C   0  0  0  0  0  2  0  0  0  0  0  0
  187.2700  177.2670  137.3550 C   0  0  0  0  0  2  0  0  0  0  0  0
  188.2520  177.0680  138.4940 C   0  0  0  0  0  1  0  0  0  0  0  0
  1 17  1  0  0  0  0
  2 15  1  0  0  0  0
  3  7  1  0  0  0  0
  4  8  1  0  0  0  0
  5  2  1  0  0  0  0
  6  2  1  0  0  0  0
  6  4  1  0  0  0  0
  7  5  1  0  0  0  0
  7 18  1  0  0  0  0
  8 12  1  0  0  0  0
  9  6  1  0  0  0  0
 10 19  1  0  0  0  0
 12 11  1  0  0  0  0
 13 10  2  0  0  0  0
 13  9  1  0  0  0  0
 14 21  1  0  0  0  0
 14  3  1  0  0  0  0
 15 22  1  0  0  0  0
 15 12  1  0  0  0  0
 16  9  1  0  0  0  0
 16  5  1  0  0  0  0
 17  4  1  0  0  0  0
 18 23  1  0  0  0  0
 18 22  1  0  0  0  0
 19 17  1  0  0  0  0
 20 21  1  0  0  0  0
 20 16  1  0  0  0  0
 23 26  1  0  0  0  0
 24 25  1  0  0  0  0
 24 23  1  0  0  0  0
 26 29  1  0  0  0  0
 29 27  1  0  0  0  0
 29 28  2  0  0  0  0
 30 13  1  0  0  0  0
 31 30  1  0  0  0  0
 32 31  1  0  0  0  0
 33 31  1  0  0  0  0
 34 33  1  0  0  0  0
 35 34  1  0  0  0  0
 36 35  1  0  0  0  0
 36 37  1  0  0  0  0
M  END
>  <MODEL>
7

>  <REMARK>
 VINA RESULT:      -5.2      4.054      7.832
  Name = 
  10 active torsions:
  status: ('A' for Active; 'I' for Inactive)
    1  A    between atoms: C_1  and  C_5
    2  A    between atoms: C_1  and  C_23
    3  A    between atoms: C_2  and  C_6
    4  A    between atoms: C_5  and  C_17
    5  A    between atoms: C_6  and  S_8
    6  A    between atoms: C_6  and  C_31
    7  A    between atoms: S_8  and  C_19
    8  A    between atoms: C_11  and  C_26
    9  A    between atoms: C_17  and  C_26
   10  A    between atoms: C_23  and  C_25
                            x       y       z     vdW  Elec       q    Type
                         _______ _______ _______ _____ _____    ______ ____

>  <TORSDO>
F 10

$$$$
=
 OpenBabel10272415023D

 37 41  0  0  1  0  0  0  0  0999 V2000
  187.9250  171.6690  136.2160 O   0  0  0  0  0  1  0  0  0  0  0  0
  191.4970  174.5860  134.6930 C   0  0  2  0  0  3  0  0  0  0  0  0
  193.1010  176.2030  137.7140 C   0  0  0  0  0  2  0  0  0  0  0  0
  189.8260  172.8070  135.2920 C   0  0  2  0  0  3  0  0  0  0  0  0
  191.6310  175.0080  136.0820 N   0  0  1  0  0  0  0  0  0  0  0  0
  190.0590  174.1410  134.5340 C   0  0  1  0  0  3  0  0  0  0  0  0
  192.8660  175.7950  136.2420 C   0  0  2  0  0  3  0  0  0  0  0  0
  190.8910  171.7560  134.9510 C   0  0  0  0  0  2  0  0  0  0  0  0
  189.3890  175.3130  135.2470 C   0  0  1  0  0  3  0  0  0  0  0  0
  187.0720  174.2910  135.2050 C   0  0  0  0  0  3  0  0  0  0  0  0
  193.2170  171.3010  134.8440 F   0  0  0  0  0  0  0  0  0  0  0  0
  192.3050  172.2790  135.1970 C   0  0  1  0  0  3  0  0  0  0  0  0
  187.9150  175.2450  135.6360 C   0  0  0  0  0  0  0  0  0  0  0  0
  191.8620  176.6730  138.4650 C   0  0  0  0  0  2  0  0  0  0  0  0
  192.5250  173.5280  134.3470 C   0  0  2  0  0  3  0  0  0  0  0  0
  190.4200  175.8070  136.2860 C   0  0  1  0  0  3  0  0  0  0  0  0
  188.4500  172.1870  135.0320 C   0  0  2  0  0  3  0  0  0  0  0  0
  194.0870  174.9260  135.8400 C   0  0  1  0  0  3  0  0  0  0  0  0
  187.4430  173.1140  134.3540 C   0  0  0  0  0  2  0  0  0  0  0  0
  189.9520  175.6860  137.7470 C   0  0  0  0  0  2  0  0  0  0  0  0
  191.0140  175.5750  138.6630 O   0  0  0  0  0  0  0  0  0  0  0  0
  193.9130  174.1450  134.5200 C   0  0  0  0  0  2  0  0  0  0  0  0
  195.3850  175.7410  135.8420 C   0  0  2  0  0  3  0  0  0  0  0  0
  195.2820  176.9960  134.9830 C   0  0  0  0  0  2  0  0  0  0  0  0
  196.1400  177.9810  135.4700 O   0  0  0  0  0  1  0  0  0  0  0  0
  196.7950  174.7120  135.3220 S   0  0  0  0  0  0  0  0  0  0  0  0
  197.2540  173.3180  137.6310 F   0  0  0  0  0  0  0  0  0  0  0  0
  197.8800  175.4610  137.5890 O   0  0  0  0  0  0  0  0  0  0  0  0
  197.3730  174.5170  137.0050 C   0  0  0  0  0  0  0  0  0  0  0  0
  187.2980  176.4520  136.2850 C   0  0  0  0  0  2  0  0  0  0  0  0
  185.8210  176.6260  135.9350 C   0  0  2  0  0  3  0  0  0  0  0  0
  185.6610  177.6450  134.8230 C   0  0  0  0  0  1  0  0  0  0  0  0
  185.0450  177.1150  137.1510 C   0  0  0  0  0  2  0  0  0  0  0  0
  183.7500  176.3390  137.3380 C   0  0  0  0  0  2  0  0  0  0  0  0
  183.8540  174.9700  136.6880 C   0  0  0  0  0  2  0  0  0  0  0  0
  184.1670  173.9070  137.7260 C   0  0  0  0  0  2  0  0  0  0  0  0
  184.4860  172.5850  137.0540 C   0  0  0  0  0  1  0  0  0  0  0  0
  2  5  1  0  0  0  0
  3 14  1  0  0  0  0
  5  7  1  0  0  0  0
  5 16  1  0  0  0  0
  6  2  1  0  0  0  0
  6  9  1  0  0  0  0
  6  4  1  0  0  0  0
  7  3  1  0  0  0  0
  8 12  1  0  0  0  0
  8  4  1  0  0  0  0
  9 13  1  0  0  0  0
  9 16  1  0  0  0  0
 10 13  2  0  0  0  0
 11 12  1  0  0  0  0
 13 30  1  0  0  0  0
 14 21  1  0  0  0  0
 15 22  1  0  0  0  0
 15  2  1  0  0  0  0
 15 12  1  0  0  0  0
 16 20  1  0  0  0  0
 17  4  1  0  0  0  0
 17  1  1  0  0  0  0
 18 23  1  0  0  0  0
 18  7  1  0  0  0  0
 19 17  1  0  0  0  0
 19 10  1  0  0  0  0
 20 21  1  0  0  0  0
 22 18  1  0  0  0  0
 24 25  1  0  0  0  0
 24 23  1  0  0  0  0
 26 23  1  0  0  0  0
 26 29  1  0  0  0  0
 29 28  2  0  0  0  0
 29 27  1  0  0  0  0
 31 30  1  0  0  0  0
 31 33  1  0  0  0  0
 32 31  1  0  0  0  0
 33 34  1  0  0  0  0
 35 34  1  0  0  0  0
 35 36  1  0  0  0  0
 37 36  1  0  0  0  0
M  END
>  <MODEL>
8

>  <REMARK>
 VINA RESULT:      -5.0      5.932      8.734
  Name = 
  10 active torsions:
  status: ('A' for Active; 'I' for Inactive)
    1  A    between atoms: C_1  and  C_5
    2  A    between atoms: C_1  and  C_23
    3  A    between atoms: C_2  and  C_6
    4  A    between atoms: C_5  and  C_17
    5  A    between atoms: C_6  and  S_8
    6  A    between atoms: C_6  and  C_31
    7  A    between atoms: S_8  and  C_19
    8  A    between atoms: C_11  and  C_26
    9  A    between atoms: C_17  and  C_26
   10  A    between atoms: C_23  and  C_25
                            x       y       z     vdW  Elec       q    Type
                         _______ _______ _______ _____ _____    ______ ____

>  <TORSDO>
F 10

$$$$
=
 OpenBabel10272415023D

 37 41  0  0  1  0  0  0  0  0999 V2000
  191.5080  179.5580  143.9080 O   0  0  0  0  0  1  0  0  0  0  0  0
  190.3180  176.1930  140.6130 C   0  0  2  0  0  3  0  0  0  0  0  0
  187.9400  177.7450  138.1130 C   0  0  0  0  0  2  0  0  0  0  0  0
  191.2890  177.8600  142.2240 C   0  0  2  0  0  3  0  0  0  0  0  0
  189.3850  177.1740  140.0730 N   0  0  1  0  0  0  0  0  0  0  0  0
  190.4820  176.5420  142.0760 C   0  0  1  0  0  3  0  0  0  0  0  0
  188.8770  176.7070  138.7710 C   0  0  2  0  0  3  0  0  0  0  0  0
  192.5790  177.8430  141.3940 C   0  0  0  0  0  2  0  0  0  0  0  0
  189.0090  176.7490  142.4160 C   0  0  1  0  0  3  0  0  0  0  0  0
  189.4500  177.6380  144.7470 C   0  0  0  0  0  3  0  0  0  0  0  0
  193.5050  177.5050  139.2350 F   0  0  0  0  0  0  0  0  0  0  0  0
  192.3050  177.5370  139.9230 C   0  0  1  0  0  3  0  0  0  0  0  0
  188.6000  177.4050  143.7320 C   0  0  0  0  0  0  0  0  0  0  0  0
  186.9520  178.4210  139.0550 C   0  0  0  0  0  2  0  0  0  0  0  0
  191.6100  176.1820  139.8200 C   0  0  2  0  0  3  0  0  0  0  0  0
  188.3440  177.2180  141.1030 C   0  0  1  0  0  3  0  0  0  0  0  0
  191.6630  178.1910  143.6710 C   0  0  2  0  0  3  0  0  0  0  0  0
  190.0650  176.5220  137.7900 C   0  0  1  0  0  3  0  0  0  0  0  0
  190.9260  177.3740  144.7300 C   0  0  0  0  0  2  0  0  0  0  0  0
  187.7340  178.6290  141.1720 C   0  0  0  0  0  2  0  0  0  0  0  0
  187.6620  179.2650  139.9200 O   0  0  0  0  0  0  0  0  0  0  0  0
  191.2780  175.7750  138.3850 C   0  0  0  0  0  2  0  0  0  0  0  0
  189.6130  175.8930  136.4670 C   0  0  2  0  0  3  0  0  0  0  0  0
  189.2340  176.9420  135.4280 C   0  0  0  0  0  2  0  0  0  0  0  0
  188.0800  176.5490  134.7500 O   0  0  0  0  0  1  0  0  0  0  0  0
  188.2410  174.7270  136.7420 S   0  0  0  0  0  0  0  0  0  0  0  0
  190.5670  173.4090  136.1620 F   0  0  0  0  0  0  0  0  0  0  0  0
  188.6550  172.3100  135.8120 O   0  0  0  0  0  0  0  0  0  0  0  0
  189.2110  173.3320  136.1780 C   0  0  0  0  0  0  0  0  0  0  0  0
  187.1320  177.5300  144.0360 C   0  0  0  0  0  2  0  0  0  0  0  0
  186.8380  177.5830  145.5330 C   0  0  2  0  0  3  0  0  0  0  0  0
  186.1480  176.3070  145.9790 C   0  0  0  0  0  1  0  0  0  0  0  0
  185.9230  178.7580  145.8490 C   0  0  0  0  0  2  0  0  0  0  0  0
  185.9050  179.0700  147.3380 C   0  0  0  0  0  2  0  0  0  0  0  0
  187.3110  179.3580  147.8360 C   0  0  0  0  0  2  0  0  0  0  0  0
  187.8560  178.1720  148.6120 C   0  0  0  0  0  2  0  0  0  0  0  0
  189.3520  178.0400  148.3980 C   0  0  0  0  0  1  0  0  0  0  0  0
  2  6  1  0  0  0  0
  3  7  1  0  0  0  0
  3 14  1  0  0  0  0
  4 17  1  0  0  0  0
  5  2  1  0  0  0  0
  5 16  1  0  0  0  0
  6  4  1  0  0  0  0
  6  9  1  0  0  0  0
  7  5  1  0  0  0  0
  8  4  1  0  0  0  0
  9 13  1  0  0  0  0
 11 12  1  0  0  0  0
 12  8  1  0  0  0  0
 13 30  1  0  0  0  0
 13 10  2  0  0  0  0
 14 21  1  0  0  0  0
 15 12  1  0  0  0  0
 15  2  1  0  0  0  0
 16 20  1  0  0  0  0
 16  9  1  0  0  0  0
 17  1  1  0  0  0  0
 17 19  1  0  0  0  0
 18 22  1  0  0  0  0
 18  7  1  0  0  0  0
 19 10  1  0  0  0  0
 21 20  1  0  0  0  0
 22 15  1  0  0  0  0
 23 26  1  0  0  0  0
 23 18  1  0  0  0  0
 24 23  1  0  0  0  0
 25 24  1  0  0  0  0
 27 29  1  0  0  0  0
 28 29  2  0  0  0  0
 29 26  1  0  0  0  0
 30 31  1  0  0  0  0
 31 33  1  0  0  0  0
 31 32  1  0  0  0  0
 33 34  1  0  0  0  0
 34 35  1  0  0  0  0
 35 36  1  0  0  0  0
 37 36  1  0  0  0  0
M  END
>  <MODEL>
9

>  <REMARK>
 VINA RESULT:      -4.9      1.714      2.764
  Name = 
  10 active torsions:
  status: ('A' for Active; 'I' for Inactive)
    1  A    between atoms: C_1  and  C_5
    2  A    between atoms: C_1  and  C_23
    3  A    between atoms: C_2  and  C_6
    4  A    between atoms: C_5  and  C_17
    5  A    between atoms: C_6  and  S_8
    6  A    between atoms: C_6  and  C_31
    7  A    between atoms: S_8  and  C_19
    8  A    between atoms: C_11  and  C_26
    9  A    between atoms: C_17  and  C_26
   10  A    between atoms: C_23  and  C_25
                            x       y       z     vdW  Elec       q    Type
                         _______ _______ _______ _____ _____    ______ ____

>  <TORSDO>
F 10

$$$$
