=
 OpenBabel10272414013D

 30 32  0  0  1  0  0  0  0  0999 V2000
  186.1580  177.4150  144.8480 C   0  0  2  0  0  3  0  0  0  0  0  0
  183.9240  178.9750  143.1660 C   0  0  2  0  0  3  0  0  0  0  0  0
  186.4110  179.4460  141.8010 O   0  0  0  0  0  1  0  0  0  0  0  0
  184.7570  177.9120  142.5760 N   0  0  0  0  0  0  0  0  0  0  0  0
  185.2680  178.4580  145.5200 C   0  0  0  0  0  2  0  0  0  0  0  0
  187.0180  176.7910  145.9370 C   0  0  0  0  0  1  0  0  0  0  0  0
  184.6410  180.1400  143.8410 C   0  0  0  0  0  2  0  0  0  0  0  0
  184.1050  179.0080  144.6870 C   0  0  1  0  0  0  0  0  0  0  0  0
  186.1910  178.2040  142.4080 C   0  0  2  0  0  3  0  0  0  0  0  0
  182.9950  179.4410  145.4100 O   0  0  0  0  0  1  0  0  0  0  0  0
  186.9950  178.0550  143.7130 C   0  0  2  0  0  3  0  0  0  0  0  0
  188.3180  177.3050  143.4540 C   0  0  1  0  0  3  0  0  0  0  0  0
  188.1000  176.1030  142.7760 O   0  0  0  0  0  1  0  0  0  0  0  0
  189.4070  178.1320  142.7610 C   0  0  2  0  0  3  0  0  0  0  0  0
  190.4700  175.7250  142.1790 O   0  0  0  0  0  0  0  0  0  0  0  0
  191.8260  177.6910  141.6630 O   0  0  0  0  0  0  0  0  0  0  0  0
  190.4280  177.1410  141.6760 S   0  0  0  0  0  0  0  0  0  0  0  0
  189.7830  177.1600  140.0390 C   0  0  0  0  0  0  0  0  0  0  0  0
  188.7370  177.9260  139.7450 C   0  0  0  0  0  2  0  0  0  0  0  0
  190.4780  176.1270  138.8020 Cl  0  0  0  0  0  0  0  0  0  0  0  0
  190.2010  178.8160  143.6850 O   0  0  0  0  0  0  0  0  0  0  0  0
  190.1810  178.0220  144.8320 C   0  0  0  0  0  2  0  0  0  0  0  0
  191.5600  176.5130  146.6270 S   0  0  0  0  0  1  0  0  0  0  0  0
  191.5900  177.5790  145.1620 C   0  0  0  0  0  2  0  0  0  0  0  0
  184.2000  177.6010  141.2690 C   0  0  0  0  0  2  0  0  0  0  0  0
  183.4310  178.7720  140.7560 C   0  0  0  0  0  3  0  0  0  0  0  0
  183.3230  178.9730  139.4470 C   0  0  0  0  0  3  0  0  0  0  0  0
  182.5560  180.1420  138.9310 C   0  0  0  0  0  3  0  0  0  0  0  0
  181.6310  179.6810  137.8240 C   0  0  0  0  0  2  0  0  0  0  0  0
  181.0840  179.9290  139.2110 C   0  0  0  0  0  2  0  0  0  0  0  0
  1  5  1  0  0  0  0
  1  6  1  1  0  0  0
  2  7  1  6  0  0  0
  2  8  1  0  0  0  0
  4  2  1  0  0  0  0
  7  8  1  0  0  0  0
  8 10  1  1  0  0  0
  8  5  1  0  0  0  0
  9  3  1  1  0  0  0
  9  4  1  0  0  0  0
  9 11  1  0  0  0  0
 11 12  1  6  0  0  0
 11  1  1  0  0  0  0
 12 13  1  6  0  0  0
 14 12  1  0  0  0  0
 14 21  1  1  0  0  0
 16 17  2  0  0  0  0
 17 15  2  0  0  0  0
 17 14  1  0  0  0  0
 18 17  1  0  0  0  0
 19 18  2  0  0  0  0
 20 18  1  0  0  0  0
 21 22  1  0  0  0  0
 22 24  1  0  0  0  0
 24 23  1  0  0  0  0
 25  4  1  0  0  0  0
 26 25  1  0  0  0  0
 27 26  2  0  0  0  0
 28 30  1  0  0  0  0
 28 27  1  0  0  0  0
 29 28  1  0  0  0  0
 29 30  1  0  0  0  0
M  END
>  <MODEL>
1

>  <REMARK>
 VINA RESULT:      -6.4      0.000      0.000
  Name = 
  10 active torsions:
  status: ('A' for Active; 'I' for Inactive)
    1  A    between atoms: C_1  and  C_4
    2  A    between atoms: C_1  and  C_29
    3  A    between atoms: C_4  and  O_5
    4  A    between atoms: C_4  and  S_12
    5  A    between atoms: O_5  and  C_21
    6  A    between atoms: C_10  and  C_25
    7  A    between atoms: N_11  and  C_24
    8  A    between atoms: S_12  and  C_13
    9  A    between atoms: C_15  and  C_24
   10  A    between atoms: C_17  and  C_21
                            x       y       z     vdW  Elec       q    Type
                         _______ _______ _______ _____ _____    ______ ____

>  <TORSDO>
F 10

$$$$
=
 OpenBabel10272414013D

 30 32  0  0  1  0  0  0  0  0999 V2000
  189.3180  178.3430  140.0610 C   0  0  2  0  0  3  0  0  0  0  0  0
  188.9880  177.7870  143.1980 C   0  0  2  0  0  3  0  0  0  0  0  0
  190.9030  175.8610  142.2520 O   0  0  0  0  0  1  0  0  0  0  0  0
  190.2840  178.1400  142.5900 N   0  0  0  0  0  0  0  0  0  0  0  0
  187.9420  178.0530  140.6570 C   0  0  0  0  0  2  0  0  0  0  0  0
  189.1080  178.6700  138.5900 C   0  0  0  0  0  1  0  0  0  0  0  0
  188.2370  176.5950  142.6140 C   0  0  0  0  0  2  0  0  0  0  0  0
  187.8550  177.9930  142.1870 C   0  0  1  0  0  0  0  0  0  0  0  0
  190.8930  177.1430  141.6920 C   0  0  2  0  0  3  0  0  0  0  0  0
  186.6210  178.3370  142.7360 O   0  0  0  0  0  1  0  0  0  0  0  0
  190.2760  177.1460  140.2810 C   0  0  2  0  0  3  0  0  0  0  0  0
  191.3780  177.0620  139.2050 C   0  0  1  0  0  3  0  0  0  0  0  0
  192.6520  177.1580  139.7700 O   0  0  0  0  0  1  0  0  0  0  0  0
  191.2850  175.8460  138.2750 C   0  0  2  0  0  3  0  0  0  0  0  0
  193.6220  176.8730  137.4110 O   0  0  0  0  0  0  0  0  0  0  0  0
  192.1140  175.9660  135.7160 O   0  0  0  0  0  0  0  0  0  0  0  0
  192.6410  175.7740  137.1100 S   0  0  0  0  0  0  0  0  0  0  0  0
  193.4560  174.2190  137.2120 C   0  0  0  0  0  0  0  0  0  0  0  0
  193.0410  173.1990  136.4670 C   0  0  0  0  0  2  0  0  0  0  0  0
  194.7830  173.9860  138.3380 Cl  0  0  0  0  0  0  0  0  0  0  0  0
  190.0620  175.8060  137.6010 O   0  0  0  0  0  0  0  0  0  0  0  0
  189.7900  174.4480  137.4310 C   0  0  0  0  0  2  0  0  0  0  0  0
  188.4260  175.8850  135.5670 S   0  0  0  0  0  1  0  0  0  0  0  0
  188.8910  174.2630  136.2270 C   0  0  0  0  0  2  0  0  0  0  0  0
  191.2140  178.4000  143.6780 C   0  0  0  0  0  2  0  0  0  0  0  0
  190.7500  177.7090  144.9160 C   0  0  0  0  0  3  0  0  0  0  0  0
  191.5720  176.8920  145.5660 C   0  0  0  0  0  3  0  0  0  0  0  0
  191.1110  176.2010  146.8040 C   0  0  0  0  0  3  0  0  0  0  0  0
  192.3150  175.6800  147.5610 C   0  0  0  0  0  2  0  0  0  0  0  0
  191.6300  176.9510  148.0110 C   0  0  0  0  0  2  0  0  0  0  0  0
  1  6  1  6  0  0  0
  1 11  1  0  0  0  0
  1  5  1  0  0  0  0
  2  7  1  6  0  0  0
  4  2  1  0  0  0  0
  4 25  1  0  0  0  0
  5  8  1  0  0  0  0
  8  7  1  0  0  0  0
  8 10  1  1  0  0  0
  8  2  1  0  0  0  0
  9  3  1  1  0  0  0
  9  4  1  0  0  0  0
 11 12  1  6  0  0  0
 11  9  1  0  0  0  0
 12 13  1  1  0  0  0
 14 21  1  6  0  0  0
 14 12  1  0  0  0  0
 16 17  2  0  0  0  0
 17 18  1  0  0  0  0
 17 15  2  0  0  0  0
 17 14  1  0  0  0  0
 18 20  1  0  0  0  0
 19 18  2  0  0  0  0
 22 21  1  0  0  0  0
 23 24  1  0  0  0  0
 24 22  1  0  0  0  0
 25 26  1  0  0  0  0
 26 27  2  0  0  0  0
 27 28  1  0  0  0  0
 28 29  1  0  0  0  0
 28 30  1  0  0  0  0
 29 30  1  0  0  0  0
M  END
>  <MODEL>
2

>  <REMARK>
 VINA RESULT:      -6.4      4.183      7.707
  Name = 
  10 active torsions:
  status: ('A' for Active; 'I' for Inactive)
    1  A    between atoms: C_1  and  C_4
    2  A    between atoms: C_1  and  C_29
    3  A    between atoms: C_4  and  O_5
    4  A    between atoms: C_4  and  S_12
    5  A    between atoms: O_5  and  C_21
    6  A    between atoms: C_10  and  C_25
    7  A    between atoms: N_11  and  C_24
    8  A    between atoms: S_12  and  C_13
    9  A    between atoms: C_15  and  C_24
   10  A    between atoms: C_17  and  C_21
                            x       y       z     vdW  Elec       q    Type
                         _______ _______ _______ _____ _____    ______ ____

>  <TORSDO>
F 10

$$$$
=
 OpenBabel10272414013D

 30 32  0  0  1  0  0  0  0  0999 V2000
  186.9070  178.5900  141.6610 C   0  0  2  0  0  3  0  0  0  0  0  0
  188.7270  177.4420  144.0330 C   0  0  2  0  0  3  0  0  0  0  0  0
  189.7850  176.3120  141.6080 O   0  0  0  0  0  1  0  0  0  0  0  0
  189.2840  178.2380  142.9240 N   0  0  0  0  0  0  0  0  0  0  0  0
  186.2750  177.8330  142.8270 C   0  0  0  0  0  2  0  0  0  0  0  0
  185.7690  179.0910  140.7830 C   0  0  0  0  0  1  0  0  0  0  0  0
  187.9110  176.2050  143.6710 C   0  0  0  0  0  2  0  0  0  0  0  0
  187.1960  177.4930  144.0050 C   0  0  1  0  0  0  0  0  0  0  0  0
  189.2790  177.6170  141.5880 C   0  0  2  0  0  3  0  0  0  0  0  0
  186.5730  177.3820  145.2470 O   0  0  0  0  0  1  0  0  0  0  0  0
  187.9050  177.6870  140.8950 C   0  0  2  0  0  3  0  0  0  0  0  0
  188.0630  178.0960  139.4160 C   0  0  1  0  0  3  0  0  0  0  0  0
  189.0110  179.1100  139.2640 O   0  0  0  0  0  1  0  0  0  0  0  0
  188.3430  176.9390  138.4500 C   0  0  2  0  0  3  0  0  0  0  0  0
  190.9490  177.1940  137.8160 O   0  0  0  0  0  0  0  0  0  0  0  0
  189.4000  178.7900  136.8050 O   0  0  0  0  0  0  0  0  0  0  0  0
  189.5770  177.3580  137.2240 S   0  0  0  0  0  0  0  0  0  0  0  0
  189.4200  176.3180  135.8150 C   0  0  0  0  0  0  0  0  0  0  0  0
  188.8700  176.7870  134.6990 C   0  0  0  0  0  2  0  0  0  0  0  0
  189.9320  174.6410  135.8900 Cl  0  0  0  0  0  0  0  0  0  0  0  0
  187.1730  176.4920  137.8300 O   0  0  0  0  0  0  0  0  0  0  0  0
  186.4490  177.6510  137.5520 C   0  0  0  0  0  2  0  0  0  0  0  0
  185.3520  175.6290  136.0990 S   0  0  0  0  0  1  0  0  0  0  0  0
  185.5590  177.4120  136.3510 C   0  0  0  0  0  2  0  0  0  0  0  0
  190.6600  178.5580  143.2720 C   0  0  0  0  0  2  0  0  0  0  0  0
  190.8730  178.3540  144.7340 C   0  0  0  0  0  3  0  0  0  0  0  0
  191.5030  177.2670  145.1670 C   0  0  0  0  0  3  0  0  0  0  0  0
  191.7170  177.0610  146.6270 C   0  0  0  0  0  3  0  0  0  0  0  0
  190.6960  176.0690  147.1450 C   0  0  0  0  0  2  0  0  0  0  0  0
  192.1140  175.6200  146.8690 C   0  0  0  0  0  2  0  0  0  0  0  0
  1  6  1  6  0  0  0
  1  5  1  0  0  0  0
  2  7  1  6  0  0  0
  4 25  1  0  0  0  0
  4  2  1  0  0  0  0
  5  8  1  0  0  0  0
  7  8  1  0  0  0  0
  8  2  1  0  0  0  0
  8 10  1  1  0  0  0
  9  3  1  1  0  0  0
  9  4  1  0  0  0  0
 11 12  1  6  0  0  0
 11  9  1  0  0  0  0
 11  1  1  0  0  0  0
 12 13  1  1  0  0  0
 14 21  1  6  0  0  0
 14 12  1  0  0  0  0
 16 17  2  0  0  0  0
 17 15  2  0  0  0  0
 17 14  1  0  0  0  0
 18 20  1  0  0  0  0
 18 17  1  0  0  0  0
 19 18  2  0  0  0  0
 22 21  1  0  0  0  0
 23 24  1  0  0  0  0
 24 22  1  0  0  0  0
 25 26  1  0  0  0  0
 26 27  2  0  0  0  0
 27 28  1  0  0  0  0
 28 30  1  0  0  0  0
 28 29  1  0  0  0  0
 30 29  1  0  0  0  0
M  END
>  <MODEL>
3

>  <REMARK>
 VINA RESULT:      -6.1      3.289      7.121
  Name = 
  10 active torsions:
  status: ('A' for Active; 'I' for Inactive)
    1  A    between atoms: C_1  and  C_4
    2  A    between atoms: C_1  and  C_29
    3  A    between atoms: C_4  and  O_5
    4  A    between atoms: C_4  and  S_12
    5  A    between atoms: O_5  and  C_21
    6  A    between atoms: C_10  and  C_25
    7  A    between atoms: N_11  and  C_24
    8  A    between atoms: S_12  and  C_13
    9  A    between atoms: C_15  and  C_24
   10  A    between atoms: C_17  and  C_21
                            x       y       z     vdW  Elec       q    Type
                         _______ _______ _______ _____ _____    ______ ____

>  <TORSDO>
F 10

$$$$
=
 OpenBabel10272414013D

 30 32  0  0  1  0  0  0  0  0999 V2000
  189.9110  176.2320  137.5560 C   0  0  2  0  0  3  0  0  0  0  0  0
  187.2420  175.5440  135.9250 C   0  0  2  0  0  3  0  0  0  0  0  0
  186.4330  177.2850  138.0670 O   0  0  0  0  0  1  0  0  0  0  0  0
  187.7290  176.9250  136.0970 N   0  0  0  0  0  0  0  0  0  0  0  0
  189.4850  174.7810  137.3410 C   0  0  0  0  0  2  0  0  0  0  0  0
  191.2610  176.2030  138.2580 C   0  0  0  0  0  1  0  0  0  0  0  0
  187.0330  174.7090  137.1850 C   0  0  0  0  0  2  0  0  0  0  0  0
  188.3070  174.5450  136.3880 C   0  0  1  0  0  0  0  0  0  0  0  0
  187.6770  177.4870  137.4590 C   0  0  2  0  0  3  0  0  0  0  0  0
  188.3000  173.3180  135.7290 O   0  0  0  0  0  1  0  0  0  0  0  0
  188.8350  177.0090  138.3540 C   0  0  2  0  0  3  0  0  0  0  0  0
  189.4250  178.1880  139.1550 C   0  0  1  0  0  3  0  0  0  0  0  0
  189.1130  179.4150  138.5640 O   0  0  0  0  0  1  0  0  0  0  0  0
  189.0740  178.1970  140.6480 C   0  0  2  0  0  3  0  0  0  0  0  0
  191.6880  177.7270  141.1020 O   0  0  0  0  0  0  0  0  0  0  0  0
  190.1310  175.9100  141.5970 O   0  0  0  0  0  0  0  0  0  0  0  0
  190.3250  177.3990  141.6470 S   0  0  0  0  0  0  0  0  0  0  0  0
  190.2160  177.9420  143.3160 C   0  0  0  0  0  0  0  0  0  0  0  0
  189.3970  177.3280  144.1640 C   0  0  0  0  0  2  0  0  0  0  0  0
  191.1430  179.3310  143.8580 Cl  0  0  0  0  0  0  0  0  0  0  0  0
  187.8220  177.6230  140.8850 O   0  0  0  0  0  0  0  0  0  0  0  0
  187.0520  178.6540  141.4240 C   0  0  0  0  0  2  0  0  0  0  0  0
  184.4910  178.6090  142.3420 S   0  0  0  0  0  1  0  0  0  0  0  0
  186.2200  178.1140  142.5680 C   0  0  0  0  0  2  0  0  0  0  0  0
  186.9350  177.7750  135.2240 C   0  0  0  0  0  2  0  0  0  0  0  0
  185.8080  176.9900  134.6430 C   0  0  0  0  0  3  0  0  0  0  0  0
  184.5570  177.2600  135.0010 C   0  0  0  0  0  3  0  0  0  0  0  0
  183.4290  176.4770  134.4220 C   0  0  0  0  0  3  0  0  0  0  0  0
  182.3320  176.3430  135.4580 C   0  0  0  0  0  2  0  0  0  0  0  0
  182.2020  177.3600  134.3460 C   0  0  0  0  0  2  0  0  0  0  0  0
  1  6  1  1  0  0  0
  1 11  1  0  0  0  0
  2  4  1  0  0  0  0
  2  8  1  0  0  0  0
  2  7  1  1  0  0  0
  4  9  1  0  0  0  0
  5  1  1  0  0  0  0
  8 10  1  6  0  0  0
  8  7  1  0  0  0  0
  8  5  1  0  0  0  0
  9  3  1  1  0  0  0
  9 11  1  0  0  0  0
 11 12  1  6  0  0  0
 12 13  1  6  0  0  0
 12 14  1  0  0  0  0
 14 21  1  6  0  0  0
 14 17  1  0  0  0  0
 15 17  2  0  0  0  0
 16 17  2  0  0  0  0
 17 18  1  0  0  0  0
 18 20  1  0  0  0  0
 18 19  2  0  0  0  0
 21 22  1  0  0  0  0
 22 24  1  0  0  0  0
 23 24  1  0  0  0  0
 25  4  1  0  0  0  0
 26 27  2  0  0  0  0
 26 25  1  0  0  0  0
 28 27  1  0  0  0  0
 28 29  1  0  0  0  0
 30 28  1  0  0  0  0
 30 29  1  0  0  0  0
M  END
>  <MODEL>
4

>  <REMARK>
 VINA RESULT:      -5.8      3.947      6.517
  Name = 
  10 active torsions:
  status: ('A' for Active; 'I' for Inactive)
    1  A    between atoms: C_1  and  C_4
    2  A    between atoms: C_1  and  C_29
    3  A    between atoms: C_4  and  O_5
    4  A    between atoms: C_4  and  S_12
    5  A    between atoms: O_5  and  C_21
    6  A    between atoms: C_10  and  C_25
    7  A    between atoms: N_11  and  C_24
    8  A    between atoms: S_12  and  C_13
    9  A    between atoms: C_15  and  C_24
   10  A    between atoms: C_17  and  C_21
                            x       y       z     vdW  Elec       q    Type
                         _______ _______ _______ _____ _____    ______ ____

>  <TORSDO>
F 10

$$$$
=
 OpenBabel10272414013D

 30 32  0  0  1  0  0  0  0  0999 V2000
  186.7050  177.0870  143.8930 C   0  0  2  0  0  3  0  0  0  0  0  0
  184.1180  178.9200  144.3500 C   0  0  2  0  0  3  0  0  0  0  0  0
  185.6320  180.1950  142.2630 O   0  0  0  0  0  1  0  0  0  0  0  0
  184.4240  178.2950  143.0510 N   0  0  0  0  0  0  0  0  0  0  0  0
  186.3890  177.6530  145.2760 C   0  0  0  0  0  2  0  0  0  0  0  0
  187.9180  176.1800  144.0460 C   0  0  0  0  0  1  0  0  0  0  0  0
  185.2010  179.7850  144.9870 C   0  0  0  0  0  2  0  0  0  0  0  0
  185.0350  178.3530  145.4390 C   0  0  1  0  0  0  0  0  0  0  0  0
  185.6070  178.7980  142.3290 C   0  0  2  0  0  3  0  0  0  0  0  0
  184.4880  178.3200  146.7210 O   0  0  0  0  0  1  0  0  0  0  0  0
  186.9310  178.2270  142.8700 C   0  0  2  0  0  3  0  0  0  0  0  0
  187.8570  177.8090  141.7090 C   0  0  1  0  0  3  0  0  0  0  0  0
  187.3510  178.2270  140.4760 O   0  0  0  0  0  1  0  0  0  0  0  0
  189.3240  178.2270  141.8670 C   0  0  2  0  0  3  0  0  0  0  0  0
  190.4190  175.8150  141.3770 O   0  0  0  0  0  0  0  0  0  0  0  0
  191.8250  177.7730  140.9790 O   0  0  0  0  0  0  0  0  0  0  0  0
  190.4270  177.2310  140.8720 S   0  0  0  0  0  0  0  0  0  0  0  0
  189.9250  177.2540  139.1870 C   0  0  0  0  0  0  0  0  0  0  0  0
  189.9460  176.1350  138.4700 C   0  0  0  0  0  2  0  0  0  0  0  0
  189.4480  178.7630  138.4260 Cl  0  0  0  0  0  0  0  0  0  0  0  0
  189.7230  178.2070  143.2060 O   0  0  0  0  0  0  0  0  0  0  0  0
  190.5580  179.3150  143.3480 C   0  0  0  0  0  2  0  0  0  0  0  0
  191.4210  177.3510  145.0210 S   0  0  0  0  0  1  0  0  0  0  0  0
  191.7380  178.9460  144.2220 C   0  0  0  0  0  2  0  0  0  0  0  0
  183.2600  178.4790  142.1980 C   0  0  0  0  0  2  0  0  0  0  0  0
  183.4140  177.6760  140.9500 C   0  0  0  0  0  3  0  0  0  0  0  0
  182.7360  178.0110  139.8580 C   0  0  0  0  0  3  0  0  0  0  0  0
  182.8890  177.2110  138.6100 C   0  0  0  0  0  3  0  0  0  0  0  0
  182.6030  178.0950  137.4140 C   0  0  0  0  0  2  0  0  0  0  0  0
  184.0320  177.7800  137.7950 C   0  0  0  0  0  2  0  0  0  0  0  0
  1  6  1  1  0  0  0
  1  5  1  0  0  0  0
  2  7  1  6  0  0  0
  2  8  1  0  0  0  0
  4  2  1  0  0  0  0
  5  8  1  0  0  0  0
  7  8  1  0  0  0  0
  8 10  1  1  0  0  0
  9  3  1  1  0  0  0
  9 11  1  0  0  0  0
  9  4  1  0  0  0  0
 11 12  1  6  0  0  0
 11  1  1  0  0  0  0
 12 13  1  6  0  0  0
 12 14  1  0  0  0  0
 14 21  1  1  0  0  0
 17 16  2  0  0  0  0
 17 15  2  0  0  0  0
 17 14  1  0  0  0  0
 18 17  1  0  0  0  0
 19 18  2  0  0  0  0
 20 18  1  0  0  0  0
 21 22  1  0  0  0  0
 22 24  1  0  0  0  0
 24 23  1  0  0  0  0
 25  4  1  0  0  0  0
 26 25  1  0  0  0  0
 27 26  2  0  0  0  0
 28 27  1  0  0  0  0
 29 30  1  0  0  0  0
 29 28  1  0  0  0  0
 30 28  1  0  0  0  0
M  END
>  <MODEL>
5

>  <REMARK>
 VINA RESULT:      -5.8      1.487      1.799
  Name = 
  10 active torsions:
  status: ('A' for Active; 'I' for Inactive)
    1  A    between atoms: C_1  and  C_4
    2  A    between atoms: C_1  and  C_29
    3  A    between atoms: C_4  and  O_5
    4  A    between atoms: C_4  and  S_12
    5  A    between atoms: O_5  and  C_21
    6  A    between atoms: C_10  and  C_25
    7  A    between atoms: N_11  and  C_24
    8  A    between atoms: S_12  and  C_13
    9  A    between atoms: C_15  and  C_24
   10  A    between atoms: C_17  and  C_21
                            x       y       z     vdW  Elec       q    Type
                         _______ _______ _______ _____ _____    ______ ____

>  <TORSDO>
F 10

$$$$
=
 OpenBabel10272414013D

 30 32  0  0  1  0  0  0  0  0999 V2000
  187.1650  178.5770  141.5850 C   0  0  2  0  0  3  0  0  0  0  0  0
  189.1410  177.1690  143.6740 C   0  0  2  0  0  3  0  0  0  0  0  0
  190.0680  176.3930  141.0640 O   0  0  0  0  0  1  0  0  0  0  0  0
  189.6180  178.1160  142.6510 N   0  0  0  0  0  0  0  0  0  0  0  0
  186.6160  177.6590  142.6740 C   0  0  0  0  0  2  0  0  0  0  0  0
  185.9680  179.1630  140.8480 C   0  0  0  0  0  1  0  0  0  0  0  0
  188.3240  175.9710  143.1990 C   0  0  0  0  0  2  0  0  0  0  0  0
  187.6110  177.1880  143.7420 C   0  0  1  0  0  0  0  0  0  0  0  0
  189.5420  177.6770  141.2470 C   0  0  2  0  0  3  0  0  0  0  0  0
  187.0650  176.9000  144.9920 O   0  0  0  0  0  1  0  0  0  0  0  0
  188.1290  177.8060  140.6500 C   0  0  2  0  0  3  0  0  0  0  0  0
  188.1910  178.4100  139.2310 C   0  0  1  0  0  3  0  0  0  0  0  0
  189.3510  179.1660  139.0480 O   0  0  0  0  0  1  0  0  0  0  0  0
  188.0110  177.4020  138.0900 C   0  0  2  0  0  3  0  0  0  0  0  0
  185.7340  178.7990  137.7350 O   0  0  0  0  0  0  0  0  0  0  0  0
  185.5410  176.3650  137.8220 O   0  0  0  0  0  0  0  0  0  0  0  0
  186.3900  177.5060  137.3380 S   0  0  0  0  0  0  0  0  0  0  0  0
  186.5200  177.4290  135.5860 C   0  0  0  0  0  0  0  0  0  0  0  0
  187.5250  178.0400  134.9650 C   0  0  0  0  0  2  0  0  0  0  0  0
  185.2950  176.5980  134.6430 Cl  0  0  0  0  0  0  0  0  0  0  0  0
  188.2690  176.0950  138.5120 O   0  0  0  0  0  0  0  0  0  0  0  0
  189.2990  175.6480  137.6850 C   0  0  0  0  0  2  0  0  0  0  0  0
  190.0990  173.4360  136.3180 S   0  0  0  0  0  1  0  0  0  0  0  0
  188.7650  174.5840  136.7480 C   0  0  0  0  0  2  0  0  0  0  0  0
  191.0080  178.4200  142.9580 C   0  0  0  0  0  2  0  0  0  0  0  0
  191.2200  178.3790  144.4340 C   0  0  0  0  0  3  0  0  0  0  0  0
  191.3940  177.2140  145.0480 C   0  0  0  0  0  3  0  0  0  0  0  0
  191.6060  177.1710  146.5220 C   0  0  0  0  0  3  0  0  0  0  0  0
  190.5750  176.2530  147.1470 C   0  0  0  0  0  2  0  0  0  0  0  0
  191.9890  175.7630  146.9250 C   0  0  0  0  0  2  0  0  0  0  0  0
  1  6  1  6  0  0  0
  1  5  1  0  0  0  0
  2  7  1  6  0  0  0
  2  8  1  0  0  0  0
  4 25  1  0  0  0  0
  4  2  1  0  0  0  0
  5  8  1  0  0  0  0
  7  8  1  0  0  0  0
  8 10  1  1  0  0  0
  9  3  1  1  0  0  0
  9  4  1  0  0  0  0
 11 12  1  6  0  0  0
 11  9  1  0  0  0  0
 11  1  1  0  0  0  0
 12 13  1  6  0  0  0
 14 21  1  1  0  0  0
 14 12  1  0  0  0  0
 17 15  2  0  0  0  0
 17 16  2  0  0  0  0
 17 14  1  0  0  0  0
 18 17  1  0  0  0  0
 19 18  2  0  0  0  0
 20 18  1  0  0  0  0
 22 21  1  0  0  0  0
 23 24  1  0  0  0  0
 24 22  1  0  0  0  0
 25 26  1  0  0  0  0
 26 27  2  0  0  0  0
 27 28  1  0  0  0  0
 28 30  1  0  0  0  0
 28 29  1  0  0  0  0
 30 29  1  0  0  0  0
M  END
>  <MODEL>
6

>  <REMARK>
 VINA RESULT:      -5.7      3.813      7.272
  Name = 
  10 active torsions:
  status: ('A' for Active; 'I' for Inactive)
    1  A    between atoms: C_1  and  C_4
    2  A    between atoms: C_1  and  C_29
    3  A    between atoms: C_4  and  O_5
    4  A    between atoms: C_4  and  S_12
    5  A    between atoms: O_5  and  C_21
    6  A    between atoms: C_10  and  C_25
    7  A    between atoms: N_11  and  C_24
    8  A    between atoms: S_12  and  C_13
    9  A    between atoms: C_15  and  C_24
   10  A    between atoms: C_17  and  C_21
                            x       y       z     vdW  Elec       q    Type
                         _______ _______ _______ _____ _____    ______ ____

>  <TORSDO>
F 10

$$$$
=
 OpenBabel10272414013D

 30 32  0  0  1  0  0  0  0  0999 V2000
  185.4470  179.3470  144.5630 C   0  0  2  0  0  3  0  0  0  0  0  0
  187.9180  177.5420  145.5090 C   0  0  2  0  0  3  0  0  0  0  0  0
  187.2470  176.6370  142.8630 O   0  0  0  0  0  1  0  0  0  0  0  0
  187.9750  178.3920  144.3060 N   0  0  0  0  0  0  0  0  0  0  0  0
  185.3670  178.5400  145.8570 C   0  0  0  0  0  2  0  0  0  0  0  0
  184.1700  180.1700  144.4690 C   0  0  0  0  0  1  0  0  0  0  0  0
  186.7730  176.5390  145.6090 C   0  0  0  0  0  2  0  0  0  0  0  0
  186.6620  177.8640  146.3260 C   0  0  1  0  0  0  0  0  0  0  0  0
  187.1250  177.9970  143.1690 C   0  0  2  0  0  3  0  0  0  0  0  0
  186.7790  177.6720  147.7010 O   0  0  0  0  0  1  0  0  0  0  0  0
  185.6520  178.4140  143.3440 C   0  0  2  0  0  3  0  0  0  0  0  0
  185.0980  179.0150  142.0350 C   0  0  1  0  0  3  0  0  0  0  0  0
  186.0010  179.9140  141.4630 O   0  0  0  0  0  1  0  0  0  0  0  0
  184.6220  177.9870  141.0010 C   0  0  2  0  0  3  0  0  0  0  0  0
  186.3160  178.4120  138.9500 O   0  0  0  0  0  0  0  0  0  0  0  0
  184.4760  179.9960  139.2150 O   0  0  0  0  0  0  0  0  0  0  0  0
  184.8660  178.5490  139.3210 S   0  0  0  0  0  0  0  0  0  0  0  0
  183.8870  177.6020  138.2090 C   0  0  0  0  0  0  0  0  0  0  0  0
  184.4640  176.7240  137.3940 C   0  0  0  0  0  2  0  0  0  0  0  0
  182.1510  177.8510  138.1250 Cl  0  0  0  0  0  0  0  0  0  0  0  0
  183.2860  177.6310  141.2070 O   0  0  0  0  0  0  0  0  0  0  0  0
  182.6790  178.7870  141.6980 C   0  0  0  0  0  2  0  0  0  0  0  0
  180.4180  178.8050  143.2110 S   0  0  0  0  0  1  0  0  0  0  0  0
  181.1760  178.6570  141.5720 C   0  0  0  0  0  2  0  0  0  0  0  0
  189.3580  178.4080  143.8550 C   0  0  0  0  0  2  0  0  0  0  0  0
  190.2720  178.2370  145.0210 C   0  0  0  0  0  3  0  0  0  0  0  0
  190.9010  177.0810  145.2070 C   0  0  0  0  0  3  0  0  0  0  0  0
  191.8150  176.9080  146.3710 C   0  0  0  0  0  3  0  0  0  0  0  0
  191.0850  176.1640  147.4710 C   0  0  0  0  0  2  0  0  0  0  0  0
  192.0670  175.4310  146.5850 C   0  0  0  0  0  2  0  0  0  0  0  0
  1  6  1  6  0  0  0
  1  5  1  0  0  0  0
  2  7  1  6  0  0  0
  2  8  1  0  0  0  0
  4  2  1  0  0  0  0
  5  8  1  0  0  0  0
  7  8  1  0  0  0  0
  8 10  1  1  0  0  0
  9  3  1  1  0  0  0
  9 11  1  0  0  0  0
  9  4  1  0  0  0  0
 11 12  1  6  0  0  0
 11  1  1  0  0  0  0
 12 13  1  6  0  0  0
 14 21  1  1  0  0  0
 14 12  1  0  0  0  0
 15 17  2  0  0  0  0
 16 17  2  0  0  0  0
 17 14  1  0  0  0  0
 18 17  1  0  0  0  0
 19 18  2  0  0  0  0
 20 18  1  0  0  0  0
 21 22  1  0  0  0  0
 24 22  1  0  0  0  0
 24 23  1  0  0  0  0
 25  4  1  0  0  0  0
 25 26  1  0  0  0  0
 26 27  2  0  0  0  0
 27 28  1  0  0  0  0
 28 30  1  0  0  0  0
 28 29  1  0  0  0  0
 30 29  1  0  0  0  0
M  END
>  <MODEL>
7

>  <REMARK>
 VINA RESULT:      -5.6      3.527      7.275
  Name = 
  10 active torsions:
  status: ('A' for Active; 'I' for Inactive)
    1  A    between atoms: C_1  and  C_4
    2  A    between atoms: C_1  and  C_29
    3  A    between atoms: C_4  and  O_5
    4  A    between atoms: C_4  and  S_12
    5  A    between atoms: O_5  and  C_21
    6  A    between atoms: C_10  and  C_25
    7  A    between atoms: N_11  and  C_24
    8  A    between atoms: S_12  and  C_13
    9  A    between atoms: C_15  and  C_24
   10  A    between atoms: C_17  and  C_21
                            x       y       z     vdW  Elec       q    Type
                         _______ _______ _______ _____ _____    ______ ____

>  <TORSDO>
F 10

$$$$
=
 OpenBabel10272414013D

 30 32  0  0  1  0  0  0  0  0999 V2000
  190.8220  176.8550  140.7090 C   0  0  2  0  0  3  0  0  0  0  0  0
  189.5990  177.8380  143.5010 C   0  0  2  0  0  3  0  0  0  0  0  0
  187.8340  178.8480  141.4670 O   0  0  0  0  0  1  0  0  0  0  0  0
  188.8440  176.9860  142.5650 N   0  0  0  0  0  0  0  0  0  0  0  0
  191.6670  177.6750  141.6810 C   0  0  0  0  0  2  0  0  0  0  0  0
  191.7270  176.4600  139.5510 C   0  0  0  0  0  1  0  0  0  0  0  0
  190.1700  179.1460  142.9610 C   0  0  0  0  0  2  0  0  0  0  0  0
  191.0650  177.9330  143.0670 C   0  0  1  0  0  0  0  0  0  0  0  0
  188.4360  177.5970  141.2870 C   0  0  2  0  0  3  0  0  0  0  0  0
  191.9830  178.1100  144.1010 O   0  0  0  0  0  1  0  0  0  0  0  0
  189.5760  177.6540  140.2540 C   0  0  2  0  0  3  0  0  0  0  0  0
  189.0700  177.2240  138.8610 C   0  0  1  0  0  3  0  0  0  0  0  0
  187.8220  176.6000  138.9410 O   0  0  0  0  0  1  0  0  0  0  0  0
  189.0570  178.3350  137.8050 C   0  0  2  0  0  3  0  0  0  0  0  0
  187.3740  180.0560  136.5950 O   0  0  0  0  0  0  0  0  0  0  0  0
  186.4360  178.6300  138.3420 O   0  0  0  0  0  0  0  0  0  0  0  0
  187.4090  178.6800  137.1990 S   0  0  0  0  0  0  0  0  0  0  0  0
  186.9400  177.4970  135.9860 C   0  0  0  0  0  0  0  0  0  0  0  0
  187.0630  177.7830  134.6940 C   0  0  0  0  0  2  0  0  0  0  0  0
  186.2530  175.9560  136.4710 Cl  0  0  0  0  0  0  0  0  0  0  0  0
  189.9150  178.0420  136.7410 O   0  0  0  0  0  0  0  0  0  0  0  0
  190.0450  176.6540  136.7560 C   0  0  0  0  0  2  0  0  0  0  0  0
  192.1130  175.3900  135.5210 S   0  0  0  0  0  1  0  0  0  0  0  0
  190.4860  176.1750  135.3890 C   0  0  0  0  0  2  0  0  0  0  0  0
  187.6460  176.5380  143.2580 C   0  0  0  0  0  2  0  0  0  0  0  0
  187.3220  177.4810  144.3670 C   0  0  0  0  0  3  0  0  0  0  0  0
  186.1110  178.0220  144.4460 C   0  0  0  0  0  3  0  0  0  0  0  0
  185.7840  178.9640  145.5530 C   0  0  0  0  0  3  0  0  0  0  0  0
  184.6190  178.4120  146.3490 C   0  0  0  0  0  2  0  0  0  0  0  0
  186.0290  178.2730  146.8780 C   0  0  0  0  0  2  0  0  0  0  0  0
  1  6  1  6  0  0  0
  1  5  1  0  0  0  0
  2  7  1  6  0  0  0
  4 25  1  0  0  0  0
  4  2  1  0  0  0  0
  5  8  1  0  0  0  0
  7  8  1  0  0  0  0
  8  2  1  0  0  0  0
  8 10  1  1  0  0  0
  9  3  1  1  0  0  0
  9  4  1  0  0  0  0
 11 12  1  6  0  0  0
 11  1  1  0  0  0  0
 11  9  1  0  0  0  0
 12 13  1  1  0  0  0
 14 21  1  6  0  0  0
 14 12  1  0  0  0  0
 15 17  2  0  0  0  0
 17 14  1  0  0  0  0
 17 16  2  0  0  0  0
 18 20  1  0  0  0  0
 18 17  1  0  0  0  0
 19 18  2  0  0  0  0
 21 22  1  0  0  0  0
 24 23  1  0  0  0  0
 24 22  1  0  0  0  0
 25 26  1  0  0  0  0
 26 27  2  0  0  0  0
 27 28  1  0  0  0  0
 28 29  1  0  0  0  0
 28 30  1  0  0  0  0
 29 30  1  0  0  0  0
M  END
>  <MODEL>
8

>  <REMARK>
 VINA RESULT:      -5.5      3.983      6.636
  Name = 
  10 active torsions:
  status: ('A' for Active; 'I' for Inactive)
    1  A    between atoms: C_1  and  C_4
    2  A    between atoms: C_1  and  C_29
    3  A    between atoms: C_4  and  O_5
    4  A    between atoms: C_4  and  S_12
    5  A    between atoms: O_5  and  C_21
    6  A    between atoms: C_10  and  C_25
    7  A    between atoms: N_11  and  C_24
    8  A    between atoms: S_12  and  C_13
    9  A    between atoms: C_15  and  C_24
   10  A    between atoms: C_17  and  C_21
                            x       y       z     vdW  Elec       q    Type
                         _______ _______ _______ _____ _____    ______ ____

>  <TORSDO>
F 10

$$$$
=
 OpenBabel10272414013D

 30 32  0  0  1  0  0  0  0  0999 V2000
  187.4560  175.9230  137.5070 C   0  0  2  0  0  3  0  0  0  0  0  0
  190.1660  176.8360  138.9500 C   0  0  2  0  0  3  0  0  0  0  0  0
  189.0280  179.2250  137.8220 O   0  0  0  0  0  1  0  0  0  0  0  0
  188.8480  177.3810  139.3250 N   0  0  0  0  0  0  0  0  0  0  0  0
  188.7890  175.2770  137.1360 C   0  0  0  0  0  2  0  0  0  0  0  0
  186.3720  175.1900  136.7300 C   0  0  0  0  0  1  0  0  0  0  0  0
  190.5750  176.9290  137.4840 C   0  0  0  0  0  2  0  0  0  0  0  0
  189.9950  175.6380  138.0110 C   0  0  1  0  0  0  0  0  0  0  0  0
  188.1760  178.2410  138.3360 C   0  0  2  0  0  3  0  0  0  0  0  0
  190.9930  174.6680  138.0950 O   0  0  0  0  0  1  0  0  0  0  0  0
  187.4820  177.4440  137.2160 C   0  0  2  0  0  3  0  0  0  0  0  0
  186.0790  178.0180  136.9280 C   0  0  1  0  0  3  0  0  0  0  0  0
  185.5170  177.4450  135.7840 O   0  0  0  0  0  1  0  0  0  0  0  0
  185.1000  177.9550  138.1060 C   0  0  2  0  0  3  0  0  0  0  0  0
  183.3920  177.4240  136.0910 O   0  0  0  0  0  0  0  0  0  0  0  0
  182.5050  178.6660  137.9990 O   0  0  0  0  0  0  0  0  0  0  0  0
  183.4340  177.5590  137.5880 S   0  0  0  0  0  0  0  0  0  0  0  0
  182.9030  176.0540  138.3250 C   0  0  0  0  0  0  0  0  0  0  0  0
  182.5130  176.0360  139.5960 C   0  0  0  0  0  2  0  0  0  0  0  0
  182.9410  174.5570  137.4080 Cl  0  0  0  0  0  0  0  0  0  0  0  0
  185.1100  179.1410  138.8470 O   0  0  0  0  0  0  0  0  0  0  0  0
  185.3670  178.7420  140.1580 C   0  0  0  0  0  2  0  0  0  0  0  0
  184.4680  178.4570  142.7100 S   0  0  0  0  0  1  0  0  0  0  0  0
  184.1360  178.9790  141.0070 C   0  0  0  0  0  2  0  0  0  0  0  0
  189.0310  178.1500  140.5470 C   0  0  0  0  0  2  0  0  0  0  0  0
  188.6350  177.3280  141.7260 C   0  0  0  0  0  3  0  0  0  0  0  0
  188.9920  177.7060  142.9490 C   0  0  0  0  0  3  0  0  0  0  0  0
  188.5980  176.8860  144.1290 C   0  0  0  0  0  3  0  0  0  0  0  0
  188.9210  177.6500  145.3960 C   0  0  0  0  0  2  0  0  0  0  0  0
  187.4990  177.6030  144.8840 C   0  0  0  0  0  2  0  0  0  0  0  0
  1  6  1  6  0  0  0
  2  7  1  6  0  0  0
  2  4  1  0  0  0  0
  4 25  1  0  0  0  0
  5  1  1  0  0  0  0
  5  8  1  0  0  0  0
  7  8  1  0  0  0  0
  8 10  1  1  0  0  0
  8  2  1  0  0  0  0
  9  3  1  6  0  0  0
  9  4  1  0  0  0  0
 11 12  1  1  0  0  0
 11  1  1  0  0  0  0
 11  9  1  0  0  0  0
 12 13  1  6  0  0  0
 12 14  1  0  0  0  0
 14 21  1  6  0  0  0
 15 17  2  0  0  0  0
 17 16  2  0  0  0  0
 17 14  1  0  0  0  0
 17 18  1  0  0  0  0
 18 19  2  0  0  0  0
 20 18  1  0  0  0  0
 21 22  1  0  0  0  0
 22 24  1  0  0  0  0
 24 23  1  0  0  0  0
 25 26  1  0  0  0  0
 26 27  2  0  0  0  0
 27 28  1  0  0  0  0
 28 30  1  0  0  0  0
 28 29  1  0  0  0  0
 30 29  1  0  0  0  0
M  END
>  <MODEL>
9

>  <REMARK>
 VINA RESULT:      -5.5      4.018      7.948
  Name = 
  10 active torsions:
  status: ('A' for Active; 'I' for Inactive)
    1  A    between atoms: C_1  and  C_4
    2  A    between atoms: C_1  and  C_29
    3  A    between atoms: C_4  and  O_5
    4  A    between atoms: C_4  and  S_12
    5  A    between atoms: O_5  and  C_21
    6  A    between atoms: C_10  and  C_25
    7  A    between atoms: N_11  and  C_24
    8  A    between atoms: S_12  and  C_13
    9  A    between atoms: C_15  and  C_24
   10  A    between atoms: C_17  and  C_21
                            x       y       z     vdW  Elec       q    Type
                         _______ _______ _______ _____ _____    ______ ____

>  <TORSDO>
F 10

$$$$
