=
 OpenBabel10272401593D

 28 31  0  0  1  0  0  0  0  0999 V2000
  188.6620  177.6060  142.8260 C   0  0  1  0  0  3  0  0  0  0  0  0
  187.4750  176.1580  136.8440 C   0  0  1  0  0  3  0  0  0  0  0  0
  192.7020  177.4110  139.3470 S   0  0  0  0  0  1  0  0  0  0  0  0
  187.9090  178.4380  137.2560 C   0  0  2  0  0  3  0  0  0  0  0  0
  188.5910  176.7210  139.0550 C   0  0  2  0  0  3  0  0  0  0  0  0
  187.0270  177.0470  135.6980 C   0  0  1  0  0  3  0  0  0  0  0  0
  187.5850  177.1280  137.9710 C   0  0  2  0  0  3  0  0  0  0  0  0
  190.0120  178.5460  138.1400 C   0  0  0  0  0  2  0  0  0  0  0  0
  187.1870  178.4100  136.0480 O   0  0  0  0  0  0  0  0  0  0  0  0
  190.5490  177.5380  141.1280 C   0  0  2  0  0  3  0  0  0  0  0  0
  188.1760  177.3900  140.3660 C   0  0  0  0  0  2  0  0  0  0  0  0
  189.2820  178.5680  136.9430 O   0  0  0  0  0  0  0  0  0  0  0  0
  191.0540  177.9050  143.5440 C   0  0  0  0  0  2  0  0  0  0  0  0
  191.0180  176.8840  139.8200 C   0  0  1  0  0  3  0  0  0  0  0  0
  191.5180  177.2220  142.2660 C   0  0  0  0  0  2  0  0  0  0  0  0
  187.8320  176.7340  134.4500 C   0  0  0  0  0  1  0  0  0  0  0  0
  186.4060  175.1270  137.1490 C   0  0  0  0  0  1  0  0  0  0  0  0
  190.0250  177.1130  138.6660 C   0  0  1  0  0  3  0  0  0  0  0  0
  189.6820  177.3730  143.9410 C   0  0  0  0  0  2  0  0  0  0  0  0
  189.1440  177.0240  141.4840 C   0  0  2  0  0  3  0  0  0  0  0  0
  187.2880  177.0670  143.2470 C   0  0  0  0  0  2  0  0  0  0  0  0
  186.3410  178.1350  143.5650 N   0  0  0  0  0  0  0  0  0  0  0  0
  186.2590  177.5170  145.8200 O   0  0  0  0  0  0  0  0  0  0  0  0
  185.8510  178.2870  144.9060 C   0  0  0  0  0  0  0  0  0  0  0  0
  184.9160  179.2830  145.1980 O   0  0  0  0  0  0  0  0  0  0  0  0
  183.5200  179.0280  145.1940 C   0  0  0  0  0  1  0  0  0  0  0  0
  185.7720  178.9270  142.4810 C   0  0  0  0  0  2  0  0  0  0  0  0
  184.6220  178.1810  141.8280 C   0  0  0  0  0  1  0  0  0  0  0  0
  1 21  1  1  0  0  0
  1 19  1  0  0  0  0
  2 17  1  1  0  0  0
  2  7  1  0  0  0  0
  3 14  1  0  0  0  0
  4  9  1  6  0  0  0
  4  7  1  0  0  0  0
  5 11  1  1  0  0  0
  6 16  1  6  0  0  0
  6  9  1  0  0  0  0
  6  2  1  0  0  0  0
  7  5  1  0  0  0  0
  8 18  1  0  0  0  0
 10 20  1  0  0  0  0
 10 15  1  0  0  0  0
 11 20  1  0  0  0  0
 12  4  1  0  0  0  0
 12  8  1  0  0  0  0
 13 19  1  0  0  0  0
 14 10  1  0  0  0  0
 15 13  1  0  0  0  0
 18  5  1  0  0  0  0
 18 14  1  0  0  0  0
 20  1  1  0  0  0  0
 21 22  1  0  0  0  0
 22 24  1  0  0  0  0
 24 25  1  0  0  0  0
 24 23  2  0  0  0  0
 26 25  1  0  0  0  0
 27 22  1  0  0  0  0
 28 27  1  0  0  0  0
M  END
>  <MODEL>
1

>  <REMARK>
 VINA RESULT:      -6.2      0.000      0.000
  Name = 
  4 active torsions:
  status: ('A' for Active; 'I' for Inactive)
    1  A    between atoms: C_1  and  C_2
    2  A    between atoms: C_2  and  N_3
    3  A    between atoms: N_3  and  C_7
    4  A    between atoms: O_6  and  C_11
                            x       y       z     vdW  Elec       q    Type
                         _______ _______ _______ _____ _____    ______ ____

>  <TORSDO>
F 4

$$$$
=
 OpenBabel10272401593D

 28 31  0  0  1  0  0  0  0  0999 V2000
  184.5500  178.4240  142.1240 C   0  0  1  0  0  3  0  0  0  0  0  0
  187.9670  178.4010  136.8690 C   0  0  1  0  0  3  0  0  0  0  0  0
  182.0760  178.0090  137.4160 S   0  0  0  0  0  1  0  0  0  0  0  0
  187.1220  176.3000  137.5240 C   0  0  2  0  0  3  0  0  0  0  0  0
  186.0740  178.4150  138.5620 C   0  0  2  0  0  3  0  0  0  0  0  0
  188.6740  177.2520  136.1740 C   0  0  1  0  0  3  0  0  0  0  0  0
  187.3380  177.7220  138.0380 C   0  0  2  0  0  3  0  0  0  0  0  0
  184.8470  176.4990  137.5560 C   0  0  0  0  0  2  0  0  0  0  0  0
  188.2240  176.0150  136.6970 O   0  0  0  0  0  0  0  0  0  0  0  0
  183.4170  178.1910  139.8630 C   0  0  2  0  0  3  0  0  0  0  0  0
  185.9040  178.0460  140.0360 C   0  0  0  0  0  2  0  0  0  0  0  0
  185.9460  176.1680  136.7500 O   0  0  0  0  0  0  0  0  0  0  0  0
  182.0420  178.4130  141.9330 C   0  0  0  0  0  2  0  0  0  0  0  0
  183.5340  178.5490  138.3740 C   0  0  1  0  0  3  0  0  0  0  0  0
  182.1560  178.8060  140.4680 C   0  0  0  0  0  2  0  0  0  0  0  0
  188.4140  177.3080  134.6800 C   0  0  0  0  0  1  0  0  0  0  0  0
  188.9810  179.4210  137.3460 C   0  0  0  0  0  1  0  0  0  0  0  0
  184.8340  178.0140  137.7480 C   0  0  1  0  0  3  0  0  0  0  0  0
  183.2390  178.9560  142.7050 C   0  0  0  0  0  2  0  0  0  0  0  0
  184.6570  178.7050  140.6140 C   0  0  2  0  0  3  0  0  0  0  0  0
  185.7410  178.9790  142.9160 C   0  0  0  0  0  2  0  0  0  0  0  0
  186.2630  178.0190  143.8880 N   0  0  0  0  0  0  0  0  0  0  0  0
  185.2590  179.1440  145.6770 O   0  0  0  0  0  0  0  0  0  0  0  0
  185.9820  178.1850  145.2870 C   0  0  0  0  0  0  0  0  0  0  0  0
  186.5150  177.2880  146.2160 O   0  0  0  0  0  0  0  0  0  0  0  0
  187.5380  177.6670  147.1240 C   0  0  0  0  0  1  0  0  0  0  0  0
  187.2070  176.9990  143.4450 C   0  0  0  0  0  2  0  0  0  0  0  0
  188.4080  177.6450  142.7790 C   0  0  0  0  0  1  0  0  0  0  0  0
  1 19  1  0  0  0  0
  1 21  1  1  0  0  0
  2 17  1  1  0  0  0
  2  7  1  0  0  0  0
  3 14  1  0  0  0  0
  4  9  1  6  0  0  0
  4  7  1  0  0  0  0
  5 11  1  1  0  0  0
  6 16  1  6  0  0  0
  6  9  1  0  0  0  0
  6  2  1  0  0  0  0
  7  5  1  0  0  0  0
  8 18  1  0  0  0  0
 10 15  1  0  0  0  0
 10 20  1  0  0  0  0
 11 20  1  0  0  0  0
 12  4  1  0  0  0  0
 12  8  1  0  0  0  0
 13 19  1  0  0  0  0
 14 10  1  0  0  0  0
 15 13  1  0  0  0  0
 18 14  1  0  0  0  0
 18  5  1  0  0  0  0
 20  1  1  0  0  0  0
 21 22  1  0  0  0  0
 22 24  1  0  0  0  0
 24 23  2  0  0  0  0
 24 25  1  0  0  0  0
 25 26  1  0  0  0  0
 27 22  1  0  0  0  0
 28 27  1  0  0  0  0
M  END
>  <MODEL>
2

>  <REMARK>
 VINA RESULT:      -6.1      2.758      4.986
  Name = 
  4 active torsions:
  status: ('A' for Active; 'I' for Inactive)
    1  A    between atoms: C_1  and  C_2
    2  A    between atoms: C_2  and  N_3
    3  A    between atoms: N_3  and  C_7
    4  A    between atoms: O_6  and  C_11
                            x       y       z     vdW  Elec       q    Type
                         _______ _______ _______ _____ _____    ______ ____

>  <TORSDO>
F 4

$$$$
=
 OpenBabel10272401593D

 28 31  0  0  1  0  0  0  0  0999 V2000
  184.7920  178.9090  142.1730 C   0  0  1  0  0  3  0  0  0  0  0  0
  190.0560  176.1210  144.1250 C   0  0  1  0  0  3  0  0  0  0  0  0
  185.4370  177.9250  147.3770 S   0  0  0  0  0  1  0  0  0  0  0  0
  189.9300  178.4360  144.5540 C   0  0  2  0  0  3  0  0  0  0  0  0
  187.7520  177.1800  143.9780 C   0  0  2  0  0  3  0  0  0  0  0  0
  191.4100  176.7230  144.4550 C   0  0  1  0  0  3  0  0  0  0  0  0
  189.2610  177.3250  143.7460 C   0  0  2  0  0  3  0  0  0  0  0  0
  188.0950  178.7490  145.8780 C   0  0  0  0  0  2  0  0  0  0  0  0
  191.3030  178.1300  144.5730 O   0  0  0  0  0  0  0  0  0  0  0  0
  185.1580  178.4550  144.6450 C   0  0  2  0  0  3  0  0  0  0  0  0
  187.0290  178.1320  143.0240 C   0  0  0  0  0  2  0  0  0  0  0  0
  189.4730  178.4920  145.8920 O   0  0  0  0  0  0  0  0  0  0  0  0
  182.9760  179.3700  143.8510 C   0  0  0  0  0  2  0  0  0  0  0  0
  185.8520  177.5190  145.6450 C   0  0  1  0  0  3  0  0  0  0  0  0
  183.6420  178.4120  144.8280 C   0  0  0  0  0  2  0  0  0  0  0  0
  191.9400  176.1320  145.7490 C   0  0  0  0  0  1  0  0  0  0  0  0
  190.1790  175.1870  142.9380 C   0  0  0  0  0  1  0  0  0  0  0  0
  187.3770  177.4740  145.4380 C   0  0  1  0  0  3  0  0  0  0  0  0
  183.2830  178.9410  142.4220 C   0  0  0  0  0  2  0  0  0  0  0  0
  185.5200  178.0350  143.2100 C   0  0  2  0  0  3  0  0  0  0  0  0
  185.0790  178.4790  140.7290 C   0  0  0  0  0  2  0  0  0  0  0  0
  183.8720  178.4430  139.9040 N   0  0  0  0  0  0  0  0  0  0  0  0
  184.3200  180.5500  138.9920 O   0  0  0  0  0  0  0  0  0  0  0  0
  183.5480  179.5530  139.0530 C   0  0  0  0  0  0  0  0  0  0  0  0
  182.3730  179.5310  138.2960 O   0  0  0  0  0  0  0  0  0  0  0  0
  181.3120  180.4440  138.5300 C   0  0  0  0  0  1  0  0  0  0  0  0
  182.9200  177.3530  140.0840 C   0  0  0  0  0  2  0  0  0  0  0  0
  183.1820  176.2500  139.0730 C   0  0  0  0  0  1  0  0  0  0  0  0
  1 21  1  6  0  0  0
  1 19  1  0  0  0  0
  1 20  1  0  0  0  0
  2 17  1  6  0  0  0
  2  6  1  0  0  0  0
  4  9  1  1  0  0  0
  4 12  1  0  0  0  0
  5 11  1  6  0  0  0
  5 18  1  0  0  0  0
  6  9  1  0  0  0  0
  6 16  1  1  0  0  0
  7  5  1  0  0  0  0
  7  2  1  0  0  0  0
  7  4  1  0  0  0  0
  8 12  1  0  0  0  0
 10 15  1  0  0  0  0
 10 14  1  0  0  0  0
 11 20  1  0  0  0  0
 13 15  1  0  0  0  0
 14  3  1  0  0  0  0
 18 14  1  0  0  0  0
 18  8  1  0  0  0  0
 19 13  1  0  0  0  0
 20 10  1  0  0  0  0
 22 27  1  0  0  0  0
 22 21  1  0  0  0  0
 23 24  2  0  0  0  0
 24 22  1  0  0  0  0
 25 26  1  0  0  0  0
 25 24  1  0  0  0  0
 28 27  1  0  0  0  0
M  END
>  <MODEL>
3

>  <REMARK>
 VINA RESULT:      -6.1      4.178      7.244
  Name = 
  4 active torsions:
  status: ('A' for Active; 'I' for Inactive)
    1  A    between atoms: C_1  and  C_2
    2  A    between atoms: C_2  and  N_3
    3  A    between atoms: N_3  and  C_7
    4  A    between atoms: O_6  and  C_11
                            x       y       z     vdW  Elec       q    Type
                         _______ _______ _______ _____ _____    ______ ____

>  <TORSDO>
F 4

$$$$
=
 OpenBabel10272401593D

 28 31  0  0  1  0  0  0  0  0999 V2000
  188.3470  177.8170  140.8590 C   0  0  1  0  0  3  0  0  0  0  0  0
  192.3060  175.7540  136.4580 C   0  0  1  0  0  3  0  0  0  0  0  0
  186.5590  177.0990  135.8840 S   0  0  0  0  0  1  0  0  0  0  0  0
  190.7780  174.1490  137.2640 C   0  0  2  0  0  3  0  0  0  0  0  0
  190.2860  176.6400  137.7190 C   0  0  2  0  0  3  0  0  0  0  0  0
  192.7210  174.3360  136.1120 C   0  0  1  0  0  3  0  0  0  0  0  0
  191.3410  175.5350  137.5740 C   0  0  2  0  0  3  0  0  0  0  0  0
  188.6910  174.9590  136.8130 C   0  0  0  0  0  2  0  0  0  0  0  0
  191.8480  173.4080  136.7290 O   0  0  0  0  0  0  0  0  0  0  0  0
  187.5310  177.4250  138.4870 C   0  0  2  0  0  3  0  0  0  0  0  0
  189.8040  176.6520  139.1690 C   0  0  0  0  0  2  0  0  0  0  0  0
  189.7400  174.1800  136.3040 O   0  0  0  0  0  0  0  0  0  0  0  0
  186.0090  178.4460  140.1800 C   0  0  0  0  0  2  0  0  0  0  0  0
  187.9620  177.4130  137.0120 C   0  0  1  0  0  3  0  0  0  0  0  0
  186.4440  178.4730  138.7230 C   0  0  0  0  0  2  0  0  0  0  0  0
  192.7060  174.1420  134.6070 C   0  0  0  0  0  1  0  0  0  0  0  0
  193.5040  176.5380  136.9550 C   0  0  0  0  0  1  0  0  0  0  0  0
  189.1120  176.4260  136.7500 C   0  0  1  0  0  3  0  0  0  0  0  0
  187.1920  178.7950  141.0750 C   0  0  0  0  0  2  0  0  0  0  0  0
  188.7490  177.7310  139.3750 C   0  0  2  0  0  3  0  0  0  0  0  0
  189.5260  178.1830  141.7710 C   0  0  0  0  0  2  0  0  0  0  0  0
  189.7340  177.2040  142.8370 N   0  0  0  0  0  0  0  0  0  0  0  0
  192.0070  177.7340  143.0050 O   0  0  0  0  0  0  0  0  0  0  0  0
  191.0420  177.0250  143.4040 C   0  0  0  0  0  0  0  0  0  0  0  0
  191.2460  176.0610  144.3950 O   0  0  0  0  0  0  0  0  0  0  0  0
  191.6560  176.4080  145.7080 C   0  0  0  0  0  1  0  0  0  0  0  0
  188.6490  176.2970  143.1930 C   0  0  0  0  0  2  0  0  0  0  0  0
  187.8060  176.8940  144.3070 C   0  0  0  0  0  1  0  0  0  0  0  0
  1 19  1  0  0  0  0
  1 21  1  1  0  0  0
  2 17  1  1  0  0  0
  2  7  1  0  0  0  0
  3 14  1  0  0  0  0
  4 12  1  6  0  0  0
  4  7  1  0  0  0  0
  5 11  1  1  0  0  0
  6 16  1  6  0  0  0
  6  2  1  0  0  0  0
  6  9  1  0  0  0  0
  7  5  1  0  0  0  0
  9  4  1  0  0  0  0
 10 15  1  0  0  0  0
 10 20  1  0  0  0  0
 11 20  1  0  0  0  0
 12  8  1  0  0  0  0
 13 19  1  0  0  0  0
 14 10  1  0  0  0  0
 15 13  1  0  0  0  0
 18  8  1  0  0  0  0
 18 14  1  0  0  0  0
 18  5  1  0  0  0  0
 20  1  1  0  0  0  0
 21 22  1  0  0  0  0
 22 27  1  0  0  0  0
 22 24  1  0  0  0  0
 23 24  2  0  0  0  0
 24 25  1  0  0  0  0
 25 26  1  0  0  0  0
 27 28  1  0  0  0  0
M  END
>  <MODEL>
4

>  <REMARK>
 VINA RESULT:      -6.1      3.361      5.088
  Name = 
  4 active torsions:
  status: ('A' for Active; 'I' for Inactive)
    1  A    between atoms: C_1  and  C_2
    2  A    between atoms: C_2  and  N_3
    3  A    between atoms: N_3  and  C_7
    4  A    between atoms: O_6  and  C_11
                            x       y       z     vdW  Elec       q    Type
                         _______ _______ _______ _____ _____    ______ ____

>  <TORSDO>
F 4

$$$$
=
 OpenBabel10272401593D

 28 31  0  0  1  0  0  0  0  0999 V2000
  191.0360  177.2520  138.4620 C   0  0  1  0  0  3  0  0  0  0  0  0
  191.1590  175.9650  144.5960 C   0  0  1  0  0  3  0  0  0  0  0  0
  186.7700  178.4140  141.4490 S   0  0  0  0  0  1  0  0  0  0  0  0
  191.4220  178.2420  144.0440 C   0  0  2  0  0  3  0  0  0  0  0  0
  190.4750  176.6520  142.2480 C   0  0  2  0  0  3  0  0  0  0  0  0
  191.7190  176.7780  145.7490 C   0  0  1  0  0  3  0  0  0  0  0  0
  191.4390  176.8450  143.4250 C   0  0  2  0  0  3  0  0  0  0  0  0
  189.5340  178.8560  142.9150 C   0  0  0  0  0  2  0  0  0  0  0  0
  191.9820  178.1040  145.3280 O   0  0  0  0  0  0  0  0  0  0  0  0
  189.0430  177.8220  139.9290 C   0  0  2  0  0  3  0  0  0  0  0  0
  191.1900  177.0870  140.9690 C   0  0  0  0  0  2  0  0  0  0  0  0
  190.1150  178.7630  144.1880 O   0  0  0  0  0  0  0  0  0  0  0  0
  188.9080  178.1400  137.4580 C   0  0  0  0  0  2  0  0  0  0  0  0
  188.2800  177.4160  141.1980 C   0  0  1  0  0  3  0  0  0  0  0  0
  188.1440  177.7020  138.6980 C   0  0  0  0  0  2  0  0  0  0  0  0
  190.7360  176.7860  146.9060 C   0  0  0  0  0  1  0  0  0  0  0  0
  191.9240  174.6630  144.4600 C   0  0  0  0  0  1  0  0  0  0  0  0
  189.1750  177.4470  142.4500 C   0  0  1  0  0  3  0  0  0  0  0  0
  190.1090  177.2270  137.2460 C   0  0  0  0  0  2  0  0  0  0  0  0
  190.2770  176.9200  139.7600 C   0  0  2  0  0  3  0  0  0  0  0  0
  192.2400  176.3300  138.2270 C   0  0  0  0  0  2  0  0  0  0  0  0
  192.2000  175.6790  136.9180 N   0  0  0  0  0  0  0  0  0  0  0  0
  190.8560  173.9400  137.7210 O   0  0  0  0  0  0  0  0  0  0  0  0
  191.4810  174.4480  136.7480 C   0  0  0  0  0  0  0  0  0  0  0  0
  191.4770  173.8090  135.5060 O   0  0  0  0  0  0  0  0  0  0  0  0
  192.0900  172.5430  135.3110 C   0  0  0  0  0  1  0  0  0  0  0  0
  193.0340  176.1970  135.8400 C   0  0  0  0  0  2  0  0  0  0  0  0
  194.4750  175.7540  136.0270 C   0  0  0  0  0  1  0  0  0  0  0  0
  1 21  1  6  0  0  0
  1 20  1  0  0  0  0
  2 17  1  6  0  0  0
  2  6  1  0  0  0  0
  4 12  1  1  0  0  0
  4  9  1  0  0  0  0
  5 11  1  6  0  0  0
  5 18  1  0  0  0  0
  5  7  1  0  0  0  0
  6 16  1  1  0  0  0
  7  4  1  0  0  0  0
  7  2  1  0  0  0  0
  8 12  1  0  0  0  0
  9  6  1  0  0  0  0
 10 14  1  0  0  0  0
 13 15  1  0  0  0  0
 14  3  1  0  0  0  0
 14 18  1  0  0  0  0
 15 10  1  0  0  0  0
 18  8  1  0  0  0  0
 19 13  1  0  0  0  0
 19  1  1  0  0  0  0
 20 10  1  0  0  0  0
 20 11  1  0  0  0  0
 22 21  1  0  0  0  0
 24 22  1  0  0  0  0
 24 23  2  0  0  0  0
 25 24  1  0  0  0  0
 26 25  1  0  0  0  0
 27 28  1  0  0  0  0
 27 22  1  0  0  0  0
M  END
>  <MODEL>
5

>  <REMARK>
 VINA RESULT:      -6.0      3.675      8.311
  Name = 
  4 active torsions:
  status: ('A' for Active; 'I' for Inactive)
    1  A    between atoms: C_1  and  C_2
    2  A    between atoms: C_2  and  N_3
    3  A    between atoms: N_3  and  C_7
    4  A    between atoms: O_6  and  C_11
                            x       y       z     vdW  Elec       q    Type
                         _______ _______ _______ _____ _____    ______ ____

>  <TORSDO>
F 4

$$$$
=
 OpenBabel10272401593D

 28 31  0  0  1  0  0  0  0  0999 V2000
  185.1400  178.3600  142.9880 C   0  0  1  0  0  3  0  0  0  0  0  0
  183.4150  177.1950  137.0750 C   0  0  1  0  0  3  0  0  0  0  0  0
  179.9880  178.7520  141.6580 S   0  0  0  0  0  1  0  0  0  0  0  0
  182.9100  175.4880  138.6220 C   0  0  2  0  0  3  0  0  0  0  0  0
  183.4690  177.8350  139.5330 C   0  0  2  0  0  3  0  0  0  0  0  0
  183.1010  175.8740  136.3960 C   0  0  1  0  0  3  0  0  0  0  0  0
  183.7340  176.7650  138.4670 C   0  0  2  0  0  3  0  0  0  0  0  0
  181.5300  176.4190  140.1850 C   0  0  0  0  0  2  0  0  0  0  0  0
  182.9370  174.8550  137.3650 O   0  0  0  0  0  0  0  0  0  0  0  0
  182.6940  178.4980  142.3190 C   0  0  2  0  0  3  0  0  0  0  0  0
  184.3720  177.5500  140.7320 C   0  0  0  0  0  2  0  0  0  0  0  0
  181.5600  175.7440  138.9560 O   0  0  0  0  0  0  0  0  0  0  0  0
  183.4010  179.1680  144.6160 C   0  0  0  0  0  2  0  0  0  0  0  0
  181.7430  178.7900  141.1490 C   0  0  1  0  0  3  0  0  0  0  0  0
  182.4730  179.4940  143.4560 C   0  0  0  0  0  2  0  0  0  0  0  0
  181.8410  176.0040  135.5610 C   0  0  0  0  0  1  0  0  0  0  0  0
  184.6330  177.8300  136.4360 C   0  0  0  0  0  1  0  0  0  0  0  0
  181.9900  177.8560  139.9510 C   0  0  1  0  0  3  0  0  0  0  0  0
  184.8510  179.2940  144.1640 C   0  0  0  0  0  2  0  0  0  0  0  0
  184.1500  178.5830  141.8300 C   0  0  2  0  0  3  0  0  0  0  0  0
  186.6040  178.4990  142.5510 C   0  0  0  0  0  2  0  0  0  0  0  0
  187.4620  177.4640  143.1270 N   0  0  0  0  0  0  0  0  0  0  0  0
  188.7310  177.2950  141.1690 O   0  0  0  0  0  0  0  0  0  0  0  0
  188.5200  176.8880  142.3450 C   0  0  0  0  0  0  0  0  0  0  0  0
  189.3120  175.8710  142.8850 O   0  0  0  0  0  0  0  0  0  0  0  0
  190.6360  176.1100  143.3340 C   0  0  0  0  0  1  0  0  0  0  0  0
  187.1250  176.9050  144.4310 C   0  0  0  0  0  2  0  0  0  0  0  0
  187.8550  177.6530  145.5320 C   0  0  0  0  0  1  0  0  0  0  0  0
  1 21  1  6  0  0  0
  1 19  1  0  0  0  0
  2 17  1  6  0  0  0
  2  7  1  0  0  0  0
  4  9  1  6  0  0  0
  4 12  1  0  0  0  0
  5 18  1  0  0  0  0
  5 11  1  1  0  0  0
  6 16  1  1  0  0  0
  6  2  1  0  0  0  0
  6  9  1  0  0  0  0
  7  4  1  0  0  0  0
  7  5  1  0  0  0  0
 10 15  1  0  0  0  0
 11 20  1  0  0  0  0
 12  8  1  0  0  0  0
 14  3  1  0  0  0  0
 14 10  1  0  0  0  0
 15 13  1  0  0  0  0
 18  8  1  0  0  0  0
 18 14  1  0  0  0  0
 19 13  1  0  0  0  0
 20 10  1  0  0  0  0
 20  1  1  0  0  0  0
 21 22  1  0  0  0  0
 22 27  1  0  0  0  0
 23 24  2  0  0  0  0
 24 25  1  0  0  0  0
 24 22  1  0  0  0  0
 25 26  1  0  0  0  0
 27 28  1  0  0  0  0
M  END
>  <MODEL>
6

>  <REMARK>
 VINA RESULT:      -5.9      3.964      6.412
  Name = 
  4 active torsions:
  status: ('A' for Active; 'I' for Inactive)
    1  A    between atoms: C_1  and  C_2
    2  A    between atoms: C_2  and  N_3
    3  A    between atoms: N_3  and  C_7
    4  A    between atoms: O_6  and  C_11
                            x       y       z     vdW  Elec       q    Type
                         _______ _______ _______ _____ _____    ______ ____

>  <TORSDO>
F 4

$$$$
=
 OpenBabel10272401593D

 28 31  0  0  1  0  0  0  0  0999 V2000
  186.6620  178.1000  142.9740 C   0  0  1  0  0  3  0  0  0  0  0  0
  187.6880  178.7390  136.8220 C   0  0  1  0  0  3  0  0  0  0  0  0
  182.5160  178.9210  139.7170 S   0  0  0  0  0  1  0  0  0  0  0  0
  186.7910  176.6590  137.4780 C   0  0  2  0  0  3  0  0  0  0  0  0
  186.6440  178.6300  139.1360 C   0  0  2  0  0  3  0  0  0  0  0  0
  187.8400  177.6780  135.7470 C   0  0  1  0  0  3  0  0  0  0  0  0
  187.4510  177.9160  138.0430 C   0  0  2  0  0  3  0  0  0  0  0  0
  184.7890  177.1060  138.4830 C   0  0  0  0  0  2  0  0  0  0  0  0
  187.4090  176.4220  136.2370 O   0  0  0  0  0  0  0  0  0  0  0  0
  184.7150  178.4550  141.3820 C   0  0  2  0  0  3  0  0  0  0  0  0
  186.9970  177.9950  140.4810 C   0  0  0  0  0  2  0  0  0  0  0  0
  185.4040  176.8200  137.2550 O   0  0  0  0  0  0  0  0  0  0  0  0
  184.3240  178.4140  143.8460 C   0  0  0  0  0  2  0  0  0  0  0  0
  184.3060  179.0880  140.0430 C   0  0  1  0  0  3  0  0  0  0  0  0
  183.9280  179.0770  142.5350 C   0  0  0  0  0  2  0  0  0  0  0  0
  187.0340  178.0610  134.5200 C   0  0  0  0  0  1  0  0  0  0  0  0
  188.9790  179.5200  136.9670 C   0  0  0  0  0  1  0  0  0  0  0  0
  185.1340  178.5440  138.8660 C   0  0  1  0  0  3  0  0  0  0  0  0
  185.8050  178.6510  144.1140 C   0  0  0  0  0  2  0  0  0  0  0  0
  186.2220  178.6640  141.6100 C   0  0  2  0  0  3  0  0  0  0  0  0
  188.1480  178.3450  143.2640 C   0  0  0  0  0  2  0  0  0  0  0  0
  188.7580  177.2530  144.0220 N   0  0  0  0  0  0  0  0  0  0  0  0
  188.9910  178.5850  145.9310 O   0  0  0  0  0  0  0  0  0  0  0  0
  189.1760  177.4650  145.3800 C   0  0  0  0  0  0  0  0  0  0  0  0
  189.7940  176.4310  146.0880 O   0  0  0  0  0  0  0  0  0  0  0  0
  191.1310  176.5340  146.5540 C   0  0  0  0  0  1  0  0  0  0  0  0
  189.0930  176.0110  143.3360 C   0  0  0  0  0  2  0  0  0  0  0  0
  190.4250  176.1450  142.6190 C   0  0  0  0  0  1  0  0  0  0  0  0
  1 21  1  1  0  0  0
  1 19  1  0  0  0  0
  2 17  1  1  0  0  0
  2  7  1  0  0  0  0
  3 14  1  0  0  0  0
  4  9  1  6  0  0  0
  4  7  1  0  0  0  0
  5 11  1  1  0  0  0
  6 16  1  6  0  0  0
  6  9  1  0  0  0  0
  6  2  1  0  0  0  0
  7  5  1  0  0  0  0
  8 18  1  0  0  0  0
 10 20  1  0  0  0  0
 10 15  1  0  0  0  0
 11 20  1  0  0  0  0
 12  4  1  0  0  0  0
 12  8  1  0  0  0  0
 13 19  1  0  0  0  0
 14 10  1  0  0  0  0
 15 13  1  0  0  0  0
 18  5  1  0  0  0  0
 18 14  1  0  0  0  0
 20  1  1  0  0  0  0
 21 22  1  0  0  0  0
 22 24  1  0  0  0  0
 24 23  2  0  0  0  0
 24 25  1  0  0  0  0
 25 26  1  0  0  0  0
 27 22  1  0  0  0  0
 28 27  1  0  0  0  0
M  END
>  <MODEL>
7

>  <REMARK>
 VINA RESULT:      -5.7      2.738      4.801
  Name = 
  4 active torsions:
  status: ('A' for Active; 'I' for Inactive)
    1  A    between atoms: C_1  and  C_2
    2  A    between atoms: C_2  and  N_3
    3  A    between atoms: N_3  and  C_7
    4  A    between atoms: O_6  and  C_11
                            x       y       z     vdW  Elec       q    Type
                         _______ _______ _______ _____ _____    ______ ____

>  <TORSDO>
F 4

$$$$
=
 OpenBabel10272401593D

 28 31  0  0  1  0  0  0  0  0999 V2000
  193.7310  174.7040  135.9310 C   0  0  1  0  0  3  0  0  0  0  0  0
  189.7920  177.2900  140.0650 C   0  0  1  0  0  3  0  0  0  0  0  0
  188.6440  173.1000  136.0300 S   0  0  0  0  0  1  0  0  0  0  0  0
  189.5400  178.0320  137.8410 C   0  0  2  0  0  3  0  0  0  0  0  0
  190.8580  175.8540  138.2610 C   0  0  2  0  0  3  0  0  0  0  0  0
  188.9920  178.5770  139.9720 C   0  0  1  0  0  3  0  0  0  0  0  0
  190.4960  177.2620  138.7510 C   0  0  2  0  0  3  0  0  0  0  0  0
  189.0380  176.1830  136.5970 C   0  0  0  0  0  2  0  0  0  0  0  0
  188.9820  179.0490  138.6370 O   0  0  0  0  0  0  0  0  0  0  0  0
  191.2920  173.9980  135.9890 C   0  0  2  0  0  3  0  0  0  0  0  0
  192.0540  175.9700  137.3160 C   0  0  0  0  0  2  0  0  0  0  0  0
  188.4840  177.2290  137.3500 O   0  0  0  0  0  0  0  0  0  0  0  0
  192.9010  172.8170  134.4900 C   0  0  0  0  0  2  0  0  0  0  0  0
  190.0650  173.8490  136.9000 C   0  0  1  0  0  3  0  0  0  0  0  0
  191.7050  172.6430  135.4140 C   0  0  0  0  0  2  0  0  0  0  0  0
  187.5700  178.3410  140.4490 C   0  0  0  0  0  1  0  0  0  0  0  0
  190.8010  177.3880  141.1920 C   0  0  0  0  0  1  0  0  0  0  0  0
  189.6670  175.1810  137.5610 C   0  0  1  0  0  3  0  0  0  0  0  0
  194.0830  173.3660  135.2790 C   0  0  0  0  0  2  0  0  0  0  0  0
  192.4590  174.5980  136.7920 C   0  0  2  0  0  3  0  0  0  0  0  0
  194.9350  175.2410  136.7170 C   0  0  0  0  0  2  0  0  0  0  0  0
  196.0850  175.5190  135.8570 N   0  0  0  0  0  0  0  0  0  0  0  0
  197.5640  174.4830  137.3450 O   0  0  0  0  0  0  0  0  0  0  0  0
  197.4010  175.1100  136.2610 C   0  0  0  0  0  0  0  0  0  0  0  0
  198.5030  175.4130  135.4570 O   0  0  0  0  0  0  0  0  0  0  0  0
  199.6930  174.6410  135.4920 C   0  0  0  0  0  1  0  0  0  0  0  0
  195.9070  176.3610  134.6800 C   0  0  0  0  0  2  0  0  0  0  0  0
  195.7150  177.8110  135.0910 C   0  0  0  0  0  1  0  0  0  0  0  0
  1 21  1  1  0  0  0
  1 20  1  0  0  0  0
  2 17  1  1  0  0  0
  3 14  1  0  0  0  0
  4 12  1  1  0  0  0
  4  9  1  0  0  0  0
  4  7  1  0  0  0  0
  5 11  1  6  0  0  0
  5  7  1  0  0  0  0
  6  2  1  0  0  0  0
  6 16  1  6  0  0  0
  7  2  1  0  0  0  0
  8 12  1  0  0  0  0
  8 18  1  0  0  0  0
  9  6  1  0  0  0  0
 10 20  1  0  0  0  0
 10 14  1  0  0  0  0
 13 19  1  0  0  0  0
 13 15  1  0  0  0  0
 14 18  1  0  0  0  0
 15 10  1  0  0  0  0
 18  5  1  0  0  0  0
 19  1  1  0  0  0  0
 20 11  1  0  0  0  0
 22 24  1  0  0  0  0
 22 21  1  0  0  0  0
 24 23  2  0  0  0  0
 25 26  1  0  0  0  0
 25 24  1  0  0  0  0
 27 28  1  0  0  0  0
 27 22  1  0  0  0  0
M  END
>  <MODEL>
8

>  <REMARK>
 VINA RESULT:      -5.7      5.619      9.274
  Name = 
  4 active torsions:
  status: ('A' for Active; 'I' for Inactive)
    1  A    between atoms: C_1  and  C_2
    2  A    between atoms: C_2  and  N_3
    3  A    between atoms: N_3  and  C_7
    4  A    between atoms: O_6  and  C_11
                            x       y       z     vdW  Elec       q    Type
                         _______ _______ _______ _____ _____    ______ ____

>  <TORSDO>
F 4

$$$$
=
 OpenBabel10272401593D

 28 31  0  0  1  0  0  0  0  0999 V2000
  189.1430  176.9180  139.6660 C   0  0  1  0  0  3  0  0  0  0  0  0
  186.0360  179.0500  144.6760 C   0  0  1  0  0  3  0  0  0  0  0  0
  191.8770  178.2430  144.0510 S   0  0  0  0  0  1  0  0  0  0  0  0
  186.8010  176.8260  144.8430 C   0  0  2  0  0  3  0  0  0  0  0  0
  187.8280  178.3370  143.0220 C   0  0  2  0  0  3  0  0  0  0  0  0
  185.3490  178.2850  145.7920 C   0  0  1  0  0  3  0  0  0  0  0  0
  186.5830  177.9500  143.8310 C   0  0  2  0  0  3  0  0  0  0  0  0
  189.0740  176.9060  144.6320 C   0  0  0  0  0  2  0  0  0  0  0  0
  185.7430  176.9250  145.7660 O   0  0  0  0  0  0  0  0  0  0  0  0
  190.4000  177.5250  141.7870 C   0  0  2  0  0  3  0  0  0  0  0  0
  187.9050  177.4240  141.7990 C   0  0  0  0  0  2  0  0  0  0  0  0
  188.0170  176.9550  145.5530 O   0  0  0  0  0  0  0  0  0  0  0  0
  191.6560  176.8800  139.7310 C   0  0  0  0  0  2  0  0  0  0  0  0
  190.3760  178.4310  143.0270 C   0  0  1  0  0  3  0  0  0  0  0  0
  191.6350  177.8100  140.9350 C   0  0  0  0  0  2  0  0  0  0  0  0
  185.6960  178.8990  147.1360 C   0  0  0  0  0  1  0  0  0  0  0  0
  185.0160  179.8490  143.8900 C   0  0  0  0  0  1  0  0  0  0  0  0
  189.1050  178.2300  143.8710 C   0  0  1  0  0  3  0  0  0  0  0  0
  190.4280  177.1330  138.8660 C   0  0  0  0  0  2  0  0  0  0  0  0
  189.1280  177.7610  140.9550 C   0  0  2  0  0  3  0  0  0  0  0  0
  187.9180  177.1730  138.7770 C   0  0  0  0  0  2  0  0  0  0  0  0
  188.1280  176.7370  137.3970 N   0  0  0  0  0  0  0  0  0  0  0  0
  188.0370  178.9330  136.5930 O   0  0  0  0  0  0  0  0  0  0  0  0
  188.1600  177.7030  136.3340 C   0  0  0  0  0  0  0  0  0  0  0  0
  188.3210  177.2800  135.0120 O   0  0  0  0  0  0  0  0  0  0  0  0
  189.5720  177.3540  134.3470 C   0  0  0  0  0  1  0  0  0  0  0  0
  188.1300  175.3110  137.0930 C   0  0  0  0  0  2  0  0  0  0  0  0
  186.7080  174.7860  137.0100 C   0  0  0  0  0  1  0  0  0  0  0  0
  1 21  1  6  0  0  0
  1 20  1  0  0  0  0
  2 17  1  6  0  0  0
  2  6  1  0  0  0  0
  4 12  1  1  0  0  0
  4  9  1  0  0  0  0
  5 11  1  6  0  0  0
  5  7  1  0  0  0  0
  5 18  1  0  0  0  0
  6 16  1  1  0  0  0
  7  2  1  0  0  0  0
  7  4  1  0  0  0  0
  8 12  1  0  0  0  0
  9  6  1  0  0  0  0
 10 14  1  0  0  0  0
 13 15  1  0  0  0  0
 14 18  1  0  0  0  0
 14  3  1  0  0  0  0
 15 10  1  0  0  0  0
 18  8  1  0  0  0  0
 19  1  1  0  0  0  0
 19 13  1  0  0  0  0
 20 10  1  0  0  0  0
 20 11  1  0  0  0  0
 22 21  1  0  0  0  0
 24 23  2  0  0  0  0
 24 22  1  0  0  0  0
 25 24  1  0  0  0  0
 26 25  1  0  0  0  0
 27 22  1  0  0  0  0
 28 27  1  0  0  0  0
M  END
>  <MODEL>
9

>  <REMARK>
 VINA RESULT:      -5.6      2.026      7.264
  Name = 
  4 active torsions:
  status: ('A' for Active; 'I' for Inactive)
    1  A    between atoms: C_1  and  C_2
    2  A    between atoms: C_2  and  N_3
    3  A    between atoms: N_3  and  C_7
    4  A    between atoms: O_6  and  C_11
                            x       y       z     vdW  Elec       q    Type
                         _______ _______ _______ _____ _____    ______ ____

>  <TORSDO>
F 4

$$$$
