=
 OpenBabel10272400063D

 34 38  0  0  1  0  0  0  0  0999 V2000
  190.6000  175.9920  143.0090 C   0  0  2  0  0  3  0  0  0  0  0  0
  189.9530  177.8300  144.6920 C   0  0  2  0  0  3  0  0  0  0  0  0
  188.5730  177.4620  142.6210 N   0  0  0  0  0  0  0  0  0  0  0  0
  186.4030  178.5890  142.0850 C   0  0  0  0  0  0  0  0  0  0  0  0
  191.9500  176.5230  145.0740 C   0  0  0  0  0  2  0  0  0  0  0  0
  190.7940  177.1710  145.7020 N   0  0  0  0  0  2  0  0  0  0  0  0
  186.8090  177.6520  144.2840 C   0  0  0  0  0  3  0  0  0  0  0  0
  189.4680  176.8290  143.6150 C   0  0  1  0  0  3  0  0  0  0  0  0
  185.4620  178.0770  144.7030 C   0  0  0  0  0  3  0  0  0  0  0  0
  185.1200  179.2380  142.5310 C   0  0  0  0  0  2  0  0  0  0  0  0
  191.4990  175.4230  144.1100 C   0  0  0  0  0  2  0  0  0  0  0  0
  188.8870  177.5380  141.1970 C   0  0  0  0  0  0  0  0  0  0  0  0
  191.5590  176.9740  141.8300 S   0  0  0  0  0  0  0  0  0  0  0  0
  190.6250  179.0790  144.1310 C   0  0  0  0  0  1  0  0  0  0  0  0
  186.7600  178.6560  140.8400 N   0  0  0  0  0  0  0  0  0  0  0  0
  187.9710  178.0640  140.3300 C   0  0  0  0  0  0  0  0  0  0  0  0
  184.6690  178.7960  143.9110 C   0  0  0  0  0  0  0  0  0  0  0  0
  187.2720  177.9050  143.0530 C   0  0  0  0  0  0  0  0  0  0  0  0
  190.1590  176.9340  140.6620 C   0  0  0  0  0  2  0  0  0  0  0  0
  187.7290  176.9910  136.7050 C   0  0  0  0  0  0  0  0  0  0  0  0
  188.5930  177.8920  136.0760 C   0  0  0  0  0  3  0  0  0  0  0  0
  188.1400  178.0680  138.8510 C   0  0  0  0  0  0  0  0  0  0  0  0
  189.2310  178.8820  136.8280 C   0  0  0  0  0  3  0  0  0  0  0  0
  187.5170  177.0650  138.0850 C   0  0  0  0  0  3  0  0  0  0  0  0
  189.0120  178.9640  138.2070 C   0  0  0  0  0  3  0  0  0  0  0  0
  187.0460  175.9390  135.9140 C   0  0  0  0  0  1  0  0  0  0  0  0
  183.2930  179.1180  144.4190 C   0  0  0  0  0  2  0  0  0  0  0  0
  182.3640  179.6690  143.3330 C   0  0  0  0  0  2  0  0  0  0  0  0
  181.4670  178.5380  142.8370 C   0  0  2  0  0  3  0  0  0  0  0  0
  182.4840  179.0480  140.7450 F   0  0  0  0  0  0  0  0  0  0  0  0
  180.1110  179.1070  140.7410 C   0  0  0  0  0  1  0  0  0  0  0  0
  181.3670  178.4640  141.3110 C   0  0  2  0  0  3  0  0  0  0  0  0
  180.0980  178.4850  143.5360 C   0  0  0  0  0  2  0  0  0  0  0  0
  179.9820  177.3370  144.3230 O   0  0  0  0  0  1  0  0  0  0  0  0
  1  8  1  0  0  0  0
  1 11  1  1  0  0  0
  2 14  1  6  0  0  0
  2  6  1  0  0  0  0
  3 18  1  0  0  0  0
  4 10  1  0  0  0  0
  4 18  1  0  0  0  0
  5  6  1  0  0  0  0
  7  9  1  0  0  0  0
  8  3  1  6  0  0  0
  8  2  1  0  0  0  0
 10 17  1  0  0  0  0
 11  5  1  0  0  0  0
 12  3  1  0  0  0  0
 13  1  1  0  0  0  0
 15  4  2  0  0  0  0
 16 15  1  0  0  0  0
 16 12  2  0  0  0  0
 17 27  1  0  0  0  0
 17  9  2  0  0  0  0
 18  7  2  0  0  0  0
 19 12  1  0  0  0  0
 19 13  1  0  0  0  0
 20 24  1  0  0  0  0
 21 20  2  0  0  0  0
 21 23  1  0  0  0  0
 22 16  1  0  0  0  0
 23 25  2  0  0  0  0
 24 22  2  0  0  0  0
 25 22  1  0  0  0  0
 26 20  1  0  0  0  0
 28 27  1  0  0  0  0
 29 28  1  6  0  0  0
 29 33  1  0  0  0  0
 30 32  1  0  0  0  0
 32 31  1  6  0  0  0
 32 29  1  0  0  0  0
 33 34  1  0  0  0  0
M  END
>  <MODEL>
1

>  <REMARK>
 VINA RESULT:      -8.8      0.000      0.000
  Name = 
  6 active torsions:
  status: ('A' for Active; 'I' for Inactive)
    1  A    between atoms: C_3  and  C_13
    2  A    between atoms: C_3  and  C_29
    3  A    between atoms: C_12  and  C_28
    4  A    between atoms: C_13  and  C_22
    5  A    between atoms: C_20  and  C_22
    6  A    between atoms: C_22  and  C_33
                            x       y       z     vdW  Elec       q    Type
                         _______ _______ _______ _____ _____    ______ ____

>  <TORSDO>
F 6

$$$$
=
 OpenBabel10272400063D

 34 38  0  0  1  0  0  0  0  0999 V2000
  188.1210  177.6250  135.4440 C   0  0  2  0  0  3  0  0  0  0  0  0
  186.6040  176.7910  137.3500 C   0  0  2  0  0  3  0  0  0  0  0  0
  189.0850  177.0100  137.7050 N   0  0  0  0  0  0  0  0  0  0  0  0
  190.2880  176.7040  139.8790 C   0  0  0  0  0  0  0  0  0  0  0  0
  185.6350  177.2730  135.1890 C   0  0  0  0  0  2  0  0  0  0  0  0
  185.4430  177.3480  136.6410 N   0  0  0  0  0  2  0  0  0  0  0  0
  188.2660  178.0350  139.7530 C   0  0  0  0  0  3  0  0  0  0  0  0
  187.9130  177.5200  136.9580 C   0  0  1  0  0  3  0  0  0  0  0  0
  188.3710  178.3140  141.1950 C   0  0  0  0  0  3  0  0  0  0  0  0
  190.3130  176.7710  141.3820 C   0  0  0  0  0  3  0  0  0  0  0  0
  186.8420  178.1090  134.7560 C   0  0  0  0  0  2  0  0  0  0  0  0
  190.2360  176.3880  137.0560 C   0  0  0  0  0  0  0  0  0  0  0  0
  188.6650  176.0390  134.7620 S   0  0  0  0  0  0  0  0  0  0  0  0
  186.6680  175.2720  137.2160 C   0  0  0  0  0  1  0  0  0  0  0  0
  191.2610  176.1270  139.2440 N   0  0  0  0  0  0  0  0  0  0  0  0
  191.3170  176.0180  137.8080 C   0  0  0  0  0  0  0  0  0  0  0  0
  189.3070  177.7520  141.9580 C   0  0  0  0  0  0  0  0  0  0  0  0
  189.1570  177.2600  139.1220 C   0  0  1  0  0  3  0  0  0  0  0  0
  190.2910  176.2580  135.5580 C   0  0  0  0  0  2  0  0  0  0  0  0
  194.5690  175.8860  135.8700 C   0  0  0  0  0  0  0  0  0  0  0  0
  194.8900  174.5270  135.9310 C   0  0  0  0  0  3  0  0  0  0  0  0
  192.5850  175.4980  137.2300 C   0  0  0  0  0  0  0  0  0  0  0  0
  194.0640  173.6500  136.6400 C   0  0  0  0  0  3  0  0  0  0  0  0
  193.4160  176.3660  136.4980 C   0  0  0  0  0  3  0  0  0  0  0  0
  192.9160  174.1310  137.2790 C   0  0  0  0  0  3  0  0  0  0  0  0
  195.4400  176.8240  135.1210 C   0  0  0  0  0  1  0  0  0  0  0  0
  189.3580  178.1590  143.4020 C   0  0  0  0  0  2  0  0  0  0  0  0
  189.2820  176.9700  144.3650 C   0  0  0  0  0  2  0  0  0  0  0  0
  190.0700  177.3120  145.6270 C   0  0  2  0  0  3  0  0  0  0  0  0
  191.7190  176.0480  144.4630 F   0  0  0  0  0  0  0  0  0  0  0  0
  191.9400  176.0390  146.8270 C   0  0  0  0  0  1  0  0  0  0  0  0
  191.5200  176.8210  145.5910 C   0  0  2  0  0  3  0  0  0  0  0  0
  189.3390  176.9460  146.9290 C   0  0  0  0  0  2  0  0  0  0  0  0
  189.2010  178.0620  147.7570 O   0  0  0  0  0  1  0  0  0  0  0  0
  1 11  1  6  0  0  0
  1  8  1  0  0  0  0
  2 14  1  6  0  0  0
  3 18  1  0  0  0  0
  4 10  1  0  0  0  0
  5  6  1  0  0  0  0
  6  2  1  0  0  0  0
  7  9  2  0  0  0  0
  8  2  1  0  0  0  0
  8  3  1  1  0  0  0
  9 17  1  0  0  0  0
 10 17  2  0  0  0  0
 11  5  1  0  0  0  0
 12  3  1  0  0  0  0
 12 16  2  0  0  0  0
 13  1  1  0  0  0  0
 13 19  1  0  0  0  0
 15  4  2  0  0  0  0
 16 15  1  0  0  0  0
 17 27  1  0  0  0  0
 18  7  1  6  0  0  0
 18  4  1  0  0  0  0
 19 12  1  0  0  0  0
 20 21  2  0  0  0  0
 20 24  1  0  0  0  0
 21 23  1  0  0  0  0
 22 25  1  0  0  0  0
 22 16  1  0  0  0  0
 23 25  2  0  0  0  0
 24 22  2  0  0  0  0
 26 20  1  0  0  0  0
 27 28  1  0  0  0  0
 29 28  1  6  0  0  0
 29 33  1  0  0  0  0
 30 32  1  0  0  0  0
 32 29  1  0  0  0  0
 32 31  1  1  0  0  0
 33 34  1  0  0  0  0
M  END
>  <MODEL>
2

>  <REMARK>
 VINA RESULT:      -8.0      4.692      7.810
  Name = 
  6 active torsions:
  status: ('A' for Active; 'I' for Inactive)
    1  A    between atoms: C_3  and  C_13
    2  A    between atoms: C_3  and  C_29
    3  A    between atoms: C_12  and  C_28
    4  A    between atoms: C_13  and  C_22
    5  A    between atoms: C_20  and  C_22
    6  A    between atoms: C_22  and  C_33
                            x       y       z     vdW  Elec       q    Type
                         _______ _______ _______ _____ _____    ______ ____

>  <TORSDO>
F 6

$$$$
=
 OpenBabel10272400063D

 34 38  0  0  1  0  0  0  0  0999 V2000
  187.5170  176.0780  136.4840 C   0  0  2  0  0  3  0  0  0  0  0  0
  189.6330  177.4050  137.1090 C   0  0  2  0  0  3  0  0  0  0  0  0
  187.6310  177.4150  138.6330 N   0  0  0  0  0  0  0  0  0  0  0  0
  187.5290  178.4420  140.9140 C   0  0  0  0  0  0  0  0  0  0  0  0
  189.5540  176.2250  135.0010 C   0  0  0  0  0  2  0  0  0  0  0  0
  190.3960  176.6040  136.1410 N   0  0  0  0  0  2  0  0  0  0  0  0
  189.4050  177.0530  140.2570 C   0  0  0  0  0  3  0  0  0  0  0  0
  188.3810  176.6470  137.6150 C   0  0  1  0  0  3  0  0  0  0  0  0
  190.0030  177.2490  141.5890 C   0  0  0  0  0  3  0  0  0  0  0  0
  188.2030  178.8530  142.1960 C   0  0  0  0  0  3  0  0  0  0  0  0
  188.3850  175.3480  135.4560 C   0  0  0  0  0  2  0  0  0  0  0  0
  186.2490  177.8500  138.4480 C   0  0  0  0  0  0  0  0  0  0  0  0
  186.5480  177.3900  135.7000 S   0  0  0  0  0  0  0  0  0  0  0  0
  189.3450  178.8050  136.5760 C   0  0  0  0  0  1  0  0  0  0  0  0
  186.3160  178.8310  140.6700 N   0  0  0  0  0  0  0  0  0  0  0  0
  185.5980  178.4840  139.4700 C   0  0  0  0  0  0  0  0  0  0  0  0
  189.4630  178.0610  142.4950 C   0  0  0  0  0  0  0  0  0  0  0  0
  188.2430  177.6280  139.9200 C   0  0  1  0  0  3  0  0  0  0  0  0
  185.5010  177.5030  137.1890 C   0  0  0  0  0  2  0  0  0  0  0  0
  181.8330  178.2060  139.7800 C   0  0  0  0  0  0  0  0  0  0  0  0
  181.4030  179.3940  139.1820 C   0  0  0  0  0  3  0  0  0  0  0  0
  184.1560  178.8500  139.4290 C   0  0  0  0  0  0  0  0  0  0  0  0
  182.3430  180.3120  138.7070 C   0  0  0  0  0  3  0  0  0  0  0  0
  183.1990  177.9260  139.8870 C   0  0  0  0  0  3  0  0  0  0  0  0
  183.7100  180.0380  138.8230 C   0  0  0  0  0  3  0  0  0  0  0  0
  180.8420  177.2260  140.2880 C   0  0  0  0  0  1  0  0  0  0  0  0
  190.1240  178.1330  143.8410 C   0  0  0  0  0  2  0  0  0  0  0  0
  189.5410  177.1400  144.8510 C   0  0  0  0  0  2  0  0  0  0  0  0
  188.7980  177.9220  145.9310 C   0  0  2  0  0  3  0  0  0  0  0  0
  189.3520  176.1690  147.4450 F   0  0  0  0  0  0  0  0  0  0  0  0
  188.2550  178.0290  148.4310 C   0  0  0  0  0  1  0  0  0  0  0  0
  189.2130  177.5410  147.3550 C   0  0  2  0  0  3  0  0  0  0  0  0
  187.2730  177.9510  145.7330 C   0  0  0  0  0  2  0  0  0  0  0  0
  186.8620  176.9350  144.8680 O   0  0  0  0  0  1  0  0  0  0  0  0
  1 11  1  6  0  0  0
  1  8  1  0  0  0  0
  2 14  1  6  0  0  0
  2  8  1  0  0  0  0
  3 18  1  0  0  0  0
  4 10  1  0  0  0  0
  5 11  1  0  0  0  0
  5  6  1  0  0  0  0
  6  2  1  0  0  0  0
  7  9  2  0  0  0  0
  8  3  1  6  0  0  0
  9 17  1  0  0  0  0
 10 17  2  0  0  0  0
 12  3  1  0  0  0  0
 12 16  2  0  0  0  0
 13  1  1  0  0  0  0
 13 19  1  0  0  0  0
 15  4  2  0  0  0  0
 16 15  1  0  0  0  0
 17 27  1  0  0  0  0
 18  7  1  1  0  0  0
 18  4  1  0  0  0  0
 19 12  1  0  0  0  0
 20 24  1  0  0  0  0
 20 26  1  0  0  0  0
 21 20  2  0  0  0  0
 22 16  1  0  0  0  0
 22 24  2  0  0  0  0
 23 25  2  0  0  0  0
 23 21  1  0  0  0  0
 25 22  1  0  0  0  0
 27 28  1  0  0  0  0
 29 28  1  6  0  0  0
 29 32  1  0  0  0  0
 32 30  1  0  0  0  0
 32 31  1  1  0  0  0
 33 29  1  0  0  0  0
 34 33  1  0  0  0  0
M  END
>  <MODEL>
3

>  <REMARK>
 VINA RESULT:      -7.9      3.413      6.904
  Name = 
  6 active torsions:
  status: ('A' for Active; 'I' for Inactive)
    1  A    between atoms: C_3  and  C_13
    2  A    between atoms: C_3  and  C_29
    3  A    between atoms: C_12  and  C_28
    4  A    between atoms: C_13  and  C_22
    5  A    between atoms: C_20  and  C_22
    6  A    between atoms: C_22  and  C_33
                            x       y       z     vdW  Elec       q    Type
                         _______ _______ _______ _____ _____    ______ ____

>  <TORSDO>
F 6

$$$$
=
 OpenBabel10272400063D

 34 38  0  0  1  0  0  0  0  0999 V2000
  183.4620  179.7170  139.0000 C   0  0  2  0  0  3  0  0  0  0  0  0
  182.4340  178.2760  140.8700 C   0  0  2  0  0  3  0  0  0  0  0  0
  184.9100  178.7250  140.8280 N   0  0  0  0  0  0  0  0  0  0  0  0
  186.5470  178.0810  142.6100 C   0  0  0  0  0  0  0  0  0  0  0  0
  181.0140  179.1160  139.1040 C   0  0  0  0  0  2  0  0  0  0  0  0
  181.1130  178.8280  140.5390 N   0  0  0  0  0  2  0  0  0  0  0  0
  184.4380  179.1340  143.1790 C   0  0  0  0  0  3  0  0  0  0  0  0
  183.5730  179.2380  140.4520 C   0  0  1  0  0  3  0  0  0  0  0  0
  184.8080  179.0820  144.6040 C   0  0  0  0  0  3  0  0  0  0  0  0
  186.8680  177.8020  144.0540 C   0  0  0  0  0  3  0  0  0  0  0  0
  182.0360  180.1780  138.6920 C   0  0  0  0  0  2  0  0  0  0  0  0
  185.9530  178.4230  139.8530 C   0  0  0  0  0  0  0  0  0  0  0  0
  183.9860  178.4150  137.8570 S   0  0  0  0  0  0  0  0  0  0  0  0
  182.5940  176.8510  140.3490 C   0  0  0  0  0  1  0  0  0  0  0  0
  187.4160  177.7970  141.6900 N   0  0  0  0  0  0  0  0  0  0  0  0
  187.1900  178.0320  140.2860 C   0  0  0  0  0  0  0  0  0  0  0  0
  185.9220  178.4850  145.0250 C   0  0  0  0  0  0  0  0  0  0  0  0
  185.2450  178.6470  142.2280 C   0  0  1  0  0  3  0  0  0  0  0  0
  185.7150  178.6520  138.3840 C   0  0  0  0  0  2  0  0  0  0  0  0
  189.2150  177.5760  137.1170 C   0  0  0  0  0  0  0  0  0  0  0  0
  190.4720  177.2350  137.6210 C   0  0  0  0  0  3  0  0  0  0  0  0
  188.3540  177.8270  139.3820 C   0  0  0  0  0  0  0  0  0  0  0  0
  190.6770  177.1890  139.0030 C   0  0  0  0  0  3  0  0  0  0  0  0
  188.1570  177.8520  137.9890 C   0  0  0  0  0  3  0  0  0  0  0  0
  189.6240  177.4760  139.8770 C   0  0  0  0  0  3  0  0  0  0  0  0
  188.9880  177.6290  135.6520 C   0  0  0  0  0  1  0  0  0  0  0  0
  186.2290  178.5500  146.4920 C   0  0  0  0  0  2  0  0  0  0  0  0
  187.1220  177.4010  146.9720 C   0  0  0  0  0  2  0  0  0  0  0  0
  188.5630  177.9000  147.0440 C   0  0  2  0  0  3  0  0  0  0  0  0
  190.3900  176.3930  147.2960 F   0  0  0  0  0  0  0  0  0  0  0  0
  190.4100  177.6570  145.2870 C   0  0  0  0  0  1  0  0  0  0  0  0
  189.5650  176.9720  146.3510 C   0  0  2  0  0  3  0  0  0  0  0  0
  189.0020  178.3170  148.4580 C   0  0  0  0  0  2  0  0  0  0  0  0
  188.0580  177.9260  149.4100 O   0  0  0  0  0  1  0  0  0  0  0  0
  1 11  1  6  0  0  0
  1  8  1  0  0  0  0
  2 14  1  6  0  0  0
  3 18  1  0  0  0  0
  4 10  1  0  0  0  0
  5  6  1  0  0  0  0
  6  2  1  0  0  0  0
  7  9  2  0  0  0  0
  8  3  1  6  0  0  0
  8  2  1  0  0  0  0
  9 17  1  0  0  0  0
 10 17  2  0  0  0  0
 11  5  1  0  0  0  0
 12 16  2  0  0  0  0
 12  3  1  0  0  0  0
 13 19  1  0  0  0  0
 13  1  1  0  0  0  0
 15  4  2  0  0  0  0
 16 15  1  0  0  0  0
 17 27  1  0  0  0  0
 18  4  1  0  0  0  0
 18  7  1  6  0  0  0
 19 12  1  0  0  0  0
 20 21  2  0  0  0  0
 20 24  1  0  0  0  0
 21 23  1  0  0  0  0
 22 25  1  0  0  0  0
 22 16  1  0  0  0  0
 23 25  2  0  0  0  0
 24 22  2  0  0  0  0
 26 20  1  0  0  0  0
 27 28  1  0  0  0  0
 29 28  1  1  0  0  0
 29 33  1  0  0  0  0
 32 31  1  6  0  0  0
 32 29  1  0  0  0  0
 32 30  1  0  0  0  0
 33 34  1  0  0  0  0
M  END
>  <MODEL>
4

>  <REMARK>
 VINA RESULT:      -7.6      3.504      6.776
  Name = 
  6 active torsions:
  status: ('A' for Active; 'I' for Inactive)
    1  A    between atoms: C_3  and  C_13
    2  A    between atoms: C_3  and  C_29
    3  A    between atoms: C_12  and  C_28
    4  A    between atoms: C_13  and  C_22
    5  A    between atoms: C_20  and  C_22
    6  A    between atoms: C_22  and  C_33
                            x       y       z     vdW  Elec       q    Type
                         _______ _______ _______ _____ _____    ______ ____

>  <TORSDO>
F 6

$$$$
=
 OpenBabel10272400063D

 34 38  0  0  1  0  0  0  0  0999 V2000
  181.5060  177.8760  140.0580 C   0  0  2  0  0  3  0  0  0  0  0  0
  182.5980  179.3370  138.2410 C   0  0  2  0  0  3  0  0  0  0  0  0
  183.9990  178.3300  140.0730 N   0  0  0  0  0  0  0  0  0  0  0  0
  186.4970  178.4080  140.2190 C   0  0  0  0  0  0  0  0  0  0  0  0
  180.2020  179.0180  138.2240 C   0  0  0  0  0  2  0  0  0  0  0  0
  181.4090  179.1410  137.3990 N   0  0  0  0  0  2  0  0  0  0  0  0
  185.3890  177.8260  138.1420 C   0  0  0  0  0  3  0  0  0  0  0  0
  182.7750  178.1790  139.2540 C   0  0  1  0  0  3  0  0  0  0  0  0
  186.7040  177.6580  137.4990 C   0  0  0  0  0  3  0  0  0  0  0  0
  187.8460  178.4700  139.5530 C   0  0  0  0  0  3  0  0  0  0  0  0
  180.2890  177.7900  139.1340 C   0  0  0  0  0  2  0  0  0  0  0  0
  183.9760  178.4710  141.5260 C   0  0  0  0  0  0  0  0  0  0  0  0
  181.2560  179.1210  141.3480 S   0  0  0  0  0  0  0  0  0  0  0  0
  182.6190  180.7280  138.8680 C   0  0  0  0  0  1  0  0  0  0  0  0
  186.4040  178.5660  141.5020 N   0  0  0  0  0  0  0  0  0  0  0  0
  185.1540  178.5220  142.2180 C   0  0  0  0  0  0  0  0  0  0  0  0
  187.8420  177.9390  138.1310 C   0  0  0  0  0  0  0  0  0  0  0  0
  185.2790  178.1980  139.4230 C   0  0  1  0  0  3  0  0  0  0  0  0
  182.6710  178.4410  142.2750 C   0  0  0  0  0  2  0  0  0  0  0  0
  186.4800  177.9750  145.7240 C   0  0  0  0  0  0  0  0  0  0  0  0
  185.3800  178.3290  146.5100 C   0  0  0  0  0  3  0  0  0  0  0  0
  185.2390  178.5330  143.7040 C   0  0  0  0  0  0  0  0  0  0  0  0
  184.2090  178.7860  145.9000 C   0  0  0  0  0  3  0  0  0  0  0  0
  186.4060  178.0580  144.3310 C   0  0  0  0  0  3  0  0  0  0  0  0
  184.1370  178.8800  144.5060 C   0  0  0  0  0  3  0  0  0  0  0  0
  187.7280  177.4900  146.3640 C   0  0  0  0  0  1  0  0  0  0  0  0
  189.1240  177.6690  137.3990 C   0  0  0  0  0  2  0  0  0  0  0  0
  189.8940  176.4670  137.9560 C   0  0  0  0  0  2  0  0  0  0  0  0
  191.1930  176.9670  138.5840 C   0  0  2  0  0  3  0  0  0  0  0  0
  193.1900  176.8070  137.2960 F   0  0  0  0  0  0  0  0  0  0  0  0
  192.0690  174.7450  137.6590 C   0  0  0  0  0  1  0  0  0  0  0  0
  192.4140  176.1210  138.2110 C   0  0  2  0  0  3  0  0  0  0  0  0
  191.0840  177.2400  140.0930 C   0  0  0  0  0  2  0  0  0  0  0  0
  190.4860  176.1650  140.7550 O   0  0  0  0  0  1  0  0  0  0  0  0
  1 11  1  6  0  0  0
  1 13  1  0  0  0  0
  2 14  1  1  0  0  0
  2  8  1  0  0  0  0
  3 12  1  0  0  0  0
  4 15  2  0  0  0  0
  5 11  1  0  0  0  0
  6  5  1  0  0  0  0
  6  2  1  0  0  0  0
  8  1  1  0  0  0  0
  8  3  1  1  0  0  0
  9 17  1  0  0  0  0
  9  7  2  0  0  0  0
 10  4  1  0  0  0  0
 12 16  2  0  0  0  0
 12 19  1  0  0  0  0
 13 19  1  0  0  0  0
 15 16  1  0  0  0  0
 16 22  1  0  0  0  0
 17 10  2  0  0  0  0
 18  7  1  1  0  0  0
 18  3  1  0  0  0  0
 18  4  1  0  0  0  0
 20 26  1  0  0  0  0
 20 21  1  0  0  0  0
 22 24  1  0  0  0  0
 22 25  2  0  0  0  0
 23 21  2  0  0  0  0
 24 20  2  0  0  0  0
 25 23  1  0  0  0  0
 27 28  1  0  0  0  0
 27 17  1  0  0  0  0
 29 28  1  1  0  0  0
 29 33  1  0  0  0  0
 30 32  1  0  0  0  0
 32 31  1  6  0  0  0
 32 29  1  0  0  0  0
 33 34  1  0  0  0  0
M  END
>  <MODEL>
5

>  <REMARK>
 VINA RESULT:      -7.4      4.009      9.121
  Name = 
  6 active torsions:
  status: ('A' for Active; 'I' for Inactive)
    1  A    between atoms: C_3  and  C_13
    2  A    between atoms: C_3  and  C_29
    3  A    between atoms: C_12  and  C_28
    4  A    between atoms: C_13  and  C_22
    5  A    between atoms: C_20  and  C_22
    6  A    between atoms: C_22  and  C_33
                            x       y       z     vdW  Elec       q    Type
                         _______ _______ _______ _____ _____    ______ ____

>  <TORSDO>
F 6

$$$$
=
 OpenBabel10272400063D

 34 38  0  0  1  0  0  0  0  0999 V2000
  189.5880  178.3360  144.4620 C   0  0  2  0  0  3  0  0  0  0  0  0
  190.4080  176.6850  142.6640 C   0  0  2  0  0  3  0  0  0  0  0  0
  188.3230  178.0430  142.2860 N   0  0  0  0  0  0  0  0  0  0  0  0
  187.0030  178.1420  140.1610 C   0  0  0  0  0  0  0  0  0  0  0  0
  191.6070  176.8510  144.7570 C   0  0  0  0  0  2  0  0  0  0  0  0
  191.7310  176.6780  143.3050 N   0  0  0  0  0  2  0  0  0  0  0  0
  189.4200  178.3320  140.1350 C   0  0  0  0  0  3  0  0  0  0  0  0
  189.6350  177.9920  142.9700 C   0  0  1  0  0  3  0  0  0  0  0  0
  189.3830  178.4800  138.6700 C   0  0  0  0  0  3  0  0  0  0  0  0
  186.9320  178.0620  138.6600 C   0  0  0  0  0  2  0  0  0  0  0  0
  190.9770  178.2050  145.0910 C   0  0  0  0  0  2  0  0  0  0  0  0
  187.0530  178.1240  143.0010 C   0  0  0  0  0  0  0  0  0  0  0  0
  188.3860  177.2890  145.3200 S   0  0  0  0  0  0  0  0  0  0  0  0
  189.6280  175.4100  142.9710 C   0  0  0  0  0  1  0  0  0  0  0  0
  185.9100  178.1750  140.8570 N   0  0  0  0  0  0  0  0  0  0  0  0
  185.8880  178.2510  142.2960 C   0  0  0  0  0  0  0  0  0  0  0  0
  188.2520  178.3700  137.9760 C   0  0  0  0  0  0  0  0  0  0  0  0
  188.3020  178.1530  140.8500 C   0  0  0  0  0  0  0  0  0  0  0  0
  187.0250  178.1870  144.5050 C   0  0  0  0  0  2  0  0  0  0  0  0
  182.1570  178.7890  142.6770 C   0  0  0  0  0  0  0  0  0  0  0  0
  182.0440  179.0940  144.0350 C   0  0  0  0  0  3  0  0  0  0  0  0
  184.5600  178.4710  142.9300 C   0  0  0  0  0  0  0  0  0  0  0  0
  183.1830  179.0880  144.8460 C   0  0  0  0  0  3  0  0  0  0  0  0
  183.4080  178.4970  142.1220 C   0  0  0  0  0  3  0  0  0  0  0  0
  184.4330  178.7860  144.2950 C   0  0  0  0  0  3  0  0  0  0  0  0
  180.9540  178.7900  141.8090 C   0  0  0  0  0  1  0  0  0  0  0  0
  188.3230  178.6040  136.4950 C   0  0  0  0  0  2  0  0  0  0  0  0
  189.1830  177.5680  135.7630 C   0  0  0  0  0  2  0  0  0  0  0  0
  188.8040  176.1770  136.2640 C   0  0  2  0  0  3  0  0  0  0  0  0
  190.0390  175.1770  138.0390 F   0  0  0  0  0  0  0  0  0  0  0  0
  191.3450  175.8740  136.1820 C   0  0  0  0  0  1  0  0  0  0  0  0
  190.0110  175.3240  136.6640 C   0  0  2  0  0  3  0  0  0  0  0  0
  187.8180  175.4370  135.3450 C   0  0  0  0  0  2  0  0  0  0  0  0
  186.5050  175.5830  135.7970 O   0  0  0  0  0  1  0  0  0  0  0  0
  1 11  1  1  0  0  0
  1 13  1  0  0  0  0
  2  8  1  0  0  0  0
  2 14  1  1  0  0  0
  2  6  1  0  0  0  0
  3 12  1  0  0  0  0
  4 18  1  0  0  0  0
  4 15  2  0  0  0  0
  5 11  1  0  0  0  0
  6  5  1  0  0  0  0
  7 18  2  0  0  0  0
  8  3  1  1  0  0  0
  8  1  1  0  0  0  0
  9  7  1  0  0  0  0
 10  4  1  0  0  0  0
 12 19  1  0  0  0  0
 15 16  1  0  0  0  0
 16 22  1  0  0  0  0
 16 12  2  0  0  0  0
 17 10  1  0  0  0  0
 17  9  2  0  0  0  0
 18  3  1  0  0  0  0
 19 13  1  0  0  0  0
 20 21  1  0  0  0  0
 21 23  2  0  0  0  0
 22 25  2  0  0  0  0
 24 20  2  0  0  0  0
 24 22  1  0  0  0  0
 25 23  1  0  0  0  0
 26 20  1  0  0  0  0
 27 17  1  0  0  0  0
 28 29  1  0  0  0  0
 28 27  1  0  0  0  0
 29 33  1  6  0  0  0
 29 32  1  0  0  0  0
 32 31  1  1  0  0  0
 32 30  1  0  0  0  0
 33 34  1  0  0  0  0
M  END
>  <MODEL>
6

>  <REMARK>
 VINA RESULT:      -7.3      2.832      6.957
  Name = 
  6 active torsions:
  status: ('A' for Active; 'I' for Inactive)
    1  A    between atoms: C_3  and  C_13
    2  A    between atoms: C_3  and  C_29
    3  A    between atoms: C_12  and  C_28
    4  A    between atoms: C_13  and  C_22
    5  A    between atoms: C_20  and  C_22
    6  A    between atoms: C_22  and  C_33
                            x       y       z     vdW  Elec       q    Type
                         _______ _______ _______ _____ _____    ______ ____

>  <TORSDO>
F 6

$$$$
=
 OpenBabel10272400063D

 34 38  0  0  1  0  0  0  0  0999 V2000
  187.6070  176.4350  136.9130 C   0  0  2  0  0  3  0  0  0  0  0  0
  189.4550  177.8180  138.0540 C   0  0  2  0  0  3  0  0  0  0  0  0
  187.1640  177.6640  139.0840 N   0  0  0  0  0  0  0  0  0  0  0  0
  186.4990  178.5690  141.3210 C   0  0  0  0  0  0  0  0  0  0  0  0
  189.9140  176.7450  135.9370 C   0  0  0  0  0  2  0  0  0  0  0  0
  190.4570  177.1010  137.2530 N   0  0  0  0  0  2  0  0  0  0  0  0
  188.5460  177.2970  141.0520 C   0  0  0  0  0  3  0  0  0  0  0  0
  188.1640  176.9820  138.2320 C   0  0  1  0  0  3  0  0  0  0  0  0
  188.8180  177.4500  142.4910 C   0  0  0  0  0  3  0  0  0  0  0  0
  186.8450  178.9430  142.7380 C   0  0  0  0  0  3  0  0  0  0  0  0
  188.7210  175.7960  136.0800 C   0  0  0  0  0  2  0  0  0  0  0  0
  185.8380  178.0490  138.6080 C   0  0  0  0  0  0  0  0  0  0  0  0
  186.7700  177.7430  135.9830 S   0  0  0  0  0  0  0  0  0  0  0  0
  189.2200  179.2300  137.5260 C   0  0  0  0  0  1  0  0  0  0  0  0
  185.3520  178.9170  140.8250 N   0  0  0  0  0  0  0  0  0  0  0  0
  184.9420  178.6010  139.4800 C   0  0  0  0  0  0  0  0  0  0  0  0
  188.0460  178.1920  143.2830 C   0  0  0  0  0  0  0  0  0  0  0  0
  187.4600  177.8380  140.4830 C   0  0  1  0  0  3  0  0  0  0  0  0
  185.4120  177.7350  137.1990 C   0  0  0  0  0  2  0  0  0  0  0  0
  181.8330  180.5610  138.5630 C   0  0  0  0  0  0  0  0  0  0  0  0
  180.8350  179.5880  138.6620 C   0  0  0  0  0  3  0  0  0  0  0  0
  183.5280  178.9060  139.1280 C   0  0  0  0  0  0  0  0  0  0  0  0
  181.1770  178.2740  138.9920 C   0  0  0  0  0  3  0  0  0  0  0  0
  183.1680  180.2290  138.8120 C   0  0  0  0  0  3  0  0  0  0  0  0
  182.5130  177.9370  139.2310 C   0  0  0  0  0  3  0  0  0  0  0  0
  181.4790  181.9580  138.2110 C   0  0  0  0  0  1  0  0  0  0  0  0
  188.3840  178.2230  144.7450 C   0  0  0  0  0  2  0  0  0  0  0  0
  187.6510  177.1480  145.5550 C   0  0  0  0  0  2  0  0  0  0  0  0
  186.9160  177.8240  146.7100 C   0  0  2  0  0  3  0  0  0  0  0  0
  185.8990  179.9180  147.2130 F   0  0  0  0  0  0  0  0  0  0  0  0
  184.5390  178.4210  145.9680 C   0  0  0  0  0  1  0  0  0  0  0  0
  185.9480  178.9200  146.2580 C   0  0  2  0  0  3  0  0  0  0  0  0
  187.8410  178.2680  147.8550 C   0  0  0  0  0  2  0  0  0  0  0  0
  187.9090  177.2920  148.8520 O   0  0  0  0  0  1  0  0  0  0  0  0
  1 11  1  6  0  0  0
  1  8  1  0  0  0  0
  2 14  1  6  0  0  0
  2  8  1  0  0  0  0
  3 18  1  0  0  0  0
  4 10  1  0  0  0  0
  5 11  1  0  0  0  0
  5  6  1  0  0  0  0
  6  2  1  0  0  0  0
  7  9  2  0  0  0  0
  8  3  1  6  0  0  0
  9 17  1  0  0  0  0
 10 17  2  0  0  0  0
 12  3  1  0  0  0  0
 12 16  2  0  0  0  0
 13  1  1  0  0  0  0
 13 19  1  0  0  0  0
 15  4  2  0  0  0  0
 16 15  1  0  0  0  0
 17 27  1  0  0  0  0
 18  7  1  1  0  0  0
 18  4  1  0  0  0  0
 19 12  1  0  0  0  0
 20 21  2  0  0  0  0
 20 24  1  0  0  0  0
 21 23  1  0  0  0  0
 22 25  1  0  0  0  0
 22 16  1  0  0  0  0
 23 25  2  0  0  0  0
 24 22  2  0  0  0  0
 26 20  1  0  0  0  0
 27 28  1  0  0  0  0
 29 28  1  6  0  0  0
 29 33  1  0  0  0  0
 32 31  1  1  0  0  0
 32 29  1  0  0  0  0
 32 30  1  0  0  0  0
 33 34  1  0  0  0  0
M  END
>  <MODEL>
7

>  <REMARK>
 VINA RESULT:      -7.1      3.448      6.340
  Name = 
  6 active torsions:
  status: ('A' for Active; 'I' for Inactive)
    1  A    between atoms: C_3  and  C_13
    2  A    between atoms: C_3  and  C_29
    3  A    between atoms: C_12  and  C_28
    4  A    between atoms: C_13  and  C_22
    5  A    between atoms: C_20  and  C_22
    6  A    between atoms: C_22  and  C_33
                            x       y       z     vdW  Elec       q    Type
                         _______ _______ _______ _____ _____    ______ ____

>  <TORSDO>
F 6

$$$$
=
 OpenBabel10272400063D

 34 38  0  0  1  0  0  0  0  0999 V2000
  187.6760  176.5470  136.6430 C   0  0  2  0  0  3  0  0  0  0  0  0
  189.3760  177.9360  137.9880 C   0  0  2  0  0  3  0  0  0  0  0  0
  186.9970  177.7260  138.7800 N   0  0  0  0  0  0  0  0  0  0  0  0
  186.0970  178.5760  140.9560 C   0  0  0  0  0  0  0  0  0  0  0  0
  190.0620  176.9130  135.9080 C   0  0  0  0  0  2  0  0  0  0  0  0
  190.4650  177.2510  137.2780 N   0  0  0  0  0  2  0  0  0  0  0  0
  188.1820  177.3420  140.8700 C   0  0  0  0  0  3  0  0  0  0  0  0
  188.0880  177.0770  138.0200 C   0  0  1  0  0  3  0  0  0  0  0  0
  188.3080  177.4710  142.3320 C   0  0  0  0  0  3  0  0  0  0  0  0
  186.2930  178.9270  142.4070 C   0  0  0  0  0  3  0  0  0  0  0  0
  188.8780  175.9420  135.9150 C   0  0  0  0  0  2  0  0  0  0  0  0
  185.7190  178.0990  138.1820 C   0  0  0  0  0  0  0  0  0  0  0  0
  186.9120  177.8600  135.6580 S   0  0  0  0  0  0  0  0  0  0  0  0
  189.1700  179.3550  137.4640 C   0  0  0  0  0  1  0  0  0  0  0  0
  184.9990  178.9160  140.3540 N   0  0  0  0  0  0  0  0  0  0  0  0
  184.7300  178.6200  138.9700 C   0  0  0  0  0  0  0  0  0  0  0  0
  187.4470  178.1850  143.0560 C   0  0  0  0  0  0  0  0  0  0  0  0
  187.1500  177.8770  140.2060 C   0  0  1  0  0  3  0  0  0  0  0  0
  185.4400  177.8060  136.7320 C   0  0  0  0  0  2  0  0  0  0  0  0
  181.5490  180.5160  138.1730 C   0  0  0  0  0  0  0  0  0  0  0  0
  180.6880  179.4890  137.7810 C   0  0  0  0  0  3  0  0  0  0  0  0
  183.3540  178.9100  138.4840 C   0  0  0  0  0  0  0  0  0  0  0  0
  181.1530  178.1710  137.7370 C   0  0  0  0  0  3  0  0  0  0  0  0
  182.8670  180.2290  138.5410 C   0  0  0  0  0  3  0  0  0  0  0  0
  182.4740  177.8830  138.0930 C   0  0  0  0  0  3  0  0  0  0  0  0
  181.0640  181.9180  138.2210 C   0  0  0  0  0  1  0  0  0  0  0  0
  187.6370  178.1930  144.5450 C   0  0  0  0  0  2  0  0  0  0  0  0
  188.4720  177.0130  145.0510 C   0  0  0  0  0  2  0  0  0  0  0  0
  189.7200  177.5580  145.7420 C   0  0  2  0  0  3  0  0  0  0  0  0
  191.9820  176.8480  145.9700 F   0  0  0  0  0  0  0  0  0  0  0  0
  191.5640  178.2690  144.1140 C   0  0  0  0  0  1  0  0  0  0  0  0
  191.0230  177.1820  145.0320 C   0  0  2  0  0  3  0  0  0  0  0  0
  189.7550  177.2870  147.2560 C   0  0  0  0  0  2  0  0  0  0  0  0
  188.4970  176.9030  147.7250 O   0  0  0  0  0  1  0  0  0  0  0  0
  1 11  1  6  0  0  0
  1  8  1  0  0  0  0
  2 14  1  6  0  0  0
  2  8  1  0  0  0  0
  3 18  1  0  0  0  0
  4 10  1  0  0  0  0
  5 11  1  0  0  0  0
  5  6  1  0  0  0  0
  6  2  1  0  0  0  0
  7  9  2  0  0  0  0
  8  3  1  6  0  0  0
  9 17  1  0  0  0  0
 10 17  2  0  0  0  0
 12  3  1  0  0  0  0
 12 16  2  0  0  0  0
 13  1  1  0  0  0  0
 13 19  1  0  0  0  0
 15  4  2  0  0  0  0
 16 15  1  0  0  0  0
 17 27  1  0  0  0  0
 18  7  1  1  0  0  0
 18  4  1  0  0  0  0
 19 12  1  0  0  0  0
 20 26  1  0  0  0  0
 20 24  1  0  0  0  0
 21 20  2  0  0  0  0
 22 24  2  0  0  0  0
 22 16  1  0  0  0  0
 23 21  1  0  0  0  0
 23 25  2  0  0  0  0
 25 22  1  0  0  0  0
 27 28  1  0  0  0  0
 29 28  1  6  0  0  0
 29 33  1  0  0  0  0
 32 31  1  1  0  0  0
 32 29  1  0  0  0  0
 32 30  1  0  0  0  0
 33 34  1  0  0  0  0
M  END
>  <MODEL>
8

>  <REMARK>
 VINA RESULT:      -7.0      3.841      7.034
  Name = 
  6 active torsions:
  status: ('A' for Active; 'I' for Inactive)
    1  A    between atoms: C_3  and  C_13
    2  A    between atoms: C_3  and  C_29
    3  A    between atoms: C_12  and  C_28
    4  A    between atoms: C_13  and  C_22
    5  A    between atoms: C_20  and  C_22
    6  A    between atoms: C_22  and  C_33
                            x       y       z     vdW  Elec       q    Type
                         _______ _______ _______ _____ _____    ______ ____

>  <TORSDO>
F 6

$$$$
=
 OpenBabel10272400063D

 34 38  0  0  1  0  0  0  0  0999 V2000
  190.7330  176.1230  143.3750 C   0  0  2  0  0  3  0  0  0  0  0  0
  189.7360  178.1730  144.5710 C   0  0  2  0  0  3  0  0  0  0  0  0
  188.8510  177.4570  142.3270 N   0  0  0  0  0  0  0  0  0  0  0  0
  186.8610  178.4260  141.1580 C   0  0  0  0  0  0  0  0  0  0  0  0
  191.5910  176.9980  145.5800 C   0  0  0  0  0  2  0  0  0  0  0  0
  190.3270  177.6990  145.8300 N   0  0  0  0  0  2  0  0  0  0  0  0
  186.7610  177.8430  143.5090 C   0  0  0  0  0  3  0  0  0  0  0  0
  189.4990  177.0070  143.5790 C   0  0  1  0  0  3  0  0  0  0  0  0
  185.3570  178.2860  143.5490 C   0  0  0  0  0  3  0  0  0  0  0  0
  185.5140  179.0960  141.2040 C   0  0  0  0  0  2  0  0  0  0  0  0
  191.3620  175.7530  144.7200 C   0  0  0  0  0  2  0  0  0  0  0  0
  189.4760  177.3270  141.0130 C   0  0  0  0  0  0  0  0  0  0  0  0
  191.9360  176.9450  142.3000 S   0  0  0  0  0  0  0  0  0  0  0  0
  190.5220  179.3430  143.9870 C   0  0  0  0  0  1  0  0  0  0  0  0
  187.4870  178.3150  140.0280 N   0  0  0  0  0  0  0  0  0  0  0  0
  188.7780  177.6900  139.8950 C   0  0  0  0  0  0  0  0  0  0  0  0
  184.7640  178.8540  142.5010 C   0  0  0  0  0  0  0  0  0  0  0  0
  187.4880  177.9210  142.3880 C   0  0  0  0  0  0  0  0  0  0  0  0
  190.8320  176.6880  140.8720 C   0  0  0  0  0  2  0  0  0  0  0  0
  190.9680  176.5560  137.0190 C   0  0  0  0  0  0  0  0  0  0  0  0
  190.3830  177.2100  135.9320 C   0  0  0  0  0  3  0  0  0  0  0  0
  189.2730  177.4760  138.5080 C   0  0  0  0  0  0  0  0  0  0  0  0
  189.2430  177.9950  136.1250 C   0  0  0  0  0  3  0  0  0  0  0  0
  190.4300  176.7020  138.3010 C   0  0  0  0  0  3  0  0  0  0  0  0
  188.6970  178.1330  137.4050 C   0  0  0  0  0  3  0  0  0  0  0  0
  192.1770  175.7190  136.8230 C   0  0  0  0  0  1  0  0  0  0  0  0
  183.3110  179.2070  142.6360 C   0  0  0  0  0  2  0  0  0  0  0  0
  182.3740  178.0670  142.2270 C   0  0  0  0  0  2  0  0  0  0  0  0
  182.0620  178.2010  140.7390 C   0  0  2  0  0  3  0  0  0  0  0  0
  180.5150  179.9470  140.2560 F   0  0  0  0  0  0  0  0  0  0  0  0
  182.4870  179.9660  138.9340 C   0  0  0  0  0  1  0  0  0  0  0  0
  181.8650  179.6510  140.2860 C   0  0  2  0  0  3  0  0  0  0  0  0
  180.9470  177.2590  140.2550 C   0  0  0  0  0  2  0  0  0  0  0  0
  181.4770  176.0510  139.7970 O   0  0  0  0  0  1  0  0  0  0  0  0
  1  8  1  0  0  0  0
  1 11  1  1  0  0  0
  2 14  1  6  0  0  0
  2  6  1  0  0  0  0
  3 18  1  0  0  0  0
  4 10  1  0  0  0  0
  4 18  1  0  0  0  0
  5  6  1  0  0  0  0
  7  9  1  0  0  0  0
  8  3  1  6  0  0  0
  8  2  1  0  0  0  0
 10 17  1  0  0  0  0
 11  5  1  0  0  0  0
 12  3  1  0  0  0  0
 13  1  1  0  0  0  0
 15  4  2  0  0  0  0
 16 15  1  0  0  0  0
 16 12  2  0  0  0  0
 17 27  1  0  0  0  0
 17  9  2  0  0  0  0
 18  7  2  0  0  0  0
 19 12  1  0  0  0  0
 19 13  1  0  0  0  0
 20 24  1  0  0  0  0
 21 23  1  0  0  0  0
 21 20  2  0  0  0  0
 22 16  1  0  0  0  0
 23 25  2  0  0  0  0
 24 22  2  0  0  0  0
 25 22  1  0  0  0  0
 26 20  1  0  0  0  0
 28 27  1  0  0  0  0
 29 33  1  1  0  0  0
 29 28  1  0  0  0  0
 30 32  1  0  0  0  0
 32 31  1  6  0  0  0
 32 29  1  0  0  0  0
 34 33  1  0  0  0  0
M  END
>  <MODEL>
9

>  <REMARK>
 VINA RESULT:      -6.6      1.697      1.991
  Name = 
  6 active torsions:
  status: ('A' for Active; 'I' for Inactive)
    1  A    between atoms: C_3  and  C_13
    2  A    between atoms: C_3  and  C_29
    3  A    between atoms: C_12  and  C_28
    4  A    between atoms: C_13  and  C_22
    5  A    between atoms: C_20  and  C_22
    6  A    between atoms: C_22  and  C_33
                            x       y       z     vdW  Elec       q    Type
                         _______ _______ _______ _____ _____    ______ ____

>  <TORSDO>
F 6

$$$$
