=
 OpenBabel10272400553D

 25 28  0  0  1  0  0  0  0  0999 V2000
  189.9470  177.6860  145.3490 C   0  0  2  0  0  0  0  0  0  0  0  0
  188.7140  177.9620  144.4520 C   0  0  2  0  0  3  0  0  0  0  0  0
  190.9890  176.4140  143.3280 C   0  0  0  0  0  2  0  0  0  0  0  0
  189.7430  177.7030  146.8690 C   0  0  0  0  0  2  0  0  0  0  0  0
  192.4690  175.3070  148.0270 C   0  0  0  0  0  1  0  0  0  0  0  0
  189.5650  175.9420  143.1000 C   0  0  0  0  0  2  0  0  0  0  0  0
  191.8130  176.3830  147.1880 C   0  0  2  0  0  3  0  0  0  0  0  0
  190.3420  176.4790  147.5460 C   0  0  0  0  0  2  0  0  0  0  0  0
  187.2990  176.6720  142.9210 O   0  0  0  0  0  0  0  0  0  0  0  0
  186.4320  177.7810  142.9950 C   0  0  0  0  0  2  0  0  0  0  0  0
  187.5120  177.8510  145.1780 O   0  0  0  0  0  0  0  0  0  0  0  0
  191.2470  178.4370  144.9850 C   0  0  1  0  0  3  0  0  0  0  0  0
  191.1460  176.9250  144.7600 C   0  0  1  0  0  0  0  0  0  0  0  0
  191.9620  176.0330  145.7110 C   0  0  0  0  0  2  0  0  0  0  0  0
  191.1620  179.2590  143.6990 C   0  0  0  0  0  1  0  0  0  0  0  0
  186.4970  178.4350  144.3890 C   0  0  2  0  0  3  0  0  0  0  0  0
  188.6180  177.1330  143.1350 C   0  0  1  0  0  3  0  0  0  0  0  0
  185.1530  178.2800  145.0810 C   0  0  0  0  0  2  0  0  0  0  0  0
  184.1570  179.3270  144.5990 C   0  0  0  0  0  2  0  0  0  0  0  0
  182.7770  178.7260  144.3600 C   0  0  0  0  0  2  0  0  0  0  0  0
  182.2720  179.0280  142.9540 C   0  0  0  0  0  2  0  0  0  0  0  0
  183.3130  178.6820  141.8970 C   0  0  0  0  0  2  0  0  0  0  0  0
  182.7020  178.6700  140.5000 C   0  0  0  0  0  2  0  0  0  0  0  0
  183.6100  179.3520  139.4910 C   0  0  0  0  0  2  0  0  0  0  0  0
  184.8310  179.6720  140.0870 O   0  0  0  0  0  1  0  0  0  0  0  0
  1  4  1  1  0  0  0
  2 11  1  1  0  0  0
  2  1  1  0  0  0  0
  4  8  1  0  0  0  0
  6  3  1  0  0  0  0
  7  8  1  0  0  0  0
  7  5  1  1  0  0  0
  9 10  1  0  0  0  0
  9 17  1  0  0  0  0
 10 16  1  0  0  0  0
 12 15  1  6  0  0  0
 12  1  1  0  0  0  0
 13  3  1  6  0  0  0
 13 12  1  0  0  0  0
 13  1  1  0  0  0  0
 13 14  1  0  0  0  0
 14  7  1  0  0  0  0
 16 18  1  1  0  0  0
 16 11  1  0  0  0  0
 17  6  1  1  0  0  0
 17  2  1  0  0  0  0
 19 18  1  0  0  0  0
 20 19  1  0  0  0  0
 21 20  1  0  0  0  0
 22 21  1  0  0  0  0
 23 22  1  0  0  0  0
 24 25  1  0  0  0  0
 24 23  1  0  0  0  0
M  END
>  <MODEL>
1

>  <REMARK>
 VINA RESULT:      -7.9      0.000      0.000
  Name = 
  7 active torsions:
  status: ('A' for Active; 'I' for Inactive)
    1  A    between atoms: C_2  and  C_7
    2  A    between atoms: C_2  and  C_25
    3  A    between atoms: C_6  and  C_15
    4  A    between atoms: C_6  and  C_21
    5  A    between atoms: C_15  and  C_20
    6  A    between atoms: C_20  and  C_23
    7  A    between atoms: C_21  and  C_25
                            x       y       z     vdW  Elec       q    Type
                         _______ _______ _______ _____ _____    ______ ____

>  <TORSDO>
F 7

$$$$
=
 OpenBabel10272400553D

 25 28  0  0  1  0  0  0  0  0999 V2000
  189.3860  178.0160  144.2530 C   0  0  2  0  0  0  0  0  0  0  0  0
  189.3250  178.0570  142.7060 C   0  0  2  0  0  3  0  0  0  0  0  0
  191.3730  176.3470  144.0160 C   0  0  0  0  0  2  0  0  0  0  0  0
  188.1110  178.3680  145.0290 C   0  0  0  0  0  2  0  0  0  0  0  0
  188.5850  176.3530  148.2260 C   0  0  0  0  0  1  0  0  0  0  0  0
  190.5660  175.8050  142.8520 C   0  0  0  0  0  2  0  0  0  0  0  0
  188.9740  177.1990  147.0330 C   0  0  2  0  0  3  0  0  0  0  0  0
  187.7850  177.3410  146.1020 C   0  0  0  0  0  2  0  0  0  0  0  0
  189.3780  176.4260  140.8760 O   0  0  0  0  0  0  0  0  0  0  0  0
  188.9490  177.5040  140.0760 C   0  0  0  0  0  2  0  0  0  0  0  0
  187.9960  178.0850  142.2420 O   0  0  0  0  0  0  0  0  0  0  0  0
  190.6070  178.6950  144.9140 C   0  0  1  0  0  3  0  0  0  0  0  0
  190.4720  177.1690  144.9380 C   0  0  1  0  0  0  0  0  0  0  0  0
  190.1290  176.5310  146.2940 C   0  0  0  0  0  2  0  0  0  0  0  0
  191.6560  179.2060  143.9270 C   0  0  0  0  0  1  0  0  0  0  0  0
  188.0410  178.4550  140.8800 C   0  0  2  0  0  3  0  0  0  0  0  0
  190.1280  176.9520  141.9520 C   0  0  1  0  0  3  0  0  0  0  0  0
  186.6390  178.4290  140.2920 C   0  0  0  0  0  2  0  0  0  0  0  0
  185.6320  179.0820  141.2300 C   0  0  0  0  0  2  0  0  0  0  0  0
  184.2930  178.3550  141.2160 C   0  0  0  0  0  2  0  0  0  0  0  0
  183.5500  178.5260  142.5350 C   0  0  0  0  0  2  0  0  0  0  0  0
  184.5060  178.5320  143.7220 C   0  0  0  0  0  2  0  0  0  0  0  0
  183.8240  179.0550  144.9800 C   0  0  0  0  0  2  0  0  0  0  0  0
  184.4610  178.4830  146.2360 C   0  0  0  0  0  2  0  0  0  0  0  0
  185.2710  179.4450  146.8410 O   0  0  0  0  0  1  0  0  0  0  0  0
  1 12  1  0  0  0  0
  1 13  1  0  0  0  0
  1  4  1  1  0  0  0
  2 11  1  1  0  0  0
  2  1  1  0  0  0  0
  4  8  1  0  0  0  0
  6  3  1  0  0  0  0
  7  5  1  1  0  0  0
  8  7  1  0  0  0  0
  9 17  1  0  0  0  0
 10  9  1  0  0  0  0
 10 16  1  0  0  0  0
 12 15  1  6  0  0  0
 12 13  1  0  0  0  0
 13  3  1  6  0  0  0
 13 14  1  0  0  0  0
 14  7  1  0  0  0  0
 16 18  1  6  0  0  0
 16 11  1  0  0  0  0
 17  2  1  0  0  0  0
 17  6  1  1  0  0  0
 18 19  1  0  0  0  0
 20 19  1  0  0  0  0
 20 21  1  0  0  0  0
 21 22  1  0  0  0  0
 22 23  1  0  0  0  0
 23 24  1  0  0  0  0
 24 25  1  0  0  0  0
M  END
>  <MODEL>
2

>  <REMARK>
 VINA RESULT:      -7.8      1.743      3.322
  Name = 
  7 active torsions:
  status: ('A' for Active; 'I' for Inactive)
    1  A    between atoms: C_2  and  C_7
    2  A    between atoms: C_2  and  C_25
    3  A    between atoms: C_6  and  C_15
    4  A    between atoms: C_6  and  C_21
    5  A    between atoms: C_15  and  C_20
    6  A    between atoms: C_20  and  C_23
    7  A    between atoms: C_21  and  C_25
                            x       y       z     vdW  Elec       q    Type
                         _______ _______ _______ _____ _____    ______ ____

>  <TORSDO>
F 7

$$$$
=
 OpenBabel10272400553D

 25 28  0  0  1  0  0  0  0  0999 V2000
  189.2030  176.9760  143.0070 C   0  0  2  0  0  0  0  0  0  0  0  0
  189.0680  177.0750  144.5470 C   0  0  2  0  0  3  0  0  0  0  0  0
  191.6840  177.7200  143.2920 C   0  0  0  0  0  2  0  0  0  0  0  0
  187.9260  177.1120  142.1670 C   0  0  0  0  0  2  0  0  0  0  0  0
  189.3050  178.5320  138.9130 C   0  0  0  0  0  1  0  0  0  0  0  0
  191.1190  178.6220  144.3730 C   0  0  0  0  0  2  0  0  0  0  0  0
  189.2690  177.6900  140.1700 C   0  0  2  0  0  3  0  0  0  0  0  0
  188.0880  178.1040  141.0260 C   0  0  0  0  0  2  0  0  0  0  0  0
  189.7030  178.6730  146.2940 O   0  0  0  0  0  0  0  0  0  0  0  0
  188.8420  177.9180  147.1170 C   0  0  0  0  0  2  0  0  0  0  0  0
  187.8240  177.6160  144.9240 O   0  0  0  0  0  0  0  0  0  0  0  0
  190.0690  175.8190  142.4630 C   0  0  1  0  0  3  0  0  0  0  0  0
  190.5650  177.2650  142.3540 C   0  0  1  0  0  0  0  0  0  0  0  0
  190.5650  177.8880  140.9490 C   0  0  0  0  0  2  0  0  0  0  0  0
  190.7810  175.0010  143.5400 C   0  0  0  0  0  1  0  0  0  0  0  0
  187.6600  177.3580  146.3020 C   0  0  2  0  0  3  0  0  0  0  0  0
  190.2180  177.8150  145.2970 C   0  0  1  0  0  3  0  0  0  0  0  0
  186.3660  177.9870  146.7940 C   0  0  0  0  0  2  0  0  0  0  0  0
  185.7560  178.8980  145.7370 C   0  0  0  0  0  2  0  0  0  0  0  0
  184.2340  178.8110  145.7290 C   0  0  0  0  0  2  0  0  0  0  0  0
  183.6790  178.8860  144.3110 C   0  0  0  0  0  2  0  0  0  0  0  0
  184.7920  178.9260  143.2730 C   0  0  0  0  0  2  0  0  0  0  0  0
  184.4490  178.0730  142.0570 C   0  0  0  0  0  2  0  0  0  0  0  0
  183.9300  178.9240  140.9100 C   0  0  0  0  0  2  0  0  0  0  0  0
  184.9840  179.6230  140.3200 O   0  0  0  0  0  1  0  0  0  0  0  0
  1  4  1  6  0  0  0
  1  2  1  0  0  0  0
  2 11  1  6  0  0  0
  2 17  1  0  0  0  0
  3  6  1  0  0  0  0
  7  5  1  6  0  0  0
  7 14  1  0  0  0  0
  7  8  1  0  0  0  0
  8  4  1  0  0  0  0
  9 10  1  0  0  0  0
 11 16  1  0  0  0  0
 12  1  1  0  0  0  0
 12 15  1  1  0  0  0
 13 14  1  6  0  0  0
 13 12  1  0  0  0  0
 13  1  1  0  0  0  0
 13  3  1  0  0  0  0
 16 18  1  1  0  0  0
 16 10  1  0  0  0  0
 17  6  1  6  0  0  0
 17  9  1  0  0  0  0
 19 18  1  0  0  0  0
 20 19  1  0  0  0  0
 21 20  1  0  0  0  0
 22 21  1  0  0  0  0
 23 22  1  0  0  0  0
 24 23  1  0  0  0  0
 25 24  1  0  0  0  0
M  END
>  <MODEL>
3

>  <REMARK>
 VINA RESULT:      -7.7      1.782      4.058
  Name = 
  7 active torsions:
  status: ('A' for Active; 'I' for Inactive)
    1  A    between atoms: C_2  and  C_7
    2  A    between atoms: C_2  and  C_25
    3  A    between atoms: C_6  and  C_15
    4  A    between atoms: C_6  and  C_21
    5  A    between atoms: C_15  and  C_20
    6  A    between atoms: C_20  and  C_23
    7  A    between atoms: C_21  and  C_25
                            x       y       z     vdW  Elec       q    Type
                         _______ _______ _______ _____ _____    ______ ____

>  <TORSDO>
F 7

$$$$
=
 OpenBabel10272400553D

 25 28  0  0  1  0  0  0  0  0999 V2000
  189.5180  178.0210  144.0460 C   0  0  2  0  0  0  0  0  0  0  0  0
  189.7340  177.9140  142.5150 C   0  0  2  0  0  3  0  0  0  0  0  0
  191.5080  176.3610  144.3250 C   0  0  0  0  0  2  0  0  0  0  0  0
  188.1260  178.4280  144.5450 C   0  0  0  0  0  2  0  0  0  0  0  0
  188.0150  176.7290  147.9520 C   0  0  0  0  0  1  0  0  0  0  0  0
  190.9190  175.7020  143.0920 C   0  0  0  0  0  2  0  0  0  0  0  0
  188.6140  177.4630  146.7720 C   0  0  2  0  0  3  0  0  0  0  0  0
  187.6100  177.5020  145.6360 C   0  0  0  0  0  2  0  0  0  0  0  0
  190.1050  176.1200  140.8870 O   0  0  0  0  0  0  0  0  0  0  0  0
  189.8300  177.1130  139.9240 C   0  0  0  0  0  2  0  0  0  0  0  0
  188.5090  177.8820  141.8220 O   0  0  0  0  0  0  0  0  0  0  0  0
  190.6050  178.7740  144.8450 C   0  0  1  0  0  3  0  0  0  0  0  0
  190.4610  177.2550  144.9900 C   0  0  1  0  0  0  0  0  0  0  0  0
  189.8790  176.7430  146.3180 C   0  0  0  0  0  2  0  0  0  0  0  0
  191.8150  179.2030  144.0160 C   0  0  0  0  0  1  0  0  0  0  0  0
  188.7970  178.1230  140.4610 C   0  0  2  0  0  3  0  0  0  0  0  0
  190.6530  176.7540  142.0250 C   0  0  1  0  0  3  0  0  0  0  0  0
  187.5220  178.0240  139.6380 C   0  0  0  0  0  2  0  0  0  0  0  0
  187.8290  177.7710  138.1670 C   0  0  0  0  0  2  0  0  0  0  0  0
  186.6530  178.1460  137.2730 C   0  0  0  0  0  2  0  0  0  0  0  0
  185.4680  177.2120  137.4900 C   0  0  0  0  0  2  0  0  0  0  0  0
  184.1910  177.9850  137.7910 C   0  0  0  0  0  2  0  0  0  0  0  0
  183.7900  177.8450  139.2550 C   0  0  0  0  0  2  0  0  0  0  0  0
  184.0830  179.1150  140.0360 C   0  0  0  0  0  2  0  0  0  0  0  0
  184.4160  180.1480  139.1590 O   0  0  0  0  0  1  0  0  0  0  0  0
  1  4  1  1  0  0  0
  1 12  1  0  0  0  0
  1 13  1  0  0  0  0
  2 11  1  6  0  0  0
  2  1  1  0  0  0  0
  4  8  1  0  0  0  0
  6  3  1  0  0  0  0
  7  5  1  1  0  0  0
  8  7  1  0  0  0  0
  9 17  1  0  0  0  0
 10 16  1  0  0  0  0
 10  9  1  0  0  0  0
 12 15  1  6  0  0  0
 12 13  1  0  0  0  0
 13  3  1  6  0  0  0
 13 14  1  0  0  0  0
 14  7  1  0  0  0  0
 16 18  1  6  0  0  0
 16 11  1  0  0  0  0
 17  2  1  0  0  0  0
 17  6  1  1  0  0  0
 19 18  1  0  0  0  0
 20 21  1  0  0  0  0
 20 19  1  0  0  0  0
 21 22  1  0  0  0  0
 22 23  1  0  0  0  0
 23 24  1  0  0  0  0
 25 24  1  0  0  0  0
M  END
>  <MODEL>
4

>  <REMARK>
 VINA RESULT:      -7.1      2.250      3.838
  Name = 
  7 active torsions:
  status: ('A' for Active; 'I' for Inactive)
    1  A    between atoms: C_2  and  C_7
    2  A    between atoms: C_2  and  C_25
    3  A    between atoms: C_6  and  C_15
    4  A    between atoms: C_6  and  C_21
    5  A    between atoms: C_15  and  C_20
    6  A    between atoms: C_20  and  C_23
    7  A    between atoms: C_21  and  C_25
                            x       y       z     vdW  Elec       q    Type
                         _______ _______ _______ _____ _____    ______ ____

>  <TORSDO>
F 7

$$$$
=
 OpenBabel10272400553D

 25 28  0  0  1  0  0  0  0  0999 V2000
  189.4600  178.0520  144.0590 C   0  0  2  0  0  0  0  0  0  0  0  0
  189.7270  177.9490  142.5360 C   0  0  2  0  0  3  0  0  0  0  0  0
  191.4940  176.4600  144.4060 C   0  0  0  0  0  2  0  0  0  0  0  0
  188.0410  178.4140  144.5140 C   0  0  0  0  0  2  0  0  0  0  0  0
  187.8800  176.7210  147.9220 C   0  0  0  0  0  1  0  0  0  0  0  0
  190.9670  175.7790  143.1580 C   0  0  0  0  0  2  0  0  0  0  0  0
  188.4910  177.4720  146.7580 C   0  0  2  0  0  3  0  0  0  0  0  0
  187.5220  177.4740  145.5910 C   0  0  0  0  0  2  0  0  0  0  0  0
  190.2080  176.1630  140.9270 O   0  0  0  0  0  0  0  0  0  0  0  0
  189.9300  177.1430  139.9530 C   0  0  0  0  0  2  0  0  0  0  0  0
  188.5260  177.8740  141.8050 O   0  0  0  0  0  0  0  0  0  0  0  0
  190.4960  178.8420  144.8890 C   0  0  1  0  0  3  0  0  0  0  0  0
  190.3980  177.3200  145.0340 C   0  0  1  0  0  0  0  0  0  0  0  0
  189.7930  176.7930  146.3460 C   0  0  0  0  0  2  0  0  0  0  0  0
  191.7170  179.3100  144.0960 C   0  0  0  0  0  1  0  0  0  0  0  0
  188.8480  178.1200  140.4530 C   0  0  2  0  0  3  0  0  0  0  0  0
  190.6990  176.8180  142.0790 C   0  0  1  0  0  3  0  0  0  0  0  0
  187.6030  177.9770  139.5920 C   0  0  0  0  0  2  0  0  0  0  0  0
  187.9040  177.2170  138.3050 C   0  0  0  0  0  2  0  0  0  0  0  0
  188.0540  178.1590  137.1160 C   0  0  0  0  0  2  0  0  0  0  0  0
  189.3570  177.9080  136.3670 C   0  0  0  0  0  2  0  0  0  0  0  0
  189.6770  176.4220  136.2770 C   0  0  0  0  0  2  0  0  0  0  0  0
  191.1670  176.1630  136.4630 C   0  0  0  0  0  2  0  0  0  0  0  0
  191.4150  174.9460  137.3380 C   0  0  0  0  0  2  0  0  0  0  0  0
  190.1990  174.3780  137.7210 O   0  0  0  0  0  1  0  0  0  0  0  0
  1  4  1  1  0  0  0
  1 12  1  0  0  0  0
  1 13  1  0  0  0  0
  2 11  1  6  0  0  0
  2  1  1  0  0  0  0
  4  8  1  0  0  0  0
  6  3  1  0  0  0  0
  7  5  1  1  0  0  0
  8  7  1  0  0  0  0
  9 17  1  0  0  0  0
 10 16  1  0  0  0  0
 10  9  1  0  0  0  0
 12 15  1  6  0  0  0
 12 13  1  0  0  0  0
 13  3  1  6  0  0  0
 13 14  1  0  0  0  0
 14  7  1  0  0  0  0
 16 18  1  6  0  0  0
 16 11  1  0  0  0  0
 17  2  1  0  0  0  0
 17  6  1  1  0  0  0
 19 18  1  0  0  0  0
 20 19  1  0  0  0  0
 21 20  1  0  0  0  0
 22 21  1  0  0  0  0
 22 23  1  0  0  0  0
 23 24  1  0  0  0  0
 24 25  1  0  0  0  0
M  END
>  <MODEL>
5

>  <REMARK>
 VINA RESULT:      -6.8      3.667      5.431
  Name = 
  7 active torsions:
  status: ('A' for Active; 'I' for Inactive)
    1  A    between atoms: C_2  and  C_7
    2  A    between atoms: C_2  and  C_25
    3  A    between atoms: C_6  and  C_15
    4  A    between atoms: C_6  and  C_21
    5  A    between atoms: C_15  and  C_20
    6  A    between atoms: C_20  and  C_23
    7  A    between atoms: C_21  and  C_25
                            x       y       z     vdW  Elec       q    Type
                         _______ _______ _______ _____ _____    ______ ____

>  <TORSDO>
F 7

$$$$
=
 OpenBabel10272400553D

 25 28  0  0  1  0  0  0  0  0999 V2000
  187.9840  178.0640  139.1850 C   0  0  2  0  0  0  0  0  0  0  0  0
  186.6960  178.0340  138.3240 C   0  0  2  0  0  3  0  0  0  0  0  0
  189.0090  176.3580  137.5040 C   0  0  0  0  0  2  0  0  0  0  0  0
  187.8490  178.4690  140.6590 C   0  0  0  0  0  2  0  0  0  0  0  0
  190.7710  176.5970  142.2290 C   0  0  0  0  0  1  0  0  0  0  0  0
  187.6100  175.7740  137.4930 C   0  0  0  0  0  2  0  0  0  0  0  0
  190.0110  177.3810  141.1820 C   0  0  2  0  0  3  0  0  0  0  0  0
  188.5550  177.4960  141.5920 C   0  0  0  0  0  2  0  0  0  0  0  0
  185.2960  176.3200  137.2690 O   0  0  0  0  0  0  0  0  0  0  0  0
  184.3650  177.3660  137.1050 C   0  0  0  0  0  2  0  0  0  0  0  0
  185.5380  178.0590  139.1250 O   0  0  0  0  0  0  0  0  0  0  0  0
  189.2150  178.7550  138.5600 C   0  0  1  0  0  3  0  0  0  0  0  0
  189.2000  177.2340  138.7420 C   0  0  1  0  0  0  0  0  0  0  0  0
  190.1130  176.6640  139.8400 C   0  0  0  0  0  2  0  0  0  0  0  0
  189.0200  179.2070  137.1130 C   0  0  0  0  0  1  0  0  0  0  0  0
  184.4530  178.3650  138.2750 C   0  0  2  0  0  3  0  0  0  0  0  0
  186.5910  176.8850  137.2750 C   0  0  1  0  0  3  0  0  0  0  0  0
  183.1540  178.3310  139.0640 C   0  0  0  0  0  2  0  0  0  0  0  0
  183.3090  177.5340  140.3530 C   0  0  0  0  0  2  0  0  0  0  0  0
  183.0960  178.4060  141.5850 C   0  0  0  0  0  2  0  0  0  0  0  0
  184.4220  178.8370  142.2000 C   0  0  0  0  0  2  0  0  0  0  0  0
  184.3610  178.8450  143.7220 C   0  0  0  0  0  2  0  0  0  0  0  0
  185.6270  178.2530  144.3310 C   0  0  0  0  0  2  0  0  0  0  0  0
  185.5950  178.3160  145.8490 C   0  0  0  0  0  2  0  0  0  0  0  0
  184.3850  178.8640  146.2780 O   0  0  0  0  0  1  0  0  0  0  0  0
  1  4  1  1  0  0  0
  2 11  1  1  0  0  0
  2  1  1  0  0  0  0
  4  8  1  0  0  0  0
  6  3  1  0  0  0  0
  7  8  1  0  0  0  0
  7  5  1  1  0  0  0
  9 17  1  0  0  0  0
 10  9  1  0  0  0  0
 10 16  1  0  0  0  0
 12 15  1  6  0  0  0
 12 13  1  0  0  0  0
 12  1  1  0  0  0  0
 13  3  1  6  0  0  0
 13  1  1  0  0  0  0
 13 14  1  0  0  0  0
 14  7  1  0  0  0  0
 16 18  1  1  0  0  0
 16 11  1  0  0  0  0
 17  6  1  1  0  0  0
 17  2  1  0  0  0  0
 18 19  1  0  0  0  0
 19 20  1  0  0  0  0
 20 21  1  0  0  0  0
 21 22  1  0  0  0  0
 22 23  1  0  0  0  0
 23 24  1  0  0  0  0
 24 25  1  0  0  0  0
M  END
>  <MODEL>
6

>  <REMARK>
 VINA RESULT:      -6.7      3.332      5.910
  Name = 
  7 active torsions:
  status: ('A' for Active; 'I' for Inactive)
    1  A    between atoms: C_2  and  C_7
    2  A    between atoms: C_2  and  C_25
    3  A    between atoms: C_6  and  C_15
    4  A    between atoms: C_6  and  C_21
    5  A    between atoms: C_15  and  C_20
    6  A    between atoms: C_20  and  C_23
    7  A    between atoms: C_21  and  C_25
                            x       y       z     vdW  Elec       q    Type
                         _______ _______ _______ _____ _____    ______ ____

>  <TORSDO>
F 7

$$$$
=
 OpenBabel10272400553D

 25 28  0  0  1  0  0  0  0  0999 V2000
  189.9230  177.9210  144.6760 C   0  0  2  0  0  0  0  0  0  0  0  0
  188.9830  178.2080  143.4780 C   0  0  2  0  0  3  0  0  0  0  0  0
  191.7060  177.1450  142.9420 C   0  0  0  0  0  2  0  0  0  0  0  0
  189.2780  177.6490  146.0410 C   0  0  0  0  0  2  0  0  0  0  0  0
  191.8870  175.4100  147.6800 C   0  0  0  0  0  1  0  0  0  0  0  0
  190.5090  176.5630  142.2140 C   0  0  0  0  0  2  0  0  0  0  0  0
  191.3440  176.5350  146.8250 C   0  0  2  0  0  3  0  0  0  0  0  0
  189.8380  176.4020  146.7070 C   0  0  0  0  0  2  0  0  0  0  0  0
  188.3110  177.0550  141.4220 O   0  0  0  0  0  0  0  0  0  0  0  0
  187.2950  178.0300  141.3610 C   0  0  0  0  0  2  0  0  0  0  0  0
  187.6540  177.8390  143.7630 O   0  0  0  0  0  0  0  0  0  0  0  0
  191.1340  178.8650  144.8440 C   0  0  1  0  0  3  0  0  0  0  0  0
  191.3490  177.4130  144.4040 C   0  0  1  0  0  0  0  0  0  0  0  0
  191.9780  176.4660  145.4390 C   0  0  0  0  0  2  0  0  0  0  0  0
  191.3030  179.8840  143.7180 C   0  0  0  0  0  1  0  0  0  0  0  0
  186.8380  178.4340  142.7760 C   0  0  2  0  0  3  0  0  0  0  0  0
  189.4150  177.6160  142.1020 C   0  0  1  0  0  3  0  0  0  0  0  0
  185.3930  178.0100  142.9790 C   0  0  0  0  0  2  0  0  0  0  0  0
  184.5340  179.1770  143.4510 C   0  0  0  0  0  2  0  0  0  0  0  0
  184.8430  179.5560  144.8950 C   0  0  0  0  0  2  0  0  0  0  0  0
  184.5010  178.4220  145.8540 C   0  0  0  0  0  2  0  0  0  0  0  0
  185.7120  177.9960  146.6750 C   0  0  0  0  0  2  0  0  0  0  0  0
  186.1970  179.1250  147.5770 C   0  0  0  0  0  2  0  0  0  0  0  0
  187.5490  178.8040  148.1900 C   0  0  0  0  0  2  0  0  0  0  0  0
  187.4570  177.6520  148.9730 O   0  0  0  0  0  1  0  0  0  0  0  0
  1 12  1  0  0  0  0
  1  4  1  1  0  0  0
  2 11  1  1  0  0  0
  2  1  1  0  0  0  0
  4  8  1  0  0  0  0
  6  3  1  0  0  0  0
  7  5  1  1  0  0  0
  8  7  1  0  0  0  0
  9 17  1  0  0  0  0
 10  9  1  0  0  0  0
 10 16  1  0  0  0  0
 12 15  1  6  0  0  0
 13  3  1  6  0  0  0
 13  1  1  0  0  0  0
 13 12  1  0  0  0  0
 13 14  1  0  0  0  0
 14  7  1  0  0  0  0
 16 18  1  1  0  0  0
 16 11  1  0  0  0  0
 17  6  1  1  0  0  0
 17  2  1  0  0  0  0
 18 19  1  0  0  0  0
 19 20  1  0  0  0  0
 20 21  1  0  0  0  0
 21 22  1  0  0  0  0
 22 23  1  0  0  0  0
 23 24  1  0  0  0  0
 24 25  1  0  0  0  0
M  END
>  <MODEL>
7

>  <REMARK>
 VINA RESULT:      -6.7      1.820      3.580
  Name = 
  7 active torsions:
  status: ('A' for Active; 'I' for Inactive)
    1  A    between atoms: C_2  and  C_7
    2  A    between atoms: C_2  and  C_25
    3  A    between atoms: C_6  and  C_15
    4  A    between atoms: C_6  and  C_21
    5  A    between atoms: C_15  and  C_20
    6  A    between atoms: C_20  and  C_23
    7  A    between atoms: C_21  and  C_25
                            x       y       z     vdW  Elec       q    Type
                         _______ _______ _______ _____ _____    ______ ____

>  <TORSDO>
F 7

$$$$
=
 OpenBabel10272400553D

 25 28  0  0  1  0  0  0  0  0999 V2000
  189.4340  178.0550  144.0940 C   0  0  2  0  0  0  0  0  0  0  0  0
  189.6740  177.9530  142.5660 C   0  0  2  0  0  3  0  0  0  0  0  0
  191.4770  176.4690  144.4050 C   0  0  0  0  0  2  0  0  0  0  0  0
  188.0210  178.4140  144.5730 C   0  0  0  0  0  2  0  0  0  0  0  0
  187.9240  176.7210  147.9840 C   0  0  0  0  0  1  0  0  0  0  0  0
  190.9290  175.7860  143.1670 C   0  0  0  0  0  2  0  0  0  0  0  0
  188.5120  177.4740  146.8090 C   0  0  2  0  0  3  0  0  0  0  0  0
  187.5230  177.4730  145.6600 C   0  0  0  0  0  2  0  0  0  0  0  0
  190.1310  176.1680  140.9500 O   0  0  0  0  0  0  0  0  0  0  0  0
  189.8340  177.1480  139.9800 C   0  0  0  0  0  2  0  0  0  0  0  0
  188.4600  177.8750  141.8570 O   0  0  0  0  0  0  0  0  0  0  0  0
  190.4820  178.8490  144.9050 C   0  0  1  0  0  3  0  0  0  0  0  0
  190.3900  177.3260  145.0530 C   0  0  1  0  0  0  0  0  0  0  0  0
  189.8090  176.7980  146.3750 C   0  0  0  0  0  2  0  0  0  0  0  0
  191.6870  179.3190  144.0920 C   0  0  0  0  0  1  0  0  0  0  0  0
  188.7580  178.1220  140.4990 C   0  0  2  0  0  3  0  0  0  0  0  0
  190.6400  176.8250  142.0920 C   0  0  1  0  0  3  0  0  0  0  0  0
  187.4990  177.9750  139.6600 C   0  0  0  0  0  2  0  0  0  0  0  0
  187.8360  177.7100  138.1970 C   0  0  0  0  0  2  0  0  0  0  0  0
  186.7510  178.2370  137.2650 C   0  0  0  0  0  2  0  0  0  0  0  0
  185.3610  178.0330  137.8540 C   0  0  0  0  0  2  0  0  0  0  0  0
  184.5290  177.0720  137.0150 C   0  0  0  0  0  2  0  0  0  0  0  0
  183.7540  176.0970  137.8930 C   0  0  0  0  0  2  0  0  0  0  0  0
  183.9070  174.6660  137.4050 C   0  0  0  0  0  2  0  0  0  0  0  0
  185.2590  174.3240  137.3490 O   0  0  0  0  0  1  0  0  0  0  0  0
  1  4  1  1  0  0  0
  1 12  1  0  0  0  0
  1 13  1  0  0  0  0
  2 11  1  6  0  0  0
  2  1  1  0  0  0  0
  4  8  1  0  0  0  0
  6  3  1  0  0  0  0
  7  5  1  1  0  0  0
  8  7  1  0  0  0  0
  9 17  1  0  0  0  0
 10 16  1  0  0  0  0
 10  9  1  0  0  0  0
 12 15  1  6  0  0  0
 12 13  1  0  0  0  0
 13  3  1  6  0  0  0
 13 14  1  0  0  0  0
 14  7  1  0  0  0  0
 16 18  1  6  0  0  0
 16 11  1  0  0  0  0
 17  2  1  0  0  0  0
 17  6  1  1  0  0  0
 19 18  1  0  0  0  0
 20 21  1  0  0  0  0
 20 19  1  0  0  0  0
 22 21  1  0  0  0  0
 22 23  1  0  0  0  0
 24 23  1  0  0  0  0
 25 24  1  0  0  0  0
M  END
>  <MODEL>
8

>  <REMARK>
 VINA RESULT:      -6.5      2.831      4.216
  Name = 
  7 active torsions:
  status: ('A' for Active; 'I' for Inactive)
    1  A    between atoms: C_2  and  C_7
    2  A    between atoms: C_2  and  C_25
    3  A    between atoms: C_6  and  C_15
    4  A    between atoms: C_6  and  C_21
    5  A    between atoms: C_15  and  C_20
    6  A    between atoms: C_20  and  C_23
    7  A    between atoms: C_21  and  C_25
                            x       y       z     vdW  Elec       q    Type
                         _______ _______ _______ _____ _____    ______ ____

>  <TORSDO>
F 7

$$$$
=
 OpenBabel10272400553D

 25 28  0  0  1  0  0  0  0  0999 V2000
  189.3070  178.0380  144.2730 C   0  0  2  0  0  0  0  0  0  0  0  0
  189.3430  178.0490  142.7230 C   0  0  2  0  0  3  0  0  0  0  0  0
  191.2800  176.3380  144.1910 C   0  0  0  0  0  2  0  0  0  0  0  0
  187.9910  178.4210  144.9600 C   0  0  0  0  0  2  0  0  0  0  0  0
  188.2360  176.4620  148.2170 C   0  0  0  0  0  1  0  0  0  0  0  0
  190.5400  175.7840  142.9890 C   0  0  0  0  0  2  0  0  0  0  0  0
  188.7100  177.2800  147.0350 C   0  0  2  0  0  3  0  0  0  0  0  0
  187.5840  177.4190  146.0300 C   0  0  0  0  0  2  0  0  0  0  0  0
  189.4870  176.3830  140.9310 O   0  0  0  0  0  0  0  0  0  0  0  0
  189.1240  177.4500  140.0860 C   0  0  0  0  0  2  0  0  0  0  0  0
  188.0460  178.0850  142.1770 O   0  0  0  0  0  0  0  0  0  0  0  0
  190.4940  178.7130  144.9950 C   0  0  1  0  0  3  0  0  0  0  0  0
  190.3360  177.1890  145.0390 C   0  0  1  0  0  0  0  0  0  0  0  0
  189.9000  176.5820  146.3830 C   0  0  0  0  0  2  0  0  0  0  0  0
  191.6100  179.1910  144.0660 C   0  0  0  0  0  1  0  0  0  0  0  0
  188.1810  178.4280  140.8140 C   0  0  2  0  0  3  0  0  0  0  0  0
  190.1750  176.9190  142.0430 C   0  0  1  0  0  3  0  0  0  0  0  0
  186.8180  178.4090  140.1400 C   0  0  0  0  0  2  0  0  0  0  0  0
  185.7160  178.8280  141.1050 C   0  0  0  0  0  2  0  0  0  0  0  0
  184.3310  178.6050  140.5110 C   0  0  0  0  0  2  0  0  0  0  0  0
  184.3650  178.6390  138.9880 C   0  0  0  0  0  2  0  0  0  0  0  0
  182.9880  178.9200  138.4000 C   0  0  0  0  0  2  0  0  0  0  0  0
  182.0730  179.5820  139.4230 C   0  0  0  0  0  2  0  0  0  0  0  0
  181.0340  180.4640  138.7500 C   0  0  0  0  0  2  0  0  0  0  0  0
  181.3290  180.5980  137.3930 O   0  0  0  0  0  1  0  0  0  0  0  0
  1  4  1  1  0  0  0
  1 12  1  0  0  0  0
  1 13  1  0  0  0  0
  2 11  1  6  0  0  0
  2  1  1  0  0  0  0
  4  8  1  0  0  0  0
  6  3  1  0  0  0  0
  7  5  1  1  0  0  0
  8  7  1  0  0  0  0
  9 17  1  0  0  0  0
 10 16  1  0  0  0  0
 10  9  1  0  0  0  0
 12 15  1  6  0  0  0
 12 13  1  0  0  0  0
 13  3  1  6  0  0  0
 13 14  1  0  0  0  0
 14  7  1  0  0  0  0
 16 18  1  6  0  0  0
 16 11  1  0  0  0  0
 17  2  1  0  0  0  0
 17  6  1  1  0  0  0
 18 19  1  0  0  0  0
 20 19  1  0  0  0  0
 21 20  1  0  0  0  0
 22 21  1  0  0  0  0
 22 23  1  0  0  0  0
 24 23  1  0  0  0  0
 25 24  1  0  0  0  0
M  END
>  <MODEL>
9

>  <REMARK>
 VINA RESULT:      -6.3      2.199      3.085
  Name = 
  7 active torsions:
  status: ('A' for Active; 'I' for Inactive)
    1  A    between atoms: C_2  and  C_7
    2  A    between atoms: C_2  and  C_25
    3  A    between atoms: C_6  and  C_15
    4  A    between atoms: C_6  and  C_21
    5  A    between atoms: C_15  and  C_20
    6  A    between atoms: C_20  and  C_23
    7  A    between atoms: C_21  and  C_25
                            x       y       z     vdW  Elec       q    Type
                         _______ _______ _______ _____ _____    ______ ____

>  <TORSDO>
F 7

$$$$
