=
 OpenBabel10272400483D

 25 29  0  0  1  0  0  0  0  0999 V2000
  189.1380  177.7270  143.3420 C   0  0  2  0  0  3  0  0  0  0  0  0
  187.9120  177.8150  144.2080 C   0  0  0  0  0  0  0  0  0  0  0  0
  190.5920  177.5140  145.3050 C   0  0  0  0  0  2  0  0  0  0  0  0
  188.9620  177.1490  141.9540 C   0  0  2  0  0  3  0  0  0  0  0  0
  189.9710  177.5050  139.2810 C   0  0  0  0  0  3  0  0  0  0  0  0
  189.3960  177.5190  146.2730 C   0  0  0  0  0  2  0  0  0  0  0  0
  190.3030  176.7490  141.5230 N   0  0  0  0  0  0  0  0  0  0  0  0
  190.6980  176.8020  140.1480 C   0  0  0  0  0  3  0  0  0  0  0  0
  186.9180  177.9950  146.4060 C   0  0  0  0  0  0  0  0  0  0  0  0
  187.0070  177.9690  147.7930 O   0  0  0  0  0  1  0  0  0  0  0  0
  186.6910  178.0440  143.6530 N   0  0  0  0  0  0  0  0  0  0  0  0
  188.7950  178.2630  139.7470 C   0  0  0  0  0  3  0  0  0  0  0  0
  190.1700  176.8480  144.0100 C   0  0  2  0  0  3  0  0  0  0  0  0
  191.5080  176.6080  142.8090 S   0  0  0  0  0  0  0  0  0  0  0  0
  185.6780  178.2040  145.8040 C   0  0  0  0  0  3  0  0  0  0  0  0
  188.3460  178.1400  141.0000 C   0  0  0  0  0  3  0  0  0  0  0  0
  185.5730  178.2270  144.4080 C   0  0  0  0  0  0  0  0  0  0  0  0
  188.0590  177.8130  145.6150 C   0  0  0  0  0  0  0  0  0  0  0  0
  182.9010  178.5830  141.7410 C   0  0  0  0  0  0  0  0  0  0  0  0
  184.2690  178.4570  143.7490 C   0  0  0  0  0  0  0  0  0  0  0  0
  184.1380  178.3640  142.3540 C   0  0  0  0  0  3  0  0  0  0  0  0
  182.7750  178.4810  140.2640 C   0  0  0  0  0  1  0  0  0  0  0  0
  183.1390  178.7740  144.5190 C   0  0  0  0  0  3  0  0  0  0  0  0
  181.7820  178.8980  142.5170 C   0  0  0  0  0  3  0  0  0  0  0  0
  181.9020  178.9930  143.9060 C   0  0  0  0  0  3  0  0  0  0  0  0
  1 13  1  0  0  0  0
  1  2  1  1  0  0  0
  2 18  1  0  0  0  0
  3  6  1  0  0  0  0
  4 16  1  6  0  0  0
  4  1  1  0  0  0  0
  5 12  1  0  0  0  0
  5  8  2  0  0  0  0
  7  4  1  0  0  0  0
  7 14  1  0  0  0  0
  8  7  1  0  0  0  0
  9 10  1  0  0  0  0
 11  2  2  0  0  0  0
 11 17  1  0  0  0  0
 12 16  2  0  0  0  0
 13  3  1  1  0  0  0
 14 13  1  0  0  0  0
 15  9  1  0  0  0  0
 17 15  2  0  0  0  0
 18  6  1  0  0  0  0
 18  9  2  0  0  0  0
 19 21  2  0  0  0  0
 19 24  1  0  0  0  0
 20 17  1  0  0  0  0
 20 23  2  0  0  0  0
 21 20  1  0  0  0  0
 22 19  1  0  0  0  0
 24 25  2  0  0  0  0
 25 23  1  0  0  0  0
M  END
>  <MODEL>
1

>  <REMARK>
 VINA RESULT:     -10.7      0.000      0.000
  Name = 
  1 active torsions:
  status: ('A' for Active; 'I' for Inactive)
    1  A    between atoms: C_6  and  C_23
                            x       y       z     vdW  Elec       q    Type
                         _______ _______ _______ _____ _____    ______ ____

>  <TORSDO>
F 1

$$$$
=
 OpenBabel10272400483D

 25 29  0  0  1  0  0  0  0  0999 V2000
  189.0610  177.7940  143.2300 C   0  0  2  0  0  3  0  0  0  0  0  0
  187.7920  177.8800  144.0320 C   0  0  0  0  0  0  0  0  0  0  0  0
  190.4200  177.6650  145.2670 C   0  0  0  0  0  2  0  0  0  0  0  0
  188.9640  177.1730  141.8520 C   0  0  2  0  0  3  0  0  0  0  0  0
  190.0970  177.4770  139.2220 C   0  0  0  0  0  3  0  0  0  0  0  0
  189.1780  177.6720  146.1750 C   0  0  0  0  0  2  0  0  0  0  0  0
  190.3330  176.7900  141.4990 N   0  0  0  0  0  0  0  0  0  0  0  0
  190.7940  176.8130  140.1440 C   0  0  0  0  0  3  0  0  0  0  0  0
  186.6880  178.1000  146.1730 C   0  0  0  0  0  0  0  0  0  0  0  0
  186.7090  178.1140  147.5630 O   0  0  0  0  0  1  0  0  0  0  0  0
  186.5960  178.0680  143.4120 N   0  0  0  0  0  0  0  0  0  0  0  0
  188.8850  178.2220  139.6090 C   0  0  0  0  0  3  0  0  0  0  0  0
  190.0760  176.9560  143.9720 C   0  0  2  0  0  3  0  0  0  0  0  0
  191.4750  176.7100  142.8460 S   0  0  0  0  0  0  0  0  0  0  0  0
  185.4740  178.2660  145.5060 C   0  0  0  0  0  3  0  0  0  0  0  0
  188.3770  178.1250  140.8410 C   0  0  0  0  0  3  0  0  0  0  0  0
  185.4380  178.2480  144.1060 C   0  0  0  0  0  0  0  0  0  0  0  0
  187.8700  177.9200  145.4440 C   0  0  0  0  0  0  0  0  0  0  0  0
  181.7610  178.8090  143.3740 C   0  0  0  0  0  0  0  0  0  0  0  0
  184.1640  178.4330  143.3780 C   0  0  0  0  0  0  0  0  0  0  0  0
  182.9590  178.6350  144.0710 C   0  0  0  0  0  3  0  0  0  0  0  0
  180.4930  179.0220  144.1190 C   0  0  0  0  0  1  0  0  0  0  0  0
  184.1460  178.4070  141.9750 C   0  0  0  0  0  3  0  0  0  0  0  0
  181.7540  178.7810  141.9770 C   0  0  0  0  0  3  0  0  0  0  0  0
  182.9470  178.5810  141.2780 C   0  0  0  0  0  3  0  0  0  0  0  0
  1 13  1  0  0  0  0
  1  2  1  1  0  0  0
  2 18  1  0  0  0  0
  3  6  1  0  0  0  0
  4 16  1  6  0  0  0
  4  1  1  0  0  0  0
  5 12  1  0  0  0  0
  5  8  2  0  0  0  0
  7  4  1  0  0  0  0
  7 14  1  0  0  0  0
  8  7  1  0  0  0  0
  9 10  1  0  0  0  0
 11  2  2  0  0  0  0
 11 17  1  0  0  0  0
 12 16  2  0  0  0  0
 13  3  1  1  0  0  0
 14 13  1  0  0  0  0
 15  9  1  0  0  0  0
 17 15  2  0  0  0  0
 18  9  2  0  0  0  0
 18  6  1  0  0  0  0
 19 21  1  0  0  0  0
 19 22  1  0  0  0  0
 20 21  2  0  0  0  0
 20 17  1  0  0  0  0
 23 20  1  0  0  0  0
 24 19  2  0  0  0  0
 25 23  2  0  0  0  0
 25 24  1  0  0  0  0
M  END
>  <MODEL>
2

>  <REMARK>
 VINA RESULT:     -10.4      0.422      1.357
  Name = 
  1 active torsions:
  status: ('A' for Active; 'I' for Inactive)
    1  A    between atoms: C_6  and  C_23
                            x       y       z     vdW  Elec       q    Type
                         _______ _______ _______ _____ _____    ______ ____

>  <TORSDO>
F 1

$$$$
=
 OpenBabel10272400483D

 25 29  0  0  1  0  0  0  0  0999 V2000
  186.8140  177.7030  144.7350 C   0  0  2  0  0  3  0  0  0  0  0  0
  188.1680  177.5310  144.1060 C   0  0  0  0  0  0  0  0  0  0  0  0
  187.7120  177.2110  146.9630 C   0  0  0  0  0  2  0  0  0  0  0  0
  185.8500  178.6480  144.0500 C   0  0  2  0  0  3  0  0  0  0  0  0
  183.0330  178.9040  143.5110 C   0  0  0  0  0  3  0  0  0  0  0  0
  189.1490  177.0880  146.4290 C   0  0  0  0  0  2  0  0  0  0  0  0
  184.8480  178.9880  145.0620 N   0  0  0  0  0  0  0  0  0  0  0  0
  183.4870  179.2590  144.7120 C   0  0  0  0  0  3  0  0  0  0  0  0
  190.4920  176.8880  144.2970 C   0  0  0  0  0  0  0  0  0  0  0  0
  191.6030  176.5320  145.0540 O   0  0  0  0  0  1  0  0  0  0  0  0
  188.3150  177.6040  142.7550 N   0  0  0  0  0  0  0  0  0  0  0  0
  183.9160  178.1920  142.5690 C   0  0  0  0  0  3  0  0  0  0  0  0
  186.9700  178.2440  146.1380 C   0  0  2  0  0  3  0  0  0  0  0  0
  185.3030  178.6380  146.7340 S   0  0  0  0  0  0  0  0  0  0  0  0
  190.6140  176.9940  142.9120 C   0  0  0  0  0  3  0  0  0  0  0  0
  185.2160  178.0270  142.8310 C   0  0  0  0  0  3  0  0  0  0  0  0
  189.5040  177.3580  142.1390 C   0  0  0  0  0  0  0  0  0  0  0  0
  189.2610  177.1400  144.9140 C   0  0  0  0  0  0  0  0  0  0  0  0
  190.7080  176.9020  138.5730 C   0  0  0  0  0  0  0  0  0  0  0  0
  189.6080  177.4670  140.6680 C   0  0  0  0  0  0  0  0  0  0  0  0
  190.6180  176.7920  139.9630 C   0  0  0  0  0  3  0  0  0  0  0  0
  191.7820  176.1830  137.8390 C   0  0  0  0  0  1  0  0  0  0  0  0
  188.6900  178.2530  139.9540 C   0  0  0  0  0  3  0  0  0  0  0  0
  189.7890  177.6870  137.8720 C   0  0  0  0  0  3  0  0  0  0  0  0
  188.7800  178.3630  138.5640 C   0  0  0  0  0  3  0  0  0  0  0  0
  1  2  1  6  0  0  0
  1 13  1  0  0  0  0
  2 18  1  0  0  0  0
  4 16  1  6  0  0  0
  4  1  1  0  0  0  0
  4  7  1  0  0  0  0
  5  8  2  0  0  0  0
  6  3  1  0  0  0  0
  7 14  1  0  0  0  0
  8  7  1  0  0  0  0
  9 18  2  0  0  0  0
  9 10  1  0  0  0  0
 11  2  2  0  0  0  0
 12 16  2  0  0  0  0
 12  5  1  0  0  0  0
 13 14  1  0  0  0  0
 13  3  1  1  0  0  0
 15  9  1  0  0  0  0
 17 11  1  0  0  0  0
 17 15  2  0  0  0  0
 18  6  1  0  0  0  0
 19 21  1  0  0  0  0
 20 17  1  0  0  0  0
 21 20  2  0  0  0  0
 22 19  1  0  0  0  0
 23 20  1  0  0  0  0
 24 25  1  0  0  0  0
 24 19  2  0  0  0  0
 25 23  2  0  0  0  0
M  END
>  <MODEL>
3

>  <REMARK>
 VINA RESULT:     -10.3      2.226      6.100
  Name = 
  1 active torsions:
  status: ('A' for Active; 'I' for Inactive)
    1  A    between atoms: C_6  and  C_23
                            x       y       z     vdW  Elec       q    Type
                         _______ _______ _______ _____ _____    ______ ____

>  <TORSDO>
F 1

$$$$
=
 OpenBabel10272400483D

 25 29  0  0  1  0  0  0  0  0999 V2000
  187.3110  177.6570  145.4310 C   0  0  2  0  0  3  0  0  0  0  0  0
  188.7530  177.4750  145.0480 C   0  0  0  0  0  0  0  0  0  0  0  0
  187.8300  177.3400  147.8060 C   0  0  0  0  0  2  0  0  0  0  0  0
  186.4640  178.5310  144.5300 C   0  0  2  0  0  3  0  0  0  0  0  0
  183.7730  178.6820  143.5150 C   0  0  0  0  0  3  0  0  0  0  0  0
  189.3380  177.2140  147.5270 C   0  0  0  0  0  2  0  0  0  0  0  0
  185.3030  178.9150  145.3350 N   0  0  0  0  0  0  0  0  0  0  0  0
  184.0160  179.1290  144.7470 C   0  0  0  0  0  3  0  0  0  0  0  0
  191.0200  176.9010  145.6680 C   0  0  0  0  0  0  0  0  0  0  0  0
  191.9930  176.6230  146.6210 O   0  0  0  0  0  1  0  0  0  0  0  0
  189.1220  177.4580  143.7390 N   0  0  0  0  0  0  0  0  0  0  0  0
  184.8100  177.9290  142.7850 C   0  0  0  0  0  3  0  0  0  0  0  0
  187.2240  178.2960  146.7980 C   0  0  2  0  0  3  0  0  0  0  0  0
  185.4770  178.6900  147.0810 S   0  0  0  0  0  0  0  0  0  0  0  0
  191.3700  176.9150  144.3180 C   0  0  0  0  0  3  0  0  0  0  0  0
  186.0500  177.8130  143.2700 C   0  0  0  0  0  3  0  0  0  0  0  0
  190.4000  177.2000  143.3470 C   0  0  0  0  0  0  0  0  0  0  0  0
  189.7000  177.1650  146.0520 C   0  0  0  0  0  0  0  0  0  0  0  0
  190.0970  177.0520  139.5710 C   0  0  0  0  0  0  0  0  0  0  0  0
  190.7470  177.2110  141.9100 C   0  0  0  0  0  0  0  0  0  0  0  0
  189.7590  177.0400  140.9260 C   0  0  0  0  0  3  0  0  0  0  0  0
  189.0430  176.8700  138.5400 C   0  0  0  0  0  1  0  0  0  0  0  0
  192.0800  177.3950  141.5100 C   0  0  0  0  0  3  0  0  0  0  0  0
  191.4270  177.2360  139.1830 C   0  0  0  0  0  3  0  0  0  0  0  0
  192.4190  177.4070  140.1530 C   0  0  0  0  0  3  0  0  0  0  0  0
  1  2  1  6  0  0  0
  1 13  1  0  0  0  0
  2 18  1  0  0  0  0
  4 16  1  6  0  0  0
  4  7  1  0  0  0  0
  4  1  1  0  0  0  0
  5  8  2  0  0  0  0
  6  3  1  0  0  0  0
  7 14  1  0  0  0  0
  8  7  1  0  0  0  0
  9 18  2  0  0  0  0
  9 10  1  0  0  0  0
 11  2  2  0  0  0  0
 12 16  2  0  0  0  0
 12  5  1  0  0  0  0
 13 14  1  0  0  0  0
 13  3  1  1  0  0  0
 15  9  1  0  0  0  0
 17 11  1  0  0  0  0
 17 15  2  0  0  0  0
 18  6  1  0  0  0  0
 19 21  1  0  0  0  0
 20 17  1  0  0  0  0
 21 20  2  0  0  0  0
 22 19  1  0  0  0  0
 23 20  1  0  0  0  0
 24 19  2  0  0  0  0
 24 25  1  0  0  0  0
 25 23  2  0  0  0  0
M  END
>  <MODEL>
4

>  <REMARK>
 VINA RESULT:     -10.2      2.394      6.180
  Name = 
  1 active torsions:
  status: ('A' for Active; 'I' for Inactive)
    1  A    between atoms: C_6  and  C_23
                            x       y       z     vdW  Elec       q    Type
                         _______ _______ _______ _____ _____    ______ ____

>  <TORSDO>
F 1

$$$$
=
 OpenBabel10272400483D

 25 29  0  0  1  0  0  0  0  0999 V2000
  186.2180  178.0230  141.8040 C   0  0  2  0  0  3  0  0  0  0  0  0
  185.9630  178.2520  143.2670 C   0  0  0  0  0  0  0  0  0  0  0  0
  183.8660  178.4490  141.2580 C   0  0  0  0  0  2  0  0  0  0  0  0
  187.6080  178.3330  141.2900 C   0  0  2  0  0  3  0  0  0  0  0  0
  189.5130  177.3390  139.3720 C   0  0  0  0  0  3  0  0  0  0  0  0
  183.5170  178.7750  142.7200 C   0  0  0  0  0  2  0  0  0  0  0  0
  187.4660  178.4790  139.8400 N   0  0  0  0  0  0  0  0  0  0  0  0
  188.5160  178.1100  138.9390 C   0  0  0  0  0  3  0  0  0  0  0  0
  184.4060  178.6280  145.0810 C   0  0  0  0  0  0  0  0  0  0  0  0
  183.1330  178.9170  145.5580 O   0  0  0  0  0  1  0  0  0  0  0  0
  186.9560  178.0620  144.1780 N   0  0  0  0  0  0  0  0  0  0  0  0
  189.5060  176.8310  140.7570 C   0  0  0  0  0  3  0  0  0  0  0  0
  185.2900  178.8900  140.9840 C   0  0  2  0  0  3  0  0  0  0  0  0
  185.8160  178.7300  139.2560 S   0  0  0  0  0  0  0  0  0  0  0  0
  185.4520  178.4500  145.9860 C   0  0  0  0  0  3  0  0  0  0  0  0
  188.5970  177.2510  141.6420 C   0  0  0  0  0  3  0  0  0  0  0  0
  186.7410  178.1640  145.5190 C   0  0  0  0  0  0  0  0  0  0  0  0
  184.6440  178.5160  143.7050 C   0  0  0  0  0  0  0  0  0  0  0  0
  190.1380  177.2390  146.9260 C   0  0  0  0  0  0  0  0  0  0  0  0
  187.8620  177.9620  146.4620 C   0  0  0  0  0  0  0  0  0  0  0  0
  189.0850  177.4260  146.0270 C   0  0  0  0  0  3  0  0  0  0  0  0
  191.4270  176.6710  146.4530 C   0  0  0  0  0  1  0  0  0  0  0  0
  187.7140  178.3090  147.8140 C   0  0  0  0  0  3  0  0  0  0  0  0
  189.9800  177.5880  148.2700 C   0  0  0  0  0  3  0  0  0  0  0  0
  188.7670  178.1220  148.7140 C   0  0  0  0  0  3  0  0  0  0  0  0
  1  2  1  1  0  0  0
  2 18  2  0  0  0  0
  2 11  1  0  0  0  0
  3  6  1  0  0  0  0
  4 16  1  6  0  0  0
  4  1  1  0  0  0  0
  5 12  1  0  0  0  0
  6 18  1  0  0  0  0
  7  4  1  0  0  0  0
  8  5  2  0  0  0  0
  8  7  1  0  0  0  0
  9 10  1  0  0  0  0
  9 15  2  0  0  0  0
 11 17  2  0  0  0  0
 12 16  2  0  0  0  0
 13  3  1  6  0  0  0
 13  1  1  0  0  0  0
 14  7  1  0  0  0  0
 14 13  1  0  0  0  0
 17 15  1  0  0  0  0
 17 20  1  0  0  0  0
 18  9  1  0  0  0  0
 19 24  1  0  0  0  0
 20 23  2  0  0  0  0
 21 20  1  0  0  0  0
 21 19  2  0  0  0  0
 22 19  1  0  0  0  0
 23 25  1  0  0  0  0
 24 25  2  0  0  0  0
M  END
>  <MODEL>
5

>  <REMARK>
 VINA RESULT:     -10.0      2.203      5.494
  Name = 
  1 active torsions:
  status: ('A' for Active; 'I' for Inactive)
    1  A    between atoms: C_6  and  C_23
                            x       y       z     vdW  Elec       q    Type
                         _______ _______ _______ _____ _____    ______ ____

>  <TORSDO>
F 1

$$$$
=
 OpenBabel10272400483D

 25 29  0  0  1  0  0  0  0  0999 V2000
  187.5580  178.1820  145.3770 C   0  0  2  0  0  3  0  0  0  0  0  0
  186.5360  178.3140  144.2820 C   0  0  0  0  0  0  0  0  0  0  0  0
  185.8720  178.6440  147.0970 C   0  0  0  0  0  2  0  0  0  0  0  0
  188.7350  177.2670  145.1150 C   0  0  2  0  0  3  0  0  0  0  0  0
  191.5530  177.0960  145.6810 C   0  0  0  0  0  3  0  0  0  0  0  0
  184.7390  178.7250  146.0600 C   0  0  0  0  0  2  0  0  0  0  0  0
  189.2900  176.9560  146.4340 N   0  0  0  0  0  0  0  0  0  0  0  0
  190.6900  176.7260  146.6260 C   0  0  0  0  0  3  0  0  0  0  0  0
  184.2940  178.8870  143.5770 C   0  0  0  0  0  0  0  0  0  0  0  0
  182.9710  179.2090  143.8560 O   0  0  0  0  0  1  0  0  0  0  0  0
  186.9120  178.2390  142.9770 N   0  0  0  0  0  0  0  0  0  0  0  0
  191.0700  177.7820  144.4680 C   0  0  0  0  0  3  0  0  0  0  0  0
  186.8990  177.6350  146.6230 C   0  0  2  0  0  3  0  0  0  0  0  0
  188.2280  177.2900  147.8080 S   0  0  0  0  0  0  0  0  0  0  0  0
  184.7070  178.7800  142.2500 C   0  0  0  0  0  3  0  0  0  0  0  0
  189.7640  177.9080  144.2190 C   0  0  0  0  0  3  0  0  0  0  0  0
  186.0360  178.4500  141.9550 C   0  0  0  0  0  0  0  0  0  0  0  0
  185.2090  178.6720  144.6160 C   0  0  0  0  0  0  0  0  0  0  0  0
  188.2840  178.0580  138.9270 C   0  0  0  0  0  0  0  0  0  0  0  0
  186.4980  178.3400  140.5550 C   0  0  0  0  0  0  0  0  0  0  0  0
  187.8580  178.1610  140.2540 C   0  0  0  0  0  3  0  0  0  0  0  0
  189.7250  177.8690  138.6220 C   0  0  0  0  0  1  0  0  0  0  0  0
  185.5720  178.4140  139.5020 C   0  0  0  0  0  3  0  0  0  0  0  0
  187.3540  178.1330  137.8870 C   0  0  0  0  0  3  0  0  0  0  0  0
  185.9980  178.3100  138.1750 C   0  0  0  0  0  3  0  0  0  0  0  0
  1  2  1  6  0  0  0
  1 13  1  0  0  0  0
  2 18  1  0  0  0  0
  4 16  1  6  0  0  0
  4  1  1  0  0  0  0
  4  7  1  0  0  0  0
  5  8  2  0  0  0  0
  6  3  1  0  0  0  0
  7  8  1  0  0  0  0
  7 14  1  0  0  0  0
  9 10  1  0  0  0  0
  9 18  2  0  0  0  0
 11  2  2  0  0  0  0
 12  5  1  0  0  0  0
 13  3  1  1  0  0  0
 13 14  1  0  0  0  0
 15  9  1  0  0  0  0
 16 12  2  0  0  0  0
 17 15  2  0  0  0  0
 17 11  1  0  0  0  0
 18  6  1  0  0  0  0
 19 21  1  0  0  0  0
 20 17  1  0  0  0  0
 21 20  2  0  0  0  0
 22 19  1  0  0  0  0
 23 20  1  0  0  0  0
 24 25  1  0  0  0  0
 24 19  2  0  0  0  0
 25 23  2  0  0  0  0
M  END
>  <MODEL>
6

>  <REMARK>
 VINA RESULT:      -9.8      2.321      4.941
  Name = 
  1 active torsions:
  status: ('A' for Active; 'I' for Inactive)
    1  A    between atoms: C_6  and  C_23
                            x       y       z     vdW  Elec       q    Type
                         _______ _______ _______ _____ _____    ______ ____

>  <TORSDO>
F 1

$$$$
=
 OpenBabel10272400483D

 25 29  0  0  1  0  0  0  0  0999 V2000
  187.8240  178.0460  145.5020 C   0  0  2  0  0  3  0  0  0  0  0  0
  187.0740  178.1670  144.2050 C   0  0  0  0  0  0  0  0  0  0  0  0
  185.8240  178.6360  146.7920 C   0  0  0  0  0  2  0  0  0  0  0  0
  188.9900  177.0820  145.5360 C   0  0  2  0  0  3  0  0  0  0  0  0
  191.6070  176.8400  146.7140 C   0  0  0  0  0  3  0  0  0  0  0  0
  184.9500  178.7110  145.5280 C   0  0  0  0  0  2  0  0  0  0  0  0
  189.2300  176.8070  146.9540 N   0  0  0  0  0  0  0  0  0  0  0  0
  190.5430  176.5380  147.4580 C   0  0  0  0  0  3  0  0  0  0  0  0
  185.0660  178.7860  143.0040 C   0  0  0  0  0  0  0  0  0  0  0  0
  183.7290  179.1630  142.9730 O   0  0  0  0  0  1  0  0  0  0  0  0
  187.7230  178.0250  143.0170 N   0  0  0  0  0  0  0  0  0  0  0  0
  191.4310  177.4910  145.4030 C   0  0  0  0  0  3  0  0  0  0  0  0
  186.8870  177.5740  146.5890 C   0  0  2  0  0  3  0  0  0  0  0  0
  187.9080  177.2340  148.0480 S   0  0  0  0  0  0  0  0  0  0  0  0
  185.7550  178.6090  141.8050 C   0  0  0  0  0  3  0  0  0  0  0  0
  190.2170  177.6500  144.8680 C   0  0  0  0  0  3  0  0  0  0  0  0
  187.1020  178.2220  141.8210 C   0  0  0  0  0  0  0  0  0  0  0  0
  185.7220  178.5820  144.2250 C   0  0  0  0  0  0  0  0  0  0  0  0
  187.9530  178.0590  138.1310 C   0  0  0  0  0  0  0  0  0  0  0  0
  187.8530  178.0380  140.5620 C   0  0  0  0  0  0  0  0  0  0  0  0
  187.2350  178.2350  139.3160 C   0  0  0  0  0  3  0  0  0  0  0  0
  187.2870  178.2690  136.8190 C   0  0  0  0  0  1  0  0  0  0  0  0
  189.2050  177.6630  140.5980 C   0  0  0  0  0  3  0  0  0  0  0  0
  189.2990  177.6840  138.1780 C   0  0  0  0  0  3  0  0  0  0  0  0
  189.9240  177.4860  139.4120 C   0  0  0  0  0  3  0  0  0  0  0  0
  1  2  1  6  0  0  0
  1  4  1  0  0  0  0
  1 13  1  0  0  0  0
  2 18  1  0  0  0  0
  4 16  1  1  0  0  0
  4  7  1  0  0  0  0
  5  8  2  0  0  0  0
  6  3  1  0  0  0  0
  7  8  1  0  0  0  0
  7 14  1  0  0  0  0
  9 18  2  0  0  0  0
 10  9  1  0  0  0  0
 11  2  2  0  0  0  0
 12  5  1  0  0  0  0
 13  3  1  1  0  0  0
 13 14  1  0  0  0  0
 15 17  2  0  0  0  0
 15  9  1  0  0  0  0
 16 12  2  0  0  0  0
 17 11  1  0  0  0  0
 18  6  1  0  0  0  0
 19 24  2  0  0  0  0
 19 21  1  0  0  0  0
 20 23  1  0  0  0  0
 20 17  1  0  0  0  0
 21 20  2  0  0  0  0
 22 19  1  0  0  0  0
 24 25  1  0  0  0  0
 25 23  2  0  0  0  0
M  END
>  <MODEL>
7

>  <REMARK>
 VINA RESULT:      -9.8      2.438      5.453
  Name = 
  1 active torsions:
  status: ('A' for Active; 'I' for Inactive)
    1  A    between atoms: C_6  and  C_23
                            x       y       z     vdW  Elec       q    Type
                         _______ _______ _______ _____ _____    ______ ____

>  <TORSDO>
F 1

$$$$
=
 OpenBabel10272400483D

 25 29  0  0  1  0  0  0  0  0999 V2000
  188.8140  177.8380  145.0670 C   0  0  2  0  0  3  0  0  0  0  0  0
  187.3190  178.0020  145.0910 C   0  0  0  0  0  0  0  0  0  0  0  0
  188.9280  177.9060  147.5160 C   0  0  0  0  0  2  0  0  0  0  0  0
  189.4060  177.0880  143.8940 C   0  0  2  0  0  3  0  0  0  0  0  0
  191.7400  177.1350  142.2080 C   0  0  0  0  0  3  0  0  0  0  0  0
  187.3980  178.0010  147.6510 C   0  0  0  0  0  2  0  0  0  0  0  0
  190.7410  176.6720  144.3280 N   0  0  0  0  0  0  0  0  0  0  0  0
  191.8320  176.5630  143.4080 C   0  0  0  0  0  3  0  0  0  0  0  0
  185.2860  178.4280  146.3310 C   0  0  0  0  0  0  0  0  0  0  0  0
  184.5920  178.5760  147.5260 O   0  0  0  0  0  1  0  0  0  0  0  0
  186.6220  178.1300  143.9300 N   0  0  0  0  0  0  0  0  0  0  0  0
  190.5410  177.9150  141.8520 C   0  0  0  0  0  3  0  0  0  0  0  0
  189.2610  177.0750  146.2930 C   0  0  2  0  0  3  0  0  0  0  0  0
  191.0260  176.7210  146.0730 S   0  0  0  0  0  0  0  0  0  0  0  0
  184.5970  178.5310  145.1230 C   0  0  0  0  0  3  0  0  0  0  0  0
  189.4690  177.9380  142.6500 C   0  0  0  0  0  3  0  0  0  0  0  0
  185.2820  178.3770  143.9110 C   0  0  0  0  0  0  0  0  0  0  0  0
  186.6640  178.1780  146.3320 C   0  0  0  0  0  0  0  0  0  0  0  0
  184.6000  178.6150  140.1890 C   0  0  0  0  0  0  0  0  0  0  0  0
  184.5730  178.4910  142.6190 C   0  0  0  0  0  0  0  0  0  0  0  0
  185.2790  178.5070  141.4050 C   0  0  0  0  0  3  0  0  0  0  0  0
  185.3590  178.6310  138.9120 C   0  0  0  0  0  1  0  0  0  0  0  0
  183.1730  178.5850  142.5920 C   0  0  0  0  0  3  0  0  0  0  0  0
  183.2050  178.7080  140.1740 C   0  0  0  0  0  3  0  0  0  0  0  0
  182.4920  178.6930  141.3750 C   0  0  0  0  0  3  0  0  0  0  0  0
  1  2  1  6  0  0  0
  1 13  1  0  0  0  0
  2 18  1  0  0  0  0
  3  6  1  0  0  0  0
  4 16  1  6  0  0  0
  4  7  1  0  0  0  0
  4  1  1  0  0  0  0
  5  8  2  0  0  0  0
  7 14  1  0  0  0  0
  8  7  1  0  0  0  0
  9 18  2  0  0  0  0
  9 10  1  0  0  0  0
 11  2  2  0  0  0  0
 12  5  1  0  0  0  0
 12 16  2  0  0  0  0
 13  3  1  1  0  0  0
 14 13  1  0  0  0  0
 15  9  1  0  0  0  0
 17 11  1  0  0  0  0
 17 15  2  0  0  0  0
 18  6  1  0  0  0  0
 19 21  1  0  0  0  0
 20 17  1  0  0  0  0
 21 20  2  0  0  0  0
 22 19  1  0  0  0  0
 23 20  1  0  0  0  0
 24 19  2  0  0  0  0
 24 25  1  0  0  0  0
 25 23  2  0  0  0  0
M  END
>  <MODEL>
8

>  <REMARK>
 VINA RESULT:      -9.7      1.635      2.299
  Name = 
  1 active torsions:
  status: ('A' for Active; 'I' for Inactive)
    1  A    between atoms: C_6  and  C_23
                            x       y       z     vdW  Elec       q    Type
                         _______ _______ _______ _____ _____    ______ ____

>  <TORSDO>
F 1

$$$$
=
 OpenBabel10272400483D

 25 29  0  0  1  0  0  0  0  0999 V2000
  188.0560  177.9570  144.9260 C   0  0  2  0  0  3  0  0  0  0  0  0
  186.6190  178.1270  144.5180 C   0  0  0  0  0  0  0  0  0  0  0  0
  187.5040  178.3480  147.2830 C   0  0  0  0  0  2  0  0  0  0  0  0
  188.9160  177.0570  144.0650 C   0  0  2  0  0  3  0  0  0  0  0  0
  191.6200  176.8750  143.0920 C   0  0  0  0  0  3  0  0  0  0  0  0
  186.0000  178.4640  146.9800 C   0  0  0  0  0  2  0  0  0  0  0  0
  190.0650  176.6980  144.8980 N   0  0  0  0  0  0  0  0  0  0  0  0
  191.3600  176.4660  144.3340 C   0  0  0  0  0  3  0  0  0  0  0  0
  184.3440  178.7180  145.0880 C   0  0  0  0  0  0  0  0  0  0  0  0
  183.3580  179.0250  146.0190 O   0  0  0  0  0  1  0  0  0  0  0  0
  186.2690  178.1020  143.2040 N   0  0  0  0  0  0  0  0  0  0  0  0
  190.5940  177.6040  142.3250 C   0  0  0  0  0  3  0  0  0  0  0  0
  188.1240  177.3610  146.3140 C   0  0  2  0  0  3  0  0  0  0  0  0
  189.8670  176.9770  146.6330 S   0  0  0  0  0  0  0  0  0  0  0  0
  184.0130  178.6620  143.7340 C   0  0  0  0  0  3  0  0  0  0  0  0
  189.3470  177.7350  142.7890 C   0  0  0  0  0  3  0  0  0  0  0  0
  184.9960  178.3480  142.7870 C   0  0  0  0  0  0  0  0  0  0  0  0
  185.6590  178.4670  145.4990 C   0  0  0  0  0  0  0  0  0  0  0  0
  183.1270  177.7570  139.5410 C   0  0  0  0  0  0  0  0  0  0  0  0
  184.6690  178.2920  141.3460 C   0  0  0  0  0  0  0  0  0  0  0  0
  183.4270  177.8060  140.9050 C   0  0  0  0  0  3  0  0  0  0  0  0
  181.8100  177.2410  139.0880 C   0  0  0  0  0  1  0  0  0  0  0  0
  185.6040  178.7290  140.3950 C   0  0  0  0  0  3  0  0  0  0  0  0
  184.0660  178.1950  138.6030 C   0  0  0  0  0  3  0  0  0  0  0  0
  185.3050  178.6800  139.0310 C   0  0  0  0  0  3  0  0  0  0  0  0
  1  2  1  6  0  0  0
  1 13  1  0  0  0  0
  2 18  1  0  0  0  0
  4 16  1  6  0  0  0
  4  7  1  0  0  0  0
  4  1  1  0  0  0  0
  5  8  2  0  0  0  0
  6  3  1  0  0  0  0
  7 14  1  0  0  0  0
  8  7  1  0  0  0  0
  9 18  2  0  0  0  0
  9 10  1  0  0  0  0
 11  2  2  0  0  0  0
 12 16  2  0  0  0  0
 12  5  1  0  0  0  0
 13 14  1  0  0  0  0
 13  3  1  1  0  0  0
 15  9  1  0  0  0  0
 17 11  1  0  0  0  0
 17 15  2  0  0  0  0
 18  6  1  0  0  0  0
 19 21  1  0  0  0  0
 20 17  1  0  0  0  0
 21 20  2  0  0  0  0
 22 19  1  0  0  0  0
 23 20  1  0  0  0  0
 24 25  1  0  0  0  0
 24 19  2  0  0  0  0
 25 23  2  0  0  0  0
M  END
>  <MODEL>
9

>  <REMARK>
 VINA RESULT:      -9.6      2.034      3.270
  Name = 
  1 active torsions:
  status: ('A' for Active; 'I' for Inactive)
    1  A    between atoms: C_6  and  C_23
                            x       y       z     vdW  Elec       q    Type
                         _______ _______ _______ _____ _____    ______ ____

>  <TORSDO>
F 1

$$$$
