=
 OpenBabel10272415093D

 34 38  0  0  1  0  0  0  0  0999 V2000
  190.9520  176.3880  138.9740 C   0  0  1  0  0  3  0  0  0  0  0  0
  191.9270  174.2210  135.8330 C   0  0  0  0  0  2  0  0  0  0  0  0
  190.1310  175.9020  136.2130 C   0  0  0  0  0  2  0  0  0  0  0  0
  191.7580  177.1290  139.8440 O   0  0  0  0  0  1  0  0  0  0  0  0
  189.2290  178.3520  138.7300 C   0  0  2  0  0  3  0  0  0  0  0  0
  188.2580  178.6590  137.6040 C   0  0  0  0  0  2  0  0  0  0  0  0
  189.2750  176.5310  137.2080 N   0  0  1  0  0  0  0  0  0  0  0  0
  190.1280  177.3130  138.0810 C   0  0  2  0  0  3  0  0  0  0  0  0
  188.4370  177.5380  136.5810 C   0  0  0  0  0  2  0  0  0  0  0  0
  193.3110  173.8790  136.3820 C   0  0  0  0  0  2  0  0  0  0  0  0
  194.0360  175.1280  136.9140 C   0  0  2  0  0  3  0  0  0  0  0  0
  191.0200  174.8550  136.8970 C   0  0  2  0  0  3  0  0  0  0  0  0
  193.0940  176.1390  137.5840 C   0  0  0  0  0  2  0  0  0  0  0  0
  191.8150  175.4630  138.0890 C   0  0  1  0  0  3  0  0  0  0  0  0
  188.4310  177.7830  139.9010 C   0  0  0  0  0  2  0  0  0  0  0  0
  188.5490  178.6700  141.1350 C   0  0  0  0  0  2  0  0  0  0  0  0
  190.7610  177.5530  142.5850 O   0  0  0  0  0  0  0  0  0  0  0  0
  187.0040  177.8940  144.3700 C   0  0  0  0  0  2  0  0  0  0  0  0
  190.4210  176.5040  146.7350 C   0  0  2  0  0  3  0  0  0  0  0  0
  190.6920  177.0140  145.3210 C   0  0  0  0  0  2  0  0  0  0  0  0
  189.4080  176.9640  144.4900 C   0  0  1  0  0  3  0  0  0  0  0  0
  188.4520  177.8800  142.3550 N   0  0  0  0  0  0  0  0  0  0  0  0
  188.0470  177.3030  146.5800 C   0  0  0  0  0  2  0  0  0  0  0  0
  188.3180  177.8100  145.1680 C   0  0  2  0  0  3  0  0  0  0  0  0
  189.3300  177.3390  147.4070 C   0  0  0  0  0  2  0  0  0  0  0  0
  187.1320  177.5420  142.8800 C   0  0  0  0  0  2  0  0  0  0  0  0
  189.6110  177.4820  143.0990 C   0  0  0  0  0  0  0  0  0  0  0  0
  191.6710  176.5440  147.5460 C   0  0  0  0  0  0  0  0  0  0  0  0
  191.8220  177.4410  148.4150 O   0  0  0  0  0  1  0  0  0  0  0  0
  192.6700  175.5980  147.3500 O   0  0  0  0  0  0  0  0  0  0  0  0
  194.8080  175.8280  135.8060 C   0  0  0  0  0  2  0  0  0  0  0  0
  196.2750  175.4310  135.8220 C   0  0  1  0  0  3  0  0  0  0  0  0
  197.0790  176.5710  135.8650 O   0  0  0  0  0  1  0  0  0  0  0  0
  196.5510  174.5830  137.0460 C   0  0  0  0  0  1  0  0  0  0  0  0
  1  4  1  1  0  0  0
  2 10  1  0  0  0  0
  2 12  1  0  0  0  0
  3 12  1  0  0  0  0
  5 15  1  1  0  0  0
  6  5  1  0  0  0  0
  7  3  1  6  0  0  0
  7  8  1  0  0  0  0
  8  5  1  0  0  0  0
  8  1  1  0  0  0  0
  9  7  1  0  0  0  0
  9  6  1  0  0  0  0
 10 11  1  0  0  0  0
 11 13  1  0  0  0  0
 12 14  1  0  0  0  0
 13 14  1  0  0  0  0
 14  1  1  0  0  0  0
 15 16  1  0  0  0  0
 16 22  1  0  0  0  0
 17 27  2  0  0  0  0
 18 24  1  0  0  0  0
 19 25  1  0  0  0  0
 19 28  1  0  0  0  0
 20 19  1  0  0  0  0
 21 24  1  0  0  0  0
 21 20  1  0  0  0  0
 22 26  1  0  0  0  0
 22 27  1  0  0  0  0
 23 25  1  0  0  0  0
 24 23  1  0  0  0  0
 26 18  1  0  0  0  0
 27 21  1  0  0  0  0
 28 29  1  0  0  0  0
 30 28  2  0  0  0  0
 31 32  1  0  0  0  0
 31 11  1  0  0  0  0
 32 33  1  0  0  0  0
 32 34  1  0  0  0  0
M  END
>  <MODEL>
1

>  <REMARK>
 VINA RESULT:      -9.3      0.000      0.000
  Name = 
  6 active torsions:
  status: ('A' for Active; 'I' for Inactive)
    1  A    between atoms: C_3  and  C_25
    2  A    between atoms: C_7  and  C_11
    3  A    between atoms: C_8  and  C_17
    4  A    between atoms: C_8  and  N_18
    5  A    between atoms: C_10  and  C_17
    6  A    between atoms: C_25  and  C_27
                            x       y       z     vdW  Elec       q    Type
                         _______ _______ _______ _____ _____    ______ ____

>  <TORSDO>
F 6

$$$$
=
 OpenBabel10272415093D

 34 38  0  0  1  0  0  0  0  0999 V2000
  183.0250  178.8490  140.1350 C   0  0  1  0  0  3  0  0  0  0  0  0
  179.9820  177.8960  137.8230 C   0  0  0  0  0  2  0  0  0  0  0  0
  180.2190  178.0530  140.2970 C   0  0  0  0  0  2  0  0  0  0  0  0
  183.9410  179.9000  140.0330 O   0  0  0  0  0  1  0  0  0  0  0  0
  182.6410  179.2940  142.6930 C   0  0  2  0  0  3  0  0  0  0  0  0
  181.4480  178.9600  143.5700 C   0  0  0  0  0  2  0  0  0  0  0  0
  181.1460  177.9650  141.4150 N   0  0  1  0  0  0  0  0  0  0  0  0
  182.0670  179.0780  141.3020 C   0  0  2  0  0  3  0  0  0  0  0  0
  180.4510  178.2400  142.6610 C   0  0  0  0  0  2  0  0  0  0  0  0
  180.6290  178.4840  136.5700 C   0  0  0  0  0  2  0  0  0  0  0  0
  181.1970  179.8900  136.8320 C   0  0  2  0  0  3  0  0  0  0  0  0
  180.9740  177.7770  138.9890 C   0  0  2  0  0  3  0  0  0  0  0  0
  181.7900  180.0560  138.2380 C   0  0  0  0  0  2  0  0  0  0  0  0
  182.2110  178.7070  138.8310 C   0  0  1  0  0  3  0  0  0  0  0  0
  183.7610  178.3080  143.0210 C   0  0  0  0  0  2  0  0  0  0  0  0
  185.0130  179.0300  143.5010 C   0  0  0  0  0  2  0  0  0  0  0  0
  187.5510  177.6890  143.4540 O   0  0  0  0  0  0  0  0  0  0  0  0
  185.7230  178.6510  147.0800 C   0  0  0  0  0  2  0  0  0  0  0  0
  189.7470  176.9170  147.0620 C   0  0  2  0  0  3  0  0  0  0  0  0
  189.1330  177.3090  145.7200 C   0  0  0  0  0  2  0  0  0  0  0  0
  187.6100  177.3970  145.8450 C   0  0  1  0  0  3  0  0  0  0  0  0
  185.6220  178.3270  144.6220 N   0  0  0  0  0  0  0  0  0  0  0  0
  187.8510  178.0340  148.2690 C   0  0  0  0  0  2  0  0  0  0  0  0
  187.2380  178.4240  146.9280 C   0  0  2  0  0  3  0  0  0  0  0  0
  189.3690  177.9320  148.1420 C   0  0  0  0  0  2  0  0  0  0  0  0
  184.8810  178.2070  145.8740 C   0  0  0  0  0  2  0  0  0  0  0  0
  186.9570  177.8090  144.5600 C   0  0  0  0  0  0  0  0  0  0  0  0
  191.2300  176.8220  146.9420 C   0  0  0  0  0  0  0  0  0  0  0  0
  191.7580  176.7270  145.8050 O   0  0  0  0  0  0  0  0  0  0  0  0
  192.0330  176.8370  148.0770 O   0  0  0  0  0  1  0  0  0  0  0  0
  180.1380  180.9590  136.6090 C   0  0  0  0  0  2  0  0  0  0  0  0
  180.7530  182.3490  136.5900 C   0  0  1  0  0  3  0  0  0  0  0  0
  180.5990  182.9230  135.3280 O   0  0  0  0  0  1  0  0  0  0  0  0
  180.0580  183.2170  137.6180 C   0  0  0  0  0  1  0  0  0  0  0  0
  1  4  1  6  0  0  0
  1  8  1  0  0  0  0
  2 12  1  0  0  0  0
  5 15  1  1  0  0  0
  5  6  1  0  0  0  0
  7  3  1  6  0  0  0
  7  9  1  0  0  0  0
  8  7  1  0  0  0  0
  8  5  1  0  0  0  0
  9  6  1  0  0  0  0
 10 11  1  0  0  0  0
 10  2  1  0  0  0  0
 11 13  1  0  0  0  0
 12  3  1  0  0  0  0
 13 14  1  0  0  0  0
 14 12  1  0  0  0  0
 14  1  1  0  0  0  0
 15 16  1  0  0  0  0
 16 22  1  0  0  0  0
 17 27  2  0  0  0  0
 19 25  1  0  0  0  0
 20 21  1  0  0  0  0
 20 19  1  0  0  0  0
 21 24  1  0  0  0  0
 22 26  1  0  0  0  0
 24 18  1  0  0  0  0
 24 23  1  0  0  0  0
 25 23  1  0  0  0  0
 26 18  1  0  0  0  0
 27 22  1  0  0  0  0
 27 21  1  0  0  0  0
 28 19  1  0  0  0  0
 28 30  1  0  0  0  0
 29 28  2  0  0  0  0
 31 11  1  0  0  0  0
 32 31  1  0  0  0  0
 32 34  1  0  0  0  0
 33 32  1  0  0  0  0
M  END
>  <MODEL>
2

>  <REMARK>
 VINA RESULT:      -9.0      6.848      9.209
  Name = 
  6 active torsions:
  status: ('A' for Active; 'I' for Inactive)
    1  A    between atoms: C_3  and  C_25
    2  A    between atoms: C_7  and  C_11
    3  A    between atoms: C_8  and  C_17
    4  A    between atoms: C_8  and  N_18
    5  A    between atoms: C_10  and  C_17
    6  A    between atoms: C_25  and  C_27
                            x       y       z     vdW  Elec       q    Type
                         _______ _______ _______ _____ _____    ______ ____

>  <TORSDO>
F 6

$$$$
=
 OpenBabel10272415093D

 34 38  0  0  1  0  0  0  0  0999 V2000
  190.8430  176.2770  138.8460 C   0  0  1  0  0  3  0  0  0  0  0  0
  192.0740  174.1120  135.7940 C   0  0  0  0  0  2  0  0  0  0  0  0
  190.3740  175.9210  135.9840 C   0  0  0  0  0  2  0  0  0  0  0  0
  191.5750  176.9320  139.8410 O   0  0  0  0  0  1  0  0  0  0  0  0
  189.3220  178.3770  138.4370 C   0  0  2  0  0  3  0  0  0  0  0  0
  188.5400  178.7850  137.2010 C   0  0  0  0  0  2  0  0  0  0  0  0
  189.4400  176.5930  136.8750 N   0  0  1  0  0  0  0  0  0  0  0  0
  190.2210  177.2850  137.8810 C   0  0  2  0  0  3  0  0  0  0  0  0
  188.7740  177.6770  136.1750 C   0  0  0  0  0  2  0  0  0  0  0  0
  193.3410  173.6500  136.5140 C   0  0  0  0  0  2  0  0  0  0  0  0
  194.0770  174.8260  137.1800 C   0  0  2  0  0  3  0  0  0  0  0  0
  191.0800  174.7910  136.7470 C   0  0  2  0  0  3  0  0  0  0  0  0
  193.1310  175.8920  137.7510 C   0  0  0  0  0  2  0  0  0  0  0  0
  191.7470  175.3080  138.0540 C   0  0  1  0  0  3  0  0  0  0  0  0
  188.3310  177.8460  139.4700 C   0  0  0  0  0  2  0  0  0  0  0  0
  188.1540  178.8260  140.6230 C   0  0  0  0  0  2  0  0  0  0  0  0
  189.9450  178.0120  142.7140 O   0  0  0  0  0  0  0  0  0  0  0  0
  185.8300  178.1830  143.3880 C   0  0  0  0  0  2  0  0  0  0  0  0
  188.5430  177.2700  146.7050 C   0  0  2  0  0  3  0  0  0  0  0  0
  189.1610  177.6870  145.3720 C   0  0  0  0  0  2  0  0  0  0  0  0
  188.1590  177.4660  144.2370 C   0  0  1  0  0  3  0  0  0  0  0  0
  187.7720  178.1290  141.8450 N   0  0  0  0  0  0  0  0  0  0  0  0
  186.2600  177.8560  145.8430 C   0  0  0  0  0  2  0  0  0  0  0  0
  186.8780  178.2710  144.5120 C   0  0  2  0  0  3  0  0  0  0  0  0
  187.2640  178.0630  146.9750 C   0  0  0  0  0  2  0  0  0  0  0  0
  186.3810  177.7260  142.0290 C   0  0  0  0  0  2  0  0  0  0  0  0
  188.7040  177.8880  142.9060 C   0  0  0  0  0  0  0  0  0  0  0  0
  189.5200  177.4760  147.8120 C   0  0  0  0  0  0  0  0  0  0  0  0
  189.1730  178.1170  148.8370 O   0  0  0  0  0  1  0  0  0  0  0  0
  190.8090  176.9650  147.7210 O   0  0  0  0  0  0  0  0  0  0  0  0
  195.0440  175.4870  136.2100 C   0  0  0  0  0  2  0  0  0  0  0  0
  196.4610  174.9730  136.4090 C   0  0  1  0  0  3  0  0  0  0  0  0
  197.3700  176.0280  136.3180 O   0  0  0  0  0  1  0  0  0  0  0  0
  196.5740  174.3370  137.7790 C   0  0  0  0  0  1  0  0  0  0  0  0
  1  4  1  1  0  0  0
  2 10  1  0  0  0  0
  2 12  1  0  0  0  0
  3 12  1  0  0  0  0
  5 15  1  1  0  0  0
  6  5  1  0  0  0  0
  7  3  1  6  0  0  0
  7  8  1  0  0  0  0
  8  5  1  0  0  0  0
  8  1  1  0  0  0  0
  9  7  1  0  0  0  0
  9  6  1  0  0  0  0
 10 11  1  0  0  0  0
 11 13  1  0  0  0  0
 12 14  1  0  0  0  0
 13 14  1  0  0  0  0
 14  1  1  0  0  0  0
 15 16  1  0  0  0  0
 16 22  1  0  0  0  0
 17 27  2  0  0  0  0
 18 24  1  0  0  0  0
 19 25  1  0  0  0  0
 19 28  1  0  0  0  0
 20 19  1  0  0  0  0
 21 24  1  0  0  0  0
 21 20  1  0  0  0  0
 22 26  1  0  0  0  0
 22 27  1  0  0  0  0
 23 25  1  0  0  0  0
 24 23  1  0  0  0  0
 26 18  1  0  0  0  0
 27 21  1  0  0  0  0
 28 29  1  0  0  0  0
 30 28  2  0  0  0  0
 31 32  1  0  0  0  0
 31 11  1  0  0  0  0
 32 34  1  0  0  0  0
 33 32  1  0  0  0  0
M  END
>  <MODEL>
3

>  <REMARK>
 VINA RESULT:      -9.0      0.932      1.212
  Name = 
  6 active torsions:
  status: ('A' for Active; 'I' for Inactive)
    1  A    between atoms: C_3  and  C_25
    2  A    between atoms: C_7  and  C_11
    3  A    between atoms: C_8  and  C_17
    4  A    between atoms: C_8  and  N_18
    5  A    between atoms: C_10  and  C_17
    6  A    between atoms: C_25  and  C_27
                            x       y       z     vdW  Elec       q    Type
                         _______ _______ _______ _____ _____    ______ ____

>  <TORSDO>
F 6

$$$$
=
 OpenBabel10272415093D

 34 38  0  0  1  0  0  0  0  0999 V2000
  183.8140  178.7480  140.1360 C   0  0  1  0  0  3  0  0  0  0  0  0
  179.9920  178.5550  139.2040 C   0  0  0  0  0  2  0  0  0  0  0  0
  181.1780  178.6550  141.3910 C   0  0  0  0  0  2  0  0  0  0  0  0
  184.8330  179.5460  139.6070 O   0  0  0  0  0  1  0  0  0  0  0  0
  184.5380  179.2770  142.6030 C   0  0  2  0  0  3  0  0  0  0  0  0
  183.7240  179.2430  143.8840 C   0  0  0  0  0  2  0  0  0  0  0  0
  182.4140  178.3480  142.0930 N   0  0  1  0  0  0  0  0  0  0  0  0
  183.4470  179.2050  141.5470 C   0  0  2  0  0  3  0  0  0  0  0  0
  182.3240  178.7840  143.4760 C   0  0  0  0  0  2  0  0  0  0  0  0
  180.2300  178.9670  137.7510 C   0  0  0  0  0  2  0  0  0  0  0  0
  181.1530  180.1950  137.6540 C   0  0  2  0  0  3  0  0  0  0  0  0
  181.2990  178.2020  139.9290 C   0  0  2  0  0  3  0  0  0  0  0  0
  182.2560  180.2150  138.7220 C   0  0  0  0  0  2  0  0  0  0  0  0
  182.5570  178.8050  139.2410 C   0  0  1  0  0  3  0  0  0  0  0  0
  185.4480  178.0500  142.5870 C   0  0  0  0  0  2  0  0  0  0  0  0
  185.9290  177.6990  143.9890 C   0  0  0  0  0  2  0  0  0  0  0  0
  187.4440  177.7600  146.4280 O   0  0  0  0  0  0  0  0  0  0  0  0
  189.3170  176.9770  142.7810 C   0  0  0  0  0  2  0  0  0  0  0  0
  191.6100  176.7200  146.5060 C   0  0  2  0  0  3  0  0  0  0  0  0
  190.1000  176.9260  146.6100 C   0  0  0  0  0  2  0  0  0  0  0  0
  189.5560  177.4950  145.2980 C   0  0  1  0  0  3  0  0  0  0  0  0
  187.3790  177.8130  144.0860 N   0  0  0  0  0  0  0  0  0  0  0  0
  191.3980  176.3310  144.0350 C   0  0  0  0  0  2  0  0  0  0  0  0
  189.8900  176.5390  144.1400 C   0  0  2  0  0  3  0  0  0  0  0  0
  191.9440  175.7770  145.3490 C   0  0  0  0  0  2  0  0  0  0  0  0
  188.1610  177.9860  142.8650 C   0  0  0  0  0  2  0  0  0  0  0  0
  188.0700  177.6890  145.3350 C   0  0  0  0  0  0  0  0  0  0  0  0
  192.1450  176.1730  147.7860 C   0  0  0  0  0  0  0  0  0  0  0  0
  192.7200  176.9410  148.5990 O   0  0  0  0  0  1  0  0  0  0  0  0
  192.0130  174.8230  148.0870 O   0  0  0  0  0  0  0  0  0  0  0  0
  180.3570  181.4880  137.7370 C   0  0  0  0  0  2  0  0  0  0  0  0
  180.2710  182.1710  136.3820 C   0  0  1  0  0  3  0  0  0  0  0  0
  181.0750  183.3110  136.3700 O   0  0  0  0  0  1  0  0  0  0  0  0
  180.7490  181.2150  135.3090 C   0  0  0  0  0  1  0  0  0  0  0  0
  1  4  1  6  0  0  0
  1  8  1  0  0  0  0
  2 12  1  0  0  0  0
  5 15  1  1  0  0  0
  5  6  1  0  0  0  0
  7  3  1  6  0  0  0
  7  9  1  0  0  0  0
  8  7  1  0  0  0  0
  8  5  1  0  0  0  0
  9  6  1  0  0  0  0
 10  2  1  0  0  0  0
 11 31  1  0  0  0  0
 11 10  1  0  0  0  0
 11 13  1  0  0  0  0
 12  3  1  0  0  0  0
 13 14  1  0  0  0  0
 14 12  1  0  0  0  0
 14  1  1  0  0  0  0
 15 16  1  0  0  0  0
 16 22  1  0  0  0  0
 18 26  1  0  0  0  0
 18 24  1  0  0  0  0
 19 20  1  0  0  0  0
 19 28  1  0  0  0  0
 21 27  1  0  0  0  0
 21 20  1  0  0  0  0
 22 27  1  0  0  0  0
 23 24  1  0  0  0  0
 23 25  1  0  0  0  0
 24 21  1  0  0  0  0
 25 19  1  0  0  0  0
 26 22  1  0  0  0  0
 27 17  2  0  0  0  0
 28 30  2  0  0  0  0
 28 29  1  0  0  0  0
 32 31  1  0  0  0  0
 33 32  1  0  0  0  0
 34 32  1  0  0  0  0
M  END
>  <MODEL>
4

>  <REMARK>
 VINA RESULT:      -8.5      5.562      8.956
  Name = 
  6 active torsions:
  status: ('A' for Active; 'I' for Inactive)
    1  A    between atoms: C_3  and  C_25
    2  A    between atoms: C_7  and  C_11
    3  A    between atoms: C_8  and  C_17
    4  A    between atoms: C_8  and  N_18
    5  A    between atoms: C_10  and  C_17
    6  A    between atoms: C_25  and  C_27
                            x       y       z     vdW  Elec       q    Type
                         _______ _______ _______ _____ _____    ______ ____

>  <TORSDO>
F 6

$$$$
=
 OpenBabel10272415093D

 34 38  0  0  1  0  0  0  0  0999 V2000
  191.2530  175.6990  138.0330 C   0  0  1  0  0  3  0  0  0  0  0  0
  192.7920  172.8340  135.8110 C   0  0  0  0  0  2  0  0  0  0  0  0
  190.6990  174.1670  135.6080 C   0  0  0  0  0  2  0  0  0  0  0  0
  191.8560  176.8290  138.5930 O   0  0  0  0  0  1  0  0  0  0  0  0
  189.2170  177.0970  137.1460 C   0  0  2  0  0  3  0  0  0  0  0  0
  188.2740  176.8160  135.9900 C   0  0  0  0  0  2  0  0  0  0  0  0
  189.6860  174.9160  136.3360 N   0  0  1  0  0  0  0  0  0  0  0  0
  190.3280  176.0940  136.8840 C   0  0  2  0  0  3  0  0  0  0  0  0
  188.7160  175.4730  135.4090 C   0  0  0  0  0  2  0  0  0  0  0  0
  194.1810  172.9690  136.4350 C   0  0  0  0  0  2  0  0  0  0  0  0
  194.6310  174.4390  136.5040 C   0  0  2  0  0  3  0  0  0  0  0  0
  191.7230  173.6010  136.6020 C   0  0  2  0  0  3  0  0  0  0  0  0
  193.4830  175.4150  136.7970 C   0  0  0  0  0  2  0  0  0  0  0  0
  192.3210  174.7150  137.5100 C   0  0  1  0  0  3  0  0  0  0  0  0
  188.4690  176.8120  138.4470 C   0  0  0  0  0  2  0  0  0  0  0  0
  187.6510  178.0180  138.8920 C   0  0  0  0  0  2  0  0  0  0  0  0
  185.7010  179.2370  140.6110 O   0  0  0  0  0  0  0  0  0  0  0  0
  188.8790  177.0570  142.2130 C   0  0  0  0  0  2  0  0  0  0  0  0
  185.7470  178.6040  144.8580 C   0  0  2  0  0  3  0  0  0  0  0  0
  185.5380  178.7380  143.3510 C   0  0  0  0  0  2  0  0  0  0  0  0
  186.8820  178.6390  142.6250 C   0  0  1  0  0  3  0  0  0  0  0  0
  187.8090  178.2550  140.3210 N   0  0  0  0  0  0  0  0  0  0  0  0
  187.7610  177.1600  144.4630 C   0  0  0  0  0  2  0  0  0  0  0  0
  187.5530  177.2960  142.9580 C   0  0  2  0  0  3  0  0  0  0  0  0
  186.4230  177.2730  145.1900 C   0  0  0  0  0  2  0  0  0  0  0  0
  189.0790  177.9250  140.9610 C   0  0  0  0  0  2  0  0  0  0  0  0
  186.7320  178.7350  141.1370 C   0  0  0  0  0  0  0  0  0  0  0  0
  184.4410  178.7080  145.5700 C   0  0  0  0  0  0  0  0  0  0  0  0
  184.3700  178.4070  146.7890 O   0  0  0  0  0  1  0  0  0  0  0  0
  183.3020  179.1360  144.8970 O   0  0  0  0  0  0  0  0  0  0  0  0
  195.3270  174.8610  135.2190 C   0  0  0  0  0  2  0  0  0  0  0  0
  196.6820  175.4870  135.5060 C   0  0  1  0  0  3  0  0  0  0  0  0
  196.5310  176.8420  135.8020 O   0  0  0  0  0  1  0  0  0  0  0  0
  197.3150  174.7870  136.6900 C   0  0  0  0  0  1  0  0  0  0  0  0
  1  4  1  6  0  0  0
  2 10  1  0  0  0  0
  2 12  1  0  0  0  0
  3  7  1  0  0  0  0
  3 12  1  0  0  0  0
  5 15  1  1  0  0  0
  6  5  1  0  0  0  0
  7  9  1  6  0  0  0
  7  8  1  0  0  0  0
  8  5  1  0  0  0  0
  8  1  1  0  0  0  0
  9  6  1  0  0  0  0
 10 11  1  0  0  0  0
 11 13  1  0  0  0  0
 12 14  1  0  0  0  0
 13 14  1  0  0  0  0
 14  1  1  0  0  0  0
 15 16  1  0  0  0  0
 16 22  1  0  0  0  0
 17 27  2  0  0  0  0
 18 24  1  0  0  0  0
 19 25  1  0  0  0  0
 19 28  1  0  0  0  0
 20 19  1  0  0  0  0
 21 24  1  0  0  0  0
 21 20  1  0  0  0  0
 22 26  1  0  0  0  0
 22 27  1  0  0  0  0
 23 25  1  0  0  0  0
 24 23  1  0  0  0  0
 26 18  1  0  0  0  0
 27 21  1  0  0  0  0
 28 29  1  0  0  0  0
 30 28  2  0  0  0  0
 31 32  1  0  0  0  0
 31 11  1  0  0  0  0
 32 33  1  0  0  0  0
 32 34  1  0  0  0  0
M  END
>  <MODEL>
5

>  <REMARK>
 VINA RESULT:      -8.5      2.740      3.615
  Name = 
  6 active torsions:
  status: ('A' for Active; 'I' for Inactive)
    1  A    between atoms: C_3  and  C_25
    2  A    between atoms: C_7  and  C_11
    3  A    between atoms: C_8  and  C_17
    4  A    between atoms: C_8  and  N_18
    5  A    between atoms: C_10  and  C_17
    6  A    between atoms: C_25  and  C_27
                            x       y       z     vdW  Elec       q    Type
                         _______ _______ _______ _____ _____    ______ ____

>  <TORSDO>
F 6

$$$$
=
 OpenBabel10272415093D

 34 38  0  0  1  0  0  0  0  0999 V2000
  181.7220  178.5880  140.8930 C   0  0  1  0  0  3  0  0  0  0  0  0
  181.5560  180.1670  137.2890 C   0  0  0  0  0  2  0  0  0  0  0  0
  183.4610  179.6810  138.8160 C   0  0  0  0  0  2  0  0  0  0  0  0
  181.0850  177.4570  141.4130 O   0  0  0  0  0  1  0  0  0  0  0  0
  184.0350  177.8810  141.9120 C   0  0  2  0  0  3  0  0  0  0  0  0
  185.4430  178.2430  141.4710 C   0  0  0  0  0  2  0  0  0  0  0  0
  183.8670  179.5220  140.2050 N   0  0  1  0  0  0  0  0  0  0  0  0
  183.2160  178.3310  140.7130 C   0  0  2  0  0  3  0  0  0  0  0  0
  185.2780  179.1800  140.2760 C   0  0  0  0  0  2  0  0  0  0  0  0
  180.1360  179.6650  137.0320 C   0  0  0  0  0  2  0  0  0  0  0  0
  179.9820  178.1800  137.4080 C   0  0  2  0  0  3  0  0  0  0  0  0
  181.9660  180.0250  138.7620 C   0  0  2  0  0  3  0  0  0  0  0  0
  180.8050  177.7750  138.6390 C   0  0  0  0  0  2  0  0  0  0  0  0
  181.1060  178.9820  139.5330 C   0  0  1  0  0  3  0  0  0  0  0  0
  183.7120  178.6810  143.1720 C   0  0  0  0  0  2  0  0  0  0  0  0
  184.9540  179.3690  143.7240 C   0  0  0  0  0  2  0  0  0  0  0  0
  187.4410  177.9450  143.5600 O   0  0  0  0  0  0  0  0  0  0  0  0
  185.7000  178.7600  147.2640 C   0  0  0  0  0  2  0  0  0  0  0  0
  189.6580  176.8900  147.0830 C   0  0  2  0  0  3  0  0  0  0  0  0
  189.0400  177.3790  145.7750 C   0  0  0  0  0  2  0  0  0  0  0  0
  187.5230  177.5140  145.9300 C   0  0  1  0  0  3  0  0  0  0  0  0
  185.5530  178.5810  144.7940 N   0  0  0  0  0  0  0  0  0  0  0  0
  187.8210  178.0020  148.3820 C   0  0  0  0  0  2  0  0  0  0  0  0
  187.2030  178.4890  147.0750 C   0  0  2  0  0  3  0  0  0  0  0  0
  189.3320  177.8540  148.2250 C   0  0  0  0  0  2  0  0  0  0  0  0
  184.8260  178.4160  146.0490 C   0  0  0  0  0  2  0  0  0  0  0  0
  186.8680  178.0210  144.6810 C   0  0  0  0  0  0  0  0  0  0  0  0
  191.1350  176.7500  146.9350 C   0  0  0  0  0  0  0  0  0  0  0  0
  191.6240  176.4630  145.8120 O   0  0  0  0  0  0  0  0  0  0  0  0
  191.9750  176.9340  148.0260 O   0  0  0  0  0  1  0  0  0  0  0  0
  180.3560  177.2780  136.2420 C   0  0  0  0  0  2  0  0  0  0  0  0
  181.8260  176.8940  136.2900 C   0  0  1  0  0  3  0  0  0  0  0  0
  181.9560  175.5070  136.3630 O   0  0  0  0  0  1  0  0  0  0  0  0
  182.5140  177.3920  135.0360 C   0  0  0  0  0  1  0  0  0  0  0  0
  1  4  1  6  0  0  0
  2 12  1  0  0  0  0
  5 15  1  1  0  0  0
  6  5  1  0  0  0  0
  7  3  1  6  0  0  0
  7  9  1  0  0  0  0
  7  8  1  0  0  0  0
  8  1  1  0  0  0  0
  8  5  1  0  0  0  0
  9  6  1  0  0  0  0
 10  2  1  0  0  0  0
 10 11  1  0  0  0  0
 11 13  1  0  0  0  0
 12  3  1  0  0  0  0
 12 14  1  0  0  0  0
 13 14  1  0  0  0  0
 14  1  1  0  0  0  0
 15 16  1  0  0  0  0
 16 22  1  0  0  0  0
 17 27  2  0  0  0  0
 19 25  1  0  0  0  0
 20 21  1  0  0  0  0
 20 19  1  0  0  0  0
 21 24  1  0  0  0  0
 22 26  1  0  0  0  0
 24 18  1  0  0  0  0
 24 23  1  0  0  0  0
 25 23  1  0  0  0  0
 26 18  1  0  0  0  0
 27 22  1  0  0  0  0
 27 21  1  0  0  0  0
 28 19  1  0  0  0  0
 28 30  1  0  0  0  0
 29 28  2  0  0  0  0
 31 32  1  0  0  0  0
 31 11  1  0  0  0  0
 32 33  1  0  0  0  0
 34 32  1  0  0  0  0
M  END
>  <MODEL>
6

>  <REMARK>
 VINA RESULT:      -8.3      6.348      8.457
  Name = 
  6 active torsions:
  status: ('A' for Active; 'I' for Inactive)
    1  A    between atoms: C_3  and  C_25
    2  A    between atoms: C_7  and  C_11
    3  A    between atoms: C_8  and  C_17
    4  A    between atoms: C_8  and  N_18
    5  A    between atoms: C_10  and  C_17
    6  A    between atoms: C_25  and  C_27
                            x       y       z     vdW  Elec       q    Type
                         _______ _______ _______ _____ _____    ______ ____

>  <TORSDO>
F 6

$$$$
=
 OpenBabel10272415093D

 34 38  0  0  1  0  0  0  0  0999 V2000
  183.3280  177.5340  140.7480 C   0  0  1  0  0  3  0  0  0  0  0  0
  181.0880  175.4140  138.2980 C   0  0  0  0  0  2  0  0  0  0  0  0
  180.5230  176.9800  140.1490 C   0  0  0  0  0  2  0  0  0  0  0  0
  184.4470  178.3300  140.4860 O   0  0  0  0  0  1  0  0  0  0  0  0
  182.2360  179.3830  142.2570 C   0  0  2  0  0  3  0  0  0  0  0  0
  180.7760  179.6200  142.6000 C   0  0  0  0  0  2  0  0  0  0  0  0
  180.9790  177.5590  141.4040 N   0  0  1  0  0  0  0  0  0  0  0  0
  182.1210  178.3990  141.1040 C   0  0  2  0  0  3  0  0  0  0  0  0
  179.9960  178.5060  141.9020 C   0  0  0  0  0  2  0  0  0  0  0  0
  182.2330  175.1640  137.3170 C   0  0  0  0  0  2  0  0  0  0  0  0
  182.9980  176.4610  136.9960 C   0  0  2  0  0  3  0  0  0  0  0  0
  181.5800  175.9950  139.6310 C   0  0  2  0  0  3  0  0  0  0  0  0
  183.1130  177.4140  138.1950 C   0  0  0  0  0  2  0  0  0  0  0  0
  182.9830  176.6600  139.5230 C   0  0  1  0  0  3  0  0  0  0  0  0
  182.9170  178.7710  143.4800 C   0  0  0  0  0  2  0  0  0  0  0  0
  184.3010  179.3680  143.7000 C   0  0  0  0  0  2  0  0  0  0  0  0
  186.7850  178.0100  143.2200 O   0  0  0  0  0  0  0  0  0  0  0  0
  185.5010  178.7780  147.1160 C   0  0  0  0  0  2  0  0  0  0  0  0
  189.4530  177.0140  146.4340 C   0  0  2  0  0  3  0  0  0  0  0  0
  188.6630  177.4870  145.2150 C   0  0  0  0  0  2  0  0  0  0  0  0
  187.1750  177.5820  145.5590 C   0  0  1  0  0  3  0  0  0  0  0  0
  185.0500  178.5960  144.6830 N   0  0  0  0  0  0  0  0  0  0  0  0
  187.7640  178.0770  147.9560 C   0  0  0  0  0  2  0  0  0  0  0  0
  186.9750  178.5480  146.7390 C   0  0  2  0  0  3  0  0  0  0  0  0
  189.2470  177.9690  147.6110 C   0  0  0  0  0  2  0  0  0  0  0  0
  184.4900  178.4110  146.0180 C   0  0  0  0  0  2  0  0  0  0  0  0
  186.3550  178.0710  144.4040 C   0  0  0  0  0  0  0  0  0  0  0  0
  190.9030  176.9140  146.1010 C   0  0  0  0  0  0  0  0  0  0  0  0
  191.2910  177.1530  144.9290 O   0  0  0  0  0  0  0  0  0  0  0  0
  191.8280  176.5590  147.0750 O   0  0  0  0  0  1  0  0  0  0  0  0
  182.3570  177.2010  135.8320 C   0  0  0  0  0  2  0  0  0  0  0  0
  183.1430  176.9960  134.5480 C   0  0  1  0  0  3  0  0  0  0  0  0
  184.3670  177.6610  134.6240 O   0  0  0  0  0  1  0  0  0  0  0  0
  183.3930  175.5160  134.3470 C   0  0  0  0  0  1  0  0  0  0  0  0
  1  4  1  6  0  0  0
  1  8  1  0  0  0  0
  2 12  1  0  0  0  0
  5  6  1  0  0  0  0
  5 15  1  1  0  0  0
  7  3  1  6  0  0  0
  7  9  1  0  0  0  0
  8  7  1  0  0  0  0
  8  5  1  0  0  0  0
  9  6  1  0  0  0  0
 10  2  1  0  0  0  0
 11 10  1  0  0  0  0
 11 13  1  0  0  0  0
 12  3  1  0  0  0  0
 13 14  1  0  0  0  0
 14 12  1  0  0  0  0
 14  1  1  0  0  0  0
 15 16  1  0  0  0  0
 16 22  1  0  0  0  0
 17 27  2  0  0  0  0
 19 25  1  0  0  0  0
 20 21  1  0  0  0  0
 20 19  1  0  0  0  0
 21 24  1  0  0  0  0
 22 26  1  0  0  0  0
 24 18  1  0  0  0  0
 24 23  1  0  0  0  0
 25 23  1  0  0  0  0
 26 18  1  0  0  0  0
 27 22  1  0  0  0  0
 27 21  1  0  0  0  0
 28 19  1  0  0  0  0
 28 30  1  0  0  0  0
 29 28  2  0  0  0  0
 31 11  1  0  0  0  0
 32 33  1  0  0  0  0
 32 31  1  0  0  0  0
 34 32  1  0  0  0  0
M  END
>  <MODEL>
7

>  <REMARK>
 VINA RESULT:      -8.1      6.446      7.949
  Name = 
  6 active torsions:
  status: ('A' for Active; 'I' for Inactive)
    1  A    between atoms: C_3  and  C_25
    2  A    between atoms: C_7  and  C_11
    3  A    between atoms: C_8  and  C_17
    4  A    between atoms: C_8  and  N_18
    5  A    between atoms: C_10  and  C_17
    6  A    between atoms: C_25  and  C_27
                            x       y       z     vdW  Elec       q    Type
                         _______ _______ _______ _____ _____    ______ ____

>  <TORSDO>
F 6

$$$$
=
 OpenBabel10272415093D

 34 38  0  0  1  0  0  0  0  0999 V2000
  187.4020  173.6050  137.3480 C   0  0  1  0  0  3  0  0  0  0  0  0
  183.4840  173.3150  137.0680 C   0  0  0  0  0  2  0  0  0  0  0  0
  185.0520  175.2140  136.7000 C   0  0  0  0  0  2  0  0  0  0  0  0
  188.4060  172.7530  136.8770 O   0  0  0  0  0  1  0  0  0  0  0  0
  188.6300  175.7330  136.4260 C   0  0  2  0  0  3  0  0  0  0  0  0
  188.0670  177.0880  136.0340 C   0  0  0  0  0  2  0  0  0  0  0  0
  186.3420  175.7830  137.0570 N   0  0  1  0  0  0  0  0  0  0  0  0
  187.3650  174.8980  136.5360 C   0  0  2  0  0  3  0  0  0  0  0  0
  186.5670  177.0140  136.3190 C   0  0  0  0  0  2  0  0  0  0  0  0
  183.5060  171.7870  137.0330 C   0  0  0  0  0  2  0  0  0  0  0  0
  184.5540  171.2570  136.0380 C   0  0  2  0  0  3  0  0  0  0  0  0
  184.8410  173.9070  137.4770 C   0  0  2  0  0  3  0  0  0  0  0  0
  185.8260  172.1160  135.9780 C   0  0  0  0  0  2  0  0  0  0  0  0
  186.0230  172.9160  137.2690 C   0  0  1  0  0  3  0  0  0  0  0  0
  189.3460  175.8870  137.7660 C   0  0  0  0  0  2  0  0  0  0  0  0
  189.7330  177.3380  138.0240 C   0  0  0  0  0  2  0  0  0  0  0  0
  187.4840  178.5410  139.3410 O   0  0  0  0  0  0  0  0  0  0  0  0
  190.4540  176.6100  141.5470 C   0  0  0  0  0  2  0  0  0  0  0  0
  186.8770  178.1260  143.5720 C   0  0  2  0  0  3  0  0  0  0  0  0
  186.9070  178.1740  142.0460 C   0  0  0  0  0  2  0  0  0  0  0  0
  188.3520  178.1060  141.5470 C   0  0  1  0  0  3  0  0  0  0  0  0
  189.6500  177.6540  139.4440 N   0  0  0  0  0  0  0  0  0  0  0  0
  188.9880  176.7680  143.5830 C   0  0  0  0  0  2  0  0  0  0  0  0
  189.0180  176.8180  142.0580 C   0  0  2  0  0  3  0  0  0  0  0  0
  187.5480  176.8500  144.0830 C   0  0  0  0  0  2  0  0  0  0  0  0
  190.8150  177.4220  140.2930 C   0  0  0  0  0  2  0  0  0  0  0  0
  188.4380  178.1190  140.0510 C   0  0  0  0  0  0  0  0  0  0  0  0
  185.4710  178.2000  144.0630 C   0  0  0  0  0  0  0  0  0  0  0  0
  184.5220  178.1660  143.2390 O   0  0  0  0  0  0  0  0  0  0  0  0
  185.2030  178.3050  145.4220 O   0  0  0  0  0  1  0  0  0  0  0  0
  183.9700  171.1360  134.6390 C   0  0  0  0  0  2  0  0  0  0  0  0
  183.5290  169.7100  134.3480 C   0  0  1  0  0  3  0  0  0  0  0  0
  184.1610  168.8260  135.2230 O   0  0  0  0  0  1  0  0  0  0  0  0
  182.0300  169.6030  134.5300 C   0  0  0  0  0  1  0  0  0  0  0  0
  1  4  1  6  0  0  0
  2 12  1  0  0  0  0
  3  7  1  0  0  0  0
  3 12  1  0  0  0  0
  5  8  1  0  0  0  0
  5 15  1  1  0  0  0
  6  9  1  0  0  0  0
  6  5  1  0  0  0  0
  7  9  1  6  0  0  0
  8  7  1  0  0  0  0
  8  1  1  0  0  0  0
 10  2  1  0  0  0  0
 11 10  1  0  0  0  0
 13 11  1  0  0  0  0
 13 14  1  0  0  0  0
 14  1  1  0  0  0  0
 14 12  1  0  0  0  0
 15 16  1  0  0  0  0
 16 22  1  0  0  0  0
 17 27  2  0  0  0  0
 18 24  1  0  0  0  0
 19 28  1  0  0  0  0
 19 25  1  0  0  0  0
 20 19  1  0  0  0  0
 21 20  1  0  0  0  0
 21 24  1  0  0  0  0
 22 27  1  0  0  0  0
 22 26  1  0  0  0  0
 23 25  1  0  0  0  0
 24 23  1  0  0  0  0
 26 18  1  0  0  0  0
 27 21  1  0  0  0  0
 28 30  1  0  0  0  0
 29 28  2  0  0  0  0
 31 11  1  0  0  0  0
 32 34  1  0  0  0  0
 32 31  1  0  0  0  0
 32 33  1  0  0  0  0
M  END
>  <MODEL>
8

>  <REMARK>
 VINA RESULT:      -7.8      5.040      7.237
  Name = 
  6 active torsions:
  status: ('A' for Active; 'I' for Inactive)
    1  A    between atoms: C_3  and  C_25
    2  A    between atoms: C_7  and  C_11
    3  A    between atoms: C_8  and  C_17
    4  A    between atoms: C_8  and  N_18
    5  A    between atoms: C_10  and  C_17
    6  A    between atoms: C_25  and  C_27
                            x       y       z     vdW  Elec       q    Type
                         _______ _______ _______ _____ _____    ______ ____

>  <TORSDO>
F 6

$$$$
=
 OpenBabel10272415093D

 34 38  0  0  1  0  0  0  0  0999 V2000
  182.3890  176.4340  138.3850 C   0  0  1  0  0  3  0  0  0  0  0  0
  181.2350  175.1920  134.8290 C   0  0  0  0  0  2  0  0  0  0  0  0
  183.2570  176.4270  135.5950 C   0  0  0  0  0  2  0  0  0  0  0  0
  182.3920  175.7700  139.6150 O   0  0  0  0  0  1  0  0  0  0  0  0
  184.8350  177.3180  138.7370 C   0  0  2  0  0  3  0  0  0  0  0  0
  185.8740  177.7370  137.7120 C   0  0  0  0  0  2  0  0  0  0  0  0
  183.7940  177.3290  136.6030 N   0  0  1  0  0  0  0  0  0  0  0  0
  183.8130  176.6110  137.8620 C   0  0  2  0  0  3  0  0  0  0  0  0
  185.2020  177.5800  136.3480 C   0  0  0  0  0  2  0  0  0  0  0  0
  180.1970  174.2270  135.4000 C   0  0  0  0  0  2  0  0  0  0  0  0
  180.7810  173.3760  136.5420 C   0  0  2  0  0  3  0  0  0  0  0  0
  181.7740  176.1610  135.8910 C   0  0  2  0  0  3  0  0  0  0  0  0
  181.7880  174.1360  137.4160 C   0  0  0  0  0  2  0  0  0  0  0  0
  181.5590  175.6500  137.3450 C   0  0  1  0  0  3  0  0  0  0  0  0
  184.2730  178.5820  139.3840 C   0  0  0  0  0  2  0  0  0  0  0  0
  185.2480  179.1650  140.3990 C   0  0  0  0  0  2  0  0  0  0  0  0
  187.2620  177.9950  142.0770 O   0  0  0  0  0  0  0  0  0  0  0  0
  183.5700  179.1250  143.6610 C   0  0  0  0  0  2  0  0  0  0  0  0
  186.7260  177.6640  146.3250 C   0  0  2  0  0  3  0  0  0  0  0  0
  187.0840  177.9050  144.8600 C   0  0  0  0  0  2  0  0  0  0  0  0
  185.8160  177.9030  144.0030 C   0  0  1  0  0  3  0  0  0  0  0  0
  185.0250  178.5970  141.7220 N   0  0  0  0  0  0  0  0  0  0  0  0
  184.4910  178.7490  145.9690 C   0  0  0  0  0  2  0  0  0  0  0  0
  184.8490  178.9870  144.5060 C   0  0  2  0  0  3  0  0  0  0  0  0
  185.7560  178.7370  146.8240 C   0  0  0  0  0  2  0  0  0  0  0  0
  183.6650  178.5300  142.2470 C   0  0  0  0  0  2  0  0  0  0  0  0
  186.1070  178.1650  142.5560 C   0  0  0  0  0  0  0  0  0  0  0  0
  187.9600  177.6580  147.1620 C   0  0  0  0  0  0  0  0  0  0  0  0
  188.9320  176.9310  146.8340 O   0  0  0  0  0  0  0  0  0  0  0  0
  188.0440  178.4490  148.3020 O   0  0  0  0  0  1  0  0  0  0  0  0
  181.4420  172.1160  136.0030 C   0  0  0  0  0  2  0  0  0  0  0  0
  182.9350  172.1140  136.2840 C   0  0  1  0  0  3  0  0  0  0  0  0
  183.2910  170.9540  136.9730 O   0  0  0  0  0  1  0  0  0  0  0  0
  183.6910  172.1620  134.9720 C   0  0  0  0  0  1  0  0  0  0  0  0
  1  4  1  1  0  0  0
  2 10  1  0  0  0  0
  2 12  1  0  0  0  0
  3 12  1  0  0  0  0
  5 15  1  6  0  0  0
  6  5  1  0  0  0  0
  7  3  1  6  0  0  0
  7  8  1  0  0  0  0
  8  1  1  0  0  0  0
  8  5  1  0  0  0  0
  9  7  1  0  0  0  0
  9  6  1  0  0  0  0
 10 11  1  0  0  0  0
 11 13  1  0  0  0  0
 12 14  1  0  0  0  0
 14 13  1  0  0  0  0
 14  1  1  0  0  0  0
 15 16  1  0  0  0  0
 16 22  1  0  0  0  0
 17 27  2  0  0  0  0
 18 24  1  0  0  0  0
 19 25  1  0  0  0  0
 19 28  1  0  0  0  0
 20 19  1  0  0  0  0
 21 24  1  0  0  0  0
 21 20  1  0  0  0  0
 22 26  1  0  0  0  0
 22 27  1  0  0  0  0
 23 25  1  0  0  0  0
 24 23  1  0  0  0  0
 26 18  1  0  0  0  0
 27 21  1  0  0  0  0
 28 30  1  0  0  0  0
 29 28  2  0  0  0  0
 31 32  1  0  0  0  0
 31 11  1  0  0  0  0
 32 33  1  0  0  0  0
 34 32  1  0  0  0  0
M  END
>  <MODEL>
9

>  <REMARK>
 VINA RESULT:      -7.7      5.632      7.922
  Name = 
  6 active torsions:
  status: ('A' for Active; 'I' for Inactive)
    1  A    between atoms: C_3  and  C_25
    2  A    between atoms: C_7  and  C_11
    3  A    between atoms: C_8  and  C_17
    4  A    between atoms: C_8  and  N_18
    5  A    between atoms: C_10  and  C_17
    6  A    between atoms: C_25  and  C_27
                            x       y       z     vdW  Elec       q    Type
                         _______ _______ _______ _____ _____    ______ ____

>  <TORSDO>
F 6

$$$$
