=
 OpenBabel10272413553D

 30 32  0  0  1  0  0  0  0  0999 V2000
  188.6600  177.7950  144.2380 O   0  0  0  0  0  0  0  0  0  0  0  0
  190.8460  178.5070  144.9720 C   0  0  1  0  0  3  0  0  0  0  0  0
  187.0280  179.1050  147.4530 C   0  0  0  0  0  2  0  0  0  0  0  0
  187.2860  178.0480  144.3900 C   0  0  2  0  0  3  0  0  0  0  0  0
  185.6330  178.9970  147.5950 O   0  0  0  0  0  0  0  0  0  0  0  0
  191.4950  177.1980  145.4520 C   0  0  0  0  0  2  0  0  0  0  0  0
  191.1190  178.7150  143.6200 O   0  0  0  0  0  1  0  0  0  0  0  0
  187.5660  177.7830  146.9010 C   0  0  1  0  0  3  0  0  0  0  0  0
  190.5290  176.1930  145.6470 O   0  0  0  0  0  0  0  0  0  0  0  0
  189.3330  178.5270  145.2350 C   0  0  2  0  0  3  0  0  0  0  0  0
  186.7530  177.3460  145.6610 C   0  0  1  0  0  3  0  0  0  0  0  0
  185.1410  178.9780  146.3640 O   0  0  0  0  0  0  0  0  0  0  0  0
  185.2710  177.6500  145.9160 C   0  0  0  0  0  2  0  0  0  0  0  0
  189.7800  176.5490  146.7900 C   0  0  0  0  0  2  0  0  0  0  0  0
  189.0620  177.9030  146.6180 C   0  0  2  0  0  3  0  0  0  0  0  0
  186.5450  177.6940  143.0800 C   0  0  1  0  0  3  0  0  0  0  0  0
  185.5150  180.0130  143.3470 C   0  0  0  0  0  1  0  0  0  0  0  0
  185.5330  178.7220  142.5370 C   0  0  2  0  0  3  0  0  0  0  0  0
  183.0880  178.8790  143.1440 C   0  0  0  0  0  1  0  0  0  0  0  0
  184.1340  178.1180  142.3450 C   0  0  1  0  0  3  0  0  0  0  0  0
  183.7460  178.1780  140.9060 C   0  0  0  0  0  3  0  0  0  0  0  0
  184.7270  179.9450  139.3660 O   0  0  0  0  0  0  0  0  0  0  0  0
  184.2500  179.0870  140.1190 C   0  0  0  0  0  0  0  0  0  0  0  0
  187.4250  177.2720  142.0800 O   0  0  0  0  0  0  0  0  0  0  0  0
  187.6460  178.4080  141.2960 C   0  0  0  0  0  2  0  0  0  0  0  0
  188.2010  178.0100  139.9370 C   0  0  0  0  0  2  0  0  0  0  0  0
  189.7240  178.0280  139.9280 C   0  0  0  0  0  2  0  0  0  0  0  0
  190.4410  176.1990  141.4680 O   0  0  0  0  0  1  0  0  0  0  0  0
  190.2780  176.6650  140.1700 C   0  0  0  0  0  0  0  0  0  0  0  0
  190.6130  175.9400  139.1970 O   0  0  0  0  0  0  0  0  0  0  0  0
  1  4  1  0  0  0  0
  2  7  1  6  0  0  0
  2 10  1  0  0  0  0
  2  6  1  0  0  0  0
  3  5  1  0  0  0  0
  4 16  1  6  0  0  0
  4 11  1  0  0  0  0
  6  9  1  0  0  0  0
  8  3  1  6  0  0  0
  9 14  1  0  0  0  0
 10  1  1  6  0  0  0
 10 15  1  0  0  0  0
 11 13  1  1  0  0  0
 11  8  1  0  0  0  0
 12  5  1  0  0  0  0
 13 12  1  0  0  0  0
 15 14  1  6  0  0  0
 15  8  1  0  0  0  0
 16 24  1  6  0  0  0
 18 16  1  0  0  0  0
 18 17  1  1  0  0  0
 20 18  1  0  0  0  0
 20 19  1  1  0  0  0
 21 20  1  0  0  0  0
 22 23  2  0  0  0  0
 23 21  2  0  0  0  0
 25 24  1  0  0  0  0
 26 25  1  0  0  0  0
 27 26  1  0  0  0  0
 27 29  1  0  0  0  0
 29 28  1  0  0  0  0
 30 29  2  0  0  0  0
M  END
>  <MODEL>
1

>  <REMARK>
 VINA RESULT:      -6.7      0.000      0.000
  Name = 
  9 active torsions:
  status: ('A' for Active; 'I' for Inactive)
    1  A    between atoms: C_4  and  C_13
    2  A    between atoms: C_5  and  C_12
    3  A    between atoms: C_7  and  C_15
    4  A    between atoms: C_7  and  C_16
    5  A    between atoms: C_8  and  C_12
    6  A    between atoms: C_8  and  C_13
    7  A    between atoms: C_13  and  O_27
    8  A    between atoms: C_16  and  C_30
    9  A    between atoms: O_27  and  C_30
                            x       y       z     vdW  Elec       q    Type
                         _______ _______ _______ _____ _____    ______ ____

>  <TORSDO>
F 9

$$$$
=
 OpenBabel10272413553D

 30 32  0  0  1  0  0  0  0  0999 V2000
  188.2360  177.7150  139.5770 O   0  0  0  0  0  0  0  0  0  0  0  0
  188.4270  178.4170  137.2760 C   0  0  1  0  0  3  0  0  0  0  0  0
  192.0490  177.6280  139.9860 C   0  0  0  0  0  2  0  0  0  0  0  0
  188.9060  177.7170  140.8120 C   0  0  2  0  0  3  0  0  0  0  0  0
  192.5860  177.2960  141.2430 O   0  0  0  0  0  0  0  0  0  0  0  0
  188.1590  177.1200  136.4930 C   0  0  0  0  0  2  0  0  0  0  0  0
  187.2330  179.1050  137.4940 O   0  0  0  0  0  1  0  0  0  0  0  0
  190.9110  176.6550  139.6700 C   0  0  1  0  0  3  0  0  0  0  0  0
  188.2760  175.9900  137.3250 O   0  0  0  0  0  0  0  0  0  0  0  0
  189.1550  178.1470  138.6010 C   0  0  2  0  0  3  0  0  0  0  0  0
  189.9330  176.5620  140.8620 C   0  0  1  0  0  3  0  0  0  0  0  0
  191.6650  177.6310  142.1350 O   0  0  0  0  0  0  0  0  0  0  0  0
  190.7470  176.5640  142.1630 C   0  0  0  0  0  2  0  0  0  0  0  0
  189.6460  175.8360  137.6280 C   0  0  0  0  0  2  0  0  0  0  0  0
  190.2220  177.0610  138.3670 C   0  0  2  0  0  3  0  0  0  0  0  0
  187.8740  177.7350  141.9630 C   0  0  1  0  0  3  0  0  0  0  0  0
  187.4930  175.8780  143.6700 C   0  0  0  0  0  1  0  0  0  0  0  0
  188.3020  177.1190  143.3090 C   0  0  2  0  0  3  0  0  0  0  0  0
  187.3250  177.8330  145.5250 C   0  0  0  0  0  1  0  0  0  0  0  0
  188.3410  178.1570  144.4400 C   0  0  1  0  0  3  0  0  0  0  0  0
  189.6940  178.1740  145.0690 C   0  0  0  0  0  3  0  0  0  0  0  0
  190.2260  176.6820  147.0550 O   0  0  0  0  0  0  0  0  0  0  0  0
  189.9640  177.4080  146.0890 C   0  0  0  0  0  0  0  0  0  0  0  0
  187.3110  179.0020  142.1400 O   0  0  0  0  0  0  0  0  0  0  0  0
  186.0420  178.9120  141.5630 C   0  0  0  0  0  2  0  0  0  0  0  0
  185.0280  178.4410  142.5950 C   0  0  0  0  0  2  0  0  0  0  0  0
  184.7680  179.5080  143.6510 C   0  0  0  0  0  2  0  0  0  0  0  0
  182.4660  178.6840  144.1500 O   0  0  0  0  0  0  0  0  0  0  0  0
  183.7180  179.0660  144.6130 C   0  0  0  0  0  0  0  0  0  0  0  0
  183.9610  179.0530  145.8480 O   0  0  0  0  0  1  0  0  0  0  0  0
  1  4  1  0  0  0  0
  2  7  1  1  0  0  0
  2 10  1  0  0  0  0
  3  5  1  0  0  0  0
  4 11  1  0  0  0  0
  4 16  1  1  0  0  0
  5 12  1  0  0  0  0
  6  2  1  0  0  0  0
  6  9  1  0  0  0  0
  8  3  1  1  0  0  0
  8 11  1  0  0  0  0
  9 14  1  0  0  0  0
 10  1  1  1  0  0  0
 11 13  1  1  0  0  0
 12 13  1  0  0  0  0
 15 14  1  1  0  0  0
 15 10  1  0  0  0  0
 15  8  1  0  0  0  0
 16 24  1  1  0  0  0
 16 18  1  0  0  0  0
 18 17  1  1  0  0  0
 18 20  1  0  0  0  0
 20 21  1  0  0  0  0
 20 19  1  1  0  0  0
 21 23  2  0  0  0  0
 23 22  2  0  0  0  0
 25 24  1  0  0  0  0
 25 26  1  0  0  0  0
 26 27  1  0  0  0  0
 27 29  1  0  0  0  0
 28 29  2  0  0  0  0
 29 30  1  0  0  0  0
M  END
>  <MODEL>
2

>  <REMARK>
 VINA RESULT:      -6.7      1.967      7.103
  Name = 
  9 active torsions:
  status: ('A' for Active; 'I' for Inactive)
    1  A    between atoms: C_4  and  C_13
    2  A    between atoms: C_5  and  C_12
    3  A    between atoms: C_7  and  C_15
    4  A    between atoms: C_7  and  C_16
    5  A    between atoms: C_8  and  C_12
    6  A    between atoms: C_8  and  C_13
    7  A    between atoms: C_13  and  O_27
    8  A    between atoms: C_16  and  C_30
    9  A    between atoms: O_27  and  C_30
                            x       y       z     vdW  Elec       q    Type
                         _______ _______ _______ _____ _____    ______ ____

>  <TORSDO>
F 9

$$$$
=
 OpenBabel10272413553D

 30 32  0  0  1  0  0  0  0  0999 V2000
  187.9040  177.8850  139.7380 O   0  0  0  0  0  0  0  0  0  0  0  0
  188.1460  178.3210  137.3760 C   0  0  1  0  0  3  0  0  0  0  0  0
  191.7020  177.6030  140.1930 C   0  0  0  0  0  2  0  0  0  0  0  0
  188.5690  177.9780  140.9710 C   0  0  2  0  0  3  0  0  0  0  0  0
  192.2130  177.3740  141.4830 O   0  0  0  0  0  0  0  0  0  0  0  0
  187.7990  176.9670  136.7350 C   0  0  0  0  0  2  0  0  0  0  0  0
  186.9980  179.1030  137.5080 O   0  0  0  0  0  1  0  0  0  0  0  0
  190.5060  176.6750  139.9710 C   0  0  1  0  0  3  0  0  0  0  0  0
  187.8410  175.9280  137.6840 O   0  0  0  0  0  0  0  0  0  0  0  0
  188.8510  178.1500  138.7310 C   0  0  2  0  0  3  0  0  0  0  0  0
  189.5190  176.7730  141.1570 C   0  0  1  0  0  3  0  0  0  0  0  0
  191.3110  177.8620  142.3240 O   0  0  0  0  0  0  0  0  0  0  0  0
  190.3280  176.8630  142.4580 C   0  0  0  0  0  2  0  0  0  0  0  0
  189.1980  175.7210  138.0160 C   0  0  0  0  0  2  0  0  0  0  0  0
  189.8480  176.9800  138.6250 C   0  0  2  0  0  3  0  0  0  0  0  0
  187.5360  178.1850  142.1030 C   0  0  1  0  0  3  0  0  0  0  0  0
  185.9560  180.0930  142.7140 C   0  0  0  0  0  1  0  0  0  0  0  0
  186.2410  178.9440  141.7530 C   0  0  2  0  0  3  0  0  0  0  0  0
  183.9250  178.3370  142.5520 C   0  0  0  0  0  1  0  0  0  0  0  0
  185.0420  178.0020  141.5750 C   0  0  1  0  0  3  0  0  0  0  0  0
  184.4950  178.1280  140.1920 C   0  0  0  0  0  3  0  0  0  0  0  0
  184.2510  180.4040  139.0920 O   0  0  0  0  0  0  0  0  0  0  0  0
  184.3700  179.2980  139.6310 C   0  0  0  0  0  0  0  0  0  0  0  0
  187.2590  176.9950  142.7820 O   0  0  0  0  0  0  0  0  0  0  0  0
  187.6290  177.2460  144.1060 C   0  0  0  0  0  2  0  0  0  0  0  0
  186.4010  177.2500  145.0040 C   0  0  0  0  0  2  0  0  0  0  0  0
  186.6980  177.8880  146.3550 C   0  0  0  0  0  2  0  0  0  0  0  0
  185.8630  179.9060  147.5630 O   0  0  0  0  0  1  0  0  0  0  0  0
  185.5920  178.7970  146.7730 C   0  0  0  0  0  0  0  0  0  0  0  0
  184.4090  178.5530  146.4200 O   0  0  0  0  0  0  0  0  0  0  0  0
  1  4  1  0  0  0  0
  2  7  1  1  0  0  0
  2 10  1  0  0  0  0
  3  5  1  0  0  0  0
  4 11  1  0  0  0  0
  4 16  1  1  0  0  0
  5 12  1  0  0  0  0
  6  2  1  0  0  0  0
  6  9  1  0  0  0  0
  8  3  1  1  0  0  0
  8 11  1  0  0  0  0
  9 14  1  0  0  0  0
 10  1  1  1  0  0  0
 11 13  1  1  0  0  0
 12 13  1  0  0  0  0
 15 14  1  1  0  0  0
 15 10  1  0  0  0  0
 15  8  1  0  0  0  0
 16 24  1  6  0  0  0
 18 16  1  0  0  0  0
 18 17  1  1  0  0  0
 20 18  1  0  0  0  0
 20 19  1  1  0  0  0
 21 20  1  0  0  0  0
 22 23  2  0  0  0  0
 23 21  2  0  0  0  0
 24 25  1  0  0  0  0
 25 26  1  0  0  0  0
 26 27  1  0  0  0  0
 27 29  1  0  0  0  0
 29 28  1  0  0  0  0
 30 29  2  0  0  0  0
M  END
>  <MODEL>
3

>  <REMARK>
 VINA RESULT:      -6.5      1.820      6.266
  Name = 
  9 active torsions:
  status: ('A' for Active; 'I' for Inactive)
    1  A    between atoms: C_4  and  C_13
    2  A    between atoms: C_5  and  C_12
    3  A    between atoms: C_7  and  C_15
    4  A    between atoms: C_7  and  C_16
    5  A    between atoms: C_8  and  C_12
    6  A    between atoms: C_8  and  C_13
    7  A    between atoms: C_13  and  O_27
    8  A    between atoms: C_16  and  C_30
    9  A    between atoms: O_27  and  C_30
                            x       y       z     vdW  Elec       q    Type
                         _______ _______ _______ _____ _____    ______ ____

>  <TORSDO>
F 9

$$$$
=
 OpenBabel10272413553D

 30 32  0  0  1  0  0  0  0  0999 V2000
  188.1690  177.3200  140.6960 O   0  0  0  0  0  0  0  0  0  0  0  0
  187.7420  178.3460  138.5530 C   0  0  1  0  0  3  0  0  0  0  0  0
  191.9570  177.7640  140.2830 C   0  0  0  0  0  2  0  0  0  0  0  0
  189.0990  177.2590  141.7470 C   0  0  2  0  0  3  0  0  0  0  0  0
  192.8030  177.3520  141.3270 O   0  0  0  0  0  0  0  0  0  0  0  0
  187.4600  177.1410  137.6400 C   0  0  0  0  0  2  0  0  0  0  0  0
  186.5570  178.8070  139.1260 O   0  0  0  0  0  1  0  0  0  0  0  0
  190.9020  176.6800  140.0530 C   0  0  1  0  0  3  0  0  0  0  0  0
  187.8990  175.9400  138.2310 O   0  0  0  0  0  0  0  0  0  0  0  0
  188.7820  178.0150  139.6350 C   0  0  2  0  0  3  0  0  0  0  0  0
  190.2410  176.2780  141.3920 C   0  0  1  0  0  3  0  0  0  0  0  0
  192.0770  177.4190  142.4350 O   0  0  0  0  0  0  0  0  0  0  0  0
  191.3250  176.2290  142.4770 C   0  0  0  0  0  2  0  0  0  0  0  0
  189.3100  175.9580  138.2130 C   0  0  0  0  0  2  0  0  0  0  0  0
  189.8890  177.1460  139.0080 C   0  0  2  0  0  3  0  0  0  0  0  0
  188.3630  176.9630  143.0740 C   0  0  1  0  0  3  0  0  0  0  0  0
  189.7790  178.8850  143.9760 C   0  0  0  0  0  1  0  0  0  0  0  0
  188.7270  177.8300  144.2960 C   0  0  2  0  0  3  0  0  0  0  0  0
  190.5490  177.1450  145.9030 C   0  0  0  0  0  1  0  0  0  0  0  0
  189.0850  176.9830  145.5260 C   0  0  1  0  0  3  0  0  0  0  0  0
  188.2600  177.4080  146.6950 C   0  0  0  0  0  3  0  0  0  0  0  0
  189.3530  178.3630  148.7800 O   0  0  0  0  0  0  0  0  0  0  0  0
  188.8240  177.8960  147.7640 C   0  0  0  0  0  0  0  0  0  0  0  0
  186.9780  176.8890  142.8990 O   0  0  0  0  0  0  0  0  0  0  0  0
  186.4640  177.9230  143.6860 C   0  0  0  0  0  2  0  0  0  0  0  0
  185.3700  178.6640  142.9320 C   0  0  0  0  0  2  0  0  0  0  0  0
  184.6940  179.7080  143.8120 C   0  0  0  0  0  2  0  0  0  0  0  0
  182.5040  178.6040  144.2730 O   0  0  0  0  0  0  0  0  0  0  0  0
  183.7220  179.0730  144.7470 C   0  0  0  0  0  0  0  0  0  0  0  0
  183.9990  178.9730  145.9710 O   0  0  0  0  0  1  0  0  0  0  0  0
  1  4  1  0  0  0  0
  2  7  1  1  0  0  0
  2 10  1  0  0  0  0
  3  5  1  0  0  0  0
  4 16  1  1  0  0  0
  5 12  1  0  0  0  0
  6  9  1  0  0  0  0
  6  2  1  0  0  0  0
  8  3  1  1  0  0  0
  8 11  1  0  0  0  0
 10  1  1  1  0  0  0
 11  4  1  0  0  0  0
 11 13  1  1  0  0  0
 12 13  1  0  0  0  0
 14  9  1  0  0  0  0
 15 14  1  1  0  0  0
 15 10  1  0  0  0  0
 15  8  1  0  0  0  0
 16 24  1  6  0  0  0
 16 18  1  0  0  0  0
 18 17  1  6  0  0  0
 18 20  1  0  0  0  0
 20 19  1  1  0  0  0
 20 21  1  0  0  0  0
 21 23  2  0  0  0  0
 23 22  2  0  0  0  0
 24 25  1  0  0  0  0
 26 25  1  0  0  0  0
 26 27  1  0  0  0  0
 27 29  1  0  0  0  0
 28 29  2  0  0  0  0
 29 30  1  0  0  0  0
M  END
>  <MODEL>
4

>  <REMARK>
 VINA RESULT:      -6.3      1.877      7.072
  Name = 
  9 active torsions:
  status: ('A' for Active; 'I' for Inactive)
    1  A    between atoms: C_4  and  C_13
    2  A    between atoms: C_5  and  C_12
    3  A    between atoms: C_7  and  C_15
    4  A    between atoms: C_7  and  C_16
    5  A    between atoms: C_8  and  C_12
    6  A    between atoms: C_8  and  C_13
    7  A    between atoms: C_13  and  O_27
    8  A    between atoms: C_16  and  C_30
    9  A    between atoms: O_27  and  C_30
                            x       y       z     vdW  Elec       q    Type
                         _______ _______ _______ _____ _____    ______ ____

>  <TORSDO>
F 9

$$$$
=
 OpenBabel10272413553D

 30 32  0  0  1  0  0  0  0  0999 V2000
  188.3570  177.7080  139.5860 O   0  0  0  0  0  0  0  0  0  0  0  0
  188.5630  178.4330  137.2930 C   0  0  1  0  0  3  0  0  0  0  0  0
  192.1670  177.6250  140.0230 C   0  0  0  0  0  2  0  0  0  0  0  0
  189.0180  177.7000  140.8250 C   0  0  2  0  0  3  0  0  0  0  0  0
  192.6960  177.2810  141.2790 O   0  0  0  0  0  0  0  0  0  0  0  0
  188.3030  177.1440  136.4960 C   0  0  0  0  0  2  0  0  0  0  0  0
  187.3670  179.1170  137.5100 O   0  0  0  0  0  1  0  0  0  0  0  0
  191.0330  176.6530  139.6880 C   0  0  1  0  0  3  0  0  0  0  0  0
  188.4170  176.0060  137.3170 O   0  0  0  0  0  0  0  0  0  0  0  0
  189.2820  178.1520  138.6220 C   0  0  2  0  0  3  0  0  0  0  0  0
  190.0470  176.5460  140.8730 C   0  0  1  0  0  3  0  0  0  0  0  0
  191.7670  177.6060  142.1680 O   0  0  0  0  0  0  0  0  0  0  0  0
  190.8520  176.5360  142.1790 C   0  0  0  0  0  2  0  0  0  0  0  0
  189.7850  175.8510  137.6290 C   0  0  0  0  0  2  0  0  0  0  0  0
  190.3530  177.0700  138.3850 C   0  0  2  0  0  3  0  0  0  0  0  0
  187.9780  177.7050  141.9690 C   0  0  1  0  0  3  0  0  0  0  0  0
  187.6130  175.8050  143.6320 C   0  0  0  0  0  1  0  0  0  0  0  0
  188.3950  177.0730  143.3120 C   0  0  2  0  0  3  0  0  0  0  0  0
  187.2340  177.8280  145.4220 C   0  0  0  0  0  1  0  0  0  0  0  0
  188.3850  178.0890  144.4630 C   0  0  1  0  0  3  0  0  0  0  0  0
  189.6570  177.9950  145.2370 C   0  0  0  0  0  3  0  0  0  0  0  0
  189.7510  176.7340  147.4400 O   0  0  0  0  0  0  0  0  0  0  0  0
  189.7020  177.3480  146.3680 C   0  0  0  0  0  0  0  0  0  0  0  0
  187.4130  178.9700  142.1570 O   0  0  0  0  0  0  0  0  0  0  0  0
  186.2040  178.9270  141.4580 C   0  0  0  0  0  2  0  0  0  0  0  0
  185.1400  178.2270  142.2910 C   0  0  0  0  0  2  0  0  0  0  0  0
  183.7550  178.8030  142.0270 C   0  0  0  0  0  2  0  0  0  0  0  0
  182.8820  177.1900  140.3340 O   0  0  0  0  0  1  0  0  0  0  0  0
  183.2940  178.4790  140.6460 C   0  0  0  0  0  0  0  0  0  0  0  0
  183.2920  179.3700  139.7570 O   0  0  0  0  0  0  0  0  0  0  0  0
  1  4  1  0  0  0  0
  2  7  1  1  0  0  0
  2 10  1  0  0  0  0
  3  5  1  0  0  0  0
  4 11  1  0  0  0  0
  4 16  1  1  0  0  0
  5 12  1  0  0  0  0
  6  2  1  0  0  0  0
  6  9  1  0  0  0  0
  8  3  1  1  0  0  0
  8 11  1  0  0  0  0
  9 14  1  0  0  0  0
 10  1  1  1  0  0  0
 11 13  1  1  0  0  0
 12 13  1  0  0  0  0
 15 14  1  1  0  0  0
 15 10  1  0  0  0  0
 15  8  1  0  0  0  0
 16 24  1  1  0  0  0
 16 18  1  0  0  0  0
 18 17  1  1  0  0  0
 18 20  1  0  0  0  0
 20 21  1  0  0  0  0
 20 19  1  1  0  0  0
 21 23  2  0  0  0  0
 23 22  2  0  0  0  0
 25 24  1  0  0  0  0
 25 26  1  0  0  0  0
 27 26  1  0  0  0  0
 28 29  1  0  0  0  0
 29 27  1  0  0  0  0
 30 29  2  0  0  0  0
M  END
>  <MODEL>
5

>  <REMARK>
 VINA RESULT:      -5.8      1.983      6.951
  Name = 
  9 active torsions:
  status: ('A' for Active; 'I' for Inactive)
    1  A    between atoms: C_4  and  C_13
    2  A    between atoms: C_5  and  C_12
    3  A    between atoms: C_7  and  C_15
    4  A    between atoms: C_7  and  C_16
    5  A    between atoms: C_8  and  C_12
    6  A    between atoms: C_8  and  C_13
    7  A    between atoms: C_13  and  O_27
    8  A    between atoms: C_16  and  C_30
    9  A    between atoms: O_27  and  C_30
                            x       y       z     vdW  Elec       q    Type
                         _______ _______ _______ _____ _____    ______ ____

>  <TORSDO>
F 9

$$$$
=
 OpenBabel10272413553D

 30 32  0  0  1  0  0  0  0  0999 V2000
  186.7030  178.3270  143.1050 O   0  0  0  0  0  0  0  0  0  0  0  0
  184.3250  177.9820  142.8810 C   0  0  1  0  0  3  0  0  0  0  0  0
  186.6840  176.9470  146.6840 C   0  0  0  0  0  2  0  0  0  0  0  0
  187.8430  177.8830  143.7950 C   0  0  2  0  0  3  0  0  0  0  0  0
  187.9020  176.8540  147.3790 O   0  0  0  0  0  0  0  0  0  0  0  0
  183.7480  179.3940  143.0800 C   0  0  0  0  0  2  0  0  0  0  0  0
  184.5890  177.7530  141.5310 O   0  0  0  0  0  1  0  0  0  0  0  0
  186.6240  178.3060  145.9830 C   0  0  1  0  0  3  0  0  0  0  0  0
  184.6970  180.2540  143.6640 O   0  0  0  0  0  0  0  0  0  0  0  0
  185.5830  177.7510  143.7340 C   0  0  2  0  0  3  0  0  0  0  0  0
  187.9220  178.5580  145.1840 C   0  0  1  0  0  3  0  0  0  0  0  0
  188.8440  176.7410  146.4520 O   0  0  0  0  0  0  0  0  0  0  0  0
  189.1110  178.0510  146.0110 C   0  0  0  0  0  2  0  0  0  0  0  0
  184.8600  179.8460  145.0060 C   0  0  0  0  0  2  0  0  0  0  0  0
  185.3680  178.3940  145.1170 C   0  0  2  0  0  3  0  0  0  0  0  0
  189.0920  178.0600  142.9020 C   0  0  1  0  0  3  0  0  0  0  0  0
  189.2370  175.5160  143.0390 C   0  0  0  0  0  1  0  0  0  0  0  0
  189.9180  176.7990  142.5770 C   0  0  2  0  0  3  0  0  0  0  0  0
  191.6420  178.2710  143.6870 C   0  0  0  0  0  1  0  0  0  0  0  0
  191.3710  176.9120  143.0610 C   0  0  1  0  0  3  0  0  0  0  0  0
  191.6490  175.8690  144.0910 C   0  0  0  0  0  3  0  0  0  0  0  0
  192.1640  176.5150  146.4930 O   0  0  0  0  0  0  0  0  0  0  0  0
  191.9140  176.2040  145.3220 C   0  0  0  0  0  0  0  0  0  0  0  0
  188.8090  178.7930  141.7460 O   0  0  0  0  0  0  0  0  0  0  0  0
  189.0480  177.9040  140.6940 C   0  0  0  0  0  2  0  0  0  0  0  0
  188.0410  178.1310  139.5760 C   0  0  0  0  0  2  0  0  0  0  0  0
  188.4370  177.3850  138.3080 C   0  0  0  0  0  2  0  0  0  0  0  0
  188.9580  179.6930  137.5140 O   0  0  0  0  0  1  0  0  0  0  0  0
  188.9450  178.3260  137.2690 C   0  0  0  0  0  0  0  0  0  0  0  0
  189.3500  177.8840  136.1630 O   0  0  0  0  0  0  0  0  0  0  0  0
  1  4  1  0  0  0  0
  2  7  1  6  0  0  0
  2  6  1  0  0  0  0
  2 10  1  0  0  0  0
  3  5  1  0  0  0  0
  4 16  1  6  0  0  0
  4 11  1  0  0  0  0
  6  9  1  0  0  0  0
  8  3  1  6  0  0  0
  9 14  1  0  0  0  0
 10  1  1  6  0  0  0
 10 15  1  0  0  0  0
 11  8  1  0  0  0  0
 11 13  1  1  0  0  0
 12  5  1  0  0  0  0
 13 12  1  0  0  0  0
 15 14  1  6  0  0  0
 15  8  1  0  0  0  0
 16 24  1  6  0  0  0
 18 16  1  0  0  0  0
 18 17  1  1  0  0  0
 18 20  1  0  0  0  0
 20 19  1  1  0  0  0
 20 21  1  0  0  0  0
 21 23  2  0  0  0  0
 23 22  2  0  0  0  0
 25 24  1  0  0  0  0
 26 25  1  0  0  0  0
 27 26  1  0  0  0  0
 29 28  1  0  0  0  0
 29 27  1  0  0  0  0
 30 29  2  0  0  0  0
M  END
>  <MODEL>
6

>  <REMARK>
 VINA RESULT:      -5.8      2.113      5.485
  Name = 
  9 active torsions:
  status: ('A' for Active; 'I' for Inactive)
    1  A    between atoms: C_4  and  C_13
    2  A    between atoms: C_5  and  C_12
    3  A    between atoms: C_7  and  C_15
    4  A    between atoms: C_7  and  C_16
    5  A    between atoms: C_8  and  C_12
    6  A    between atoms: C_8  and  C_13
    7  A    between atoms: C_13  and  O_27
    8  A    between atoms: C_16  and  C_30
    9  A    between atoms: O_27  and  C_30
                            x       y       z     vdW  Elec       q    Type
                         _______ _______ _______ _____ _____    ______ ____

>  <TORSDO>
F 9

$$$$
=
 OpenBabel10272413553D

 30 32  0  0  1  0  0  0  0  0999 V2000
  189.5870  175.3390  137.5190 O   0  0  0  0  0  0  0  0  0  0  0  0
  188.6480  173.4860  136.2910 C   0  0  1  0  0  3  0  0  0  0  0  0
  187.1440  177.8070  135.8910 C   0  0  0  0  0  2  0  0  0  0  0  0
  189.2960  176.6200  138.0180 C   0  0  2  0  0  3  0  0  0  0  0  0
  187.1890  179.1580  136.2790 O   0  0  0  0  0  0  0  0  0  0  0  0
  189.6720  173.2600  135.1660 C   0  0  0  0  0  2  0  0  0  0  0  0
  188.9760  172.7150  137.4050 O   0  0  0  0  0  1  0  0  0  0  0  0
  188.5770  177.3110  135.6820 C   0  0  1  0  0  3  0  0  0  0  0  0
  190.5260  174.3700  135.0230 O   0  0  0  0  0  0  0  0  0  0  0  0
  188.5290  174.9710  136.6670 C   0  0  2  0  0  3  0  0  0  0  0  0
  189.4560  177.6760  136.8990 C   0  0  1  0  0  3  0  0  0  0  0  0
  187.6790  179.1680  137.5110 O   0  0  0  0  0  0  0  0  0  0  0  0
  189.0780  179.0860  137.3710 C   0  0  0  0  0  2  0  0  0  0  0  0
  189.7580  175.4190  134.4730 C   0  0  0  0  0  2  0  0  0  0  0  0
  188.5740  175.8140  135.3780 C   0  0  2  0  0  3  0  0  0  0  0  0
  190.1250  176.8800  139.2960 C   0  0  1  0  0  3  0  0  0  0  0  0
  188.6460  178.2720  140.8410 C   0  0  0  0  0  1  0  0  0  0  0  0
  189.3650  176.9430  140.6360 C   0  0  2  0  0  3  0  0  0  0  0  0
  190.9090  177.7710  142.4530 C   0  0  0  0  0  1  0  0  0  0  0  0
  190.2500  176.5510  141.8280 C   0  0  1  0  0  3  0  0  0  0  0  0
  189.4240  175.8870  142.8790 C   0  0  0  0  0  3  0  0  0  0  0  0
  188.4130  177.2300  144.7830 O   0  0  0  0  0  0  0  0  0  0  0  0
  188.9080  176.5790  143.8550 C   0  0  0  0  0  0  0  0  0  0  0  0
  191.2350  176.0340  139.3810 O   0  0  0  0  0  0  0  0  0  0  0  0
  192.3280  176.8480  139.0740 C   0  0  0  0  0  2  0  0  0  0  0  0
  192.9400  176.4290  137.7460 C   0  0  0  0  0  2  0  0  0  0  0  0
  193.0980  174.9160  137.6560 C   0  0  0  0  0  2  0  0  0  0  0  0
  195.5110  175.2200  137.0970 O   0  0  0  0  0  0  0  0  0  0  0  0
  194.5300  174.5190  137.7840 C   0  0  0  0  0  0  0  0  0  0  0  0
  194.8490  173.5380  138.5050 O   0  0  0  0  0  1  0  0  0  0  0  0
  1  4  1  0  0  0  0
  2 10  1  0  0  0  0
  2  7  1  1  0  0  0
  3  5  1  0  0  0  0
  4 16  1  1  0  0  0
  5 12  1  0  0  0  0
  6  2  1  0  0  0  0
  8  3  1  1  0  0  0
  8 11  1  0  0  0  0
  9  6  1  0  0  0  0
 10  1  1  1  0  0  0
 11 13  1  1  0  0  0
 11  4  1  0  0  0  0
 13 12  1  0  0  0  0
 14  9  1  0  0  0  0
 15 14  1  1  0  0  0
 15  8  1  0  0  0  0
 15 10  1  0  0  0  0
 16 24  1  1  0  0  0
 16 18  1  0  0  0  0
 18 17  1  1  0  0  0
 18 20  1  0  0  0  0
 20 19  1  1  0  0  0
 20 21  1  0  0  0  0
 21 23  2  0  0  0  0
 23 22  2  0  0  0  0
 25 24  1  0  0  0  0
 26 25  1  0  0  0  0
 27 26  1  0  0  0  0
 27 29  1  0  0  0  0
 28 29  2  0  0  0  0
 29 30  1  0  0  0  0
M  END
>  <MODEL>
7

>  <REMARK>
 VINA RESULT:      -5.7      3.726      8.283
  Name = 
  9 active torsions:
  status: ('A' for Active; 'I' for Inactive)
    1  A    between atoms: C_4  and  C_13
    2  A    between atoms: C_5  and  C_12
    3  A    between atoms: C_7  and  C_15
    4  A    between atoms: C_7  and  C_16
    5  A    between atoms: C_8  and  C_12
    6  A    between atoms: C_8  and  C_13
    7  A    between atoms: C_13  and  O_27
    8  A    between atoms: C_16  and  C_30
    9  A    between atoms: O_27  and  C_30
                            x       y       z     vdW  Elec       q    Type
                         _______ _______ _______ _____ _____    ______ ____

>  <TORSDO>
F 9

$$$$
=
 OpenBabel10272413553D

 30 32  0  0  1  0  0  0  0  0999 V2000
  188.2690  177.7060  141.5610 O   0  0  0  0  0  0  0  0  0  0  0  0
  189.3080  176.0690  142.9980 C   0  0  1  0  0  3  0  0  0  0  0  0
  190.1650  176.3900  138.4970 C   0  0  0  0  0  2  0  0  0  0  0  0
  187.9080  177.9630  140.2280 C   0  0  2  0  0  3  0  0  0  0  0  0
  189.9180  176.9800  137.2450 O   0  0  0  0  0  0  0  0  0  0  0  0
  190.3950  176.8810  143.7220 C   0  0  0  0  0  2  0  0  0  0  0  0
  188.1170  176.1000  143.7220 O   0  0  0  0  0  1  0  0  0  0  0  0
  190.3090  177.5010  139.5400 C   0  0  1  0  0  3  0  0  0  0  0  0
  190.6430  178.1000  143.0630 O   0  0  0  0  0  0  0  0  0  0  0  0
  189.0870  176.5610  141.5590 C   0  0  2  0  0  3  0  0  0  0  0  0
  189.1280  178.4920  139.4390 C   0  0  1  0  0  3  0  0  0  0  0  0
  188.6890  177.4740  137.3100 O   0  0  0  0  0  0  0  0  0  0  0  0
  188.8070  178.7200  137.9550 C   0  0  0  0  0  2  0  0  0  0  0  0
  191.3060  177.7940  141.8550 C   0  0  0  0  0  2  0  0  0  0  0  0
  190.4560  176.8940  140.9350 C   0  0  2  0  0  3  0  0  0  0  0  0
  186.6560  178.8700  140.1950 C   0  0  1  0  0  3  0  0  0  0  0  0
  185.4690  177.9950  138.1130 C   0  0  0  0  0  1  0  0  0  0  0  0
  185.3620  178.2730  139.6080 C   0  0  2  0  0  3  0  0  0  0  0  0
  183.6530  179.9470  138.8030 C   0  0  0  0  0  1  0  0  0  0  0  0
  184.1190  179.0980  139.9750 C   0  0  1  0  0  3  0  0  0  0  0  0
  183.0000  178.1890  140.3580 C   0  0  0  0  0  3  0  0  0  0  0  0
  181.3230  178.8720  142.1400 O   0  0  0  0  0  0  0  0  0  0  0  0
  182.1410  178.5420  141.2740 C   0  0  0  0  0  0  0  0  0  0  0  0
  186.4190  179.4790  141.4300 O   0  0  0  0  0  0  0  0  0  0  0  0
  185.9740  178.4450  142.2580 C   0  0  0  0  0  2  0  0  0  0  0  0
  185.1970  179.0110  143.4370 C   0  0  0  0  0  2  0  0  0  0  0  0
  185.5880  178.3320  144.7430 C   0  0  0  0  0  2  0  0  0  0  0  0
  185.2510  178.8910  147.1520 O   0  0  0  0  0  1  0  0  0  0  0  0
  184.7280  178.7990  145.8680 C   0  0  0  0  0  0  0  0  0  0  0  0
  183.5240  179.0970  145.6590 O   0  0  0  0  0  0  0  0  0  0  0  0
  2  7  1  1  0  0  0
  2  6  1  0  0  0  0
  4 16  1  1  0  0  0
  4  1  1  0  0  0  0
  5 12  1  0  0  0  0
  5  3  1  0  0  0  0
  8  3  1  6  0  0  0
  8 15  1  0  0  0  0
  9  6  1  0  0  0  0
 10  1  1  1  0  0  0
 10  2  1  0  0  0  0
 11 13  1  6  0  0  0
 11  8  1  0  0  0  0
 11  4  1  0  0  0  0
 12 13  1  0  0  0  0
 14  9  1  0  0  0  0
 15 10  1  0  0  0  0
 15 14  1  1  0  0  0
 16 24  1  1  0  0  0
 18 17  1  6  0  0  0
 18 20  1  0  0  0  0
 18 16  1  0  0  0  0
 20 19  1  6  0  0  0
 20 21  1  0  0  0  0
 21 23  2  0  0  0  0
 23 22  2  0  0  0  0
 24 25  1  0  0  0  0
 25 26  1  0  0  0  0
 26 27  1  0  0  0  0
 27 29  1  0  0  0  0
 29 28  1  0  0  0  0
 30 29  2  0  0  0  0
M  END
>  <MODEL>
8

>  <REMARK>
 VINA RESULT:      -5.6      1.916      5.973
  Name = 
  9 active torsions:
  status: ('A' for Active; 'I' for Inactive)
    1  A    between atoms: C_4  and  C_13
    2  A    between atoms: C_5  and  C_12
    3  A    between atoms: C_7  and  C_15
    4  A    between atoms: C_7  and  C_16
    5  A    between atoms: C_8  and  C_12
    6  A    between atoms: C_8  and  C_13
    7  A    between atoms: C_13  and  O_27
    8  A    between atoms: C_16  and  C_30
    9  A    between atoms: O_27  and  C_30
                            x       y       z     vdW  Elec       q    Type
                         _______ _______ _______ _____ _____    ______ ____

>  <TORSDO>
F 9

$$$$
=
 OpenBabel10272413553D

 30 32  0  0  1  0  0  0  0  0999 V2000
  187.8170  178.0260  144.8410 O   0  0  0  0  0  0  0  0  0  0  0  0
  185.9480  177.3760  146.2220 C   0  0  1  0  0  3  0  0  0  0  0  0
  190.2860  176.1520  147.1000 C   0  0  0  0  0  2  0  0  0  0  0  0
  189.1190  177.6560  144.4650 C   0  0  2  0  0  3  0  0  0  0  0  0
  191.6470  176.1370  146.7470 O   0  0  0  0  0  0  0  0  0  0  0  0
  185.6630  178.6450  147.0420 C   0  0  0  0  0  2  0  0  0  0  0  0
  185.2050  177.3860  145.0410 O   0  0  0  0  0  1  0  0  0  0  0  0
  189.7520  177.5750  146.9240 C   0  0  1  0  0  3  0  0  0  0  0  0
  186.7490  179.5400  146.9900 O   0  0  0  0  0  0  0  0  0  0  0  0
  187.4460  177.2090  145.9250 C   0  0  2  0  0  3  0  0  0  0  0  0
  190.1350  178.1270  145.5320 C   0  0  1  0  0  3  0  0  0  0  0  0
  191.6860  176.2980  145.4310 O   0  0  0  0  0  0  0  0  0  0  0  0
  191.5680  177.6830  145.2070 C   0  0  0  0  0  2  0  0  0  0  0  0
  187.7970  178.9690  147.7440 C   0  0  0  0  0  2  0  0  0  0  0  0
  188.2460  177.6050  147.1800 C   0  0  2  0  0  3  0  0  0  0  0  0
  189.4020  178.1400  143.0250 C   0  0  1  0  0  3  0  0  0  0  0  0
  190.2050  175.7520  142.6270 C   0  0  0  0  0  1  0  0  0  0  0  0
  189.8170  177.0790  141.9870 C   0  0  2  0  0  3  0  0  0  0  0  0
  192.2840  177.2900  141.4940 C   0  0  0  0  0  1  0  0  0  0  0  0
  190.8770  177.6030  141.0070 C   0  0  1  0  0  3  0  0  0  0  0  0
  190.7000  176.9620  139.6720 C   0  0  0  0  0  3  0  0  0  0  0  0
  188.4240  176.9140  138.5440 O   0  0  0  0  0  0  0  0  0  0  0  0
  189.5300  176.9380  139.0960 C   0  0  0  0  0  0  0  0  0  0  0  0
  188.3750  178.9540  142.5360 O   0  0  0  0  0  0  0  0  0  0  0  0
  187.4480  178.0650  141.9850 C   0  0  0  0  0  2  0  0  0  0  0  0
  186.5520  178.7880  140.9910 C   0  0  0  0  0  2  0  0  0  0  0  0
  185.1250  178.9080  141.5090 C   0  0  0  0  0  2  0  0  0  0  0  0
  182.9270  178.5270  140.3890 O   0  0  0  0  0  1  0  0  0  0  0  0
  184.1670  179.1520  140.3920 C   0  0  0  0  0  0  0  0  0  0  0  0
  184.4880  179.9130  139.4430 O   0  0  0  0  0  0  0  0  0  0  0  0
  2  7  1  6  0  0  0
  2  6  1  0  0  0  0
  4 16  1  6  0  0  0
  4  1  1  0  0  0  0
  4 11  1  0  0  0  0
  5  3  1  0  0  0  0
  8  3  1  6  0  0  0
  8 15  1  0  0  0  0
  9  6  1  0  0  0  0
  9 14  1  0  0  0  0
 10  1  1  6  0  0  0
 10  2  1  0  0  0  0
 10 15  1  0  0  0  0
 11 13  1  6  0  0  0
 11  8  1  0  0  0  0
 12  5  1  0  0  0  0
 13 12  1  0  0  0  0
 15 14  1  6  0  0  0
 16 24  1  6  0  0  0
 18 17  1  1  0  0  0
 18 16  1  0  0  0  0
 20 19  1  1  0  0  0
 20 18  1  0  0  0  0
 21 20  1  0  0  0  0
 22 23  2  0  0  0  0
 23 21  2  0  0  0  0
 25 24  1  0  0  0  0
 26 27  1  0  0  0  0
 26 25  1  0  0  0  0
 28 29  1  0  0  0  0
 29 27  1  0  0  0  0
 30 29  2  0  0  0  0
M  END
>  <MODEL>
9

>  <REMARK>
 VINA RESULT:      -5.6      1.570      5.278
  Name = 
  9 active torsions:
  status: ('A' for Active; 'I' for Inactive)
    1  A    between atoms: C_4  and  C_13
    2  A    between atoms: C_5  and  C_12
    3  A    between atoms: C_7  and  C_15
    4  A    between atoms: C_7  and  C_16
    5  A    between atoms: C_8  and  C_12
    6  A    between atoms: C_8  and  C_13
    7  A    between atoms: C_13  and  O_27
    8  A    between atoms: C_16  and  C_30
    9  A    between atoms: O_27  and  C_30
                            x       y       z     vdW  Elec       q    Type
                         _______ _______ _______ _____ _____    ______ ____

>  <TORSDO>
F 9

$$$$
