=
 OpenBabel10272401183D

 55 62  0  0  1  0  0  0  0  0999 V2000
  187.9050  176.8200  136.3390 C   0  0  0  0  0  2  0  0  0  0  0  0
  188.7860  177.2000  141.4020 C   0  0  0  0  0  2  0  0  0  0  0  0
  191.3460  176.9460  139.7930 O   0  0  0  0  0  1  0  0  0  0  0  0
  193.9900  177.0640  136.5590 C   0  0  0  0  0  2  0  0  0  0  0  0
  194.6400  176.3570  135.3860 C   0  0  0  0  0  3  0  0  0  0  0  0
  192.6560  174.8930  136.7720 C   0  0  0  0  0  2  0  0  0  0  0  0
  192.4710  175.6790  134.3460 C   0  0  0  0  0  2  0  0  0  0  0  0
  190.1130  175.7810  138.2880 C   0  0  0  0  0  2  0  0  0  0  0  0
  193.9710  175.7520  134.3900 C   0  0  0  0  0  3  0  0  0  0  0  0
  185.6530  177.5240  135.7620 O   0  0  0  0  0  0  0  0  0  0  0  0
  192.7700  176.3660  137.1980 C   0  0  2  0  0  3  0  0  0  0  0  0
  185.1030  178.4150  138.2960 C   0  0  2  0  0  3  0  0  0  0  0  0
  189.2810  177.4350  136.5880 C   0  0  0  0  0  2  0  0  0  0  0  0
  186.5800  178.1810  137.9680 C   0  0  0  0  0  2  0  0  0  0  0  0
  190.4490  175.3490  135.7600 C   0  0  2  0  0  3  0  0  0  0  0  0
  187.6730  177.9260  140.7200 C   0  0  0  0  0  3  0  0  0  0  0  0
  191.8610  174.8230  135.4740 C   0  0  2  0  0  3  0  0  0  0  0  0
  189.3500  176.1460  140.4620 C   0  0  0  0  0  2  0  0  0  0  0  0
  190.0720  176.7690  139.3620 N   0  0  0  0  0  0  0  0  0  0  0  0
  184.8990  176.6140  136.5210 C   0  0  0  0  0  2  0  0  0  0  0  0
  186.8230  178.7610  141.3300 C   0  0  0  0  0  0  0  0  0  0  0  0
  186.8220  177.8790  136.4810 C   0  0  1  0  0  3  0  0  0  0  0  0
  191.6070  177.1540  136.9320 O   0  0  0  0  0  0  0  0  0  0  0  0
  190.3880  176.4170  136.9040 C   0  0  2  0  0  0  0  0  0  0  0  0
  185.7540  179.4420  140.5230 C   0  0  0  0  0  2  0  0  0  0  0  0
  184.8680  178.4280  139.8050 C   0  0  0  0  0  2  0  0  0  0  0  0
  184.2120  177.3360  137.6760 C   0  0  0  0  0  2  0  0  0  0  0  0
  188.2790  174.5150  134.8290 C   0  0  0  0  0  3  0  0  0  0  0  0
  187.7480  172.1570  134.7560 N   0  0  0  0  0  0  0  0  0  0  0  0
  189.9630  172.8330  135.6030 C   0  0  0  0  0  2  0  0  0  0  0  0
  188.8280  171.8190  135.6920 C   0  0  0  0  0  2  0  0  0  0  0  0
  187.5090  173.5210  134.3710 C   0  0  0  0  0  3  0  0  0  0  0  0
  189.3880  174.2360  135.8070 C   0  0  1  0  0  3  0  0  0  0  0  0
  186.7730  171.1530  134.3460 C   0  0  0  0  0  3  0  0  0  0  0  0
  186.8400  169.9300  135.2390 C   0  0  0  0  0  1  0  0  0  0  0  0
  185.3780  171.7350  134.3510 C   0  0  0  0  0  1  0  0  0  0  0  0
  186.9520  179.0540  142.8030 C   0  0  0  0  0  2  0  0  0  0  0  0
  185.8850  178.3730  143.6740 C   0  0  2  0  0  3  0  0  0  0  0  0
  183.9750  179.9380  143.9930 C   0  0  0  0  0  2  0  0  0  0  0  0
  185.2330  179.3700  144.6280 C   0  0  0  0  0  3  0  0  0  0  0  0
  183.8640  178.8620  145.0480 C   0  0  0  0  0  2  0  0  0  0  0  0
  186.4600  177.1800  144.4330 C   0  0  0  0  0  2  0  0  0  0  0  0
  188.1200  176.4120  148.0680 O   0  0  0  0  0  0  0  0  0  0  0  0
  187.2940  177.6310  145.6210 C   0  0  1  0  0  3  0  0  0  0  0  0
  187.3350  177.5750  148.1520 C   0  0  2  0  0  3  0  0  0  0  0  0
  186.4370  177.6400  146.9010 C   0  0  0  0  0  2  0  0  0  0  0  0
  189.3880  178.2530  147.6020 C   0  0  1  0  0  3  0  0  0  0  0  0
  189.1320  176.8160  147.1960 C   0  0  2  0  0  3  0  0  0  0  0  0
  188.1920  178.6980  148.1890 O   0  0  0  0  0  0  0  0  0  0  0  0
  188.5560  176.7480  145.7620 C   0  0  2  0  0  3  0  0  0  0  0  0
  189.5890  177.0760  144.7240 C   0  0  0  0  0  0  0  0  0  0  0  0
  190.1470  178.2070  144.7090 O   0  0  0  0  0  1  0  0  0  0  0  0
  189.9420  176.1230  143.7810 O   0  0  0  0  0  0  0  0  0  0  0  0
  190.5210  178.3110  148.6130 C   0  0  0  0  0  2  0  0  0  0  0  0
  191.6070  177.3250  148.2340 C   0  0  0  0  0  1  0  0  0  0  0  0
  1 13  1  0  0  0  0
  5  4  1  0  0  0  0
  6 11  1  0  0  0  0
  7  9  1  0  0  0  0
  8 19  1  0  0  0  0
  9  5  2  0  0  0  0
 10 22  1  0  0  0  0
 10 20  1  0  0  0  0
 11  4  1  6  0  0  0
 12 27  1  6  0  0  0
 12 26  1  0  0  0  0
 14 12  1  0  0  0  0
 15 33  1  1  0  0  0
 15 24  1  0  0  0  0
 16 21  2  0  0  0  0
 16  2  1  0  0  0  0
 17  7  1  6  0  0  0
 17 15  1  0  0  0  0
 17  6  1  0  0  0  0
 18  2  1  0  0  0  0
 19  3  1  0  0  0  0
 19 18  1  0  0  0  0
 20 27  1  0  0  0  0
 21 37  1  0  0  0  0
 22  1  1  1  0  0  0
 22 14  1  0  0  0  0
 23 11  1  0  0  0  0
 24 13  1  6  0  0  0
 24 23  1  0  0  0  0
 24  8  1  0  0  0  0
 25 21  1  0  0  0  0
 26 25  1  0  0  0  0
 29 31  1  0  0  0  0
 30 31  1  0  0  0  0
 30 33  1  0  0  0  0
 32 29  1  0  0  0  0
 32 28  2  0  0  0  0
 33 28  1  6  0  0  0
 34 36  1  0  0  0  0
 34 29  1  0  0  0  0
 34 35  1  0  0  0  0
 38 37  1  1  0  0  0
 38 42  1  0  0  0  0
 38 40  1  0  0  0  0
 39 40  1  0  0  0  0
 39 41  1  0  0  0  0
 40 41  1  0  0  0  0
 43 45  1  0  0  0  0
 44 42  1  6  0  0  0
 44 50  1  0  0  0  0
 44 46  1  0  0  0  0
 45 46  1  6  0  0  0
 45 49  1  0  0  0  0
 47 49  1  0  0  0  0
 47 54  1  1  0  0  0
 48 47  1  0  0  0  0
 48 43  1  1  0  0  0
 50 51  1  6  0  0  0
 50 48  1  0  0  0  0
 52 51  1  0  0  0  0
 53 51  2  0  0  0  0
 55 54  1  0  0  0  0
M  END
>  <MODEL>
1

>  <REMARK>
 VINA RESULT:      -6.2      0.000      0.000
  Name = 
  9 active torsions:
  status: ('A' for Active; 'I' for Inactive)
    1  A    between atoms: C_1  and  C_53
    2  A    between atoms: C_6  and  C_46
    3  A    between atoms: C_8  and  C_22
    4  A    between atoms: C_8  and  C_43
    5  A    between atoms: C_10  and  N_32
    6  A    between atoms: C_11  and  C_29
    7  A    between atoms: C_20  and  C_22
    8  A    between atoms: C_22  and  C_46
    9  A    between atoms: C_33  and  C_52
                            x       y       z     vdW  Elec       q    Type
                         _______ _______ _______ _____ _____    ______ ____

>  <TORSDO>
F 9

$$$$
=
 OpenBabel10272401183D

 55 62  0  0  1  0  0  0  0  0999 V2000
  190.5400  175.1390  135.3660 C   0  0  0  0  0  2  0  0  0  0  0  0
  190.5590  177.0070  140.1680 C   0  0  0  0  0  2  0  0  0  0  0  0
  193.3530  176.7310  139.0180 O   0  0  0  0  0  1  0  0  0  0  0  0
  196.4430  176.3820  136.2260 C   0  0  0  0  0  2  0  0  0  0  0  0
  197.3480  175.4940  135.3950 C   0  0  0  0  0  3  0  0  0  0  0  0
  195.3540  174.1690  136.9000 C   0  0  0  0  0  2  0  0  0  0  0  0
  195.4650  174.2300  134.3460 C   0  0  0  0  0  2  0  0  0  0  0  0
  192.5170  175.0240  137.7800 C   0  0  0  0  0  2  0  0  0  0  0  0
  196.9200  174.5450  134.5440 C   0  0  0  0  0  3  0  0  0  0  0  0
  188.3410  175.3000  134.3460 O   0  0  0  0  0  0  0  0  0  0  0  0
  195.2270  175.7000  136.8900 C   0  0  2  0  0  3  0  0  0  0  0  0
  187.2970  176.7450  136.4290 C   0  0  2  0  0  3  0  0  0  0  0  0
  191.7770  176.0060  135.5870 C   0  0  0  0  0  2  0  0  0  0  0  0
  188.8240  176.6660  136.3610 C   0  0  0  0  0  2  0  0  0  0  0  0
  193.2970  173.9830  135.5440 C   0  0  2  0  0  3  0  0  0  0  0  0
  189.4910  177.3390  139.1780 C   0  0  0  0  0  3  0  0  0  0  0  0
  194.7880  173.6270  135.5930 C   0  0  2  0  0  3  0  0  0  0  0  0
  191.3840  175.8400  139.6480 C   0  0  0  0  0  2  0  0  0  0  0  0
  192.1920  176.2470  138.5090 N   0  0  0  0  0  0  0  0  0  0  0  0
  187.5870  174.5230  135.2410 C   0  0  0  0  0  2  0  0  0  0  0  0
  188.4640  178.1650  139.4140 C   0  0  0  0  0  0  0  0  0  0  0  0
  189.3320  176.0140  135.0650 C   0  0  1  0  0  3  0  0  0  0  0  0
  194.0370  176.1960  136.2710 O   0  0  0  0  0  0  0  0  0  0  0  0
  192.9320  175.2970  136.3140 C   0  0  2  0  0  0  0  0  0  0  0  0
  187.4640  178.4260  138.3230 C   0  0  0  0  0  2  0  0  0  0  0  0
  186.8270  177.1300  137.8310 C   0  0  0  0  0  2  0  0  0  0  0  0
  186.6460  175.4140  136.0470 C   0  0  0  0  0  2  0  0  0  0  0  0
  191.0380  172.9830  135.1350 C   0  0  0  0  0  3  0  0  0  0  0  0
  190.7020  170.5890  135.0490 N   0  0  0  0  0  0  0  0  0  0  0  0
  192.9970  171.4410  135.3560 C   0  0  0  0  0  2  0  0  0  0  0  0
  192.0090  170.3190  135.6630 C   0  0  0  0  0  2  0  0  0  0  0  0
  190.2620  171.9380  134.8230 C   0  0  0  0  0  3  0  0  0  0  0  0
  192.3780  172.7730  135.7850 C   0  0  1  0  0  3  0  0  0  0  0  0
  189.7420  169.5130  134.8340 C   0  0  0  0  0  3  0  0  0  0  0  0
  190.2980  168.1830  135.3000 C   0  0  0  0  0  1  0  0  0  0  0  0
  188.4390  169.8170  135.5390 C   0  0  0  0  0  1  0  0  0  0  0  0
  188.3230  178.8610  140.7440 C   0  0  0  0  0  2  0  0  0  0  0  0
  187.6470  178.0100  141.8300 C   0  0  2  0  0  3  0  0  0  0  0  0
  185.4770  178.2440  143.0280 C   0  0  0  0  0  2  0  0  0  0  0  0
  186.1290  178.0220  141.6740 C   0  0  0  0  0  3  0  0  0  0  0  0
  185.5830  179.3890  142.0480 C   0  0  0  0  0  2  0  0  0  0  0  0
  188.0590  178.4580  143.2300 C   0  0  0  0  0  2  0  0  0  0  0  0
  191.7990  178.0990  144.7920 O   0  0  0  0  0  0  0  0  0  0  0  0
  189.1770  177.5880  143.7800 C   0  0  1  0  0  3  0  0  0  0  0  0
  191.6870  177.2730  143.6610 C   0  0  2  0  0  3  0  0  0  0  0  0
  190.4250  177.6930  142.8820 C   0  0  0  0  0  2  0  0  0  0  0  0
  191.0760  176.0200  145.4020 C   0  0  1  0  0  3  0  0  0  0  0  0
  190.8940  177.5000  145.6690 C   0  0  2  0  0  3  0  0  0  0  0  0
  191.5650  175.9320  144.0880 O   0  0  0  0  0  0  0  0  0  0  0  0
  189.4770  177.9590  145.2520 C   0  0  2  0  0  3  0  0  0  0  0  0
  188.4200  177.4480  146.1850 C   0  0  0  0  0  0  0  0  0  0  0  0
  188.5640  177.5470  147.4340 O   0  0  0  0  0  1  0  0  0  0  0  0
  187.2680  176.8720  145.6690 O   0  0  0  0  0  0  0  0  0  0  0  0
  192.0870  175.4380  146.3770 C   0  0  0  0  0  2  0  0  0  0  0  0
  192.0070  176.1650  147.7040 C   0  0  0  0  0  1  0  0  0  0  0  0
  1 13  1  0  0  0  0
  5  4  1  0  0  0  0
  7  9  1  0  0  0  0
  8 19  1  0  0  0  0
  9  5  2  0  0  0  0
 10 22  1  0  0  0  0
 10 20  1  0  0  0  0
 11  4  1  6  0  0  0
 11  6  1  0  0  0  0
 12 27  1  1  0  0  0
 12 26  1  0  0  0  0
 14 12  1  0  0  0  0
 15 17  1  0  0  0  0
 15 33  1  1  0  0  0
 15 24  1  0  0  0  0
 16 21  2  0  0  0  0
 16  2  1  0  0  0  0
 17  7  1  6  0  0  0
 17  6  1  0  0  0  0
 18  2  1  0  0  0  0
 19  3  1  0  0  0  0
 19 18  1  0  0  0  0
 20 27  1  0  0  0  0
 21 37  1  0  0  0  0
 22  1  1  1  0  0  0
 22 14  1  0  0  0  0
 23 24  1  0  0  0  0
 23 11  1  0  0  0  0
 24 13  1  6  0  0  0
 24  8  1  0  0  0  0
 25 21  1  0  0  0  0
 26 25  1  0  0  0  0
 29 31  1  0  0  0  0
 30 31  1  0  0  0  0
 30 33  1  0  0  0  0
 32 29  1  0  0  0  0
 32 28  2  0  0  0  0
 33 28  1  6  0  0  0
 34 29  1  0  0  0  0
 34 35  1  0  0  0  0
 34 36  1  0  0  0  0
 38 37  1  6  0  0  0
 38 42  1  0  0  0  0
 40 38  1  0  0  0  0
 40 41  1  0  0  0  0
 40 39  1  0  0  0  0
 41 39  1  0  0  0  0
 44 42  1  6  0  0  0
 44 50  1  0  0  0  0
 45 46  1  1  0  0  0
 45 49  1  0  0  0  0
 45 43  1  0  0  0  0
 46 44  1  0  0  0  0
 47 48  1  0  0  0  0
 47 54  1  1  0  0  0
 48 43  1  6  0  0  0
 49 47  1  0  0  0  0
 50 48  1  0  0  0  0
 50 51  1  1  0  0  0
 51 52  1  0  0  0  0
 53 51  2  0  0  0  0
 54 55  1  0  0  0  0
M  END
>  <MODEL>
2

>  <REMARK>
 VINA RESULT:      -4.7      1.990      3.292
  Name = 
  9 active torsions:
  status: ('A' for Active; 'I' for Inactive)
    1  A    between atoms: C_1  and  C_53
    2  A    between atoms: C_6  and  C_46
    3  A    between atoms: C_8  and  C_22
    4  A    between atoms: C_8  and  C_43
    5  A    between atoms: C_10  and  N_32
    6  A    between atoms: C_11  and  C_29
    7  A    between atoms: C_20  and  C_22
    8  A    between atoms: C_22  and  C_46
    9  A    between atoms: C_33  and  C_52
                            x       y       z     vdW  Elec       q    Type
                         _______ _______ _______ _____ _____    ______ ____

>  <TORSDO>
F 9

$$$$
=
 OpenBabel10272401183D

 55 62  0  0  1  0  0  0  0  0999 V2000
  190.7870  175.2660  137.9900 C   0  0  0  0  0  2  0  0  0  0  0  0
  186.8540  175.7220  134.6920 C   0  0  0  0  0  2  0  0  0  0  0  0
  188.3370  173.0930  134.3760 O   0  0  0  0  0  1  0  0  0  0  0  0
  190.7640  169.8120  135.2710 C   0  0  0  0  0  2  0  0  0  0  0  0
  192.1370  169.1690  135.2540 C   0  0  0  0  0  3  0  0  0  0  0  0
  192.0090  171.8450  134.3460 C   0  0  0  0  0  2  0  0  0  0  0  0
  193.2520  171.0640  136.4410 C   0  0  0  0  0  2  0  0  0  0  0  0
  190.1690  174.2040  135.1190 C   0  0  0  0  0  2  0  0  0  0  0  0
  193.2450  169.7130  135.7860 C   0  0  0  0  0  3  0  0  0  0  0  0
  190.6220  176.8610  139.8140 O   0  0  0  0  0  0  0  0  0  0  0  0
  190.7070  171.3270  134.9760 C   0  0  2  0  0  3  0  0  0  0  0  0
  188.1310  177.7200  139.0590 C   0  0  2  0  0  3  0  0  0  0  0  0
  190.2560  173.8850  137.6110 C   0  0  0  0  0  2  0  0  0  0  0  0
  188.6030  176.3990  138.4470 C   0  0  0  0  0  2  0  0  0  0  0  0
  192.3350  173.3720  136.2610 C   0  0  2  0  0  3  0  0  0  0  0  0
  186.8090  176.2660  136.0820 C   0  0  0  0  0  3  0  0  0  0  0  0
  192.9710  172.2250  135.4660 C   0  0  2  0  0  3  0  0  0  0  0  0
  188.2860  175.3440  134.3460 C   0  0  0  0  0  2  0  0  0  0  0  0
  188.7090  174.1760  135.1040 N   0  0  0  0  0  0  0  0  0  0  0  0
  190.6430  178.0700  139.0980 C   0  0  0  0  0  2  0  0  0  0  0  0
  185.7520  176.8880  136.6220 C   0  0  0  0  0  0  0  0  0  0  0  0
  189.9120  175.8870  139.0690 C   0  0  1  0  0  3  0  0  0  0  0  0
  190.3100  172.0060  136.1700 O   0  0  0  0  0  0  0  0  0  0  0  0
  190.7690  173.3520  136.2630 C   0  0  2  0  0  0  0  0  0  0  0  0
  185.8320  177.3750  138.0420 C   0  0  0  0  0  2  0  0  0  0  0  0
  187.0000  178.3360  138.2360 C   0  0  0  0  0  2  0  0  0  0  0  0
  189.2710  178.7360  139.1530 C   0  0  0  0  0  2  0  0  0  0  0  0
  194.4190  174.7410  136.4960 C   0  0  0  0  0  3  0  0  0  0  0  0
  194.9600  176.5120  134.9400 N   0  0  0  0  0  0  0  0  0  0  0  0
  192.9280  175.1740  134.5330 C   0  0  0  0  0  2  0  0  0  0  0  0
  193.5950  176.5390  134.3970 C   0  0  0  0  0  2  0  0  0  0  0  0
  195.3110  175.6050  135.9980 C   0  0  0  0  0  3  0  0  0  0  0  0
  193.0000  174.7340  135.9960 C   0  0  1  0  0  3  0  0  0  0  0  0
  195.9340  177.5290  134.5620 C   0  0  0  0  0  3  0  0  0  0  0  0
  195.8800  178.7140  135.5050 C   0  0  0  0  0  1  0  0  0  0  0  0
  197.3270  176.9430  134.5300 C   0  0  0  0  0  1  0  0  0  0  0  0
  184.4790  177.0690  135.8360 C   0  0  0  0  0  2  0  0  0  0  0  0
  183.3810  176.0500  136.1770 C   0  0  2  0  0  3  0  0  0  0  0  0
  183.6780  173.6090  135.7890 C   0  0  0  0  0  2  0  0  0  0  0  0
  183.3210  174.9340  135.1380 C   0  0  0  0  0  3  0  0  0  0  0  0
  182.2310  173.9430  135.5080 C   0  0  0  0  0  2  0  0  0  0  0  0
  182.0210  176.7250  136.3390 C   0  0  0  0  0  2  0  0  0  0  0  0
  183.3100  177.4470  140.1290 O   0  0  0  0  0  0  0  0  0  0  0  0
  181.7160  177.0100  137.8000 C   0  0  1  0  0  3  0  0  0  0  0  0
  182.4290  176.3510  140.1390 C   0  0  2  0  0  3  0  0  0  0  0  0
  182.2490  175.8680  138.6870 C   0  0  0  0  0  2  0  0  0  0  0  0
  181.1660  178.1630  140.4580 C   0  0  1  0  0  3  0  0  0  0  0  0
  182.4630  178.4870  139.7450 C   0  0  2  0  0  3  0  0  0  0  0  0
  181.1870  176.7730  140.6640 O   0  0  0  0  0  0  0  0  0  0  0  0
  182.2830  178.3890  138.2120 C   0  0  2  0  0  3  0  0  0  0  0  0
  181.4580  179.5180  137.6680 C   0  0  0  0  0  0  0  0  0  0  0  0
  181.7760  180.7160  137.9020 O   0  0  0  0  0  1  0  0  0  0  0  0
  180.3440  179.2420  136.8890 O   0  0  0  0  0  0  0  0  0  0  0  0
  181.1120  178.8900  141.7920 C   0  0  0  0  0  2  0  0  0  0  0  0
  180.1670  178.1740  142.7350 C   0  0  0  0  0  1  0  0  0  0  0  0
  2 16  1  0  0  0  0
  3 19  1  0  0  0  0
  5  4  1  0  0  0  0
  5  9  2  0  0  0  0
  9  7  1  0  0  0  0
 11  6  1  1  0  0  0
 11  4  1  0  0  0  0
 11 23  1  0  0  0  0
 12 26  1  6  0  0  0
 12 27  1  0  0  0  0
 13  1  1  0  0  0  0
 14 12  1  0  0  0  0
 14 22  1  0  0  0  0
 15 33  1  6  0  0  0
 15 24  1  0  0  0  0
 16 21  2  0  0  0  0
 17  6  1  6  0  0  0
 17 15  1  0  0  0  0
 17  7  1  0  0  0  0
 18  2  1  0  0  0  0
 18 19  1  0  0  0  0
 19  8  1  0  0  0  0
 20 27  1  0  0  0  0
 20 10  1  0  0  0  0
 21 25  1  0  0  0  0
 22  1  1  6  0  0  0
 22 10  1  0  0  0  0
 23 24  1  0  0  0  0
 24  8  1  6  0  0  0
 24 13  1  0  0  0  0
 25 26  1  0  0  0  0
 29 32  1  0  0  0  0
 31 30  1  0  0  0  0
 31 29  1  0  0  0  0
 32 28  2  0  0  0  0
 33 30  1  6  0  0  0
 33 28  1  0  0  0  0
 34 29  1  0  0  0  0
 34 35  1  0  0  0  0
 36 34  1  0  0  0  0
 37 21  1  0  0  0  0
 38 37  1  6  0  0  0
 38 42  1  0  0  0  0
 40 41  1  0  0  0  0
 40 39  1  0  0  0  0
 40 38  1  0  0  0  0
 41 39  1  0  0  0  0
 43 45  1  0  0  0  0
 44 42  1  6  0  0  0
 44 50  1  0  0  0  0
 44 46  1  0  0  0  0
 45 46  1  6  0  0  0
 45 49  1  0  0  0  0
 47 49  1  0  0  0  0
 47 54  1  1  0  0  0
 48 43  1  1  0  0  0
 48 47  1  0  0  0  0
 50 51  1  1  0  0  0
 50 48  1  0  0  0  0
 51 52  1  0  0  0  0
 53 51  2  0  0  0  0
 54 55  1  0  0  0  0
M  END
>  <MODEL>
3

>  <REMARK>
 VINA RESULT:      -4.2      4.448      7.933
  Name = 
  9 active torsions:
  status: ('A' for Active; 'I' for Inactive)
    1  A    between atoms: C_1  and  C_53
    2  A    between atoms: C_6  and  C_46
    3  A    between atoms: C_8  and  C_22
    4  A    between atoms: C_8  and  C_43
    5  A    between atoms: C_10  and  N_32
    6  A    between atoms: C_11  and  C_29
    7  A    between atoms: C_20  and  C_22
    8  A    between atoms: C_22  and  C_46
    9  A    between atoms: C_33  and  C_52
                            x       y       z     vdW  Elec       q    Type
                         _______ _______ _______ _____ _____    ______ ____

>  <TORSDO>
F 9

$$$$
=
 OpenBabel10272401183D

 55 62  0  0  1  0  0  0  0  0999 V2000
  190.8370  175.3290  137.9930 C   0  0  0  0  0  2  0  0  0  0  0  0
  186.9170  175.8610  134.6910 C   0  0  0  0  0  2  0  0  0  0  0  0
  188.3520  173.2060  134.3730 O   0  0  0  0  0  1  0  0  0  0  0  0
  190.7190  169.8810  135.2660 C   0  0  0  0  0  2  0  0  0  0  0  0
  192.0800  169.2130  135.2490 C   0  0  0  0  0  3  0  0  0  0  0  0
  192.0020  171.8920  134.3460 C   0  0  0  0  0  2  0  0  0  0  0  0
  193.2270  171.0860  136.4410 C   0  0  0  0  0  2  0  0  0  0  0  0
  190.2030  174.2830  135.1200 C   0  0  0  0  0  2  0  0  0  0  0  0
  193.1970  169.7360  135.7830 C   0  0  0  0  0  3  0  0  0  0  0  0
  190.6980  176.9240  139.8200 O   0  0  0  0  0  0  0  0  0  0  0  0
  190.6890  171.3970  134.9730 C   0  0  2  0  0  3  0  0  0  0  0  0
  188.2230  177.8290  139.0630 C   0  0  2  0  0  3  0  0  0  0  0  0
  190.2820  173.9580  137.6110 C   0  0  0  0  0  2  0  0  0  0  0  0
  188.6730  176.5000  138.4490 C   0  0  0  0  0  2  0  0  0  0  0  0
  192.3530  173.4100  136.2630 C   0  0  2  0  0  3  0  0  0  0  0  0
  186.8790  176.4030  136.0820 C   0  0  0  0  0  3  0  0  0  0  0  0
  192.9690  172.2540  135.4670 C   0  0  2  0  0  3  0  0  0  0  0  0
  188.3430  175.4580  134.3460 C   0  0  0  0  0  2  0  0  0  0  0  0
  188.7430  174.2810  135.1030 N   0  0  0  0  0  0  0  0  0  0  0  0
  190.7420  178.1330  139.1050 C   0  0  0  0  0  2  0  0  0  0  0  0
  185.8340  177.0430  136.6210 C   0  0  0  0  0  0  0  0  0  0  0  0
  189.9720  175.9640  139.0720 C   0  0  1  0  0  3  0  0  0  0  0  0
  190.3040  172.0810  136.1670 O   0  0  0  0  0  0  0  0  0  0  0  0
  190.7860  173.4180  136.2630 C   0  0  2  0  0  0  0  0  0  0  0  0
  185.9200  177.5270  138.0410 C   0  0  0  0  0  2  0  0  0  0  0  0
  187.1060  178.4660  138.2380 C   0  0  0  0  0  2  0  0  0  0  0  0
  189.3820  178.8250  139.1600 C   0  0  0  0  0  2  0  0  0  0  0  0
  194.5030  174.6910  136.3550 C   0  0  0  0  0  3  0  0  0  0  0  0
  194.9580  176.5230  134.8440 N   0  0  0  0  0  0  0  0  0  0  0  0
  192.8440  175.2810  134.5760 C   0  0  0  0  0  2  0  0  0  0  0  0
  193.5490  176.6270  134.4430 C   0  0  0  0  0  2  0  0  0  0  0  0
  195.3760  175.5490  135.8140 C   0  0  0  0  0  3  0  0  0  0  0  0
  193.0420  174.7600  136.0010 C   0  0  1  0  0  3  0  0  0  0  0  0
  195.9310  177.5240  134.4210 C   0  0  0  0  0  3  0  0  0  0  0  0
  195.7710  178.8080  135.2110 C   0  0  0  0  0  1  0  0  0  0  0  0
  197.3370  176.9900  134.5620 C   0  0  0  0  0  1  0  0  0  0  0  0
  184.5650  177.2480  135.8340 C   0  0  0  0  0  2  0  0  0  0  0  0
  183.2870  176.8560  136.5910 C   0  0  2  0  0  3  0  0  0  0  0  0
  181.4650  178.5490  136.4800 C   0  0  0  0  0  2  0  0  0  0  0  0
  182.6610  178.0640  137.2810 C   0  0  0  0  0  3  0  0  0  0  0  0
  181.2490  177.7280  137.7300 C   0  0  0  0  0  2  0  0  0  0  0  0
  183.5500  175.7280  137.5870 C   0  0  0  0  0  2  0  0  0  0  0  0
  182.0350  173.3900  134.6220 O   0  0  0  0  0  0  0  0  0  0  0  0
  182.8950  174.4320  137.1380 C   0  0  1  0  0  3  0  0  0  0  0  0
  181.0640  173.5560  135.6250 C   0  0  2  0  0  3  0  0  0  0  0  0
  181.5070  174.7190  136.5340 C   0  0  0  0  0  2  0  0  0  0  0  0
  182.2170  171.7280  136.1780 C   0  0  1  0  0  3  0  0  0  0  0  0
  183.0180  172.6650  135.2980 C   0  0  2  0  0  3  0  0  0  0  0  0
  180.9790  172.3620  136.3760 O   0  0  0  0  0  0  0  0  0  0  0  0
  183.8190  173.6710  136.1580 C   0  0  2  0  0  3  0  0  0  0  0  0
  184.9690  173.0170  136.8650 C   0  0  0  0  0  0  0  0  0  0  0  0
  184.9970  172.9560  138.1240 O   0  0  0  0  0  1  0  0  0  0  0  0
  186.0030  172.4620  136.1270 O   0  0  0  0  0  0  0  0  0  0  0  0
  182.0170  170.3970  135.4710 C   0  0  0  0  0  2  0  0  0  0  0  0
  183.1540  169.4540  135.8070 C   0  0  0  0  0  1  0  0  0  0  0  0
  2 16  1  0  0  0  0
  3 19  1  0  0  0  0
  5  4  1  0  0  0  0
  5  9  2  0  0  0  0
  9  7  1  0  0  0  0
 11  6  1  1  0  0  0
 11  4  1  0  0  0  0
 11 23  1  0  0  0  0
 12 26  1  6  0  0  0
 12 27  1  0  0  0  0
 13  1  1  0  0  0  0
 14 12  1  0  0  0  0
 14 22  1  0  0  0  0
 15 33  1  6  0  0  0
 16 21  2  0  0  0  0
 17  6  1  6  0  0  0
 17 15  1  0  0  0  0
 17  7  1  0  0  0  0
 18  2  1  0  0  0  0
 18 19  1  0  0  0  0
 19  8  1  0  0  0  0
 20 27  1  0  0  0  0
 20 10  1  0  0  0  0
 21 25  1  0  0  0  0
 22  1  1  6  0  0  0
 22 10  1  0  0  0  0
 23 24  1  0  0  0  0
 24  8  1  6  0  0  0
 24 15  1  0  0  0  0
 24 13  1  0  0  0  0
 25 26  1  0  0  0  0
 29 32  1  0  0  0  0
 31 30  1  0  0  0  0
 31 29  1  0  0  0  0
 32 28  2  0  0  0  0
 33 30  1  6  0  0  0
 33 28  1  0  0  0  0
 34 36  1  0  0  0  0
 34 29  1  0  0  0  0
 34 35  1  0  0  0  0
 37 21  1  0  0  0  0
 38 37  1  1  0  0  0
 38 40  1  0  0  0  0
 38 42  1  0  0  0  0
 39 40  1  0  0  0  0
 39 41  1  0  0  0  0
 40 41  1  0  0  0  0
 43 45  1  0  0  0  0
 44 42  1  6  0  0  0
 45 49  1  0  0  0  0
 45 46  1  1  0  0  0
 46 44  1  0  0  0  0
 47 54  1  6  0  0  0
 47 49  1  0  0  0  0
 48 43  1  6  0  0  0
 48 50  1  0  0  0  0
 48 47  1  0  0  0  0
 50 51  1  1  0  0  0
 50 44  1  0  0  0  0
 51 52  1  0  0  0  0
 53 51  2  0  0  0  0
 54 55  1  0  0  0  0
M  END
>  <MODEL>
4

>  <REMARK>
 VINA RESULT:      -3.7      4.633      8.665
  Name = 
  9 active torsions:
  status: ('A' for Active; 'I' for Inactive)
    1  A    between atoms: C_1  and  C_53
    2  A    between atoms: C_6  and  C_46
    3  A    between atoms: C_8  and  C_22
    4  A    between atoms: C_8  and  C_43
    5  A    between atoms: C_10  and  N_32
    6  A    between atoms: C_11  and  C_29
    7  A    between atoms: C_20  and  C_22
    8  A    between atoms: C_22  and  C_46
    9  A    between atoms: C_33  and  C_52
                            x       y       z     vdW  Elec       q    Type
                         _______ _______ _______ _____ _____    ______ ____

>  <TORSDO>
F 9

$$$$
