=
 OpenBabel10272402003D

 28 32  0  0  1  0  0  0  0  0999 V2000
  190.2170  178.2570  142.5190 C   0  0  2  0  0  3  0  0  0  0  0  0
  185.1150  179.0010  142.7220 C   0  0  0  0  0  3  0  0  0  0  0  0
  188.9950  177.0450  147.2970 C   0  0  0  0  0  1  0  0  0  0  0  0
  184.5500  178.4130  145.0840 C   0  0  0  0  0  0  0  0  0  0  0  0
  186.8710  178.2380  144.3490 C   0  0  0  0  0  0  0  0  0  0  0  0
  182.7930  179.1760  143.4460 C   0  0  0  0  0  0  0  0  0  0  0  0
  185.5220  178.5460  144.0680 C   0  0  0  0  0  0  0  0  0  0  0  0
  186.2590  177.6790  146.6340 C   0  0  0  0  0  3  0  0  0  0  0  0
  183.0960  178.7250  144.8460 C   0  0  0  0  0  2  0  0  0  0  0  0
  189.5710  177.6390  144.9170 C   0  0  0  0  0  0  0  0  0  0  0  0
  187.8520  178.3570  143.3600 C   0  0  0  0  0  3  0  0  0  0  0  0
  184.9280  177.9820  146.3550 C   0  0  0  0  0  3  0  0  0  0  0  0
  191.9700  178.0240  144.2940 C   0  0  0  0  0  2  0  0  0  0  0  0
  188.5930  177.5020  145.9250 C   0  0  0  0  0  0  0  0  0  0  0  0
  191.0080  177.2890  145.2140 C   0  0  0  0  0  2  0  0  0  0  0  0
  181.6080  179.4610  143.1350 O   0  0  0  0  0  0  0  0  0  0  0  0
  183.8500  179.2940  142.4320 C   0  0  0  0  0  3  0  0  0  0  0  0
  187.2440  177.8020  145.6430 C   0  0  0  0  0  0  0  0  0  0  0  0
  191.6060  177.7070  142.8540 C   0  0  0  0  0  2  0  0  0  0  0  0
  189.1890  178.0380  143.6160 C   0  0  0  0  0  0  0  0  0  0  0  0
  189.7630  177.7290  141.1900 C   0  0  0  0  0  0  0  0  0  0  0  0
  188.6390  178.2640  140.5430 C   0  0  0  0  0  3  0  0  0  0  0  0
  188.9630  176.7290  138.6940 C   0  0  0  0  0  0  0  0  0  0  0  0
  190.4830  176.6940  140.5840 C   0  0  0  0  0  3  0  0  0  0  0  0
  187.0930  178.3290  138.6620 N   0  0  0  0  0  1  0  0  0  0  0  0
  188.2370  177.7680  139.3000 C   0  0  0  0  0  0  0  0  0  0  0  0
  188.5630  176.1780  137.3690 C   0  0  0  0  0  1  0  0  0  0  0  0
  190.0830  176.1960  139.3410 C   0  0  0  0  0  3  0  0  0  0  0  0
  1 21  1  6  0  0  0
  1 19  1  0  0  0  0
  1 20  1  0  0  0  0
  2  7  1  0  0  0  0
  4 12  1  0  0  0  0
  5 18  1  0  0  0  0
  6  9  1  0  0  0  0
  7  5  1  0  0  0  0
  7  4  2  0  0  0  0
  9  4  1  0  0  0  0
 10 15  1  0  0  0  0
 10 14  1  0  0  0  0
 11 20  1  0  0  0  0
 11  5  2  0  0  0  0
 12  8  2  0  0  0  0
 13 15  1  0  0  0  0
 14  3  1  0  0  0  0
 16  6  2  0  0  0  0
 17  2  2  0  0  0  0
 17  6  1  0  0  0  0
 18 14  2  0  0  0  0
 18  8  1  0  0  0  0
 19 13  1  0  0  0  0
 20 10  2  0  0  0  0
 22 21  2  0  0  0  0
 23 26  2  0  0  0  0
 23 28  1  0  0  0  0
 24 21  1  0  0  0  0
 25 26  1  0  0  0  0
 26 22  1  0  0  0  0
 27 23  1  0  0  0  0
 28 24  2  0  0  0  0
M  END
>  <MODEL>
1

>  <REMARK>
 VINA RESULT:     -10.8      0.000      0.000
  Name = 
  1 active torsions:
  status: ('A' for Active; 'I' for Inactive)
    1  A    between atoms: C_1  and  C_2
                            x       y       z     vdW  Elec       q    Type
                         _______ _______ _______ _____ _____    ______ ____

>  <TORSDO>
F 1

$$$$
=
 OpenBabel10272402003D

 28 32  0  0  1  0  0  0  0  0999 V2000
  190.2050  178.2490  142.4520 C   0  0  2  0  0  3  0  0  0  0  0  0
  185.0960  178.9490  142.6190 C   0  0  0  0  0  3  0  0  0  0  0  0
  188.9620  177.0420  147.2260 C   0  0  0  0  0  1  0  0  0  0  0  0
  184.5210  178.3640  144.9790 C   0  0  0  0  0  0  0  0  0  0  0  0
  186.8480  178.2070  144.2600 C   0  0  0  0  0  0  0  0  0  0  0  0
  182.7680  179.1070  143.3270 C   0  0  0  0  0  0  0  0  0  0  0  0
  185.4980  178.5020  143.9690 C   0  0  0  0  0  0  0  0  0  0  0  0
  186.2250  177.6500  146.5430 C   0  0  0  0  0  3  0  0  0  0  0  0
  183.0660  178.6630  144.7300 C   0  0  0  0  0  2  0  0  0  0  0  0
  189.5490  177.6320  144.8480 C   0  0  0  0  0  0  0  0  0  0  0  0
  187.8340  178.3310  143.2770 C   0  0  0  0  0  3  0  0  0  0  0  0
  184.8940  177.9410  146.2540 C   0  0  0  0  0  3  0  0  0  0  0  0
  191.9490  178.0360  144.2390 C   0  0  0  0  0  2  0  0  0  0  0  0
  188.5660  177.4900  145.8500 C   0  0  0  0  0  0  0  0  0  0  0  0
  190.9870  177.2960  145.1550 C   0  0  0  0  0  2  0  0  0  0  0  0
  181.5830  179.3810  143.0070 O   0  0  0  0  0  0  0  0  0  0  0  0
  183.8300  179.2310  142.3200 C   0  0  0  0  0  3  0  0  0  0  0  0
  187.2160  177.7780  145.5580 C   0  0  0  0  0  0  0  0  0  0  0  0
  191.5970  177.7120  142.7980 C   0  0  0  0  0  2  0  0  0  0  0  0
  189.1730  178.0240  143.5420 C   0  0  0  0  0  0  0  0  0  0  0  0
  189.7650  177.7130  141.1220 C   0  0  0  0  0  0  0  0  0  0  0  0
  190.5480  176.7840  140.4200 C   0  0  0  0  0  3  0  0  0  0  0  0
  188.8940  176.7190  138.6470 C   0  0  0  0  0  0  0  0  0  0  0  0
  188.5490  178.1400  140.5810 C   0  0  0  0  0  3  0  0  0  0  0  0
  190.9290  175.3430  138.4930 N   0  0  0  0  0  1  0  0  0  0  0  0
  190.1170  176.2870  139.1870 C   0  0  0  0  0  0  0  0  0  0  0  0
  188.4050  176.2070  137.3360 C   0  0  0  0  0  1  0  0  0  0  0  0
  188.1150  177.6450  139.3490 C   0  0  0  0  0  3  0  0  0  0  0  0
  1 21  1  6  0  0  0
  1 19  1  0  0  0  0
  1 20  1  0  0  0  0
  2  7  1  0  0  0  0
  4 12  1  0  0  0  0
  5 18  1  0  0  0  0
  6  9  1  0  0  0  0
  7  5  1  0  0  0  0
  7  4  2  0  0  0  0
  9  4  1  0  0  0  0
 10 15  1  0  0  0  0
 10 14  1  0  0  0  0
 11 20  1  0  0  0  0
 11  5  2  0  0  0  0
 12  8  2  0  0  0  0
 13 15  1  0  0  0  0
 14  3  1  0  0  0  0
 16  6  2  0  0  0  0
 17  2  2  0  0  0  0
 17  6  1  0  0  0  0
 18 14  2  0  0  0  0
 18  8  1  0  0  0  0
 19 13  1  0  0  0  0
 20 10  2  0  0  0  0
 22 21  2  0  0  0  0
 23 26  2  0  0  0  0
 23 28  1  0  0  0  0
 24 21  1  0  0  0  0
 25 26  1  0  0  0  0
 26 22  1  0  0  0  0
 27 23  1  0  0  0  0
 28 24  2  0  0  0  0
M  END
>  <MODEL>
2

>  <REMARK>
 VINA RESULT:     -10.8      0.927      1.300
  Name = 
  1 active torsions:
  status: ('A' for Active; 'I' for Inactive)
    1  A    between atoms: C_1  and  C_2
                            x       y       z     vdW  Elec       q    Type
                         _______ _______ _______ _____ _____    ______ ____

>  <TORSDO>
F 1

$$$$
=
 OpenBabel10272402003D

 28 32  0  0  1  0  0  0  0  0999 V2000
  189.9490  177.8490  140.0990 C   0  0  2  0  0  3  0  0  0  0  0  0
  185.2670  178.6180  142.1270 C   0  0  0  0  0  3  0  0  0  0  0  0
  190.5620  176.7860  145.0280 C   0  0  0  0  0  1  0  0  0  0  0  0
  185.6060  178.1030  144.5480 C   0  0  0  0  0  0  0  0  0  0  0  0
  187.5010  177.8970  143.0230 C   0  0  0  0  0  0  0  0  0  0  0  0
  183.3670  178.8240  143.6420 C   0  0  0  0  0  0  0  0  0  0  0  0
  186.1400  178.2010  143.2450 C   0  0  0  0  0  0  0  0  0  0  0  0
  187.7680  177.4100  145.3890 C   0  0  0  0  0  3  0  0  0  0  0  0
  184.1630  178.4130  144.8470 C   0  0  0  0  0  2  0  0  0  0  0  0
  190.2260  177.3060  142.5850 C   0  0  0  0  0  0  0  0  0  0  0  0
  188.0530  177.9830  141.7410 C   0  0  0  0  0  3  0  0  0  0  0  0
  186.4250  177.7090  145.6060 C   0  0  0  0  0  3  0  0  0  0  0  0
  192.2300  177.6630  141.1190 C   0  0  0  0  0  2  0  0  0  0  0  0
  189.6840  177.2030  143.8840 C   0  0  0  0  0  0  0  0  0  0  0  0
  191.6750  176.9590  142.3480 C   0  0  0  0  0  2  0  0  0  0  0  0
  182.1490  179.1030  143.7760 O   0  0  0  0  0  0  0  0  0  0  0  0
  183.9810  178.9070  142.3100 C   0  0  0  0  0  3  0  0  0  0  0  0
  188.3230  177.4990  144.1040 C   0  0  0  0  0  0  0  0  0  0  0  0
  191.3690  177.3050  139.9210 C   0  0  0  0  0  2  0  0  0  0  0  0
  189.3940  177.6670  141.5010 C   0  0  0  0  0  0  0  0  0  0  0  0
  189.0460  177.2840  139.0430 C   0  0  0  0  0  0  0  0  0  0  0  0
  187.8340  177.9090  138.7150 C   0  0  0  0  0  3  0  0  0  0  0  0
  187.3980  176.2050  137.0460 C   0  0  0  0  0  0  0  0  0  0  0  0
  189.4290  176.1200  138.3690 C   0  0  0  0  0  3  0  0  0  0  0  0
  185.7840  178.0290  137.4040 N   0  0  0  0  0  1  0  0  0  0  0  0
  187.0100  177.3750  137.7210 C   0  0  0  0  0  0  0  0  0  0  0  0
  186.5450  175.6100  135.9790 C   0  0  0  0  0  1  0  0  0  0  0  0
  188.6070  175.5830  137.3740 C   0  0  0  0  0  3  0  0  0  0  0  0
  1 21  1  6  0  0  0
  1 20  1  0  0  0  0
  2 17  2  0  0  0  0
  2  7  1  0  0  0  0
  4  9  1  0  0  0  0
  4 12  1  0  0  0  0
  5  7  1  0  0  0  0
  5 18  1  0  0  0  0
  6 16  2  0  0  0  0
  6  9  1  0  0  0  0
  7  4  2  0  0  0  0
  8 12  2  0  0  0  0
 10 14  1  0  0  0  0
 11  5  2  0  0  0  0
 13 15  1  0  0  0  0
 14 18  2  0  0  0  0
 14  3  1  0  0  0  0
 15 10  1  0  0  0  0
 17  6  1  0  0  0  0
 18  8  1  0  0  0  0
 19  1  1  0  0  0  0
 19 13  1  0  0  0  0
 20 11  1  0  0  0  0
 20 10  2  0  0  0  0
 22 21  1  0  0  0  0
 23 28  2  0  0  0  0
 23 26  1  0  0  0  0
 24 21  2  0  0  0  0
 25 26  1  0  0  0  0
 26 22  2  0  0  0  0
 27 23  1  0  0  0  0
 28 24  1  0  0  0  0
M  END
>  <MODEL>
3

>  <REMARK>
 VINA RESULT:     -10.5      1.125      2.076
  Name = 
  1 active torsions:
  status: ('A' for Active; 'I' for Inactive)
    1  A    between atoms: C_1  and  C_2
                            x       y       z     vdW  Elec       q    Type
                         _______ _______ _______ _____ _____    ______ ____

>  <TORSDO>
F 1

$$$$
=
 OpenBabel10272402003D

 28 32  0  0  1  0  0  0  0  0999 V2000
  189.6440  177.8600  139.8560 C   0  0  2  0  0  3  0  0  0  0  0  0
  185.0290  178.6730  142.0170 C   0  0  0  0  0  3  0  0  0  0  0  0
  190.4020  176.8440  144.7750 C   0  0  0  0  0  1  0  0  0  0  0  0
  185.4400  178.1820  144.4320 C   0  0  0  0  0  0  0  0  0  0  0  0
  187.2860  177.9500  142.8520 C   0  0  0  0  0  0  0  0  0  0  0  0
  183.1780  178.9040  143.5870 C   0  0  0  0  0  0  0  0  0  0  0  0
  185.9340  178.2640  143.1120 C   0  0  0  0  0  0  0  0  0  0  0  0
  187.6230  177.4860  145.2140 C   0  0  0  0  0  3  0  0  0  0  0  0
  184.0090  178.5020  144.7720 C   0  0  0  0  0  2  0  0  0  0  0  0
  189.9940  177.3400  142.3380 C   0  0  0  0  0  0  0  0  0  0  0  0
  187.7990  178.0200  141.5540 C   0  0  0  0  0  3  0  0  0  0  0  0
  186.2890  177.7940  145.4690 C   0  0  0  0  0  3  0  0  0  0  0  0
  191.9540  177.6720  140.8080 C   0  0  0  0  0  2  0  0  0  0  0  0
  189.4920  177.2530  143.6530 C   0  0  0  0  0  0  0  0  0  0  0  0
  191.4340  176.9840  142.0600 C   0  0  0  0  0  2  0  0  0  0  0  0
  181.9660  179.1910  143.7560 O   0  0  0  0  0  0  0  0  0  0  0  0
  183.7510  178.9700  142.2370 C   0  0  0  0  0  3  0  0  0  0  0  0
  188.1400  177.5590  143.9120 C   0  0  0  0  0  0  0  0  0  0  0  0
  191.0550  177.3060  139.6410 C   0  0  0  0  0  2  0  0  0  0  0  0
  189.1310  177.6940  141.2760 C   0  0  0  0  0  0  0  0  0  0  0  0
  188.7070  177.2880  138.8340 C   0  0  0  0  0  0  0  0  0  0  0  0
  188.9700  176.0540  138.2190 C   0  0  0  0  0  3  0  0  0  0  0  0
  186.9160  176.2430  136.9440 C   0  0  0  0  0  0  0  0  0  0  0  0
  187.5470  177.9940  138.4990 C   0  0  0  0  0  3  0  0  0  0  0  0
  188.3680  174.2750  136.6680 N   0  0  0  0  0  1  0  0  0  0  0  0
  188.0800  175.5310  137.2770 C   0  0  0  0  0  0  0  0  0  0  0  0
  185.9450  175.7130  135.9460 C   0  0  0  0  0  1  0  0  0  0  0  0
  186.6550  177.4730  137.5580 C   0  0  0  0  0  3  0  0  0  0  0  0
  1 21  1  6  0  0  0
  1 20  1  0  0  0  0
  2 17  2  0  0  0  0
  2  7  1  0  0  0  0
  4  9  1  0  0  0  0
  4 12  1  0  0  0  0
  5  7  1  0  0  0  0
  5 18  1  0  0  0  0
  6 16  2  0  0  0  0
  6  9  1  0  0  0  0
  7  4  2  0  0  0  0
  8 12  2  0  0  0  0
 10 14  1  0  0  0  0
 11  5  2  0  0  0  0
 13 15  1  0  0  0  0
 14 18  2  0  0  0  0
 14  3  1  0  0  0  0
 15 10  1  0  0  0  0
 17  6  1  0  0  0  0
 18  8  1  0  0  0  0
 19  1  1  0  0  0  0
 19 13  1  0  0  0  0
 20 11  1  0  0  0  0
 20 10  2  0  0  0  0
 22 21  2  0  0  0  0
 23 26  2  0  0  0  0
 23 28  1  0  0  0  0
 24 21  1  0  0  0  0
 25 26  1  0  0  0  0
 26 22  1  0  0  0  0
 27 23  1  0  0  0  0
 28 24  2  0  0  0  0
M  END
>  <MODEL>
4

>  <REMARK>
 VINA RESULT:     -10.4      1.476      2.572
  Name = 
  1 active torsions:
  status: ('A' for Active; 'I' for Inactive)
    1  A    between atoms: C_1  and  C_2
                            x       y       z     vdW  Elec       q    Type
                         _______ _______ _______ _____ _____    ______ ____

>  <TORSDO>
F 1

$$$$
=
 OpenBabel10272402003D

 28 32  0  0  1  0  0  0  0  0999 V2000
  188.9650  177.8640  139.0600 C   0  0  2  0  0  3  0  0  0  0  0  0
  185.4230  178.7030  142.7170 C   0  0  0  0  0  3  0  0  0  0  0  0
  191.2160  176.2800  143.3290 C   0  0  0  0  0  1  0  0  0  0  0  0
  186.5650  177.9310  144.8010 C   0  0  0  0  0  0  0  0  0  0  0  0
  187.7530  177.7660  142.6750 C   0  0  0  0  0  0  0  0  0  0  0  0
  184.2260  178.8700  144.8350 C   0  0  0  0  0  0  0  0  0  0  0  0
  186.5990  178.1270  143.4030 C   0  0  0  0  0  0  0  0  0  0  0  0
  188.8110  177.0300  144.7360 C   0  0  0  0  0  3  0  0  0  0  0  0
  185.3630  178.2950  145.6310 C   0  0  0  0  0  2  0  0  0  0  0  0
  190.0700  177.0600  141.2240 C   0  0  0  0  0  0  0  0  0  0  0  0
  187.8110  177.9460  141.2900 C   0  0  0  0  0  3  0  0  0  0  0  0
  187.6710  177.3850  145.4530 C   0  0  0  0  0  3  0  0  0  0  0  0
  191.4330  177.4410  139.1530 C   0  0  0  0  0  2  0  0  0  0  0  0
  190.0270  176.8600  142.6200 C   0  0  0  0  0  0  0  0  0  0  0  0
  191.2970  176.6530  140.4460 C   0  0  0  0  0  2  0  0  0  0  0  0
  183.1700  179.2070  145.4280 O   0  0  0  0  0  0  0  0  0  0  0  0
  184.3220  179.0490  143.3810 C   0  0  0  0  0  3  0  0  0  0  0  0
  188.8710  177.2140  143.3460 C   0  0  0  0  0  0  0  0  0  0  0  0
  190.1680  177.2560  138.3340 C   0  0  0  0  0  2  0  0  0  0  0  0
  188.9390  177.5760  140.5510 C   0  0  0  0  0  0  0  0  0  0  0  0
  187.6940  177.4610  138.3730 C   0  0  0  0  0  0  0  0  0  0  0  0
  187.6120  176.2670  137.6420 C   0  0  0  0  0  3  0  0  0  0  0  0
  185.2900  176.7340  137.1220 C   0  0  0  0  0  0  0  0  0  0  0  0
  186.5700  178.2880  138.4750 C   0  0  0  0  0  3  0  0  0  0  0  0
  186.3580  174.6820  136.2810 N   0  0  0  0  0  1  0  0  0  0  0  0
  186.4170  175.9010  137.0170 C   0  0  0  0  0  0  0  0  0  0  0  0
  184.0000  176.3740  136.4700 C   0  0  0  0  0  1  0  0  0  0  0  0
  185.3730  177.9250  137.8520 C   0  0  0  0  0  3  0  0  0  0  0  0
  1 21  1  6  0  0  0
  1 20  1  0  0  0  0
  2 17  2  0  0  0  0
  2  7  1  0  0  0  0
  4 12  1  0  0  0  0
  4  9  1  0  0  0  0
  5 18  1  0  0  0  0
  5  7  1  0  0  0  0
  6 16  2  0  0  0  0
  6  9  1  0  0  0  0
  7  4  2  0  0  0  0
  8 12  2  0  0  0  0
 10 14  1  0  0  0  0
 11  5  2  0  0  0  0
 13 15  1  0  0  0  0
 14  3  1  0  0  0  0
 14 18  2  0  0  0  0
 15 10  1  0  0  0  0
 17  6  1  0  0  0  0
 18  8  1  0  0  0  0
 19  1  1  0  0  0  0
 19 13  1  0  0  0  0
 20 10  2  0  0  0  0
 20 11  1  0  0  0  0
 21 24  1  0  0  0  0
 22 21  2  0  0  0  0
 23 28  1  0  0  0  0
 25 26  1  0  0  0  0
 26 23  2  0  0  0  0
 26 22  1  0  0  0  0
 27 23  1  0  0  0  0
 28 24  2  0  0  0  0
M  END
>  <MODEL>
5

>  <REMARK>
 VINA RESULT:     -10.2      1.903      3.540
  Name = 
  1 active torsions:
  status: ('A' for Active; 'I' for Inactive)
    1  A    between atoms: C_1  and  C_2
                            x       y       z     vdW  Elec       q    Type
                         _______ _______ _______ _____ _____    ______ ____

>  <TORSDO>
F 1

$$$$
=
 OpenBabel10272402003D

 28 32  0  0  1  0  0  0  0  0999 V2000
  186.7230  178.7880  138.4450 C   0  0  2  0  0  3  0  0  0  0  0  0
  185.2430  178.6730  143.3870 C   0  0  0  0  0  3  0  0  0  0  0  0
  190.7510  176.8830  140.8820 C   0  0  0  0  0  1  0  0  0  0  0  0
  187.2480  177.7490  144.5570 C   0  0  0  0  0  0  0  0  0  0  0  0
  187.3240  178.0310  142.1340 C   0  0  0  0  0  0  0  0  0  0  0  0
  185.1560  178.3920  145.8080 C   0  0  0  0  0  0  0  0  0  0  0  0
  186.6240  178.1460  143.3550 C   0  0  0  0  0  0  0  0  0  0  0  0
  189.2420  177.1360  143.3290 C   0  0  0  0  0  3  0  0  0  0  0  0
  186.5530  177.8460  145.8900 C   0  0  0  0  0  2  0  0  0  0  0  0
  188.7330  177.8170  139.6970 C   0  0  0  0  0  0  0  0  0  0  0  0
  186.7280  178.4130  140.9290 C   0  0  0  0  0  3  0  0  0  0  0  0
  188.5500  177.2490  144.5330 C   0  0  0  0  0  3  0  0  0  0  0  0
  188.9680  178.6490  137.3420 C   0  0  0  0  0  2  0  0  0  0  0  0
  189.3480  177.4150  140.9010 C   0  0  0  0  0  0  0  0  0  0  0  0
  189.4760  177.6730  138.3920 C   0  0  0  0  0  2  0  0  0  0  0  0
  184.4820  178.5150  146.8620 O   0  0  0  0  0  0  0  0  0  0  0  0
  184.5620  178.7880  144.5240 C   0  0  0  0  0  3  0  0  0  0  0  0
  188.6460  177.5230  142.1200 C   0  0  0  0  0  0  0  0  0  0  0  0
  187.4760  178.4370  137.1600 C   0  0  0  0  0  2  0  0  0  0  0  0
  187.4000  178.2880  139.7090 C   0  0  0  0  0  0  0  0  0  0  0  0
  185.2940  178.3420  138.3410 C   0  0  0  0  0  0  0  0  0  0  0  0
  184.2500  179.1320  138.8460 C   0  0  0  0  0  3  0  0  0  0  0  0
  182.6350  177.4810  138.1060 C   0  0  0  0  0  0  0  0  0  0  0  0
  185.0020  177.1240  137.7210 C   0  0  0  0  0  3  0  0  0  0  0  0
  181.8800  179.5260  139.2490 N   0  0  0  0  0  1  0  0  0  0  0  0
  182.9240  178.7060  138.7310 C   0  0  0  0  0  0  0  0  0  0  0  0
  181.2320  176.9980  137.9650 C   0  0  0  0  0  1  0  0  0  0  0  0
  183.6770  176.6950  137.6040 C   0  0  0  0  0  3  0  0  0  0  0  0
  1 21  1  6  0  0  0
  1 20  1  0  0  0  0
  2 17  2  0  0  0  0
  3 14  1  0  0  0  0
  4  9  1  0  0  0  0
  5  7  1  0  0  0  0
  6  9  1  0  0  0  0
  6 16  2  0  0  0  0
  7  2  1  0  0  0  0
  7  4  2  0  0  0  0
  8 12  2  0  0  0  0
 10 20  2  0  0  0  0
 10 14  1  0  0  0  0
 11  5  2  0  0  0  0
 12  4  1  0  0  0  0
 13 15  1  0  0  0  0
 14 18  2  0  0  0  0
 15 10  1  0  0  0  0
 17  6  1  0  0  0  0
 18  5  1  0  0  0  0
 18  8  1  0  0  0  0
 19 13  1  0  0  0  0
 19  1  1  0  0  0  0
 20 11  1  0  0  0  0
 21 22  1  0  0  0  0
 23 26  1  0  0  0  0
 24 21  2  0  0  0  0
 26 22  2  0  0  0  0
 26 25  1  0  0  0  0
 27 23  1  0  0  0  0
 28 24  1  0  0  0  0
 28 23  2  0  0  0  0
M  END
>  <MODEL>
6

>  <REMARK>
 VINA RESULT:      -9.9      2.770      5.066
  Name = 
  1 active torsions:
  status: ('A' for Active; 'I' for Inactive)
    1  A    between atoms: C_1  and  C_2
                            x       y       z     vdW  Elec       q    Type
                         _______ _______ _______ _____ _____    ______ ____

>  <TORSDO>
F 1

$$$$
=
 OpenBabel10272402003D

 28 32  0  0  1  0  0  0  0  0999 V2000
  184.4580  177.9410  142.3720 C   0  0  2  0  0  3  0  0  0  0  0  0
  189.2350  176.1500  143.1420 C   0  0  0  0  0  3  0  0  0  0  0  0
  185.6070  179.5050  147.0660 C   0  0  0  0  0  1  0  0  0  0  0  0
  189.7620  176.9200  145.4600 C   0  0  0  0  0  0  0  0  0  0  0  0
  187.5940  177.4890  144.4940 C   0  0  0  0  0  0  0  0  0  0  0  0
  191.4050  175.5790  144.0980 C   0  0  0  0  0  0  0  0  0  0  0  0
  188.8540  176.8630  144.3810 C   0  0  0  0  0  0  0  0  0  0  0  0
  188.1660  178.2110  146.7440 C   0  0  0  0  0  3  0  0  0  0  0  0
  191.1200  176.2730  145.3990 C   0  0  0  0  0  2  0  0  0  0  0  0
  185.0680  178.7290  144.7300 C   0  0  0  0  0  0  0  0  0  0  0  0
  186.6790  177.4500  143.4380 C   0  0  0  0  0  3  0  0  0  0  0  0
  189.4090  177.5930  146.6300 C   0  0  0  0  0  3  0  0  0  0  0  0
  182.6900  178.7880  143.9330 C   0  0  0  0  0  2  0  0  0  0  0  0
  185.9840  178.7880  145.8020 C   0  0  0  0  0  0  0  0  0  0  0  0
  183.7310  179.4180  144.8460 C   0  0  0  0  0  2  0  0  0  0  0  0
  192.5120  175.0050  143.9360 O   0  0  0  0  0  0  0  0  0  0  0  0
  190.4170  175.5540  143.0110 C   0  0  0  0  0  3  0  0  0  0  0  0
  187.2450  178.1690  145.6860 C   0  0  0  0  0  0  0  0  0  0  0  0
  183.2100  178.8180  142.5070 C   0  0  0  0  0  2  0  0  0  0  0  0
  185.4340  178.0820  143.5270 C   0  0  0  0  0  0  0  0  0  0  0  0
  185.1040  178.1710  141.0380 C   0  0  0  0  0  0  0  0  0  0  0  0
  186.4930  178.3370  140.9250 C   0  0  0  0  0  3  0  0  0  0  0  0
  186.2760  178.5760  138.5220 C   0  0  0  0  0  0  0  0  0  0  0  0
  184.3080  178.2100  139.8900 C   0  0  0  0  0  3  0  0  0  0  0  0
  188.4930  178.7030  139.5840 N   0  0  0  0  0  1  0  0  0  0  0  0
  187.0810  178.5390  139.6740 C   0  0  0  0  0  0  0  0  0  0  0  0
  186.8710  178.7880  137.1720 C   0  0  0  0  0  1  0  0  0  0  0  0
  184.8920  178.4110  138.6370 C   0  0  0  0  0  3  0  0  0  0  0  0
  1 21  1  6  0  0  0
  1 19  1  0  0  0  0
  1 20  1  0  0  0  0
  2  7  1  0  0  0  0
  4 12  1  0  0  0  0
  5 18  1  0  0  0  0
  6  9  1  0  0  0  0
  7  5  1  0  0  0  0
  7  4  2  0  0  0  0
  9  4  1  0  0  0  0
 10 15  1  0  0  0  0
 10 14  1  0  0  0  0
 11 20  1  0  0  0  0
 11  5  2  0  0  0  0
 12  8  2  0  0  0  0
 13 15  1  0  0  0  0
 14  3  1  0  0  0  0
 16  6  2  0  0  0  0
 17  2  2  0  0  0  0
 17  6  1  0  0  0  0
 18 14  2  0  0  0  0
 18  8  1  0  0  0  0
 19 13  1  0  0  0  0
 20 10  2  0  0  0  0
 22 21  1  0  0  0  0
 23 28  2  0  0  0  0
 23 26  1  0  0  0  0
 24 21  2  0  0  0  0
 25 26  1  0  0  0  0
 26 22  2  0  0  0  0
 27 23  1  0  0  0  0
 28 24  1  0  0  0  0
M  END
>  <MODEL>
7

>  <REMARK>
 VINA RESULT:      -9.9      2.853      5.632
  Name = 
  1 active torsions:
  status: ('A' for Active; 'I' for Inactive)
    1  A    between atoms: C_1  and  C_2
                            x       y       z     vdW  Elec       q    Type
                         _______ _______ _______ _____ _____    ______ ____

>  <TORSDO>
F 1

$$$$
=
 OpenBabel10272402003D

 28 32  0  0  1  0  0  0  0  0999 V2000
  186.1530  177.5520  142.9470 C   0  0  2  0  0  3  0  0  0  0  0  0
  190.4680  176.2330  145.4500 C   0  0  0  0  0  3  0  0  0  0  0  0
  185.6070  179.6780  147.5270 C   0  0  0  0  0  1  0  0  0  0  0  0
  190.1600  177.2780  147.6990 C   0  0  0  0  0  0  0  0  0  0  0  0
  188.4170  177.5710  146.0150 C   0  0  0  0  0  0  0  0  0  0  0  0
  192.2160  175.9370  147.1240 C   0  0  0  0  0  0  0  0  0  0  0  0
  189.6670  177.0380  146.3980 C   0  0  0  0  0  0  0  0  0  0  0  0
  188.1770  178.5650  148.2200 C   0  0  0  0  0  3  0  0  0  0  0  0
  191.4860  176.7370  148.1650 C   0  0  0  0  0  2  0  0  0  0  0  0
  185.9100  178.6250  145.2580 C   0  0  0  0  0  0  0  0  0  0  0  0
  187.9090  177.3510  144.7320 C   0  0  0  0  0  3  0  0  0  0  0  0
  189.4110  178.0380  148.5960 C   0  0  0  0  0  3  0  0  0  0  0  0
  183.9330  178.4130  143.7280 C   0  0  0  0  0  2  0  0  0  0  0  0
  186.4120  178.8670  146.5540 C   0  0  0  0  0  0  0  0  0  0  0  0
  184.5840  179.2140  144.8450 C   0  0  0  0  0  2  0  0  0  0  0  0
  193.3360  175.4390  147.4050 O   0  0  0  0  0  0  0  0  0  0  0  0
  191.6490  175.7220  145.7870 C   0  0  0  0  0  3  0  0  0  0  0  0
  187.6640  178.3400  146.9340 C   0  0  0  0  0  0  0  0  0  0  0  0
  184.8970  178.3360  142.5580 C   0  0  0  0  0  2  0  0  0  0  0  0
  186.6820  177.8880  144.3300 C   0  0  0  0  0  0  0  0  0  0  0  0
  187.1970  177.6930  141.8800 C   0  0  0  0  0  0  0  0  0  0  0  0
  188.5070  177.2340  142.0830 C   0  0  0  0  0  3  0  0  0  0  0  0
  189.1150  177.9560  139.8490 C   0  0  0  0  0  0  0  0  0  0  0  0
  186.8530  178.2830  140.6600 C   0  0  0  0  0  3  0  0  0  0  0  0
  190.7890  176.8870  141.3030 N   0  0  0  0  0  1  0  0  0  0  0  0
  189.4650  177.3630  141.0740 C   0  0  0  0  0  0  0  0  0  0  0  0
  190.1110  178.1080  138.7520 C   0  0  0  0  0  1  0  0  0  0  0  0
  187.8090  178.4130  139.6490 C   0  0  0  0  0  3  0  0  0  0  0  0
  1 21  1  6  0  0  0
  1 20  1  0  0  0  0
  2 17  2  0  0  0  0
  2  7  1  0  0  0  0
  4  9  1  0  0  0  0
  4 12  1  0  0  0  0
  5  7  1  0  0  0  0
  5 18  1  0  0  0  0
  6 16  2  0  0  0  0
  6  9  1  0  0  0  0
  7  4  2  0  0  0  0
  8 12  2  0  0  0  0
 10 14  1  0  0  0  0
 11  5  2  0  0  0  0
 13 15  1  0  0  0  0
 14 18  2  0  0  0  0
 14  3  1  0  0  0  0
 15 10  1  0  0  0  0
 17  6  1  0  0  0  0
 18  8  1  0  0  0  0
 19  1  1  0  0  0  0
 19 13  1  0  0  0  0
 20 11  1  0  0  0  0
 20 10  2  0  0  0  0
 21 22  1  0  0  0  0
 23 26  1  0  0  0  0
 24 21  2  0  0  0  0
 26 25  1  0  0  0  0
 26 22  2  0  0  0  0
 27 23  1  0  0  0  0
 28 23  2  0  0  0  0
 28 24  1  0  0  0  0
M  END
>  <MODEL>
8

>  <REMARK>
 VINA RESULT:      -9.8      3.029      5.671
  Name = 
  1 active torsions:
  status: ('A' for Active; 'I' for Inactive)
    1  A    between atoms: C_1  and  C_2
                            x       y       z     vdW  Elec       q    Type
                         _______ _______ _______ _____ _____    ______ ____

>  <TORSDO>
F 1

$$$$
=
 OpenBabel10272402003D

 28 32  0  0  1  0  0  0  0  0999 V2000
  189.4380  178.3460  141.9890 C   0  0  2  0  0  3  0  0  0  0  0  0
  184.5630  179.0150  140.4380 C   0  0  0  0  0  3  0  0  0  0  0  0
  186.7070  177.6660  146.2170 C   0  0  0  0  0  1  0  0  0  0  0  0
  183.2500  178.6910  142.5390 C   0  0  0  0  0  0  0  0  0  0  0  0
  185.6800  178.4750  142.6230 C   0  0  0  0  0  0  0  0  0  0  0  0
  182.1350  179.2290  140.3430 C   0  0  0  0  0  0  0  0  0  0  0  0
  184.5010  178.7240  141.8860 C   0  0  0  0  0  0  0  0  0  0  0  0
  184.3480  178.1700  144.6330 C   0  0  0  0  0  3  0  0  0  0  0  0
  181.9590  178.9470  141.8080 C   0  0  0  0  0  2  0  0  0  0  0  0
  188.0360  177.9940  144.1020 C   0  0  0  0  0  0  0  0  0  0  0  0
  186.9310  178.4980  141.9990 C   0  0  0  0  0  3  0  0  0  0  0  0
  183.1860  178.4150  143.9050 C   0  0  0  0  0  3  0  0  0  0  0  0
  190.5150  178.3490  144.2520 C   0  0  0  0  0  2  0  0  0  0  0  0
  186.7820  177.9550  144.7460 C   0  0  0  0  0  0  0  0  0  0  0  0
  189.2920  177.7070  144.8870 C   0  0  0  0  0  2  0  0  0  0  0  0
  181.1220  179.4550  139.6340 O   0  0  0  0  0  0  0  0  0  0  0  0
  183.4660  179.2500  139.7220 C   0  0  0  0  0  3  0  0  0  0  0  0
  185.6040  178.1970  144.0090 C   0  0  0  0  0  0  0  0  0  0  0  0
  190.6320  177.8640  142.8180 C   0  0  0  0  0  2  0  0  0  0  0  0
  188.1060  178.2350  142.7100 C   0  0  0  0  0  0  0  0  0  0  0  0
  189.4310  177.6620  140.6540 C   0  0  0  0  0  0  0  0  0  0  0  0
  188.3940  177.8800  139.7340 C   0  0  0  0  0  3  0  0  0  0  0  0
  189.4670  176.3800  138.1590 C   0  0  0  0  0  0  0  0  0  0  0  0
  190.4810  176.8020  140.3210 C   0  0  0  0  0  3  0  0  0  0  0  0
  187.3450  177.4820  137.5720 N   0  0  0  0  0  1  0  0  0  0  0  0
  188.4090  177.2440  138.4900 C   0  0  0  0  0  0  0  0  0  0  0  0
  189.5130  175.6870  136.8410 C   0  0  0  0  0  1  0  0  0  0  0  0
  190.4990  176.1640  139.0780 C   0  0  0  0  0  3  0  0  0  0  0  0
  1 21  1  6  0  0  0
  1 20  1  0  0  0  0
  1 19  1  0  0  0  0
  2  7  1  0  0  0  0
  4 12  1  0  0  0  0
  5 18  1  0  0  0  0
  6  9  1  0  0  0  0
  7  4  2  0  0  0  0
  7  5  1  0  0  0  0
  9  4  1  0  0  0  0
 10 14  1  0  0  0  0
 10 15  1  0  0  0  0
 11  5  2  0  0  0  0
 11 20  1  0  0  0  0
 12  8  2  0  0  0  0
 13 15  1  0  0  0  0
 14  3  1  0  0  0  0
 16  6  2  0  0  0  0
 17  6  1  0  0  0  0
 17  2  2  0  0  0  0
 18  8  1  0  0  0  0
 18 14  2  0  0  0  0
 19 13  1  0  0  0  0
 20 10  2  0  0  0  0
 22 21  2  0  0  0  0
 23 26  2  0  0  0  0
 23 28  1  0  0  0  0
 24 21  1  0  0  0  0
 25 26  1  0  0  0  0
 26 22  1  0  0  0  0
 27 23  1  0  0  0  0
 28 24  2  0  0  0  0
M  END
>  <MODEL>
9

>  <REMARK>
 VINA RESULT:      -9.7      1.369      2.077
  Name = 
  1 active torsions:
  status: ('A' for Active; 'I' for Inactive)
    1  A    between atoms: C_1  and  C_2
                            x       y       z     vdW  Elec       q    Type
                         _______ _______ _______ _____ _____    ______ ____

>  <TORSDO>
F 1

$$$$
