=
 OpenBabel10272414343D

 43 47  0  0  1  0  0  0  0  0999 V2000
  187.5210  177.6730  147.3220 C   0  0  0  0  0  0  0  0  0  0  0  0
  184.2640  178.8450  143.6510 C   0  0  0  0  0  0  0  0  0  0  0  0
  186.2580  177.9950  142.3330 C   0  0  0  0  0  2  0  0  0  0  0  0
  185.5880  178.4200  146.0690 C   0  0  0  0  0  0  0  0  0  0  0  0
  188.1800  177.3630  146.1300 C   0  0  0  0  0  3  0  0  0  0  0  0
  188.1370  177.4600  148.5090 F   0  0  0  0  0  0  0  0  0  0  0  0
  186.2470  178.1100  144.8570 C   0  0  0  0  0  0  0  0  0  0  0  0
  186.2270  178.2000  147.2920 C   0  0  0  0  0  3  0  0  0  0  0  0
  187.5470  177.5810  144.9020 C   0  0  0  0  0  3  0  0  0  0  0  0
  185.7040  178.8180  141.1740 C   0  0  2  0  0  3  0  0  0  0  0  0
  185.5870  178.3440  143.6380 C   0  0  0  0  0  0  0  0  0  0  0  0
  183.6730  179.1590  144.8820 C   0  0  0  0  0  3  0  0  0  0  0  0
  183.5300  179.1890  142.3690 C   0  0  1  0  0  3  0  0  0  0  0  0
  184.1990  178.6010  141.1230 C   0  0  0  0  0  2  0  0  0  0  0  0
  184.3330  178.9370  146.0480 N   0  0  0  0  0  0  0  0  0  0  0  0
  186.3480  178.3810  139.8620 C   0  0  1  0  0  3  0  0  0  0  0  0
  185.7160  179.0090  138.7860 O   0  0  0  0  0  1  0  0  0  0  0  0
  187.7600  178.7350  139.8570 N   0  0  0  0  0  2  0  0  0  0  0  0
  188.6150  179.0990  137.3800 O   0  0  0  0  0  0  0  0  0  0  0  0
  188.4770  178.0420  138.4410 S   0  0  0  0  0  0  0  0  0  0  0  0
  187.6000  176.9290  137.9390 O   0  0  0  0  0  0  0  0  0  0  0  0
  190.0460  177.4100  138.8370 N   0  0  0  0  0  0  0  0  0  0  0  0
  190.5220  177.3710  140.1930 C   0  0  0  0  0  0  0  0  0  0  0  0
  191.7270  177.0850  140.4310 O   0  0  0  0  0  0  0  0  0  0  0  0
  189.6040  177.6380  141.3450 C   0  0  0  0  0  2  0  0  0  0  0  0
  190.3200  177.4520  142.6410 C   0  0  0  0  0  0  0  0  0  0  0  0
  191.4860  178.3910  144.5470 C   0  0  0  0  0  3  0  0  0  0  0  0
  191.2260  175.9910  144.3500 C   0  0  0  0  0  3  0  0  0  0  0  0
  191.6990  177.1050  145.0510 C   0  0  0  0  0  3  0  0  0  0  0  0
  190.5380  176.1650  143.1450 C   0  0  0  0  0  3  0  0  0  0  0  0
  190.7990  178.5650  143.3410 C   0  0  0  0  0  3  0  0  0  0  0  0
  190.8860  176.9000  137.7600 C   0  0  0  0  0  2  0  0  0  0  0  0
  191.8720  174.7350  137.9830 O   0  0  0  0  0  1  0  0  0  0  0  0
  190.7030  175.3980  137.6100 C   0  0  0  0  0  2  0  0  0  0  0  0
  182.0740  178.7370  142.4240 C   0  0  0  0  0  2  0  0  0  0  0  0
  180.3690  179.2650  139.0820 C   0  0  0  0  0  3  0  0  0  0  0  0
  180.4970  177.9950  138.4960 C   0  0  0  0  0  0  0  0  0  0  0  0
  181.6630  177.2160  140.4760 C   0  0  0  0  0  3  0  0  0  0  0  0
  180.8880  179.5070  140.3580 C   0  0  0  0  0  3  0  0  0  0  0  0
  181.5380  178.4840  141.0550 C   0  0  0  0  0  0  0  0  0  0  0  0
  181.1460  176.9740  139.2010 C   0  0  0  0  0  3  0  0  0  0  0  0
  180.8140  177.6640  136.0650 C   0  0  0  0  0  1  0  0  0  0  0  0
  179.9910  177.7200  137.2220 O   0  0  0  0  0  0  0  0  0  0  0  0
  1  6  1  0  0  0  0
  2 12  1  0  0  0  0
  3 11  1  0  0  0  0
  4  8  2  0  0  0  0
  5  1  2  0  0  0  0
  7  9  2  0  0  0  0
  7  4  1  0  0  0  0
  8  1  1  0  0  0  0
  9  5  1  0  0  0  0
 10 16  1  6  0  0  0
 10  3  1  0  0  0  0
 11  2  2  0  0  0  0
 11  7  1  0  0  0  0
 12 15  2  0  0  0  0
 13 35  1  1  0  0  0
 13  2  1  0  0  0  0
 14 10  1  0  0  0  0
 14 13  1  0  0  0  0
 15  4  1  0  0  0  0
 16 17  1  6  0  0  0
 18 16  1  0  0  0  0
 19 20  2  0  0  0  0
 20 22  1  0  0  0  0
 20 18  1  0  0  0  0
 21 20  2  0  0  0  0
 22 23  1  0  0  0  0
 23 24  2  0  0  0  0
 23 25  1  0  0  0  0
 25 26  1  0  0  0  0
 26 30  2  0  0  0  0
 26 31  1  0  0  0  0
 27 29  1  0  0  0  0
 28 29  2  0  0  0  0
 30 28  1  0  0  0  0
 31 27  2  0  0  0  0
 32 22  1  0  0  0  0
 34 32  1  0  0  0  0
 34 33  1  0  0  0  0
 36 39  1  0  0  0  0
 37 36  2  0  0  0  0
 37 41  1  0  0  0  0
 38 40  1  0  0  0  0
 39 40  2  0  0  0  0
 40 35  1  0  0  0  0
 41 38  2  0  0  0  0
 42 43  1  0  0  0  0
 43 37  1  0  0  0  0
M  END
>  <MODEL>
1

>  <REMARK>
 VINA RESULT:      -9.9      0.000      0.000
  Name = 
  11 active torsions:
  status: ('A' for Active; 'I' for Inactive)
    1  A    between atoms: C_1  and  C_34
    2  A    between atoms: C_1  and  C_35
    3  A    between atoms: C_2  and  N_6
    4  A    between atoms: C_2  and  C_27
    5  A    between atoms: N_4  and  S_12
    6  A    between atoms: N_4  and  C_15
    7  A    between atoms: N_6  and  S_12
    8  A    between atoms: C_11  and  C_14
    9  A    between atoms: C_14  and  C_22
   10  A    between atoms: C_15  and  C_42
   11  A    between atoms: C_19  and  O_37
                            x       y       z     vdW  Elec       q    Type
                         _______ _______ _______ _____ _____    ______ ____

>  <TORSDO>
F 11

$$$$
=
 OpenBabel10272414343D

 43 47  0  0  1  0  0  0  0  0999 V2000
  187.9500  177.7260  147.5480 C   0  0  0  0  0  0  0  0  0  0  0  0
  185.6000  178.3840  143.1310 C   0  0  0  0  0  0  0  0  0  0  0  0
  187.9630  177.8310  142.3930 C   0  0  0  0  0  2  0  0  0  0  0  0
  186.3120  178.1720  145.8200 C   0  0  0  0  0  0  0  0  0  0  0  0
  188.9270  177.5120  146.5730 C   0  0  0  0  0  3  0  0  0  0  0  0
  188.2670  177.6130  148.8600 F   0  0  0  0  0  0  0  0  0  0  0  0
  187.2950  177.9570  144.8270 C   0  0  0  0  0  0  0  0  0  0  0  0
  186.6450  178.0560  147.1720 C   0  0  0  0  0  3  0  0  0  0  0  0
  188.6030  177.6270  145.2190 C   0  0  0  0  0  3  0  0  0  0  0  0
  187.6120  178.5570  141.0980 C   0  0  2  0  0  3  0  0  0  0  0  0
  186.9400  178.0840  143.4710 C   0  0  0  0  0  0  0  0  0  0  0  0
  184.6770  178.6130  144.1610 C   0  0  0  0  0  3  0  0  0  0  0  0
  185.1750  178.6080  141.6930 C   0  0  1  0  0  3  0  0  0  0  0  0
  186.2150  178.1190  140.6810 C   0  0  0  0  0  2  0  0  0  0  0  0
  185.0440  178.4970  145.4630 N   0  0  0  0  0  0  0  0  0  0  0  0
  188.6230  178.2140  140.0090 C   0  0  1  0  0  3  0  0  0  0  0  0
  189.8050  177.7430  140.5850 O   0  0  0  0  0  1  0  0  0  0  0  0
  188.0810  177.1890  139.1300 N   0  0  0  0  0  2  0  0  0  0  0  0
  189.8410  177.8050  137.2520 O   0  0  0  0  0  0  0  0  0  0  0  0
  188.3610  177.6880  137.4950 S   0  0  0  0  0  0  0  0  0  0  0  0
  187.7020  179.0200  137.2670 O   0  0  0  0  0  0  0  0  0  0  0  0
  187.6860  176.5130  136.4070 N   0  0  0  0  0  0  0  0  0  0  0  0
  186.2810  176.4840  136.1060 C   0  0  0  0  0  0  0  0  0  0  0  0
  185.7920  175.5130  135.4680 O   0  0  0  0  0  0  0  0  0  0  0  0
  185.3780  177.6060  136.5140 C   0  0  0  0  0  2  0  0  0  0  0  0
  184.0970  177.0750  137.0640 C   0  0  0  0  0  0  0  0  0  0  0  0
  182.9170  175.6480  138.6280 C   0  0  0  0  0  3  0  0  0  0  0  0
  181.6760  176.9540  137.0090 C   0  0  0  0  0  3  0  0  0  0  0  0
  181.6970  176.0450  138.0710 C   0  0  0  0  0  3  0  0  0  0  0  0
  182.8750  177.4670  136.5050 C   0  0  0  0  0  3  0  0  0  0  0  0
  184.1160  176.1610  138.1240 C   0  0  0  0  0  3  0  0  0  0  0  0
  188.5810  175.5450  135.7830 C   0  0  0  0  0  2  0  0  0  0  0  0
  190.2140  174.4580  137.1470 O   0  0  0  0  0  1  0  0  0  0  0  0
  188.8810  174.4040  136.7420 C   0  0  0  0  0  2  0  0  0  0  0  0
  183.8320  177.9450  141.4010 C   0  0  0  0  0  2  0  0  0  0  0  0
  180.8180  179.5470  139.7580 C   0  0  0  0  0  3  0  0  0  0  0  0
  181.4250  180.3730  138.7970 C   0  0  0  0  0  0  0  0  0  0  0  0
  183.6040  179.6150  139.5470 C   0  0  0  0  0  3  0  0  0  0  0  0
  181.6020  178.7620  140.6080 C   0  0  0  0  0  3  0  0  0  0  0  0
  182.9960  178.7970  140.5060 C   0  0  0  0  0  0  0  0  0  0  0  0
  182.8210  180.4000  138.6980 C   0  0  0  0  0  3  0  0  0  0  0  0
  180.9700  182.5380  137.6910 C   0  0  0  0  0  1  0  0  0  0  0  0
  180.6700  181.1700  137.9310 O   0  0  0  0  0  0  0  0  0  0  0  0
  1  6  1  0  0  0  0
  2 11  2  0  0  0  0
  2 12  1  0  0  0  0
  3 11  1  0  0  0  0
  4  8  2  0  0  0  0
  5  1  2  0  0  0  0
  7  9  2  0  0  0  0
  7  4  1  0  0  0  0
  8  1  1  0  0  0  0
  9  5  1  0  0  0  0
 10 16  1  6  0  0  0
 10  3  1  0  0  0  0
 11  7  1  0  0  0  0
 12 15  2  0  0  0  0
 13 35  1  6  0  0  0
 13  2  1  0  0  0  0
 14 10  1  0  0  0  0
 14 13  1  0  0  0  0
 15  4  1  0  0  0  0
 16 17  1  1  0  0  0
 18 16  1  0  0  0  0
 19 20  2  0  0  0  0
 20 18  1  0  0  0  0
 21 20  2  0  0  0  0
 22 20  1  0  0  0  0
 23 22  1  0  0  0  0
 23 25  1  0  0  0  0
 24 23  2  0  0  0  0
 25 26  1  0  0  0  0
 26 31  1  0  0  0  0
 28 29  2  0  0  0  0
 29 27  1  0  0  0  0
 30 28  1  0  0  0  0
 30 26  2  0  0  0  0
 31 27  2  0  0  0  0
 32 22  1  0  0  0  0
 32 34  1  0  0  0  0
 34 33  1  0  0  0  0
 36 39  1  0  0  0  0
 37 36  2  0  0  0  0
 38 40  1  0  0  0  0
 40 39  2  0  0  0  0
 40 35  1  0  0  0  0
 41 37  1  0  0  0  0
 41 38  2  0  0  0  0
 42 43  1  0  0  0  0
 43 37  1  0  0  0  0
M  END
>  <MODEL>
2

>  <REMARK>
 VINA RESULT:      -9.4      2.045      4.774
  Name = 
  11 active torsions:
  status: ('A' for Active; 'I' for Inactive)
    1  A    between atoms: C_1  and  C_34
    2  A    between atoms: C_1  and  C_35
    3  A    between atoms: C_2  and  N_6
    4  A    between atoms: C_2  and  C_27
    5  A    between atoms: N_4  and  S_12
    6  A    between atoms: N_4  and  C_15
    7  A    between atoms: N_6  and  S_12
    8  A    between atoms: C_11  and  C_14
    9  A    between atoms: C_14  and  C_22
   10  A    between atoms: C_15  and  C_42
   11  A    between atoms: C_19  and  O_37
                            x       y       z     vdW  Elec       q    Type
                         _______ _______ _______ _____ _____    ______ ____

>  <TORSDO>
F 11

$$$$
=
 OpenBabel10272414343D

 43 47  0  0  1  0  0  0  0  0999 V2000
  191.1410  176.5510  147.0240 C   0  0  0  0  0  0  0  0  0  0  0  0
  189.0630  177.6050  142.5490 C   0  0  0  0  0  0  0  0  0  0  0  0
  187.1260  178.0070  144.1360 C   0  0  0  0  0  2  0  0  0  0  0  0
  190.7400  176.8890  144.6600 C   0  0  0  0  0  0  0  0  0  0  0  0
  189.8190  176.9070  147.3040 C   0  0  0  0  0  3  0  0  0  0  0  0
  191.9790  176.2150  148.0340 F   0  0  0  0  0  0  0  0  0  0  0  0
  189.4000  177.2500  144.9340 C   0  0  0  0  0  0  0  0  0  0  0  0
  191.6000  176.5420  145.7040 C   0  0  0  0  0  3  0  0  0  0  0  0
  188.9520  177.2540  146.2650 C   0  0  0  0  0  3  0  0  0  0  0  0
  186.2270  177.7650  142.9270 C   0  0  2  0  0  3  0  0  0  0  0  0
  188.5490  177.5910  143.8670 C   0  0  0  0  0  0  0  0  0  0  0  0
  190.3910  177.2110  142.3370 C   0  0  0  0  0  3  0  0  0  0  0  0
  188.1760  177.8890  141.3520 C   0  0  1  0  0  3  0  0  0  0  0  0
  186.8290  178.5050  141.7410 C   0  0  0  0  0  2  0  0  0  0  0  0
  191.1920  176.8740  143.3800 N   0  0  0  0  0  0  0  0  0  0  0  0
  184.8160  178.2710  143.2080 C   0  0  1  0  0  3  0  0  0  0  0  0
  184.8050  179.0340  144.3780 O   0  0  0  0  0  1  0  0  0  0  0  0
  184.3510  179.0920  142.1000 N   0  0  0  0  0  2  0  0  0  0  0  0
  181.8600  178.4380  142.7080 O   0  0  0  0  0  0  0  0  0  0  0  0
  182.8340  178.4500  141.5620 S   0  0  0  0  0  0  0  0  0  0  0  0
  183.0440  177.0490  141.0580 O   0  0  0  0  0  0  0  0  0  0  0  0
  182.2090  179.4410  140.2790 N   0  0  0  0  0  0  0  0  0  0  0  0
  183.0460  179.8990  139.2040 C   0  0  0  0  0  0  0  0  0  0  0  0
  182.6160  180.7640  138.3950 O   0  0  0  0  0  0  0  0  0  0  0  0
  184.4230  179.3470  139.0050 C   0  0  0  0  0  2  0  0  0  0  0  0
  184.3980  178.2120  138.0380 C   0  0  0  0  0  0  0  0  0  0  0  0
  185.5740  176.5360  136.7400 C   0  0  0  0  0  3  0  0  0  0  0  0
  183.1670  176.7350  136.5620 C   0  0  0  0  0  3  0  0  0  0  0  0
  184.3610  176.1100  136.1910 C   0  0  0  0  0  3  0  0  0  0  0  0
  183.1860  177.7860  137.4830 C   0  0  0  0  0  3  0  0  0  0  0  0
  185.5930  177.5880  137.6610 C   0  0  0  0  0  3  0  0  0  0  0  0
  180.7950  179.7990  140.3000 C   0  0  0  0  0  2  0  0  0  0  0  0
  180.1070  177.8420  139.1150 O   0  0  0  0  0  1  0  0  0  0  0  0
  180.0870  179.2360  139.0790 C   0  0  0  0  0  2  0  0  0  0  0  0
  188.8760  178.7960  140.3440 C   0  0  0  0  0  2  0  0  0  0  0  0
  189.1830  178.1930  136.6170 C   0  0  0  0  0  3  0  0  0  0  0  0
  189.3550  176.7990  136.5690 C   0  0  0  0  0  0  0  0  0  0  0  0
  189.2210  176.7160  138.9900 C   0  0  0  0  0  3  0  0  0  0  0  0
  189.0340  178.8420  137.8450 C   0  0  0  0  0  3  0  0  0  0  0  0
  189.0550  178.1060  139.0340 C   0  0  0  0  0  0  0  0  0  0  0  0
  189.3720  176.0680  137.7620 C   0  0  0  0  0  3  0  0  0  0  0  0
  188.4170  175.5200  134.6720 C   0  0  0  0  0  1  0  0  0  0  0  0
  189.5070  176.1200  135.3570 O   0  0  0  0  0  0  0  0  0  0  0  0
  1  5  1  0  0  0  0
  1  6  1  0  0  0  0
  2 11  1  0  0  0  0
  4  7  1  0  0  0  0
  4  8  1  0  0  0  0
  7  9  1  0  0  0  0
  8  1  2  0  0  0  0
  9  5  2  0  0  0  0
 10 16  1  1  0  0  0
 10  3  1  0  0  0  0
 11  3  1  0  0  0  0
 11  7  2  0  0  0  0
 12  2  2  0  0  0  0
 12 15  1  0  0  0  0
 13 35  1  6  0  0  0
 13 14  1  0  0  0  0
 13  2  1  0  0  0  0
 14 10  1  0  0  0  0
 15  4  2  0  0  0  0
 16 17  1  1  0  0  0
 18 16  1  0  0  0  0
 20 18  1  0  0  0  0
 20 19  2  0  0  0  0
 21 20  2  0  0  0  0
 22 32  1  0  0  0  0
 22 20  1  0  0  0  0
 23 22  1  0  0  0  0
 24 23  2  0  0  0  0
 25 23  1  0  0  0  0
 26 25  1  0  0  0  0
 27 31  2  0  0  0  0
 28 30  1  0  0  0  0
 29 28  2  0  0  0  0
 29 27  1  0  0  0  0
 30 26  2  0  0  0  0
 31 26  1  0  0  0  0
 34 33  1  0  0  0  0
 34 32  1  0  0  0  0
 36 39  1  0  0  0  0
 37 36  2  0  0  0  0
 37 41  1  0  0  0  0
 38 40  1  0  0  0  0
 39 40  2  0  0  0  0
 40 35  1  0  0  0  0
 41 38  2  0  0  0  0
 42 43  1  0  0  0  0
 43 37  1  0  0  0  0
M  END
>  <MODEL>
3

>  <REMARK>
 VINA RESULT:      -9.1      2.926      7.446
  Name = 
  11 active torsions:
  status: ('A' for Active; 'I' for Inactive)
    1  A    between atoms: C_1  and  C_34
    2  A    between atoms: C_1  and  C_35
    3  A    between atoms: C_2  and  N_6
    4  A    between atoms: C_2  and  C_27
    5  A    between atoms: N_4  and  S_12
    6  A    between atoms: N_4  and  C_15
    7  A    between atoms: N_6  and  S_12
    8  A    between atoms: C_11  and  C_14
    9  A    between atoms: C_14  and  C_22
   10  A    between atoms: C_15  and  C_42
   11  A    between atoms: C_19  and  O_37
                            x       y       z     vdW  Elec       q    Type
                         _______ _______ _______ _____ _____    ______ ____

>  <TORSDO>
F 11

$$$$
=
 OpenBabel10272414343D

 43 47  0  0  1  0  0  0  0  0999 V2000
  182.2320  178.8210  143.1870 C   0  0  0  0  0  0  0  0  0  0  0  0
  187.2360  178.1880  143.3250 C   0  0  0  0  0  0  0  0  0  0  0  0
  186.8090  178.4630  140.8400 C   0  0  0  0  0  2  0  0  0  0  0  0
  184.5190  178.4580  143.8960 C   0  0  0  0  0  0  0  0  0  0  0  0
  182.6510  178.8880  141.8560 C   0  0  0  0  0  3  0  0  0  0  0  0
  180.9200  178.9650  143.4910 F   0  0  0  0  0  0  0  0  0  0  0  0
  184.9510  178.5250  142.5520 C   0  0  0  0  0  0  0  0  0  0  0  0
  183.1650  178.6060  144.2050 C   0  0  0  0  0  3  0  0  0  0  0  0
  184.0030  178.7400  141.5380 C   0  0  0  0  0  3  0  0  0  0  0  0
  188.1230  177.7140  140.6420 C   0  0  2  0  0  3  0  0  0  0  0  0
  186.3190  178.3670  142.2620 C   0  0  0  0  0  0  0  0  0  0  0  0
  186.7440  178.1040  144.6340 C   0  0  0  0  0  3  0  0  0  0  0  0
  188.7100  177.9380  143.0710 C   0  0  1  0  0  3  0  0  0  0  0  0
  189.1320  178.2700  141.6370 C   0  0  0  0  0  2  0  0  0  0  0  0
  185.4180  178.2450  144.8900 N   0  0  0  0  0  0  0  0  0  0  0  0
  188.6270  177.9000  139.2140 C   0  0  1  0  0  3  0  0  0  0  0  0
  190.0000  177.6520  139.1550 O   0  0  0  0  0  1  0  0  0  0  0  0
  187.9380  176.9830  138.3190 N   0  0  0  0  0  2  0  0  0  0  0  0
  188.9370  177.6790  135.9690 O   0  0  0  0  0  0  0  0  0  0  0  0
  187.6950  177.7960  136.8080 S   0  0  0  0  0  0  0  0  0  0  0  0
  187.3950  179.2460  137.0720 O   0  0  0  0  0  0  0  0  0  0  0  0
  186.3580  177.0700  135.9690 N   0  0  0  0  0  0  0  0  0  0  0  0
  185.0380  177.0390  136.5380 C   0  0  0  0  0  0  0  0  0  0  0  0
  184.1340  176.3460  135.9980 O   0  0  0  0  0  0  0  0  0  0  0  0
  184.7010  177.8410  137.7560 C   0  0  0  0  0  2  0  0  0  0  0  0
  183.3650  177.4450  138.2920 C   0  0  0  0  0  0  0  0  0  0  0  0
  181.0220  177.9420  138.6620 C   0  0  0  0  0  3  0  0  0  0  0  0
  181.9630  175.8690  139.4860 C   0  0  0  0  0  3  0  0  0  0  0  0
  180.8690  176.7260  139.3320 C   0  0  0  0  0  3  0  0  0  0  0  0
  183.2110  176.2290  138.9670 C   0  0  0  0  0  3  0  0  0  0  0  0
  182.2700  178.3040  138.1430 C   0  0  0  0  0  3  0  0  0  0  0  0
  186.5930  176.4920  134.6510 C   0  0  0  0  0  2  0  0  0  0  0  0
  186.1150  174.1510  134.6280 O   0  0  0  0  0  1  0  0  0  0  0  0
  187.1430  175.0810  134.7810 C   0  0  0  0  0  2  0  0  0  0  0  0
  189.5830  178.7170  144.0490 C   0  0  0  0  0  2  0  0  0  0  0  0
  190.4150  176.9520  147.2960 C   0  0  0  0  0  3  0  0  0  0  0  0
  191.4720  176.1160  146.9010 C   0  0  0  0  0  0  0  0  0  0  0  0
  191.2850  176.9770  144.6400 C   0  0  0  0  0  3  0  0  0  0  0  0
  189.7970  177.7940  146.3670 C   0  0  0  0  0  3  0  0  0  0  0  0
  190.2290  177.8050  145.0370 C   0  0  0  0  0  0  0  0  0  0  0  0
  191.9020  176.1350  145.5690 C   0  0  0  0  0  3  0  0  0  0  0  0
  193.0580  175.7250  148.7580 C   0  0  0  0  0  1  0  0  0  0  0  0
  192.1110  175.2620  147.8050 O   0  0  0  0  0  0  0  0  0  0  0  0
  1  6  1  0  0  0  0
  1  8  1  0  0  0  0
  2 12  1  0  0  0  0
  3 11  1  0  0  0  0
  4  8  2  0  0  0  0
  4 15  1  0  0  0  0
  5  1  2  0  0  0  0
  7  4  1  0  0  0  0
  9  5  1  0  0  0  0
  9  7  2  0  0  0  0
 10 16  1  6  0  0  0
 10  3  1  0  0  0  0
 10 14  1  0  0  0  0
 11  7  1  0  0  0  0
 11  2  2  0  0  0  0
 12 15  2  0  0  0  0
 13  2  1  0  0  0  0
 13 35  1  1  0  0  0
 14 13  1  0  0  0  0
 16 17  1  1  0  0  0
 18 16  1  0  0  0  0
 19 20  2  0  0  0  0
 20 21  2  0  0  0  0
 20 18  1  0  0  0  0
 22 23  1  0  0  0  0
 22 20  1  0  0  0  0
 23 25  1  0  0  0  0
 24 23  2  0  0  0  0
 25 26  1  0  0  0  0
 26 30  1  0  0  0  0
 27 29  2  0  0  0  0
 29 28  1  0  0  0  0
 30 28  2  0  0  0  0
 31 26  2  0  0  0  0
 31 27  1  0  0  0  0
 32 34  1  0  0  0  0
 32 22  1  0  0  0  0
 33 34  1  0  0  0  0
 35 40  1  0  0  0  0
 37 36  1  0  0  0  0
 37 43  1  0  0  0  0
 38 40  2  0  0  0  0
 38 41  1  0  0  0  0
 39 36  2  0  0  0  0
 40 39  1  0  0  0  0
 41 37  2  0  0  0  0
 43 42  1  0  0  0  0
M  END
>  <MODEL>
4

>  <REMARK>
 VINA RESULT:      -9.0      2.888      8.025
  Name = 
  11 active torsions:
  status: ('A' for Active; 'I' for Inactive)
    1  A    between atoms: C_1  and  C_34
    2  A    between atoms: C_1  and  C_35
    3  A    between atoms: C_2  and  N_6
    4  A    between atoms: C_2  and  C_27
    5  A    between atoms: N_4  and  S_12
    6  A    between atoms: N_4  and  C_15
    7  A    between atoms: N_6  and  S_12
    8  A    between atoms: C_11  and  C_14
    9  A    between atoms: C_14  and  C_22
   10  A    between atoms: C_15  and  C_42
   11  A    between atoms: C_19  and  O_37
                            x       y       z     vdW  Elec       q    Type
                         _______ _______ _______ _____ _____    ______ ____

>  <TORSDO>
F 11

$$$$
=
 OpenBabel10272414343D

 43 47  0  0  1  0  0  0  0  0999 V2000
  187.7390  177.6610  147.6670 C   0  0  0  0  0  0  0  0  0  0  0  0
  187.9780  177.8840  142.6320 C   0  0  0  0  0  0  0  0  0  0  0  0
  185.5810  178.5840  143.0760 C   0  0  0  0  0  2  0  0  0  0  0  0
  188.4660  177.5600  145.3590 C   0  0  0  0  0  0  0  0  0  0  0  0
  186.4690  178.0700  147.2530 C   0  0  0  0  0  3  0  0  0  0  0  0
  188.0050  177.5120  148.9870 F   0  0  0  0  0  0  0  0  0  0  0  0
  187.1830  177.9730  144.9320 C   0  0  0  0  0  0  0  0  0  0  0  0
  188.7360  177.4060  146.7210 C   0  0  0  0  0  3  0  0  0  0  0  0
  186.1900  178.2250  145.8930 C   0  0  0  0  0  3  0  0  0  0  0  0
  185.2980  178.1290  141.6470 C   0  0  2  0  0  3  0  0  0  0  0  0
  186.9310  178.1160  143.5550 C   0  0  0  0  0  0  0  0  0  0  0  0
  189.2200  177.4500  143.1140 C   0  0  0  0  0  3  0  0  0  0  0  0
  187.7470  177.9480  141.1340 C   0  0  1  0  0  3  0  0  0  0  0  0
  186.4290  178.6340  140.7640 C   0  0  0  0  0  2  0  0  0  0  0  0
  189.4380  177.3060  144.4460 N   0  0  0  0  0  0  0  0  0  0  0  0
  183.9610  178.6860  141.1710 C   0  0  1  0  0  3  0  0  0  0  0  0
  184.1670  179.6170  140.1490 O   0  0  0  0  0  1  0  0  0  0  0  0
  183.1210  177.6090  140.6700 N   0  0  0  0  0  2  0  0  0  0  0  0
  181.2990  179.3770  141.4160 O   0  0  0  0  0  0  0  0  0  0  0  0
  181.5190  178.2360  140.4620 S   0  0  0  0  0  0  0  0  0  0  0  0
  180.5230  177.1430  140.7370 O   0  0  0  0  0  0  0  0  0  0  0  0
  181.3270  178.7990  138.8290 N   0  0  0  0  0  0  0  0  0  0  0  0
  181.7240  177.9990  137.7040 C   0  0  0  0  0  0  0  0  0  0  0  0
  181.7490  178.5020  136.5480 O   0  0  0  0  0  0  0  0  0  0  0  0
  182.0880  176.5560  137.8690 C   0  0  0  0  0  2  0  0  0  0  0  0
  183.5260  176.3370  137.5380 C   0  0  0  0  0  0  0  0  0  0  0  0
  185.3400  174.8370  136.9620 C   0  0  0  0  0  3  0  0  0  0  0  0
  185.7720  177.2020  137.2490 C   0  0  0  0  0  3  0  0  0  0  0  0
  186.2310  175.9140  136.9600 C   0  0  0  0  0  3  0  0  0  0  0  0
  184.4210  177.4130  137.5390 C   0  0  0  0  0  3  0  0  0  0  0  0
  183.9890  175.0470  137.2540 C   0  0  0  0  0  3  0  0  0  0  0  0
  180.7360  180.1150  138.6110 C   0  0  0  0  0  2  0  0  0  0  0  0
  181.2690  182.3680  138.0210 O   0  0  0  0  0  1  0  0  0  0  0  0
  181.8230  181.1660  138.4600 C   0  0  0  0  0  2  0  0  0  0  0  0
  188.9010  178.6490  140.4240 C   0  0  0  0  0  2  0  0  0  0  0  0
  189.8280  176.1490  137.7330 C   0  0  0  0  0  3  0  0  0  0  0  0
  189.6700  176.9160  136.5680 C   0  0  0  0  0  0  0  0  0  0  0  0
  189.0010  178.8120  137.9260 C   0  0  0  0  0  3  0  0  0  0  0  0
  189.5720  176.7110  138.9870 C   0  0  0  0  0  3  0  0  0  0  0  0
  189.1560  178.0430  139.0850 C   0  0  0  0  0  0  0  0  0  0  0  0
  189.2570  178.2490  136.6730 C   0  0  0  0  0  3  0  0  0  0  0  0
  189.4250  175.1140  134.8910 C   0  0  0  0  0  1  0  0  0  0  0  0
  189.9180  176.3830  135.2990 O   0  0  0  0  0  0  0  0  0  0  0  0
  1  6  1  0  0  0  0
  2 12  2  0  0  0  0
  2 11  1  0  0  0  0
  3 11  1  0  0  0  0
  4  8  1  0  0  0  0
  5  1  1  0  0  0  0
  7  4  1  0  0  0  0
  7  9  1  0  0  0  0
  8  1  2  0  0  0  0
  9  5  2  0  0  0  0
 10 16  1  6  0  0  0
 10  3  1  0  0  0  0
 11  7  2  0  0  0  0
 12 15  1  0  0  0  0
 13 35  1  6  0  0  0
 13  2  1  0  0  0  0
 14 13  1  0  0  0  0
 14 10  1  0  0  0  0
 15  4  2  0  0  0  0
 16 17  1  6  0  0  0
 18 16  1  0  0  0  0
 20 18  1  0  0  0  0
 20 21  2  0  0  0  0
 20 19  2  0  0  0  0
 22 20  1  0  0  0  0
 23 25  1  0  0  0  0
 23 22  1  0  0  0  0
 24 23  2  0  0  0  0
 26 30  1  0  0  0  0
 26 25  1  0  0  0  0
 27 31  1  0  0  0  0
 28 30  2  0  0  0  0
 29 27  2  0  0  0  0
 29 28  1  0  0  0  0
 31 26  2  0  0  0  0
 32 22  1  0  0  0  0
 33 34  1  0  0  0  0
 34 32  1  0  0  0  0
 36 39  1  0  0  0  0
 37 41  1  0  0  0  0
 37 36  2  0  0  0  0
 38 40  1  0  0  0  0
 39 40  2  0  0  0  0
 40 35  1  0  0  0  0
 41 38  2  0  0  0  0
 42 43  1  0  0  0  0
 43 37  1  0  0  0  0
M  END
>  <MODEL>
5

>  <REMARK>
 VINA RESULT:      -8.9      2.917      7.374
  Name = 
  11 active torsions:
  status: ('A' for Active; 'I' for Inactive)
    1  A    between atoms: C_1  and  C_34
    2  A    between atoms: C_1  and  C_35
    3  A    between atoms: C_2  and  N_6
    4  A    between atoms: C_2  and  C_27
    5  A    between atoms: N_4  and  S_12
    6  A    between atoms: N_4  and  C_15
    7  A    between atoms: N_6  and  S_12
    8  A    between atoms: C_11  and  C_14
    9  A    between atoms: C_14  and  C_22
   10  A    between atoms: C_15  and  C_42
   11  A    between atoms: C_19  and  O_37
                            x       y       z     vdW  Elec       q    Type
                         _______ _______ _______ _____ _____    ______ ____

>  <TORSDO>
F 11

$$$$
=
 OpenBabel10272414343D

 43 47  0  0  1  0  0  0  0  0999 V2000
  194.6900  173.6870  136.7860 C   0  0  0  0  0  0  0  0  0  0  0  0
  189.8030  174.8680  137.2090 C   0  0  0  0  0  0  0  0  0  0  0  0
  190.8970  176.6200  138.6820 C   0  0  0  0  0  2  0  0  0  0  0  0
  192.2760  173.7330  136.5960 C   0  0  0  0  0  0  0  0  0  0  0  0
  194.6480  174.7910  137.6400 C   0  0  0  0  0  3  0  0  0  0  0  0
  195.8800  173.1280  136.4610 F   0  0  0  0  0  0  0  0  0  0  0  0
  192.2250  174.8510  137.4610 C   0  0  0  0  0  0  0  0  0  0  0  0
  193.5050  173.1580  136.2650 C   0  0  0  0  0  3  0  0  0  0  0  0
  193.4220  175.3710  137.9770 C   0  0  0  0  0  3  0  0  0  0  0  0
  189.5440  176.7200  139.3810 C   0  0  2  0  0  3  0  0  0  0  0  0
  190.9760  175.4100  137.7860 C   0  0  0  0  0  0  0  0  0  0  0  0
  189.9150  173.7430  136.3810 C   0  0  0  0  0  3  0  0  0  0  0  0
  188.4240  175.3790  137.5810 C   0  0  1  0  0  3  0  0  0  0  0  0
  188.4640  176.7250  138.3100 C   0  0  0  0  0  2  0  0  0  0  0  0
  191.1300  173.2110  136.0910 N   0  0  0  0  0  0  0  0  0  0  0  0
  189.4730  177.9950  140.2140 C   0  0  1  0  0  3  0  0  0  0  0  0
  188.6280  178.9220  139.5990 O   0  0  0  0  0  1  0  0  0  0  0  0
  188.9640  177.6950  141.5440 N   0  0  0  0  0  2  0  0  0  0  0  0
  191.5690  177.6550  142.0100 O   0  0  0  0  0  0  0  0  0  0  0  0
  190.2730  177.0560  142.4830 S   0  0  0  0  0  0  0  0  0  0  0  0
  190.3140  175.5620  142.3180 O   0  0  0  0  0  0  0  0  0  0  0  0
  190.0290  177.4500  144.1570 N   0  0  0  0  0  0  0  0  0  0  0  0
  188.7170  177.4670  144.7440 C   0  0  0  0  0  0  0  0  0  0  0  0
  188.5490  177.9350  145.9030 O   0  0  0  0  0  0  0  0  0  0  0  0
  187.5340  176.9120  144.0140 C   0  0  0  0  0  2  0  0  0  0  0  0
  186.3090  177.7080  144.3170 C   0  0  0  0  0  0  0  0  0  0  0  0
  184.7430  178.6160  145.9280 C   0  0  0  0  0  3  0  0  0  0  0  0
  184.3910  178.9830  143.5600 C   0  0  0  0  0  3  0  0  0  0  0  0
  183.9880  179.1640  144.8870 C   0  0  0  0  0  3  0  0  0  0  0  0
  185.5500  178.2540  143.2760 C   0  0  0  0  0  3  0  0  0  0  0  0
  185.9010  177.8860  145.6440 C   0  0  0  0  0  3  0  0  0  0  0  0
  191.1940  177.7560  144.9790 C   0  0  0  0  0  2  0  0  0  0  0  0
  191.9170  176.9150  147.0950 O   0  0  0  0  0  1  0  0  0  0  0  0
  191.6070  176.5380  145.7890 C   0  0  0  0  0  2  0  0  0  0  0  0
  187.5250  175.4940  136.3530 C   0  0  0  0  0  2  0  0  0  0  0  0
  184.8380  173.1090  137.5540 C   0  0  0  0  0  3  0  0  0  0  0  0
  183.6750  173.7170  137.0530 C   0  0  0  0  0  0  0  0  0  0  0  0
  185.0320  175.4900  136.1030 C   0  0  0  0  0  3  0  0  0  0  0  0
  186.0890  173.6900  137.3310 C   0  0  0  0  0  3  0  0  0  0  0  0
  186.1880  174.8830  136.6080 C   0  0  0  0  0  0  0  0  0  0  0  0
  183.7810  174.9090  136.3270 C   0  0  0  0  0  3  0  0  0  0  0  0
  182.0150  171.9190  136.6910 C   0  0  0  0  0  1  0  0  0  0  0  0
  182.4090  173.1610  137.2580 O   0  0  0  0  0  0  0  0  0  0  0  0
  1  5  1  0  0  0  0
  2 13  1  0  0  0  0
  2 11  1  0  0  0  0
  3 10  1  0  0  0  0
  4  7  1  0  0  0  0
  5  9  2  0  0  0  0
  6  1  1  0  0  0  0
  7 11  2  0  0  0  0
  7  9  1  0  0  0  0
  8  4  1  0  0  0  0
  8  1  2  0  0  0  0
 10 16  1  6  0  0  0
 11  3  1  0  0  0  0
 12  2  2  0  0  0  0
 13 35  1  6  0  0  0
 13 14  1  0  0  0  0
 14 10  1  0  0  0  0
 15 12  1  0  0  0  0
 15  4  2  0  0  0  0
 16 17  1  6  0  0  0
 16 18  1  0  0  0  0
 18 20  1  0  0  0  0
 19 20  2  0  0  0  0
 20 22  1  0  0  0  0
 21 20  2  0  0  0  0
 22 23  1  0  0  0  0
 22 32  1  0  0  0  0
 23 24  2  0  0  0  0
 25 26  1  0  0  0  0
 25 23  1  0  0  0  0
 26 31  1  0  0  0  0
 28 29  2  0  0  0  0
 29 27  1  0  0  0  0
 30 28  1  0  0  0  0
 30 26  2  0  0  0  0
 31 27  2  0  0  0  0
 32 34  1  0  0  0  0
 34 33  1  0  0  0  0
 35 40  1  0  0  0  0
 37 43  1  0  0  0  0
 37 36  2  0  0  0  0
 38 41  2  0  0  0  0
 38 40  1  0  0  0  0
 39 36  1  0  0  0  0
 40 39  2  0  0  0  0
 41 37  1  0  0  0  0
 42 43  1  0  0  0  0
M  END
>  <MODEL>
6

>  <REMARK>
 VINA RESULT:      -8.7      4.052      8.024
  Name = 
  11 active torsions:
  status: ('A' for Active; 'I' for Inactive)
    1  A    between atoms: C_1  and  C_34
    2  A    between atoms: C_1  and  C_35
    3  A    between atoms: C_2  and  N_6
    4  A    between atoms: C_2  and  C_27
    5  A    between atoms: N_4  and  S_12
    6  A    between atoms: N_4  and  C_15
    7  A    between atoms: N_6  and  S_12
    8  A    between atoms: C_11  and  C_14
    9  A    between atoms: C_14  and  C_22
   10  A    between atoms: C_15  and  C_42
   11  A    between atoms: C_19  and  O_37
                            x       y       z     vdW  Elec       q    Type
                         _______ _______ _______ _____ _____    ______ ____

>  <TORSDO>
F 11

$$$$
=
 OpenBabel10272414343D

 43 47  0  0  1  0  0  0  0  0999 V2000
  193.9570  175.2050  135.6970 C   0  0  0  0  0  0  0  0  0  0  0  0
  189.2470  176.6420  136.8010 C   0  0  0  0  0  0  0  0  0  0  0  0
  190.4980  177.2690  138.9170 C   0  0  0  0  0  2  0  0  0  0  0  0
  191.5770  175.6520  135.6290 C   0  0  0  0  0  0  0  0  0  0  0  0
  194.0230  175.7330  136.9890 C   0  0  0  0  0  3  0  0  0  0  0  0
  195.0770  174.7340  135.1000 F   0  0  0  0  0  0  0  0  0  0  0  0
  191.6360  176.1870  136.9370 C   0  0  0  0  0  0  0  0  0  0  0  0
  192.7350  175.1650  135.0180 C   0  0  0  0  0  3  0  0  0  0  0  0
  192.8690  176.2210  137.6070 C   0  0  0  0  0  3  0  0  0  0  0  0
  189.1430  177.1820  139.6130 C   0  0  2  0  0  3  0  0  0  0  0  0
  190.4560  176.6670  137.5350 C   0  0  0  0  0  0  0  0  0  0  0  0
  189.2470  176.0740  135.5190 C   0  0  0  0  0  3  0  0  0  0  0  0
  187.9310  177.0740  137.4190 C   0  0  1  0  0  3  0  0  0  0  0  0
  188.1140  177.8600  138.7200 C   0  0  0  0  0  2  0  0  0  0  0  0
  190.3940  175.6050  134.9660 N   0  0  0  0  0  0  0  0  0  0  0  0
  189.2030  177.8700  140.9730 C   0  0  1  0  0  3  0  0  0  0  0  0
  188.3260  178.9570  140.9980 O   0  0  0  0  0  1  0  0  0  0  0  0
  188.8330  176.9340  142.0230 N   0  0  0  0  0  2  0  0  0  0  0  0
  191.4470  177.2320  142.3000 O   0  0  0  0  0  0  0  0  0  0  0  0
  190.2570  176.5730  142.9410 S   0  0  0  0  0  0  0  0  0  0  0  0
  190.4580  175.0830  142.9730 O   0  0  0  0  0  0  0  0  0  0  0  0
  190.0670  177.1680  144.5620 N   0  0  0  0  0  0  0  0  0  0  0  0
  188.7700  177.3080  145.1660 C   0  0  0  0  0  0  0  0  0  0  0  0
  188.6470  177.9140  146.2650 O   0  0  0  0  0  0  0  0  0  0  0  0
  187.5500  176.7210  144.5270 C   0  0  0  0  0  2  0  0  0  0  0  0
  186.4010  177.6680  144.6200 C   0  0  0  0  0  0  0  0  0  0  0  0
  184.7110  178.7910  145.9450 C   0  0  0  0  0  3  0  0  0  0  0  0
  184.8160  179.1590  143.5540 C   0  0  0  0  0  3  0  0  0  0  0  0
  184.2190  179.4120  144.7930 C   0  0  0  0  0  3  0  0  0  0  0  0
  185.9050  178.2870  143.4680 C   0  0  0  0  0  3  0  0  0  0  0  0
  185.8000  177.9180  145.8590 C   0  0  0  0  0  3  0  0  0  0  0  0
  191.2620  177.5190  145.3210 C   0  0  0  0  0  2  0  0  0  0  0  0
  191.9100  176.9130  147.5390 O   0  0  0  0  0  1  0  0  0  0  0  0
  191.6340  176.3950  146.2740 C   0  0  0  0  0  2  0  0  0  0  0  0
  187.1020  177.8990  136.4400 C   0  0  0  0  0  2  0  0  0  0  0  0
  183.4690  176.9300  136.9050 C   0  0  0  0  0  3  0  0  0  0  0  0
  183.2600  176.0820  135.8040 C   0  0  0  0  0  0  0  0  0  0  0  0
  185.5610  176.4320  135.1180 C   0  0  0  0  0  3  0  0  0  0  0  0
  184.7180  177.5250  137.1080 C   0  0  0  0  0  3  0  0  0  0  0  0
  185.7640  177.2800  136.2130 C   0  0  0  0  0  0  0  0  0  0  0  0
  184.3130  175.8380  134.9150 C   0  0  0  0  0  3  0  0  0  0  0  0
  180.8180  176.2110  135.4330 C   0  0  0  0  0  1  0  0  0  0  0  0
  182.0240  175.4720  135.5730 O   0  0  0  0  0  0  0  0  0  0  0  0
  1  5  1  0  0  0  0
  2 13  1  0  0  0  0
  2 11  1  0  0  0  0
  3 10  1  0  0  0  0
  4  7  1  0  0  0  0
  5  9  2  0  0  0  0
  6  1  1  0  0  0  0
  7 11  2  0  0  0  0
  7  9  1  0  0  0  0
  8  4  1  0  0  0  0
  8  1  2  0  0  0  0
 10 16  1  1  0  0  0
 11  3  1  0  0  0  0
 12  2  2  0  0  0  0
 13 35  1  6  0  0  0
 13 14  1  0  0  0  0
 14 10  1  0  0  0  0
 15 12  1  0  0  0  0
 15  4  2  0  0  0  0
 16 17  1  6  0  0  0
 16 18  1  0  0  0  0
 18 20  1  0  0  0  0
 19 20  2  0  0  0  0
 20 21  2  0  0  0  0
 20 22  1  0  0  0  0
 22 23  1  0  0  0  0
 22 32  1  0  0  0  0
 23 24  2  0  0  0  0
 25 26  1  0  0  0  0
 25 23  1  0  0  0  0
 26 31  1  0  0  0  0
 28 29  2  0  0  0  0
 29 27  1  0  0  0  0
 30 28  1  0  0  0  0
 30 26  2  0  0  0  0
 31 27  2  0  0  0  0
 32 34  1  0  0  0  0
 34 33  1  0  0  0  0
 36 39  1  0  0  0  0
 37 36  2  0  0  0  0
 38 40  1  0  0  0  0
 40 35  1  0  0  0  0
 40 39  2  0  0  0  0
 41 38  2  0  0  0  0
 41 37  1  0  0  0  0
 42 43  1  0  0  0  0
 43 37  1  0  0  0  0
M  END
>  <MODEL>
7

>  <REMARK>
 VINA RESULT:      -8.6      3.844      7.786
  Name = 
  11 active torsions:
  status: ('A' for Active; 'I' for Inactive)
    1  A    between atoms: C_1  and  C_34
    2  A    between atoms: C_1  and  C_35
    3  A    between atoms: C_2  and  N_6
    4  A    between atoms: C_2  and  C_27
    5  A    between atoms: N_4  and  S_12
    6  A    between atoms: N_4  and  C_15
    7  A    between atoms: N_6  and  S_12
    8  A    between atoms: C_11  and  C_14
    9  A    between atoms: C_14  and  C_22
   10  A    between atoms: C_15  and  C_42
   11  A    between atoms: C_19  and  O_37
                            x       y       z     vdW  Elec       q    Type
                         _______ _______ _______ _____ _____    ______ ____

>  <TORSDO>
F 11

$$$$
=
 OpenBabel10272414343D

 43 47  0  0  1  0  0  0  0  0999 V2000
  181.6580  179.0630  142.0130 C   0  0  0  0  0  0  0  0  0  0  0  0
  186.3490  178.1080  143.6050 C   0  0  0  0  0  0  0  0  0  0  0  0
  186.6940  178.4200  141.1110 C   0  0  0  0  0  2  0  0  0  0  0  0
  183.6070  178.5500  143.3560 C   0  0  0  0  0  0  0  0  0  0  0  0
  182.4550  179.1080  140.8660 C   0  0  0  0  0  3  0  0  0  0  0  0
  180.3260  179.2900  141.9200 F   0  0  0  0  0  0  0  0  0  0  0  0
  184.4210  178.5940  142.2000 C   0  0  0  0  0  0  0  0  0  0  0  0
  182.2330  178.7840  143.2550 C   0  0  0  0  0  3  0  0  0  0  0  0
  183.8290  178.8750  140.9580 C   0  0  0  0  0  3  0  0  0  0  0  0
  187.9600  177.5890  141.2930 C   0  0  2  0  0  3  0  0  0  0  0  0
  185.8000  178.3500  142.3240 C   0  0  0  0  0  0  0  0  0  0  0  0
  185.4880  178.0500  144.7090 C   0  0  0  0  0  3  0  0  0  0  0  0
  187.8150  177.7640  143.7910 C   0  0  1  0  0  3  0  0  0  0  0  0
  188.6610  178.0740  142.5530 C   0  0  0  0  0  2  0  0  0  0  0  0
  184.1570  178.2760  144.5660 N   0  0  0  0  0  0  0  0  0  0  0  0
  188.8740  177.7480  140.0820 C   0  0  1  0  0  3  0  0  0  0  0  0
  190.1550  177.2800  140.3840 O   0  0  0  0  0  1  0  0  0  0  0  0
  188.3450  176.9940  138.9550 N   0  0  0  0  0  2  0  0  0  0  0  0
  189.1830  179.2000  137.7580 O   0  0  0  0  0  0  0  0  0  0  0  0
  188.1900  178.0810  137.6140 S   0  0  0  0  0  0  0  0  0  0  0  0
  186.7940  178.6390  137.5910 O   0  0  0  0  0  0  0  0  0  0  0  0
  188.4960  177.2210  136.1360 N   0  0  0  0  0  0  0  0  0  0  0  0
  189.3690  176.0790  136.0940 C   0  0  0  0  0  0  0  0  0  0  0  0
  189.7190  175.5920  134.9860 O   0  0  0  0  0  0  0  0  0  0  0  0
  189.8550  175.4300  137.3520 C   0  0  0  0  0  2  0  0  0  0  0  0
  191.3460  175.3750  137.3730 C   0  0  0  0  0  0  0  0  0  0  0  0
  193.4830  176.5010  137.5670 C   0  0  0  0  0  3  0  0  0  0  0  0
  193.4050  174.1130  137.1710 C   0  0  0  0  0  3  0  0  0  0  0  0
  194.1430  175.2840  137.3690 C   0  0  0  0  0  3  0  0  0  0  0  0
  192.0080  174.1590  137.1710 C   0  0  0  0  0  3  0  0  0  0  0  0
  192.0850  176.5470  137.5660 C   0  0  0  0  0  3  0  0  0  0  0  0
  187.8360  177.6730  134.9160 C   0  0  0  0  0  2  0  0  0  0  0  0
  185.5160  177.6680  134.3460 O   0  0  0  0  0  1  0  0  0  0  0  0
  186.5960  176.8380  134.6430 C   0  0  0  0  0  2  0  0  0  0  0  0
  188.4050  178.4820  145.0010 C   0  0  0  0  0  2  0  0  0  0  0  0
  191.7010  176.6610  145.4160 C   0  0  0  0  0  3  0  0  0  0  0  0
  191.5920  176.1740  146.7290 C   0  0  0  0  0  0  0  0  0  0  0  0
  189.4030  177.2050  146.9120 C   0  0  0  0  0  3  0  0  0  0  0  0
  190.6660  177.4160  144.8570 C   0  0  0  0  0  3  0  0  0  0  0  0
  189.5170  177.6920  145.6050 C   0  0  0  0  0  0  0  0  0  0  0  0
  190.4370  176.4510  147.4710 C   0  0  0  0  0  3  0  0  0  0  0  0
  193.1560  175.7260  148.5920 C   0  0  0  0  0  1  0  0  0  0  0  0
  192.6080  175.4160  147.3180 O   0  0  0  0  0  0  0  0  0  0  0  0
  1  8  1  0  0  0  0
  2 13  1  0  0  0  0
  2 12  1  0  0  0  0
  3 10  1  0  0  0  0
  3 11  1  0  0  0  0
  4 15  1  0  0  0  0
  5  9  1  0  0  0  0
  5  1  2  0  0  0  0
  6  1  1  0  0  0  0
  7 11  1  0  0  0  0
  7  4  1  0  0  0  0
  8  4  2  0  0  0  0
  9  7  2  0  0  0  0
 10 16  1  6  0  0  0
 10 14  1  0  0  0  0
 11  2  2  0  0  0  0
 13 35  1  1  0  0  0
 14 13  1  0  0  0  0
 15 12  2  0  0  0  0
 16 17  1  1  0  0  0
 18 16  1  0  0  0  0
 20 19  2  0  0  0  0
 20 18  1  0  0  0  0
 21 20  2  0  0  0  0
 22 20  1  0  0  0  0
 23 22  1  0  0  0  0
 23 25  1  0  0  0  0
 24 23  2  0  0  0  0
 25 26  1  0  0  0  0
 26 31  1  0  0  0  0
 28 29  2  0  0  0  0
 29 27  1  0  0  0  0
 30 28  1  0  0  0  0
 30 26  2  0  0  0  0
 31 27  2  0  0  0  0
 32 22  1  0  0  0  0
 33 34  1  0  0  0  0
 34 32  1  0  0  0  0
 35 40  1  0  0  0  0
 36 37  1  0  0  0  0
 37 43  1  0  0  0  0
 37 41  2  0  0  0  0
 38 41  1  0  0  0  0
 39 36  2  0  0  0  0
 39 40  1  0  0  0  0
 40 38  2  0  0  0  0
 43 42  1  0  0  0  0
M  END
>  <MODEL>
8

>  <REMARK>
 VINA RESULT:      -8.2      2.848      7.439
  Name = 
  11 active torsions:
  status: ('A' for Active; 'I' for Inactive)
    1  A    between atoms: C_1  and  C_34
    2  A    between atoms: C_1  and  C_35
    3  A    between atoms: C_2  and  N_6
    4  A    between atoms: C_2  and  C_27
    5  A    between atoms: N_4  and  S_12
    6  A    between atoms: N_4  and  C_15
    7  A    between atoms: N_6  and  S_12
    8  A    between atoms: C_11  and  C_14
    9  A    between atoms: C_14  and  C_22
   10  A    between atoms: C_15  and  C_42
   11  A    between atoms: C_19  and  O_37
                            x       y       z     vdW  Elec       q    Type
                         _______ _______ _______ _____ _____    ______ ____

>  <TORSDO>
F 11

$$$$
=
 OpenBabel10272414343D

 43 47  0  0  1  0  0  0  0  0999 V2000
  186.6720  177.7220  145.7370 C   0  0  0  0  0  0  0  0  0  0  0  0
  189.0830  177.2270  141.3330 C   0  0  0  0  0  0  0  0  0  0  0  0
  187.0190  178.5380  140.6580 C   0  0  0  0  0  2  0  0  0  0  0  0
  188.2540  177.1510  143.9950 C   0  0  0  0  0  0  0  0  0  0  0  0
  185.8660  178.3700  144.7980 C   0  0  0  0  0  3  0  0  0  0  0  0
  186.2990  177.6850  147.0380 F   0  0  0  0  0  0  0  0  0  0  0  0
  187.4430  177.8040  143.0380 C   0  0  0  0  0  0  0  0  0  0  0  0
  187.8650  177.1130  145.3360 C   0  0  0  0  0  3  0  0  0  0  0  0
  186.2470  178.4100  143.4550 C   0  0  0  0  0  3  0  0  0  0  0  0
  187.2590  177.9840  139.2560 C   0  0  2  0  0  3  0  0  0  0  0  0
  187.8520  177.8240  141.6920 C   0  0  0  0  0  0  0  0  0  0  0  0
  189.8300  176.5720  142.3210 C   0  0  0  0  0  3  0  0  0  0  0  0
  189.5390  177.1510  139.8880 C   0  0  1  0  0  3  0  0  0  0  0  0
  188.7490  178.0820  138.9640 C   0  0  0  0  0  2  0  0  0  0  0  0
  189.4110  176.5530  143.6120 N   0  0  0  0  0  0  0  0  0  0  0  0
  186.4620  178.7830  138.2300 C   0  0  1  0  0  3  0  0  0  0  0  0
  187.2680  179.0860  137.1300 O   0  0  0  0  0  1  0  0  0  0  0  0
  185.3140  178.0110  137.7800 N   0  0  0  0  0  2  0  0  0  0  0  0
  182.8820  179.0170  137.4970 O   0  0  0  0  0  0  0  0  0  0  0  0
  183.9020  178.6650  138.5450 S   0  0  0  0  0  0  0  0  0  0  0  0
  184.2860  179.8970  139.3160 O   0  0  0  0  0  0  0  0  0  0  0  0
  183.2340  177.4840  139.6310 N   0  0  0  0  0  0  0  0  0  0  0  0
  182.5060  176.3420  139.1490 C   0  0  0  0  0  0  0  0  0  0  0  0
  181.8760  175.6080  139.9570 O   0  0  0  0  0  0  0  0  0  0  0  0
  182.5010  175.9840  137.6960 C   0  0  0  0  0  2  0  0  0  0  0  0
  183.0450  174.6100  137.4920 C   0  0  0  0  0  0  0  0  0  0  0  0
  184.9160  173.0700  137.5110 C   0  0  0  0  0  3  0  0  0  0  0  0
  182.7220  172.2990  136.8360 C   0  0  0  0  0  3  0  0  0  0  0  0
  184.0770  172.0430  137.0690 C   0  0  0  0  0  3  0  0  0  0  0  0
  182.2070  173.5810  137.0460 C   0  0  0  0  0  3  0  0  0  0  0  0
  184.4010  174.3530  137.7200 C   0  0  0  0  0  3  0  0  0  0  0  0
  183.4350  177.6630  141.0640 C   0  0  0  0  0  2  0  0  0  0  0  0
  182.6340  178.8530  142.9760 O   0  0  0  0  0  1  0  0  0  0  0  0
  182.3440  178.5470  141.6470 C   0  0  0  0  0  2  0  0  0  0  0  0
  191.0290  177.4540  139.7590 C   0  0  0  0  0  2  0  0  0  0  0  0
  191.5710  174.5920  137.3380 C   0  0  0  0  0  3  0  0  0  0  0  0
  192.9610  174.6450  137.1430 C   0  0  0  0  0  0  0  0  0  0  0  0
  193.0830  176.5410  138.6520 C   0  0  0  0  0  3  0  0  0  0  0  0
  190.9420  175.5090  138.1850 C   0  0  0  0  0  3  0  0  0  0  0  0
  191.6970  176.4870  138.8410 C   0  0  0  0  0  0  0  0  0  0  0  0
  193.7100  175.6240  137.8050 C   0  0  0  0  0  3  0  0  0  0  0  0
  193.2590  172.3710  136.2180 C   0  0  0  0  0  1  0  0  0  0  0  0
  193.6190  173.7430  136.3020 O   0  0  0  0  0  0  0  0  0  0  0  0
  1  6  1  0  0  0  0
  2 11  2  0  0  0  0
  2 12  1  0  0  0  0
  3 11  1  0  0  0  0
  4  8  2  0  0  0  0
  5  1  2  0  0  0  0
  7  9  2  0  0  0  0
  7  4  1  0  0  0  0
  8  1  1  0  0  0  0
  9  5  1  0  0  0  0
 10 16  1  6  0  0  0
 10  3  1  0  0  0  0
 11  7  1  0  0  0  0
 12 15  2  0  0  0  0
 13 35  1  1  0  0  0
 13  2  1  0  0  0  0
 14 10  1  0  0  0  0
 14 13  1  0  0  0  0
 15  4  1  0  0  0  0
 16 17  1  6  0  0  0
 18 16  1  0  0  0  0
 18 20  1  0  0  0  0
 19 20  2  0  0  0  0
 20 21  2  0  0  0  0
 20 22  1  0  0  0  0
 22 32  1  0  0  0  0
 23 22  1  0  0  0  0
 23 24  2  0  0  0  0
 25 23  1  0  0  0  0
 26 25  1  0  0  0  0
 26 31  1  0  0  0  0
 27 31  2  0  0  0  0
 28 30  1  0  0  0  0
 28 29  2  0  0  0  0
 29 27  1  0  0  0  0
 30 26  2  0  0  0  0
 32 34  1  0  0  0  0
 34 33  1  0  0  0  0
 36 39  1  0  0  0  0
 37 36  2  0  0  0  0
 37 41  1  0  0  0  0
 38 40  1  0  0  0  0
 39 40  2  0  0  0  0
 40 35  1  0  0  0  0
 41 38  2  0  0  0  0
 42 43  1  0  0  0  0
 43 37  1  0  0  0  0
M  END
>  <MODEL>
9

>  <REMARK>
 VINA RESULT:      -8.2      2.927      8.279
  Name = 
  11 active torsions:
  status: ('A' for Active; 'I' for Inactive)
    1  A    between atoms: C_1  and  C_34
    2  A    between atoms: C_1  and  C_35
    3  A    between atoms: C_2  and  N_6
    4  A    between atoms: C_2  and  C_27
    5  A    between atoms: N_4  and  S_12
    6  A    between atoms: N_4  and  C_15
    7  A    between atoms: N_6  and  S_12
    8  A    between atoms: C_11  and  C_14
    9  A    between atoms: C_14  and  C_22
   10  A    between atoms: C_15  and  C_42
   11  A    between atoms: C_19  and  O_37
                            x       y       z     vdW  Elec       q    Type
                         _______ _______ _______ _____ _____    ______ ____

>  <TORSDO>
F 11

$$$$
