=
 OpenBabel10272400173D

 31 35  0  0  1  0  0  0  0  0999 V2000
  191.8460  177.0660  140.5410 C   0  0  2  0  0  3  0  0  0  0  0  0
  188.1450  177.6200  139.7560 N   0  0  0  0  0  0  0  0  0  0  0  0
  187.9460  177.3010  138.3550 C   0  0  0  0  0  0  0  0  0  0  0  0
  188.8040  175.8600  136.4260 C   0  0  0  0  0  3  0  0  0  0  0  0
  189.3540  177.1910  140.4900 C   0  0  1  0  0  3  0  0  0  0  0  0
  191.8460  177.5100  142.0060 C   0  0  0  0  0  2  0  0  0  0  0  0
  188.7560  176.3970  137.7890 C   0  0  0  0  0  3  0  0  0  0  0  0
  187.1120  178.3770  141.9830 C   0  0  1  0  0  3  0  0  0  0  0  0
  193.0700  177.5100  139.8990 N   0  0  0  0  0  1  0  0  0  0  0  0
  185.9220  178.6310  138.4050 C   0  0  0  0  0  3  0  0  0  0  0  0
  188.1190  176.2340  135.3530 C   0  0  0  0  0  3  0  0  0  0  0  0
  188.1030  177.4700  142.5600 N   0  0  0  0  0  2  0  0  0  0  0  0
  187.0430  178.2180  140.4800 C   0  0  0  0  0  0  0  0  0  0  0  0
  190.6420  177.6420  139.7960 C   0  0  0  0  0  2  0  0  0  0  0  0
  187.1100  177.2860  135.2460 C   0  0  0  0  0  3  0  0  0  0  0  0
  189.3730  177.7510  141.9140 C   0  0  1  0  0  3  0  0  0  0  0  0
  190.5300  177.1350  142.6880 C   0  0  0  0  0  2  0  0  0  0  0  0
  186.0350  178.7180  139.8290 N   0  0  0  0  0  0  0  0  0  0  0  0
  186.8020  177.9540  137.6640 C   0  0  0  0  0  0  0  0  0  0  0  0
  186.5570  178.0000  136.2180 C   0  0  0  0  0  3  0  0  0  0  0  0
  185.7530  178.1190  142.6240 C   0  0  0  0  0  2  0  0  0  0  0  0
  184.3220  179.2240  144.3110 C   0  0  0  0  0  1  0  0  0  0  0  0
  185.7070  178.6690  144.0390 C   0  0  1  0  0  3  0  0  0  0  0  0
  185.9990  177.6320  144.9720 O   0  0  0  0  0  0  0  0  0  0  0  0
  189.2580  177.4320  146.7530 C   0  0  0  0  0  0  0  0  0  0  0  0
  187.6000  178.4370  148.2030 C   0  0  0  0  0  3  0  0  0  0  0  0
  190.5570  176.9940  146.5340 O   0  0  0  0  0  1  0  0  0  0  0  0
  188.3000  177.3060  145.7440 C   0  0  0  0  0  3  0  0  0  0  0  0
  186.6410  178.3110  147.1920 C   0  0  0  0  0  3  0  0  0  0  0  0
  186.9840  177.7470  145.9590 C   0  0  0  0  0  0  0  0  0  0  0  0
  188.9080  177.9970  147.9820 C   0  0  0  0  0  3  0  0  0  0  0  0
  1  9  1  6  0  0  0
  1  6  1  0  0  0  0
  2 13  1  0  0  0  0
  2  5  1  0  0  0  0
  3  2  1  0  0  0  0
  4  7  1  0  0  0  0
  5 14  1  6  0  0  0
  5 16  1  0  0  0  0
  6 17  1  0  0  0  0
  7  3  2  0  0  0  0
  8 12  1  0  0  0  0
  8 21  1  1  0  0  0
 10 18  1  0  0  0  0
 11  4  2  0  0  0  0
 13  8  1  0  0  0  0
 14  1  1  0  0  0  0
 15 11  1  0  0  0  0
 15 20  2  0  0  0  0
 16 12  1  0  0  0  0
 16 17  1  1  0  0  0
 18 13  2  0  0  0  0
 19  3  1  0  0  0  0
 19 10  2  0  0  0  0
 20 19  1  0  0  0  0
 21 23  1  0  0  0  0
 23 22  1  1  0  0  0
 23 24  1  0  0  0  0
 24 30  1  0  0  0  0
 25 31  1  0  0  0  0
 27 25  1  0  0  0  0
 28 30  1  0  0  0  0
 28 25  2  0  0  0  0
 29 26  1  0  0  0  0
 30 29  2  0  0  0  0
 31 26  2  0  0  0  0
M  END
>  <MODEL>
1

>  <REMARK>
 VINA RESULT:      -9.2      0.000      0.000
  Name = 
  4 active torsions:
  status: ('A' for Active; 'I' for Inactive)
    1  A    between atoms: O_3  and  C_9
    2  A    between atoms: O_3  and  C_22
    3  A    between atoms: C_9  and  C_23
    4  A    between atoms: C_15  and  C_23
                            x       y       z     vdW  Elec       q    Type
                         _______ _______ _______ _____ _____    ______ ____

>  <TORSDO>
F 4

$$$$
=
 OpenBabel10272400173D

 31 35  0  0  1  0  0  0  0  0999 V2000
  190.1020  177.2060  139.6510 C   0  0  2  0  0  3  0  0  0  0  0  0
  188.0970  177.8380  142.8460 N   0  0  0  0  0  0  0  0  0  0  0  0
  189.0080  177.6910  143.9660 C   0  0  0  0  0  0  0  0  0  0  0  0
  191.4510  177.9220  144.6820 C   0  0  0  0  0  3  0  0  0  0  0  0
  188.5850  178.0120  141.4620 C   0  0  1  0  0  3  0  0  0  0  0  0
  188.9680  177.3420  138.6310 C   0  0  0  0  0  2  0  0  0  0  0  0
  190.3050  177.9620  143.7690 C   0  0  0  0  0  3  0  0  0  0  0  0
  185.7180  178.3620  142.0310 C   0  0  1  0  0  3  0  0  0  0  0  0
  190.9970  176.1390  139.2410 N   0  0  0  0  0  1  0  0  0  0  0  0
  187.0880  177.3250  145.3970 C   0  0  0  0  0  3  0  0  0  0  0  0
  191.5130  177.4790  145.9310 C   0  0  0  0  0  3  0  0  0  0  0  0
  186.4190  178.9730  140.9020 N   0  0  0  0  0  2  0  0  0  0  0  0
  186.6870  177.9930  143.1330 C   0  0  0  0  0  0  0  0  0  0  0  0
  189.5480  176.8990  141.0430 C   0  0  0  0  0  2  0  0  0  0  0  0
  190.4370  176.9170  146.7460 C   0  0  0  0  0  3  0  0  0  0  0  0
  187.4290  178.0280  140.4590 C   0  0  1  0  0  3  0  0  0  0  0  0
  187.9570  178.3970  139.0790 C   0  0  0  0  0  2  0  0  0  0  0  0
  186.2320  177.7120  144.3170 N   0  0  0  0  0  0  0  0  0  0  0  0
  188.4180  177.3140  145.2790 C   0  0  0  0  0  0  0  0  0  0  0  0
  189.1410  176.8550  146.4700 C   0  0  0  0  0  3  0  0  0  0  0  0
  184.6470  179.3190  142.5410 C   0  0  0  0  0  2  0  0  0  0  0  0
  182.5450  179.1730  143.8360 C   0  0  0  0  0  1  0  0  0  0  0  0
  183.3000  178.6220  142.6420 C   0  0  1  0  0  3  0  0  0  0  0  0
  182.5480  178.8480  141.4530 O   0  0  0  0  0  0  0  0  0  0  0  0
  182.4590  175.9500  139.1230 C   0  0  0  0  0  0  0  0  0  0  0  0
  180.1990  176.5960  139.7040 C   0  0  0  0  0  3  0  0  0  0  0  0
  183.3340  175.1230  138.4320 O   0  0  0  0  0  1  0  0  0  0  0  0
  182.9600  176.9720  139.9340 C   0  0  0  0  0  3  0  0  0  0  0  0
  180.7010  177.6190  140.5150 C   0  0  0  0  0  3  0  0  0  0  0  0
  182.0810  177.8130  140.6370 C   0  0  0  0  0  0  0  0  0  0  0  0
  181.0800  175.7620  139.0080 C   0  0  0  0  0  3  0  0  0  0  0  0
  1  9  1  6  0  0  0
  1 14  1  0  0  0  0
  2 13  1  0  0  0  0
  2  3  1  0  0  0  0
  3 19  1  0  0  0  0
  4 11  2  0  0  0  0
  5 14  1  6  0  0  0
  5  2  1  0  0  0  0
  6 17  1  0  0  0  0
  6  1  1  0  0  0  0
  7  3  2  0  0  0  0
  7  4  1  0  0  0  0
  8 21  1  1  0  0  0
  8 13  1  0  0  0  0
 11 15  1  0  0  0  0
 12  8  1  0  0  0  0
 13 18  2  0  0  0  0
 16 17  1  6  0  0  0
 16 12  1  0  0  0  0
 16  5  1  0  0  0  0
 18 10  1  0  0  0  0
 19 10  2  0  0  0  0
 19 20  1  0  0  0  0
 20 15  2  0  0  0  0
 21 23  1  0  0  0  0
 23 22  1  1  0  0  0
 24 23  1  0  0  0  0
 25 28  1  0  0  0  0
 26 29  2  0  0  0  0
 27 25  1  0  0  0  0
 28 30  2  0  0  0  0
 29 30  1  0  0  0  0
 30 24  1  0  0  0  0
 31 25  2  0  0  0  0
 31 26  1  0  0  0  0
M  END
>  <MODEL>
2

>  <REMARK>
 VINA RESULT:      -9.0      3.032      6.951
  Name = 
  4 active torsions:
  status: ('A' for Active; 'I' for Inactive)
    1  A    between atoms: O_3  and  C_9
    2  A    between atoms: O_3  and  C_22
    3  A    between atoms: C_9  and  C_23
    4  A    between atoms: C_15  and  C_23
                            x       y       z     vdW  Elec       q    Type
                         _______ _______ _______ _____ _____    ______ ____

>  <TORSDO>
F 4

$$$$
=
 OpenBabel10272400173D

 31 35  0  0  1  0  0  0  0  0999 V2000
  190.1190  177.1130  139.6140 C   0  0  2  0  0  3  0  0  0  0  0  0
  188.1520  177.8040  142.8200 N   0  0  0  0  0  0  0  0  0  0  0  0
  189.0720  177.6560  143.9330 C   0  0  0  0  0  0  0  0  0  0  0  0
  191.5240  177.8630  144.6240 C   0  0  0  0  0  3  0  0  0  0  0  0
  188.6300  177.9580  141.4300 C   0  0  1  0  0  3  0  0  0  0  0  0
  188.9780  177.2550  138.6030 C   0  0  0  0  0  2  0  0  0  0  0  0
  190.3700  177.9090  143.7220 C   0  0  0  0  0  3  0  0  0  0  0  0
  185.7730  178.3510  142.0220 C   0  0  1  0  0  3  0  0  0  0  0  0
  190.9970  176.0320  139.2070 N   0  0  0  0  0  1  0  0  0  0  0  0
  187.1610  177.3300  145.3850 C   0  0  0  0  0  3  0  0  0  0  0  0
  191.5920  177.4320  145.8770 C   0  0  0  0  0  3  0  0  0  0  0  0
  186.4710  178.9410  140.8800 N   0  0  0  0  0  2  0  0  0  0  0  0
  186.7480  177.9800  143.1190 C   0  0  0  0  0  0  0  0  0  0  0  0
  189.5740  176.8280  141.0140 C   0  0  0  0  0  2  0  0  0  0  0  0
  190.5170  176.8920  146.7070 C   0  0  0  0  0  3  0  0  0  0  0  0
  187.4650  177.9790  140.4370 C   0  0  1  0  0  3  0  0  0  0  0  0
  187.9840  178.3270  139.0490 C   0  0  0  0  0  2  0  0  0  0  0  0
  186.2990  177.7170  144.3100 N   0  0  0  0  0  0  0  0  0  0  0  0
  188.4890  177.3010  145.2550 C   0  0  0  0  0  0  0  0  0  0  0  0
  189.2170  176.8440  146.4440 C   0  0  0  0  0  3  0  0  0  0  0  0
  184.7190  179.3260  142.5320 C   0  0  0  0  0  2  0  0  0  0  0  0
  182.9650  178.9380  144.2310 C   0  0  0  0  0  1  0  0  0  0  0  0
  183.4100  178.6100  142.8180 C   0  0  1  0  0  3  0  0  0  0  0  0
  182.4140  179.0320  141.8910 O   0  0  0  0  0  0  0  0  0  0  0  0
  181.9410  179.0010  138.2020 C   0  0  0  0  0  0  0  0  0  0  0  0
  182.7370  176.8360  138.9380 C   0  0  0  0  0  3  0  0  0  0  0  0
  181.5310  179.8490  137.1820 O   0  0  0  0  0  1  0  0  0  0  0  0
  181.9670  179.4590  139.5230 C   0  0  0  0  0  3  0  0  0  0  0  0
  182.7630  177.2950  140.2590 C   0  0  0  0  0  3  0  0  0  0  0  0
  182.3800  178.6070  140.5590 C   0  0  0  0  0  0  0  0  0  0  0  0
  182.3260  177.6900  137.9100 C   0  0  0  0  0  3  0  0  0  0  0  0
  1  9  1  6  0  0  0
  1 14  1  0  0  0  0
  2 13  1  0  0  0  0
  2  3  1  0  0  0  0
  3 19  1  0  0  0  0
  4 11  2  0  0  0  0
  5 14  1  6  0  0  0
  5  2  1  0  0  0  0
  6 17  1  0  0  0  0
  6  1  1  0  0  0  0
  7  3  2  0  0  0  0
  7  4  1  0  0  0  0
  8 21  1  1  0  0  0
  8 13  1  0  0  0  0
 11 15  1  0  0  0  0
 12  8  1  0  0  0  0
 13 18  2  0  0  0  0
 16 17  1  6  0  0  0
 16 12  1  0  0  0  0
 16  5  1  0  0  0  0
 18 10  1  0  0  0  0
 19 10  2  0  0  0  0
 19 20  1  0  0  0  0
 20 15  2  0  0  0  0
 21 23  1  0  0  0  0
 23 22  1  1  0  0  0
 24 23  1  0  0  0  0
 25 28  1  0  0  0  0
 26 29  2  0  0  0  0
 27 25  1  0  0  0  0
 28 30  2  0  0  0  0
 29 30  1  0  0  0  0
 30 24  1  0  0  0  0
 31 25  2  0  0  0  0
 31 26  1  0  0  0  0
M  END
>  <MODEL>
3

>  <REMARK>
 VINA RESULT:      -8.9      2.850      7.075
  Name = 
  4 active torsions:
  status: ('A' for Active; 'I' for Inactive)
    1  A    between atoms: O_3  and  C_9
    2  A    between atoms: O_3  and  C_22
    3  A    between atoms: C_9  and  C_23
    4  A    between atoms: C_15  and  C_23
                            x       y       z     vdW  Elec       q    Type
                         _______ _______ _______ _____ _____    ______ ____

>  <TORSDO>
F 4

$$$$
=
 OpenBabel10272400173D

 31 35  0  0  1  0  0  0  0  0999 V2000
  182.6370  177.2120  137.8330 C   0  0  2  0  0  3  0  0  0  0  0  0
  185.6690  178.3240  139.8820 N   0  0  0  0  0  0  0  0  0  0  0  0
  186.8140  178.3340  138.9910 C   0  0  0  0  0  0  0  0  0  0  0  0
  187.5310  178.6470  136.5580 C   0  0  0  0  0  3  0  0  0  0  0  0
  184.2830  178.2890  139.3700 C   0  0  1  0  0  3  0  0  0  0  0  0
  181.5880  177.2080  138.9490 C   0  0  0  0  0  2  0  0  0  0  0  0
  186.6030  178.5630  137.6890 C   0  0  0  0  0  3  0  0  0  0  0  0
  184.7440  178.7440  142.2410 C   0  0  1  0  0  3  0  0  0  0  0  0
  182.4040  176.0900  136.9440 N   0  0  0  0  0  1  0  0  0  0  0  0
  188.2500  178.1990  140.9380 C   0  0  0  0  0  3  0  0  0  0  0  0
  188.8330  178.3910  136.5210 C   0  0  0  0  0  3  0  0  0  0  0  0
  183.5510  179.1760  141.5160 N   0  0  0  0  0  2  0  0  0  0  0  0
  185.9060  178.5320  141.2950 C   0  0  0  0  0  0  0  0  0  0  0  0
  184.0490  177.1180  138.4130 C   0  0  0  0  0  2  0  0  0  0  0  0
  189.7020  177.9650  137.6160 C   0  0  0  0  0  3  0  0  0  0  0  0
  183.2680  178.1680  140.5090 C   0  0  1  0  0  3  0  0  0  0  0  0
  181.8590  178.3260  139.9550 C   0  0  0  0  0  2  0  0  0  0  0  0
  187.1100  178.4310  141.7720 N   0  0  0  0  0  0  0  0  0  0  0  0
  188.1580  178.1600  139.6070 C   0  0  0  0  0  0  0  0  0  0  0  0
  189.4160  177.8740  138.9080 C   0  0  0  0  0  3  0  0  0  0  0  0
  185.0900  179.7740  143.3100 C   0  0  0  0  0  2  0  0  0  0  0  0
  183.4400  178.8970  144.9290 C   0  0  0  0  0  1  0  0  0  0  0  0
  184.9100  179.1940  144.7030 C   0  0  1  0  0  3  0  0  0  0  0  0
  185.6660  177.9930  144.8290 O   0  0  0  0  0  0  0  0  0  0  0  0
  189.1060  177.3170  146.0720 C   0  0  0  0  0  0  0  0  0  0  0  0
  187.7160  178.0840  147.9010 C   0  0  0  0  0  3  0  0  0  0  0  0
  190.3340  176.8790  145.5970 O   0  0  0  0  0  1  0  0  0  0  0  0
  188.0200  177.4300  145.2000 C   0  0  0  0  0  3  0  0  0  0  0  0
  186.6290  178.1960  147.0270 C   0  0  0  0  0  3  0  0  0  0  0  0
  186.7740  177.8730  145.6740 C   0  0  0  0  0  0  0  0  0  0  0  0
  188.9530  177.6430  147.4220 C   0  0  0  0  0  3  0  0  0  0  0  0
  1  9  1  6  0  0  0
  1 14  1  0  0  0  0
  1  6  1  0  0  0  0
  2 13  1  0  0  0  0
  3 19  1  0  0  0  0
  3  2  1  0  0  0  0
  4  7  1  0  0  0  0
  5 14  1  6  0  0  0
  5  2  1  0  0  0  0
  5 16  1  0  0  0  0
  6 17  1  0  0  0  0
  7  3  2  0  0  0  0
  8 21  1  1  0  0  0
 10 18  1  0  0  0  0
 11  4  2  0  0  0  0
 11 15  1  0  0  0  0
 12  8  1  0  0  0  0
 13 18  2  0  0  0  0
 13  8  1  0  0  0  0
 15 20  2  0  0  0  0
 16 17  1  6  0  0  0
 16 12  1  0  0  0  0
 19 10  2  0  0  0  0
 20 19  1  0  0  0  0
 21 23  1  0  0  0  0
 23 24  1  0  0  0  0
 23 22  1  6  0  0  0
 24 30  1  0  0  0  0
 25 31  1  0  0  0  0
 27 25  1  0  0  0  0
 28 30  1  0  0  0  0
 28 25  2  0  0  0  0
 29 26  1  0  0  0  0
 30 29  2  0  0  0  0
 31 26  2  0  0  0  0
M  END
>  <MODEL>
4

>  <REMARK>
 VINA RESULT:      -8.8      2.139      4.600
  Name = 
  4 active torsions:
  status: ('A' for Active; 'I' for Inactive)
    1  A    between atoms: O_3  and  C_9
    2  A    between atoms: O_3  and  C_22
    3  A    between atoms: C_9  and  C_23
    4  A    between atoms: C_15  and  C_23
                            x       y       z     vdW  Elec       q    Type
                         _______ _______ _______ _____ _____    ______ ____

>  <TORSDO>
F 4

$$$$
=
 OpenBabel10272400173D

 31 35  0  0  1  0  0  0  0  0999 V2000
  186.9730  178.1430  138.9830 C   0  0  2  0  0  3  0  0  0  0  0  0
  184.3640  178.2950  141.7750 N   0  0  0  0  0  0  0  0  0  0  0  0
  183.0620  178.1150  141.1620 C   0  0  0  0  0  0  0  0  0  0  0  0
  181.8400  177.0280  139.1970 C   0  0  0  0  0  3  0  0  0  0  0  0
  185.6140  177.9470  141.0680 C   0  0  1  0  0  3  0  0  0  0  0  0
  188.2270  178.4140  139.8180 C   0  0  0  0  0  2  0  0  0  0  0  0
  182.9850  177.3950  140.0350 C   0  0  0  0  0  3  0  0  0  0  0  0
  185.7270  178.6530  143.9230 C   0  0  1  0  0  3  0  0  0  0  0  0
  187.0890  178.8150  137.7010 N   0  0  0  0  0  1  0  0  0  0  0  0
  182.0700  179.1550  143.1120 C   0  0  0  0  0  3  0  0  0  0  0  0
  180.5780  177.4290  139.2810 C   0  0  0  0  0  3  0  0  0  0  0  0
  186.7150  177.8230  143.2350 N   0  0  0  0  0  2  0  0  0  0  0  0
  184.4110  178.6580  143.1750 C   0  0  0  0  0  0  0  0  0  0  0  0
  185.7200  178.6390  139.7060 C   0  0  0  0  0  2  0  0  0  0  0  0
  179.9820  178.3450  140.2510 C   0  0  0  0  0  3  0  0  0  0  0  0
  186.8480  178.3390  141.8840 C   0  0  1  0  0  3  0  0  0  0  0  0
  188.0990  177.7950  141.2100 C   0  0  0  0  0  2  0  0  0  0  0  0
  183.3400  179.0930  143.7690 N   0  0  0  0  0  0  0  0  0  0  0  0
  181.8880  178.6870  141.8750 C   0  0  0  0  0  0  0  0  0  0  0  0
  180.5340  178.8660  141.3400 C   0  0  0  0  0  3  0  0  0  0  0  0
  185.5440  178.1480  145.3500 C   0  0  0  0  0  2  0  0  0  0  0  0
  186.3030  179.0930  147.5050 C   0  0  0  0  0  1  0  0  0  0  0  0
  186.7610  178.4710  146.2000 C   0  0  1  0  0  3  0  0  0  0  0  0
  187.4950  177.2790  146.4690 O   0  0  0  0  0  0  0  0  0  0  0  0
  191.1570  176.8150  146.9230 C   0  0  0  0  0  0  0  0  0  0  0  0
  190.6600  177.1050  144.5710 C   0  0  0  0  0  3  0  0  0  0  0  0
  192.0780  176.6110  147.9420 O   0  0  0  0  0  1  0  0  0  0  0  0
  189.7980  176.9400  147.2260 C   0  0  0  0  0  3  0  0  0  0  0  0
  189.3000  177.2290  144.8750 C   0  0  0  0  0  3  0  0  0  0  0  0
  188.8610  177.1460  146.2000 C   0  0  0  0  0  0  0  0  0  0  0  0
  191.5870  176.8980  145.5970 C   0  0  0  0  0  3  0  0  0  0  0  0
  1  9  1  6  0  0  0
  1 14  1  0  0  0  0
  1  6  1  0  0  0  0
  2 13  1  0  0  0  0
  3  2  1  0  0  0  0
  3 19  1  0  0  0  0
  4 11  2  0  0  0  0
  4  7  1  0  0  0  0
  5 14  1  6  0  0  0
  5  2  1  0  0  0  0
  5 16  1  0  0  0  0
  6 17  1  0  0  0  0
  7  3  2  0  0  0  0
  8 21  1  1  0  0  0
 10 18  1  0  0  0  0
 11 15  1  0  0  0  0
 12  8  1  0  0  0  0
 13 18  2  0  0  0  0
 13  8  1  0  0  0  0
 15 20  2  0  0  0  0
 16 17  1  6  0  0  0
 16 12  1  0  0  0  0
 19 10  2  0  0  0  0
 20 19  1  0  0  0  0
 21 23  1  0  0  0  0
 23 24  1  0  0  0  0
 23 22  1  1  0  0  0
 25 28  1  0  0  0  0
 25 27  1  0  0  0  0
 26 29  2  0  0  0  0
 26 31  1  0  0  0  0
 29 30  1  0  0  0  0
 30 24  1  0  0  0  0
 30 28  2  0  0  0  0
 31 25  2  0  0  0  0
M  END
>  <MODEL>
5

>  <REMARK>
 VINA RESULT:      -8.8      2.725      4.860
  Name = 
  4 active torsions:
  status: ('A' for Active; 'I' for Inactive)
    1  A    between atoms: O_3  and  C_9
    2  A    between atoms: O_3  and  C_22
    3  A    between atoms: C_9  and  C_23
    4  A    between atoms: C_15  and  C_23
                            x       y       z     vdW  Elec       q    Type
                         _______ _______ _______ _____ _____    ______ ____

>  <TORSDO>
F 4

$$$$
=
 OpenBabel10272400173D

 31 35  0  0  1  0  0  0  0  0999 V2000
  187.8370  177.9820  139.7810 C   0  0  2  0  0  3  0  0  0  0  0  0
  185.6220  178.1450  142.8940 N   0  0  0  0  0  0  0  0  0  0  0  0
  184.2490  178.2670  142.4430 C   0  0  0  0  0  0  0  0  0  0  0  0
  182.6430  177.6850  140.5400 C   0  0  0  0  0  3  0  0  0  0  0  0
  186.7050  177.7070  141.9880 C   0  0  1  0  0  3  0  0  0  0  0  0
  189.2040  177.9250  140.4680 C   0  0  0  0  0  2  0  0  0  0  0  0
  183.9210  177.7390  141.2570 C   0  0  0  0  0  3  0  0  0  0  0  0
  187.2560  177.9660  144.8680 C   0  0  1  0  0  3  0  0  0  0  0  0
  187.9270  178.8030  138.5880 N   0  0  0  0  0  1  0  0  0  0  0  0
  183.6790  179.1600  144.6210 C   0  0  0  0  0  3  0  0  0  0  0  0
  181.4900  178.2670  140.8410 C   0  0  0  0  0  3  0  0  0  0  0  0
  187.9990  177.0960  143.9570 N   0  0  0  0  0  2  0  0  0  0  0  0
  185.8870  178.2900  144.3090 C   0  0  0  0  0  0  0  0  0  0  0  0
  186.7800  178.5620  140.7210 C   0  0  0  0  0  2  0  0  0  0  0  0
  181.1760  179.1170  141.9880 C   0  0  0  0  0  3  0  0  0  0  0  0
  188.0710  177.7740  142.6750 C   0  0  1  0  0  3  0  0  0  0  0  0
  189.1240  177.1400  141.7770 C   0  0  0  0  0  2  0  0  0  0  0  0
  184.9830  178.8000  145.0900 N   0  0  0  0  0  0  0  0  0  0  0  0
  183.2810  178.9110  143.3720 C   0  0  0  0  0  0  0  0  0  0  0  0
  181.9290  179.3800  143.0490 C   0  0  0  0  0  3  0  0  0  0  0  0
  187.1460  177.2960  146.2330 C   0  0  0  0  0  2  0  0  0  0  0  0
  188.1650  177.1270  148.4800 C   0  0  0  0  0  1  0  0  0  0  0  0
  188.0030  178.0150  147.2610 C   0  0  1  0  0  3  0  0  0  0  0  0
  189.2830  178.3060  146.7060 O   0  0  0  0  0  0  0  0  0  0  0  0
  191.6960  175.8480  145.3020 C   0  0  0  0  0  0  0  0  0  0  0  0
  191.9940  176.0000  147.7000 C   0  0  0  0  0  3  0  0  0  0  0  0
  192.0540  175.3000  144.0780 O   0  0  0  0  0  1  0  0  0  0  0  0
  190.6730  176.7980  145.3690 C   0  0  0  0  0  3  0  0  0  0  0  0
  190.9690  176.9510  147.7660 C   0  0  0  0  0  3  0  0  0  0  0  0
  190.3050  177.3560  146.6040 C   0  0  0  0  0  0  0  0  0  0  0  0
  192.3550  175.4490  146.4670 C   0  0  0  0  0  3  0  0  0  0  0  0
  1  9  1  6  0  0  0
  1  6  1  0  0  0  0
  1 14  1  0  0  0  0
  2 13  1  0  0  0  0
  3  2  1  0  0  0  0
  3 19  1  0  0  0  0
  4 11  2  0  0  0  0
  4  7  1  0  0  0  0
  5 14  1  6  0  0  0
  5 16  1  0  0  0  0
  5  2  1  0  0  0  0
  6 17  1  0  0  0  0
  7  3  2  0  0  0  0
  8 21  1  1  0  0  0
 10 18  1  0  0  0  0
 11 15  1  0  0  0  0
 12  8  1  0  0  0  0
 13  8  1  0  0  0  0
 13 18  2  0  0  0  0
 15 20  2  0  0  0  0
 16 17  1  6  0  0  0
 16 12  1  0  0  0  0
 19 10  2  0  0  0  0
 20 19  1  0  0  0  0
 21 23  1  0  0  0  0
 23 22  1  1  0  0  0
 24 23  1  0  0  0  0
 25 28  2  0  0  0  0
 25 31  1  0  0  0  0
 26 29  1  0  0  0  0
 27 25  1  0  0  0  0
 28 30  1  0  0  0  0
 30 24  1  0  0  0  0
 30 29  2  0  0  0  0
 31 26  2  0  0  0  0
M  END
>  <MODEL>
6

>  <REMARK>
 VINA RESULT:      -8.8      2.453      5.073
  Name = 
  4 active torsions:
  status: ('A' for Active; 'I' for Inactive)
    1  A    between atoms: O_3  and  C_9
    2  A    between atoms: O_3  and  C_22
    3  A    between atoms: C_9  and  C_23
    4  A    between atoms: C_15  and  C_23
                            x       y       z     vdW  Elec       q    Type
                         _______ _______ _______ _____ _____    ______ ____

>  <TORSDO>
F 4

$$$$
=
 OpenBabel10272400173D

 31 35  0  0  1  0  0  0  0  0999 V2000
  189.0450  177.0820  136.1880 C   0  0  2  0  0  3  0  0  0  0  0  0
  186.5800  178.0090  138.9610 N   0  0  0  0  0  0  0  0  0  0  0  0
  185.2500  177.9880  138.3830 C   0  0  0  0  0  0  0  0  0  0  0  0
  183.8040  176.9110  136.5710 C   0  0  0  0  0  3  0  0  0  0  0  0
  187.7310  177.3690  138.2910 C   0  0  1  0  0  3  0  0  0  0  0  0
  190.3500  177.2250  136.9750 C   0  0  0  0  0  2  0  0  0  0  0  0
  185.0180  177.1670  137.3510 C   0  0  0  0  0  3  0  0  0  0  0  0
  188.0430  178.3690  141.0410 C   0  0  1  0  0  3  0  0  0  0  0  0
  189.2390  177.5690  134.8350 N   0  0  0  0  0  1  0  0  0  0  0  0
  184.5070  179.4040  140.2030 C   0  0  0  0  0  3  0  0  0  0  0  0
  182.6330  177.5330  136.6150 C   0  0  0  0  0  3  0  0  0  0  0  0
  188.8540  177.3060  140.4500 N   0  0  0  0  0  2  0  0  0  0  0  0
  186.7280  178.5180  140.3080 C   0  0  0  0  0  0  0  0  0  0  0  0
  187.9170  177.8680  136.8560 C   0  0  0  0  0  2  0  0  0  0  0  0
  182.2310  178.6450  137.4740 C   0  0  0  0  0  3  0  0  0  0  0  0
  189.0360  177.6310  139.0460 C   0  0  1  0  0  3  0  0  0  0  0  0
  190.1560  176.8030  138.4320 C   0  0  0  0  0  2  0  0  0  0  0  0
  185.7650  179.1980  140.8530 N   0  0  0  0  0  0  0  0  0  0  0  0
  184.2120  178.8350  139.0320 C   0  0  0  0  0  0  0  0  0  0  0  0
  182.8940  179.1840  138.4890 C   0  0  0  0  0  3  0  0  0  0  0  0
  187.8160  178.0730  142.5190 C   0  0  0  0  0  2  0  0  0  0  0  0
  190.0440  178.4210  143.5340 C   0  0  0  0  0  1  0  0  0  0  0  0
  189.0230  177.3770  143.1250 C   0  0  1  0  0  3  0  0  0  0  0  0
  188.6250  176.6230  144.2670 O   0  0  0  0  0  0  0  0  0  0  0  0
  186.5220  178.3010  146.8350 C   0  0  0  0  0  0  0  0  0  0  0  0
  188.7330  177.8970  147.7330 C   0  0  0  0  0  3  0  0  0  0  0  0
  185.2330  178.7940  146.9870 O   0  0  0  0  0  1  0  0  0  0  0  0
  186.9050  177.7140  145.6260 C   0  0  0  0  0  3  0  0  0  0  0  0
  189.1170  177.3090  146.5220 C   0  0  0  0  0  3  0  0  0  0  0  0
  188.2070  177.2120  145.4640 C   0  0  0  0  0  0  0  0  0  0  0  0
  187.4360  178.3930  147.8870 C   0  0  0  0  0  3  0  0  0  0  0  0
  1  9  1  6  0  0  0
  1 14  1  0  0  0  0
  1  6  1  0  0  0  0
  2 13  1  0  0  0  0
  3  2  1  0  0  0  0
  3 19  1  0  0  0  0
  4 11  2  0  0  0  0
  4  7  1  0  0  0  0
  5 14  1  6  0  0  0
  5  2  1  0  0  0  0
  5 16  1  0  0  0  0
  6 17  1  0  0  0  0
  7  3  2  0  0  0  0
  8 21  1  1  0  0  0
 10 18  1  0  0  0  0
 11 15  1  0  0  0  0
 12  8  1  0  0  0  0
 13 18  2  0  0  0  0
 13  8  1  0  0  0  0
 15 20  2  0  0  0  0
 16 17  1  6  0  0  0
 16 12  1  0  0  0  0
 19 10  2  0  0  0  0
 20 19  1  0  0  0  0
 21 23  1  0  0  0  0
 23 22  1  1  0  0  0
 23 24  1  0  0  0  0
 24 30  1  0  0  0  0
 25 27  1  0  0  0  0
 25 31  1  0  0  0  0
 26 31  2  0  0  0  0
 28 25  2  0  0  0  0
 29 26  1  0  0  0  0
 30 28  1  0  0  0  0
 30 29  2  0  0  0  0
M  END
>  <MODEL>
7

>  <REMARK>
 VINA RESULT:      -8.7      2.009      3.683
  Name = 
  4 active torsions:
  status: ('A' for Active; 'I' for Inactive)
    1  A    between atoms: O_3  and  C_9
    2  A    between atoms: O_3  and  C_22
    3  A    between atoms: C_9  and  C_23
    4  A    between atoms: C_15  and  C_23
                            x       y       z     vdW  Elec       q    Type
                         _______ _______ _______ _____ _____    ______ ____

>  <TORSDO>
F 4

$$$$
=
 OpenBabel10272400173D

 31 35  0  0  1  0  0  0  0  0999 V2000
  184.9800  178.8330  139.1290 C   0  0  2  0  0  3  0  0  0  0  0  0
  188.5900  177.5830  139.3020 N   0  0  0  0  0  0  0  0  0  0  0  0
  189.0620  177.4320  137.9380 C   0  0  0  0  0  0  0  0  0  0  0  0
  188.8000  178.3170  135.5550 C   0  0  0  0  0  3  0  0  0  0  0  0
  187.3820  178.3710  139.6260 C   0  0  1  0  0  3  0  0  0  0  0  0
  184.6680  178.8600  140.6270 C   0  0  0  0  0  2  0  0  0  0  0  0
  188.5340  178.2190  136.9930 C   0  0  0  0  0  3  0  0  0  0  0  0
  189.1010  177.4100  141.8130 C   0  0  1  0  0  3  0  0  0  0  0  0
  183.8110  178.3800  138.3980 N   0  0  0  0  0  1  0  0  0  0  0  0
  190.7690  175.9250  138.7650 C   0  0  0  0  0  3  0  0  0  0  0  0
  189.5640  177.5470  134.7900 C   0  0  0  0  0  3  0  0  0  0  0  0
  188.2180  178.5730  141.9030 N   0  0  0  0  0  2  0  0  0  0  0  0
  189.4330  177.0940  140.3710 C   0  0  0  0  0  0  0  0  0  0  0  0
  186.1580  177.9040  138.8340 C   0  0  0  0  0  2  0  0  0  0  0  0
  190.3640  176.3890  135.1840 C   0  0  0  0  0  3  0  0  0  0  0  0
  187.0350  178.2780  141.1130 C   0  0  1  0  0  3  0  0  0  0  0  0
  185.9060  179.2480  141.4350 C   0  0  0  0  0  2  0  0  0  0  0  0
  190.4200  176.2920  140.1030 N   0  0  0  0  0  0  0  0  0  0  0  0
  190.1580  176.4540  137.7020 C   0  0  0  0  0  0  0  0  0  0  0  0
  190.6140  175.9380  136.4070 C   0  0  0  0  0  3  0  0  0  0  0  0
  190.3660  177.6700  142.6230 C   0  0  0  0  0  2  0  0  0  0  0  0
  191.6430  175.9300  143.8290 C   0  0  0  0  0  1  0  0  0  0  0  0
  190.4020  176.8010  143.8680 C   0  0  1  0  0  3  0  0  0  0  0  0
  190.4290  177.6230  145.0320 O   0  0  0  0  0  0  0  0  0  0  0  0
  186.9820  177.9510  146.3890 C   0  0  0  0  0  0  0  0  0  0  0  0
  188.5630  177.8000  148.2150 C   0  0  0  0  0  3  0  0  0  0  0  0
  185.6760  178.0770  145.9360 O   0  0  0  0  0  1  0  0  0  0  0  0
  188.0320  177.8500  145.4710 C   0  0  0  0  0  3  0  0  0  0  0  0
  189.6140  177.6990  147.2970 C   0  0  0  0  0  3  0  0  0  0  0  0
  189.3550  177.7220  145.9230 C   0  0  0  0  0  0  0  0  0  0  0  0
  187.2480  177.9270  147.7600 C   0  0  0  0  0  3  0  0  0  0  0  0
  1  9  1  6  0  0  0
  1  6  1  0  0  0  0
  2  5  1  0  0  0  0
  2 13  1  0  0  0  0
  3  2  1  0  0  0  0
  4  7  1  0  0  0  0
  5 14  1  6  0  0  0
  5 16  1  0  0  0  0
  6 17  1  0  0  0  0
  7  3  2  0  0  0  0
  8 12  1  0  0  0  0
  8 21  1  1  0  0  0
 10 18  1  0  0  0  0
 11 15  1  0  0  0  0
 11  4  2  0  0  0  0
 13  8  1  0  0  0  0
 14  1  1  0  0  0  0
 15 20  2  0  0  0  0
 16 17  1  1  0  0  0
 16 12  1  0  0  0  0
 18 13  2  0  0  0  0
 19  3  1  0  0  0  0
 19 10  2  0  0  0  0
 20 19  1  0  0  0  0
 21 23  1  0  0  0  0
 23 22  1  6  0  0  0
 23 24  1  0  0  0  0
 24 30  1  0  0  0  0
 25 31  1  0  0  0  0
 27 25  1  0  0  0  0
 28 30  1  0  0  0  0
 28 25  2  0  0  0  0
 29 26  1  0  0  0  0
 30 29  2  0  0  0  0
 31 26  2  0  0  0  0
M  END
>  <MODEL>
8

>  <REMARK>
 VINA RESULT:      -8.6      1.589      4.292
  Name = 
  4 active torsions:
  status: ('A' for Active; 'I' for Inactive)
    1  A    between atoms: O_3  and  C_9
    2  A    between atoms: O_3  and  C_22
    3  A    between atoms: C_9  and  C_23
    4  A    between atoms: C_15  and  C_23
                            x       y       z     vdW  Elec       q    Type
                         _______ _______ _______ _____ _____    ______ ____

>  <TORSDO>
F 4

$$$$
=
 OpenBabel10272400173D

 31 35  0  0  1  0  0  0  0  0999 V2000
  191.8530  177.0960  140.2870 C   0  0  2  0  0  3  0  0  0  0  0  0
  188.1310  177.6550  139.6060 N   0  0  0  0  0  0  0  0  0  0  0  0
  187.8940  177.3370  138.2100 C   0  0  0  0  0  0  0  0  0  0  0  0
  188.6970  175.8970  136.2570 C   0  0  0  0  0  3  0  0  0  0  0  0
  189.3600  177.2240  140.3050 C   0  0  1  0  0  3  0  0  0  0  0  0
  191.8930  177.5390  141.7520 C   0  0  0  0  0  2  0  0  0  0  0  0
  188.6870  176.4330  137.6210 C   0  0  0  0  0  3  0  0  0  0  0  0
  187.1610  178.4120  141.8600 C   0  0  1  0  0  3  0  0  0  0  0  0
  193.0580  177.5400  139.6130 N   0  0  0  0  0  1  0  0  0  0  0  0
  185.8740  178.6700  138.3160 C   0  0  0  0  0  3  0  0  0  0  0  0
  187.9830  176.2730  135.2040 C   0  0  0  0  0  3  0  0  0  0  0  0
  188.1670  177.5030  142.4090 N   0  0  0  0  0  2  0  0  0  0  0  0
  187.0510  178.2540  140.3590 C   0  0  0  0  0  0  0  0  0  0  0  0
  190.6280  177.6740  139.5770 C   0  0  0  0  0  2  0  0  0  0  0  0
  186.9720  177.3250  135.1250 C   0  0  0  0  0  3  0  0  0  0  0  0
  189.4190  177.7830  141.7290 C   0  0  1  0  0  3  0  0  0  0  0  0
  190.5960  177.1650  142.4700 C   0  0  0  0  0  2  0  0  0  0  0  0
  186.0260  178.7550  139.7370 N   0  0  0  0  0  0  0  0  0  0  0  0
  186.7320  177.9920  137.5510 C   0  0  0  0  0  0  0  0  0  0  0  0
  186.4470  178.0400  136.1120 C   0  0  0  0  0  3  0  0  0  0  0  0
  185.8200  178.1550  142.5380 C   0  0  0  0  0  2  0  0  0  0  0  0
  184.4620  179.4010  144.1860 C   0  0  0  0  0  1  0  0  0  0  0  0
  185.8020  178.7330  143.9430 C   0  0  1  0  0  3  0  0  0  0  0  0
  186.0010  177.6950  144.8970 O   0  0  0  0  0  0  0  0  0  0  0  0
  188.0160  178.0160  148.0070 C   0  0  0  0  0  0  0  0  0  0  0  0
  189.4330  177.2610  146.1940 C   0  0  0  0  0  3  0  0  0  0  0  0
  187.8560  178.3790  149.3370 O   0  0  0  0  0  1  0  0  0  0  0  0
  186.9210  178.0420  147.1400 C   0  0  0  0  0  3  0  0  0  0  0  0
  188.3360  177.2880  145.3270 C   0  0  0  0  0  3  0  0  0  0  0  0
  187.0760  177.6760  145.7930 C   0  0  0  0  0  0  0  0  0  0  0  0
  189.2720  177.6260  147.5340 C   0  0  0  0  0  3  0  0  0  0  0  0
  1  9  1  6  0  0  0
  1  6  1  0  0  0  0
  2  5  1  0  0  0  0
  2 13  1  0  0  0  0
  3  2  1  0  0  0  0
  4  7  1  0  0  0  0
  5 14  1  6  0  0  0
  5 16  1  0  0  0  0
  6 17  1  0  0  0  0
  7  3  2  0  0  0  0
  8 12  1  0  0  0  0
  8 21  1  1  0  0  0
 10 18  1  0  0  0  0
 11  4  2  0  0  0  0
 13  8  1  0  0  0  0
 14  1  1  0  0  0  0
 15 11  1  0  0  0  0
 15 20  2  0  0  0  0
 16 12  1  0  0  0  0
 16 17  1  1  0  0  0
 18 13  2  0  0  0  0
 19  3  1  0  0  0  0
 19 10  2  0  0  0  0
 20 19  1  0  0  0  0
 21 23  1  0  0  0  0
 23 22  1  1  0  0  0
 23 24  1  0  0  0  0
 24 30  1  0  0  0  0
 25 27  1  0  0  0  0
 26 31  2  0  0  0  0
 28 25  2  0  0  0  0
 29 30  2  0  0  0  0
 29 26  1  0  0  0  0
 30 28  1  0  0  0  0
 31 25  1  0  0  0  0
M  END
>  <MODEL>
9

>  <REMARK>
 VINA RESULT:      -8.6      0.793      1.170
  Name = 
  4 active torsions:
  status: ('A' for Active; 'I' for Inactive)
    1  A    between atoms: O_3  and  C_9
    2  A    between atoms: O_3  and  C_22
    3  A    between atoms: C_9  and  C_23
    4  A    between atoms: C_15  and  C_23
                            x       y       z     vdW  Elec       q    Type
                         _______ _______ _______ _____ _____    ______ ____

>  <TORSDO>
F 4

$$$$
