=
 OpenBabel10272401383D

 55 61  0  0  1  0  0  0  0  0999 V2000
  190.3600  177.6710  140.8670 C   0  0  0  0  0  2  0  0  0  0  0  0
  189.0470  177.2560  138.3320 C   0  0  0  0  0  0  0  0  0  0  0  0
  188.3420  177.7580  139.3480 C   0  0  0  0  0  3  0  0  0  0  0  0
  190.8340  176.5640  139.9310 C   0  0  0  0  0  2  0  0  0  0  0  0
  188.9430  177.9650  140.6360 N   0  0  0  0  0  0  0  0  0  0  0  0
  190.5080  176.9480  138.4900 C   0  0  0  0  0  2  0  0  0  0  0  0
  188.1590  178.4090  141.7090 N   0  0  0  0  0  2  0  0  0  0  0  0
  187.6060  177.2310  142.3630 C   0  0  0  0  0  2  0  0  0  0  0  0
  189.4790  176.9510  147.0400 C   0  0  0  0  0  2  0  0  0  0  0  0
  184.7230  177.7340  142.3930 C   0  0  0  0  0  2  0  0  0  0  0  0
  188.0110  177.6370  148.9220 C   0  0  0  0  0  2  0  0  0  0  0  0
  187.2340  178.0260  146.5600 C   0  0  0  0  0  0  0  0  0  0  0  0
  187.0830  178.4220  148.0020 C   0  0  0  0  0  2  0  0  0  0  0  0
  189.4270  177.6870  148.3740 C   0  0  0  0  0  2  0  0  0  0  0  0
  188.4070  177.4110  146.0800 C   0  0  0  0  0  0  0  0  0  0  0  0
  186.3090  178.1010  144.3620 C   0  0  0  0  0  0  0  0  0  0  0  0
  184.3110  179.5760  143.8980 C   0  0  0  0  0  2  0  0  0  0  0  0
  186.2460  178.3650  145.6940 N   0  0  0  0  0  0  0  0  0  0  0  0
  183.1290  179.4940  142.9490 C   0  0  1  0  0  3  0  0  0  0  0  0
  188.5190  177.1360  144.7050 C   0  0  0  0  0  0  0  0  0  0  0  0
  183.5230  178.4950  141.8650 C   0  0  0  0  0  2  0  0  0  0  0  0
  187.4640  177.4800  143.8340 C   0  0  0  0  0  0  0  0  0  0  0  0
  185.2030  178.4940  143.5290 N   0  0  0  0  0  0  0  0  0  0  0  0
  189.7680  176.4940  144.1680 C   0  0  0  0  0  2  0  0  0  0  0  0
  190.6140  178.8740  144.2200 N   0  0  0  0  0  2  0  0  0  0  0  0
  192.0710  177.0670  143.9440 O   0  0  0  0  0  0  0  0  0  0  0  0
  191.6650  179.8730  144.1300 C   0  0  0  0  0  1  0  0  0  0  0  0
  190.8890  177.4770  144.1100 C   0  0  0  0  0  0  0  0  0  0  0  0
  181.9130  178.9910  143.7110 C   0  0  0  0  0  2  0  0  0  0  0  0
  180.7330  178.8690  142.8070 C   0  0  0  0  0  0  0  0  0  0  0  0
  179.9880  177.8570  142.8770 O   0  0  0  0  0  1  0  0  0  0  0  0
  180.4360  179.8870  141.9090 O   0  0  0  0  0  0  0  0  0  0  0  0
  188.3800  177.0350  137.0210 C   0  0  0  0  0  2  0  0  0  0  0  0
  187.8460  178.3530  136.4790 C   0  0  0  0  0  2  0  0  0  0  0  0
  187.0160  178.1180  135.3060 N   0  0  0  0  0  2  0  0  0  0  0  0
  187.3580  176.8170  134.7510 C   0  0  0  0  0  2  0  0  0  0  0  0
  186.1040  175.9800  134.5510 C   0  0  0  0  0  2  0  0  0  0  0  0
  185.4580  175.8170  135.7870 O   0  0  0  0  0  0  0  0  0  0  0  0
  181.4920  175.8140  136.7200 C   0  0  2  0  0  0  0  0  0  0  0  0
  180.8670  178.9690  136.2270 S   0  0  0  0  0  1  0  0  0  0  0  0
  183.1730  176.7700  135.6540 C   0  0  2  0  0  0  0  0  0  0  0  0
  183.9080  174.8750  134.3480 F   0  0  0  0  0  0  0  0  0  0  0  0
  184.5120  177.5890  137.8130 C   0  0  0  0  0  1  0  0  0  0  0  0
  183.1980  177.4600  137.0360 C   0  0  2  0  0  0  0  0  0  0  0  0
  184.0930  175.5070  135.5740 C   0  0  1  0  0  0  0  0  0  0  0  0
  182.1400  174.4220  136.8540 C   0  0  0  0  0  2  0  0  0  0  0  0
  182.0230  176.8080  137.7670 C   0  0  1  0  0  0  0  0  0  0  0  0
  179.9840  175.6840  136.8180 C   0  0  0  0  0  1  0  0  0  0  0  0
  182.0150  178.3250  137.5010 C   0  0  2  0  0  0  0  0  0  0  0  0
  183.6680  174.5070  136.6700 C   0  0  0  0  0  2  0  0  0  0  0  0
  183.4890  177.6830  134.6650 F   0  0  0  0  0  0  0  0  0  0  0  0
  182.3030  176.3170  139.1920 C   0  0  0  0  0  1  0  0  0  0  0  0
  181.8530  176.3180  135.4600 O   0  0  0  0  0  0  0  0  0  0  0  0
  182.2400  179.2260  138.7150 C   0  0  0  0  0  2  0  0  0  0  0  0
  182.1830  180.5650  138.3320 O   0  0  0  0  0  1  0  0  0  0  0  0
  2  6  1  0  0  0  0
  2  3  2  0  0  0  0
  3  5  1  0  0  0  0
  4  1  1  0  0  0  0
  5  1  1  0  0  0  0
  5  7  1  0  0  0  0
  6  4  1  0  0  0  0
  7  8  1  0  0  0  0
  8 22  1  0  0  0  0
  9 14  1  0  0  0  0
 10 23  1  0  0  0  0
 12 13  1  0  0  0  0
 13 11  1  0  0  0  0
 14 11  1  0  0  0  0
 15 12  1  0  0  0  0
 15  9  1  0  0  0  0
 16 18  1  0  0  0  0
 18 12  2  0  0  0  0
 19 29  1  1  0  0  0
 19 17  1  0  0  0  0
 20 15  2  0  0  0  0
 21 10  1  0  0  0  0
 21 19  1  0  0  0  0
 22 16  2  0  0  0  0
 22 20  1  0  0  0  0
 23 17  1  0  0  0  0
 23 16  1  0  0  0  0
 24 20  1  0  0  0  0
 26 28  2  0  0  0  0
 27 25  1  0  0  0  0
 28 24  1  0  0  0  0
 28 25  1  0  0  0  0
 30 31  1  0  0  0  0
 30 29  1  0  0  0  0
 32 30  2  0  0  0  0
 33  2  1  0  0  0  0
 34 33  1  0  0  0  0
 35 34  1  0  0  0  0
 36 35  1  0  0  0  0
 37 36  1  0  0  0  0
 37 38  1  0  0  0  0
 39 48  1  1  0  0  0
 39 46  1  0  0  0  0
 39 47  1  0  0  0  0
 41 51  1  6  0  0  0
 41 44  1  0  0  0  0
 44 49  1  0  0  0  0
 44 47  1  0  0  0  0
 44 43  1  1  0  0  0
 45 42  1  6  0  0  0
 45 41  1  0  0  0  0
 45 38  1  0  0  0  0
 45 50  1  0  0  0  0
 47 52  1  1  0  0  0
 49 40  1  6  0  0  0
 49 47  1  0  0  0  0
 49 54  1  0  0  0  0
 50 46  1  0  0  0  0
 53 41  1  0  0  0  0
 53 39  1  0  0  0  0
 55 54  1  0  0  0  0
M  END
>  <MODEL>
1

>  <REMARK>
 VINA RESULT:      -8.0      0.000      0.000
  Name = 
  15 active torsions:
  status: ('A' for Active; 'I' for Inactive)
    1  A    between atoms: N_2  and  C_28
    2  A    between atoms: N_2  and  N_44
    3  A    between atoms: C_8  and  O_22
    4  A    between atoms: C_8  and  C_43
    5  A    between atoms: C_10  and  C_32
    6  A    between atoms: C_11  and  C_38
    7  A    between atoms: C_19  and  C_40
    8  A    between atoms: C_19  and  C_45
    9  A    between atoms: C_20  and  O_22
   10  A    between atoms: C_27  and  C_54
   11  A    between atoms: C_28  and  C_49
   12  A    between atoms: C_32  and  C_39
   13  A    between atoms: N_35  and  C_43
   14  A    between atoms: N_35  and  C_51
   15  A    between atoms: C_51  and  C_54
                            x       y       z     vdW  Elec       q    Type
                         _______ _______ _______ _____ _____    ______ ____

>  <TORSDO>
F 15

$$$$
=
 OpenBabel10272401383D

 55 61  0  0  1  0  0  0  0  0999 V2000
  190.6750  177.3080  140.1430 C   0  0  0  0  0  2  0  0  0  0  0  0
  189.4540  176.7800  137.5830 C   0  0  0  0  0  0  0  0  0  0  0  0
  188.6830  176.8050  138.6720 C   0  0  0  0  0  3  0  0  0  0  0  0
  191.4770  176.6310  139.0360 C   0  0  0  0  0  2  0  0  0  0  0  0
  189.2440  177.0440  139.9720 N   0  0  0  0  0  0  0  0  0  0  0  0
  190.9250  177.0590  137.6790 C   0  0  0  0  0  2  0  0  0  0  0  0
  188.4260  176.9770  141.1080 N   0  0  0  0  0  2  0  0  0  0  0  0
  188.5010  178.2690  141.7760 C   0  0  0  0  0  2  0  0  0  0  0  0
  189.8250  177.3410  146.5560 C   0  0  0  0  0  2  0  0  0  0  0  0
  185.6050  178.0600  141.4070 C   0  0  0  0  0  2  0  0  0  0  0  0
  188.0200  177.1990  148.2550 C   0  0  0  0  0  2  0  0  0  0  0  0
  187.4460  177.9410  145.9190 C   0  0  0  0  0  0  0  0  0  0  0  0
  187.0290  177.9390  147.3630 C   0  0  0  0  0  2  0  0  0  0  0  0
  189.4240  177.7080  147.9800 C   0  0  0  0  0  2  0  0  0  0  0  0
  188.7880  177.7500  145.5360 C   0  0  0  0  0  0  0  0  0  0  0  0
  186.7960  178.3130  143.6530 C   0  0  0  0  0  0  0  0  0  0  0  0
  184.5440  179.3450  143.1540 C   0  0  0  0  0  2  0  0  0  0  0  0
  186.5110  178.2330  144.9800 N   0  0  0  0  0  0  0  0  0  0  0  0
  183.5450  179.2150  142.0180 C   0  0  1  0  0  3  0  0  0  0  0  0
  189.1280  177.8410  144.1740 C   0  0  0  0  0  0  0  0  0  0  0  0
  184.3150  178.6200  140.8430 C   0  0  0  0  0  2  0  0  0  0  0  0
  188.1280  178.1230  143.2200 C   0  0  0  0  0  0  0  0  0  0  0  0
  185.7290  178.6210  142.7380 N   0  0  0  0  0  0  0  0  0  0  0  0
  190.5570  177.6550  143.7430 C   0  0  0  0  0  2  0  0  0  0  0  0
  191.9000  175.7300  144.6800 N   0  0  0  0  0  2  0  0  0  0  0  0
  190.3990  175.4250  142.9150 O   0  0  0  0  0  0  0  0  0  0  0  0
  192.3260  174.3410  144.6980 C   0  0  0  0  0  1  0  0  0  0  0  0
  190.9290  176.2090  143.7480 C   0  0  0  0  0  0  0  0  0  0  0  0
  182.4280  178.2760  142.4450 C   0  0  0  0  0  2  0  0  0  0  0  0
  181.1780  179.0370  142.7350 C   0  0  0  0  0  0  0  0  0  0  0  0
  180.6560  179.7550  141.8420 O   0  0  0  0  0  0  0  0  0  0  0  0
  180.5700  178.9290  143.9790 O   0  0  0  0  0  1  0  0  0  0  0  0
  188.8350  176.5050  136.2580 C   0  0  0  0  0  2  0  0  0  0  0  0
  189.8350  175.8070  135.3500 C   0  0  0  0  0  2  0  0  0  0  0  0
  189.8070  174.3690  135.5770 N   0  0  0  0  0  2  0  0  0  0  0  0
  191.0800  173.8090  135.1470 C   0  0  0  0  0  2  0  0  0  0  0  0
  192.1670  174.1220  136.1630 C   0  0  0  0  0  2  0  0  0  0  0  0
  193.3390  174.4930  135.4830 O   0  0  0  0  0  0  0  0  0  0  0  0
  196.6980  174.4000  137.7870 C   0  0  2  0  0  0  0  0  0  0  0  0
  198.9240  174.5300  135.4180 S   0  0  0  0  0  1  0  0  0  0  0  0
  195.7450  174.9450  135.8700 C   0  0  2  0  0  0  0  0  0  0  0  0
  193.9700  176.3430  136.7230 F   0  0  0  0  0  0  0  0  0  0  0  0
  195.2830  172.4600  135.0130 C   0  0  0  0  0  1  0  0  0  0  0  0
  196.2290  173.4990  135.6210 C   0  0  2  0  0  0  0  0  0  0  0  0
  194.2750  175.0240  136.4020 C   0  0  1  0  0  0  0  0  0  0  0  0
  195.4000  174.3480  138.6170 C   0  0  0  0  0  2  0  0  0  0  0  0
  196.9030  173.1300  136.9450 C   0  0  1  0  0  0  0  0  0  0  0  0
  197.8800  174.6320  138.7070 C   0  0  0  0  0  1  0  0  0  0  0  0
  197.7290  173.1600  135.6450 C   0  0  2  0  0  0  0  0  0  0  0  0
  194.1680  174.2020  137.7030 C   0  0  0  0  0  2  0  0  0  0  0  0
  195.9040  175.6990  134.7220 F   0  0  0  0  0  0  0  0  0  0  0  0
  196.5240  171.7680  137.5390 C   0  0  0  0  0  1  0  0  0  0  0  0
  196.5690  175.4700  136.8850 O   0  0  0  0  0  0  0  0  0  0  0  0
  198.1500  171.8040  135.0800 C   0  0  0  0  0  2  0  0  0  0  0  0
  199.5030  171.8280  134.7410 O   0  0  0  0  0  1  0  0  0  0  0  0
  2  6  1  0  0  0  0
  2  3  2  0  0  0  0
  3  5  1  0  0  0  0
  4  1  1  0  0  0  0
  5  1  1  0  0  0  0
  5  7  1  0  0  0  0
  6  4  1  0  0  0  0
  7  8  1  0  0  0  0
  8 22  1  0  0  0  0
  9 14  1  0  0  0  0
 10 23  1  0  0  0  0
 12 13  1  0  0  0  0
 13 11  1  0  0  0  0
 14 11  1  0  0  0  0
 15 12  1  0  0  0  0
 15  9  1  0  0  0  0
 16 18  1  0  0  0  0
 18 12  2  0  0  0  0
 19 29  1  1  0  0  0
 19 17  1  0  0  0  0
 20 15  2  0  0  0  0
 21 10  1  0  0  0  0
 21 19  1  0  0  0  0
 22 16  2  0  0  0  0
 22 20  1  0  0  0  0
 23 17  1  0  0  0  0
 23 16  1  0  0  0  0
 24 28  1  0  0  0  0
 24 20  1  0  0  0  0
 25 27  1  0  0  0  0
 26 28  2  0  0  0  0
 28 25  1  0  0  0  0
 29 30  1  0  0  0  0
 30 32  1  0  0  0  0
 31 30  2  0  0  0  0
 33  2  1  0  0  0  0
 34 35  1  0  0  0  0
 34 33  1  0  0  0  0
 36 35  1  0  0  0  0
 36 37  1  0  0  0  0
 38 37  1  0  0  0  0
 38 45  1  0  0  0  0
 39 46  1  0  0  0  0
 39 48  1  1  0  0  0
 41 51  1  6  0  0  0
 41 45  1  0  0  0  0
 41 53  1  0  0  0  0
 44 43  1  6  0  0  0
 44 49  1  0  0  0  0
 44 41  1  0  0  0  0
 44 47  1  0  0  0  0
 45 42  1  1  0  0  0
 45 50  1  0  0  0  0
 47 52  1  1  0  0  0
 47 39  1  0  0  0  0
 49 40  1  6  0  0  0
 49 47  1  0  0  0  0
 50 46  1  0  0  0  0
 53 39  1  0  0  0  0
 54 49  1  0  0  0  0
 55 54  1  0  0  0  0
M  END
>  <MODEL>
2

>  <REMARK>
 VINA RESULT:      -7.1      5.451      8.518
  Name = 
  15 active torsions:
  status: ('A' for Active; 'I' for Inactive)
    1  A    between atoms: N_2  and  C_28
    2  A    between atoms: N_2  and  N_44
    3  A    between atoms: C_8  and  O_22
    4  A    between atoms: C_8  and  C_43
    5  A    between atoms: C_10  and  C_32
    6  A    between atoms: C_11  and  C_38
    7  A    between atoms: C_19  and  C_40
    8  A    between atoms: C_19  and  C_45
    9  A    between atoms: C_20  and  O_22
   10  A    between atoms: C_27  and  C_54
   11  A    between atoms: C_28  and  C_49
   12  A    between atoms: C_32  and  C_39
   13  A    between atoms: N_35  and  C_43
   14  A    between atoms: N_35  and  C_51
   15  A    between atoms: C_51  and  C_54
                            x       y       z     vdW  Elec       q    Type
                         _______ _______ _______ _____ _____    ______ ____

>  <TORSDO>
F 15

$$$$
=
 OpenBabel10272401383D

 55 61  0  0  1  0  0  0  0  0999 V2000
  188.2400  178.7730  138.9170 C   0  0  0  0  0  2  0  0  0  0  0  0
  190.1870  176.7110  138.3930 C   0  0  0  0  0  0  0  0  0  0  0  0
  189.8440  176.9670  139.6570 C   0  0  0  0  0  3  0  0  0  0  0  0
  189.1370  178.8610  137.6860 C   0  0  0  0  0  2  0  0  0  0  0  0
  188.8940  177.9970  139.9730 N   0  0  0  0  0  0  0  0  0  0  0  0
  189.5450  177.4540  137.2580 C   0  0  0  0  0  2  0  0  0  0  0  0
  188.6180  178.3050  141.3110 N   0  0  0  0  0  2  0  0  0  0  0  0
  188.1830  177.0760  141.9610 C   0  0  0  0  0  2  0  0  0  0  0  0
  189.4270  176.9420  146.8490 C   0  0  0  0  0  2  0  0  0  0  0  0
  185.3070  177.4840  141.5990 C   0  0  0  0  0  2  0  0  0  0  0  0
  187.7030  177.6120  148.5050 C   0  0  0  0  0  2  0  0  0  0  0  0
  187.2340  177.9340  146.0530 C   0  0  0  0  0  0  0  0  0  0  0  0
  186.8820  178.3500  147.4540 C   0  0  0  0  0  2  0  0  0  0  0  0
  189.1770  177.6990  148.1480 C   0  0  0  0  0  2  0  0  0  0  0  0
  188.4780  177.3490  145.7460 C   0  0  0  0  0  0  0  0  0  0  0  0
  186.6070  177.9380  143.7510 C   0  0  0  0  0  0  0  0  0  0  0  0
  184.6430  179.3380  142.9950 C   0  0  0  0  0  2  0  0  0  0  0  0
  186.3600  178.2240  145.0570 N   0  0  0  0  0  0  0  0  0  0  0  0
  183.6010  179.2000  141.9000 C   0  0  1  0  0  3  0  0  0  0  0  0
  188.7800  177.0530  144.4040 C   0  0  0  0  0  0  0  0  0  0  0  0
  184.1650  178.1950  140.9010 C   0  0  0  0  0  2  0  0  0  0  0  0
  187.8390  177.3460  143.3940 C   0  0  0  0  0  0  0  0  0  0  0  0
  185.6090  178.2800  142.7720 N   0  0  0  0  0  0  0  0  0  0  0  0
  190.1080  176.4420  144.0510 C   0  0  0  0  0  2  0  0  0  0  0  0
  191.0820  178.7340  144.4760 N   0  0  0  0  0  2  0  0  0  0  0  0
  191.9860  177.3050  142.8630 O   0  0  0  0  0  0  0  0  0  0  0  0
  192.0180  179.8120  144.2010 C   0  0  0  0  0  1  0  0  0  0  0  0
  191.1180  177.5010  143.7580 C   0  0  0  0  0  0  0  0  0  0  0  0
  182.3100  178.6720  142.5070 C   0  0  0  0  0  2  0  0  0  0  0  0
  181.1430  179.0030  141.6400 C   0  0  0  0  0  0  0  0  0  0  0  0
  180.3780  178.0880  141.2370 O   0  0  0  0  0  0  0  0  0  0  0  0
  180.8780  180.3250  141.3030 O   0  0  0  0  0  1  0  0  0  0  0  0
  191.1930  175.6510  138.1110 C   0  0  0  0  0  2  0  0  0  0  0  0
  190.5200  174.4550  137.4560 C   0  0  0  0  0  2  0  0  0  0  0  0
  190.6950  174.5060  136.0110 N   0  0  0  0  0  2  0  0  0  0  0  0
  189.6770  173.6680  135.3930 C   0  0  0  0  0  2  0  0  0  0  0  0
  188.4550  173.5690  136.2920 C   0  0  0  0  0  2  0  0  0  0  0  0
  187.3610  174.1690  135.6480 O   0  0  0  0  0  0  0  0  0  0  0  0
  184.3380  176.6070  136.8840 C   0  0  2  0  0  0  0  0  0  0  0  0
  182.1500  174.3250  137.6550 S   0  0  0  0  0  1  0  0  0  0  0  0
  185.2950  174.6170  136.9440 C   0  0  2  0  0  0  0  0  0  0  0  0
  187.4990  175.2880  137.6700 F   0  0  0  0  0  0  0  0  0  0  0  0
  184.8010  173.9350  134.4110 C   0  0  0  0  0  1  0  0  0  0  0  0
  184.3200  174.5000  135.7510 C   0  0  2  0  0  0  0  0  0  0  0  0
  186.7310  175.0810  136.5290 C   0  0  1  0  0  0  0  0  0  0  0  0
  185.5860  177.3860  136.4240 C   0  0  0  0  0  2  0  0  0  0  0  0
  183.6470  175.8740  135.7220 C   0  0  1  0  0  0  0  0  0  0  0  0
  183.3740  177.5520  137.5720 C   0  0  0  0  0  1  0  0  0  0  0  0
  182.8020  174.6100  135.9670 C   0  0  2  0  0  0  0  0  0  0  0  0
  186.6270  176.4370  135.7990 C   0  0  0  0  0  2  0  0  0  0  0  0
  185.3370  173.4210  137.6380 F   0  0  0  0  0  0  0  0  0  0  0  0
  183.5630  176.5550  134.3510 C   0  0  0  0  0  1  0  0  0  0  0  0
  184.7750  175.6210  137.7850 O   0  0  0  0  0  0  0  0  0  0  0  0
  181.8970  174.1680  134.8180 C   0  0  0  0  0  2  0  0  0  0  0  0
  180.5590  174.3340  135.1730 O   0  0  0  0  0  1  0  0  0  0  0  0
  1  5  1  0  0  0  0
  2  3  2  0  0  0  0
  3  5  1  0  0  0  0
  4  1  1  0  0  0  0
  5  7  1  0  0  0  0
  6  4  1  0  0  0  0
  6  2  1  0  0  0  0
  7  8  1  0  0  0  0
  8 22  1  0  0  0  0
  9 14  1  0  0  0  0
 10 23  1  0  0  0  0
 12 13  1  0  0  0  0
 13 11  1  0  0  0  0
 14 11  1  0  0  0  0
 15 12  1  0  0  0  0
 15  9  1  0  0  0  0
 16 18  1  0  0  0  0
 18 12  2  0  0  0  0
 19 29  1  1  0  0  0
 19 17  1  0  0  0  0
 20 15  2  0  0  0  0
 21 10  1  0  0  0  0
 21 19  1  0  0  0  0
 22 16  2  0  0  0  0
 22 20  1  0  0  0  0
 23 17  1  0  0  0  0
 23 16  1  0  0  0  0
 24 20  1  0  0  0  0
 26 28  2  0  0  0  0
 27 25  1  0  0  0  0
 28 24  1  0  0  0  0
 28 25  1  0  0  0  0
 30 29  1  0  0  0  0
 31 30  2  0  0  0  0
 32 30  1  0  0  0  0
 33  2  1  0  0  0  0
 34 33  1  0  0  0  0
 35 34  1  0  0  0  0
 36 35  1  0  0  0  0
 36 37  1  0  0  0  0
 38 37  1  0  0  0  0
 38 45  1  0  0  0  0
 39 48  1  1  0  0  0
 39 53  1  0  0  0  0
 41 51  1  1  0  0  0
 41 53  1  0  0  0  0
 44 43  1  6  0  0  0
 44 49  1  0  0  0  0
 44 41  1  0  0  0  0
 45 41  1  0  0  0  0
 45 42  1  1  0  0  0
 46 39  1  0  0  0  0
 47 52  1  6  0  0  0
 47 44  1  0  0  0  0
 47 49  1  0  0  0  0
 47 39  1  0  0  0  0
 49 40  1  1  0  0  0
 50 46  1  0  0  0  0
 50 45  1  0  0  0  0
 54 55  1  0  0  0  0
 54 49  1  0  0  0  0
M  END
>  <MODEL>
3

>  <REMARK>
 VINA RESULT:      -7.0      1.899      3.004
  Name = 
  15 active torsions:
  status: ('A' for Active; 'I' for Inactive)
    1  A    between atoms: N_2  and  C_28
    2  A    between atoms: N_2  and  N_44
    3  A    between atoms: C_8  and  O_22
    4  A    between atoms: C_8  and  C_43
    5  A    between atoms: C_10  and  C_32
    6  A    between atoms: C_11  and  C_38
    7  A    between atoms: C_19  and  C_40
    8  A    between atoms: C_19  and  C_45
    9  A    between atoms: C_20  and  O_22
   10  A    between atoms: C_27  and  C_54
   11  A    between atoms: C_28  and  C_49
   12  A    between atoms: C_32  and  C_39
   13  A    between atoms: N_35  and  C_43
   14  A    between atoms: N_35  and  C_51
   15  A    between atoms: C_51  and  C_54
                            x       y       z     vdW  Elec       q    Type
                         _______ _______ _______ _____ _____    ______ ____

>  <TORSDO>
F 15

$$$$
=
 OpenBabel10272401383D

 55 61  0  0  1  0  0  0  0  0999 V2000
  191.8650  177.5570  139.9360 C   0  0  0  0  0  2  0  0  0  0  0  0
  192.0060  176.2550  137.3660 C   0  0  0  0  0  0  0  0  0  0  0  0
  190.8410  176.2710  138.0170 C   0  0  0  0  0  3  0  0  0  0  0  0
  193.1730  176.9300  139.4650 C   0  0  0  0  0  2  0  0  0  0  0  0
  190.7220  176.8880  139.3090 N   0  0  0  0  0  0  0  0  0  0  0  0
  193.2140  176.9350  137.9400 C   0  0  0  0  0  2  0  0  0  0  0  0
  189.5110  176.8130  140.0090 N   0  0  0  0  0  2  0  0  0  0  0  0
  189.1850  178.1580  140.4620 C   0  0  0  0  0  2  0  0  0  0  0  0
  188.5890  177.5750  145.4390 C   0  0  0  0  0  2  0  0  0  0  0  0
  186.6490  177.8390  139.0350 C   0  0  0  0  0  2  0  0  0  0  0  0
  186.2720  177.4870  146.3290 C   0  0  0  0  0  2  0  0  0  0  0  0
  186.6300  178.0620  143.9040 C   0  0  0  0  0  0  0  0  0  0  0  0
  185.6940  178.1390  145.0780 C   0  0  0  0  0  2  0  0  0  0  0  0
  187.6740  178.0200  146.5740 C   0  0  0  0  0  2  0  0  0  0  0  0
  188.0180  177.8870  144.0750 C   0  0  0  0  0  0  0  0  0  0  0  0
  186.8930  178.2700  141.5420 C   0  0  0  0  0  0  0  0  0  0  0  0
  184.9980  179.2000  140.1530 C   0  0  0  0  0  2  0  0  0  0  0  0
  186.1230  178.2660  142.6630 N   0  0  0  0  0  0  0  0  0  0  0  0
  184.5080  178.9670  138.7340 C   0  0  1  0  0  3  0  0  0  0  0  0
  188.8520  177.9020  142.9420 C   0  0  0  0  0  0  0  0  0  0  0  0
  185.6700  178.3230  137.9850 C   0  0  0  0  0  2  0  0  0  0  0  0
  188.2900  178.0930  141.6620 C   0  0  0  0  0  0  0  0  0  0  0  0
  186.2550  178.4870  140.2700 N   0  0  0  0  0  0  0  0  0  0  0  0
  190.3370  177.7320  143.1010 C   0  0  0  0  0  2  0  0  0  0  0  0
  191.7440  175.9840  144.2610 N   0  0  0  0  0  2  0  0  0  0  0  0
  190.0500  175.3900  142.7660 O   0  0  0  0  0  0  0  0  0  0  0  0
  192.1470  174.6110  144.5170 C   0  0  0  0  0  1  0  0  0  0  0  0
  190.6830  176.3040  143.3610 C   0  0  0  0  0  0  0  0  0  0  0  0
  183.3160  178.0240  138.7690 C   0  0  0  0  0  2  0  0  0  0  0  0
  182.0780  178.7500  139.1770 C   0  0  0  0  0  0  0  0  0  0  0  0
  181.5810  179.6240  138.4200 O   0  0  0  0  0  0  0  0  0  0  0  0
  181.4540  178.4400  140.3790 O   0  0  0  0  0  1  0  0  0  0  0  0
  192.0900  175.5840  136.0410 C   0  0  0  0  0  2  0  0  0  0  0  0
  190.7520  174.9510  135.6900 C   0  0  0  0  0  2  0  0  0  0  0  0
  190.9290  173.9220  134.6750 N   0  0  0  0  0  2  0  0  0  0  0  0
  190.5870  172.6340  135.2600 C   0  0  0  0  0  2  0  0  0  0  0  0
  191.3650  171.5190  134.5810 C   0  0  0  0  0  2  0  0  0  0  0  0
  192.6850  171.9470  134.3620 O   0  0  0  0  0  0  0  0  0  0  0  0
  196.2310  171.2760  136.2540 C   0  0  2  0  0  0  0  0  0  0  0  0
  196.1760  173.7990  138.3100 S   0  0  0  0  0  1  0  0  0  0  0  0
  194.2200  172.1890  136.2940 C   0  0  2  0  0  0  0  0  0  0  0  0
  192.9050  170.2070  135.8730 F   0  0  0  0  0  0  0  0  0  0  0  0
  194.6480  174.0160  134.3950 C   0  0  0  0  0  1  0  0  0  0  0  0
  195.0960  173.3010  135.6730 C   0  0  2  0  0  0  0  0  0  0  0  0
  193.5620  171.2510  135.2280 C   0  0  1  0  0  0  0  0  0  0  0  0
  195.9240  170.2280  135.1670 C   0  0  0  0  0  2  0  0  0  0  0  0
  196.4910  172.6720  135.6620 C   0  0  1  0  0  0  0  0  0  0  0  0
  197.4120  170.8170  137.0860 C   0  0  0  0  0  1  0  0  0  0  0  0
  196.2310  173.9480  136.4850 C   0  0  2  0  0  0  0  0  0  0  0  0
  194.6720  170.6220  134.3600 C   0  0  0  0  0  2  0  0  0  0  0  0
  193.2670  172.7490  137.1250 F   0  0  0  0  0  0  0  0  0  0  0  0
  197.2760  172.7950  134.3510 C   0  0  0  0  0  1  0  0  0  0  0  0
  195.0850  171.3840  137.0600 O   0  0  0  0  0  0  0  0  0  0  0  0
  196.8340  175.2410  135.9370 C   0  0  0  0  0  2  0  0  0  0  0  0
  197.6610  175.8250  136.8960 O   0  0  0  0  0  1  0  0  0  0  0  0
  2  6  1  0  0  0  0
  2  3  2  0  0  0  0
  3  5  1  0  0  0  0
  4  1  1  0  0  0  0
  5  1  1  0  0  0  0
  5  7  1  0  0  0  0
  6  4  1  0  0  0  0
  7  8  1  0  0  0  0
  8 22  1  0  0  0  0
  9 14  1  0  0  0  0
 10 23  1  0  0  0  0
 11 14  1  0  0  0  0
 12 15  1  0  0  0  0
 12 13  1  0  0  0  0
 13 11  1  0  0  0  0
 15  9  1  0  0  0  0
 16 22  2  0  0  0  0
 16 18  1  0  0  0  0
 17 23  1  0  0  0  0
 18 12  2  0  0  0  0
 19 29  1  1  0  0  0
 19 17  1  0  0  0  0
 20 24  1  0  0  0  0
 20 15  2  0  0  0  0
 21 19  1  0  0  0  0
 21 10  1  0  0  0  0
 22 20  1  0  0  0  0
 23 16  1  0  0  0  0
 24 28  1  0  0  0  0
 25 27  1  0  0  0  0
 26 28  2  0  0  0  0
 28 25  1  0  0  0  0
 29 30  1  0  0  0  0
 30 32  1  0  0  0  0
 31 30  2  0  0  0  0
 33  2  1  0  0  0  0
 34 33  1  0  0  0  0
 35 36  1  0  0  0  0
 35 34  1  0  0  0  0
 37 36  1  0  0  0  0
 38 37  1  0  0  0  0
 38 45  1  0  0  0  0
 39 53  1  0  0  0  0
 39 48  1  1  0  0  0
 41 53  1  0  0  0  0
 41 51  1  1  0  0  0
 44 43  1  6  0  0  0
 44 41  1  0  0  0  0
 44 49  1  0  0  0  0
 45 42  1  1  0  0  0
 45 41  1  0  0  0  0
 46 39  1  0  0  0  0
 47 52  1  6  0  0  0
 47 44  1  0  0  0  0
 47 39  1  0  0  0  0
 47 49  1  0  0  0  0
 49 40  1  1  0  0  0
 50 46  1  0  0  0  0
 50 45  1  0  0  0  0
 54 49  1  0  0  0  0
 54 55  1  0  0  0  0
M  END
>  <MODEL>
4

>  <REMARK>
 VINA RESULT:      -7.0      5.508      8.440
  Name = 
  15 active torsions:
  status: ('A' for Active; 'I' for Inactive)
    1  A    between atoms: N_2  and  C_28
    2  A    between atoms: N_2  and  N_44
    3  A    between atoms: C_8  and  O_22
    4  A    between atoms: C_8  and  C_43
    5  A    between atoms: C_10  and  C_32
    6  A    between atoms: C_11  and  C_38
    7  A    between atoms: C_19  and  C_40
    8  A    between atoms: C_19  and  C_45
    9  A    between atoms: C_20  and  O_22
   10  A    between atoms: C_27  and  C_54
   11  A    between atoms: C_28  and  C_49
   12  A    between atoms: C_32  and  C_39
   13  A    between atoms: N_35  and  C_43
   14  A    between atoms: N_35  and  C_51
   15  A    between atoms: C_51  and  C_54
                            x       y       z     vdW  Elec       q    Type
                         _______ _______ _______ _____ _____    ______ ____

>  <TORSDO>
F 15

$$$$
=
 OpenBabel10272401383D

 55 61  0  0  1  0  0  0  0  0999 V2000
  190.0670  177.3740  139.6250 C   0  0  0  0  0  2  0  0  0  0  0  0
  189.9010  176.5720  136.8590 C   0  0  0  0  0  0  0  0  0  0  0  0
  188.7740  176.6880  137.5650 C   0  0  0  0  0  3  0  0  0  0  0  0
  191.2170  176.6080  138.9780 C   0  0  0  0  0  2  0  0  0  0  0  0
  188.8040  177.0650  138.9510 N   0  0  0  0  0  0  0  0  0  0  0  0
  191.2300  176.8900  137.4790 C   0  0  0  0  0  2  0  0  0  0  0  0
  187.6150  177.0940  139.6910 N   0  0  0  0  0  2  0  0  0  0  0  0
  187.4100  178.4650  140.1360 C   0  0  0  0  0  2  0  0  0  0  0  0
  182.5250  179.2720  141.1060 C   0  0  0  0  0  2  0  0  0  0  0  0
  189.0090  178.5020  142.5880 C   0  0  0  0  0  2  0  0  0  0  0  0
  181.7880  179.2250  143.4760 C   0  0  0  0  0  2  0  0  0  0  0  0
  184.1470  178.5470  142.9150 C   0  0  0  0  0  0  0  0  0  0  0  0
  183.0300  178.4600  143.9190 C   0  0  0  0  0  2  0  0  0  0  0  0
  181.4240  178.8200  142.0580 C   0  0  0  0  0  2  0  0  0  0  0  0
  183.9000  178.8410  141.5590 C   0  0  0  0  0  0  0  0  0  0  0  0
  186.4710  178.2300  142.4800 C   0  0  0  0  0  0  0  0  0  0  0  0
  187.9170  177.0780  144.2030 C   0  0  0  0  0  2  0  0  0  0  0  0
  185.4020  178.2360  143.3210 N   0  0  0  0  0  0  0  0  0  0  0  0
  189.3740  177.1910  144.6120 C   0  0  1  0  0  3  0  0  0  0  0  0
  184.9760  178.8300  140.6530 C   0  0  0  0  0  0  0  0  0  0  0  0
  190.0880  177.8840  143.4550 C   0  0  0  0  0  2  0  0  0  0  0  0
  186.2750  178.5250  141.1120 C   0  0  0  0  0  0  0  0  0  0  0  0
  187.7640  177.8930  143.0140 N   0  0  0  0  0  0  0  0  0  0  0  0
  184.7350  179.1270  139.1990 C   0  0  0  0  0  2  0  0  0  0  0  0
  185.2720  177.6230  137.2410 N   0  0  0  0  0  2  0  0  0  0  0  0
  183.6540  177.0360  138.8210 O   0  0  0  0  0  0  0  0  0  0  0  0
  185.0700  176.4310  136.4330 C   0  0  0  0  0  1  0  0  0  0  0  0
  184.5180  177.8670  138.4280 C   0  0  0  0  0  0  0  0  0  0  0  0
  189.4710  178.0370  145.8730 C   0  0  0  0  0  2  0  0  0  0  0  0
  188.9300  177.2970  147.0490 C   0  0  0  0  0  0  0  0  0  0  0  0
  189.5140  176.2630  147.4670 O   0  0  0  0  0  0  0  0  0  0  0  0
  187.8000  177.7670  147.7080 O   0  0  0  0  0  1  0  0  0  0  0  0
  189.8270  176.1560  135.4320 C   0  0  0  0  0  2  0  0  0  0  0  0
  189.7420  174.6410  135.3350 C   0  0  0  0  0  2  0  0  0  0  0  0
  191.0560  174.0460  135.5410 N   0  0  0  0  0  2  0  0  0  0  0  0
  191.8570  174.2730  134.3470 C   0  0  0  0  0  2  0  0  0  0  0  0
  192.9220  175.3240  134.6150 C   0  0  0  0  0  2  0  0  0  0  0  0
  194.1690  174.6920  134.7450 O   0  0  0  0  0  0  0  0  0  0  0  0
  196.3310  174.3050  138.1780 C   0  0  2  0  0  0  0  0  0  0  0  0
  199.1960  173.4930  136.8660 S   0  0  0  0  0  1  0  0  0  0  0  0
  196.3080  174.6710  136.0000 C   0  0  2  0  0  0  0  0  0  0  0  0
  194.8020  176.5590  135.9580 F   0  0  0  0  0  0  0  0  0  0  0  0
  195.5160  172.2310  135.2620 C   0  0  0  0  0  1  0  0  0  0  0  0
  196.4320  173.1340  136.0940 C   0  0  2  0  0  0  0  0  0  0  0  0
  194.8270  175.1690  135.9040 C   0  0  1  0  0  0  0  0  0  0  0  0
  194.8630  174.6960  138.4350 C   0  0  0  0  0  2  0  0  0  0  0  0
  196.4640  172.8840  137.6030 C   0  0  1  0  0  0  0  0  0  0  0  0
  197.1260  174.4420  139.4610 C   0  0  0  0  0  1  0  0  0  0  0  0
  197.6710  172.4860  136.7340 C   0  0  2  0  0  0  0  0  0  0  0  0
  194.0440  174.6520  137.1300 C   0  0  0  0  0  2  0  0  0  0  0  0
  197.0630  175.1410  134.9410 F   0  0  0  0  0  0  0  0  0  0  0  0
  195.5410  171.7760  138.1240 C   0  0  0  0  0  1  0  0  0  0  0  0
  196.8290  175.1860  137.2030 O   0  0  0  0  0  0  0  0  0  0  0  0
  197.8760  170.9890  136.5050 C   0  0  0  0  0  2  0  0  0  0  0  0
  198.7670  170.4800  137.4490 O   0  0  0  0  0  1  0  0  0  0  0  0
  2  6  1  0  0  0  0
  2  3  2  0  0  0  0
  3  5  1  0  0  0  0
  4  1  1  0  0  0  0
  5  1  1  0  0  0  0
  5  7  1  0  0  0  0
  6  4  1  0  0  0  0
  7  8  1  0  0  0  0
  8 22  1  0  0  0  0
  9 15  1  0  0  0  0
  9 14  1  0  0  0  0
 10 23  1  0  0  0  0
 10 21  1  0  0  0  0
 11 13  1  0  0  0  0
 12 18  1  0  0  0  0
 12 13  1  0  0  0  0
 14 11  1  0  0  0  0
 15 12  2  0  0  0  0
 16 23  1  0  0  0  0
 16 18  2  0  0  0  0
 17 19  1  0  0  0  0
 19 29  1  1  0  0  0
 20 22  2  0  0  0  0
 20 15  1  0  0  0  0
 21 19  1  0  0  0  0
 22 16  1  0  0  0  0
 23 17  1  0  0  0  0
 24 20  1  0  0  0  0
 25 28  1  0  0  0  0
 27 25  1  0  0  0  0
 28 26  2  0  0  0  0
 28 24  1  0  0  0  0
 29 30  1  0  0  0  0
 30 31  2  0  0  0  0
 30 32  1  0  0  0  0
 33  2  1  0  0  0  0
 34 33  1  0  0  0  0
 34 35  1  0  0  0  0
 36 37  1  0  0  0  0
 36 35  1  0  0  0  0
 37 38  1  0  0  0  0
 38 45  1  0  0  0  0
 39 46  1  0  0  0  0
 39 48  1  1  0  0  0
 41 51  1  6  0  0  0
 41 44  1  0  0  0  0
 41 53  1  0  0  0  0
 44 43  1  6  0  0  0
 44 49  1  0  0  0  0
 44 47  1  0  0  0  0
 45 42  1  6  0  0  0
 45 41  1  0  0  0  0
 45 50  1  0  0  0  0
 47 52  1  1  0  0  0
 47 39  1  0  0  0  0
 49 40  1  1  0  0  0
 49 47  1  0  0  0  0
 50 46  1  0  0  0  0
 53 39  1  0  0  0  0
 54 49  1  0  0  0  0
 54 55  1  0  0  0  0
M  END
>  <MODEL>
5

>  <REMARK>
 VINA RESULT:      -6.7      5.629      9.833
  Name = 
  15 active torsions:
  status: ('A' for Active; 'I' for Inactive)
    1  A    between atoms: N_2  and  C_28
    2  A    between atoms: N_2  and  N_44
    3  A    between atoms: C_8  and  O_22
    4  A    between atoms: C_8  and  C_43
    5  A    between atoms: C_10  and  C_32
    6  A    between atoms: C_11  and  C_38
    7  A    between atoms: C_19  and  C_40
    8  A    between atoms: C_19  and  C_45
    9  A    between atoms: C_20  and  O_22
   10  A    between atoms: C_27  and  C_54
   11  A    between atoms: C_28  and  C_49
   12  A    between atoms: C_32  and  C_39
   13  A    between atoms: N_35  and  C_43
   14  A    between atoms: N_35  and  C_51
   15  A    between atoms: C_51  and  C_54
                            x       y       z     vdW  Elec       q    Type
                         _______ _______ _______ _____ _____    ______ ____

>  <TORSDO>
F 15

$$$$
=
 OpenBabel10272401383D

 55 61  0  0  1  0  0  0  0  0999 V2000
  186.0140  178.1570  144.4570 C   0  0  0  0  0  2  0  0  0  0  0  0
  183.5300  178.7580  143.1190 C   0  0  0  0  0  0  0  0  0  0  0  0
  184.4860  178.1160  142.4450 C   0  0  0  0  0  3  0  0  0  0  0  0
  185.1990  179.3790  144.8670 C   0  0  0  0  0  2  0  0  0  0  0  0
  185.7480  177.8110  143.0580 N   0  0  0  0  0  0  0  0  0  0  0  0
  183.7250  179.1280  144.5600 C   0  0  0  0  0  2  0  0  0  0  0  0
  186.7660  177.2150  142.3010 N   0  0  0  0  0  2  0  0  0  0  0  0
  187.6020  178.2850  141.7750 C   0  0  0  0  0  2  0  0  0  0  0  0
  189.7000  176.5560  137.5240 C   0  0  0  0  0  2  0  0  0  0  0  0
  189.1510  177.4980  144.1310 C   0  0  0  0  0  2  0  0  0  0  0  0
  191.9800  175.5840  137.6660 C   0  0  0  0  0  2  0  0  0  0  0  0
  191.0060  176.7180  139.6920 C   0  0  0  0  0  0  0  0  0  0  0  0
  192.2620  176.2660  139.0010 C   0  0  0  0  0  2  0  0  0  0  0  0
  191.0570  176.4600  136.8370 C   0  0  0  0  0  2  0  0  0  0  0  0
  189.8120  176.9460  138.9790 C   0  0  0  0  0  0  0  0  0  0  0  0
  190.0020  177.4680  141.7220 C   0  0  0  0  0  0  0  0  0  0  0  0
  191.4660  178.0310  143.7030 C   0  0  0  0  0  2  0  0  0  0  0  0
  191.0670  177.0020  141.0160 N   0  0  0  0  0  0  0  0  0  0  0  0
  191.2910  177.9510  145.2090 C   0  0  1  0  0  3  0  0  0  0  0  0
  188.6910  177.4450  139.6700 C   0  0  0  0  0  0  0  0  0  0  0  0
  189.7880  177.8590  145.4570 C   0  0  0  0  0  2  0  0  0  0  0  0
  188.7810  177.7080  141.0530 C   0  0  0  0  0  0  0  0  0  0  0  0
  190.1700  177.7310  143.1270 N   0  0  0  0  0  0  0  0  0  0  0  0
  187.4100  177.7100  138.9280 C   0  0  0  0  0  2  0  0  0  0  0  0
  187.0060  178.0250  136.4540 N   0  0  0  0  0  2  0  0  0  0  0  0
  188.5090  179.3770  137.6260 O   0  0  0  0  0  0  0  0  0  0  0  0
  187.2600  178.6670  135.1750 C   0  0  0  0  0  1  0  0  0  0  0  0
  187.6770  178.4290  137.6480 C   0  0  0  0  0  0  0  0  0  0  0  0
  191.9870  176.7010  145.7240 C   0  0  0  0  0  2  0  0  0  0  0  0
  191.7140  176.5030  147.1770 C   0  0  0  0  0  0  0  0  0  0  0  0
  191.7710  177.4810  147.9680 O   0  0  0  0  0  1  0  0  0  0  0  0
  191.3620  175.2470  147.6550 O   0  0  0  0  0  0  0  0  0  0  0  0
  182.2460  179.0750  142.4380 C   0  0  0  0  0  2  0  0  0  0  0  0
  182.3810  178.8510  140.9390 C   0  0  0  0  0  2  0  0  0  0  0  0
  181.1890  179.3210  140.2470 N   0  0  0  0  0  2  0  0  0  0  0  0
  181.4870  179.4140  138.8260 C   0  0  0  0  0  2  0  0  0  0  0  0
  182.5580  178.4050  138.4410 C   0  0  0  0  0  2  0  0  0  0  0  0
  182.0470  177.5480  137.4520 O   0  0  0  0  0  0  0  0  0  0  0  0
  183.2370  173.6850  136.9360 C   0  0  2  0  0  0  0  0  0  0  0  0
  186.4570  174.1510  136.9830 S   0  0  0  0  0  1  0  0  0  0  0  0
  183.7060  175.7180  137.6620 C   0  0  2  0  0  0  0  0  0  0  0  0
  181.8420  176.0110  139.1710 F   0  0  0  0  0  0  0  0  0  0  0  0
  183.7800  176.9130  135.2770 C   0  0  0  0  0  1  0  0  0  0  0  0
  184.1820  175.7540  136.1930 C   0  0  2  0  0  0  0  0  0  0  0  0
  182.2290  176.2010  137.8480 C   0  0  1  0  0  0  0  0  0  0  0  0
  181.7040  173.8420  136.9590 C   0  0  0  0  0  2  0  0  0  0  0  0
  183.8710  174.3400  135.6970 C   0  0  1  0  0  0  0  0  0  0  0  0
  183.5990  172.2150  137.0120 C   0  0  0  0  0  1  0  0  0  0  0  0
  185.3270  174.8430  135.7180 C   0  0  2  0  0  0  0  0  0  0  0  0
  181.3030  175.3300  136.9730 C   0  0  0  0  0  2  0  0  0  0  0  0
  184.5740  176.4440  138.4570 F   0  0  0  0  0  0  0  0  0  0  0  0
  183.1510  174.2420  134.3470 C   0  0  0  0  0  1  0  0  0  0  0  0
  183.7390  174.3660  138.0570 O   0  0  0  0  0  0  0  0  0  0  0  0
  185.9540  175.1560  134.3600 C   0  0  0  0  0  2  0  0  0  0  0  0
  187.3360  175.2830  134.4910 O   0  0  0  0  0  1  0  0  0  0  0  0
  1  4  1  0  0  0  0
  2  6  1  0  0  0  0
  3  5  1  0  0  0  0
  3  2  2  0  0  0  0
  5  1  1  0  0  0  0
  6  4  1  0  0  0  0
  7  5  1  0  0  0  0
  8  7  1  0  0  0  0
  9 15  1  0  0  0  0
 10 21  1  0  0  0  0
 11 13  1  0  0  0  0
 12 18  1  0  0  0  0
 13 12  1  0  0  0  0
 14  9  1  0  0  0  0
 14 11  1  0  0  0  0
 15 20  1  0  0  0  0
 15 12  2  0  0  0  0
 16 23  1  0  0  0  0
 17 19  1  0  0  0  0
 18 16  2  0  0  0  0
 19 21  1  0  0  0  0
 19 29  1  6  0  0  0
 20 22  2  0  0  0  0
 22 16  1  0  0  0  0
 22  8  1  0  0  0  0
 23 17  1  0  0  0  0
 23 10  1  0  0  0  0
 24 20  1  0  0  0  0
 25 28  1  0  0  0  0
 26 28  2  0  0  0  0
 27 25  1  0  0  0  0
 28 24  1  0  0  0  0
 29 30  1  0  0  0  0
 30 32  2  0  0  0  0
 30 31  1  0  0  0  0
 33  2  1  0  0  0  0
 34 33  1  0  0  0  0
 35 34  1  0  0  0  0
 36 35  1  0  0  0  0
 37 36  1  0  0  0  0
 38 45  1  0  0  0  0
 38 37  1  0  0  0  0
 39 46  1  0  0  0  0
 39 48  1  1  0  0  0
 39 53  1  0  0  0  0
 41 45  1  0  0  0  0
 41 53  1  0  0  0  0
 41 51  1  1  0  0  0
 44 43  1  6  0  0  0
 44 41  1  0  0  0  0
 45 42  1  1  0  0  0
 46 50  1  0  0  0  0
 47 52  1  6  0  0  0
 47 49  1  0  0  0  0
 47 44  1  0  0  0  0
 47 39  1  0  0  0  0
 49 44  1  0  0  0  0
 49 40  1  1  0  0  0
 50 45  1  0  0  0  0
 54 55  1  0  0  0  0
 54 49  1  0  0  0  0
M  END
>  <MODEL>
6

>  <REMARK>
 VINA RESULT:      -6.5      2.365      7.126
  Name = 
  15 active torsions:
  status: ('A' for Active; 'I' for Inactive)
    1  A    between atoms: N_2  and  C_28
    2  A    between atoms: N_2  and  N_44
    3  A    between atoms: C_8  and  O_22
    4  A    between atoms: C_8  and  C_43
    5  A    between atoms: C_10  and  C_32
    6  A    between atoms: C_11  and  C_38
    7  A    between atoms: C_19  and  C_40
    8  A    between atoms: C_19  and  C_45
    9  A    between atoms: C_20  and  O_22
   10  A    between atoms: C_27  and  C_54
   11  A    between atoms: C_28  and  C_49
   12  A    between atoms: C_32  and  C_39
   13  A    between atoms: N_35  and  C_43
   14  A    between atoms: N_35  and  C_51
   15  A    between atoms: C_51  and  C_54
                            x       y       z     vdW  Elec       q    Type
                         _______ _______ _______ _____ _____    ______ ____

>  <TORSDO>
F 15

$$$$
=
 OpenBabel10272401383D

 55 61  0  0  1  0  0  0  0  0999 V2000
  189.3790  178.1090  141.3560 C   0  0  0  0  0  2  0  0  0  0  0  0
  189.7010  177.5680  138.5410 C   0  0  0  0  0  0  0  0  0  0  0  0
  188.5480  178.0850  138.9700 C   0  0  0  0  0  3  0  0  0  0  0  0
  190.2990  176.9830  140.8920 C   0  0  0  0  0  2  0  0  0  0  0  0
  188.3300  178.3540  140.3640 N   0  0  0  0  0  0  0  0  0  0  0  0
  190.8280  177.3070  139.4980 C   0  0  0  0  0  2  0  0  0  0  0  0
  187.0790  178.8130  140.7980 N   0  0  0  0  0  2  0  0  0  0  0  0
  186.3070  177.6510  141.2130 C   0  0  0  0  0  2  0  0  0  0  0  0
  181.5260  179.2580  141.0610 C   0  0  0  0  0  2  0  0  0  0  0  0
  187.5050  178.1030  143.8450 C   0  0  0  0  0  2  0  0  0  0  0  0
  180.4450  179.8910  143.2050 C   0  0  0  0  0  2  0  0  0  0  0  0
  182.7200  178.8150  143.2530 C   0  0  0  0  0  0  0  0  0  0  0  0
  181.4670  179.1160  144.0280 C   0  0  0  0  0  2  0  0  0  0  0  0
  180.2370  179.1930  141.8720 C   0  0  0  0  0  2  0  0  0  0  0  0
  182.7300  178.7900  141.8450 C   0  0  0  0  0  0  0  0  0  0  0  0
  185.0020  178.1220  143.3360 C   0  0  0  0  0  0  0  0  0  0  0  0
  185.9680  177.2680  145.5090 C   0  0  0  0  0  2  0  0  0  0  0  0
  183.8340  178.4650  143.9430 N   0  0  0  0  0  0  0  0  0  0  0  0
  187.3470  177.3030  146.1440 C   0  0  1  0  0  3  0  0  0  0  0  0
  183.9140  178.4240  141.1780 C   0  0  0  0  0  0  0  0  0  0  0  0
  188.3280  177.5950  145.0120 C   0  0  0  0  0  2  0  0  0  0  0  0
  185.0630  178.0880  141.9250 C   0  0  0  0  0  0  0  0  0  0  0  0
  186.1290  177.7750  144.1600 N   0  0  0  0  0  0  0  0  0  0  0  0
  183.9440  178.3770  139.6750 C   0  0  0  0  0  2  0  0  0  0  0  0
  182.1870  177.5980  138.0360 N   0  0  0  0  0  2  0  0  0  0  0  0
  182.9800  176.1980  139.7310 O   0  0  0  0  0  0  0  0  0  0  0  0
  181.2460  176.6170  137.5190 C   0  0  0  0  0  1  0  0  0  0  0  0
  183.0250  177.3210  139.1580 C   0  0  0  0  0  0  0  0  0  0  0  0
  187.3890  178.4180  147.1770 C   0  0  0  0  0  2  0  0  0  0  0  0
  188.3030  178.0630  148.3020 C   0  0  0  0  0  0  0  0  0  0  0  0
  187.8640  178.0210  149.4810 O   0  0  0  0  0  1  0  0  0  0  0  0
  189.6300  177.7440  148.0460 O   0  0  0  0  0  0  0  0  0  0  0  0
  189.8770  177.2820  137.0910 C   0  0  0  0  0  2  0  0  0  0  0  0
  189.0010  176.1070  136.6820 C   0  0  0  0  0  2  0  0  0  0  0  0
  188.7290  176.1530  135.2520 N   0  0  0  0  0  2  0  0  0  0  0  0
  189.9970  176.2460  134.5430 C   0  0  0  0  0  2  0  0  0  0  0  0
  190.6890  174.8930  134.5170 C   0  0  0  0  0  2  0  0  0  0  0  0
  191.9990  175.0380  135.0040 O   0  0  0  0  0  0  0  0  0  0  0  0
  194.4280  172.2740  136.7550 C   0  0  2  0  0  0  0  0  0  0  0  0
  196.2760  174.2900  138.5190 S   0  0  0  0  0  1  0  0  0  0  0  0
  193.5270  174.2910  136.8070 C   0  0  2  0  0  0  0  0  0  0  0  0
  191.1990  173.6600  136.6830 F   0  0  0  0  0  0  0  0  0  0  0  0
  194.8240  175.2860  134.6970 C   0  0  0  0  0  1  0  0  0  0  0  0
  194.8380  174.5130  136.0190 C   0  0  2  0  0  0  0  0  0  0  0  0
  192.2990  173.9760  135.8910 C   0  0  1  0  0  0  0  0  0  0  0  0
  193.3870  171.6440  135.8100 C   0  0  0  0  0  2  0  0  0  0  0  0
  195.4670  173.1190  135.9990 C   0  0  1  0  0  0  0  0  0  0  0  0
  195.1050  171.1860  137.5640 C   0  0  0  0  0  1  0  0  0  0  0  0
  196.2030  174.2830  136.6880 C   0  0  2  0  0  0  0  0  0  0  0  0
  192.6170  172.7310  135.0360 C   0  0  0  0  0  2  0  0  0  0  0  0
  193.2780  175.3790  137.6240 F   0  0  0  0  0  0  0  0  0  0  0  0
  195.9830  172.6310  134.6400 C   0  0  0  0  0  1  0  0  0  0  0  0
  193.7350  173.1510  137.6080 O   0  0  0  0  0  0  0  0  0  0  0  0
  197.4370  174.8250  135.9680 C   0  0  0  0  0  2  0  0  0  0  0  0
  197.6360  176.1640  136.3050 O   0  0  0  0  0  1  0  0  0  0  0  0
  2  3  2  0  0  0  0
  2  6  1  0  0  0  0
  3  5  1  0  0  0  0
  4  1  1  0  0  0  0
  5  7  1  0  0  0  0
  5  1  1  0  0  0  0
  6  4  1  0  0  0  0
  7  8  1  0  0  0  0
  8 22  1  0  0  0  0
  9 15  1  0  0  0  0
  9 14  1  0  0  0  0
 10 23  1  0  0  0  0
 10 21  1  0  0  0  0
 11 13  1  0  0  0  0
 12 18  1  0  0  0  0
 12 13  1  0  0  0  0
 14 11  1  0  0  0  0
 15 12  2  0  0  0  0
 16 18  2  0  0  0  0
 16 23  1  0  0  0  0
 17 19  1  0  0  0  0
 19 29  1  1  0  0  0
 20 15  1  0  0  0  0
 20 22  2  0  0  0  0
 21 19  1  0  0  0  0
 22 16  1  0  0  0  0
 23 17  1  0  0  0  0
 24 20  1  0  0  0  0
 25 28  1  0  0  0  0
 27 25  1  0  0  0  0
 28 24  1  0  0  0  0
 28 26  2  0  0  0  0
 29 30  1  0  0  0  0
 30 31  1  0  0  0  0
 32 30  2  0  0  0  0
 33  2  1  0  0  0  0
 34 33  1  0  0  0  0
 35 34  1  0  0  0  0
 36 35  1  0  0  0  0
 37 36  1  0  0  0  0
 37 38  1  0  0  0  0
 38 45  1  0  0  0  0
 39 48  1  1  0  0  0
 39 53  1  0  0  0  0
 41 53  1  0  0  0  0
 41 51  1  1  0  0  0
 44 43  1  6  0  0  0
 44 49  1  0  0  0  0
 44 41  1  0  0  0  0
 45 42  1  1  0  0  0
 45 41  1  0  0  0  0
 46 39  1  0  0  0  0
 47 52  1  6  0  0  0
 47 44  1  0  0  0  0
 47 49  1  0  0  0  0
 47 39  1  0  0  0  0
 49 40  1  1  0  0  0
 50 46  1  0  0  0  0
 50 45  1  0  0  0  0
 54 55  1  0  0  0  0
 54 49  1  0  0  0  0
M  END
>  <MODEL>
7

>  <REMARK>
 VINA RESULT:      -6.2      4.847      8.982
  Name = 
  15 active torsions:
  status: ('A' for Active; 'I' for Inactive)
    1  A    between atoms: N_2  and  C_28
    2  A    between atoms: N_2  and  N_44
    3  A    between atoms: C_8  and  O_22
    4  A    between atoms: C_8  and  C_43
    5  A    between atoms: C_10  and  C_32
    6  A    between atoms: C_11  and  C_38
    7  A    between atoms: C_19  and  C_40
    8  A    between atoms: C_19  and  C_45
    9  A    between atoms: C_20  and  O_22
   10  A    between atoms: C_27  and  C_54
   11  A    between atoms: C_28  and  C_49
   12  A    between atoms: C_32  and  C_39
   13  A    between atoms: N_35  and  C_43
   14  A    between atoms: N_35  and  C_51
   15  A    between atoms: C_51  and  C_54
                            x       y       z     vdW  Elec       q    Type
                         _______ _______ _______ _____ _____    ______ ____

>  <TORSDO>
F 15

$$$$
=
 OpenBabel10272401383D

 55 61  0  0  1  0  0  0  0  0999 V2000
  190.5590  177.6930  139.8550 C   0  0  0  0  0  2  0  0  0  0  0  0
  189.4180  177.2020  137.2520 C   0  0  0  0  0  0  0  0  0  0  0  0
  188.6430  177.7190  138.2070 C   0  0  0  0  0  3  0  0  0  0  0  0
  191.1040  176.5690  138.9780 C   0  0  0  0  0  2  0  0  0  0  0  0
  189.1570  177.9640  139.5260 N   0  0  0  0  0  0  0  0  0  0  0  0
  190.8680  176.9150  137.5110 C   0  0  0  0  0  2  0  0  0  0  0  0
  188.3010  178.4250  140.5340 N   0  0  0  0  0  2  0  0  0  0  0  0
  187.6090  177.2670  141.0830 C   0  0  0  0  0  2  0  0  0  0  0  0
  186.6580  177.5080  146.0320 C   0  0  0  0  0  2  0  0  0  0  0  0
  185.2050  177.8080  139.5020 C   0  0  0  0  0  2  0  0  0  0  0  0
  184.4660  178.4270  146.7500 C   0  0  0  0  0  2  0  0  0  0  0  0
  185.1060  178.5500  144.3180 C   0  0  0  0  0  0  0  0  0  0  0  0
  184.2360  179.1130  145.4080 C   0  0  0  0  0  2  0  0  0  0  0  0
  185.9540  178.3950  147.0530 C   0  0  0  0  0  2  0  0  0  0  0  0
  186.3050  177.8670  144.6080 C   0  0  0  0  0  0  0  0  0  0  0  0
  185.5120  178.3800  141.9740 C   0  0  0  0  0  0  0  0  0  0  0  0
  184.1880  179.8180  140.3710 C   0  0  0  0  0  2  0  0  0  0  0  0
  184.7650  178.7980  143.0300 N   0  0  0  0  0  0  0  0  0  0  0  0
  183.6970  179.6410  138.9460 C   0  0  1  0  0  3  0  0  0  0  0  0
  187.1150  177.4320  143.5430 C   0  0  0  0  0  0  0  0  0  0  0  0
  184.5350  178.5180  138.3430 C   0  0  0  0  0  2  0  0  0  0  0  0
  186.7200  177.6870  142.2130 C   0  0  0  0  0  0  0  0  0  0  0  0
  185.0560  178.6890  140.6440 N   0  0  0  0  0  0  0  0  0  0  0  0
  188.4060  176.7150  143.8280 C   0  0  0  0  0  2  0  0  0  0  0  0
  190.6030  177.7780  143.1750 N   0  0  0  0  0  2  0  0  0  0  0  0
  189.4750  178.4070  145.1220 O   0  0  0  0  0  0  0  0  0  0  0  0
  191.7200  178.6790  143.4030 C   0  0  0  0  0  1  0  0  0  0  0  0
  189.5080  177.6870  144.0870 C   0  0  0  0  0  0  0  0  0  0  0  0
  182.2290  179.2480  138.9720 C   0  0  0  0  0  2  0  0  0  0  0  0
  181.3800  180.3270  138.3880 C   0  0  0  0  0  0  0  0  0  0  0  0
  181.3500  181.4650  138.9250 O   0  0  0  0  0  1  0  0  0  0  0  0
  180.6490  180.0880  137.2310 O   0  0  0  0  0  0  0  0  0  0  0  0
  188.8380  176.9420  135.9060 C   0  0  0  0  0  2  0  0  0  0  0  0
  189.0780  175.4940  135.5060 C   0  0  0  0  0  2  0  0  0  0  0  0
  189.9830  175.4270  134.3660 N   0  0  0  0  0  2  0  0  0  0  0  0
  191.0290  174.4600  134.6630 C   0  0  0  0  0  2  0  0  0  0  0  0
  192.2740  175.1670  135.1760 C   0  0  0  0  0  2  0  0  0  0  0  0
  193.2030  174.2060  135.6060 O   0  0  0  0  0  0  0  0  0  0  0  0
  196.7410  174.3780  137.6200 C   0  0  2  0  0  0  0  0  0  0  0  0
  198.7550  174.5170  135.0670 S   0  0  0  0  0  1  0  0  0  0  0  0
  195.6060  174.7920  135.7710 C   0  0  2  0  0  0  0  0  0  0  0  0
  193.8360  176.1350  136.7170 F   0  0  0  0  0  0  0  0  0  0  0  0
  195.2070  172.2530  135.0510 C   0  0  0  0  0  1  0  0  0  0  0  0
  196.1440  173.3630  135.5370 C   0  0  2  0  0  0  0  0  0  0  0  0
  194.1830  174.8210  136.4210 C   0  0  1  0  0  0  0  0  0  0  0  0
  195.5210  174.2960  138.5580 C   0  0  0  0  0  2  0  0  0  0  0  0
  196.9430  173.0840  136.8120 C   0  0  1  0  0  0  0  0  0  0  0  0
  197.9820  174.7070  138.4270 C   0  0  0  0  0  1  0  0  0  0  0  0
  197.6570  173.1000  135.4470 C   0  0  2  0  0  0  0  0  0  0  0  0
  194.2270  174.0500  137.7580 C   0  0  0  0  0  2  0  0  0  0  0  0
  195.6300  175.5040  134.5850 F   0  0  0  0  0  0  0  0  0  0  0  0
  196.6870  171.7320  137.4870 C   0  0  0  0  0  1  0  0  0  0  0  0
  196.4820  175.4000  136.6920 O   0  0  0  0  0  0  0  0  0  0  0  0
  198.1010  171.7440  134.9000 C   0  0  0  0  0  2  0  0  0  0  0  0
  199.3630  171.4200  135.3960 O   0  0  0  0  0  1  0  0  0  0  0  0
  2  6  1  0  0  0  0
  2  3  2  0  0  0  0
  3  5  1  0  0  0  0
  4  1  1  0  0  0  0
  5  1  1  0  0  0  0
  5  7  1  0  0  0  0
  6  4  1  0  0  0  0
  7  8  1  0  0  0  0
  8 22  1  0  0  0  0
  9 14  1  0  0  0  0
 10 23  1  0  0  0  0
 11 14  1  0  0  0  0
 12 15  1  0  0  0  0
 12 13  1  0  0  0  0
 13 11  1  0  0  0  0
 15  9  1  0  0  0  0
 16 22  2  0  0  0  0
 16 18  1  0  0  0  0
 17 23  1  0  0  0  0
 18 12  2  0  0  0  0
 19 29  1  1  0  0  0
 19 17  1  0  0  0  0
 20 24  1  0  0  0  0
 20 15  2  0  0  0  0
 21 19  1  0  0  0  0
 21 10  1  0  0  0  0
 22 20  1  0  0  0  0
 23 16  1  0  0  0  0
 24 28  1  0  0  0  0
 25 27  1  0  0  0  0
 25 28  1  0  0  0  0
 28 26  2  0  0  0  0
 30 31  1  0  0  0  0
 30 29  1  0  0  0  0
 32 30  2  0  0  0  0
 33  2  1  0  0  0  0
 34 33  1  0  0  0  0
 35 36  1  0  0  0  0
 35 34  1  0  0  0  0
 36 37  1  0  0  0  0
 37 38  1  0  0  0  0
 38 45  1  0  0  0  0
 39 48  1  1  0  0  0
 39 46  1  0  0  0  0
 41 51  1  6  0  0  0
 41 45  1  0  0  0  0
 41 53  1  0  0  0  0
 44 43  1  6  0  0  0
 44 41  1  0  0  0  0
 44 47  1  0  0  0  0
 45 42  1  1  0  0  0
 45 50  1  0  0  0  0
 47 52  1  1  0  0  0
 47 39  1  0  0  0  0
 49 40  1  6  0  0  0
 49 44  1  0  0  0  0
 49 47  1  0  0  0  0
 50 46  1  0  0  0  0
 53 39  1  0  0  0  0
 54 55  1  0  0  0  0
 54 49  1  0  0  0  0
M  END
>  <MODEL>
8

>  <REMARK>
 VINA RESULT:      -6.1      5.442      8.693
  Name = 
  15 active torsions:
  status: ('A' for Active; 'I' for Inactive)
    1  A    between atoms: N_2  and  C_28
    2  A    between atoms: N_2  and  N_44
    3  A    between atoms: C_8  and  O_22
    4  A    between atoms: C_8  and  C_43
    5  A    between atoms: C_10  and  C_32
    6  A    between atoms: C_11  and  C_38
    7  A    between atoms: C_19  and  C_40
    8  A    between atoms: C_19  and  C_45
    9  A    between atoms: C_20  and  O_22
   10  A    between atoms: C_27  and  C_54
   11  A    between atoms: C_28  and  C_49
   12  A    between atoms: C_32  and  C_39
   13  A    between atoms: N_35  and  C_43
   14  A    between atoms: N_35  and  C_51
   15  A    between atoms: C_51  and  C_54
                            x       y       z     vdW  Elec       q    Type
                         _______ _______ _______ _____ _____    ______ ____

>  <TORSDO>
F 15

$$$$
=
 OpenBabel10272401383D

 55 61  0  0  1  0  0  0  0  0999 V2000
  190.1500  178.2220  143.2370 C   0  0  0  0  0  2  0  0  0  0  0  0
  191.3140  177.3440  140.7480 C   0  0  0  0  0  0  0  0  0  0  0  0
  189.9860  177.3210  140.8820 C   0  0  0  0  0  3  0  0  0  0  0  0
  191.5450  177.6060  143.2180 C   0  0  0  0  0  2  0  0  0  0  0  0
  189.3580  177.7280  142.1070 N   0  0  0  0  0  0  0  0  0  0  0  0
  192.1880  177.8540  141.8560 C   0  0  0  0  0  2  0  0  0  0  0  0
  187.9690  177.6100  142.2520 N   0  0  0  0  0  2  0  0  0  0  0  0
  187.3830  178.8950  141.8960 C   0  0  0  0  0  2  0  0  0  0  0  0
  182.9180  178.9880  144.2450 C   0  0  0  0  0  2  0  0  0  0  0  0
  187.1750  177.6620  139.2490 C   0  0  0  0  0  2  0  0  0  0  0  0
  180.8970  178.4110  142.9220 C   0  0  0  0  0  2  0  0  0  0  0  0
  183.1050  178.6600  141.7370 C   0  0  0  0  0  0  0  0  0  0  0  0
  181.6080  178.6660  141.5970 C   0  0  0  0  0  2  0  0  0  0  0  0
  181.4580  179.3410  143.9830 C   0  0  0  0  0  2  0  0  0  0  0  0
  183.7320  178.9040  142.9750 C   0  0  0  0  0  0  0  0  0  0  0  0
  185.2140  178.5450  140.6290 C   0  0  0  0  0  0  0  0  0  0  0  0
  185.3070  178.6780  138.1070 C   0  0  0  0  0  2  0  0  0  0  0  0
  183.8550  178.5110  140.6180 N   0  0  0  0  0  0  0  0  0  0  0  0
  186.2220  178.0920  137.0460 C   0  0  1  0  0  3  0  0  0  0  0  0
  185.1370  178.9640  143.0270 C   0  0  0  0  0  0  0  0  0  0  0  0
  187.5000  177.6800  137.7690 C   0  0  0  0  0  2  0  0  0  0  0  0
  185.8890  178.7820  141.8470 C   0  0  0  0  0  0  0  0  0  0  0  0
  185.9160  178.3680  139.3850 N   0  0  0  0  0  0  0  0  0  0  0  0
  185.8290  179.2370  144.3330 C   0  0  0  0  0  2  0  0  0  0  0  0
  187.6140  178.0920  145.7060 N   0  0  0  0  0  2  0  0  0  0  0  0
  185.9810  176.8700  144.5660 O   0  0  0  0  0  0  0  0  0  0  0  0
  188.2890  176.9130  146.2220 C   0  0  0  0  0  1  0  0  0  0  0  0
  186.4600  177.9960  144.8710 C   0  0  0  0  0  0  0  0  0  0  0  0
  185.5500  176.8760  136.4280 C   0  0  0  0  0  2  0  0  0  0  0  0
  186.3820  176.3170  135.3230 C   0  0  0  0  0  0  0  0  0  0  0  0
  186.9520  177.0910  134.5100 O   0  0  0  0  0  0  0  0  0  0  0  0
  186.5560  174.9430  135.2100 O   0  0  0  0  0  1  0  0  0  0  0  0
  191.9250  176.8910  139.4690 C   0  0  0  0  0  2  0  0  0  0  0  0
  190.8890  176.1640  138.6250 C   0  0  0  0  0  2  0  0  0  0  0  0
  190.8910  176.6840  137.2640 N   0  0  0  0  0  2  0  0  0  0  0  0
  191.0720  175.5690  136.3450 C   0  0  0  0  0  2  0  0  0  0  0  0
  192.3820  175.7150  135.5870 C   0  0  0  0  0  2  0  0  0  0  0  0
  193.2240  174.6400  135.9140 O   0  0  0  0  0  0  0  0  0  0  0  0
  196.8410  174.3210  137.7630 C   0  0  2  0  0  0  0  0  0  0  0  0
  198.7480  174.3750  135.1280 S   0  0  0  0  0  1  0  0  0  0  0  0
  195.6820  174.9530  135.9920 C   0  0  2  0  0  0  0  0  0  0  0  0
  194.1120  176.4280  137.0840 F   0  0  0  0  0  0  0  0  0  0  0  0
  194.9750  172.5130  135.1720 C   0  0  0  0  0  1  0  0  0  0  0  0
  196.0490  173.4880  135.6660 C   0  0  2  0  0  0  0  0  0  0  0  0
  194.2990  175.1010  136.7100 C   0  0  1  0  0  0  0  0  0  0  0  0
  195.6600  174.3230  138.7530 C   0  0  0  0  0  2  0  0  0  0  0  0
  196.8650  173.0570  136.8870 C   0  0  1  0  0  0  0  0  0  0  0  0
  198.1430  174.4710  138.5250 C   0  0  0  0  0  1  0  0  0  0  0  0
  197.5180  173.0680  135.4910 C   0  0  2  0  0  0  0  0  0  0  0  0
  194.3140  174.2610  138.0050 C   0  0  0  0  0  2  0  0  0  0  0  0
  195.7350  175.7190  134.8420 F   0  0  0  0  0  0  0  0  0  0  0  0
  196.4890  171.7070  137.5080 C   0  0  0  0  0  1  0  0  0  0  0  0
  196.6580  175.4130  136.8980 O   0  0  0  0  0  0  0  0  0  0  0  0
  197.7860  171.7020  134.8600 C   0  0  0  0  0  2  0  0  0  0  0  0
  199.1310  171.3640  135.0070 O   0  0  0  0  0  1  0  0  0  0  0  0
  2  3  2  0  0  0  0
  2  6  1  0  0  0  0
  3  5  1  0  0  0  0
  4  1  1  0  0  0  0
  5  7  1  0  0  0  0
  5  1  1  0  0  0  0
  6  4  1  0  0  0  0
  8  7  1  0  0  0  0
 10 23  1  0  0  0  0
 11 14  1  0  0  0  0
 12 15  1  0  0  0  0
 13 12  1  0  0  0  0
 13 11  1  0  0  0  0
 14  9  1  0  0  0  0
 15 20  2  0  0  0  0
 15  9  1  0  0  0  0
 16 22  2  0  0  0  0
 17 23  1  0  0  0  0
 18 16  1  0  0  0  0
 18 12  2  0  0  0  0
 19 29  1  1  0  0  0
 19 21  1  0  0  0  0
 19 17  1  0  0  0  0
 20 24  1  0  0  0  0
 21 10  1  0  0  0  0
 22  8  1  0  0  0  0
 22 20  1  0  0  0  0
 23 16  1  0  0  0  0
 24 28  1  0  0  0  0
 25 27  1  0  0  0  0
 26 28  2  0  0  0  0
 28 25  1  0  0  0  0
 30 29  1  0  0  0  0
 31 30  2  0  0  0  0
 32 30  1  0  0  0  0
 33  2  1  0  0  0  0
 34 33  1  0  0  0  0
 35 34  1  0  0  0  0
 36 35  1  0  0  0  0
 37 38  1  0  0  0  0
 37 36  1  0  0  0  0
 38 45  1  0  0  0  0
 39 48  1  1  0  0  0
 39 46  1  0  0  0  0
 41 51  1  6  0  0  0
 41 45  1  0  0  0  0
 41 53  1  0  0  0  0
 44 43  1  6  0  0  0
 44 41  1  0  0  0  0
 44 47  1  0  0  0  0
 45 42  1  1  0  0  0
 45 50  1  0  0  0  0
 47 52  1  1  0  0  0
 47 39  1  0  0  0  0
 49 40  1  6  0  0  0
 49 44  1  0  0  0  0
 49 47  1  0  0  0  0
 50 46  1  0  0  0  0
 53 39  1  0  0  0  0
 54 55  1  0  0  0  0
 54 49  1  0  0  0  0
M  END
>  <MODEL>
9

>  <REMARK>
 VINA RESULT:      -6.1      5.471      9.594
  Name = 
  15 active torsions:
  status: ('A' for Active; 'I' for Inactive)
    1  A    between atoms: N_2  and  C_28
    2  A    between atoms: N_2  and  N_44
    3  A    between atoms: C_8  and  O_22
    4  A    between atoms: C_8  and  C_43
    5  A    between atoms: C_10  and  C_32
    6  A    between atoms: C_11  and  C_38
    7  A    between atoms: C_19  and  C_40
    8  A    between atoms: C_19  and  C_45
    9  A    between atoms: C_20  and  O_22
   10  A    between atoms: C_27  and  C_54
   11  A    between atoms: C_28  and  C_49
   12  A    between atoms: C_32  and  C_39
   13  A    between atoms: N_35  and  C_43
   14  A    between atoms: N_35  and  C_51
   15  A    between atoms: C_51  and  C_54
                            x       y       z     vdW  Elec       q    Type
                         _______ _______ _______ _____ _____    ______ ____

>  <TORSDO>
F 15

$$$$
