=
 OpenBabel10272400143D

 31 34  0  0  1  0  0  0  0  0999 V2000
  184.3390  179.1060  144.5760 C   0  0  1  0  0  3  0  0  0  0  0  0
  187.6330  177.1700  143.9960 C   0  0  1  0  0  3  0  0  0  0  0  0
  188.6790  177.5730  145.0580 C   0  0  1  0  0  3  0  0  0  0  0  0
  188.8350  178.5340  147.3590 C   0  0  0  0  0  2  0  0  0  0  0  0
  186.5670  178.2810  143.8560 C   0  0  2  0  0  3  0  0  0  0  0  0
  183.5550  178.7730  142.9840 S   0  0  0  0  0  0  0  0  0  0  0  0
  188.0180  177.6430  146.4350 C   0  0  0  0  0  2  0  0  0  0  0  0
  188.6150  178.0680  141.8300 C   0  0  1  0  0  3  0  0  0  0  0  0
  183.3830  179.0170  145.5860 O   0  0  0  0  0  1  0  0  0  0  0  0
  190.4600  176.5150  143.7300 N   0  0  0  0  0  2  0  0  0  0  0  0
  189.8390  177.7430  148.2030 C   0  0  0  0  0  2  0  0  0  0  0  0
  187.3350  178.8060  141.4230 C   0  0  0  0  0  2  0  0  0  0  0  0
  188.2830  176.8010  142.6420 C   0  0  1  0  0  3  0  0  0  0  0  0
  185.3760  178.0250  144.7700 C   0  0  0  0  0  2  0  0  0  0  0  0
  190.5640  176.6180  147.4600 C   0  0  0  0  0  2  0  0  0  0  0  0
  186.2200  178.6570  142.4200 C   0  0  0  0  0  0  0  0  0  0  0  0
  185.0320  179.0030  142.0480 N   0  0  0  0  0  0  0  0  0  0  0  0
  189.4870  175.8810  142.8520 C   0  0  0  0  0  2  0  0  0  0  0  0
  189.8740  176.5940  145.0630 C   0  0  1  0  0  3  0  0  0  0  0  0
  190.9650  177.0090  146.0450 C   0  0  0  0  0  2  0  0  0  0  0  0
  189.4410  177.7720  140.5820 C   0  0  0  0  0  2  0  0  0  0  0  0
  188.7040  176.9930  139.6690 O   0  0  0  0  0  0  0  0  0  0  0  0
  189.2520  178.7760  138.3880 O   0  0  0  0  0  1  0  0  0  0  0  0
  188.9600  177.4090  138.3380 C   0  0  1  0  0  0  0  0  0  0  0  0
  190.3900  175.4580  138.3560 O   0  0  0  0  0  1  0  0  0  0  0  0
  190.2190  176.7200  137.7820 C   0  0  0  0  0  2  0  0  0  0  0  0
  187.7250  177.2210  137.4490 C   0  0  0  0  0  0  0  0  0  0  0  0
  186.7110  178.0760  137.5990 C   0  0  0  0  0  2  0  0  0  0  0  0
  187.5740  176.1140  136.5320 N   0  0  0  0  0  0  0  0  0  0  0  0
  187.1290  174.7990  136.9670 C   0  0  0  0  0  1  0  0  0  0  0  0
  187.7520  176.3080  135.1010 C   0  0  0  0  0  1  0  0  0  0  0  0
  1 14  1  0  0  0  0
  1  9  1  1  0  0  0
  2  3  1  0  0  0  0
  3 19  1  0  0  0  0
  3  7  1  0  0  0  0
  4 11  1  0  0  0  0
  5  2  1  0  0  0  0
  5 14  1  0  0  0  0
  6  1  1  0  0  0  0
  7  4  1  0  0  0  0
  8 13  1  0  0  0  0
 10 19  1  0  0  0  0
 12  8  1  0  0  0  0
 12 16  1  0  0  0  0
 13 18  1  0  0  0  0
 13  2  1  0  0  0  0
 15 11  1  0  0  0  0
 16  5  1  0  0  0  0
 17 16  2  0  0  0  0
 17  6  1  0  0  0  0
 18 10  1  0  0  0  0
 19 20  1  0  0  0  0
 20 15  1  0  0  0  0
 21  8  1  0  0  0  0
 22 21  1  0  0  0  0
 24 23  1  0  0  0  0
 24 22  1  0  0  0  0
 26 24  1  0  0  0  0
 26 25  1  0  0  0  0
 27 28  2  0  0  0  0
 27 24  1  0  0  0  0
 29 30  1  0  0  0  0
 29 27  1  0  0  0  0
 31 29  1  0  0  0  0
M  END
>  <MODEL>
1

>  <REMARK>
 VINA RESULT:      -8.9      0.000      0.000
  Name = 
  6 active torsions:
  status: ('A' for Active; 'I' for Inactive)
    1  A    between atoms: N_1  and  C_19
    2  A    between atoms: C_7  and  C_22
    3  A    between atoms: O_9  and  C_22
    4  A    between atoms: O_9  and  C_23
    5  A    between atoms: C_15  and  C_23
    6  A    between atoms: C_19  and  C_22
                            x       y       z     vdW  Elec       q    Type
                         _______ _______ _______ _____ _____    ______ ____

>  <TORSDO>
F 6

$$$$
=
 OpenBabel10272400143D

 31 34  0  0  1  0  0  0  0  0999 V2000
  184.6740  178.9250  145.2210 C   0  0  1  0  0  3  0  0  0  0  0  0
  187.8580  177.0810  144.0440 C   0  0  1  0  0  3  0  0  0  0  0  0
  189.0490  177.4390  144.9610 C   0  0  1  0  0  3  0  0  0  0  0  0
  189.5390  178.2670  147.2660 C   0  0  0  0  0  2  0  0  0  0  0  0
  186.7750  178.1790  144.1310 C   0  0  2  0  0  3  0  0  0  0  0  0
  183.6620  178.6720  143.7470 S   0  0  0  0  0  0  0  0  0  0  0  0
  188.6000  177.4180  146.4230 C   0  0  0  0  0  2  0  0  0  0  0  0
  188.4990  178.1170  141.8140 C   0  0  1  0  0  3  0  0  0  0  0  0
  183.8800  178.7630  146.3560 O   0  0  0  0  0  1  0  0  0  0  0  0
  190.6190  176.4880  143.3230 N   0  0  0  0  0  2  0  0  0  0  0  0
  190.6640  177.4460  147.9020 C   0  0  0  0  0  2  0  0  0  0  0  0
  187.1670  178.8560  141.6460 C   0  0  0  0  0  2  0  0  0  0  0  0
  188.3020  176.8010  142.5900 C   0  0  1  0  0  3  0  0  0  0  0  0
  185.7360  177.8520  145.1950 C   0  0  0  0  0  2  0  0  0  0  0  0
  191.2780  176.3780  146.9950 C   0  0  0  0  0  2  0  0  0  0  0  0
  186.2140  178.6320  142.7870 C   0  0  0  0  0  0  0  0  0  0  0  0
  184.9810  178.9800  142.6170 N   0  0  0  0  0  0  0  0  0  0  0  0
  189.5300  175.8890  142.5620 C   0  0  0  0  0  2  0  0  0  0  0  0
  190.2380  176.4810  144.7300 C   0  0  1  0  0  3  0  0  0  0  0  0
  191.4600  176.8560  145.5620 C   0  0  0  0  0  2  0  0  0  0  0  0
  189.1310  177.9070  140.4410 C   0  0  0  0  0  2  0  0  0  0  0  0
  188.3040  177.1090  139.6280 O   0  0  0  0  0  0  0  0  0  0  0  0
  187.0630  178.4610  138.3030 O   0  0  0  0  0  1  0  0  0  0  0  0
  188.2080  177.6580  138.3240 C   0  0  1  0  0  0  0  0  0  0  0  0
  188.9550  179.8120  137.5150 O   0  0  0  0  0  1  0  0  0  0  0  0
  189.3950  178.5920  138.0340 C   0  0  0  0  0  2  0  0  0  0  0  0
  188.0320  176.5580  137.2690 C   0  0  0  0  0  0  0  0  0  0  0  0
  186.7920  176.1490  136.9930 C   0  0  0  0  0  2  0  0  0  0  0  0
  189.1450  175.8860  136.6380 N   0  0  0  0  0  0  0  0  0  0  0  0
  189.5490  176.1660  135.2690 C   0  0  0  0  0  1  0  0  0  0  0  0
  189.9890  174.9770  137.3990 C   0  0  0  0  0  1  0  0  0  0  0  0
  1  9  1  1  0  0  0
  2  5  1  0  0  0  0
  2  3  1  0  0  0  0
  3  7  1  0  0  0  0
  4 11  1  0  0  0  0
  5 14  1  0  0  0  0
  6  1  1  0  0  0  0
  7  4  1  0  0  0  0
  8 13  1  0  0  0  0
 10 19  1  0  0  0  0
 12  8  1  0  0  0  0
 12 16  1  0  0  0  0
 13  2  1  0  0  0  0
 14  1  1  0  0  0  0
 15 11  1  0  0  0  0
 16  5  1  0  0  0  0
 17 16  2  0  0  0  0
 17  6  1  0  0  0  0
 18 13  1  0  0  0  0
 18 10  1  0  0  0  0
 19  3  1  0  0  0  0
 19 20  1  0  0  0  0
 20 15  1  0  0  0  0
 21  8  1  0  0  0  0
 22 21  1  0  0  0  0
 23 24  1  0  0  0  0
 24 22  1  0  0  0  0
 25 26  1  0  0  0  0
 26 24  1  0  0  0  0
 27 24  1  0  0  0  0
 28 27  2  0  0  0  0
 29 27  1  0  0  0  0
 29 31  1  0  0  0  0
 30 29  1  0  0  0  0
M  END
>  <MODEL>
2

>  <REMARK>
 VINA RESULT:      -8.7      1.032      1.488
  Name = 
  6 active torsions:
  status: ('A' for Active; 'I' for Inactive)
    1  A    between atoms: N_1  and  C_19
    2  A    between atoms: C_7  and  C_22
    3  A    between atoms: O_9  and  C_22
    4  A    between atoms: O_9  and  C_23
    5  A    between atoms: C_15  and  C_23
    6  A    between atoms: C_19  and  C_22
                            x       y       z     vdW  Elec       q    Type
                         _______ _______ _______ _____ _____    ______ ____

>  <TORSDO>
F 6

$$$$
=
 OpenBabel10272400143D

 31 34  0  0  1  0  0  0  0  0999 V2000
  189.9030  176.9200  146.8430 C   0  0  1  0  0  3  0  0  0  0  0  0
  188.2930  178.2530  143.5930 C   0  0  1  0  0  3  0  0  0  0  0  0
  186.7610  178.0550  143.6400 C   0  0  1  0  0  3  0  0  0  0  0  0
  184.8930  177.7700  145.2730 C   0  0  0  0  0  2  0  0  0  0  0  0
  188.9820  177.2680  144.5640 C   0  0  2  0  0  3  0  0  0  0  0  0
  191.6200  176.8740  146.2860 S   0  0  0  0  0  0  0  0  0  0  0  0
  186.2310  178.4460  145.0200 C   0  0  0  0  0  2  0  0  0  0  0  0
  189.0330  176.6830  141.7350 C   0  0  1  0  0  3  0  0  0  0  0  0
  189.8580  177.3900  148.1540 O   0  0  0  0  0  1  0  0  0  0  0  0
  186.6130  178.5020  141.2250 N   0  0  0  0  0  2  0  0  0  0  0  0
  183.7040  178.6540  144.8870 C   0  0  0  0  0  2  0  0  0  0  0  0
  190.1090  176.0010  142.5860 C   0  0  0  0  0  2  0  0  0  0  0  0
  188.8530  178.1550  142.1550 C   0  0  1  0  0  3  0  0  0  0  0  0
  189.1910  177.8950  145.9360 C   0  0  0  0  0  2  0  0  0  0  0  0
  183.8790  179.4410  143.5860 C   0  0  0  0  0  2  0  0  0  0  0  0
  190.1930  176.5420  143.9860 C   0  0  0  0  0  0  0  0  0  0  0  0
  191.2330  176.2340  144.6880 N   0  0  0  0  0  0  0  0  0  0  0  0
  187.9930  178.9640  141.1810 C   0  0  0  0  0  2  0  0  0  0  0  0
  186.0610  178.8630  142.5250 C   0  0  1  0  0  3  0  0  0  0  0  0
  184.5540  178.6280  142.4920 C   0  0  0  0  0  2  0  0  0  0  0  0
  189.3870  176.5270  140.2600 C   0  0  0  0  0  2  0  0  0  0  0  0
  190.7100  176.0670  140.1100 O   0  0  0  0  0  0  0  0  0  0  0  0
  190.8490  174.9320  138.1580 O   0  0  0  0  0  1  0  0  0  0  0  0
  191.1220  176.1660  138.7570 C   0  0  1  0  0  0  0  0  0  0  0  0
  189.9760  176.7650  136.7120 O   0  0  0  0  0  1  0  0  0  0  0  0
  190.2790  177.2080  138.0030 C   0  0  0  0  0  2  0  0  0  0  0  0
  192.6310  176.4180  138.6530 C   0  0  0  0  0  0  0  0  0  0  0  0
  193.1740  177.3150  139.4770 C   0  0  0  0  0  2  0  0  0  0  0  0
  193.4650  175.8020  137.6450 N   0  0  0  0  0  0  0  0  0  0  0  0
  193.5560  176.3170  136.2880 C   0  0  0  0  0  1  0  0  0  0  0  0
  194.3480  174.6980  137.9890 C   0  0  0  0  0  1  0  0  0  0  0  0
  1  9  1  1  0  0  0
  2  3  1  0  0  0  0
  2  5  1  0  0  0  0
  3  7  1  0  0  0  0
  5 14  1  0  0  0  0
  6  1  1  0  0  0  0
  7  4  1  0  0  0  0
  8 13  1  0  0  0  0
  8 12  1  0  0  0  0
 10 19  1  0  0  0  0
 11  4  1  0  0  0  0
 12 16  1  0  0  0  0
 13  2  1  0  0  0  0
 14  1  1  0  0  0  0
 15 11  1  0  0  0  0
 16  5  1  0  0  0  0
 16 17  2  0  0  0  0
 17  6  1  0  0  0  0
 18 10  1  0  0  0  0
 18 13  1  0  0  0  0
 19  3  1  0  0  0  0
 20 19  1  0  0  0  0
 20 15  1  0  0  0  0
 21  8  1  0  0  0  0
 22 21  1  0  0  0  0
 23 24  1  0  0  0  0
 24 22  1  0  0  0  0
 25 26  1  0  0  0  0
 26 24  1  0  0  0  0
 27 24  1  0  0  0  0
 27 28  2  0  0  0  0
 29 31  1  0  0  0  0
 29 27  1  0  0  0  0
 30 29  1  0  0  0  0
M  END
>  <MODEL>
3

>  <REMARK>
 VINA RESULT:      -7.8      2.853      5.103
  Name = 
  6 active torsions:
  status: ('A' for Active; 'I' for Inactive)
    1  A    between atoms: N_1  and  C_19
    2  A    between atoms: C_7  and  C_22
    3  A    between atoms: O_9  and  C_22
    4  A    between atoms: O_9  and  C_23
    5  A    between atoms: C_15  and  C_23
    6  A    between atoms: C_19  and  C_22
                            x       y       z     vdW  Elec       q    Type
                         _______ _______ _______ _____ _____    ______ ____

>  <TORSDO>
F 6

$$$$
=
 OpenBabel10272400143D

 31 34  0  0  1  0  0  0  0  0999 V2000
  189.9350  176.9050  146.7830 C   0  0  1  0  0  3  0  0  0  0  0  0
  188.2720  178.2630  143.5710 C   0  0  1  0  0  3  0  0  0  0  0  0
  186.7400  178.0830  143.6500 C   0  0  1  0  0  3  0  0  0  0  0  0
  184.9030  177.8140  145.3220 C   0  0  0  0  0  2  0  0  0  0  0  0
  188.9710  177.2690  144.5250 C   0  0  2  0  0  3  0  0  0  0  0  0
  191.6400  176.8410  146.1900 S   0  0  0  0  0  0  0  0  0  0  0  0
  186.2430  178.4760  145.0420 C   0  0  0  0  0  2  0  0  0  0  0  0
  188.9550  176.6910  141.6950 C   0  0  1  0  0  3  0  0  0  0  0  0
  189.9230  177.3730  148.0960 O   0  0  0  0  0  1  0  0  0  0  0  0
  186.5450  178.5380  141.2400 N   0  0  0  0  0  2  0  0  0  0  0  0
  183.7160  178.7120  144.9620 C   0  0  0  0  0  2  0  0  0  0  0  0
  190.0420  175.9940  142.5210 C   0  0  0  0  0  2  0  0  0  0  0  0
  188.8000  178.1630  142.1210 C   0  0  1  0  0  3  0  0  0  0  0  0
  189.2150  177.8910  145.8940 C   0  0  0  0  0  2  0  0  0  0  0  0
  183.8720  179.5010  143.6600 C   0  0  0  0  0  2  0  0  0  0  0  0
  190.1600  176.5310  143.9200 C   0  0  0  0  0  0  0  0  0  0  0  0
  191.2120  176.2100  144.6000 N   0  0  0  0  0  0  0  0  0  0  0  0
  187.9290  178.9840  141.1680 C   0  0  0  0  0  2  0  0  0  0  0  0
  186.0250  178.9020  142.5520 C   0  0  1  0  0  3  0  0  0  0  0  0
  184.5150  178.6830  142.5500 C   0  0  0  0  0  2  0  0  0  0  0  0
  189.2760  176.5340  140.2120 C   0  0  0  0  0  2  0  0  0  0  0  0
  190.5500  175.9600  140.0350 O   0  0  0  0  0  0  0  0  0  0  0  0
  190.4080  177.6010  138.4840 O   0  0  0  0  0  1  0  0  0  0  0  0
  191.2100  176.5420  138.9240 C   0  0  1  0  0  0  0  0  0  0  0  0
  192.4720  177.6850  140.6420 O   0  0  0  0  0  1  0  0  0  0  0  0
  192.5510  177.1660  139.3480 C   0  0  0  0  0  2  0  0  0  0  0  0
  191.3450  175.5410  137.7700 C   0  0  0  0  0  0  0  0  0  0  0  0
  192.5000  174.8840  137.6450 C   0  0  0  0  0  2  0  0  0  0  0  0
  190.3220  175.3510  136.7670 N   0  0  0  0  0  0  0  0  0  0  0  0
  190.4060  175.9550  135.4460 C   0  0  0  0  0  1  0  0  0  0  0  0
  189.2130  174.4410  137.0040 C   0  0  0  0  0  1  0  0  0  0  0  0
  1  9  1  1  0  0  0
  2  3  1  0  0  0  0
  2  5  1  0  0  0  0
  3  7  1  0  0  0  0
  5 14  1  0  0  0  0
  6  1  1  0  0  0  0
  7  4  1  0  0  0  0
  8 13  1  0  0  0  0
  8 12  1  0  0  0  0
 10 19  1  0  0  0  0
 11  4  1  0  0  0  0
 12 16  1  0  0  0  0
 13  2  1  0  0  0  0
 14  1  1  0  0  0  0
 15 11  1  0  0  0  0
 16  5  1  0  0  0  0
 16 17  2  0  0  0  0
 17  6  1  0  0  0  0
 18 10  1  0  0  0  0
 18 13  1  0  0  0  0
 19  3  1  0  0  0  0
 20 19  1  0  0  0  0
 20 15  1  0  0  0  0
 21  8  1  0  0  0  0
 22 21  1  0  0  0  0
 23 24  1  0  0  0  0
 24 26  1  0  0  0  0
 24 22  1  0  0  0  0
 26 25  1  0  0  0  0
 27 24  1  0  0  0  0
 28 27  2  0  0  0  0
 29 31  1  0  0  0  0
 29 27  1  0  0  0  0
 30 29  1  0  0  0  0
M  END
>  <MODEL>
4

>  <REMARK>
 VINA RESULT:      -7.5      2.645      4.732
  Name = 
  6 active torsions:
  status: ('A' for Active; 'I' for Inactive)
    1  A    between atoms: N_1  and  C_19
    2  A    between atoms: C_7  and  C_22
    3  A    between atoms: O_9  and  C_22
    4  A    between atoms: O_9  and  C_23
    5  A    between atoms: C_15  and  C_23
    6  A    between atoms: C_19  and  C_22
                            x       y       z     vdW  Elec       q    Type
                         _______ _______ _______ _____ _____    ______ ____

>  <TORSDO>
F 6

$$$$
=
 OpenBabel10272400143D

 31 34  0  0  1  0  0  0  0  0999 V2000
  183.9680  179.0370  140.8340 C   0  0  1  0  0  3  0  0  0  0  0  0
  186.8690  177.4080  142.8000 C   0  0  1  0  0  3  0  0  0  0  0  0
  187.0010  178.0640  144.1920 C   0  0  1  0  0  3  0  0  0  0  0  0
  185.6590  179.3420  145.8680 C   0  0  0  0  0  2  0  0  0  0  0  0
  186.1400  178.3670  141.8310 C   0  0  2  0  0  3  0  0  0  0  0  0
  184.3750  178.4060  139.1930 S   0  0  0  0  0  0  0  0  0  0  0  0
  185.6140  178.2500  144.8100 C   0  0  0  0  0  2  0  0  0  0  0  0
  189.0090  178.1020  141.6160 C   0  0  1  0  0  3  0  0  0  0  0  0
  182.5870  178.9840  141.0170 O   0  0  0  0  0  1  0  0  0  0  0  0
  189.2150  177.0330  144.4870 N   0  0  0  0  0  2  0  0  0  0  0  0
  185.8930  178.7880  147.2760 C   0  0  0  0  0  2  0  0  0  0  0  0
  188.2840  178.6340  140.3750 C   0  0  0  0  0  2  0  0  0  0  0  0
  188.2310  176.9300  142.2460 C   0  0  1  0  0  3  0  0  0  0  0  0
  184.6390  178.1110  141.8220 C   0  0  0  0  0  2  0  0  0  0  0  0
  186.9200  177.6570  147.3640 C   0  0  0  0  0  2  0  0  0  0  0  0
  186.7890  178.5030  140.4580 C   0  0  0  0  0  0  0  0  0  0  0  0
  186.1110  178.6640  139.3690 N   0  0  0  0  0  0  0  0  0  0  0  0
  189.0220  176.1820  143.3210 C   0  0  0  0  0  2  0  0  0  0  0  0
  187.9150  177.2300  145.1170 C   0  0  1  0  0  3  0  0  0  0  0  0
  188.1320  177.8910  146.4740 C   0  0  0  0  0  2  0  0  0  0  0  0
  190.4390  177.7290  141.2400 C   0  0  0  0  0  2  0  0  0  0  0  0
  190.6940  178.0310  139.8880 O   0  0  0  0  0  0  0  0  0  0  0  0
  190.5270  175.7760  139.9560 O   0  0  0  0  0  1  0  0  0  0  0  0
  190.9240  176.8450  139.1460 C   0  0  1  0  0  0  0  0  0  0  0  0
  189.7520  178.0840  137.4310 O   0  0  0  0  0  1  0  0  0  0  0  0
  190.0260  176.7960  137.8980 C   0  0  0  0  0  2  0  0  0  0  0  0
  192.4140  176.6680  138.8280 C   0  0  0  0  0  0  0  0  0  0  0  0
  193.2960  177.3290  139.5800 C   0  0  0  0  0  2  0  0  0  0  0  0
  192.8930  175.9010  137.7010 N   0  0  0  0  0  0  0  0  0  0  0  0
  193.5860  176.5150  136.5790 C   0  0  0  0  0  1  0  0  0  0  0  0
  192.8050  174.4480  137.7030 C   0  0  0  0  0  1  0  0  0  0  0  0
  1  9  1  1  0  0  0
  1 14  1  0  0  0  0
  2  3  1  0  0  0  0
  3  7  1  0  0  0  0
  3 19  1  0  0  0  0
  4 11  1  0  0  0  0
  5  2  1  0  0  0  0
  6 17  1  0  0  0  0
  6  1  1  0  0  0  0
  7  4  1  0  0  0  0
  8 13  1  0  0  0  0
 10 19  1  0  0  0  0
 11 15  1  0  0  0  0
 12 16  1  0  0  0  0
 12  8  1  0  0  0  0
 13  2  1  0  0  0  0
 13 18  1  0  0  0  0
 14  5  1  0  0  0  0
 16  5  1  0  0  0  0
 17 16  2  0  0  0  0
 18 10  1  0  0  0  0
 19 20  1  0  0  0  0
 20 15  1  0  0  0  0
 21  8  1  0  0  0  0
 22 21  1  0  0  0  0
 24 22  1  0  0  0  0
 24 23  1  0  0  0  0
 25 26  1  0  0  0  0
 26 24  1  0  0  0  0
 27 24  1  0  0  0  0
 27 28  2  0  0  0  0
 29 31  1  0  0  0  0
 29 27  1  0  0  0  0
 30 29  1  0  0  0  0
M  END
>  <MODEL>
5

>  <REMARK>
 VINA RESULT:      -7.4      2.303      3.455
  Name = 
  6 active torsions:
  status: ('A' for Active; 'I' for Inactive)
    1  A    between atoms: N_1  and  C_19
    2  A    between atoms: C_7  and  C_22
    3  A    between atoms: O_9  and  C_22
    4  A    between atoms: O_9  and  C_23
    5  A    between atoms: C_15  and  C_23
    6  A    between atoms: C_19  and  C_22
                            x       y       z     vdW  Elec       q    Type
                         _______ _______ _______ _____ _____    ______ ____

>  <TORSDO>
F 6

$$$$
=
 OpenBabel10272400143D

 31 34  0  0  1  0  0  0  0  0999 V2000
  183.1060  178.7210  142.8550 C   0  0  1  0  0  3  0  0  0  0  0  0
  186.5460  178.6640  141.0950 C   0  0  1  0  0  3  0  0  0  0  0  0
  186.4360  177.9340  139.7380 C   0  0  1  0  0  3  0  0  0  0  0  0
  184.7530  177.3330  137.9920 C   0  0  0  0  0  2  0  0  0  0  0  0
  185.3930  178.2250  142.0260 C   0  0  2  0  0  3  0  0  0  0  0  0
  183.6640  179.1910  144.5070 S   0  0  0  0  0  0  0  0  0  0  0  0
  185.1670  178.3830  139.0110 C   0  0  0  0  0  2  0  0  0  0  0  0
  188.0250  177.1230  142.4730 C   0  0  1  0  0  3  0  0  0  0  0  0
  181.9290  179.4050  142.5560 O   0  0  0  0  0  1  0  0  0  0  0  0
  188.8870  177.7820  139.6010 N   0  0  0  0  0  2  0  0  0  0  0  0
  185.3070  177.6190  136.5930 C   0  0  0  0  0  2  0  0  0  0  0  0
  187.0610  177.0760  143.6640 C   0  0  0  0  0  2  0  0  0  0  0  0
  187.9360  178.4800  141.7480 C   0  0  1  0  0  3  0  0  0  0  0  0
  184.1940  179.1560  141.9020 C   0  0  0  0  0  2  0  0  0  0  0  0
  186.7510  178.1260  136.5600 C   0  0  0  0  0  2  0  0  0  0  0  0
  185.8150  177.8880  143.4520 C   0  0  0  0  0  0  0  0  0  0  0  0
  185.0770  178.1360  144.4840 N   0  0  0  0  0  0  0  0  0  0  0  0
  189.0500  178.6960  140.7230 C   0  0  0  0  0  2  0  0  0  0  0  0
  187.6900  178.1790  138.8710 C   0  0  1  0  0  3  0  0  0  0  0  0
  187.6500  177.4070  137.5550 C   0  0  0  0  0  2  0  0  0  0  0  0
  189.4360  176.8030  142.9590 C   0  0  0  0  0  2  0  0  0  0  0  0
  189.4360  176.5200  144.3380 O   0  0  0  0  0  0  0  0  0  0  0  0
  191.6780  176.6850  144.6020 O   0  0  0  0  0  1  0  0  0  0  0  0
  190.4600  177.2490  144.9960 C   0  0  1  0  0  0  0  0  0  0  0  0
  191.7480  179.0510  144.0230 O   0  0  0  0  0  1  0  0  0  0  0  0
  190.4860  178.7110  144.5160 C   0  0  0  0  0  2  0  0  0  0  0  0
  190.3480  177.1140  146.5200 C   0  0  0  0  0  0  0  0  0  0  0  0
  191.2830  176.4050  147.1540 C   0  0  0  0  0  2  0  0  0  0  0  0
  189.2320  177.6350  147.2770 N   0  0  0  0  0  0  0  0  0  0  0  0
  187.8500  177.3900  146.8960 C   0  0  0  0  0  1  0  0  0  0  0  0
  189.4530  178.3350  148.5330 C   0  0  0  0  0  1  0  0  0  0  0  0
  1  9  1  6  0  0  0
  1  6  1  0  0  0  0
  2 13  1  0  0  0  0
  2  5  1  0  0  0  0
  3  2  1  0  0  0  0
  4  7  1  0  0  0  0
  5 16  1  0  0  0  0
  7  3  1  0  0  0  0
  8 21  1  0  0  0  0
  8 12  1  0  0  0  0
 10 18  1  0  0  0  0
 11  4  1  0  0  0  0
 13  8  1  0  0  0  0
 14  5  1  0  0  0  0
 14  1  1  0  0  0  0
 15 11  1  0  0  0  0
 15 20  1  0  0  0  0
 16 12  1  0  0  0  0
 16 17  2  0  0  0  0
 17  6  1  0  0  0  0
 18 13  1  0  0  0  0
 19 10  1  0  0  0  0
 19  3  1  0  0  0  0
 20 19  1  0  0  0  0
 21 22  1  0  0  0  0
 22 24  1  0  0  0  0
 23 24  1  0  0  0  0
 24 27  1  0  0  0  0
 25 26  1  0  0  0  0
 26 24  1  0  0  0  0
 27 28  2  0  0  0  0
 27 29  1  0  0  0  0
 29 31  1  0  0  0  0
 30 29  1  0  0  0  0
M  END
>  <MODEL>
6

>  <REMARK>
 VINA RESULT:      -7.2      2.496      7.102
  Name = 
  6 active torsions:
  status: ('A' for Active; 'I' for Inactive)
    1  A    between atoms: N_1  and  C_19
    2  A    between atoms: C_7  and  C_22
    3  A    between atoms: O_9  and  C_22
    4  A    between atoms: O_9  and  C_23
    5  A    between atoms: C_15  and  C_23
    6  A    between atoms: C_19  and  C_22
                            x       y       z     vdW  Elec       q    Type
                         _______ _______ _______ _____ _____    ______ ____

>  <TORSDO>
F 6

$$$$
=
 OpenBabel10272400143D

 31 34  0  0  1  0  0  0  0  0999 V2000
  189.8880  176.7320  146.5210 C   0  0  1  0  0  3  0  0  0  0  0  0
  188.2910  178.3310  143.3870 C   0  0  1  0  0  3  0  0  0  0  0  0
  186.7600  178.1330  143.4120 C   0  0  1  0  0  3  0  0  0  0  0  0
  184.8840  177.7150  145.0090 C   0  0  0  0  0  2  0  0  0  0  0  0
  188.9760  177.2690  144.2760 C   0  0  2  0  0  3  0  0  0  0  0  0
  191.6070  176.7300  145.9690 S   0  0  0  0  0  0  0  0  0  0  0  0
  186.2240  178.4090  144.8180 C   0  0  0  0  0  2  0  0  0  0  0  0
  189.0370  176.9200  141.4090 C   0  0  1  0  0  3  0  0  0  0  0  0
  189.8390  177.0920  147.8670 O   0  0  0  0  0  1  0  0  0  0  0  0
  186.6200  178.7780  141.0420 N   0  0  0  0  0  2  0  0  0  0  0  0
  183.6980  178.6300  144.6930 C   0  0  0  0  0  2  0  0  0  0  0  0
  190.1100  176.1680  142.2040 C   0  0  0  0  0  2  0  0  0  0  0  0
  188.8560  178.3520  141.9480 C   0  0  1  0  0  3  0  0  0  0  0  0
  189.1800  177.7800  145.6960 C   0  0  0  0  0  2  0  0  0  0  0  0
  183.8780  179.5210  143.4620 C   0  0  0  0  0  2  0  0  0  0  0  0
  190.1880  176.5910  143.6450 C   0  0  0  0  0  0  0  0  0  0  0  0
  191.2250  176.2250  144.3230 N   0  0  0  0  0  0  0  0  0  0  0  0
  188.0010  179.2400  141.0410 C   0  0  0  0  0  2  0  0  0  0  0  0
  186.0640  179.0310  142.3650 C   0  0  1  0  0  3  0  0  0  0  0  0
  184.5570  178.8010  142.3070 C   0  0  0  0  0  2  0  0  0  0  0  0
  189.3960  176.8850  139.9270 C   0  0  0  0  0  2  0  0  0  0  0  0
  188.2700  176.5570  139.1480 O   0  0  0  0  0  0  0  0  0  0  0  0
  187.1240  177.9670  137.7980 O   0  0  0  0  0  1  0  0  0  0  0  0
  188.3110  177.2330  137.9020 C   0  0  1  0  0  0  0  0  0  0  0  0
  188.9700  179.5420  137.6090 O   0  0  0  0  0  1  0  0  0  0  0  0
  189.4560  178.2600  137.8740 C   0  0  0  0  0  2  0  0  0  0  0  0
  188.3570  176.2420  136.7330 C   0  0  0  0  0  0  0  0  0  0  0  0
  188.7180  176.7060  135.5350 C   0  0  0  0  0  2  0  0  0  0  0  0
  187.9380  174.8640  136.8510 N   0  0  0  0  0  0  0  0  0  0  0  0
  188.8890  173.7690  136.9730 C   0  0  0  0  0  1  0  0  0  0  0  0
  186.5290  174.5260  136.9730 C   0  0  0  0  0  1  0  0  0  0  0  0
  1  9  1  1  0  0  0
  2  3  1  0  0  0  0
  2  5  1  0  0  0  0
  3  7  1  0  0  0  0
  5 14  1  0  0  0  0
  6  1  1  0  0  0  0
  7  4  1  0  0  0  0
  8 13  1  0  0  0  0
  8 12  1  0  0  0  0
 10 19  1  0  0  0  0
 11  4  1  0  0  0  0
 12 16  1  0  0  0  0
 13  2  1  0  0  0  0
 14  1  1  0  0  0  0
 15 11  1  0  0  0  0
 16  5  1  0  0  0  0
 16 17  2  0  0  0  0
 17  6  1  0  0  0  0
 18 10  1  0  0  0  0
 18 13  1  0  0  0  0
 19  3  1  0  0  0  0
 20 19  1  0  0  0  0
 20 15  1  0  0  0  0
 21  8  1  0  0  0  0
 22 21  1  0  0  0  0
 23 24  1  0  0  0  0
 24 22  1  0  0  0  0
 25 26  1  0  0  0  0
 26 24  1  0  0  0  0
 27 29  1  0  0  0  0
 27 24  1  0  0  0  0
 28 27  2  0  0  0  0
 29 31  1  0  0  0  0
 29 30  1  0  0  0  0
M  END
>  <MODEL>
7

>  <REMARK>
 VINA RESULT:      -7.0      2.379      4.498
  Name = 
  6 active torsions:
  status: ('A' for Active; 'I' for Inactive)
    1  A    between atoms: N_1  and  C_19
    2  A    between atoms: C_7  and  C_22
    3  A    between atoms: O_9  and  C_22
    4  A    between atoms: O_9  and  C_23
    5  A    between atoms: C_15  and  C_23
    6  A    between atoms: C_19  and  C_22
                            x       y       z     vdW  Elec       q    Type
                         _______ _______ _______ _____ _____    ______ ____

>  <TORSDO>
F 6

$$$$
=
 OpenBabel10272400143D

 31 34  0  0  1  0  0  0  0  0999 V2000
  185.7860  177.8340  146.2470 C   0  0  1  0  0  3  0  0  0  0  0  0
  186.7250  178.6400  142.5860 C   0  0  1  0  0  3  0  0  0  0  0  0
  185.5730  178.2340  141.6410 C   0  0  1  0  0  3  0  0  0  0  0  0
  183.1080  177.8300  141.6510 C   0  0  0  0  0  2  0  0  0  0  0  0
  186.6250  177.8500  143.9110 C   0  0  2  0  0  3  0  0  0  0  0  0
  187.4290  177.9820  146.9790 S   0  0  0  0  0  0  0  0  0  0  0  0
  184.2340  178.6640  142.2420 C   0  0  0  0  0  2  0  0  0  0  0  0
  188.5950  177.0360  141.9610 C   0  0  1  0  0  3  0  0  0  0  0  0
  184.8470  178.4050  147.1050 O   0  0  0  0  0  1  0  0  0  0  0  0
  187.0690  178.4450  139.6990 N   0  0  0  0  0  2  0  0  0  0  0  0
  182.4500  178.5000  140.4420 C   0  0  0  0  0  2  0  0  0  0  0  0
  188.8480  176.5890  143.4040 C   0  0  0  0  0  2  0  0  0  0  0  0
  188.1110  178.4990  141.9160 C   0  0  1  0  0  3  0  0  0  0  0  0
  185.8250  178.6170  144.9560 C   0  0  0  0  0  2  0  0  0  0  0  0
  183.4190  179.1890  139.4780 C   0  0  0  0  0  2  0  0  0  0  0  0
  187.9410  177.2550  144.4010 C   0  0  0  0  0  0  0  0  0  0  0  0
  188.2500  177.1580  145.6520 N   0  0  0  0  0  0  0  0  0  0  0  0
  188.0950  179.0910  140.5050 C   0  0  0  0  0  2  0  0  0  0  0  0
  185.7700  178.8360  140.2320 C   0  0  1  0  0  3  0  0  0  0  0  0
  184.6920  178.3880  139.2500 C   0  0  0  0  0  2  0  0  0  0  0  0
  189.8570  176.8040  141.1360 C   0  0  0  0  0  2  0  0  0  0  0  0
  189.5530  176.1340  139.9360 O   0  0  0  0  0  0  0  0  0  0  0  0
  190.5400  178.0420  139.2260 O   0  0  0  0  0  1  0  0  0  0  0  0
  190.2320  176.7320  138.8440 C   0  0  1  0  0  0  0  0  0  0  0  0
  191.8150  175.9030  137.2140 O   0  0  0  0  0  1  0  0  0  0  0  0
  191.5770  176.0320  138.5850 C   0  0  0  0  0  2  0  0  0  0  0  0
  189.3350  176.8010  137.6020 C   0  0  0  0  0  0  0  0  0  0  0  0
  189.3660  177.9160  136.8700 C   0  0  0  0  0  2  0  0  0  0  0  0
  188.3980  175.7600  137.2480 N   0  0  0  0  0  0  0  0  0  0  0  0
  186.9830  176.0240  137.0370 C   0  0  0  0  0  1  0  0  0  0  0  0
  188.8620  174.4090  136.9690 C   0  0  0  0  0  1  0  0  0  0  0  0
  1  6  1  0  0  0  0
  1  9  1  1  0  0  0
  2  5  1  0  0  0  0
  3  7  1  0  0  0  0
  3  2  1  0  0  0  0
  4  7  1  0  0  0  0
  5 16  1  0  0  0  0
  5 14  1  0  0  0  0
  8 12  1  0  0  0  0
 10 19  1  0  0  0  0
 10 18  1  0  0  0  0
 11  4  1  0  0  0  0
 12 16  1  0  0  0  0
 13  8  1  0  0  0  0
 13  2  1  0  0  0  0
 14  1  1  0  0  0  0
 15 11  1  0  0  0  0
 16 17  2  0  0  0  0
 17  6  1  0  0  0  0
 18 13  1  0  0  0  0
 19  3  1  0  0  0  0
 20 15  1  0  0  0  0
 20 19  1  0  0  0  0
 21  8  1  0  0  0  0
 22 21  1  0  0  0  0
 24 23  1  0  0  0  0
 24 22  1  0  0  0  0
 25 26  1  0  0  0  0
 26 24  1  0  0  0  0
 27 24  1  0  0  0  0
 28 27  2  0  0  0  0
 29 27  1  0  0  0  0
 30 29  1  0  0  0  0
 31 29  1  0  0  0  0
M  END
>  <MODEL>
8

>  <REMARK>
 VINA RESULT:      -6.5      2.233      4.668
  Name = 
  6 active torsions:
  status: ('A' for Active; 'I' for Inactive)
    1  A    between atoms: N_1  and  C_19
    2  A    between atoms: C_7  and  C_22
    3  A    between atoms: O_9  and  C_22
    4  A    between atoms: O_9  and  C_23
    5  A    between atoms: C_15  and  C_23
    6  A    between atoms: C_19  and  C_22
                            x       y       z     vdW  Elec       q    Type
                         _______ _______ _______ _____ _____    ______ ____

>  <TORSDO>
F 6

$$$$
=
 OpenBabel10272400143D

 31 34  0  0  1  0  0  0  0  0999 V2000
  183.8580  178.1580  138.3450 C   0  0  1  0  0  3  0  0  0  0  0  0
  187.6590  177.5090  138.1000 C   0  0  1  0  0  3  0  0  0  0  0  0
  187.9220  176.0370  137.7130 C   0  0  1  0  0  3  0  0  0  0  0  0
  186.8140  174.1000  136.5890 C   0  0  0  0  0  2  0  0  0  0  0  0
  186.2550  177.6460  138.7320 C   0  0  2  0  0  3  0  0  0  0  0  0
  183.9160  179.7350  139.2220 S   0  0  0  0  0  0  0  0  0  0  0  0
  186.9600  175.6140  136.6020 C   0  0  0  0  0  2  0  0  0  0  0  0
  188.5630  177.6650  140.4710 C   0  0  1  0  0  3  0  0  0  0  0  0
  182.8670  178.2120  137.3660 O   0  0  0  0  0  1  0  0  0  0  0  0
  190.2880  176.2760  138.3450 N   0  0  0  0  0  2  0  0  0  0  0  0
  187.7800  173.4230  135.6120 C   0  0  0  0  0  2  0  0  0  0  0  0
  187.2830  178.2890  141.0380 C   0  0  0  0  0  2  0  0  0  0  0  0
  188.7740  178.0860  139.0030 C   0  0  1  0  0  3  0  0  0  0  0  0
  185.2060  177.9910  137.6840 C   0  0  0  0  0  2  0  0  0  0  0  0
  189.1930  174.0110  135.5880 C   0  0  0  0  0  2  0  0  0  0  0  0
  186.2070  178.4820  140.0070 C   0  0  0  0  0  0  0  0  0  0  0  0
  185.2070  179.2400  140.3160 N   0  0  0  0  0  0  0  0  0  0  0  0
  190.1560  177.7210  138.4590 C   0  0  0  0  0  2  0  0  0  0  0  0
  189.3920  175.8270  137.2860 C   0  0  1  0  0  3  0  0  0  0  0  0
  189.7070  174.3670  136.9740 C   0  0  0  0  0  2  0  0  0  0  0  0
  189.7400  178.0340  141.3680 C   0  0  0  0  0  2  0  0  0  0  0  0
  189.3000  178.3210  142.6750 O   0  0  0  0  0  0  0  0  0  0  0  0
  190.5570  176.4810  143.0680 O   0  0  0  0  0  1  0  0  0  0  0  0
  190.1350  177.6900  143.6320 C   0  0  1  0  0  0  0  0  0  0  0  0
  191.0950  179.8620  144.0950 O   0  0  0  0  0  1  0  0  0  0  0  0
  191.4080  178.5180  143.8780 C   0  0  0  0  0  2  0  0  0  0  0  0
  189.3630  177.3690  144.9170 C   0  0  0  0  0  0  0  0  0  0  0  0
  188.0320  177.3020  144.8470 C   0  0  0  0  0  2  0  0  0  0  0  0
  190.0020  177.2310  146.2060 N   0  0  0  0  0  0  0  0  0  0  0  0
  189.3650  177.6620  147.4410 C   0  0  0  0  0  1  0  0  0  0  0  0
  191.2750  176.5380  146.3320 C   0  0  0  0  0  1  0  0  0  0  0  0
  1  9  1  6  0  0  0
  1  6  1  0  0  0  0
  2  5  1  0  0  0  0
  2 13  1  0  0  0  0
  3  2  1  0  0  0  0
  4  7  1  0  0  0  0
  5 16  1  0  0  0  0
  6 17  1  0  0  0  0
  7  3  1  0  0  0  0
  8 12  1  0  0  0  0
  8 21  1  0  0  0  0
 10 18  1  0  0  0  0
 11  4  1  0  0  0  0
 13  8  1  0  0  0  0
 14  1  1  0  0  0  0
 14  5  1  0  0  0  0
 15 11  1  0  0  0  0
 15 20  1  0  0  0  0
 16 17  2  0  0  0  0
 16 12  1  0  0  0  0
 18 13  1  0  0  0  0
 19  3  1  0  0  0  0
 19 10  1  0  0  0  0
 20 19  1  0  0  0  0
 21 22  1  0  0  0  0
 22 24  1  0  0  0  0
 23 24  1  0  0  0  0
 24 26  1  0  0  0  0
 24 27  1  0  0  0  0
 26 25  1  0  0  0  0
 27 29  1  0  0  0  0
 28 27  2  0  0  0  0
 29 31  1  0  0  0  0
 29 30  1  0  0  0  0
M  END
>  <MODEL>
9

>  <REMARK>
 VINA RESULT:      -6.4      2.503      7.484
  Name = 
  6 active torsions:
  status: ('A' for Active; 'I' for Inactive)
    1  A    between atoms: N_1  and  C_19
    2  A    between atoms: C_7  and  C_22
    3  A    between atoms: O_9  and  C_22
    4  A    between atoms: O_9  and  C_23
    5  A    between atoms: C_15  and  C_23
    6  A    between atoms: C_19  and  C_22
                            x       y       z     vdW  Elec       q    Type
                         _______ _______ _______ _____ _____    ______ ____

>  <TORSDO>
F 6

$$$$
