=
 OpenBabel10272415313D

 34 37  0  0  1  0  0  0  0  0999 V2000
  188.8740  176.6480  144.2150 C   0  0  1  0  0  3  0  0  0  0  0  0
  186.5590  176.8900  145.8460 C   0  0  0  0  0  2  0  0  0  0  0  0
  184.2700  179.4520  142.4560 N   0  0  0  0  0  0  0  0  0  0  0  0
  187.5640  177.5160  146.7730 C   0  0  0  0  0  3  0  0  0  0  0  0
  190.7720  176.3300  142.4390 C   0  0  2  0  0  3  0  0  0  0  0  0
  189.6850  175.7010  143.3190 C   0  0  0  0  0  2  0  0  0  0  0  0
  190.2720  178.7330  144.7700 C   0  0  0  0  0  2  0  0  0  0  0  0
  190.8950  178.6620  143.3790 C   0  0  0  0  0  2  0  0  0  0  0  0
  184.1700  178.5140  144.6770 C   0  0  0  0  0  3  0  0  0  0  0  0
  191.6570  177.3660  143.1360 C   0  0  0  0  0  2  0  0  0  0  0  0
  188.8780  177.7160  146.5660 C   0  0  0  0  0  0  0  0  0  0  0  0
  189.6450  177.4290  145.2850 C   0  0  1  0  0  3  0  0  0  0  0  0
  189.6020  178.2590  147.6200 O   0  0  0  0  0  1  0  0  0  0  0  0
  185.4610  178.2250  144.0010 C   0  0  0  0  0  0  0  0  0  0  0  0
  183.3980  179.3370  143.6250 C   0  0  0  0  0  2  0  0  0  0  0  0
  185.4720  178.7750  142.7520 C   0  0  0  0  0  0  0  0  0  0  0  0
  186.5750  178.6630  141.9070 C   0  0  0  0  0  3  0  0  0  0  0  0
  186.5610  177.5100  144.4840 C   0  0  0  0  0  0  0  0  0  0  0  0
  187.6930  177.9510  142.3690 C   0  0  0  0  0  3  0  0  0  0  0  0
  187.6820  177.3570  143.6480 C   0  0  0  0  0  0  0  0  0  0  0  0
  190.2390  176.8020  141.0930 C   0  0  0  0  0  2  0  0  0  0  0  0
  191.3770  177.2670  140.1980 C   0  0  0  0  0  2  0  0  0  0  0  0
  191.1410  176.8280  138.7530 C   0  0  0  0  0  2  0  0  0  0  0  0
  189.6680  176.5690  138.4290 C   0  0  2  0  0  3  0  0  0  0  0  0
  189.5130  175.3790  137.4930 C   0  0  0  0  0  2  0  0  0  0  0  0
  190.9670  173.5820  136.6040 C   0  0  0  0  0  1  0  0  0  0  0  0
  190.8300  175.0770  136.8030 C   0  0  0  0  0  2  0  0  0  0  0  0
  188.9760  177.8050  137.8690 C   0  0  0  0  0  2  0  0  0  0  0  0
  187.6320  178.0010  138.5480 C   0  0  0  0  0  2  0  0  0  0  0  0
  186.5780  178.0820  137.5520 N   0  0  0  0  0  0  0  0  0  0  0  0
  186.9730  178.3270  136.1710 C   0  0  0  0  0  1  0  0  0  0  0  0
  185.2380  177.7380  137.9450 C   0  0  0  0  0  3  0  0  0  0  0  0
  184.3880  178.5340  138.6030 C   0  0  0  0  0  3  0  0  0  0  0  0
  184.7210  179.8540  139.0210 N   0  0  0  0  0  1  0  0  0  0  0  0
  1  6  1  6  0  0  0
  1 12  1  0  0  0  0
  2  4  1  0  0  0  0
  3 16  2  0  0  0  0
  3 15  1  0  0  0  0
  5 21  1  6  0  0  0
  5 10  1  0  0  0  0
  5  6  1  0  0  0  0
  8  7  1  0  0  0  0
 10  8  1  0  0  0  0
 11  4  2  0  0  0  0
 11 13  1  0  0  0  0
 12  7  1  6  0  0  0
 12 11  1  0  0  0  0
 14 18  1  0  0  0  0
 14  9  2  0  0  0  0
 15  9  1  0  0  0  0
 16 14  1  0  0  0  0
 17 19  2  0  0  0  0
 17 16  1  0  0  0  0
 18  2  1  0  0  0  0
 19 20  1  0  0  0  0
 20  1  1  0  0  0  0
 20 18  2  0  0  0  0
 22 21  1  0  0  0  0
 23 22  1  0  0  0  0
 24 25  1  6  0  0  0
 24 23  1  0  0  0  0
 26 27  1  0  0  0  0
 27 25  1  0  0  0  0
 28 24  1  0  0  0  0
 28 29  1  0  0  0  0
 30 32  1  0  0  0  0
 30 29  1  0  0  0  0
 31 30  1  0  0  0  0
 32 33  2  0  0  0  0
 33 34  1  0  0  0  0
M  END
>  <MODEL>
1

>  <REMARK>
 VINA RESULT:      -8.4      0.000      0.000
  Name = 
  10 active torsions:
  status: ('A' for Active; 'I' for Inactive)
    1  A    between atoms: C_6  and  C_28
    2  A    between atoms: C_6  and  C_30
    3  A    between atoms: N_7  and  C_11
    4  A    between atoms: N_7  and  C_29
    5  A    between atoms: C_8  and  C_18
    6  A    between atoms: C_16  and  C_28
    7  A    between atoms: C_16  and  C_31
    8  A    between atoms: C_18  and  C_30
    9  A    between atoms: C_26  and  C_28
   10  A    between atoms: C_26  and  C_29
                            x       y       z     vdW  Elec       q    Type
                         _______ _______ _______ _____ _____    ______ ____

>  <TORSDO>
F 10

$$$$
=
 OpenBabel10272415313D

 34 37  0  0  1  0  0  0  0  0999 V2000
  188.8300  176.6760  144.1470 C   0  0  1  0  0  3  0  0  0  0  0  0
  186.6130  176.8750  145.9130 C   0  0  0  0  0  2  0  0  0  0  0  0
  184.1470  179.5450  142.7370 N   0  0  0  0  0  0  0  0  0  0  0  0
  187.6700  177.4710  146.8010 C   0  0  0  0  0  3  0  0  0  0  0  0
  190.6230  176.4080  142.2580 C   0  0  2  0  0  3  0  0  0  0  0  0
  189.5850  175.7560  143.1790 C   0  0  0  0  0  2  0  0  0  0  0  0
  190.2670  178.7410  144.6850 C   0  0  0  0  0  2  0  0  0  0  0  0
  190.8100  178.7100  143.2590 C   0  0  0  0  0  2  0  0  0  0  0  0
  184.1680  178.5410  144.9300 C   0  0  0  0  0  3  0  0  0  0  0  0
  191.5510  177.4200  142.9350 C   0  0  0  0  0  2  0  0  0  0  0  0
  188.9720  177.6730  146.5250 C   0  0  0  0  0  0  0  0  0  0  0  0
  189.6630  177.4230  145.1950 C   0  0  1  0  0  3  0  0  0  0  0  0
  189.7560  178.1820  147.5520 O   0  0  0  0  0  1  0  0  0  0  0  0
  185.4170  178.2690  144.1740 C   0  0  0  0  0  0  0  0  0  0  0  0
  183.3410  179.3970  143.9490 C   0  0  0  0  0  2  0  0  0  0  0  0
  185.3600  178.8560  142.9440 C   0  0  0  0  0  0  0  0  0  0  0  0
  186.4140  178.7670  142.0350 C   0  0  0  0  0  3  0  0  0  0  0  0
  186.5400  177.5370  144.5720 C   0  0  0  0  0  0  0  0  0  0  0  0
  187.5520  178.0380  142.4110 C   0  0  0  0  0  3  0  0  0  0  0  0
  187.6110  177.4060  143.6700 C   0  0  0  0  0  0  0  0  0  0  0  0
  190.0170  176.9210  140.9590 C   0  0  0  0  0  2  0  0  0  0  0  0
  191.0840  177.0540  139.8840 C   0  0  0  0  0  2  0  0  0  0  0  0
  190.8770  176.0120  138.7850 C   0  0  0  0  0  2  0  0  0  0  0  0
  191.0330  176.5790  137.3730 C   0  0  2  0  0  3  0  0  0  0  0  0
  189.6780  176.8380  136.7320 C   0  0  0  0  0  2  0  0  0  0  0  0
  188.0560  178.2670  137.9410 C   0  0  0  0  0  1  0  0  0  0  0  0
  189.2360  178.2660  136.9920 C   0  0  0  0  0  2  0  0  0  0  0  0
  191.9010  175.6920  136.4880 C   0  0  0  0  0  2  0  0  0  0  0  0
  192.5910  174.6340  137.3310 C   0  0  0  0  0  2  0  0  0  0  0  0
  194.0260  174.6800  137.1120 N   0  0  0  0  0  0  0  0  0  0  0  0
  194.4950  174.7590  135.7350 C   0  0  0  0  0  1  0  0  0  0  0  0
  194.8870  174.8320  138.2540 C   0  0  0  0  0  3  0  0  0  0  0  0
  195.4920  173.8380  138.9120 C   0  0  0  0  0  3  0  0  0  0  0  0
  195.3400  172.4650  138.5640 N   0  0  0  0  0  1  0  0  0  0  0  0
  1  6  1  6  0  0  0
  1 12  1  0  0  0  0
  2  4  1  0  0  0  0
  3 16  2  0  0  0  0
  3 15  1  0  0  0  0
  5 21  1  6  0  0  0
  5 10  1  0  0  0  0
  5  6  1  0  0  0  0
  8  7  1  0  0  0  0
 10  8  1  0  0  0  0
 11  4  2  0  0  0  0
 11 13  1  0  0  0  0
 12  7  1  6  0  0  0
 12 11  1  0  0  0  0
 14 18  1  0  0  0  0
 14  9  2  0  0  0  0
 15  9  1  0  0  0  0
 16 14  1  0  0  0  0
 17 19  2  0  0  0  0
 17 16  1  0  0  0  0
 18  2  1  0  0  0  0
 19 20  1  0  0  0  0
 20  1  1  0  0  0  0
 20 18  2  0  0  0  0
 22 21  1  0  0  0  0
 23 22  1  0  0  0  0
 24 28  1  6  0  0  0
 24 23  1  0  0  0  0
 25 27  1  0  0  0  0
 25 24  1  0  0  0  0
 27 26  1  0  0  0  0
 28 29  1  0  0  0  0
 30 29  1  0  0  0  0
 30 32  1  0  0  0  0
 31 30  1  0  0  0  0
 32 33  2  0  0  0  0
 34 33  1  0  0  0  0
M  END
>  <MODEL>
2

>  <REMARK>
 VINA RESULT:      -8.1      2.704      4.393
  Name = 
  10 active torsions:
  status: ('A' for Active; 'I' for Inactive)
    1  A    between atoms: C_6  and  C_28
    2  A    between atoms: C_6  and  C_30
    3  A    between atoms: N_7  and  C_11
    4  A    between atoms: N_7  and  C_29
    5  A    between atoms: C_8  and  C_18
    6  A    between atoms: C_16  and  C_28
    7  A    between atoms: C_16  and  C_31
    8  A    between atoms: C_18  and  C_30
    9  A    between atoms: C_26  and  C_28
   10  A    between atoms: C_26  and  C_29
                            x       y       z     vdW  Elec       q    Type
                         _______ _______ _______ _____ _____    ______ ____

>  <TORSDO>
F 10

$$$$
=
 OpenBabel10272415313D

 34 37  0  0  1  0  0  0  0  0999 V2000
  188.8760  176.6710  144.0490 C   0  0  1  0  0  3  0  0  0  0  0  0
  186.6700  176.8460  145.8320 C   0  0  0  0  0  2  0  0  0  0  0  0
  184.1750  179.5440  142.7020 N   0  0  0  0  0  0  0  0  0  0  0  0
  187.7320  177.4340  146.7190 C   0  0  0  0  0  3  0  0  0  0  0  0
  190.6560  176.4280  142.1450 C   0  0  2  0  0  3  0  0  0  0  0  0
  189.6260  175.7630  143.0660 C   0  0  0  0  0  2  0  0  0  0  0  0
  190.3110  178.7330  144.5990 C   0  0  0  0  0  2  0  0  0  0  0  0
  190.8440  178.7200  143.1690 C   0  0  0  0  0  2  0  0  0  0  0  0
  184.2150  178.5150  144.8840 C   0  0  0  0  0  3  0  0  0  0  0  0
  191.5860  177.4350  142.8260 C   0  0  0  0  0  2  0  0  0  0  0  0
  189.0310  177.6430  146.4360 C   0  0  0  0  0  0  0  0  0  0  0  0
  189.7140  177.4090  145.0990 C   0  0  1  0  0  3  0  0  0  0  0  0
  189.8210  178.1430  147.4640 O   0  0  0  0  0  1  0  0  0  0  0  0
  185.4590  178.2550  144.1160 C   0  0  0  0  0  0  0  0  0  0  0  0
  183.3790  179.3800  143.9180 C   0  0  0  0  0  2  0  0  0  0  0  0
  185.3920  178.8550  142.8930 C   0  0  0  0  0  0  0  0  0  0  0  0
  186.4390  178.7780  141.9760 C   0  0  0  0  0  3  0  0  0  0  0  0
  186.5870  177.5210  144.4990 C   0  0  0  0  0  0  0  0  0  0  0  0
  187.5830  178.0480  142.3370 C   0  0  0  0  0  3  0  0  0  0  0  0
  187.6520  177.4030  143.5880 C   0  0  0  0  0  0  0  0  0  0  0  0
  190.0400  176.9540  140.8560 C   0  0  0  0  0  2  0  0  0  0  0  0
  191.0450  176.8940  139.7160 C   0  0  0  0  0  2  0  0  0  0  0  0
  190.7000  175.7620  138.7490 C   0  0  0  0  0  2  0  0  0  0  0  0
  191.5130  175.8010  137.4530 C   0  0  2  0  0  3  0  0  0  0  0  0
  192.8520  176.4920  137.6660 C   0  0  0  0  0  2  0  0  0  0  0  0
  194.2920  174.4830  137.8130 C   0  0  0  0  0  1  0  0  0  0  0  0
  193.9610  175.7100  136.9900 C   0  0  0  0  0  2  0  0  0  0  0  0
  190.7390  176.4400  136.3070 C   0  0  0  0  0  2  0  0  0  0  0  0
  189.3510  175.8330  136.2140 C   0  0  0  0  0  2  0  0  0  0  0  0
  188.3490  176.8830  136.1610 N   0  0  0  0  0  0  0  0  0  0  0  0
  188.0940  177.5070  134.8700 C   0  0  0  0  0  1  0  0  0  0  0  0
  187.5440  177.1190  137.3300 C   0  0  0  0  0  3  0  0  0  0  0  0
  187.7070  178.1220  138.2000 C   0  0  0  0  0  3  0  0  0  0  0  0
  188.7360  179.0980  138.0820 N   0  0  0  0  0  1  0  0  0  0  0  0
  1  6  1  6  0  0  0
  1 12  1  0  0  0  0
  2  4  1  0  0  0  0
  3 16  2  0  0  0  0
  3 15  1  0  0  0  0
  5 21  1  6  0  0  0
  5 10  1  0  0  0  0
  5  6  1  0  0  0  0
  8  7  1  0  0  0  0
 10  8  1  0  0  0  0
 11  4  2  0  0  0  0
 11 13  1  0  0  0  0
 12  7  1  6  0  0  0
 12 11  1  0  0  0  0
 14 18  1  0  0  0  0
 14  9  2  0  0  0  0
 15  9  1  0  0  0  0
 16 14  1  0  0  0  0
 17 19  2  0  0  0  0
 17 16  1  0  0  0  0
 18  2  1  0  0  0  0
 19 20  1  0  0  0  0
 20  1  1  0  0  0  0
 20 18  2  0  0  0  0
 22 21  1  0  0  0  0
 23 22  1  0  0  0  0
 24 28  1  6  0  0  0
 24 25  1  0  0  0  0
 24 23  1  0  0  0  0
 27 25  1  0  0  0  0
 27 26  1  0  0  0  0
 29 28  1  0  0  0  0
 30 29  1  0  0  0  0
 30 32  1  0  0  0  0
 31 30  1  0  0  0  0
 32 33  2  0  0  0  0
 34 33  1  0  0  0  0
M  END
>  <MODEL>
3

>  <REMARK>
 VINA RESULT:      -8.1      1.283      1.794
  Name = 
  10 active torsions:
  status: ('A' for Active; 'I' for Inactive)
    1  A    between atoms: C_6  and  C_28
    2  A    between atoms: C_6  and  C_30
    3  A    between atoms: N_7  and  C_11
    4  A    between atoms: N_7  and  C_29
    5  A    between atoms: C_8  and  C_18
    6  A    between atoms: C_16  and  C_28
    7  A    between atoms: C_16  and  C_31
    8  A    between atoms: C_18  and  C_30
    9  A    between atoms: C_26  and  C_28
   10  A    between atoms: C_26  and  C_29
                            x       y       z     vdW  Elec       q    Type
                         _______ _______ _______ _____ _____    ______ ____

>  <TORSDO>
F 10

$$$$
=
 OpenBabel10272415313D

 34 37  0  0  1  0  0  0  0  0999 V2000
  188.8150  176.6740  144.1550 C   0  0  1  0  0  3  0  0  0  0  0  0
  186.6080  176.8930  145.9320 C   0  0  0  0  0  2  0  0  0  0  0  0
  184.1280  179.5380  142.7470 N   0  0  0  0  0  0  0  0  0  0  0  0
  187.6720  177.4940  146.8080 C   0  0  0  0  0  3  0  0  0  0  0  0
  190.5960  176.3860  142.2580 C   0  0  2  0  0  3  0  0  0  0  0  0
  189.5630  175.7440  143.1910 C   0  0  0  0  0  2  0  0  0  0  0  0
  190.2580  178.7410  144.6660 C   0  0  0  0  0  2  0  0  0  0  0  0
  190.7920  178.6970  143.2370 C   0  0  0  0  0  2  0  0  0  0  0  0
  184.1610  178.5530  144.9500 C   0  0  0  0  0  3  0  0  0  0  0  0
  191.5300  177.4020  142.9190 C   0  0  0  0  0  2  0  0  0  0  0  0
  188.9730  177.6920  146.5230 C   0  0  0  0  0  0  0  0  0  0  0  0
  189.6560  177.4290  145.1910 C   0  0  1  0  0  3  0  0  0  0  0  0
  189.7640  178.2090  147.5410 O   0  0  0  0  0  1  0  0  0  0  0  0
  185.4050  178.2730  144.1880 C   0  0  0  0  0  0  0  0  0  0  0  0
  183.3290  179.4020  143.9650 C   0  0  0  0  0  2  0  0  0  0  0  0
  185.3410  178.8490  142.9530 C   0  0  0  0  0  0  0  0  0  0  0  0
  186.3890  178.7490  142.0380 C   0  0  0  0  0  3  0  0  0  0  0  0
  186.5290  177.5420  144.5860 C   0  0  0  0  0  0  0  0  0  0  0  0
  187.5290  178.0220  142.4150 C   0  0  0  0  0  3  0  0  0  0  0  0
  187.5940  177.4020  143.6780 C   0  0  0  0  0  0  0  0  0  0  0  0
  189.9830  176.8890  140.9580 C   0  0  0  0  0  2  0  0  0  0  0  0
  191.0460  177.0200  139.8780 C   0  0  0  0  0  2  0  0  0  0  0  0
  190.7690  176.0540  138.7270 C   0  0  0  0  0  2  0  0  0  0  0  0
  191.2770  176.5590  137.3750 C   0  0  2  0  0  3  0  0  0  0  0  0
  190.1320  176.7370  136.3890 C   0  0  0  0  0  2  0  0  0  0  0  0
  189.0280  178.8540  137.0490 C   0  0  0  0  0  1  0  0  0  0  0  0
  188.9280  177.3430  137.0850 C   0  0  0  0  0  2  0  0  0  0  0  0
  192.3670  175.6630  136.7980 C   0  0  0  0  0  2  0  0  0  0  0  0
  193.6630  175.8610  137.5630 C   0  0  0  0  0  2  0  0  0  0  0  0
  194.6200  174.8330  137.1960 N   0  0  0  0  0  0  0  0  0  0  0  0
  194.8230  173.7360  138.1330 C   0  0  0  0  0  1  0  0  0  0  0  0
  195.1690  174.8530  135.8670 C   0  0  0  0  0  3  0  0  0  0  0  0
  196.3690  175.3330  135.5260 C   0  0  0  0  0  3  0  0  0  0  0  0
  197.2720  175.9150  136.4610 N   0  0  0  0  0  1  0  0  0  0  0  0
  1  6  1  6  0  0  0
  1 12  1  0  0  0  0
  2  4  1  0  0  0  0
  3 16  2  0  0  0  0
  3 15  1  0  0  0  0
  5 21  1  6  0  0  0
  5 10  1  0  0  0  0
  5  6  1  0  0  0  0
  8  7  1  0  0  0  0
 10  8  1  0  0  0  0
 11  4  2  0  0  0  0
 11 13  1  0  0  0  0
 12  7  1  6  0  0  0
 12 11  1  0  0  0  0
 14 18  1  0  0  0  0
 14  9  2  0  0  0  0
 15  9  1  0  0  0  0
 16 14  1  0  0  0  0
 17 19  2  0  0  0  0
 17 16  1  0  0  0  0
 18  2  1  0  0  0  0
 19 20  1  0  0  0  0
 20  1  1  0  0  0  0
 20 18  2  0  0  0  0
 22 21  1  0  0  0  0
 23 22  1  0  0  0  0
 24 25  1  6  0  0  0
 24 23  1  0  0  0  0
 25 27  1  0  0  0  0
 26 27  1  0  0  0  0
 28 24  1  0  0  0  0
 28 29  1  0  0  0  0
 30 29  1  0  0  0  0
 30 31  1  0  0  0  0
 32 30  1  0  0  0  0
 33 32  2  0  0  0  0
 33 34  1  0  0  0  0
M  END
>  <MODEL>
4

>  <REMARK>
 VINA RESULT:      -8.0      2.902      4.617
  Name = 
  10 active torsions:
  status: ('A' for Active; 'I' for Inactive)
    1  A    between atoms: C_6  and  C_28
    2  A    between atoms: C_6  and  C_30
    3  A    between atoms: N_7  and  C_11
    4  A    between atoms: N_7  and  C_29
    5  A    between atoms: C_8  and  C_18
    6  A    between atoms: C_16  and  C_28
    7  A    between atoms: C_16  and  C_31
    8  A    between atoms: C_18  and  C_30
    9  A    between atoms: C_26  and  C_28
   10  A    between atoms: C_26  and  C_29
                            x       y       z     vdW  Elec       q    Type
                         _______ _______ _______ _____ _____    ______ ____

>  <TORSDO>
F 10

$$$$
=
 OpenBabel10272415313D

 34 37  0  0  1  0  0  0  0  0999 V2000
  188.8450  176.7030  144.1710 C   0  0  1  0  0  3  0  0  0  0  0  0
  186.5570  176.9160  145.8420 C   0  0  0  0  0  2  0  0  0  0  0  0
  184.2160  179.5410  142.5370 N   0  0  0  0  0  0  0  0  0  0  0  0
  187.5750  177.5240  146.7650 C   0  0  0  0  0  3  0  0  0  0  0  0
  190.7150  176.4180  142.3610 C   0  0  2  0  0  3  0  0  0  0  0  0
  189.6420  175.7730  143.2460 C   0  0  0  0  0  2  0  0  0  0  0  0
  190.2530  178.7780  144.7430 C   0  0  0  0  0  2  0  0  0  0  0  0
  190.8540  178.7330  143.3410 C   0  0  0  0  0  2  0  0  0  0  0  0
  184.1500  178.5620  144.7410 C   0  0  0  0  0  3  0  0  0  0  0  0
  191.6120  177.4410  143.0630 C   0  0  0  0  0  2  0  0  0  0  0  0
  188.8870  177.7280  146.5410 C   0  0  0  0  0  0  0  0  0  0  0  0
  189.6330  177.4640  145.2430 C   0  0  1  0  0  3  0  0  0  0  0  0
  189.6270  178.2510  147.5930 O   0  0  0  0  0  1  0  0  0  0  0  0
  185.4300  178.2850  144.0390 C   0  0  0  0  0  0  0  0  0  0  0  0
  183.3620  179.4040  143.7160 C   0  0  0  0  0  2  0  0  0  0  0  0
  185.4220  178.8580  142.8010 C   0  0  0  0  0  0  0  0  0  0  0  0
  186.5120  178.7610  141.9370 C   0  0  0  0  0  3  0  0  0  0  0  0
  186.5380  177.5610  144.4920 C   0  0  0  0  0  0  0  0  0  0  0  0
  187.6360  178.0400  142.3690 C   0  0  0  0  0  3  0  0  0  0  0  0
  187.6450  177.4230  143.6360 C   0  0  0  0  0  0  0  0  0  0  0  0
  190.1620  176.9140  141.0320 C   0  0  0  0  0  2  0  0  0  0  0  0
  191.2890  177.3480  140.1090 C   0  0  0  0  0  2  0  0  0  0  0  0
  191.3670  176.4360  138.8850 C   0  0  0  0  0  2  0  0  0  0  0  0
  190.0150  176.2220  138.2010 C   0  0  2  0  0  3  0  0  0  0  0  0
  190.0260  174.9630  137.3460 C   0  0  0  0  0  2  0  0  0  0  0  0
  191.5420  173.4030  136.1610 C   0  0  0  0  0  1  0  0  0  0  0  0
  191.4090  174.3400  137.3430 C   0  0  0  0  0  2  0  0  0  0  0  0
  189.5820  177.4360  137.3880 C   0  0  0  0  0  2  0  0  0  0  0  0
  188.5600  177.0250  136.3430 C   0  0  0  0  0  2  0  0  0  0  0  0
  187.2200  177.1180  136.8930 N   0  0  0  0  0  0  0  0  0  0  0  0
  187.0100  178.0330  138.0070 C   0  0  0  0  0  1  0  0  0  0  0  0
  186.1490  176.4530  136.2000 C   0  0  0  0  0  3  0  0  0  0  0  0
  185.7530  175.1920  136.4020 C   0  0  0  0  0  3  0  0  0  0  0  0
  186.3710  174.3220  137.3440 N   0  0  0  0  0  1  0  0  0  0  0  0
  1  6  1  6  0  0  0
  1 12  1  0  0  0  0
  2  4  1  0  0  0  0
  3 16  2  0  0  0  0
  3 15  1  0  0  0  0
  5 21  1  6  0  0  0
  5 10  1  0  0  0  0
  5  6  1  0  0  0  0
  8  7  1  0  0  0  0
 10  8  1  0  0  0  0
 11  4  2  0  0  0  0
 11 13  1  0  0  0  0
 12  7  1  6  0  0  0
 12 11  1  0  0  0  0
 14 18  1  0  0  0  0
 14  9  2  0  0  0  0
 15  9  1  0  0  0  0
 16 14  1  0  0  0  0
 17 19  2  0  0  0  0
 17 16  1  0  0  0  0
 18  2  1  0  0  0  0
 19 20  1  0  0  0  0
 20  1  1  0  0  0  0
 20 18  2  0  0  0  0
 22 21  1  0  0  0  0
 23 22  1  0  0  0  0
 24 25  1  6  0  0  0
 24 23  1  0  0  0  0
 26 27  1  0  0  0  0
 27 25  1  0  0  0  0
 28 24  1  0  0  0  0
 29 30  1  0  0  0  0
 29 28  1  0  0  0  0
 30 31  1  0  0  0  0
 32 33  2  0  0  0  0
 32 30  1  0  0  0  0
 33 34  1  0  0  0  0
M  END
>  <MODEL>
5

>  <REMARK>
 VINA RESULT:      -7.8      1.040      1.486
  Name = 
  10 active torsions:
  status: ('A' for Active; 'I' for Inactive)
    1  A    between atoms: C_6  and  C_28
    2  A    between atoms: C_6  and  C_30
    3  A    between atoms: N_7  and  C_11
    4  A    between atoms: N_7  and  C_29
    5  A    between atoms: C_8  and  C_18
    6  A    between atoms: C_16  and  C_28
    7  A    between atoms: C_16  and  C_31
    8  A    between atoms: C_18  and  C_30
    9  A    between atoms: C_26  and  C_28
   10  A    between atoms: C_26  and  C_29
                            x       y       z     vdW  Elec       q    Type
                         _______ _______ _______ _____ _____    ______ ____

>  <TORSDO>
F 10

$$$$
=
 OpenBabel10272415313D

 34 37  0  0  1  0  0  0  0  0999 V2000
  188.7700  176.7000  144.2110 C   0  0  1  0  0  3  0  0  0  0  0  0
  186.6530  176.9130  146.0950 C   0  0  0  0  0  2  0  0  0  0  0  0
  184.0050  179.5380  143.0290 N   0  0  0  0  0  0  0  0  0  0  0  0
  187.7560  177.5220  146.9150 C   0  0  0  0  0  3  0  0  0  0  0  0
  190.4570  176.4150  142.2290 C   0  0  2  0  0  3  0  0  0  0  0  0
  189.4740  175.7710  143.2130 C   0  0  0  0  0  2  0  0  0  0  0  0
  190.2270  178.7750  144.6450 C   0  0  0  0  0  2  0  0  0  0  0  0
  190.6900  178.7300  143.1920 C   0  0  0  0  0  2  0  0  0  0  0  0
  184.1520  178.5600  145.2300 C   0  0  0  0  0  3  0  0  0  0  0  0
  191.4170  177.4380  142.8420 C   0  0  0  0  0  2  0  0  0  0  0  0
  189.0400  177.7250  146.5660 C   0  0  0  0  0  0  0  0  0  0  0  0
  189.6570  177.4610  145.2030 C   0  0  1  0  0  3  0  0  0  0  0  0
  189.8770  178.2480  147.5420 O   0  0  0  0  0  1  0  0  0  0  0  0
  185.3580  178.2830  144.4080 C   0  0  0  0  0  0  0  0  0  0  0  0
  183.2690  179.4020  144.2850 C   0  0  0  0  0  2  0  0  0  0  0  0
  185.2310  178.8560  143.1760 C   0  0  0  0  0  0  0  0  0  0  0  0
  186.2330  178.7580  142.2110 C   0  0  0  0  0  3  0  0  0  0  0  0
  186.5040  177.5590  144.7520 C   0  0  0  0  0  0  0  0  0  0  0  0
  187.3940  178.0380  142.5330 C   0  0  0  0  0  3  0  0  0  0  0  0
  187.5240  177.4210  143.7940 C   0  0  0  0  0  0  0  0  0  0  0  0
  189.7790  176.9110  140.9600 C   0  0  0  0  0  2  0  0  0  0  0  0
  190.6810  176.7060  139.7530 C   0  0  0  0  0  2  0  0  0  0  0  0
  190.3160  177.6810  138.6340 C   0  0  0  0  0  2  0  0  0  0  0  0
  190.1020  177.0000  137.2810 C   0  0  2  0  0  3  0  0  0  0  0  0
  189.2810  177.8780  136.3480 C   0  0  0  0  0  2  0  0  0  0  0  0
  186.8100  178.0380  136.2770 C   0  0  0  0  0  1  0  0  0  0  0  0
  188.0510  178.4020  137.0650 C   0  0  0  0  0  2  0  0  0  0  0  0
  189.4800  175.6160  137.4250 C   0  0  0  0  0  2  0  0  0  0  0  0
  189.3760  174.9480  136.0660 C   0  0  0  0  0  2  0  0  0  0  0  0
  187.9860  174.6660  135.7550 N   0  0  0  0  0  0  0  0  0  0  0  0
  187.5620  174.8180  134.3690 C   0  0  0  0  0  1  0  0  0  0  0  0
  187.1610  174.0810  136.7780 C   0  0  0  0  0  3  0  0  0  0  0  0
  187.0200  172.7720  137.0130 C   0  0  0  0  0  3  0  0  0  0  0  0
  187.6760  171.7670  136.2470 N   0  0  0  0  0  1  0  0  0  0  0  0
  1  6  1  6  0  0  0
  1 12  1  0  0  0  0
  2  4  1  0  0  0  0
  3 16  2  0  0  0  0
  3 15  1  0  0  0  0
  5 21  1  6  0  0  0
  5 10  1  0  0  0  0
  5  6  1  0  0  0  0
  8  7  1  0  0  0  0
 10  8  1  0  0  0  0
 11  4  2  0  0  0  0
 11 13  1  0  0  0  0
 12  7  1  6  0  0  0
 12 11  1  0  0  0  0
 14 18  1  0  0  0  0
 14  9  2  0  0  0  0
 15  9  1  0  0  0  0
 16 14  1  0  0  0  0
 17 19  2  0  0  0  0
 17 16  1  0  0  0  0
 18  2  1  0  0  0  0
 19 20  1  0  0  0  0
 20  1  1  0  0  0  0
 20 18  2  0  0  0  0
 22 21  1  0  0  0  0
 23 22  1  0  0  0  0
 24 25  1  6  0  0  0
 24 28  1  0  0  0  0
 24 23  1  0  0  0  0
 25 27  1  0  0  0  0
 26 27  1  0  0  0  0
 29 28  1  0  0  0  0
 30 29  1  0  0  0  0
 30 32  1  0  0  0  0
 31 30  1  0  0  0  0
 32 33  2  0  0  0  0
 34 33  1  0  0  0  0
M  END
>  <MODEL>
6

>  <REMARK>
 VINA RESULT:      -7.5      1.785      2.820
  Name = 
  10 active torsions:
  status: ('A' for Active; 'I' for Inactive)
    1  A    between atoms: C_6  and  C_28
    2  A    between atoms: C_6  and  C_30
    3  A    between atoms: N_7  and  C_11
    4  A    between atoms: N_7  and  C_29
    5  A    between atoms: C_8  and  C_18
    6  A    between atoms: C_16  and  C_28
    7  A    between atoms: C_16  and  C_31
    8  A    between atoms: C_18  and  C_30
    9  A    between atoms: C_26  and  C_28
   10  A    between atoms: C_26  and  C_29
                            x       y       z     vdW  Elec       q    Type
                         _______ _______ _______ _____ _____    ______ ____

>  <TORSDO>
F 10

$$$$
=
 OpenBabel10272415313D

 34 37  0  0  1  0  0  0  0  0999 V2000
  183.4180  179.1870  140.9280 C   0  0  1  0  0  3  0  0  0  0  0  0
  182.7740  179.7140  143.6450 C   0  0  0  0  0  2  0  0  0  0  0  0
  186.8260  177.5740  145.1630 N   0  0  0  0  0  0  0  0  0  0  0  0
  181.5520  178.9240  143.2660 C   0  0  0  0  0  3  0  0  0  0  0  0
  184.3490  178.8310  138.5070 C   0  0  2  0  0  3  0  0  0  0  0  0
  183.9260  179.8010  139.6160 C   0  0  0  0  0  2  0  0  0  0  0  0
  182.4230  176.8590  140.4730 C   0  0  0  0  0  2  0  0  0  0  0  0
  183.4800  176.6410  139.3930 C   0  0  0  0  0  2  0  0  0  0  0  0
  184.7840  178.6930  145.7970 C   0  0  0  0  0  3  0  0  0  0  0  0
  183.3940  177.6600  138.2640 C   0  0  0  0  0  2  0  0  0  0  0  0
  181.2580  178.3630  142.0790 C   0  0  0  0  0  0  0  0  0  0  0  0
  182.1540  178.3230  140.8520 C   0  0  1  0  0  3  0  0  0  0  0  0
  180.0220  177.7400  141.9720 O   0  0  0  0  0  1  0  0  0  0  0  0
  184.9240  178.5670  144.3240 C   0  0  0  0  0  0  0  0  0  0  0  0
  186.0660  178.0190  146.3310 C   0  0  0  0  0  2  0  0  0  0  0  0
  186.0890  177.9290  144.0140 C   0  0  0  0  0  0  0  0  0  0  0  0
  186.4580  177.6690  142.6940 C   0  0  0  0  0  3  0  0  0  0  0  0
  184.0500  179.0000  143.3220 C   0  0  0  0  0  0  0  0  0  0  0  0
  185.5970  178.0930  141.6710 C   0  0  0  0  0  3  0  0  0  0  0  0
  184.4040  178.7750  141.9790 C   0  0  0  0  0  0  0  0  0  0  0  0
  185.8070  178.4050  138.6220 C   0  0  0  0  0  2  0  0  0  0  0  0
  186.3680  178.0350  137.2580 C   0  0  0  0  0  2  0  0  0  0  0  0
  187.6570  178.8060  136.9770 C   0  0  0  0  0  2  0  0  0  0  0  0
  188.8960  178.1670  137.6070 C   0  0  2  0  0  3  0  0  0  0  0  0
  188.8720  176.6530  137.4520 C   0  0  0  0  0  2  0  0  0  0  0  0
  188.3500  175.5950  135.2740 C   0  0  0  0  0  1  0  0  0  0  0  0
  189.4350  176.2530  136.1020 C   0  0  0  0  0  2  0  0  0  0  0  0
  189.0730  178.5690  139.0660 C   0  0  0  0  0  2  0  0  0  0  0  0
  189.1330  177.3320  139.9440 C   0  0  0  0  0  2  0  0  0  0  0  0
  190.3150  177.3750  140.7870 N   0  0  0  0  0  0  0  0  0  0  0  0
  191.6130  177.2830  140.1320 C   0  0  0  0  0  1  0  0  0  0  0  0
  190.1490  177.6900  142.1810 C   0  0  0  0  0  3  0  0  0  0  0  0
  190.0850  176.8020  143.1780 C   0  0  0  0  0  3  0  0  0  0  0  0
  190.1590  175.3940  142.9760 N   0  0  0  0  0  1  0  0  0  0  0  0
  1  6  1  6  0  0  0
  1 20  1  0  0  0  0
  3 15  1  0  0  0  0
  4  2  1  0  0  0  0
  5 21  1  1  0  0  0
  5  6  1  0  0  0  0
  8  7  1  0  0  0  0
  9 15  1  0  0  0  0
 10  5  1  0  0  0  0
 10  8  1  0  0  0  0
 11  4  2  0  0  0  0
 12  7  1  1  0  0  0
 12  1  1  0  0  0  0
 12 11  1  0  0  0  0
 13 11  1  0  0  0  0
 14  9  2  0  0  0  0
 16 14  1  0  0  0  0
 16  3  2  0  0  0  0
 17 16  1  0  0  0  0
 18  2  1  0  0  0  0
 18 14  1  0  0  0  0
 19 20  1  0  0  0  0
 19 17  2  0  0  0  0
 20 18  2  0  0  0  0
 22 21  1  0  0  0  0
 23 22  1  0  0  0  0
 24 23  1  1  0  0  0
 24 28  1  0  0  0  0
 25 24  1  0  0  0  0
 26 27  1  0  0  0  0
 27 25  1  0  0  0  0
 28 29  1  0  0  0  0
 29 30  1  0  0  0  0
 30 32  1  0  0  0  0
 31 30  1  0  0  0  0
 32 33  2  0  0  0  0
 34 33  1  0  0  0  0
M  END
>  <MODEL>
7

>  <REMARK>
 VINA RESULT:      -6.6      2.958      5.914
  Name = 
  10 active torsions:
  status: ('A' for Active; 'I' for Inactive)
    1  A    between atoms: C_6  and  C_28
    2  A    between atoms: C_6  and  C_30
    3  A    between atoms: N_7  and  C_11
    4  A    between atoms: N_7  and  C_29
    5  A    between atoms: C_8  and  C_18
    6  A    between atoms: C_16  and  C_28
    7  A    between atoms: C_16  and  C_31
    8  A    between atoms: C_18  and  C_30
    9  A    between atoms: C_26  and  C_28
   10  A    between atoms: C_26  and  C_29
                            x       y       z     vdW  Elec       q    Type
                         _______ _______ _______ _____ _____    ______ ____

>  <TORSDO>
F 10

$$$$
=
 OpenBabel10272415313D

 34 37  0  0  1  0  0  0  0  0999 V2000
  189.3360  176.5690  143.9960 C   0  0  1  0  0  3  0  0  0  0  0  0
  187.6230  176.6200  146.2630 C   0  0  0  0  0  2  0  0  0  0  0  0
  184.3460  179.2600  143.8980 N   0  0  0  0  0  0  0  0  0  0  0  0
  188.8460  177.2380  146.8820 C   0  0  0  0  0  3  0  0  0  0  0  0
  190.6110  176.4320  141.7130 C   0  0  2  0  0  3  0  0  0  0  0  0
  189.8600  175.7090  142.8370 C   0  0  0  0  0  2  0  0  0  0  0  0
  190.7840  178.6800  144.2380 C   0  0  0  0  0  2  0  0  0  0  0  0
  190.9550  178.7130  142.7210 C   0  0  0  0  0  2  0  0  0  0  0  0
  184.9510  178.1990  145.9790 C   0  0  0  0  0  3  0  0  0  0  0  0
  191.6400  177.4660  142.1760 C   0  0  0  0  0  2  0  0  0  0  0  0
  190.0290  177.5060  146.3000 C   0  0  0  0  0  0  0  0  0  0  0  0
  190.3760  177.3230  144.8320 C   0  0  1  0  0  3  0  0  0  0  0  0
  191.0250  178.0230  147.1190 O   0  0  0  0  0  1  0  0  0  0  0  0
  185.9810  178.0040  144.9270 C   0  0  0  0  0  0  0  0  0  0  0  0
  183.8740  179.0440  145.2660 C   0  0  0  0  0  2  0  0  0  0  0  0
  185.5980  178.6210  143.7720 C   0  0  0  0  0  0  0  0  0  0  0  0
  186.3940  178.6030  142.6270 C   0  0  0  0  0  3  0  0  0  0  0  0
  187.1940  177.3130  145.0070 C   0  0  0  0  0  0  0  0  0  0  0  0
  187.6170  177.9170  142.6830 C   0  0  0  0  0  3  0  0  0  0  0  0
  188.0110  177.2550  143.8630 C   0  0  0  0  0  0  0  0  0  0  0  0
  189.6820  176.9520  140.6240 C   0  0  0  0  0  2  0  0  0  0  0  0
  190.4810  177.5080  139.4560 C   0  0  0  0  0  2  0  0  0  0  0  0
  189.7570  177.2500  138.1350 C   0  0  0  0  0  2  0  0  0  0  0  0
  190.2200  175.9740  137.4290 C   0  0  2  0  0  3  0  0  0  0  0  0
  191.4820  176.2230  136.6160 C   0  0  0  0  0  2  0  0  0  0  0  0
  193.7910  175.5650  137.2260 C   0  0  0  0  0  1  0  0  0  0  0  0
  192.4410  175.0570  136.7640 C   0  0  0  0  0  2  0  0  0  0  0  0
  189.1210  175.3630  136.5670 C   0  0  0  0  0  2  0  0  0  0  0  0
  188.1650  174.5630  137.4330 C   0  0  0  0  0  2  0  0  0  0  0  0
  187.3510  173.6930  136.6040 N   0  0  0  0  0  0  0  0  0  0  0  0
  186.1830  173.0760  137.2180 C   0  0  0  0  0  1  0  0  0  0  0  0
  187.6290  173.6350  135.1940 C   0  0  0  0  0  3  0  0  0  0  0  0
  188.0870  172.5680  134.5320 C   0  0  0  0  0  3  0  0  0  0  0  0
  188.3790  171.3250  135.1620 N   0  0  0  0  0  1  0  0  0  0  0  0
  1  6  1  6  0  0  0
  1 12  1  0  0  0  0
  2  4  1  0  0  0  0
  3 15  1  0  0  0  0
  5 21  1  6  0  0  0
  5 10  1  0  0  0  0
  5  6  1  0  0  0  0
  8  7  1  0  0  0  0
 10  8  1  0  0  0  0
 11  4  2  0  0  0  0
 11 13  1  0  0  0  0
 12  7  1  6  0  0  0
 12 11  1  0  0  0  0
 14 18  1  0  0  0  0
 14  9  2  0  0  0  0
 15  9  1  0  0  0  0
 16  3  2  0  0  0  0
 16 14  1  0  0  0  0
 17 19  2  0  0  0  0
 17 16  1  0  0  0  0
 18  2  1  0  0  0  0
 19 20  1  0  0  0  0
 20  1  1  0  0  0  0
 20 18  2  0  0  0  0
 22 21  1  0  0  0  0
 23 22  1  0  0  0  0
 24 28  1  6  0  0  0
 24 23  1  0  0  0  0
 25 27  1  0  0  0  0
 25 24  1  0  0  0  0
 27 26  1  0  0  0  0
 28 29  1  0  0  0  0
 30 31  1  0  0  0  0
 30 29  1  0  0  0  0
 32 30  1  0  0  0  0
 33 34  1  0  0  0  0
 33 32  2  0  0  0  0
M  END
>  <MODEL>
8

>  <REMARK>
 VINA RESULT:      -6.0      2.130      3.051
  Name = 
  10 active torsions:
  status: ('A' for Active; 'I' for Inactive)
    1  A    between atoms: C_6  and  C_28
    2  A    between atoms: C_6  and  C_30
    3  A    between atoms: N_7  and  C_11
    4  A    between atoms: N_7  and  C_29
    5  A    between atoms: C_8  and  C_18
    6  A    between atoms: C_16  and  C_28
    7  A    between atoms: C_16  and  C_31
    8  A    between atoms: C_18  and  C_30
    9  A    between atoms: C_26  and  C_28
   10  A    between atoms: C_26  and  C_29
                            x       y       z     vdW  Elec       q    Type
                         _______ _______ _______ _____ _____    ______ ____

>  <TORSDO>
F 10

$$$$
=
 OpenBabel10272415313D

 34 37  0  0  1  0  0  0  0  0999 V2000
  183.3080  179.1040  140.8290 C   0  0  1  0  0  3  0  0  0  0  0  0
  182.6530  179.6000  143.5500 C   0  0  0  0  0  2  0  0  0  0  0  0
  186.8060  177.6490  145.0480 N   0  0  0  0  0  0  0  0  0  0  0  0
  181.4670  178.7550  143.1750 C   0  0  0  0  0  3  0  0  0  0  0  0
  184.2440  178.7930  138.4040 C   0  0  2  0  0  3  0  0  0  0  0  0
  183.7820  179.7410  139.5150 C   0  0  0  0  0  2  0  0  0  0  0  0
  182.4210  176.7330  140.3770 C   0  0  0  0  0  2  0  0  0  0  0  0
  183.4810  176.5640  139.2920 C   0  0  0  0  0  2  0  0  0  0  0  0
  184.7180  178.6720  145.6920 C   0  0  0  0  0  3  0  0  0  0  0  0
  183.3430  177.5790  138.1650 C   0  0  0  0  0  2  0  0  0  0  0  0
  181.1940  178.1810  141.9890 C   0  0  0  0  0  0  0  0  0  0  0  0
  182.0850  178.1830  140.7580 C   0  0  1  0  0  3  0  0  0  0  0  0
  179.9870  177.5010  141.8870 O   0  0  0  0  0  1  0  0  0  0  0  0
  184.8560  178.5530  144.2180 C   0  0  0  0  0  0  0  0  0  0  0  0
  186.0310  178.0580  146.2200 C   0  0  0  0  0  2  0  0  0  0  0  0
  186.0480  177.9690  143.9020 C   0  0  0  0  0  0  0  0  0  0  0  0
  186.4240  177.7270  142.5810 C   0  0  0  0  0  3  0  0  0  0  0  0
  183.9590  178.9460  143.2200 C   0  0  0  0  0  0  0  0  0  0  0  0
  185.5390  178.1120  141.5610 C   0  0  0  0  0  3  0  0  0  0  0  0
  184.3170  178.7380  141.8760 C   0  0  0  0  0  0  0  0  0  0  0  0
  185.7210  178.4340  138.5120 C   0  0  0  0  0  2  0  0  0  0  0  0
  186.1980  177.7350  137.2500 C   0  0  0  0  0  2  0  0  0  0  0  0
  187.5920  178.2220  136.8560 C   0  0  0  0  0  2  0  0  0  0  0  0
  188.7200  177.4860  137.5820 C   0  0  2  0  0  3  0  0  0  0  0  0
  189.3280  178.3540  138.6740 C   0  0  0  0  0  2  0  0  0  0  0  0
  190.3990  177.4070  140.6970 C   0  0  0  0  0  1  0  0  0  0  0  0
  189.0770  177.7390  140.0370 C   0  0  0  0  0  2  0  0  0  0  0  0
  189.7890  176.9790  136.6210 C   0  0  0  0  0  2  0  0  0  0  0  0
  189.1590  176.0900  135.5640 C   0  0  0  0  0  2  0  0  0  0  0  0
  189.0990  174.7190  136.0390 N   0  0  0  0  0  0  0  0  0  0  0  0
  187.8820  174.2930  136.7170 C   0  0  0  0  0  1  0  0  0  0  0  0
  190.1510  173.8160  135.6550 C   0  0  0  0  0  3  0  0  0  0  0  0
  191.2470  173.5460  136.3720 C   0  0  0  0  0  3  0  0  0  0  0  0
  191.5230  174.1480  137.6330 N   0  0  0  0  0  1  0  0  0  0  0  0
  1  6  1  6  0  0  0
  1 20  1  0  0  0  0
  3 15  1  0  0  0  0
  4  2  1  0  0  0  0
  5 21  1  1  0  0  0
  5  6  1  0  0  0  0
  8  7  1  0  0  0  0
  9 15  1  0  0  0  0
 10  5  1  0  0  0  0
 10  8  1  0  0  0  0
 11  4  2  0  0  0  0
 12  7  1  1  0  0  0
 12  1  1  0  0  0  0
 12 11  1  0  0  0  0
 13 11  1  0  0  0  0
 14  9  2  0  0  0  0
 16 14  1  0  0  0  0
 16  3  2  0  0  0  0
 17 16  1  0  0  0  0
 18  2  1  0  0  0  0
 18 14  1  0  0  0  0
 19 20  1  0  0  0  0
 19 17  2  0  0  0  0
 20 18  2  0  0  0  0
 22 21  1  0  0  0  0
 23 22  1  0  0  0  0
 23 24  1  0  0  0  0
 24 28  1  6  0  0  0
 24 25  1  0  0  0  0
 25 27  1  0  0  0  0
 27 26  1  0  0  0  0
 29 30  1  0  0  0  0
 29 28  1  0  0  0  0
 30 31  1  0  0  0  0
 32 30  1  0  0  0  0
 32 33  2  0  0  0  0
 33 34  1  0  0  0  0
M  END
>  <MODEL>
9

>  <REMARK>
 VINA RESULT:      -6.0      3.090      6.120
  Name = 
  10 active torsions:
  status: ('A' for Active; 'I' for Inactive)
    1  A    between atoms: C_6  and  C_28
    2  A    between atoms: C_6  and  C_30
    3  A    between atoms: N_7  and  C_11
    4  A    between atoms: N_7  and  C_29
    5  A    between atoms: C_8  and  C_18
    6  A    between atoms: C_16  and  C_28
    7  A    between atoms: C_16  and  C_31
    8  A    between atoms: C_18  and  C_30
    9  A    between atoms: C_26  and  C_28
   10  A    between atoms: C_26  and  C_29
                            x       y       z     vdW  Elec       q    Type
                         _______ _______ _______ _____ _____    ______ ____

>  <TORSDO>
F 10

$$$$
