=
 OpenBabel10272401143D

 27 31  0  0  0  0  0  0  0  0999 V2000
  186.9700  179.3440  141.1420 C   0  0  0  0  0  2  0  0  0  0  0  0
  186.7690  178.0880  143.3150 C   0  0  0  0  0  0  0  0  0  0  0  0
  189.2590  178.2810  142.6060 C   0  0  0  0  0  2  0  0  0  0  0  0
  186.0670  177.7020  144.3990 N   0  0  0  0  0  2  0  0  0  0  0  0
  190.4750  175.6410  138.6450 O   0  0  0  0  0  1  0  0  0  0  0  0
  189.6250  176.5550  139.2540 C   0  0  0  0  0  0  0  0  0  0  0  0
  186.1530  178.6240  142.1190 N   0  0  0  0  0  0  0  0  0  0  0  0
  188.2480  177.3740  144.8010 C   0  0  0  0  0  0  0  0  0  0  0  0
  187.9150  178.4010  140.4750 C   0  0  0  0  0  0  0  0  0  0  0  0
  188.1310  177.8960  143.5220 C   0  0  0  0  0  0  0  0  0  0  0  0
  189.8530  176.9450  140.5760 C   0  0  0  0  0  3  0  0  0  0  0  0
  186.9620  177.2660  145.3070 C   0  0  0  0  0  3  0  0  0  0  0  0
  188.5420  177.0810  138.5440 C   0  0  0  0  0  3  0  0  0  0  0  0
  187.6850  178.0010  139.1560 C   0  0  0  0  0  3  0  0  0  0  0  0
  188.9980  177.8650  141.1930 C   0  0  0  0  0  0  0  0  0  0  0  0
  189.4960  177.0160  146.9330 C   0  0  0  0  0  3  0  0  0  0  0  0
  191.8000  176.2730  146.9420 C   0  0  0  0  0  3  0  0  0  0  0  0
  191.7950  176.2480  145.5460 C   0  0  0  0  0  3  0  0  0  0  0  0
  190.6410  176.6080  144.8450 C   0  0  0  0  0  3  0  0  0  0  0  0
  189.4810  176.9960  145.5300 C   0  0  0  0  0  0  0  0  0  0  0  0
  190.6490  176.6570  147.6370 C   0  0  0  0  0  3  0  0  0  0  0  0
  182.0050  178.1480  141.2880 C   0  0  0  0  0  3  0  0  0  0  0  0
  184.7480  178.4430  141.8390 C   0  0  0  0  0  0  0  0  0  0  0  0
  184.3150  177.9150  140.6110 C   0  0  0  0  0  3  0  0  0  0  0  0
  182.9530  177.7650  140.3370 C   0  0  0  0  0  3  0  0  0  0  0  0
  182.4180  178.6830  142.5100 C   0  0  0  0  0  3  0  0  0  0  0  0
  183.7810  178.8320  142.7830 C   0  0  0  0  0  3  0  0  0  0  0  0
  1  7  1  0  0  0  0
  2 10  2  0  0  0  0
  2  4  1  0  0  0  0
  3 10  1  0  0  0  0
  4 12  1  0  0  0  0
  5  6  1  0  0  0  0
  6 11  1  0  0  0  0
  7  2  1  0  0  0  0
  8 12  2  0  0  0  0
  8 20  1  0  0  0  0
  9  1  1  0  0  0  0
  9 15  1  0  0  0  0
 10  8  1  0  0  0  0
 11 15  2  0  0  0  0
 13 14  1  0  0  0  0
 13  6  2  0  0  0  0
 14  9  2  0  0  0  0
 15  3  1  0  0  0  0
 16 21  1  0  0  0  0
 17 21  2  0  0  0  0
 18 17  1  0  0  0  0
 19 20  1  0  0  0  0
 19 18  2  0  0  0  0
 20 16  2  0  0  0  0
 22 26  1  0  0  0  0
 23  7  1  0  0  0  0
 23 27  1  0  0  0  0
 24 23  2  0  0  0  0
 25 24  1  0  0  0  0
 25 22  2  0  0  0  0
 26 27  2  0  0  0  0
M  END
>  <MODEL>
1

>  <REMARK>
 VINA RESULT:      -9.0      0.000      0.000
  Name = 
  2 active torsions:
  status: ('A' for Active; 'I' for Inactive)
    1  A    between atoms: C_9  and  N_15
    2  A    between atoms: C_14  and  C_17
                            x       y       z     vdW  Elec       q    Type
                         _______ _______ _______ _____ _____    ______ ____

>  <TORSDO>
F 2

$$$$
=
 OpenBabel10272401143D

 27 31  0  0  1  0  0  0  0  0999 V2000
  187.1360  176.2800  143.9580 C   0  0  0  0  0  2  0  0  0  0  0  0
  187.7400  177.5910  141.8950 C   0  0  0  0  0  0  0  0  0  0  0  0
  189.7360  176.1100  142.6440 C   0  0  0  0  0  2  0  0  0  0  0  0
  187.4010  178.3470  140.8320 N   0  0  0  0  0  0  0  0  0  0  0  0
  191.8690  177.5100  146.8420 O   0  0  0  0  0  1  0  0  0  0  0  0
  190.7140  177.1980  146.1390 C   0  0  0  0  0  0  0  0  0  0  0  0
  186.8630  177.3740  143.0260 N   0  0  0  0  0  0  0  0  0  0  0  0
  189.4670  177.5370  140.5110 C   0  0  0  0  0  0  0  0  0  0  0  0
  188.3850  176.5640  144.7240 C   0  0  0  0  0  0  0  0  0  0  0  0
  189.0200  177.0720  141.7380 C   0  0  1  0  0  3  0  0  0  0  0  0
  190.7950  176.8280  144.7930 C   0  0  0  0  0  3  0  0  0  0  0  0
  188.4500  178.3190  139.9850 C   0  0  0  0  0  3  0  0  0  0  0  0
  189.4710  177.2580  146.7750 C   0  0  0  0  0  3  0  0  0  0  0  0
  188.3060  176.9440  146.0670 C   0  0  0  0  0  3  0  0  0  0  0  0
  189.6330  176.5130  144.0810 C   0  0  0  0  0  0  0  0  0  0  0  0
  190.7900  176.7450  138.5460 C   0  0  0  0  0  3  0  0  0  0  0  0
  193.2100  176.7790  138.5530 C   0  0  0  0  0  3  0  0  0  0  0  0
  193.1970  177.3080  139.8450 C   0  0  0  0  0  3  0  0  0  0  0  0
  191.9810  177.5550  140.4870 C   0  0  0  0  0  3  0  0  0  0  0  0
  190.7650  177.2760  139.8460 C   0  0  0  0  0  0  0  0  0  0  0  0
  192.0050  176.4970  137.9030 C   0  0  0  0  0  3  0  0  0  0  0  0
  183.4900  179.8520  143.8080 C   0  0  0  0  0  3  0  0  0  0  0  0
  185.7290  178.2300  143.2870 C   0  0  0  0  0  0  0  0  0  0  0  0
  185.6660  179.0150  144.4520 C   0  0  0  0  0  3  0  0  0  0  0  0
  184.5560  179.8230  144.7090 C   0  0  0  0  0  3  0  0  0  0  0  0
  183.5340  179.0710  142.6500 C   0  0  0  0  0  3  0  0  0  0  0  0
  184.6440  178.2630  142.3930 C   0  0  0  0  0  3  0  0  0  0  0  0
  1  9  1  0  0  0  0
  2  7  1  0  0  0  0
  3 15  1  0  0  0  0
  4  2  2  0  0  0  0
  6 13  1  0  0  0  0
  6  5  1  0  0  0  0
  7 23  1  0  0  0  0
  7  1  1  0  0  0  0
  8 10  1  0  0  0  0
  9 14  1  0  0  0  0
 10  2  1  0  0  0  0
 10  3  1  6  0  0  0
 11  6  2  0  0  0  0
 12  8  2  0  0  0  0
 12  4  1  0  0  0  0
 14 13  2  0  0  0  0
 15  9  2  0  0  0  0
 15 11  1  0  0  0  0
 16 20  1  0  0  0  0
 17 18  2  0  0  0  0
 18 19  1  0  0  0  0
 20 19  2  0  0  0  0
 20  8  1  0  0  0  0
 21 16  2  0  0  0  0
 21 17  1  0  0  0  0
 22 25  1  0  0  0  0
 23 24  1  0  0  0  0
 24 25  2  0  0  0  0
 26 22  2  0  0  0  0
 27 26  1  0  0  0  0
 27 23  2  0  0  0  0
M  END
>  <MODEL>
2

>  <REMARK>
 VINA RESULT:      -8.8      2.356      5.387
  Name = 
  2 active torsions:
  status: ('A' for Active; 'I' for Inactive)
    1  A    between atoms: C_9  and  N_15
    2  A    between atoms: C_14  and  C_17
                            x       y       z     vdW  Elec       q    Type
                         _______ _______ _______ _____ _____    ______ ____

>  <TORSDO>
F 2

$$$$
=
 OpenBabel10272401143D

 27 31  0  0  0  0  0  0  0  0999 V2000
  185.6160  179.3150  140.1380 C   0  0  0  0  0  2  0  0  0  0  0  0
  185.7750  178.1350  142.3570 C   0  0  0  0  0  0  0  0  0  0  0  0
  188.1420  178.5220  141.3650 C   0  0  0  0  0  2  0  0  0  0  0  0
  185.2360  177.7310  143.5240 N   0  0  0  0  0  2  0  0  0  0  0  0
  189.1580  175.8450  137.3720 O   0  0  0  0  0  1  0  0  0  0  0  0
  188.2980  176.7020  138.0460 C   0  0  0  0  0  0  0  0  0  0  0  0
  184.9840  178.5640  141.2230 N   0  0  0  0  0  0  0  0  0  0  0  0
  187.4690  177.6180  143.6860 C   0  0  0  0  0  0  0  0  0  0  0  0
  186.5670  178.4340  139.3970 C   0  0  0  0  0  0  0  0  0  0  0  0
  187.1630  178.0750  142.4130 C   0  0  0  0  0  0  0  0  0  0  0  0
  188.6320  177.1640  139.3220 C   0  0  0  0  0  3  0  0  0  0  0  0
  186.2630  177.4150  144.3380 C   0  0  0  0  0  3  0  0  0  0  0  0
  187.0980  177.0990  137.4480 C   0  0  0  0  0  3  0  0  0  0  0  0
  186.2310  177.9620  138.1250 C   0  0  0  0  0  3  0  0  0  0  0  0
  187.7680  178.0280  140.0030 C   0  0  0  0  0  0  0  0  0  0  0  0
  189.0400  177.7160  145.6240 C   0  0  0  0  0  3  0  0  0  0  0  0
  191.3240  176.9360  145.4440 C   0  0  0  0  0  3  0  0  0  0  0  0
  191.1010  176.5980  144.1080 C   0  0  0  0  0  3  0  0  0  0  0  0
  189.8480  176.8200  143.5300 C   0  0  0  0  0  3  0  0  0  0  0  0
  188.8050  177.3820  144.2820 C   0  0  0  0  0  0  0  0  0  0  0  0
  190.2930  177.4960  146.2030 C   0  0  0  0  0  3  0  0  0  0  0  0
  180.8340  177.6800  140.8660 C   0  0  0  0  0  3  0  0  0  0  0  0
  183.5790  178.2460  141.1100 C   0  0  0  0  0  0  0  0  0  0  0  0
  183.1180  177.3300  140.1490 C   0  0  0  0  0  3  0  0  0  0  0  0
  181.7550  177.0460  140.0290 C   0  0  0  0  0  3  0  0  0  0  0  0
  181.2760  178.5990  141.8200 C   0  0  0  0  0  3  0  0  0  0  0  0
  182.6390  178.8830  141.9390 C   0  0  0  0  0  3  0  0  0  0  0  0
  1  7  1  0  0  0  0
  2 10  2  0  0  0  0
  2  4  1  0  0  0  0
  3 10  1  0  0  0  0
  4 12  1  0  0  0  0
  5  6  1  0  0  0  0
  6 11  1  0  0  0  0
  7  2  1  0  0  0  0
  8 20  1  0  0  0  0
  8 12  2  0  0  0  0
  9 15  1  0  0  0  0
  9  1  1  0  0  0  0
 10  8  1  0  0  0  0
 11 15  2  0  0  0  0
 13  6  2  0  0  0  0
 13 14  1  0  0  0  0
 14  9  2  0  0  0  0
 15  3  1  0  0  0  0
 16 21  1  0  0  0  0
 17 21  2  0  0  0  0
 18 17  1  0  0  0  0
 19 18  2  0  0  0  0
 19 20  1  0  0  0  0
 20 16  2  0  0  0  0
 22 26  1  0  0  0  0
 23  7  1  0  0  0  0
 23 27  1  0  0  0  0
 24 23  2  0  0  0  0
 25 24  1  0  0  0  0
 25 22  2  0  0  0  0
 26 27  2  0  0  0  0
M  END
>  <MODEL>
3

>  <REMARK>
 VINA RESULT:      -8.1      1.187      1.563
  Name = 
  2 active torsions:
  status: ('A' for Active; 'I' for Inactive)
    1  A    between atoms: C_9  and  N_15
    2  A    between atoms: C_14  and  C_17
                            x       y       z     vdW  Elec       q    Type
                         _______ _______ _______ _____ _____    ______ ____

>  <TORSDO>
F 2

$$$$
=
 OpenBabel10272401143D

 27 31  0  0  1  0  0  0  0  0999 V2000
  188.5930  178.8380  138.8380 C   0  0  0  0  0  2  0  0  0  0  0  0
  186.1630  178.2730  139.1740 C   0  0  0  0  0  0  0  0  0  0  0  0
  187.2690  178.8980  141.4380 C   0  0  0  0  0  2  0  0  0  0  0  0
  184.9220  178.0530  138.6970 N   0  0  0  0  0  0  0  0  0  0  0  0
  190.5380  175.6260  143.0970 O   0  0  0  0  0  1  0  0  0  0  0  0
  190.0670  176.4200  142.0600 C   0  0  0  0  0  0  0  0  0  0  0  0
  187.3480  178.2490  138.3440 N   0  0  0  0  0  0  0  0  0  0  0  0
  184.7860  178.4460  140.9000 C   0  0  0  0  0  0  0  0  0  0  0  0
  189.1260  178.0250  139.9710 C   0  0  0  0  0  0  0  0  0  0  0  0
  186.1240  178.5170  140.5430 C   0  0  1  0  0  3  0  0  0  0  0  0
  188.9440  177.2290  142.2550 C   0  0  0  0  0  3  0  0  0  0  0  0
  184.0780  178.1570  139.7440 C   0  0  0  0  0  3  0  0  0  0  0  0
  190.7160  176.4080  140.8220 C   0  0  0  0  0  3  0  0  0  0  0  0
  190.2430  177.2070  139.7760 C   0  0  0  0  0  3  0  0  0  0  0  0
  188.4670  178.0300  141.2120 C   0  0  0  0  0  0  0  0  0  0  0  0
  182.7950  178.8260  142.3580 C   0  0  0  0  0  3  0  0  0  0  0  0
  183.0010  178.9970  144.7630 C   0  0  0  0  0  3  0  0  0  0  0  0
  184.3800  178.8100  144.6570 C   0  0  0  0  0  3  0  0  0  0  0  0
  184.9660  178.6320  143.4010 C   0  0  0  0  0  3  0  0  0  0  0  0
  184.1810  178.6390  142.2390 C   0  0  0  0  0  0  0  0  0  0  0  0
  182.2060  179.0050  143.6130 C   0  0  0  0  0  3  0  0  0  0  0  0
  187.4120  176.4490  134.4860 C   0  0  0  0  0  3  0  0  0  0  0  0
  187.3530  177.6300  137.0390 C   0  0  0  0  0  0  0  0  0  0  0  0
  187.5920  176.2530  136.8910 C   0  0  0  0  0  3  0  0  0  0  0  0
  187.6190  175.6650  135.6240 C   0  0  0  0  0  3  0  0  0  0  0  0
  187.1810  177.8200  134.6160 C   0  0  0  0  0  3  0  0  0  0  0  0
  187.1550  178.4070  135.8840 C   0  0  0  0  0  3  0  0  0  0  0  0
  1  9  1  0  0  0  0
  2 10  1  0  0  0  0
  4  2  2  0  0  0  0
  4 12  1  0  0  0  0
  6 11  1  0  0  0  0
  6  5  1  0  0  0  0
  7  1  1  0  0  0  0
  7  2  1  0  0  0  0
  8 20  1  0  0  0  0
  9 15  1  0  0  0  0
 10  8  1  0  0  0  0
 10  3  1  6  0  0  0
 12  8  2  0  0  0  0
 13  6  2  0  0  0  0
 14  9  2  0  0  0  0
 14 13  1  0  0  0  0
 15  3  1  0  0  0  0
 15 11  2  0  0  0  0
 16 21  1  0  0  0  0
 18 17  1  0  0  0  0
 19 18  2  0  0  0  0
 20 16  2  0  0  0  0
 20 19  1  0  0  0  0
 21 17  2  0  0  0  0
 22 26  2  0  0  0  0
 22 25  1  0  0  0  0
 23  7  1  0  0  0  0
 24 23  1  0  0  0  0
 25 24  2  0  0  0  0
 26 27  1  0  0  0  0
 27 23  2  0  0  0  0
M  END
>  <MODEL>
4

>  <REMARK>
 VINA RESULT:      -8.1      2.858      5.895
  Name = 
  2 active torsions:
  status: ('A' for Active; 'I' for Inactive)
    1  A    between atoms: C_9  and  N_15
    2  A    between atoms: C_14  and  C_17
                            x       y       z     vdW  Elec       q    Type
                         _______ _______ _______ _____ _____    ______ ____

>  <TORSDO>
F 2

$$$$
=
 OpenBabel10272401143D

 27 31  0  0  0  0  0  0  0  0999 V2000
  188.4490  178.8110  138.6140 C   0  0  0  0  0  2  0  0  0  0  0  0
  187.6130  178.0800  140.8730 C   0  0  0  0  0  0  0  0  0  0  0  0
  190.1940  177.8340  140.7380 C   0  0  0  0  0  2  0  0  0  0  0  0
  186.6520  178.0160  141.8150 N   0  0  0  0  0  2  0  0  0  0  0  0
  191.7640  174.2890  137.7210 O   0  0  0  0  0  1  0  0  0  0  0  0
  190.9620  175.4010  137.9370 C   0  0  0  0  0  0  0  0  0  0  0  0
  187.3470  178.4140  139.4890 N   0  0  0  0  0  0  0  0  0  0  0  0
  188.6250  177.5370  142.7660 C   0  0  0  0  0  0  0  0  0  0  0  0
  189.3510  177.6470  138.3690 C   0  0  0  0  0  0  0  0  0  0  0  0
  188.8560  177.7840  141.4210 C   0  0  0  0  0  0  0  0  0  0  0  0
  190.9730  176.0370  139.1820 C   0  0  0  0  0  3  0  0  0  0  0  0
  187.2620  177.6860  142.9710 C   0  0  0  0  0  3  0  0  0  0  0  0
  190.1440  175.8830  136.9110 C   0  0  0  0  0  3  0  0  0  0  0  0
  189.3360  177.0030  137.1280 C   0  0  0  0  0  3  0  0  0  0  0  0
  190.1660  177.1580  139.4040 C   0  0  0  0  0  0  0  0  0  0  0  0
  190.6690  176.3170  143.5210 C   0  0  0  0  0  3  0  0  0  0  0  0
  191.4930  176.5100  145.7880 C   0  0  0  0  0  3  0  0  0  0  0  0
  190.4420  177.3770  146.0950 C   0  0  0  0  0  3  0  0  0  0  0  0
  189.5050  177.7120  145.1140 C   0  0  0  0  0  3  0  0  0  0  0  0
  189.6070  177.1860  143.8180 C   0  0  0  0  0  0  0  0  0  0  0  0
  191.6070  175.9790  144.5000 C   0  0  0  0  0  3  0  0  0  0  0  0
  183.4240  178.1370  137.8580 C   0  0  0  0  0  3  0  0  0  0  0  0
  186.0180  178.3370  138.9280 C   0  0  0  0  0  0  0  0  0  0  0  0
  184.9610  179.0950  139.4610 C   0  0  0  0  0  3  0  0  0  0  0  0
  183.6730  178.9980  138.9280 C   0  0  0  0  0  3  0  0  0  0  0  0
  184.4620  177.3710  137.3220 C   0  0  0  0  0  3  0  0  0  0  0  0
  185.7500  177.4680  137.8560 C   0  0  0  0  0  3  0  0  0  0  0  0
  1  7  1  0  0  0  0
  2 10  2  0  0  0  0
  2  4  1  0  0  0  0
  3 10  1  0  0  0  0
  4 12  1  0  0  0  0
  5  6  1  0  0  0  0
  6 11  1  0  0  0  0
  7  2  1  0  0  0  0
  8 12  2  0  0  0  0
  8 20  1  0  0  0  0
  9  1  1  0  0  0  0
  9 15  1  0  0  0  0
 10  8  1  0  0  0  0
 11 15  2  0  0  0  0
 13 14  1  0  0  0  0
 13  6  2  0  0  0  0
 14  9  2  0  0  0  0
 15  3  1  0  0  0  0
 16 20  2  0  0  0  0
 16 21  1  0  0  0  0
 17 18  1  0  0  0  0
 19 18  2  0  0  0  0
 20 19  1  0  0  0  0
 21 17  2  0  0  0  0
 22 25  1  0  0  0  0
 23 24  1  0  0  0  0
 23  7  1  0  0  0  0
 25 24  2  0  0  0  0
 26 27  1  0  0  0  0
 26 22  2  0  0  0  0
 27 23  2  0  0  0  0
M  END
>  <MODEL>
5

>  <REMARK>
 VINA RESULT:      -7.7      1.792      2.851
  Name = 
  2 active torsions:
  status: ('A' for Active; 'I' for Inactive)
    1  A    between atoms: C_9  and  N_15
    2  A    between atoms: C_14  and  C_17
                            x       y       z     vdW  Elec       q    Type
                         _______ _______ _______ _____ _____    ______ ____

>  <TORSDO>
F 2

$$$$
=
 OpenBabel10272401143D

 27 31  0  0  0  0  0  0  0  0999 V2000
  184.5160  179.1440  140.3880 C   0  0  0  0  0  2  0  0  0  0  0  0
  186.9170  178.3920  140.3200 C   0  0  0  0  0  0  0  0  0  0  0  0
  185.8330  178.1770  137.9720 C   0  0  0  0  0  2  0  0  0  0  0  0
  188.1480  178.3120  140.8620 N   0  0  0  0  0  2  0  0  0  0  0  0
  182.4170  174.6640  137.6020 O   0  0  0  0  0  1  0  0  0  0  0  0
  182.9250  175.7660  138.2760 C   0  0  0  0  0  0  0  0  0  0  0  0
  185.7340  178.7290  141.0830 N   0  0  0  0  0  0  0  0  0  0  0  0
  188.2950  177.8520  138.6730 C   0  0  0  0  0  0  0  0  0  0  0  0
  183.9440  177.9910  139.6320 C   0  0  0  0  0  0  0  0  0  0  0  0
  186.9630  178.1070  138.9600 C   0  0  0  0  0  0  0  0  0  0  0  0
  184.0830  176.3960  137.8090 C   0  0  0  0  0  3  0  0  0  0  0  0
  188.9930  177.9830  139.8640 C   0  0  0  0  0  3  0  0  0  0  0  0
  182.2810  176.2430  139.4210 C   0  0  0  0  0  3  0  0  0  0  0  0
  182.7920  177.3530  140.1010 C   0  0  0  0  0  3  0  0  0  0  0  0
  184.5980  177.5070  138.4870 C   0  0  0  0  0  0  0  0  0  0  0  0
  189.9820  176.6080  137.3150 C   0  0  0  0  0  3  0  0  0  0  0  0
  190.0750  176.8240  134.9060 C   0  0  0  0  0  3  0  0  0  0  0  0
  189.0030  177.7180  134.9460 C   0  0  0  0  0  3  0  0  0  0  0  0
  188.4220  178.0570  136.1710 C   0  0  0  0  0  3  0  0  0  0  0  0
  188.9050  177.5070  137.3670 C   0  0  0  0  0  0  0  0  0  0  0  0
  190.5660  176.2690  136.0910 C   0  0  0  0  0  3  0  0  0  0  0  0
  185.5980  178.4420  145.3290 C   0  0  0  0  0  3  0  0  0  0  0  0
  185.7050  178.6400  142.5250 C   0  0  0  0  0  0  0  0  0  0  0  0
  186.5290  177.7320  143.2120 C   0  0  0  0  0  3  0  0  0  0  0  0
  186.4790  177.6350  144.6050 C   0  0  0  0  0  3  0  0  0  0  0  0
  184.7680  179.3440  144.6600 C   0  0  0  0  0  3  0  0  0  0  0  0
  184.8190  179.4400  143.2670 C   0  0  0  0  0  3  0  0  0  0  0  0
  1  7  1  0  0  0  0
  2  4  1  0  0  0  0
  2  7  1  0  0  0  0
  3 15  1  0  0  0  0
  3 10  1  0  0  0  0
  5  6  1  0  0  0  0
  6 13  1  0  0  0  0
  7 23  1  0  0  0  0
  8 10  1  0  0  0  0
  8 12  2  0  0  0  0
  9 14  1  0  0  0  0
  9  1  1  0  0  0  0
 10  2  2  0  0  0  0
 11  6  2  0  0  0  0
 11 15  1  0  0  0  0
 12  4  1  0  0  0  0
 13 14  2  0  0  0  0
 15  9  2  0  0  0  0
 16 20  1  0  0  0  0
 17 18  2  0  0  0  0
 17 21  1  0  0  0  0
 18 19  1  0  0  0  0
 19 20  2  0  0  0  0
 20  8  1  0  0  0  0
 21 16  2  0  0  0  0
 23 24  2  0  0  0  0
 23 27  1  0  0  0  0
 24 25  1  0  0  0  0
 25 22  2  0  0  0  0
 26 22  1  0  0  0  0
 27 26  2  0  0  0  0
M  END
>  <MODEL>
6

>  <REMARK>
 VINA RESULT:      -7.6      3.090      6.547
  Name = 
  2 active torsions:
  status: ('A' for Active; 'I' for Inactive)
    1  A    between atoms: C_9  and  N_15
    2  A    between atoms: C_14  and  C_17
                            x       y       z     vdW  Elec       q    Type
                         _______ _______ _______ _____ _____    ______ ____

>  <TORSDO>
F 2

$$$$
=
 OpenBabel10272401143D

 27 31  0  0  0  0  0  0  0  0999 V2000
  187.4850  176.4740  144.1320 C   0  0  0  0  0  2  0  0  0  0  0  0
  185.6490  178.0390  144.8520 C   0  0  0  0  0  0  0  0  0  0  0  0
  185.3830  177.4210  142.3450 C   0  0  0  0  0  2  0  0  0  0  0  0
  184.9330  178.6640  145.8080 N   0  0  0  0  0  2  0  0  0  0  0  0
  188.8350  179.2900  139.3910 O   0  0  0  0  0  1  0  0  0  0  0  0
  188.5040  178.5930  140.5450 C   0  0  0  0  0  0  0  0  0  0  0  0
  186.9370  177.4260  145.0980 N   0  0  0  0  0  0  0  0  0  0  0  0
  183.7930  178.7540  143.8790 C   0  0  0  0  0  0  0  0  0  0  0  0
  187.8390  177.1800  142.8660 C   0  0  0  0  0  0  0  0  0  0  0  0
  184.9780  178.0760  143.6350 C   0  0  0  0  0  0  0  0  0  0  0  0
  187.1610  178.3660  140.8610 C   0  0  0  0  0  3  0  0  0  0  0  0
  183.8010  179.1020  145.2210 C   0  0  0  0  0  3  0  0  0  0  0  0
  189.5130  178.1200  141.3890 C   0  0  0  0  0  3  0  0  0  0  0  0
  189.1800  177.4160  142.5510 C   0  0  0  0  0  3  0  0  0  0  0  0
  186.8240  177.6630  142.0230 C   0  0  0  0  0  0  0  0  0  0  0  0
  182.8970  178.8790  141.5520 C   0  0  0  0  0  3  0  0  0  0  0  0
  180.6420  179.6360  141.1030 C   0  0  0  0  0  3  0  0  0  0  0  0
  180.4340  179.8220  142.4710 C   0  0  0  0  0  3  0  0  0  0  0  0
  181.4580  179.5380  143.3790 C   0  0  0  0  0  3  0  0  0  0  0  0
  182.6990  179.0650  142.9290 C   0  0  0  0  0  0  0  0  0  0  0  0
  181.8740  179.1630  140.6430 C   0  0  0  0  0  3  0  0  0  0  0  0
  189.2410  178.3310  148.5630 C   0  0  0  0  0  3  0  0  0  0  0  0
  187.7250  177.7500  146.2650 C   0  0  0  0  0  0  0  0  0  0  0  0
  189.1280  177.6630  146.2400 C   0  0  0  0  0  3  0  0  0  0  0  0
  189.8820  177.9550  147.3800 C   0  0  0  0  0  3  0  0  0  0  0  0
  187.8480  178.4130  148.6060 C   0  0  0  0  0  3  0  0  0  0  0  0
  187.0950  178.1210  147.4660 C   0  0  0  0  0  3  0  0  0  0  0  0
  1  7  1  0  0  0  0
  2  7  1  0  0  0  0
  2  4  1  0  0  0  0
  3 10  1  0  0  0  0
  5  6  1  0  0  0  0
  6 11  2  0  0  0  0
  6 13  1  0  0  0  0
  7 23  1  0  0  0  0
  8 12  2  0  0  0  0
  9  1  1  0  0  0  0
 10  8  1  0  0  0  0
 10  2  2  0  0  0  0
 11 15  1  0  0  0  0
 12  4  1  0  0  0  0
 13 14  2  0  0  0  0
 14  9  1  0  0  0  0
 15  3  1  0  0  0  0
 15  9  2  0  0  0  0
 16 20  1  0  0  0  0
 17 18  2  0  0  0  0
 18 19  1  0  0  0  0
 20 19  2  0  0  0  0
 20  8  1  0  0  0  0
 21 17  1  0  0  0  0
 21 16  2  0  0  0  0
 22 26  1  0  0  0  0
 23 27  1  0  0  0  0
 24 23  2  0  0  0  0
 24 25  1  0  0  0  0
 25 22  2  0  0  0  0
 27 26  2  0  0  0  0
M  END
>  <MODEL>
7

>  <REMARK>
 VINA RESULT:      -7.6      1.862      6.767
  Name = 
  2 active torsions:
  status: ('A' for Active; 'I' for Inactive)
    1  A    between atoms: C_9  and  N_15
    2  A    between atoms: C_14  and  C_17
                            x       y       z     vdW  Elec       q    Type
                         _______ _______ _______ _____ _____    ______ ____

>  <TORSDO>
F 2

$$$$
=
 OpenBabel10272401143D

 27 31  0  0  1  0  0  0  0  0999 V2000
  186.2270  179.2870  138.8350 C   0  0  0  0  0  2  0  0  0  0  0  0
  185.1270  178.4430  140.9360 C   0  0  0  0  0  0  0  0  0  0  0  0
  187.6810  178.7320  141.3020 C   0  0  0  0  0  2  0  0  0  0  0  0
  184.0330  178.2010  141.6850 N   0  0  0  0  0  0  0  0  0  0  0  0
  190.4820  175.5280  138.8470 O   0  0  0  0  0  1  0  0  0  0  0  0
  189.4490  176.4550  138.8440 C   0  0  0  0  0  0  0  0  0  0  0  0
  185.0760  178.6880  139.5110 N   0  0  0  0  0  0  0  0  0  0  0  0
  185.8370  178.1580  143.0150 C   0  0  0  0  0  0  0  0  0  0  0  0
  187.3710  178.3290  138.8320 C   0  0  0  0  0  0  0  0  0  0  0  0
  186.2730  178.4210  141.7250 C   0  0  1  0  0  3  0  0  0  0  0  0
  189.0900  177.1040  140.0290 C   0  0  0  0  0  3  0  0  0  0  0  0
  184.4590  178.0270  142.9520 C   0  0  0  0  0  3  0  0  0  0  0  0
  188.7670  176.7370  137.6560 C   0  0  0  0  0  3  0  0  0  0  0  0
  187.7270  177.6710  137.6510 C   0  0  0  0  0  3  0  0  0  0  0  0
  188.0490  178.0390  140.0290 C   0  0  0  0  0  0  0  0  0  0  0  0
  187.9580  177.5470  144.1820 C   0  0  0  0  0  3  0  0  0  0  0  0
  188.2060  177.8080  146.5750 C   0  0  0  0  0  3  0  0  0  0  0  0
  186.9020  178.3000  146.6550 C   0  0  0  0  0  3  0  0  0  0  0  0
  186.1260  178.4140  145.4990 C   0  0  0  0  0  3  0  0  0  0  0  0
  186.6450  178.0380  144.2510 C   0  0  0  0  0  0  0  0  0  0  0  0
  188.7360  177.4310  145.3380 C   0  0  0  0  0  3  0  0  0  0  0  0
  181.7010  177.6620  137.1270 C   0  0  0  0  0  3  0  0  0  0  0  0
  183.9240  178.3290  138.7160 C   0  0  0  0  0  0  0  0  0  0  0  0
  183.8050  177.0470  138.1510 C   0  0  0  0  0  3  0  0  0  0  0  0
  182.6990  176.7150  137.3640 C   0  0  0  0  0  3  0  0  0  0  0  0
  181.8090  178.9420  137.6750 C   0  0  0  0  0  3  0  0  0  0  0  0
  182.9150  179.2740  138.4620 C   0  0  0  0  0  3  0  0  0  0  0  0
  1  7  1  0  0  0  0
  2  4  2  0  0  0  0
  2 10  1  0  0  0  0
  4 12  1  0  0  0  0
  6  5  1  0  0  0  0
  6 11  1  0  0  0  0
  7  2  1  0  0  0  0
  8 20  1  0  0  0  0
  9  1  1  0  0  0  0
  9 15  1  0  0  0  0
 10  3  1  1  0  0  0
 10  8  1  0  0  0  0
 12  8  2  0  0  0  0
 13  6  2  0  0  0  0
 14 13  1  0  0  0  0
 14  9  2  0  0  0  0
 15 11  2  0  0  0  0
 15  3  1  0  0  0  0
 16 20  2  0  0  0  0
 16 21  1  0  0  0  0
 17 18  1  0  0  0  0
 19 18  2  0  0  0  0
 20 19  1  0  0  0  0
 21 17  2  0  0  0  0
 22 25  2  0  0  0  0
 22 26  1  0  0  0  0
 23  7  1  0  0  0  0
 24 23  2  0  0  0  0
 25 24  1  0  0  0  0
 26 27  2  0  0  0  0
 27 23  1  0  0  0  0
M  END
>  <MODEL>
8

>  <REMARK>
 VINA RESULT:      -7.4      1.839      3.134
  Name = 
  2 active torsions:
  status: ('A' for Active; 'I' for Inactive)
    1  A    between atoms: C_9  and  N_15
    2  A    between atoms: C_14  and  C_17
                            x       y       z     vdW  Elec       q    Type
                         _______ _______ _______ _____ _____    ______ ____

>  <TORSDO>
F 2

$$$$
=
 OpenBabel10272401143D

 27 31  0  0  0  0  0  0  0  0999 V2000
  184.6530  179.3810  139.6180 C   0  0  0  0  0  2  0  0  0  0  0  0
  186.6640  178.4380  140.8040 C   0  0  0  0  0  0  0  0  0  0  0  0
  186.9600  178.2540  138.2320 C   0  0  0  0  0  2  0  0  0  0  0  0
  187.4170  178.2740  141.9100 N   0  0  0  0  0  2  0  0  0  0  0  0
  183.9760  175.0180  136.0490 O   0  0  0  0  0  1  0  0  0  0  0  0
  184.1420  176.0920  136.9130 C   0  0  0  0  0  0  0  0  0  0  0  0
  185.2880  178.8870  140.8400 N   0  0  0  0  0  0  0  0  0  0  0  0
  188.6530  177.7510  140.1130 C   0  0  0  0  0  0  0  0  0  0  0  0
  184.4730  178.2600  138.6490 C   0  0  0  0  0  0  0  0  0  0  0  0
  187.3940  178.1190  139.6640 C   0  0  0  0  0  0  0  0  0  0  0  0
  185.4180  176.6160  137.1370 C   0  0  0  0  0  3  0  0  0  0  0  0
  188.6300  177.8550  141.4950 C   0  0  0  0  0  3  0  0  0  0  0  0
  183.0330  176.6460  137.5590 C   0  0  0  0  0  3  0  0  0  0  0  0
  183.1990  177.7270  138.4300 C   0  0  0  0  0  3  0  0  0  0  0  0
  185.5890  177.6980  138.0080 C   0  0  0  0  0  0  0  0  0  0  0  0
  191.0980  177.2890  139.9080 C   0  0  0  0  0  3  0  0  0  0  0  0
  192.0700  176.5190  137.8300 C   0  0  0  0  0  3  0  0  0  0  0  0
  190.8100  176.5520  137.2300 C   0  0  0  0  0  3  0  0  0  0  0  0
  189.6950  176.9540  137.9690 C   0  0  0  0  0  3  0  0  0  0  0  0
  189.8260  177.3270  139.3140 C   0  0  0  0  0  0  0  0  0  0  0  0
  192.2150  176.8880  139.1700 C   0  0  0  0  0  3  0  0  0  0  0  0
  182.9800  178.7890  144.4160 C   0  0  0  0  0  3  0  0  0  0  0  0
  184.5010  178.8350  142.0500 C   0  0  0  0  0  0  0  0  0  0  0  0
  183.0970  178.7880  142.0000 C   0  0  0  0  0  3  0  0  0  0  0  0
  182.3410  178.7620  143.1740 C   0  0  0  0  0  3  0  0  0  0  0  0
  184.3740  178.8440  144.4820 C   0  0  0  0  0  3  0  0  0  0  0  0
  185.1290  178.8700  143.3070 C   0  0  0  0  0  3  0  0  0  0  0  0
  1  7  1  0  0  0  0
  2  7  1  0  0  0  0
  2  4  1  0  0  0  0
  3 10  1  0  0  0  0
  5  6  1  0  0  0  0
  6 11  2  0  0  0  0
  6 13  1  0  0  0  0
  7 23  1  0  0  0  0
  8 12  2  0  0  0  0
  9  1  1  0  0  0  0
 10  8  1  0  0  0  0
 10  2  2  0  0  0  0
 11 15  1  0  0  0  0
 12  4  1  0  0  0  0
 13 14  2  0  0  0  0
 14  9  1  0  0  0  0
 15  3  1  0  0  0  0
 15  9  2  0  0  0  0
 17 21  1  0  0  0  0
 18 17  2  0  0  0  0
 18 19  1  0  0  0  0
 19 20  2  0  0  0  0
 20 16  1  0  0  0  0
 20  8  1  0  0  0  0
 21 16  2  0  0  0  0
 22 26  1  0  0  0  0
 23 27  1  0  0  0  0
 24 23  2  0  0  0  0
 24 25  1  0  0  0  0
 25 22  2  0  0  0  0
 27 26  2  0  0  0  0
M  END
>  <MODEL>
9

>  <REMARK>
 VINA RESULT:      -7.3      3.262      5.136
  Name = 
  2 active torsions:
  status: ('A' for Active; 'I' for Inactive)
    1  A    between atoms: C_9  and  N_15
    2  A    between atoms: C_14  and  C_17
                            x       y       z     vdW  Elec       q    Type
                         _______ _______ _______ _____ _____    ______ ____

>  <TORSDO>
F 2

$$$$
