=
 OpenBabel10272401593D

 28 32  0  0  1  0  0  0  0  0999 V2000
  188.4250  176.7680  143.0400 C   0  0  1  0  0  3  0  0  0  0  0  0
  192.7940  176.9370  138.5640 C   0  0  1  0  0  3  0  0  0  0  0  0
  187.5140  178.8700  138.6520 O   0  0  0  0  0  1  0  0  0  0  0  0
  191.1460  175.1930  138.2340 C   0  0  2  0  0  3  0  0  0  0  0  0
  190.6190  177.1410  139.8790 C   0  0  2  0  0  3  0  0  0  0  0  0
  193.3880  175.9180  137.6060 C   0  0  1  0  0  3  0  0  0  0  0  0
  191.6630  176.2110  139.2490 C   0  0  2  0  0  3  0  0  0  0  0  0
  188.9310  176.4200  138.1610 C   0  0  0  0  0  2  0  0  0  0  0  0
  192.3630  174.8590  137.3690 C   0  0  2  0  0  3  0  0  0  0  0  0
  187.8980  177.8050  140.7840 C   0  0  2  0  0  3  0  0  0  0  0  0
  189.9690  176.4490  141.0770 C   0  0  0  0  0  2  0  0  0  0  0  0
  190.0030  175.7140  137.3480 C   0  0  0  0  0  2  0  0  0  0  0  0
  186.2560  177.9870  142.6460 C   0  0  0  0  0  2  0  0  0  0  0  0
  188.5110  178.5010  139.5610 C   0  0  1  0  0  3  0  0  0  0  0  0
  186.8830  178.7160  141.4670 C   0  0  0  0  0  2  0  0  0  0  0  0
  192.6200  175.8800  136.4300 O   0  0  0  0  0  0  0  0  0  0  0  0
  193.7920  177.3260  139.5440 N   0  0  0  0  0  1  0  0  0  0  0  0
  189.5610  177.6170  138.8710 C   0  0  1  0  0  3  0  0  0  0  0  0
  187.3330  177.6380  143.6660 C   0  0  0  0  0  2  0  0  0  0  0  0
  189.0110  177.4120  141.7720 C   0  0  2  0  0  3  0  0  0  0  0  0
  189.5000  176.4300  144.0840 C   0  0  0  0  0  2  0  0  0  0  0  0
  189.6740  177.4940  145.0730 N   0  0  0  0  0  0  0  0  0  0  0  0
  188.3100  176.4070  146.6400 O   0  0  0  0  0  0  0  0  0  0  0  0
  189.0240  177.4050  146.3570 C   0  0  0  0  0  0  0  0  0  0  0  0
  189.1410  178.5060  147.3600 C   0  0  0  0  0  2  0  0  0  0  0  0
  188.3260  178.1710  148.5940 C   0  0  0  0  0  1  0  0  0  0  0  0
  190.2720  178.7470  144.6250 C   0  0  0  0  0  2  0  0  0  0  0  0
  191.6660  178.5030  144.0780 C   0  0  0  0  0  1  0  0  0  0  0  0
  1 19  1  0  0  0  0
  1 21  1  1  0  0  0
  2  7  1  0  0  0  0
  2 17  1  1  0  0  0
  3 14  1  0  0  0  0
  4 12  1  6  0  0  0
  4  7  1  0  0  0  0
  5 11  1  1  0  0  0
  6 16  1  6  0  0  0
  6  2  1  0  0  0  0
  7  5  1  0  0  0  0
  8 18  1  0  0  0  0
  9  6  1  0  0  0  0
  9  4  1  0  0  0  0
 10 15  1  0  0  0  0
 10 20  1  0  0  0  0
 11 20  1  0  0  0  0
 12  8  1  0  0  0  0
 13 19  1  0  0  0  0
 14 10  1  0  0  0  0
 15 13  1  0  0  0  0
 16  9  1  0  0  0  0
 18 14  1  0  0  0  0
 18  5  1  0  0  0  0
 20  1  1  0  0  0  0
 21 22  1  0  0  0  0
 22 24  1  0  0  0  0
 24 23  2  0  0  0  0
 24 25  1  0  0  0  0
 25 26  1  0  0  0  0
 27 22  1  0  0  0  0
 28 27  1  0  0  0  0
M  END
>  <MODEL>
1

>  <REMARK>
 VINA RESULT:      -7.5      0.000      0.000
  Name = 
  4 active torsions:
  status: ('A' for Active; 'I' for Inactive)
    1  A    between atoms: C_1  and  C_2
    2  A    between atoms: C_2  and  N_3
    3  A    between atoms: N_3  and  C_7
    4  A    between atoms: C_6  and  C_11
                            x       y       z     vdW  Elec       q    Type
                         _______ _______ _______ _____ _____    ______ ____

>  <TORSDO>
F 4

$$$$
=
 OpenBabel10272401593D

 28 32  0  0  1  0  0  0  0  0999 V2000
  188.8790  177.4160  142.7520 C   0  0  1  0  0  3  0  0  0  0  0  0
  187.4480  175.8520  136.8650 C   0  0  1  0  0  3  0  0  0  0  0  0
  192.3060  177.4850  139.1800 O   0  0  0  0  0  1  0  0  0  0  0  0
  187.5650  178.2450  137.2230 C   0  0  2  0  0  3  0  0  0  0  0  0
  188.6470  176.6460  138.9700 C   0  0  2  0  0  3  0  0  0  0  0  0
  186.6950  176.5250  135.7290 C   0  0  1  0  0  3  0  0  0  0  0  0
  187.5340  176.9000  137.9460 C   0  0  2  0  0  3  0  0  0  0  0  0
  189.9080  178.6400  138.1010 C   0  0  0  0  0  2  0  0  0  0  0  0
  186.7950  178.0010  135.9230 C   0  0  2  0  0  3  0  0  0  0  0  0
  190.6530  177.5190  140.9390 C   0  0  2  0  0  3  0  0  0  0  0  0
  188.2540  177.2500  140.3180 C   0  0  0  0  0  2  0  0  0  0  0  0
  188.9800  178.7540  136.9030 C   0  0  0  0  0  2  0  0  0  0  0  0
  191.2900  177.8740  143.3190 C   0  0  0  0  0  2  0  0  0  0  0  0
  191.0830  176.9410  139.5840 C   0  0  1  0  0  3  0  0  0  0  0  0
  191.7170  177.2510  141.9980 C   0  0  0  0  0  2  0  0  0  0  0  0
  187.5860  177.3120  134.9800 O   0  0  0  0  0  0  0  0  0  0  0  0
  186.6910  174.7110  137.3450 N   0  0  0  0  0  1  0  0  0  0  0  0
  190.0140  177.1710  138.5040 C   0  0  1  0  0  3  0  0  0  0  0  0
  189.9890  177.2380  143.7900 C   0  0  0  0  0  2  0  0  0  0  0  0
  189.3080  176.9060  141.3650 C   0  0  2  0  0  3  0  0  0  0  0  0
  187.5780  176.7670  143.2450 C   0  0  0  0  0  2  0  0  0  0  0  0
  186.6180  177.7500  143.7470 N   0  0  0  0  0  0  0  0  0  0  0  0
  187.4680  177.6270  145.9290 O   0  0  0  0  0  0  0  0  0  0  0  0
  186.6270  178.1310  145.1380 C   0  0  0  0  0  0  0  0  0  0  0  0
  185.6200  179.0890  145.6840 C   0  0  0  0  0  2  0  0  0  0  0  0
  184.7220  178.3840  146.6820 C   0  0  0  0  0  1  0  0  0  0  0  0
  185.4970  178.1060  142.8850 C   0  0  0  0  0  2  0  0  0  0  0  0
  185.8650  179.2750  141.9910 C   0  0  0  0  0  1  0  0  0  0  0  0
  1 21  1  1  0  0  0
  1 19  1  0  0  0  0
  2 17  1  1  0  0  0
  2  7  1  0  0  0  0
  3 14  1  0  0  0  0
  4 12  1  6  0  0  0
  4  7  1  0  0  0  0
  5 11  1  1  0  0  0
  6 16  1  6  0  0  0
  6  9  1  0  0  0  0
  6  2  1  0  0  0  0
  7  5  1  0  0  0  0
  8 18  1  0  0  0  0
  9  4  1  0  0  0  0
 10 20  1  0  0  0  0
 10 15  1  0  0  0  0
 11 20  1  0  0  0  0
 12  8  1  0  0  0  0
 13 19  1  0  0  0  0
 14 10  1  0  0  0  0
 15 13  1  0  0  0  0
 16  9  1  0  0  0  0
 18  5  1  0  0  0  0
 18 14  1  0  0  0  0
 20  1  1  0  0  0  0
 21 22  1  0  0  0  0
 22 24  1  0  0  0  0
 24 25  1  0  0  0  0
 24 23  2  0  0  0  0
 25 26  1  0  0  0  0
 27 22  1  0  0  0  0
 28 27  1  0  0  0  0
M  END
>  <MODEL>
2

>  <REMARK>
 VINA RESULT:      -7.2      2.590      4.266
  Name = 
  4 active torsions:
  status: ('A' for Active; 'I' for Inactive)
    1  A    between atoms: C_1  and  C_2
    2  A    between atoms: C_2  and  N_3
    3  A    between atoms: N_3  and  C_7
    4  A    between atoms: C_6  and  C_11
                            x       y       z     vdW  Elec       q    Type
                         _______ _______ _______ _____ _____    ______ ____

>  <TORSDO>
F 4

$$$$
=
 OpenBabel10272401593D

 28 32  0  0  1  0  0  0  0  0999 V2000
  184.9470  179.0040  142.2380 C   0  0  1  0  0  3  0  0  0  0  0  0
  190.1380  175.8510  143.7400 C   0  0  1  0  0  3  0  0  0  0  0  0
  185.8350  177.6080  146.9030 O   0  0  0  0  0  1  0  0  0  0  0  0
  190.2600  178.2110  144.2700 C   0  0  2  0  0  3  0  0  0  0  0  0
  187.9340  177.1290  143.8210 C   0  0  2  0  0  3  0  0  0  0  0  0
  191.6070  176.2130  143.8950 C   0  0  1  0  0  3  0  0  0  0  0  0
  189.4370  177.1670  143.5170 C   0  0  2  0  0  3  0  0  0  0  0  0
  188.2960  178.6140  145.8180 C   0  0  0  0  0  2  0  0  0  0  0  0
  191.6860  177.6580  144.2580 C   0  0  2  0  0  3  0  0  0  0  0  0
  185.3910  178.3560  144.6520 C   0  0  2  0  0  3  0  0  0  0  0  0
  187.2080  178.1580  142.9570 C   0  0  0  0  0  2  0  0  0  0  0  0
  189.8030  178.4470  145.7180 C   0  0  0  0  0  2  0  0  0  0  0  0
  183.2040  179.3630  144.0200 C   0  0  0  0  0  2  0  0  0  0  0  0
  186.1070  177.3460  145.5570 C   0  0  1  0  0  3  0  0  0  0  0  0
  183.8860  178.3210  144.8940 C   0  0  0  0  0  2  0  0  0  0  0  0
  191.8470  176.6330  145.2140 O   0  0  0  0  0  0  0  0  0  0  0  0
  189.9650  174.9990  142.5770 N   0  0  0  0  0  1  0  0  0  0  0  0
  187.6240  177.3390  145.3130 C   0  0  1  0  0  3  0  0  0  0  0  0
  183.4500  179.0430  142.5510 C   0  0  0  0  0  2  0  0  0  0  0  0
  185.7020  178.0480  143.1770 C   0  0  2  0  0  3  0  0  0  0  0  0
  185.1730  178.6780  140.7540 C   0  0  0  0  0  2  0  0  0  0  0  0
  183.9190  178.5660  140.0090 N   0  0  0  0  0  0  0  0  0  0  0  0
  184.2390  180.6330  138.9480 O   0  0  0  0  0  0  0  0  0  0  0  0
  183.5130  179.6160  139.1080 C   0  0  0  0  0  0  0  0  0  0  0  0
  182.2100  179.5490  138.3800 C   0  0  0  0  0  2  0  0  0  0  0  0
  181.4210  180.8220  138.6120 C   0  0  0  0  0  1  0  0  0  0  0  0
  182.9800  177.5260  140.4130 C   0  0  0  0  0  2  0  0  0  0  0  0
  183.0050  176.3760  139.4230 C   0  0  0  0  0  1  0  0  0  0  0  0
  1 21  1  6  0  0  0
  1 19  1  0  0  0  0
  1 20  1  0  0  0  0
  2 17  1  6  0  0  0
  2  6  1  0  0  0  0
  4 12  1  1  0  0  0
  5 11  1  6  0  0  0
  5 18  1  0  0  0  0
  6  9  1  0  0  0  0
  6 16  1  1  0  0  0
  7  2  1  0  0  0  0
  7  5  1  0  0  0  0
  7  4  1  0  0  0  0
  9  4  1  0  0  0  0
  9 16  1  0  0  0  0
 10 15  1  0  0  0  0
 10 14  1  0  0  0  0
 11 20  1  0  0  0  0
 12  8  1  0  0  0  0
 13 15  1  0  0  0  0
 14  3  1  0  0  0  0
 18 14  1  0  0  0  0
 18  8  1  0  0  0  0
 19 13  1  0  0  0  0
 20 10  1  0  0  0  0
 22 27  1  0  0  0  0
 22 21  1  0  0  0  0
 23 24  2  0  0  0  0
 24 22  1  0  0  0  0
 25 26  1  0  0  0  0
 25 24  1  0  0  0  0
 28 27  1  0  0  0  0
M  END
>  <MODEL>
3

>  <REMARK>
 VINA RESULT:      -7.2      4.071      7.294
  Name = 
  4 active torsions:
  status: ('A' for Active; 'I' for Inactive)
    1  A    between atoms: C_1  and  C_2
    2  A    between atoms: C_2  and  N_3
    3  A    between atoms: N_3  and  C_7
    4  A    between atoms: C_6  and  C_11
                            x       y       z     vdW  Elec       q    Type
                         _______ _______ _______ _____ _____    ______ ____

>  <TORSDO>
F 4

$$$$
=
 OpenBabel10272401593D

 28 32  0  0  1  0  0  0  0  0999 V2000
  187.1680  176.7900  144.0070 C   0  0  1  0  0  3  0  0  0  0  0  0
  183.7180  179.5360  139.5680 C   0  0  1  0  0  3  0  0  0  0  0  0
  183.7020  180.1300  145.1590 O   0  0  0  0  0  1  0  0  0  0  0  0
  182.5650  177.7330  140.7050 C   0  0  2  0  0  3  0  0  0  0  0  0
  184.6900  178.7690  141.7970 C   0  0  2  0  0  3  0  0  0  0  0  0
  182.5620  179.0970  138.6820 C   0  0  1  0  0  3  0  0  0  0  0  0
  183.9350  178.3850  140.5180 C   0  0  2  0  0  3  0  0  0  0  0  0
  182.6010  178.4000  143.1480 C   0  0  0  0  0  2  0  0  0  0  0  0
  181.8260  178.0120  139.3940 C   0  0  2  0  0  3  0  0  0  0  0  0
  185.3620  178.4560  144.6450 C   0  0  2  0  0  3  0  0  0  0  0  0
  185.4640  177.5610  142.3210 C   0  0  0  0  0  2  0  0  0  0  0  0
  181.7590  178.2920  141.8880 C   0  0  0  0  0  2  0  0  0  0  0  0
  186.9100  177.5780  146.3860 C   0  0  0  0  0  2  0  0  0  0  0  0
  184.5610  179.6700  144.1570 C   0  0  1  0  0  3  0  0  0  0  0  0
  186.1630  178.8090  145.8940 C   0  0  0  0  0  2  0  0  0  0  0  0
  181.3480  179.3390  139.3470 O   0  0  0  0  0  0  0  0  0  0  0  0
  184.9060  179.7340  138.7580 N   0  0  0  0  0  1  0  0  0  0  0  0
  183.7670  179.3510  142.8800 C   0  0  1  0  0  3  0  0  0  0  0  0
  187.8910  177.1120  145.3170 C   0  0  0  0  0  2  0  0  0  0  0  0
  186.3020  177.9680  143.5290 C   0  0  2  0  0  3  0  0  0  0  0  0
  188.1740  176.3240  142.9440 C   0  0  0  0  0  2  0  0  0  0  0  0
  189.2060  177.3250  142.6730 N   0  0  0  0  0  0  0  0  0  0  0  0
  190.7540  176.2680  144.0820 O   0  0  0  0  0  0  0  0  0  0  0  0
  190.4990  177.2240  143.3020 C   0  0  0  0  0  0  0  0  0  0  0  0
  191.5480  178.2650  143.0840 C   0  0  0  0  0  2  0  0  0  0  0  0
  191.5000  179.2900  144.2000 C   0  0  0  0  0  1  0  0  0  0  0  0
  188.8010  178.5500  141.9930 C   0  0  0  0  0  2  0  0  0  0  0  0
  188.5820  178.2890  140.5140 C   0  0  0  0  0  1  0  0  0  0  0  0
  1 21  1  6  0  0  0
  1 19  1  0  0  0  0
  2 17  1  6  0  0  0
  2  7  1  0  0  0  0
  4 12  1  1  0  0  0
  5 11  1  1  0  0  0
  5 18  1  0  0  0  0
  6 16  1  1  0  0  0
  6  9  1  0  0  0  0
  6  2  1  0  0  0  0
  7  4  1  0  0  0  0
  7  5  1  0  0  0  0
  9  4  1  0  0  0  0
 10 15  1  0  0  0  0
 11 20  1  0  0  0  0
 12  8  1  0  0  0  0
 14 10  1  0  0  0  0
 14  3  1  0  0  0  0
 15 13  1  0  0  0  0
 16  9  1  0  0  0  0
 18  8  1  0  0  0  0
 18 14  1  0  0  0  0
 19 13  1  0  0  0  0
 20  1  1  0  0  0  0
 20 10  1  0  0  0  0
 22 21  1  0  0  0  0
 22 24  1  0  0  0  0
 24 23  2  0  0  0  0
 25 24  1  0  0  0  0
 25 26  1  0  0  0  0
 27 22  1  0  0  0  0
 28 27  1  0  0  0  0
M  END
>  <MODEL>
4

>  <REMARK>
 VINA RESULT:      -7.1      3.572      6.811
  Name = 
  4 active torsions:
  status: ('A' for Active; 'I' for Inactive)
    1  A    between atoms: C_1  and  C_2
    2  A    between atoms: C_2  and  N_3
    3  A    between atoms: N_3  and  C_7
    4  A    between atoms: C_6  and  C_11
                            x       y       z     vdW  Elec       q    Type
                         _______ _______ _______ _____ _____    ______ ____

>  <TORSDO>
F 4

$$$$
=
 OpenBabel10272401593D

 28 32  0  0  1  0  0  0  0  0999 V2000
  189.7520  177.2590  140.3680 C   0  0  1  0  0  3  0  0  0  0  0  0
  193.8830  175.1750  136.1570 C   0  0  1  0  0  3  0  0  0  0  0  0
  188.6420  177.1200  135.5460 O   0  0  0  0  0  1  0  0  0  0  0  0
  192.1950  173.5380  136.7400 C   0  0  2  0  0  3  0  0  0  0  0  0
  191.7830  176.0440  137.3110 C   0  0  2  0  0  3  0  0  0  0  0  0
  194.4120  173.8060  135.7590 C   0  0  1  0  0  3  0  0  0  0  0  0
  192.7790  174.8910  137.1440 C   0  0  2  0  0  3  0  0  0  0  0  0
  189.9970  174.6710  136.1930 C   0  0  0  0  0  2  0  0  0  0  0  0
  193.3610  172.7970  136.0820 C   0  0  2  0  0  3  0  0  0  0  0  0
  189.1220  177.1510  137.9120 C   0  0  2  0  0  3  0  0  0  0  0  0
  191.1870  176.0110  138.7180 C   0  0  0  0  0  2  0  0  0  0  0  0
  191.0150  173.6300  135.7600 C   0  0  0  0  0  2  0  0  0  0  0  0
  187.5820  178.2340  139.5400 C   0  0  0  0  0  2  0  0  0  0  0  0
  189.6800  177.1780  136.4820 C   0  0  1  0  0  3  0  0  0  0  0  0
  188.1560  178.3110  138.1330 C   0  0  0  0  0  2  0  0  0  0  0  0
  193.5830  173.2560  134.7660 O   0  0  0  0  0  0  0  0  0  0  0  0
  194.9360  175.9370  136.8030 N   0  0  0  0  0  1  0  0  0  0  0  0
  190.6800  176.0370  136.2410 C   0  0  1  0  0  3  0  0  0  0  0  0
  188.7060  178.3590  140.5610 C   0  0  0  0  0  2  0  0  0  0  0  0
  190.2790  177.2190  138.9240 C   0  0  2  0  0  3  0  0  0  0  0  0
  190.8750  177.4040  141.4050 C   0  0  0  0  0  2  0  0  0  0  0  0
  190.4250  177.1030  142.7640 N   0  0  0  0  0  0  0  0  0  0  0  0
  191.7250  178.8200  143.6920 O   0  0  0  0  0  0  0  0  0  0  0  0
  190.9140  177.8750  143.8790 C   0  0  0  0  0  0  0  0  0  0  0  0
  190.5120  177.5480  145.2810 C   0  0  0  0  0  2  0  0  0  0  0  0
  191.6080  176.7520  145.9620 C   0  0  0  0  0  1  0  0  0  0  0  0
  189.7110  175.8490  142.9810 C   0  0  0  0  0  2  0  0  0  0  0  0
  188.2570  176.1190  143.3210 C   0  0  0  0  0  1  0  0  0  0  0  0
  1 19  1  0  0  0  0
  1 21  1  1  0  0  0
  2 17  1  1  0  0  0
  2  7  1  0  0  0  0
  3 14  1  0  0  0  0
  4 12  1  6  0  0  0
  4  7  1  0  0  0  0
  5 11  1  1  0  0  0
  6 16  1  6  0  0  0
  6  9  1  0  0  0  0
  6  2  1  0  0  0  0
  7  5  1  0  0  0  0
  8 18  1  0  0  0  0
  9  4  1  0  0  0  0
 10 15  1  0  0  0  0
 10 20  1  0  0  0  0
 11 20  1  0  0  0  0
 12  8  1  0  0  0  0
 13 19  1  0  0  0  0
 14 10  1  0  0  0  0
 15 13  1  0  0  0  0
 16  9  1  0  0  0  0
 18 14  1  0  0  0  0
 18  5  1  0  0  0  0
 20  1  1  0  0  0  0
 21 22  1  0  0  0  0
 22 27  1  0  0  0  0
 22 24  1  0  0  0  0
 23 24  2  0  0  0  0
 24 25  1  0  0  0  0
 25 26  1  0  0  0  0
 27 28  1  0  0  0  0
M  END
>  <MODEL>
5

>  <REMARK>
 VINA RESULT:      -7.1      2.163      3.296
  Name = 
  4 active torsions:
  status: ('A' for Active; 'I' for Inactive)
    1  A    between atoms: C_1  and  C_2
    2  A    between atoms: C_2  and  N_3
    3  A    between atoms: N_3  and  C_7
    4  A    between atoms: C_6  and  C_11
                            x       y       z     vdW  Elec       q    Type
                         _______ _______ _______ _____ _____    ______ ____

>  <TORSDO>
F 4

$$$$
=
 OpenBabel10272401593D

 28 32  0  0  1  0  0  0  0  0999 V2000
  184.3040  178.5640  142.1560 C   0  0  1  0  0  3  0  0  0  0  0  0
  187.0560  178.4980  136.5370 C   0  0  1  0  0  3  0  0  0  0  0  0
  181.6330  178.2350  138.0010 O   0  0  0  0  0  1  0  0  0  0  0  0
  186.3930  176.3000  137.3090 C   0  0  2  0  0  3  0  0  0  0  0  0
  185.3640  178.4060  138.4410 C   0  0  2  0  0  3  0  0  0  0  0  0
  187.8490  177.4720  135.7420 C   0  0  1  0  0  3  0  0  0  0  0  0
  186.5670  177.7520  137.7520 C   0  0  2  0  0  3  0  0  0  0  0  0
  183.9000  176.4950  137.7120 C   0  0  0  0  0  2  0  0  0  0  0  0
  187.4180  176.1150  136.1870 C   0  0  2  0  0  3  0  0  0  0  0  0
  182.9020  178.3370  140.0520 C   0  0  2  0  0  3  0  0  0  0  0  0
  185.3770  178.0700  139.9310 C   0  0  0  0  0  2  0  0  0  0  0  0
  184.9860  175.9650  136.7910 C   0  0  0  0  0  2  0  0  0  0  0  0
  181.7890  178.6400  142.2590 C   0  0  0  0  0  2  0  0  0  0  0  0
  182.8490  178.6530  138.5520 C   0  0  1  0  0  3  0  0  0  0  0  0
  181.7420  179.0070  140.7830 C   0  0  0  0  0  2  0  0  0  0  0  0
  186.9660  176.6890  134.9800 O   0  0  0  0  0  0  0  0  0  0  0  0
  187.9310  179.5820  136.9450 N   0  0  0  0  0  1  0  0  0  0  0  0
  184.0240  178.0160  137.7950 C   0  0  1  0  0  3  0  0  0  0  0  0
  183.0860  179.1490  142.8730 C   0  0  0  0  0  2  0  0  0  0  0  0
  184.2440  178.8080  140.6380 C   0  0  2  0  0  3  0  0  0  0  0  0
  185.6000  179.0910  142.7890 C   0  0  0  0  0  2  0  0  0  0  0  0
  186.2200  178.1180  143.6880 N   0  0  0  0  0  0  0  0  0  0  0  0
  185.3500  179.1650  145.5970 O   0  0  0  0  0  0  0  0  0  0  0  0
  186.0450  178.2320  145.1150 C   0  0  0  0  0  0  0  0  0  0  0  0
  186.7150  177.2840  146.0540 C   0  0  0  0  0  2  0  0  0  0  0  0
  187.9480  177.9310  146.6530 C   0  0  0  0  0  1  0  0  0  0  0  0
  187.2280  177.2240  143.1300 C   0  0  0  0  0  2  0  0  0  0  0  0
  188.2120  178.0020  142.2760 C   0  0  0  0  0  1  0  0  0  0  0  0
  1 21  1  1  0  0  0
  1 19  1  0  0  0  0
  2 17  1  1  0  0  0
  2  7  1  0  0  0  0
  3 14  1  0  0  0  0
  4 12  1  6  0  0  0
  4  7  1  0  0  0  0
  5 11  1  1  0  0  0
  6 16  1  6  0  0  0
  6  9  1  0  0  0  0
  6  2  1  0  0  0  0
  7  5  1  0  0  0  0
  8 18  1  0  0  0  0
  9  4  1  0  0  0  0
 10 20  1  0  0  0  0
 10 15  1  0  0  0  0
 11 20  1  0  0  0  0
 12  8  1  0  0  0  0
 13 19  1  0  0  0  0
 14 10  1  0  0  0  0
 15 13  1  0  0  0  0
 16  9  1  0  0  0  0
 18  5  1  0  0  0  0
 18 14  1  0  0  0  0
 20  1  1  0  0  0  0
 21 22  1  0  0  0  0
 22 24  1  0  0  0  0
 24 23  2  0  0  0  0
 24 25  1  0  0  0  0
 25 26  1  0  0  0  0
 27 22  1  0  0  0  0
 28 27  1  0  0  0  0
M  END
>  <MODEL>
6

>  <REMARK>
 VINA RESULT:      -7.0      3.679      4.992
  Name = 
  4 active torsions:
  status: ('A' for Active; 'I' for Inactive)
    1  A    between atoms: C_1  and  C_2
    2  A    between atoms: C_2  and  N_3
    3  A    between atoms: N_3  and  C_7
    4  A    between atoms: C_6  and  C_11
                            x       y       z     vdW  Elec       q    Type
                         _______ _______ _______ _____ _____    ______ ____

>  <TORSDO>
F 4

$$$$
=
 OpenBabel10272401593D

 28 32  0  0  1  0  0  0  0  0999 V2000
  188.2330  177.5720  139.2120 C   0  0  1  0  0  3  0  0  0  0  0  0
  193.5050  175.7980  136.3470 C   0  0  1  0  0  3  0  0  0  0  0  0
  188.2490  176.3280  134.4210 O   0  0  0  0  0  1  0  0  0  0  0  0
  192.0800  173.9420  136.9740 C   0  0  2  0  0  3  0  0  0  0  0  0
  191.0770  176.3440  136.8990 C   0  0  2  0  0  3  0  0  0  0  0  0
  194.3620  174.5420  136.3590 C   0  0  1  0  0  3  0  0  0  0  0  0
  192.2890  175.4430  137.1660 C   0  0  2  0  0  3  0  0  0  0  0  0
  189.8770  174.4170  135.8170 C   0  0  0  0  0  2  0  0  0  0  0  0
  193.4810  173.3890  136.7080 C   0  0  2  0  0  3  0  0  0  0  0  0
  188.1870  176.8870  136.7680 C   0  0  2  0  0  3  0  0  0  0  0  0
  190.2070  176.4210  138.1530 C   0  0  0  0  0  2  0  0  0  0  0  0
  191.1460  173.5820  135.8070 C   0  0  0  0  0  2  0  0  0  0  0  0
  186.1490  177.8520  137.8240 C   0  0  0  0  0  2  0  0  0  0  0  0
  189.0260  176.7910  135.4870 C   0  0  1  0  0  3  0  0  0  0  0  0
  186.9910  177.8100  136.5570 C   0  0  0  0  0  2  0  0  0  0  0  0
  193.8920  173.6480  135.3830 O   0  0  0  0  0  0  0  0  0  0  0  0
  194.2250  176.8860  136.9840 N   0  0  0  0  0  1  0  0  0  0  0  0
  190.2560  175.8900  135.6800 C   0  0  1  0  0  3  0  0  0  0  0  0
  186.9780  178.4140  138.9730 C   0  0  0  0  0  2  0  0  0  0  0  0
  189.0600  177.4020  137.9260 C   0  0  2  0  0  3  0  0  0  0  0  0
  189.0540  178.1560  140.3710 C   0  0  0  0  0  2  0  0  0  0  0  0
  189.0650  177.2830  141.5450 N   0  0  0  0  0  0  0  0  0  0  0  0
  187.0870  178.2140  142.3920 O   0  0  0  0  0  0  0  0  0  0  0  0
  188.0210  177.3820  142.5340 C   0  0  0  0  0  0  0  0  0  0  0  0
  188.0440  176.5400  143.7680 C   0  0  0  0  0  2  0  0  0  0  0  0
  188.3470  177.4020  144.9780 C   0  0  0  0  0  1  0  0  0  0  0  0
  190.2850  176.5320  141.8200 C   0  0  0  0  0  2  0  0  0  0  0  0
  191.4710  177.4710  141.9360 C   0  0  0  0  0  1  0  0  0  0  0  0
  1 21  1  1  0  0  0
  2  6  1  0  0  0  0
  2 17  1  1  0  0  0
  2  7  1  0  0  0  0
  3 14  1  0  0  0  0
  4 12  1  6  0  0  0
  4  7  1  0  0  0  0
  5  7  1  0  0  0  0
  5 11  1  1  0  0  0
  6 16  1  6  0  0  0
  6  9  1  0  0  0  0
  9  4  1  0  0  0  0
 10 20  1  0  0  0  0
 12  8  1  0  0  0  0
 13 19  1  0  0  0  0
 14 18  1  0  0  0  0
 14 10  1  0  0  0  0
 15 10  1  0  0  0  0
 15 13  1  0  0  0  0
 16  9  1  0  0  0  0
 18  8  1  0  0  0  0
 18  5  1  0  0  0  0
 19  1  1  0  0  0  0
 20 11  1  0  0  0  0
 20  1  1  0  0  0  0
 21 22  1  0  0  0  0
 22 27  1  0  0  0  0
 22 24  1  0  0  0  0
 23 24  2  0  0  0  0
 24 25  1  0  0  0  0
 25 26  1  0  0  0  0
 27 28  1  0  0  0  0
M  END
>  <MODEL>
7

>  <REMARK>
 VINA RESULT:      -6.9      2.207      3.639
  Name = 
  4 active torsions:
  status: ('A' for Active; 'I' for Inactive)
    1  A    between atoms: C_1  and  C_2
    2  A    between atoms: C_2  and  N_3
    3  A    between atoms: N_3  and  C_7
    4  A    between atoms: C_6  and  C_11
                            x       y       z     vdW  Elec       q    Type
                         _______ _______ _______ _____ _____    ______ ____

>  <TORSDO>
F 4

$$$$
=
 OpenBabel10272401593D

 28 32  0  0  1  0  0  0  0  0999 V2000
  184.2440  178.6280  142.1050 C   0  0  1  0  0  3  0  0  0  0  0  0
  186.9130  178.5160  136.4470 C   0  0  1  0  0  3  0  0  0  0  0  0
  181.5330  178.0270  138.0070 O   0  0  0  0  0  1  0  0  0  0  0  0
  186.3740  176.3130  137.3000 C   0  0  2  0  0  3  0  0  0  0  0  0
  185.2550  178.4010  138.3800 C   0  0  2  0  0  3  0  0  0  0  0  0
  187.7450  177.5060  135.6730 C   0  0  1  0  0  3  0  0  0  0  0  0
  186.4810  177.7860  137.6940 C   0  0  2  0  0  3  0  0  0  0  0  0
  183.8810  176.3960  137.7380 C   0  0  0  0  0  2  0  0  0  0  0  0
  187.3900  176.1440  136.1690 C   0  0  2  0  0  3  0  0  0  0  0  0
  182.8240  178.2610  140.0330 C   0  0  2  0  0  3  0  0  0  0  0  0
  185.3070  178.1150  139.8800 C   0  0  0  0  0  2  0  0  0  0  0  0
  184.9780  175.8910  136.8160 C   0  0  0  0  0  2  0  0  0  0  0  0
  181.7290  178.5790  142.2460 C   0  0  0  0  0  2  0  0  0  0  0  0
  182.7330  178.5240  138.5240 C   0  0  1  0  0  3  0  0  0  0  0  0
  181.6420  178.8950  140.7600 C   0  0  0  0  0  2  0  0  0  0  0  0
  186.8920  176.6540  134.9510 O   0  0  0  0  0  0  0  0  0  0  0  0
  187.7370  179.6560  136.8060 N   0  0  0  0  0  1  0  0  0  0  0  0
  183.9280  177.9220  137.7700 C   0  0  1  0  0  3  0  0  0  0  0  0
  183.0080  179.1740  142.8230 C   0  0  0  0  0  2  0  0  0  0  0  0
  184.1490  178.8180  140.5810 C   0  0  2  0  0  3  0  0  0  0  0  0
  185.5200  179.2400  142.7000 C   0  0  0  0  0  2  0  0  0  0  0  0
  186.2480  178.2990  143.5510 N   0  0  0  0  0  0  0  0  0  0  0  0
  187.8150  177.8260  141.8720 O   0  0  0  0  0  0  0  0  0  0  0  0
  187.4110  177.6130  143.0460 C   0  0  0  0  0  0  0  0  0  0  0  0
  188.1360  176.6060  143.8770 C   0  0  0  0  0  2  0  0  0  0  0  0
  189.1610  177.2980  144.7540 C   0  0  0  0  0  1  0  0  0  0  0  0
  185.6100  177.8710  144.7910 C   0  0  0  0  0  2  0  0  0  0  0  0
  185.4080  179.0550  145.7190 C   0  0  0  0  0  1  0  0  0  0  0  0
  1 21  1  1  0  0  0
  1 19  1  0  0  0  0
  2 17  1  1  0  0  0
  2  7  1  0  0  0  0
  3 14  1  0  0  0  0
  4 12  1  6  0  0  0
  4  7  1  0  0  0  0
  5 11  1  1  0  0  0
  6 16  1  6  0  0  0
  6  9  1  0  0  0  0
  6  2  1  0  0  0  0
  7  5  1  0  0  0  0
  8 18  1  0  0  0  0
  9  4  1  0  0  0  0
 10 20  1  0  0  0  0
 10 15  1  0  0  0  0
 11 20  1  0  0  0  0
 12  8  1  0  0  0  0
 13 19  1  0  0  0  0
 14 10  1  0  0  0  0
 15 13  1  0  0  0  0
 16  9  1  0  0  0  0
 18  5  1  0  0  0  0
 18 14  1  0  0  0  0
 20  1  1  0  0  0  0
 21 22  1  0  0  0  0
 22 27  1  0  0  0  0
 23 24  2  0  0  0  0
 24 22  1  0  0  0  0
 24 25  1  0  0  0  0
 25 26  1  0  0  0  0
 27 28  1  0  0  0  0
M  END
>  <MODEL>
8

>  <REMARK>
 VINA RESULT:      -6.8      3.804      5.299
  Name = 
  4 active torsions:
  status: ('A' for Active; 'I' for Inactive)
    1  A    between atoms: C_1  and  C_2
    2  A    between atoms: C_2  and  N_3
    3  A    between atoms: N_3  and  C_7
    4  A    between atoms: C_6  and  C_11
                            x       y       z     vdW  Elec       q    Type
                         _______ _______ _______ _____ _____    ______ ____

>  <TORSDO>
F 4

$$$$
=
 OpenBabel10272401593D

 28 32  0  0  1  0  0  0  0  0999 V2000
  187.7410  177.9800  141.4580 C   0  0  1  0  0  3  0  0  0  0  0  0
  182.6320  180.5880  138.9600 C   0  0  1  0  0  3  0  0  0  0  0  0
  183.4910  178.2150  143.9850 O   0  0  0  0  0  1  0  0  0  0  0  0
  182.6150  178.1670  138.8750 C   0  0  2  0  0  3  0  0  0  0  0  0
  184.2650  179.3690  140.4910 C   0  0  2  0  0  3  0  0  0  0  0  0
  181.6220  180.1710  137.9030 C   0  0  1  0  0  3  0  0  0  0  0  0
  183.5060  179.3750  139.1590 C   0  0  2  0  0  3  0  0  0  0  0  0
  182.8550  177.4470  141.2910 C   0  0  0  0  0  2  0  0  0  0  0  0
  181.5800  178.6800  137.8710 C   0  0  2  0  0  3  0  0  0  0  0  0
  185.5660  178.0290  142.7660 C   0  0  2  0  0  3  0  0  0  0  0  0
  185.5690  178.5880  140.3370 C   0  0  0  0  0  2  0  0  0  0  0  0
  181.9050  177.6040  140.1160 C   0  0  0  0  0  2  0  0  0  0  0  0
  187.6570  177.2430  143.8650 C   0  0  0  0  0  2  0  0  0  0  0  0
  184.2430  178.7830  142.9520 C   0  0  1  0  0  3  0  0  0  0  0  0
  186.3730  178.0350  144.0610 C   0  0  0  0  0  2  0  0  0  0  0  0
  180.5830  179.4460  138.5100 O   0  0  0  0  0  0  0  0  0  0  0  0
  183.4300  181.6940  138.4640 N   0  0  0  0  0  1  0  0  0  0  0  0
  183.4220  178.8180  141.6530 C   0  0  1  0  0  3  0  0  0  0  0  0
  188.5050  177.8970  142.7810 C   0  0  0  0  0  2  0  0  0  0  0  0
  186.3780  178.6720  141.6280 C   0  0  2  0  0  3  0  0  0  0  0  0
  188.6120  178.6430  140.3810 C   0  0  0  0  0  2  0  0  0  0  0  0
  189.1100  177.6840  139.3950 N   0  0  0  0  0  0  0  0  0  0  0  0
  191.1570  177.4340  140.5120 O   0  0  0  0  0  0  0  0  0  0  0  0
  190.4280  177.1160  139.5350 C   0  0  0  0  0  0  0  0  0  0  0  0
  190.9790  176.1800  138.5100 C   0  0  0  0  0  2  0  0  0  0  0  0
  192.4630  176.4300  138.3240 C   0  0  0  0  0  1  0  0  0  0  0  0
  188.3670  177.5450  138.1470 C   0  0  0  0  0  2  0  0  0  0  0  0
  188.6170  178.7410  137.2460 C   0  0  0  0  0  1  0  0  0  0  0  0
  1 21  1  6  0  0  0
  1 20  1  0  0  0  0
  1 19  1  0  0  0  0
  2 17  1  6  0  0  0
  2  7  1  0  0  0  0
  4  7  1  0  0  0  0
  4 12  1  1  0  0  0
  5 11  1  6  0  0  0
  5 18  1  0  0  0  0
  6 16  1  1  0  0  0
  6  2  1  0  0  0  0
  7  5  1  0  0  0  0
  8 18  1  0  0  0  0
  9  6  1  0  0  0  0
  9 16  1  0  0  0  0
  9  4  1  0  0  0  0
 10 14  1  0  0  0  0
 10 15  1  0  0  0  0
 11 20  1  0  0  0  0
 12  8  1  0  0  0  0
 13 15  1  0  0  0  0
 14  3  1  0  0  0  0
 18 14  1  0  0  0  0
 19 13  1  0  0  0  0
 20 10  1  0  0  0  0
 22 24  1  0  0  0  0
 22 21  1  0  0  0  0
 24 23  2  0  0  0  0
 25 24  1  0  0  0  0
 26 25  1  0  0  0  0
 27 22  1  0  0  0  0
 28 27  1  0  0  0  0
M  END
>  <MODEL>
9

>  <REMARK>
 VINA RESULT:      -6.7      4.029      7.719
  Name = 
  4 active torsions:
  status: ('A' for Active; 'I' for Inactive)
    1  A    between atoms: C_1  and  C_2
    2  A    between atoms: C_2  and  N_3
    3  A    between atoms: N_3  and  C_7
    4  A    between atoms: C_6  and  C_11
                            x       y       z     vdW  Elec       q    Type
                         _______ _______ _______ _____ _____    ______ ____

>  <TORSDO>
F 4

$$$$
