=
 OpenBabel10272414383D

 43 48  0  0  1  0  0  0  0  0999 V2000
  191.1710  177.2380  143.4640 C   0  0  0  0  0  0  0  0  0  0  0  0
  190.7040  176.3070  138.4280 C   0  0  1  0  0  3  0  0  0  0  0  0
  191.4730  177.3310  141.0620 C   0  0  0  0  0  0  0  0  0  0  0  0
  189.8840  176.7220  143.2830 C   0  0  0  0  0  3  0  0  0  0  0  0
  191.6500  177.4350  144.7130 F   0  0  0  0  0  0  0  0  0  0  0  0
  190.1750  176.8210  140.8790 C   0  0  0  0  0  0  0  0  0  0  0  0
  191.9680  177.5430  142.3520 C   0  0  0  0  0  3  0  0  0  0  0  0
  189.3850  176.5200  141.9930 C   0  0  0  0  0  3  0  0  0  0  0  0
  189.6170  176.6320  139.4950 C   0  0  1  0  0  3  0  0  0  0  0  0
  192.1680  176.4930  138.8670 C   0  0  0  0  0  2  0  0  0  0  0  0
  192.3190  177.6330  139.8720 C   0  0  0  0  0  2  0  0  0  0  0  0
  190.4950  174.9570  137.7250 C   0  0  2  0  0  3  0  0  0  0  0  0
  191.6690  174.2010  137.7050 O   0  0  0  0  0  1  0  0  0  0  0  0
  189.8490  175.0270  136.3340 C   0  0  0  0  0  2  0  0  0  0  0  0
  187.2080  172.3600  136.8710 C   0  0  0  0  0  3  0  0  0  0  0  0
  186.2880  172.7080  135.8810 C   0  0  0  0  0  0  0  0  0  0  0  0
  187.7030  174.5210  135.2240 N   0  0  0  0  0  0  0  0  0  0  0  0
  188.3770  173.1080  137.0290 C   0  0  0  0  0  3  0  0  0  0  0  0
  188.6180  174.1920  136.1790 C   0  0  0  0  0  0  0  0  0  0  0  0
  186.5550  173.8080  135.0600 C   0  0  0  0  0  3  0  0  0  0  0  0
  185.0570  171.8980  135.6810 C   0  0  0  0  0  2  0  0  0  0  0  0
  184.1440  172.0300  136.8850 C   0  0  0  0  0  1  0  0  0  0  0  0
  188.8860  177.8340  139.1060 N   0  0  0  0  0  2  0  0  0  0  0  0
  187.9130  178.5720  136.9300 C   0  0  1  0  0  3  0  0  0  0  0  0
  188.9550  179.5610  137.4030 C   0  0  0  0  0  2  0  0  0  0  0  0
  189.1490  178.0860  137.6930 C   0  0  1  0  0  3  0  0  0  0  0  0
  184.6050  177.7750  138.6780 N   0  0  0  0  0  2  0  0  0  0  0  0
  186.7320  178.6690  137.7780 N   0  0  0  0  0  2  0  0  0  0  0  0
  185.7630  177.6200  137.8590 C   0  0  0  0  0  0  0  0  0  0  0  0
  185.9230  176.5550  137.2050 O   0  0  0  0  0  0  0  0  0  0  0  0
  184.3950  178.9320  139.4460 N   0  0  0  0  0  0  0  0  0  0  0  0
  182.8970  179.0310  141.3870 N   0  0  0  0  0  2  0  0  0  0  0  0
  183.2600  179.6540  138.8540 C   0  0  0  0  0  2  0  0  0  0  0  0
  181.9200  178.9610  139.1260 C   0  0  0  0  0  2  0  0  0  0  0  0
  184.1540  178.5110  140.8440 C   0  0  2  0  0  3  0  0  0  0  0  0
  181.8110  178.4910  140.5780 C   0  0  0  0  0  2  0  0  0  0  0  0
  185.3200  178.9160  141.7390 C   0  0  0  0  0  2  0  0  0  0  0  0
  185.1720  178.3440  143.0690 N   0  0  0  0  0  0  0  0  0  0  0  0
  185.9310  178.3640  145.8620 C   0  0  0  0  0  2  0  0  0  0  0  0
  184.6000  178.9290  145.3820 C   0  0  0  0  0  2  0  0  0  0  0  0
  186.4410  177.3050  144.8920 C   0  0  0  0  0  2  0  0  0  0  0  0
  184.7540  179.4360  143.9490 C   0  0  0  0  0  2  0  0  0  0  0  0
  186.5030  177.8950  143.4840 C   0  0  0  0  0  2  0  0  0  0  0  0
  1  5  1  0  0  0  0
  2 12  1  1  0  0  0
  2 10  1  0  0  0  0
  2  9  1  0  0  0  0
  3  7  1  0  0  0  0
  4  1  1  0  0  0  0
  6  3  2  0  0  0  0
  6  8  1  0  0  0  0
  7  1  2  0  0  0  0
  8  4  2  0  0  0  0
  9 23  1  6  0  0  0
  9  6  1  0  0  0  0
 10 11  1  0  0  0  0
 11  3  1  0  0  0  0
 12 13  1  6  0  0  0
 14 12  1  0  0  0  0
 15 18  1  0  0  0  0
 16 15  2  0  0  0  0
 17 19  1  0  0  0  0
 19 14  1  0  0  0  0
 19 18  2  0  0  0  0
 20 17  2  0  0  0  0
 20 16  1  0  0  0  0
 21 16  1  0  0  0  0
 21 22  1  0  0  0  0
 24 25  1  0  0  0  0
 24 26  1  0  0  0  0
 24 28  1  1  0  0  0
 25 26  1  0  0  0  0
 26 23  1  1  0  0  0
 27 31  1  0  0  0  0
 28 29  1  0  0  0  0
 29 27  1  0  0  0  0
 30 29  2  0  0  0  0
 31 35  1  0  0  0  0
 33 34  1  0  0  0  0
 33 31  1  0  0  0  0
 34 36  1  0  0  0  0
 35 32  1  0  0  0  0
 35 37  1  1  0  0  0
 36 32  1  0  0  0  0
 37 38  1  0  0  0  0
 38 43  1  0  0  0  0
 38 42  1  0  0  0  0
 40 39  1  0  0  0  0
 41 39  1  0  0  0  0
 42 40  1  0  0  0  0
 43 41  1  0  0  0  0
M  END
>  <MODEL>
1

>  <REMARK>
 VINA RESULT:      -8.3      0.000      0.000
  Name = 
  10 active torsions:
  status: ('A' for Active; 'I' for Inactive)
    1  A    between atoms: C_1  and  C_34
    2  A    between atoms: C_1  and  C_35
    3  A    between atoms: C_2  and  N_6
    4  A    between atoms: N_3  and  N_4
    5  A    between atoms: C_8  and  C_34
    6  A    between atoms: N_11  and  C_14
    7  A    between atoms: C_13  and  N_27
    8  A    between atoms: C_14  and  C_41
    9  A    between atoms: C_19  and  C_25
   10  A    between atoms: N_27  and  C_30
                            x       y       z     vdW  Elec       q    Type
                         _______ _______ _______ _____ _____    ______ ____

>  <TORSDO>
F 10

$$$$
=
 OpenBabel10272414383D

 43 48  0  0  1  0  0  0  0  0999 V2000
  188.9660  178.0100  135.7510 C   0  0  0  0  0  0  0  0  0  0  0  0
  190.2510  176.8860  140.6020 C   0  0  1  0  0  3  0  0  0  0  0  0
  189.4460  176.7890  137.7870 C   0  0  0  0  0  0  0  0  0  0  0  0
  188.6750  179.1520  136.5040 C   0  0  0  0  0  3  0  0  0  0  0  0
  188.8830  178.0510  134.4020 F   0  0  0  0  0  0  0  0  0  0  0  0
  189.1450  177.9340  138.5460 C   0  0  0  0  0  0  0  0  0  0  0  0
  189.3530  176.8260  136.3930 C   0  0  0  0  0  3  0  0  0  0  0  0
  188.7580  179.1120  137.8980 C   0  0  0  0  0  3  0  0  0  0  0  0
  189.1980  177.8910  140.0480 C   0  0  1  0  0  3  0  0  0  0  0  0
  190.8680  175.9130  139.5800 C   0  0  0  0  0  2  0  0  0  0  0  0
  189.8770  175.5410  138.4800 C   0  0  0  0  0  2  0  0  0  0  0  0
  191.3310  177.5410  141.4770 C   0  0  2  0  0  3  0  0  0  0  0  0
  192.4560  177.8930  140.7290 O   0  0  0  0  0  1  0  0  0  0  0  0
  191.7190  176.7640  142.7430 C   0  0  0  0  0  2  0  0  0  0  0  0
  188.5980  177.1440  144.8610 C   0  0  0  0  0  3  0  0  0  0  0  0
  189.1670  177.3440  146.1210 C   0  0  0  0  0  0  0  0  0  0  0  0
  191.3440  177.1700  145.1490 N   0  0  0  0  0  0  0  0  0  0  0  0
  189.4200  176.9550  143.7490 C   0  0  0  0  0  3  0  0  0  0  0  0
  190.8100  176.9830  143.9100 C   0  0  0  0  0  0  0  0  0  0  0  0
  190.5590  177.3490  146.2460 C   0  0  0  0  0  3  0  0  0  0  0  0
  188.3010  177.5800  147.3070 C   0  0  0  0  0  2  0  0  0  0  0  0
  189.1310  178.0990  148.4650 C   0  0  0  0  0  1  0  0  0  0  0  0
  187.8760  177.5560  140.5650 N   0  0  0  0  0  2  0  0  0  0  0  0
  186.0090  179.1100  141.1350 C   0  0  1  0  0  3  0  0  0  0  0  0
  186.2820  178.1710  142.2890 C   0  0  0  0  0  2  0  0  0  0  0  0
  187.4380  178.6460  141.4310 C   0  0  1  0  0  3  0  0  0  0  0  0
  183.9170  178.2200  138.0590 N   0  0  0  0  0  2  0  0  0  0  0  0
  185.3920  178.3690  140.0420 N   0  0  0  0  0  2  0  0  0  0  0  0
  184.5240  178.9930  139.0930 C   0  0  0  0  0  0  0  0  0  0  0  0
  184.2860  180.2280  139.1640 O   0  0  0  0  0  0  0  0  0  0  0  0
  184.1720  176.8450  137.9210 N   0  0  0  0  0  0  0  0  0  0  0  0
  183.4330  175.5040  136.0040 N   0  0  0  0  0  2  0  0  0  0  0  0
  183.0460  176.1250  138.5340 C   0  0  0  0  0  2  0  0  0  0  0  0
  181.7720  176.2000  137.6860 C   0  0  0  0  0  2  0  0  0  0  0  0
  184.3330  176.5560  136.4790 C   0  0  2  0  0  3  0  0  0  0  0  0
  182.0660  175.9710  136.2020 C   0  0  0  0  0  2  0  0  0  0  0  0
  185.7790  176.1940  136.1590 C   0  0  0  0  0  2  0  0  0  0  0  0
  185.9290  174.7530  136.0090 N   0  0  0  0  0  0  0  0  0  0  0  0
  187.6820  172.4540  135.8900 C   0  0  0  0  0  2  0  0  0  0  0  0
  186.8440  172.7690  137.1230 C   0  0  0  0  0  2  0  0  0  0  0  0
  187.0370  173.0450  134.6420 C   0  0  0  0  0  2  0  0  0  0  0  0
  186.6180  174.2770  137.2080 C   0  0  0  0  0  2  0  0  0  0  0  0
  186.8040  174.5400  134.8540 C   0  0  0  0  0  2  0  0  0  0  0  0
  1  7  2  0  0  0  0
  1  4  1  0  0  0  0
  2 12  1  6  0  0  0
  3 11  1  0  0  0  0
  3  6  2  0  0  0  0
  4  8  2  0  0  0  0
  5  1  1  0  0  0  0
  6  9  1  0  0  0  0
  7  3  1  0  0  0  0
  8  6  1  0  0  0  0
  9 23  1  1  0  0  0
  9  2  1  0  0  0  0
 10  2  1  0  0  0  0
 11 10  1  0  0  0  0
 12 13  1  6  0  0  0
 12 14  1  0  0  0  0
 14 19  1  0  0  0  0
 15 16  1  0  0  0  0
 16 20  2  0  0  0  0
 16 21  1  0  0  0  0
 17 20  1  0  0  0  0
 18 19  1  0  0  0  0
 18 15  2  0  0  0  0
 19 17  2  0  0  0  0
 21 22  1  0  0  0  0
 24 28  1  6  0  0  0
 24 26  1  0  0  0  0
 24 25  1  0  0  0  0
 26 23  1  6  0  0  0
 26 25  1  0  0  0  0
 27 29  1  0  0  0  0
 29 30  2  0  0  0  0
 29 28  1  0  0  0  0
 31 27  1  0  0  0  0
 31 33  1  0  0  0  0
 32 36  1  0  0  0  0
 32 35  1  0  0  0  0
 34 33  1  0  0  0  0
 35 37  1  1  0  0  0
 35 31  1  0  0  0  0
 36 34  1  0  0  0  0
 38 37  1  0  0  0  0
 38 42  1  0  0  0  0
 39 40  1  0  0  0  0
 40 42  1  0  0  0  0
 41 43  1  0  0  0  0
 41 39  1  0  0  0  0
 43 38  1  0  0  0  0
M  END
>  <MODEL>
2

>  <REMARK>
 VINA RESULT:      -7.7      2.866      7.318
  Name = 
  10 active torsions:
  status: ('A' for Active; 'I' for Inactive)
    1  A    between atoms: C_1  and  C_34
    2  A    between atoms: C_1  and  C_35
    3  A    between atoms: C_2  and  N_6
    4  A    between atoms: N_3  and  N_4
    5  A    between atoms: C_8  and  C_34
    6  A    between atoms: N_11  and  C_14
    7  A    between atoms: C_13  and  N_27
    8  A    between atoms: C_14  and  C_41
    9  A    between atoms: C_19  and  C_25
   10  A    between atoms: N_27  and  C_30
                            x       y       z     vdW  Elec       q    Type
                         _______ _______ _______ _____ _____    ______ ____

>  <TORSDO>
F 10

$$$$
=
 OpenBabel10272414383D

 43 48  0  0  1  0  0  0  0  0999 V2000
  190.9670  176.9790  143.4290 C   0  0  0  0  0  0  0  0  0  0  0  0
  190.8660  176.5220  138.3080 C   0  0  1  0  0  3  0  0  0  0  0  0
  191.4450  177.2900  141.0750 C   0  0  0  0  0  0  0  0  0  0  0  0
  189.6940  176.4980  143.1080 C   0  0  0  0  0  3  0  0  0  0  0  0
  191.3550  177.0540  144.7220 F   0  0  0  0  0  0  0  0  0  0  0  0
  190.1620  176.8140  140.7510 C   0  0  0  0  0  0  0  0  0  0  0  0
  191.8450  177.3750  142.4110 C   0  0  0  0  0  3  0  0  0  0  0  0
  189.2900  176.4220  141.7730 C   0  0  0  0  0  3  0  0  0  0  0  0
  189.7060  176.7610  139.3190 C   0  0  1  0  0  3  0  0  0  0  0  0
  192.2950  176.6490  138.8680 C   0  0  0  0  0  2  0  0  0  0  0  0
  192.3780  177.6890  139.9830 C   0  0  0  0  0  2  0  0  0  0  0  0
  190.7020  175.2460  137.4700 C   0  0  2  0  0  3  0  0  0  0  0  0
  191.4230  174.1780  138.0100 O   0  0  0  0  0  1  0  0  0  0  0  0
  190.9730  175.4010  135.9660 C   0  0  0  0  0  2  0  0  0  0  0  0
  194.7020  175.5500  135.2990 C   0  0  0  0  0  3  0  0  0  0  0  0
  194.9230  174.2680  134.7920 C   0  0  0  0  0  0  0  0  0  0  0  0
  192.5970  173.7800  135.0560 N   0  0  0  0  0  0  0  0  0  0  0  0
  193.4160  175.9340  135.6840 C   0  0  0  0  0  3  0  0  0  0  0  0
  192.3580  175.0290  135.5430 C   0  0  0  0  0  0  0  0  0  0  0  0
  193.8440  173.3850  134.6810 C   0  0  0  0  0  3  0  0  0  0  0  0
  196.2810  173.8600  134.3460 C   0  0  0  0  0  2  0  0  0  0  0  0
  197.0920  173.3620  135.5280 C   0  0  0  0  0  1  0  0  0  0  0  0
  189.0120  178.0020  138.9910 N   0  0  0  0  0  2  0  0  0  0  0  0
  187.9450  178.7250  136.8550 C   0  0  1  0  0  3  0  0  0  0  0  0
  188.9660  179.7470  137.3050 C   0  0  0  0  0  2  0  0  0  0  0  0
  189.2210  178.2770  137.5730 C   0  0  1  0  0  3  0  0  0  0  0  0
  184.7070  177.8090  138.6720 N   0  0  0  0  0  2  0  0  0  0  0  0
  186.7880  178.7730  137.7400 N   0  0  0  0  0  2  0  0  0  0  0  0
  185.8420  177.7030  137.8140 C   0  0  0  0  0  0  0  0  0  0  0  0
  186.0010  176.6630  137.1220 O   0  0  0  0  0  0  0  0  0  0  0  0
  184.4990  178.9360  139.4840 N   0  0  0  0  0  0  0  0  0  0  0  0
  182.9930  178.9670  141.4210 N   0  0  0  0  0  2  0  0  0  0  0  0
  183.3690  179.6860  138.9150 C   0  0  0  0  0  2  0  0  0  0  0  0
  182.0250  178.9900  139.1550 C   0  0  0  0  0  2  0  0  0  0  0  0
  184.2490  178.4620  140.8630 C   0  0  2  0  0  3  0  0  0  0  0  0
  181.9080  178.4640  140.5870 C   0  0  0  0  0  2  0  0  0  0  0  0
  185.4140  178.8260  141.7780 C   0  0  0  0  0  2  0  0  0  0  0  0
  185.2020  178.2970  143.1180 N   0  0  0  0  0  0  0  0  0  0  0  0
  185.8140  178.4180  145.9440 C   0  0  0  0  0  2  0  0  0  0  0  0
  184.5040  178.9520  145.3760 C   0  0  0  0  0  2  0  0  0  0  0  0
  186.3850  177.3340  145.0380 C   0  0  0  0  0  2  0  0  0  0  0  0
  184.7280  179.4120  143.9370 C   0  0  0  0  0  2  0  0  0  0  0  0
  186.5140  177.8780  143.6160 C   0  0  0  0  0  2  0  0  0  0  0  0
  1  5  1  0  0  0  0
  2 12  1  1  0  0  0
  2 10  1  0  0  0  0
  2  9  1  0  0  0  0
  3  7  1  0  0  0  0
  4  1  1  0  0  0  0
  6  3  2  0  0  0  0
  6  8  1  0  0  0  0
  7  1  2  0  0  0  0
  8  4  2  0  0  0  0
  9 23  1  6  0  0  0
  9  6  1  0  0  0  0
 10 11  1  0  0  0  0
 11  3  1  0  0  0  0
 12 13  1  1  0  0  0
 14 12  1  0  0  0  0
 15 18  1  0  0  0  0
 16 15  2  0  0  0  0
 17 19  1  0  0  0  0
 19 18  2  0  0  0  0
 19 14  1  0  0  0  0
 20 16  1  0  0  0  0
 20 17  2  0  0  0  0
 21 16  1  0  0  0  0
 21 22  1  0  0  0  0
 24 25  1  0  0  0  0
 24 26  1  0  0  0  0
 24 28  1  1  0  0  0
 25 26  1  0  0  0  0
 26 23  1  1  0  0  0
 27 31  1  0  0  0  0
 28 29  1  0  0  0  0
 29 27  1  0  0  0  0
 30 29  2  0  0  0  0
 31 35  1  0  0  0  0
 33 34  1  0  0  0  0
 33 31  1  0  0  0  0
 34 36  1  0  0  0  0
 35 32  1  0  0  0  0
 35 37  1  1  0  0  0
 36 32  1  0  0  0  0
 37 38  1  0  0  0  0
 38 43  1  0  0  0  0
 38 42  1  0  0  0  0
 40 39  1  0  0  0  0
 41 39  1  0  0  0  0
 42 40  1  0  0  0  0
 43 41  1  0  0  0  0
M  END
>  <MODEL>
3

>  <REMARK>
 VINA RESULT:      -7.6      2.190      3.677
  Name = 
  10 active torsions:
  status: ('A' for Active; 'I' for Inactive)
    1  A    between atoms: C_1  and  C_34
    2  A    between atoms: C_1  and  C_35
    3  A    between atoms: C_2  and  N_6
    4  A    between atoms: N_3  and  N_4
    5  A    between atoms: C_8  and  C_34
    6  A    between atoms: N_11  and  C_14
    7  A    between atoms: C_13  and  N_27
    8  A    between atoms: C_14  and  C_41
    9  A    between atoms: C_19  and  C_25
   10  A    between atoms: N_27  and  C_30
                            x       y       z     vdW  Elec       q    Type
                         _______ _______ _______ _____ _____    ______ ____

>  <TORSDO>
F 10

$$$$
=
 OpenBabel10272414383D

 43 48  0  0  1  0  0  0  0  0999 V2000
  184.4880  178.8290  141.4060 C   0  0  0  0  0  0  0  0  0  0  0  0
  181.9410  176.7720  137.4410 C   0  0  1  0  0  3  0  0  0  0  0  0
  183.2550  177.2820  140.0090 C   0  0  0  0  0  0  0  0  0  0  0  0
  184.9360  179.5030  140.2660 C   0  0  0  0  0  3  0  0  0  0  0  0
  184.8610  179.2560  142.6340 F   0  0  0  0  0  0  0  0  0  0  0  0
  183.7120  177.9540  138.8610 C   0  0  0  0  0  0  0  0  0  0  0  0
  183.6450  177.7170  141.2780 C   0  0  0  0  0  3  0  0  0  0  0  0
  184.5550  179.0620  138.9960 C   0  0  0  0  0  3  0  0  0  0  0  0
  183.3340  177.4660  137.4890 C   0  0  1  0  0  3  0  0  0  0  0  0
  181.2950  176.4440  138.8000 C   0  0  0  0  0  2  0  0  0  0  0  0
  182.3420  176.1120  139.8610 C   0  0  0  0  0  2  0  0  0  0  0  0
  180.9430  177.4540  136.4940 C   0  0  2  0  0  3  0  0  0  0  0  0
  180.2950  176.5260  135.6750 O   0  0  0  0  0  1  0  0  0  0  0  0
  181.4990  178.6300  135.6780 C   0  0  0  0  0  2  0  0  0  0  0  0
  180.8130  181.5430  138.0060 C   0  0  0  0  0  3  0  0  0  0  0  0
  180.4300  182.5210  137.0860 C   0  0  0  0  0  0  0  0  0  0  0  0
  180.7430  180.9510  135.3100 N   0  0  0  0  0  0  0  0  0  0  0  0
  181.1630  180.2680  137.5600 C   0  0  0  0  0  3  0  0  0  0  0  0
  181.1110  179.9800  136.1920 C   0  0  0  0  0  0  0  0  0  0  0  0
  180.4050  182.2020  135.7250 C   0  0  0  0  0  3  0  0  0  0  0  0
  180.0220  183.8730  137.5530 C   0  0  0  0  0  2  0  0  0  0  0  0
  180.9230  184.9300  136.9430 C   0  0  0  0  0  1  0  0  0  0  0  0
  184.3610  176.5490  137.0070 N   0  0  0  0  0  2  0  0  0  0  0  0
  186.1290  177.3530  135.4410 C   0  0  1  0  0  3  0  0  0  0  0  0
  185.7130  175.9420  135.0850 C   0  0  0  0  0  2  0  0  0  0  0  0
  184.6760  176.9050  135.6280 C   0  0  1  0  0  3  0  0  0  0  0  0
  188.3000  178.4280  138.4010 N   0  0  0  0  0  2  0  0  0  0  0  0
  186.8870  177.3360  136.6850 N   0  0  0  0  0  2  0  0  0  0  0  0
  187.5420  178.5010  137.1940 C   0  0  0  0  0  0  0  0  0  0  0  0
  187.4580  179.5980  136.5800 O   0  0  0  0  0  0  0  0  0  0  0  0
  188.4020  177.2350  139.1360 N   0  0  0  0  0  0  0  0  0  0  0  0
  190.3070  176.6770  140.5780 N   0  0  0  0  0  2  0  0  0  0  0  0
  189.0860  176.2500  138.2840 C   0  0  0  0  0  2  0  0  0  0  0  0
  190.5820  176.5460  138.1330 C   0  0  0  0  0  2  0  0  0  0  0  0
  189.1360  177.5340  140.3860 C   0  0  2  0  0  3  0  0  0  0  0  0
  191.2220  176.9260  139.4700 C   0  0  0  0  0  2  0  0  0  0  0  0
  188.2080  177.4340  141.5920 C   0  0  0  0  0  2  0  0  0  0  0  0
  188.9730  177.2460  142.8160 N   0  0  0  0  0  0  0  0  0  0  0  0
  189.6340  178.1670  145.4790 C   0  0  0  0  0  2  0  0  0  0  0  0
  188.7210  176.9700  145.2410 C   0  0  0  0  0  2  0  0  0  0  0  0
  190.5770  178.3620  144.2980 C   0  0  0  0  0  2  0  0  0  0  0  0
  188.0010  177.1430  143.9050 C   0  0  0  0  0  2  0  0  0  0  0  0
  189.7620  178.4650  143.0110 C   0  0  0  0  0  2  0  0  0  0  0  0
  1  5  1  0  0  0  0
  2 12  1  1  0  0  0
  2  9  1  0  0  0  0
  2 10  1  0  0  0  0
  3  7  2  0  0  0  0
  4  1  2  0  0  0  0
  6  8  2  0  0  0  0
  6  3  1  0  0  0  0
  7  1  1  0  0  0  0
  8  4  1  0  0  0  0
  9 23  1  1  0  0  0
  9  6  1  0  0  0  0
 10 11  1  0  0  0  0
 11  3  1  0  0  0  0
 12 13  1  6  0  0  0
 14 19  1  0  0  0  0
 14 12  1  0  0  0  0
 16 21  1  0  0  0  0
 16 15  2  0  0  0  0
 17 20  2  0  0  0  0
 17 19  1  0  0  0  0
 18 15  1  0  0  0  0
 19 18  2  0  0  0  0
 20 16  1  0  0  0  0
 22 21  1  0  0  0  0
 24 26  1  0  0  0  0
 24 28  1  1  0  0  0
 25 24  1  0  0  0  0
 25 26  1  0  0  0  0
 26 23  1  1  0  0  0
 27 31  1  0  0  0  0
 28 29  1  0  0  0  0
 29 27  1  0  0  0  0
 30 29  2  0  0  0  0
 31 35  1  0  0  0  0
 33 31  1  0  0  0  0
 34 33  1  0  0  0  0
 34 36  1  0  0  0  0
 35 32  1  0  0  0  0
 35 37  1  1  0  0  0
 36 32  1  0  0  0  0
 37 38  1  0  0  0  0
 38 43  1  0  0  0  0
 38 42  1  0  0  0  0
 40 39  1  0  0  0  0
 41 39  1  0  0  0  0
 42 40  1  0  0  0  0
 43 41  1  0  0  0  0
M  END
>  <MODEL>
4

>  <REMARK>
 VINA RESULT:      -7.4      3.070      7.759
  Name = 
  10 active torsions:
  status: ('A' for Active; 'I' for Inactive)
    1  A    between atoms: C_1  and  C_34
    2  A    between atoms: C_1  and  C_35
    3  A    between atoms: C_2  and  N_6
    4  A    between atoms: N_3  and  N_4
    5  A    between atoms: C_8  and  C_34
    6  A    between atoms: N_11  and  C_14
    7  A    between atoms: C_13  and  N_27
    8  A    between atoms: C_14  and  C_41
    9  A    between atoms: C_19  and  C_25
   10  A    between atoms: N_27  and  C_30
                            x       y       z     vdW  Elec       q    Type
                         _______ _______ _______ _____ _____    ______ ____

>  <TORSDO>
F 10

$$$$
=
 OpenBabel10272414383D

 43 48  0  0  1  0  0  0  0  0999 V2000
  194.4890  175.6650  136.1260 C   0  0  0  0  0  0  0  0  0  0  0  0
  189.6580  173.9580  135.6830 C   0  0  1  0  0  3  0  0  0  0  0  0
  192.1620  175.4650  135.4830 C   0  0  0  0  0  0  0  0  0  0  0  0
  194.2350  174.9150  137.2790 C   0  0  0  0  0  3  0  0  0  0  0  0
  195.7380  176.1180  135.8760 F   0  0  0  0  0  0  0  0  0  0  0  0
  191.9040  174.7180  136.6460 C   0  0  0  0  0  0  0  0  0  0  0  0
  193.4510  175.9410  135.2260 C   0  0  0  0  0  3  0  0  0  0  0  0
  192.9450  174.4480  137.5410 C   0  0  0  0  0  3  0  0  0  0  0  0
  190.5110  174.2410  136.9540 C   0  0  1  0  0  3  0  0  0  0  0  0
  190.2410  174.4550  134.3460 C   0  0  0  0  0  2  0  0  0  0  0  0
  191.0540  175.7350  134.5220 C   0  0  0  0  0  2  0  0  0  0  0  0
  189.1670  172.5070  135.5770 C   0  0  2  0  0  3  0  0  0  0  0  0
  190.1400  171.6740  135.0210 O   0  0  0  0  0  1  0  0  0  0  0  0
  187.8060  172.3150  134.8920 C   0  0  0  0  0  2  0  0  0  0  0  0
  185.3960  173.1430  137.7000 C   0  0  0  0  0  3  0  0  0  0  0  0
  184.4990  173.9760  137.0290 C   0  0  0  0  0  0  0  0  0  0  0  0
  185.7630  173.6950  135.0190 N   0  0  0  0  0  0  0  0  0  0  0  0
  186.4800  172.5920  137.0130 C   0  0  0  0  0  3  0  0  0  0  0  0
  186.6450  172.8720  135.6520 C   0  0  0  0  0  0  0  0  0  0  0  0
  184.7040  174.2470  135.6730 C   0  0  0  0  0  3  0  0  0  0  0  0
  183.3220  174.5400  137.7420 C   0  0  0  0  0  2  0  0  0  0  0  0
  183.5900  175.9800  138.1360 C   0  0  0  0  0  1  0  0  0  0  0  0
  189.8400  175.2300  137.7910 N   0  0  0  0  0  2  0  0  0  0  0  0
  187.9750  176.8880  137.7830 C   0  0  1  0  0  3  0  0  0  0  0  0
  189.1010  177.3580  136.8880 C   0  0  0  0  0  2  0  0  0  0  0  0
  188.8060  175.8750  136.9880 C   0  0  1  0  0  3  0  0  0  0  0  0
  189.2870  178.2460  141.1080 N   0  0  0  0  0  2  0  0  0  0  0  0
  188.3890  176.9850  139.1760 N   0  0  0  0  0  2  0  0  0  0  0  0
  188.8610  178.2080  139.7470 C   0  0  0  0  0  0  0  0  0  0  0  0
  188.9090  179.2580  139.0530 O   0  0  0  0  0  0  0  0  0  0  0  0
  189.2290  177.1090  141.9310 N   0  0  0  0  0  0  0  0  0  0  0  0
  189.7140  177.1360  144.3360 N   0  0  0  0  0  2  0  0  0  0  0  0
  190.5640  176.4930  141.9270 C   0  0  0  0  0  2  0  0  0  0  0  0
  191.5830  177.3010  142.7380 C   0  0  0  0  0  2  0  0  0  0  0  0
  188.7910  177.5450  143.2760 C   0  0  2  0  0  3  0  0  0  0  0  0
  190.9990  177.7740  144.0710 C   0  0  0  0  0  2  0  0  0  0  0  0
  187.3860  177.0340  143.5780 C   0  0  0  0  0  2  0  0  0  0  0  0
  186.5900  178.0670  144.2240 N   0  0  0  0  0  0  0  0  0  0  0  0
  184.1920  178.7890  145.6760 C   0  0  0  0  0  2  0  0  0  0  0  0
  185.5470  178.6630  146.3620 C   0  0  0  0  0  2  0  0  0  0  0  0
  184.3730  179.1150  144.1980 C   0  0  0  0  0  2  0  0  0  0  0  0
  186.4010  177.6440  145.6110 C   0  0  0  0  0  2  0  0  0  0  0  0
  185.2860  178.0710  143.5570 C   0  0  0  0  0  2  0  0  0  0  0  0
  1  4  1  0  0  0  0
  2 12  1  6  0  0  0
  2  9  1  0  0  0  0
  3  6  2  0  0  0  0
  4  8  2  0  0  0  0
  5  1  1  0  0  0  0
  6  9  1  0  0  0  0
  6  8  1  0  0  0  0
  7  3  1  0  0  0  0
  7  1  2  0  0  0  0
  9 23  1  1  0  0  0
 10 11  1  0  0  0  0
 10  2  1  0  0  0  0
 11  3  1  0  0  0  0
 12 13  1  6  0  0  0
 14 12  1  0  0  0  0
 14 19  1  0  0  0  0
 16 15  1  0  0  0  0
 16 21  1  0  0  0  0
 17 19  2  0  0  0  0
 17 20  1  0  0  0  0
 18 15  2  0  0  0  0
 19 18  1  0  0  0  0
 20 16  2  0  0  0  0
 21 22  1  0  0  0  0
 24 28  1  1  0  0  0
 25 26  1  0  0  0  0
 25 24  1  0  0  0  0
 26 24  1  0  0  0  0
 26 23  1  1  0  0  0
 27 31  1  0  0  0  0
 28 29  1  0  0  0  0
 29 27  1  0  0  0  0
 30 29  2  0  0  0  0
 31 35  1  0  0  0  0
 33 31  1  0  0  0  0
 33 34  1  0  0  0  0
 34 36  1  0  0  0  0
 35 37  1  1  0  0  0
 35 32  1  0  0  0  0
 36 32  1  0  0  0  0
 37 38  1  0  0  0  0
 38 42  1  0  0  0  0
 39 40  1  0  0  0  0
 41 39  1  0  0  0  0
 42 40  1  0  0  0  0
 43 41  1  0  0  0  0
 43 38  1  0  0  0  0
M  END
>  <MODEL>
5

>  <REMARK>
 VINA RESULT:      -7.4      2.758      5.049
  Name = 
  10 active torsions:
  status: ('A' for Active; 'I' for Inactive)
    1  A    between atoms: C_1  and  C_34
    2  A    between atoms: C_1  and  C_35
    3  A    between atoms: C_2  and  N_6
    4  A    between atoms: N_3  and  N_4
    5  A    between atoms: C_8  and  C_34
    6  A    between atoms: N_11  and  C_14
    7  A    between atoms: C_13  and  N_27
    8  A    between atoms: C_14  and  C_41
    9  A    between atoms: C_19  and  C_25
   10  A    between atoms: N_27  and  C_30
                            x       y       z     vdW  Elec       q    Type
                         _______ _______ _______ _____ _____    ______ ____

>  <TORSDO>
F 10

$$$$
=
 OpenBabel10272414383D

 43 48  0  0  1  0  0  0  0  0999 V2000
  184.9730  178.8960  143.4500 C   0  0  0  0  0  0  0  0  0  0  0  0
  182.3490  179.0410  139.0290 C   0  0  1  0  0  3  0  0  0  0  0  0
  183.2940  178.5010  141.7490 C   0  0  0  0  0  0  0  0  0  0  0  0
  185.9030  179.2200  142.4570 C   0  0  0  0  0  3  0  0  0  0  0  0
  185.3320  178.9380  144.7530 F   0  0  0  0  0  0  0  0  0  0  0  0
  184.2310  178.8190  140.7500 C   0  0  0  0  0  0  0  0  0  0  0  0
  183.6650  178.5370  143.0960 C   0  0  0  0  0  3  0  0  0  0  0  0
  185.5350  179.1750  141.1100 C   0  0  0  0  0  3  0  0  0  0  0  0
  183.8530  178.7400  139.2960 C   0  0  1  0  0  3  0  0  0  0  0  0
  181.4350  179.0990  140.2680 C   0  0  0  0  0  2  0  0  0  0  0  0
  181.9000  178.1400  141.3620 C   0  0  0  0  0  2  0  0  0  0  0  0
  182.1140  180.2420  138.1010 C   0  0  2  0  0  3  0  0  0  0  0  0
  182.0700  181.4420  138.8130 O   0  0  0  0  0  1  0  0  0  0  0  0
  180.9210  180.1150  137.1420 C   0  0  0  0  0  2  0  0  0  0  0  0
  181.4260  177.4680  134.4730 C   0  0  0  0  0  3  0  0  0  0  0  0
  180.7730  176.3840  135.0630 C   0  0  0  0  0  0  0  0  0  0  0  0
  180.2400  177.7490  136.9520 N   0  0  0  0  0  0  0  0  0  0  0  0
  181.4800  178.6930  135.1410 C   0  0  0  0  0  3  0  0  0  0  0  0
  180.8640  178.8230  136.3910 C   0  0  0  0  0  0  0  0  0  0  0  0
  180.1820  176.5450  136.3200 C   0  0  0  0  0  3  0  0  0  0  0  0
  180.6790  175.0840  134.3460 C   0  0  0  0  0  2  0  0  0  0  0  0
  181.4460  174.0150  135.1000 C   0  0  0  0  0  1  0  0  0  0  0  0
  184.1900  177.4150  138.7850 N   0  0  0  0  0  2  0  0  0  0  0  0
  185.2010  177.2540  136.5090 C   0  0  1  0  0  3  0  0  0  0  0  0
  184.3200  176.0540  136.7800 C   0  0  0  0  0  2  0  0  0  0  0  0
  183.9290  177.4030  137.3490 C   0  0  1  0  0  3  0  0  0  0  0  0
  188.5530  178.0700  138.1600 N   0  0  0  0  0  2  0  0  0  0  0  0
  186.4060  177.1650  137.3250 N   0  0  0  0  0  2  0  0  0  0  0  0
  187.3720  178.2170  137.3730 C   0  0  0  0  0  0  0  0  0  0  0  0
  187.1920  179.2780  136.7180 O   0  0  0  0  0  0  0  0  0  0  0  0
  188.7880  176.9180  138.9290 N   0  0  0  0  0  0  0  0  0  0  0  0
  190.7580  176.6070  140.3580 N   0  0  0  0  0  2  0  0  0  0  0  0
  189.5610  175.9840  138.0960 C   0  0  0  0  0  2  0  0  0  0  0  0
  191.0160  176.4290  137.9140 C   0  0  0  0  0  2  0  0  0  0  0  0
  189.5010  177.3300  140.1580 C   0  0  2  0  0  3  0  0  0  0  0  0
  191.6280  176.9150  139.2290 C   0  0  0  0  0  2  0  0  0  0  0  0
  188.6030  177.1720  141.3810 C   0  0  0  0  0  2  0  0  0  0  0  0
  189.3910  177.1860  142.6040 N   0  0  0  0  0  0  0  0  0  0  0  0
  189.8280  178.2880  145.2450 C   0  0  0  0  0  2  0  0  0  0  0  0
  189.2100  176.9110  145.0350 C   0  0  0  0  0  2  0  0  0  0  0  0
  190.7030  178.6660  144.0550 C   0  0  0  0  0  2  0  0  0  0  0  0
  188.4690  176.8890  143.7000 C   0  0  0  0  0  2  0  0  0  0  0  0
  189.8840  178.5550  142.7700 C   0  0  0  0  0  2  0  0  0  0  0  0
  1  5  1  0  0  0  0
  2 12  1  1  0  0  0
  2  9  1  0  0  0  0
  2 10  1  0  0  0  0
  3  7  2  0  0  0  0
  4  1  2  0  0  0  0
  6  8  2  0  0  0  0
  6  3  1  0  0  0  0
  7  1  1  0  0  0  0
  8  4  1  0  0  0  0
  9 23  1  1  0  0  0
  9  6  1  0  0  0  0
 10 11  1  0  0  0  0
 11  3  1  0  0  0  0
 12 13  1  1  0  0  0
 14 12  1  0  0  0  0
 15 16  2  0  0  0  0
 15 18  1  0  0  0  0
 16 20  1  0  0  0  0
 18 19  2  0  0  0  0
 19 17  1  0  0  0  0
 19 14  1  0  0  0  0
 20 17  2  0  0  0  0
 21 16  1  0  0  0  0
 21 22  1  0  0  0  0
 24 25  1  0  0  0  0
 24 28  1  1  0  0  0
 24 26  1  0  0  0  0
 25 26  1  0  0  0  0
 26 23  1  1  0  0  0
 27 31  1  0  0  0  0
 28 29  1  0  0  0  0
 29 27  1  0  0  0  0
 30 29  2  0  0  0  0
 31 35  1  0  0  0  0
 33 31  1  0  0  0  0
 34 33  1  0  0  0  0
 34 36  1  0  0  0  0
 35 32  1  0  0  0  0
 35 37  1  1  0  0  0
 36 32  1  0  0  0  0
 37 38  1  0  0  0  0
 38 43  1  0  0  0  0
 38 42  1  0  0  0  0
 40 39  1  0  0  0  0
 41 39  1  0  0  0  0
 42 40  1  0  0  0  0
 43 41  1  0  0  0  0
M  END
>  <MODEL>
6

>  <REMARK>
 VINA RESULT:      -7.2      2.747      6.932
  Name = 
  10 active torsions:
  status: ('A' for Active; 'I' for Inactive)
    1  A    between atoms: C_1  and  C_34
    2  A    between atoms: C_1  and  C_35
    3  A    between atoms: C_2  and  N_6
    4  A    between atoms: N_3  and  N_4
    5  A    between atoms: C_8  and  C_34
    6  A    between atoms: N_11  and  C_14
    7  A    between atoms: C_13  and  N_27
    8  A    between atoms: C_14  and  C_41
    9  A    between atoms: C_19  and  C_25
   10  A    between atoms: N_27  and  C_30
                            x       y       z     vdW  Elec       q    Type
                         _______ _______ _______ _____ _____    ______ ____

>  <TORSDO>
F 10

$$$$
=
 OpenBabel10272414383D

 43 48  0  0  1  0  0  0  0  0999 V2000
  189.2690  177.8520  147.2340 C   0  0  0  0  0  0  0  0  0  0  0  0
  187.2800  177.5960  142.4990 C   0  0  1  0  0  3  0  0  0  0  0  0
  187.9240  177.1980  145.3280 C   0  0  0  0  0  0  0  0  0  0  0  0
  190.2580  178.3340  146.3710 C   0  0  0  0  0  3  0  0  0  0  0  0
  189.4370  177.9420  148.5730 F   0  0  0  0  0  0  0  0  0  0  0  0
  188.9220  177.6750  144.4600 C   0  0  0  0  0  0  0  0  0  0  0  0
  188.0990  177.2830  146.7120 C   0  0  0  0  0  3  0  0  0  0  0  0
  190.0880  178.2400  144.9870 C   0  0  0  0  0  3  0  0  0  0  0  0
  188.7630  177.5460  142.9700 C   0  0  1  0  0  3  0  0  0  0  0  0
  186.2100  177.4910  143.6020 C   0  0  0  0  0  2  0  0  0  0  0  0
  186.6750  176.6130  144.7620 C   0  0  0  0  0  2  0  0  0  0  0  0
  186.9760  178.7490  141.5300 C   0  0  2  0  0  3  0  0  0  0  0  0
  188.0700  179.6070  141.3930 O   0  0  0  0  0  1  0  0  0  0  0  0
  185.6830  179.5280  141.8110 C   0  0  0  0  0  2  0  0  0  0  0  0
  182.3830  178.1380  140.5660 C   0  0  0  0  0  3  0  0  0  0  0  0
  182.4060  178.5730  139.2390 C   0  0  0  0  0  0  0  0  0  0  0  0
  184.5350  179.5910  139.6260 N   0  0  0  0  0  0  0  0  0  0  0  0
  183.4470  178.4420  141.4160 C   0  0  0  0  0  3  0  0  0  0  0  0
  184.5360  179.1680  140.9220 C   0  0  0  0  0  0  0  0  0  0  0  0
  183.5030  179.3110  138.7840 C   0  0  0  0  0  3  0  0  0  0  0  0
  181.2940  178.2260  138.3160 C   0  0  0  0  0  2  0  0  0  0  0  0
  181.5410  178.8330  136.9480 C   0  0  0  0  0  1  0  0  0  0  0  0
  189.3810  176.3010  142.5280 N   0  0  0  0  0  2  0  0  0  0  0  0
  191.4630  176.5370  141.1720 C   0  0  1  0  0  3  0  0  0  0  0  0
  191.1890  177.8100  141.9440 C   0  0  0  0  0  2  0  0  0  0  0  0
  190.8290  176.4750  142.5660 C   0  0  1  0  0  3  0  0  0  0  0  0
  189.8160  176.5010  137.7200 N   0  0  0  0  0  2  0  0  0  0  0  0
  190.4830  176.3990  140.1030 N   0  0  0  0  0  2  0  0  0  0  0  0
  190.8180  176.6160  138.7300 C   0  0  0  0  0  0  0  0  0  0  0  0
  191.9970  176.9150  138.4020 O   0  0  0  0  0  0  0  0  0  0  0  0
  188.4930  176.1450  138.0320 N   0  0  0  0  0  0  0  0  0  0  0  0
  186.6450  176.2090  136.4190 N   0  0  0  0  0  2  0  0  0  0  0  0
  187.8040  177.3630  138.4840 C   0  0  0  0  0  2  0  0  0  0  0  0
  187.5080  178.3290  137.3320 C   0  0  0  0  0  2  0  0  0  0  0  0
  187.8880  175.5470  136.8210 C   0  0  2  0  0  3  0  0  0  0  0  0
  186.9670  177.5960  136.1030 C   0  0  0  0  0  2  0  0  0  0  0  0
  187.6480  174.0550  137.0190 C   0  0  0  0  0  2  0  0  0  0  0  0
  186.3200  173.6800  136.5560 N   0  0  0  0  0  0  0  0  0  0  0  0
  184.2970  171.6320  136.2570 C   0  0  0  0  0  2  0  0  0  0  0  0
  184.1960  172.7190  137.3190 C   0  0  0  0  0  2  0  0  0  0  0  0
  185.1450  172.1090  135.0840 C   0  0  0  0  0  2  0  0  0  0  0  0
  185.6000  173.1660  137.7210 C   0  0  0  0  0  2  0  0  0  0  0  0
  186.5010  172.5850  135.6000 C   0  0  0  0  0  2  0  0  0  0  0  0
  1  5  1  0  0  0  0
  2 12  1  1  0  0  0
  2  9  1  0  0  0  0
  2 10  1  0  0  0  0
  3  7  2  0  0  0  0
  4  1  2  0  0  0  0
  6  8  2  0  0  0  0
  6  3  1  0  0  0  0
  7  1  1  0  0  0  0
  8  4  1  0  0  0  0
  9 23  1  1  0  0  0
  9  6  1  0  0  0  0
 10 11  1  0  0  0  0
 11  3  1  0  0  0  0
 12 13  1  1  0  0  0
 12 14  1  0  0  0  0
 15 18  1  0  0  0  0
 16 15  2  0  0  0  0
 17 19  1  0  0  0  0
 19 18  2  0  0  0  0
 19 14  1  0  0  0  0
 20 16  1  0  0  0  0
 20 17  2  0  0  0  0
 21 16  1  0  0  0  0
 22 21  1  0  0  0  0
 24 28  1  6  0  0  0
 24 25  1  0  0  0  0
 24 26  1  0  0  0  0
 25 26  1  0  0  0  0
 26 23  1  6  0  0  0
 27 31  1  0  0  0  0
 27 29  1  0  0  0  0
 29 28  1  0  0  0  0
 30 29  2  0  0  0  0
 31 33  1  0  0  0  0
 32 35  1  0  0  0  0
 34 33  1  0  0  0  0
 35 37  1  1  0  0  0
 35 31  1  0  0  0  0
 36 32  1  0  0  0  0
 36 34  1  0  0  0  0
 38 37  1  0  0  0  0
 38 42  1  0  0  0  0
 39 40  1  0  0  0  0
 40 42  1  0  0  0  0
 41 43  1  0  0  0  0
 41 39  1  0  0  0  0
 43 38  1  0  0  0  0
M  END
>  <MODEL>
7

>  <REMARK>
 VINA RESULT:      -7.1      2.012      6.920
  Name = 
  10 active torsions:
  status: ('A' for Active; 'I' for Inactive)
    1  A    between atoms: C_1  and  C_34
    2  A    between atoms: C_1  and  C_35
    3  A    between atoms: C_2  and  N_6
    4  A    between atoms: N_3  and  N_4
    5  A    between atoms: C_8  and  C_34
    6  A    between atoms: N_11  and  C_14
    7  A    between atoms: C_13  and  N_27
    8  A    between atoms: C_14  and  C_41
    9  A    between atoms: C_19  and  C_25
   10  A    between atoms: N_27  and  C_30
                            x       y       z     vdW  Elec       q    Type
                         _______ _______ _______ _____ _____    ______ ____

>  <TORSDO>
F 10

$$$$
=
 OpenBabel10272414383D

 43 48  0  0  1  0  0  0  0  0999 V2000
  183.3970  172.3070  135.9340 C   0  0  0  0  0  0  0  0  0  0  0  0
  188.1440  174.2730  136.1360 C   0  0  1  0  0  3  0  0  0  0  0  0
  185.6630  172.7980  136.6340 C   0  0  0  0  0  0  0  0  0  0  0  0
  183.3370  173.5330  135.2640 C   0  0  0  0  0  3  0  0  0  0  0  0
  182.3320  171.4730  135.9140 F   0  0  0  0  0  0  0  0  0  0  0  0
  185.6020  174.0350  135.9680 C   0  0  0  0  0  0  0  0  0  0  0  0
  184.5610  171.9380  136.6200 C   0  0  0  0  0  3  0  0  0  0  0  0
  184.4350  174.3980  135.2860 C   0  0  0  0  0  3  0  0  0  0  0  0
  186.7650  174.9870  136.0150 C   0  0  1  0  0  3  0  0  0  0  0  0
  188.1070  172.7680  136.4610 C   0  0  0  0  0  2  0  0  0  0  0  0
  186.9150  172.4070  137.3440 C   0  0  0  0  0  2  0  0  0  0  0  0
  189.1000  174.5740  134.9720 C   0  0  2  0  0  3  0  0  0  0  0  0
  189.8410  173.4470  134.6110 O   0  0  0  0  0  1  0  0  0  0  0  0
  190.0020  175.8030  135.1550 C   0  0  0  0  0  2  0  0  0  0  0  0
  192.5100  175.0350  137.8930 C   0  0  0  0  0  3  0  0  0  0  0  0
  193.6900  174.9740  137.1480 C   0  0  0  0  0  0  0  0  0  0  0  0
  192.4460  175.4560  135.1640 N   0  0  0  0  0  0  0  0  0  0  0  0
  191.2990  175.3070  137.2540 C   0  0  0  0  0  3  0  0  0  0  0  0
  191.2850  175.5300  135.8730 C   0  0  0  0  0  0  0  0  0  0  0  0
  193.6360  175.1860  135.7670 C   0  0  0  0  0  3  0  0  0  0  0  0
  194.9910  174.7190  137.8220 C   0  0  0  0  0  2  0  0  0  0  0  0
  195.0770  173.2700  138.2620 C   0  0  0  0  0  1  0  0  0  0  0  0
  186.5850  175.9080  137.1320 N   0  0  0  0  0  2  0  0  0  0  0  0
  186.5410  178.3940  137.3430 C   0  0  1  0  0  3  0  0  0  0  0  0
  187.1450  177.9890  136.0160 C   0  0  0  0  0  2  0  0  0  0  0  0
  186.0290  177.1520  136.6080 C   0  0  1  0  0  3  0  0  0  0  0  0
  189.5810  178.4140  139.6640 N   0  0  0  0  0  2  0  0  0  0  0  0
  187.4690  178.0680  138.4180 N   0  0  0  0  0  2  0  0  0  0  0  0
  188.6870  178.7910  138.6180 C   0  0  0  0  0  0  0  0  0  0  0  0
  188.9810  179.7610  137.8700 O   0  0  0  0  0  0  0  0  0  0  0  0
  189.2850  177.3570  140.5410 N   0  0  0  0  0  0  0  0  0  0  0  0
  189.5460  177.4880  142.9770 N   0  0  0  0  0  2  0  0  0  0  0  0
  190.5140  176.5660  140.7080 C   0  0  0  0  0  2  0  0  0  0  0  0
  191.5580  177.2840  141.5700 C   0  0  0  0  0  2  0  0  0  0  0  0
  188.7920  177.9420  141.8070 C   0  0  2  0  0  3  0  0  0  0  0  0
  190.9270  177.9240  142.8070 C   0  0  0  0  0  2  0  0  0  0  0  0
  187.3070  177.6510  141.9940 C   0  0  0  0  0  2  0  0  0  0  0  0
  186.7710  178.4040  143.1180 N   0  0  0  0  0  0  0  0  0  0  0  0
  184.6510  178.7770  145.0530 C   0  0  0  0  0  2  0  0  0  0  0  0
  185.9880  178.1510  145.4290 C   0  0  0  0  0  2  0  0  0  0  0  0
  184.8100  179.6880  143.8420 C   0  0  0  0  0  2  0  0  0  0  0  0
  186.5780  177.4480  144.2090 C   0  0  0  0  0  2  0  0  0  0  0  0
  185.4590  178.9050  142.7020 C   0  0  0  0  0  2  0  0  0  0  0  0
  1  7  1  0  0  0  0
  2 12  1  6  0  0  0
  2 10  1  0  0  0  0
  3 11  1  0  0  0  0
  4  8  1  0  0  0  0
  4  1  2  0  0  0  0
  5  1  1  0  0  0  0
  6  9  1  0  0  0  0
  6  3  1  0  0  0  0
  7  3  2  0  0  0  0
  8  6  2  0  0  0  0
  9  2  1  0  0  0  0
  9 23  1  1  0  0  0
 10 11  1  0  0  0  0
 12 13  1  1  0  0  0
 12 14  1  0  0  0  0
 14 19  1  0  0  0  0
 16 21  1  0  0  0  0
 16 15  2  0  0  0  0
 17 20  2  0  0  0  0
 17 19  1  0  0  0  0
 18 15  1  0  0  0  0
 19 18  2  0  0  0  0
 20 16  1  0  0  0  0
 21 22  1  0  0  0  0
 24 28  1  1  0  0  0
 25 26  1  0  0  0  0
 25 24  1  0  0  0  0
 26 23  1  1  0  0  0
 26 24  1  0  0  0  0
 27 31  1  0  0  0  0
 28 29  1  0  0  0  0
 29 27  1  0  0  0  0
 30 29  2  0  0  0  0
 31 33  1  0  0  0  0
 31 35  1  0  0  0  0
 33 34  1  0  0  0  0
 34 36  1  0  0  0  0
 35 37  1  1  0  0  0
 35 32  1  0  0  0  0
 36 32  1  0  0  0  0
 37 38  1  0  0  0  0
 38 42  1  0  0  0  0
 39 40  1  0  0  0  0
 41 39  1  0  0  0  0
 42 40  1  0  0  0  0
 43 38  1  0  0  0  0
 43 41  1  0  0  0  0
M  END
>  <MODEL>
8

>  <REMARK>
 VINA RESULT:      -7.1      2.986      6.563
  Name = 
  10 active torsions:
  status: ('A' for Active; 'I' for Inactive)
    1  A    between atoms: C_1  and  C_34
    2  A    between atoms: C_1  and  C_35
    3  A    between atoms: C_2  and  N_6
    4  A    between atoms: N_3  and  N_4
    5  A    between atoms: C_8  and  C_34
    6  A    between atoms: N_11  and  C_14
    7  A    between atoms: C_13  and  N_27
    8  A    between atoms: C_14  and  C_41
    9  A    between atoms: C_19  and  C_25
   10  A    between atoms: N_27  and  C_30
                            x       y       z     vdW  Elec       q    Type
                         _______ _______ _______ _____ _____    ______ ____

>  <TORSDO>
F 10

$$$$
=
 OpenBabel10272414383D

 43 48  0  0  1  0  0  0  0  0999 V2000
  191.0090  177.7780  144.8550 C   0  0  0  0  0  0  0  0  0  0  0  0
  186.6530  177.9020  142.1260 C   0  0  1  0  0  3  0  0  0  0  0  0
  188.8670  177.1730  143.9000 C   0  0  0  0  0  0  0  0  0  0  0  0
  191.2560  178.6230  143.7690 C   0  0  0  0  0  3  0  0  0  0  0  0
  191.9220  177.6670  145.8470 F   0  0  0  0  0  0  0  0  0  0  0  0
  189.1180  178.0170  142.8030 C   0  0  0  0  0  0  0  0  0  0  0  0
  189.8120  177.0520  144.9220 C   0  0  0  0  0  3  0  0  0  0  0  0
  190.3160  178.7370  142.7420 C   0  0  0  0  0  3  0  0  0  0  0  0
  188.1270  178.1200  141.6760 C   0  0  1  0  0  3  0  0  0  0  0  0
  186.4480  177.3560  143.5520 C   0  0  0  0  0  2  0  0  0  0  0  0
  187.5820  176.4210  143.9690 C   0  0  0  0  0  2  0  0  0  0  0  0
  185.7370  179.1040  141.8480 C   0  0  2  0  0  3  0  0  0  0  0  0
  186.1110  180.2200  142.5990 O   0  0  0  0  0  1  0  0  0  0  0  0
  184.2300  178.8300  141.9630 C   0  0  0  0  0  2  0  0  0  0  0  0
  181.7340  177.9470  139.2490 C   0  0  0  0  0  3  0  0  0  0  0  0
  182.1640  178.7900  138.2230 C   0  0  0  0  0  0  0  0  0  0  0  0
  183.9030  179.6100  139.6440 N   0  0  0  0  0  0  0  0  0  0  0  0
  182.4010  177.9490  140.4750 C   0  0  0  0  0  3  0  0  0  0  0  0
  183.5060  178.7880  140.6550 C   0  0  0  0  0  0  0  0  0  0  0  0
  183.2610  179.6280  138.4440 C   0  0  0  0  0  3  0  0  0  0  0  0
  181.4820  178.7720  136.9010 C   0  0  0  0  0  2  0  0  0  0  0  0
  180.3610  179.7930  136.8770 C   0  0  0  0  0  1  0  0  0  0  0  0
  188.4760  177.1520  140.6410 N   0  0  0  0  0  2  0  0  0  0  0  0
  189.6080  177.4400  138.4360 C   0  0  1  0  0  3  0  0  0  0  0  0
  189.2950  178.7880  139.0480 C   0  0  0  0  0  2  0  0  0  0  0  0
  189.6710  177.6340  139.9550 C   0  0  1  0  0  3  0  0  0  0  0  0
  187.0430  175.4860  136.3810 N   0  0  0  0  0  2  0  0  0  0  0  0
  188.3710  176.8060  138.0010 N   0  0  0  0  0  2  0  0  0  0  0  0
  188.2850  176.0610  136.7830 C   0  0  0  0  0  0  0  0  0  0  0  0
  189.3020  175.9110  136.0550 O   0  0  0  0  0  0  0  0  0  0  0  0
  185.8870  175.6030  137.1710 N   0  0  0  0  0  0  0  0  0  0  0  0
  183.6150  175.1970  136.3360 N   0  0  0  0  0  2  0  0  0  0  0  0
  185.4100  176.9880  137.0510 C   0  0  0  0  0  2  0  0  0  0  0  0
  184.7750  177.2720  135.6850 C   0  0  0  0  0  2  0  0  0  0  0  0
  184.9060  174.6040  136.6900 C   0  0  2  0  0  3  0  0  0  0  0  0
  183.8460  176.1380  135.2460 C   0  0  0  0  0  2  0  0  0  0  0  0
  184.7110  173.4990  137.7220 C   0  0  0  0  0  2  0  0  0  0  0  0
  184.7750  172.1880  137.0910 N   0  0  0  0  0  0  0  0  0  0  0  0
  184.0540  170.4800  134.8690 C   0  0  0  0  0  2  0  0  0  0  0  0
  185.4550  171.0590  135.0230 C   0  0  0  0  0  2  0  0  0  0  0  0
  183.3690  170.3750  136.2260 C   0  0  0  0  0  2  0  0  0  0  0  0
  185.3740  172.3870  135.7710 C   0  0  0  0  0  2  0  0  0  0  0  0
  183.3930  171.7390  136.9120 C   0  0  0  0  0  2  0  0  0  0  0  0
  1  7  1  0  0  0  0
  1  5  1  0  0  0  0
  2 12  1  1  0  0  0
  2 10  1  0  0  0  0
  3 11  1  0  0  0  0
  3  7  2  0  0  0  0
  4  1  2  0  0  0  0
  6  3  1  0  0  0  0
  8  6  2  0  0  0  0
  8  4  1  0  0  0  0
  9 23  1  6  0  0  0
  9  2  1  0  0  0  0
  9  6  1  0  0  0  0
 10 11  1  0  0  0  0
 12 14  1  0  0  0  0
 12 13  1  1  0  0  0
 15 18  1  0  0  0  0
 16 20  1  0  0  0  0
 16 15  2  0  0  0  0
 17 19  1  0  0  0  0
 18 19  2  0  0  0  0
 19 14  1  0  0  0  0
 20 17  2  0  0  0  0
 21 16  1  0  0  0  0
 22 21  1  0  0  0  0
 24 28  1  1  0  0  0
 24 25  1  0  0  0  0
 24 26  1  0  0  0  0
 25 26  1  0  0  0  0
 26 23  1  1  0  0  0
 27 29  1  0  0  0  0
 27 31  1  0  0  0  0
 29 28  1  0  0  0  0
 30 29  2  0  0  0  0
 32 35  1  0  0  0  0
 33 31  1  0  0  0  0
 34 33  1  0  0  0  0
 35 31  1  0  0  0  0
 35 37  1  1  0  0  0
 36 34  1  0  0  0  0
 36 32  1  0  0  0  0
 38 37  1  0  0  0  0
 39 40  1  0  0  0  0
 39 41  1  0  0  0  0
 40 42  1  0  0  0  0
 41 43  1  0  0  0  0
 42 38  1  0  0  0  0
 43 38  1  0  0  0  0
M  END
>  <MODEL>
9

>  <REMARK>
 VINA RESULT:      -6.9      2.115      6.782
  Name = 
  10 active torsions:
  status: ('A' for Active; 'I' for Inactive)
    1  A    between atoms: C_1  and  C_34
    2  A    between atoms: C_1  and  C_35
    3  A    between atoms: C_2  and  N_6
    4  A    between atoms: N_3  and  N_4
    5  A    between atoms: C_8  and  C_34
    6  A    between atoms: N_11  and  C_14
    7  A    between atoms: C_13  and  N_27
    8  A    between atoms: C_14  and  C_41
    9  A    between atoms: C_19  and  C_25
   10  A    between atoms: N_27  and  C_30
                            x       y       z     vdW  Elec       q    Type
                         _______ _______ _______ _____ _____    ______ ____

>  <TORSDO>
F 10

$$$$
