=
 OpenBabel10272413283D

 32 37  0  0  1  0  0  0  0  0999 V2000
  188.0660  177.6260  143.5860 C   0  0  1  0  0  3  0  0  0  0  0  0
  190.8150  177.3280  139.2050 C   0  0  1  0  0  3  0  0  0  0  0  0
  187.1310  178.0610  135.9110 C   0  0  0  0  0  2  0  0  0  0  0  0
  188.0880  177.4150  134.9220 C   0  0  0  0  0  2  0  0  0  0  0  0
  192.9350  176.6370  138.0220 C   0  0  0  0  0  0  0  0  0  0  0  0
  193.5590  176.0600  136.9190 C   0  0  0  0  0  0  0  0  0  0  0  0
  189.8730  176.9280  141.4820 C   0  0  1  0  0  3  0  0  0  0  0  0
  188.8410  178.6430  139.9380 C   0  0  0  0  0  2  0  0  0  0  0  0
  193.8270  175.0420  134.8720 C   0  0  1  0  0  3  0  0  0  0  0  0
  187.9420  178.3750  142.2520 C   0  0  0  0  0  2  0  0  0  0  0  0
  187.8590  178.3780  137.1800 C   0  0  0  0  0  3  0  0  0  0  0  0
  189.5380  177.9610  138.8520 N   0  0  0  0  0  0  0  0  0  0  0  0
  188.8300  177.5870  137.6570 C   0  0  0  0  0  0  0  0  0  0  0  0
  190.7920  176.2700  136.8870 C   0  0  0  0  0  0  0  0  0  0  0  0
  195.1660  175.2400  135.4710 N   0  0  0  0  0  0  0  0  0  0  0  0
  188.3500  176.1300  143.3920 C   0  0  0  0  0  2  0  0  0  0  0  0
  188.5740  177.6450  141.0620 C   0  0  2  0  0  3  0  0  0  0  0  0
  194.9360  175.8600  136.7180 N   0  0  0  0  0  0  0  0  0  0  0  0
  189.6150  175.8690  142.5600 C   0  0  0  0  0  2  0  0  0  0  0  0
  188.6160  176.1230  135.5340 C   0  0  0  0  0  2  0  0  0  0  0  0
  189.2850  176.3490  136.9080 C   0  0  2  0  0  3  0  0  0  0  0  0
  191.4730  175.6750  135.8040 C   0  0  0  0  0  3  0  0  0  0  0  0
  190.5720  176.2790  140.2870 C   0  0  0  0  0  2  0  0  0  0  0  0
  193.6870  177.0930  139.0990 O   0  0  0  0  0  1  0  0  0  0  0  0
  193.5860  173.6220  134.6830 N   0  0  0  0  0  1  0  0  0  0  0  0
  191.5270  176.7400  138.0120 C   0  0  0  0  0  0  0  0  0  0  0  0
  192.8630  175.5920  135.8600 C   0  0  0  0  0  0  0  0  0  0  0  0
  189.1280  178.2850  144.4540 C   0  0  0  0  0  2  0  0  0  0  0  0
  190.2590  177.0660  146.3570 C   0  0  0  0  0  0  0  0  0  0  0  0
  189.1150  177.7060  145.7880 N   0  0  0  0  0  2  0  0  0  0  0  0
  190.1910  176.5930  147.5210 O   0  0  0  0  0  0  0  0  0  0  0  0
  191.5350  176.9450  145.5940 C   0  0  0  0  0  1  0  0  0  0  0  0
  1 28  1  1  0  0  0
  2 23  1  1  0  0  0
  3 11  1  0  0  0  0
  4 20  1  0  0  0  0
  4  3  1  0  0  0  0
  5 24  1  0  0  0  0
  6  5  2  0  0  0  0
  7 23  1  6  0  0  0
  7 19  1  0  0  0  0
  9 25  1  1  0  0  0
  9 15  1  0  0  0  0
  9 27  1  0  0  0  0
 10  1  1  0  0  0  0
 11 13  2  0  0  0  0
 12  2  1  0  0  0  0
 12  8  1  0  0  0  0
 13 12  1  0  0  0  0
 14 21  1  0  0  0  0
 14 26  2  0  0  0  0
 15 18  2  0  0  0  0
 16  1  1  0  0  0  0
 17  8  1  6  0  0  0
 17  7  1  0  0  0  0
 17 10  1  0  0  0  0
 18  6  1  0  0  0  0
 19 16  1  0  0  0  0
 21 20  1  6  0  0  0
 21 13  1  0  0  0  0
 22 27  2  0  0  0  0
 22 14  1  0  0  0  0
 26  5  1  0  0  0  0
 26  2  1  0  0  0  0
 27  6  1  0  0  0  0
 28 30  1  0  0  0  0
 29 31  2  0  0  0  0
 30 29  1  0  0  0  0
 32 29  1  0  0  0  0
M  END
>  <MODEL>
1

>  <REMARK>
 VINA RESULT:      -8.8      0.000      0.000
  Name = 
  2 active torsions:
  status: ('A' for Active; 'I' for Inactive)
    1  A    between atoms: C_2  and  C_24
    2  A    between atoms: N_10  and  C_24
                            x       y       z     vdW  Elec       q    Type
                         _______ _______ _______ _____ _____    ______ ____

>  <TORSDO>
F 2

$$$$
=
 OpenBabel10272413283D

 32 37  0  0  1  0  0  0  0  0999 V2000
  193.7100  174.8140  137.2030 C   0  0  1  0  0  3  0  0  0  0  0  0
  189.9290  177.5840  139.4090 C   0  0  1  0  0  3  0  0  0  0  0  0
  191.6040  177.5970  144.1160 C   0  0  0  0  0  2  0  0  0  0  0  0
  190.1650  177.9330  144.4700 C   0  0  0  0  0  2  0  0  0  0  0  0
  187.5900  178.5280  139.3000 C   0  0  0  0  0  0  0  0  0  0  0  0
  186.3750  178.7980  139.9250 C   0  0  0  0  0  0  0  0  0  0  0  0
  191.2210  175.9480  138.0360 C   0  0  1  0  0  3  0  0  0  0  0  0
  192.3750  177.3710  139.7760 C   0  0  0  0  0  2  0  0  0  0  0  0
  184.7620  178.9040  141.5640 C   0  0  1  0  0  3  0  0  0  0  0  0
  193.7330  175.8460  138.3400 C   0  0  0  0  0  2  0  0  0  0  0  0
  191.8000  177.7240  142.6380 C   0  0  0  0  0  3  0  0  0  0  0  0
  191.0530  177.5890  140.3550 N   0  0  0  0  0  0  0  0  0  0  0  0
  190.8370  177.3980  141.7640 C   0  0  0  0  0  0  0  0  0  0  0  0
  188.3840  177.6170  141.4350 C   0  0  0  0  0  0  0  0  0  0  0  0
  184.2060  179.4900  140.3240 N   0  0  0  0  0  0  0  0  0  0  0  0
  192.5190  173.8520  137.3110 C   0  0  0  0  0  2  0  0  0  0  0  0
  192.3850  176.0320  139.0430 C   0  0  2  0  0  3  0  0  0  0  0  0
  185.2330  179.3930  139.3620 N   0  0  0  0  0  0  0  0  0  0  0  0
  191.1670  174.5820  137.3400 C   0  0  0  0  0  2  0  0  0  0  0  0
  189.2480  176.9470  143.7560 C   0  0  0  0  0  2  0  0  0  0  0  0
  189.4700  176.9330  142.2270 C   0  0  2  0  0  3  0  0  0  0  0  0
  187.1260  177.8940  142.0130 C   0  0  0  0  0  3  0  0  0  0  0  0
  189.8740  176.2330  138.7030 C   0  0  0  0  0  2  0  0  0  0  0  0
  187.7810  178.8490  137.9600 O   0  0  0  0  0  1  0  0  0  0  0  0
  183.9790  177.7420  141.9460 N   0  0  0  0  0  1  0  0  0  0  0  0
  188.6120  177.9230  140.0630 C   0  0  0  0  0  0  0  0  0  0  0  0
  186.1480  178.4900  141.2200 C   0  0  0  0  0  0  0  0  0  0  0  0
  193.7320  175.5250  135.8570 C   0  0  0  0  0  2  0  0  0  0  0  0
  195.3650  177.3710  135.2990 C   0  0  0  0  0  0  0  0  0  0  0  0
  194.2300  176.8820  136.0160 N   0  0  0  0  0  2  0  0  0  0  0  0
  195.7420  178.5590  135.4690 O   0  0  0  0  0  0  0  0  0  0  0  0
  196.1160  176.4970  134.3520 C   0  0  0  0  0  1  0  0  0  0  0  0
  1 28  1  6  0  0  0
  1 16  1  0  0  0  0
  1 10  1  0  0  0  0
  2 23  1  1  0  0  0
  2 26  1  0  0  0  0
  2 12  1  0  0  0  0
  3  4  1  0  0  0  0
  5  6  2  0  0  0  0
  5 26  1  0  0  0  0
  6 27  1  0  0  0  0
  7 19  1  1  0  0  0
  7 23  1  0  0  0  0
  7 17  1  0  0  0  0
  8 12  1  0  0  0  0
  9 25  1  6  0  0  0
 11  3  1  0  0  0  0
 12 13  1  0  0  0  0
 13 21  1  0  0  0  0
 13 11  2  0  0  0  0
 14 22  1  0  0  0  0
 14 21  1  0  0  0  0
 15  9  1  0  0  0  0
 16 19  1  0  0  0  0
 17 10  1  6  0  0  0
 17  8  1  0  0  0  0
 18  6  1  0  0  0  0
 18 15  2  0  0  0  0
 20  4  1  0  0  0  0
 21 20  1  1  0  0  0
 24  5  1  0  0  0  0
 26 14  2  0  0  0  0
 27  9  1  0  0  0  0
 27 22  2  0  0  0  0
 28 30  1  0  0  0  0
 29 31  2  0  0  0  0
 29 30  1  0  0  0  0
 32 29  1  0  0  0  0
M  END
>  <MODEL>
2

>  <REMARK>
 VINA RESULT:      -8.4      2.867      8.368
  Name = 
  2 active torsions:
  status: ('A' for Active; 'I' for Inactive)
    1  A    between atoms: C_2  and  C_24
    2  A    between atoms: N_10  and  C_24
                            x       y       z     vdW  Elec       q    Type
                         _______ _______ _______ _____ _____    ______ ____

>  <TORSDO>
F 2

$$$$
=
 OpenBabel10272413283D

 32 37  0  0  1  0  0  0  0  0999 V2000
  182.0910  177.8330  137.9710 C   0  0  1  0  0  3  0  0  0  0  0  0
  185.0460  178.8100  142.1130 C   0  0  1  0  0  3  0  0  0  0  0  0
  189.5280  177.8370  140.1330 C   0  0  0  0  0  2  0  0  0  0  0  0
  189.9700  177.6890  141.5790 C   0  0  0  0  0  2  0  0  0  0  0  0
  185.2350  179.1410  144.6080 C   0  0  0  0  0  0  0  0  0  0  0  0
  185.9140  178.9070  145.8010 C   0  0  0  0  0  0  0  0  0  0  0  0
  183.2350  178.0230  140.5850 C   0  0  1  0  0  3  0  0  0  0  0  0
  185.3260  179.1040  139.6640 C   0  0  0  0  0  2  0  0  0  0  0  0
  187.5090  178.1240  147.2650 C   0  0  1  0  0  3  0  0  0  0  0  0
  183.4900  178.4540  138.1020 C   0  0  0  0  0  2  0  0  0  0  0  0
  188.1590  178.4400  140.0850 C   0  0  0  0  0  3  0  0  0  0  0  0
  185.9460  178.8090  140.9530 N   0  0  0  0  0  0  0  0  0  0  0  0
  187.2290  178.1630  141.0090 C   0  0  0  0  0  0  0  0  0  0  0  0
  186.9870  177.8620  143.4640 C   0  0  0  0  0  0  0  0  0  0  0  0
  186.5080  178.8960  148.0360 N   0  0  0  0  0  0  0  0  0  0  0  0
  181.9020  176.6210  138.8940 C   0  0  0  0  0  2  0  0  0  0  0  0
  184.2180  178.0860  139.3990 C   0  0  2  0  0  3  0  0  0  0  0  0
  185.5620  179.3430  147.0910 N   0  0  0  0  0  0  0  0  0  0  0  0
  182.1560  176.9550  140.3720 C   0  0  0  0  0  2  0  0  0  0  0  0
  188.9890  176.7670  142.2930 C   0  0  0  0  0  2  0  0  0  0  0  0
  187.5300  177.2610  142.1920 C   0  0  2  0  0  3  0  0  0  0  0  0
  187.6240  177.6380  144.7040 C   0  0  0  0  0  3  0  0  0  0  0  0
  183.9600  177.7580  141.9060 C   0  0  0  0  0  2  0  0  0  0  0  0
  184.0560  179.8810  144.6010 O   0  0  0  0  0  1  0  0  0  0  0  0
  187.5180  176.7460  147.7250 N   0  0  0  0  0  1  0  0  0  0  0  0
  185.7730  178.6060  143.4180 C   0  0  0  0  0  0  0  0  0  0  0  0
  187.0530  178.1830  145.8520 C   0  0  0  0  0  0  0  0  0  0  0  0
  181.0280  178.8930  138.2180 C   0  0  0  0  0  2  0  0  0  0  0  0
  181.1080  181.4030  138.5010 C   0  0  0  0  0  0  0  0  0  0  0  0
  181.5350  180.2060  137.8490 N   0  0  0  0  0  2  0  0  0  0  0  0
  181.5900  182.5090  138.1460 O   0  0  0  0  0  0  0  0  0  0  0  0
  180.0960  181.3670  139.5970 C   0  0  0  0  0  1  0  0  0  0  0  0
  1 10  1  0  0  0  0
  1 28  1  1  0  0  0
  1 16  1  0  0  0  0
  2 23  1  6  0  0  0
  2 26  1  0  0  0  0
  3  4  1  0  0  0  0
  4 20  1  0  0  0  0
  5  6  1  0  0  0  0
  6 27  2  0  0  0  0
  6 18  1  0  0  0  0
  7 19  1  6  0  0  0
  7 23  1  0  0  0  0
  8 12  1  0  0  0  0
  9 25  1  1  0  0  0
  9 15  1  0  0  0  0
 11  3  1  0  0  0  0
 11 13  2  0  0  0  0
 12 13  1  0  0  0  0
 12  2  1  0  0  0  0
 13 21  1  0  0  0  0
 14 22  2  0  0  0  0
 16 19  1  0  0  0  0
 17 10  1  6  0  0  0
 17  8  1  0  0  0  0
 17  7  1  0  0  0  0
 18 15  2  0  0  0  0
 21 20  1  1  0  0  0
 21 14  1  0  0  0  0
 22 27  1  0  0  0  0
 24  5  1  0  0  0  0
 26 14  1  0  0  0  0
 26  5  2  0  0  0  0
 27  9  1  0  0  0  0
 29 32  1  0  0  0  0
 30 28  1  0  0  0  0
 30 29  1  0  0  0  0
 31 29  2  0  0  0  0
M  END
>  <MODEL>
3

>  <REMARK>
 VINA RESULT:      -8.2      5.311      9.672
  Name = 
  2 active torsions:
  status: ('A' for Active; 'I' for Inactive)
    1  A    between atoms: C_2  and  C_24
    2  A    between atoms: N_10  and  C_24
                            x       y       z     vdW  Elec       q    Type
                         _______ _______ _______ _____ _____    ______ ____

>  <TORSDO>
F 2

$$$$
=
 OpenBabel10272413283D

 32 37  0  0  1  0  0  0  0  0999 V2000
  186.0090  177.9410  144.4410 C   0  0  1  0  0  3  0  0  0  0  0  0
  189.3020  177.6280  140.4530 C   0  0  1  0  0  3  0  0  0  0  0  0
  186.0010  177.6200  136.7030 C   0  0  0  0  0  2  0  0  0  0  0  0
  187.1420  177.0190  135.8980 C   0  0  0  0  0  2  0  0  0  0  0  0
  191.6180  177.1110  139.5940 C   0  0  0  0  0  0  0  0  0  0  0  0
  192.4380  176.5270  138.6310 C   0  0  0  0  0  0  0  0  0  0  0  0
  188.1330  177.3030  142.6350 C   0  0  1  0  0  3  0  0  0  0  0  0
  187.1150  178.7410  140.8240 C   0  0  0  0  0  2  0  0  0  0  0  0
  193.0750  175.3850  136.7370 C   0  0  1  0  0  3  0  0  0  0  0  0
  185.9680  178.5560  143.0340 C   0  0  0  0  0  2  0  0  0  0  0  0
  186.5230  178.1290  138.0100 C   0  0  0  0  0  3  0  0  0  0  0  0
  188.0160  178.0650  139.8960 N   0  0  0  0  0  0  0  0  0  0  0  0
  187.5100  177.5080  138.6700 C   0  0  0  0  0  0  0  0  0  0  0  0
  189.6900  176.3860  138.2620 C   0  0  0  0  0  0  0  0  0  0  0  0
  194.2960  175.7980  137.4640 N   0  0  0  0  0  0  0  0  0  0  0  0
  186.4830  176.4810  144.4260 C   0  0  0  0  0  2  0  0  0  0  0  0
  186.8240  177.8140  142.0020 C   0  0  2  0  0  3  0  0  0  0  0  0
  193.8430  176.4850  138.6100 N   0  0  0  0  0  0  0  0  0  0  0  0
  187.8650  176.3120  143.7740 C   0  0  0  0  0  2  0  0  0  0  0  0
  187.7330  175.8580  136.6890 C   0  0  0  0  0  2  0  0  0  0  0  0
  188.1940  176.2780  138.1020 C   0  0  2  0  0  3  0  0  0  0  0  0
  190.5660  175.7940  137.3270 C   0  0  0  0  0  3  0  0  0  0  0  0
  189.0460  176.6490  141.5960 C   0  0  0  0  0  2  0  0  0  0  0  0
  192.1730  177.7460  140.7010 O   0  0  0  0  0  1  0  0  0  0  0  0
  193.0230  173.9350  136.6600 N   0  0  0  0  0  1  0  0  0  0  0  0
  190.2210  177.0370  139.4130 C   0  0  0  0  0  0  0  0  0  0  0  0
  191.9380  175.8910  137.5500 C   0  0  0  0  0  0  0  0  0  0  0  0
  186.8710  178.7970  145.3560 C   0  0  0  0  0  2  0  0  0  0  0  0
  188.0680  177.8250  147.3590 C   0  0  0  0  0  0  0  0  0  0  0  0
  186.8710  178.2470  146.7030 N   0  0  0  0  0  2  0  0  0  0  0  0
  188.0060  177.3680  148.5290 O   0  0  0  0  0  0  0  0  0  0  0  0
  189.3930  177.9140  146.6800 C   0  0  0  0  0  1  0  0  0  0  0  0
  1 28  1  1  0  0  0
  2 23  1  1  0  0  0
  3 11  1  0  0  0  0
  4 20  1  0  0  0  0
  4  3  1  0  0  0  0
  5 24  1  0  0  0  0
  6  5  2  0  0  0  0
  7 23  1  6  0  0  0
  7 19  1  0  0  0  0
  9 25  1  1  0  0  0
  9 15  1  0  0  0  0
  9 27  1  0  0  0  0
 10  1  1  0  0  0  0
 11 13  2  0  0  0  0
 12  2  1  0  0  0  0
 12  8  1  0  0  0  0
 13 12  1  0  0  0  0
 14 26  2  0  0  0  0
 15 18  2  0  0  0  0
 16  1  1  0  0  0  0
 17  8  1  6  0  0  0
 17  7  1  0  0  0  0
 17 10  1  0  0  0  0
 18  6  1  0  0  0  0
 19 16  1  0  0  0  0
 21 20  1  6  0  0  0
 21 14  1  0  0  0  0
 21 13  1  0  0  0  0
 22 27  2  0  0  0  0
 22 14  1  0  0  0  0
 26  5  1  0  0  0  0
 26  2  1  0  0  0  0
 27  6  1  0  0  0  0
 28 30  1  0  0  0  0
 29 31  2  0  0  0  0
 30 29  1  0  0  0  0
 32 29  1  0  0  0  0
M  END
>  <MODEL>
4

>  <REMARK>
 VINA RESULT:      -8.1      1.645      2.057
  Name = 
  2 active torsions:
  status: ('A' for Active; 'I' for Inactive)
    1  A    between atoms: C_2  and  C_24
    2  A    between atoms: N_10  and  C_24
                            x       y       z     vdW  Elec       q    Type
                         _______ _______ _______ _____ _____    ______ ____

>  <TORSDO>
F 2

$$$$
=
 OpenBabel10272413283D

 32 37  0  0  1  0  0  0  0  0999 V2000
  183.5600  179.1170  144.7380 C   0  0  1  0  0  3  0  0  0  0  0  0
  187.9490  177.2270  142.7380 C   0  0  1  0  0  3  0  0  0  0  0  0
  190.6200  176.8180  146.9390 C   0  0  0  0  0  2  0  0  0  0  0  0
  191.8160  176.8030  146.0010 C   0  0  0  0  0  2  0  0  0  0  0  0
  189.4080  176.8180  140.7190 C   0  0  0  0  0  0  0  0  0  0  0  0
  190.6710  176.8160  140.1320 C   0  0  0  0  0  0  0  0  0  0  0  0
  185.8740  178.5500  143.1570 C   0  0  1  0  0  3  0  0  0  0  0  0
  186.7220  176.8970  144.8710 C   0  0  0  0  0  2  0  0  0  0  0  0
  192.9490  177.0550  139.9000 C   0  0  1  0  0  3  0  0  0  0  0  0
  184.5720  178.0980  145.2820 C   0  0  0  0  0  2  0  0  0  0  0  0
  189.3590  176.6610  146.1480 C   0  0  0  0  0  3  0  0  0  0  0  0
  188.0070  176.9710  144.1820 N   0  0  0  0  0  0  0  0  0  0  0  0
  189.2170  177.1940  144.9270 C   0  0  0  0  0  0  0  0  0  0  0  0
  190.4790  177.5200  142.8100 C   0  0  0  0  0  0  0  0  0  0  0  0
  192.3920  176.6130  138.6020 N   0  0  0  0  0  0  0  0  0  0  0  0
  184.2420  180.3160  144.0650 C   0  0  0  0  0  2  0  0  0  0  0  0
  185.9670  178.2070  144.6570 C   0  0  2  0  0  3  0  0  0  0  0  0
  191.0020  176.4890  138.8050 N   0  0  0  0  0  0  0  0  0  0  0  0
  185.1820  179.8990  142.9230 C   0  0  0  0  0  2  0  0  0  0  0  0
  191.6840  177.9700  145.0310 C   0  0  0  0  0  2  0  0  0  0  0  0
  190.3500  177.9450  144.2520 C   0  0  2  0  0  3  0  0  0  0  0  0
  191.7320  177.5210  142.1610 C   0  0  0  0  0  3  0  0  0  0  0  0
  187.2520  178.5620  142.4930 C   0  0  0  0  0  2  0  0  0  0  0  0
  188.2840  176.4720  139.9750 O   0  0  0  0  0  1  0  0  0  0  0  0
  193.5710  178.3580  139.7430 N   0  0  0  0  0  1  0  0  0  0  0  0
  189.3050  177.1800  142.0790 C   0  0  0  0  0  0  0  0  0  0  0  0
  191.7830  177.1580  140.8170 C   0  0  0  0  0  0  0  0  0  0  0  0
  182.5860  178.4280  143.7950 C   0  0  0  0  0  2  0  0  0  0  0  0
  181.1570  179.4590  141.9840 C   0  0  0  0  0  0  0  0  0  0  0  0
  181.5700  179.3680  143.3480 N   0  0  0  0  0  2  0  0  0  0  0  0
  180.2650  180.2840  141.6590 O   0  0  0  0  0  0  0  0  0  0  0  0
  181.7650  178.5920  140.9320 C   0  0  0  0  0  1  0  0  0  0  0  0
  1 28  1  6  0  0  0
  1 10  1  0  0  0  0
  2 23  1  1  0  0  0
  2 12  1  0  0  0  0
  4  3  1  0  0  0  0
  5 26  1  0  0  0  0
  6  5  2  0  0  0  0
  6 27  1  0  0  0  0
  7 23  1  1  0  0  0
  7 17  1  0  0  0  0
  9 25  1  6  0  0  0
  9 27  1  0  0  0  0
 11  3  1  0  0  0  0
 12  8  1  0  0  0  0
 12 13  1  0  0  0  0
 13 11  2  0  0  0  0
 14 21  1  0  0  0  0
 15 18  2  0  0  0  0
 15  9  1  0  0  0  0
 16  1  1  0  0  0  0
 17  8  1  6  0  0  0
 17 10  1  0  0  0  0
 18  6  1  0  0  0  0
 19  7  1  0  0  0  0
 19 16  1  0  0  0  0
 20  4  1  0  0  0  0
 21 13  1  0  0  0  0
 21 20  1  1  0  0  0
 22 14  1  0  0  0  0
 24  5  1  0  0  0  0
 26  2  1  0  0  0  0
 26 14  2  0  0  0  0
 27 22  2  0  0  0  0
 29 30  1  0  0  0  0
 30 28  1  0  0  0  0
 31 29  2  0  0  0  0
 32 29  1  0  0  0  0
M  END
>  <MODEL>
5

>  <REMARK>
 VINA RESULT:      -7.4      3.970      7.147
  Name = 
  2 active torsions:
  status: ('A' for Active; 'I' for Inactive)
    1  A    between atoms: C_2  and  C_24
    2  A    between atoms: N_10  and  C_24
                            x       y       z     vdW  Elec       q    Type
                         _______ _______ _______ _____ _____    ______ ____

>  <TORSDO>
F 2

$$$$
=
 OpenBabel10272413283D

 32 37  0  0  1  0  0  0  0  0999 V2000
  186.6520  178.0960  146.9270 C   0  0  1  0  0  3  0  0  0  0  0  0
  185.4690  178.6740  141.9170 C   0  0  1  0  0  3  0  0  0  0  0  0
  180.5270  179.2750  142.3370 C   0  0  0  0  0  2  0  0  0  0  0  0
  180.5050  178.8810  140.8690 C   0  0  0  0  0  2  0  0  0  0  0  0
  186.1250  178.4130  139.4930 C   0  0  0  0  0  0  0  0  0  0  0  0
  185.7870  178.0550  138.1910 C   0  0  0  0  0  0  0  0  0  0  0  0
  186.4330  177.8930  144.0840 C   0  0  1  0  0  3  0  0  0  0  0  0
  184.5860  179.6180  144.0360 C   0  0  0  0  0  2  0  0  0  0  0  0
  184.5320  177.3240  136.4050 C   0  0  1  0  0  3  0  0  0  0  0  0
  185.6050  178.9690  146.2220 C   0  0  0  0  0  2  0  0  0  0  0  0
  181.9370  179.5400  142.7640 C   0  0  0  0  0  3  0  0  0  0  0  0
  184.3120  179.1650  142.6760 N   0  0  0  0  0  0  0  0  0  0  0  0
  182.9700  178.8380  142.2770 C   0  0  0  0  0  0  0  0  0  0  0  0
  183.8180  177.8930  140.1400 C   0  0  0  0  0  0  0  0  0  0  0  0
  185.8960  177.6310  135.9210 N   0  0  0  0  0  0  0  0  0  0  0  0
  186.7330  176.6840  146.3310 C   0  0  0  0  0  2  0  0  0  0  0  0
  185.2120  178.4710  144.8270 C   0  0  2  0  0  3  0  0  0  0  0  0
  186.6140  178.0670  137.0540 N   0  0  0  0  0  0  0  0  0  0  0  0
  187.0340  176.6920  144.8240 C   0  0  0  0  0  2  0  0  0  0  0  0
  181.3290  177.6110  140.6970 C   0  0  0  0  0  2  0  0  0  0  0  0
  182.7730  177.7660  141.2220 C   0  0  2  0  0  3  0  0  0  0  0  0
  183.5340  177.5230  138.8080 C   0  0  0  0  0  3  0  0  0  0  0  0
  186.0820  177.4850  142.6520 C   0  0  0  0  0  2  0  0  0  0  0  0
  187.4150  178.8410  139.7950 O   0  0  0  0  0  1  0  0  0  0  0  0
  184.2470  175.9150  136.1930 N   0  0  0  0  0  1  0  0  0  0  0  0
  185.1290  178.3270  140.4890 C   0  0  0  0  0  0  0  0  0  0  0  0
  184.5510  177.6230  137.8610 C   0  0  0  0  0  0  0  0  0  0  0  0
  188.0070  178.7890  146.9040 C   0  0  0  0  0  2  0  0  0  0  0  0
  190.1220  177.4080  146.8520 C   0  0  0  0  0  0  0  0  0  0  0  0
  189.0070  177.9570  147.5540 N   0  0  0  0  0  2  0  0  0  0  0  0
  190.9610  176.7050  147.4710 O   0  0  0  0  0  0  0  0  0  0  0  0
  190.3120  177.6510  145.3920 C   0  0  0  0  0  1  0  0  0  0  0  0
  1 28  1  6  0  0  0
  2 23  1  1  0  0  0
  2 12  1  0  0  0  0
  3 11  1  0  0  0  0
  4  3  1  0  0  0  0
  5 24  1  0  0  0  0
  5 26  1  0  0  0  0
  6  5  2  0  0  0  0
  7 23  1  6  0  0  0
  7 19  1  0  0  0  0
  7 17  1  0  0  0  0
  9 25  1  1  0  0  0
  9 27  1  0  0  0  0
 10  1  1  0  0  0  0
 12  8  1  0  0  0  0
 13 12  1  0  0  0  0
 13 11  2  0  0  0  0
 14 26  2  0  0  0  0
 14 21  1  0  0  0  0
 15  9  1  0  0  0  0
 15 18  2  0  0  0  0
 16  1  1  0  0  0  0
 17  8  1  6  0  0  0
 17 10  1  0  0  0  0
 18  6  1  0  0  0  0
 19 16  1  0  0  0  0
 20  4  1  0  0  0  0
 21 20  1  6  0  0  0
 21 13  1  0  0  0  0
 22 14  1  0  0  0  0
 26  2  1  0  0  0  0
 27  6  1  0  0  0  0
 27 22  2  0  0  0  0
 28 30  1  0  0  0  0
 29 31  2  0  0  0  0
 29 30  1  0  0  0  0
 32 29  1  0  0  0  0
M  END
>  <MODEL>
6

>  <REMARK>
 VINA RESULT:      -7.1      5.135      6.831
  Name = 
  2 active torsions:
  status: ('A' for Active; 'I' for Inactive)
    1  A    between atoms: C_2  and  C_24
    2  A    between atoms: N_10  and  C_24
                            x       y       z     vdW  Elec       q    Type
                         _______ _______ _______ _____ _____    ______ ____

>  <TORSDO>
F 2

$$$$
=
 OpenBabel10272413283D

 32 37  0  0  1  0  0  0  0  0999 V2000
  186.4330  177.8790  145.6970 C   0  0  1  0  0  3  0  0  0  0  0  0
  186.8340  178.5920  140.5820 C   0  0  1  0  0  3  0  0  0  0  0  0
  181.9860  179.0500  139.4660 C   0  0  0  0  0  2  0  0  0  0  0  0
  182.4310  178.7050  138.0540 C   0  0  0  0  0  2  0  0  0  0  0  0
  188.2150  178.4300  138.4750 C   0  0  0  0  0  0  0  0  0  0  0  0
  188.3080  178.1070  137.1230 C   0  0  0  0  0  0  0  0  0  0  0  0
  187.1090  177.7650  142.9210 C   0  0  1  0  0  3  0  0  0  0  0  0
  185.3080  179.4420  142.3450 C   0  0  0  0  0  2  0  0  0  0  0  0
  187.6920  177.4030  135.0200 C   0  0  1  0  0  3  0  0  0  0  0  0
  185.6250  178.7480  144.7230 C   0  0  0  0  0  2  0  0  0  0  0  0
  183.1850  179.3380  140.3140 C   0  0  0  0  0  3  0  0  0  0  0  0
  185.4830  179.0280  140.9560 N   0  0  0  0  0  0  0  0  0  0  0  0
  184.3420  178.6790  140.1540 C   0  0  0  0  0  0  0  0  0  0  0  0
  185.8400  177.8290  138.3630 C   0  0  0  0  0  0  0  0  0  0  0  0
  189.1270  177.7620  134.9890 N   0  0  0  0  0  0  0  0  0  0  0  0
  186.7430  176.4900  145.1220 C   0  0  0  0  0  2  0  0  0  0  0  0
  185.6990  178.2860  143.2630 C   0  0  2  0  0  3  0  0  0  0  0  0
  189.4440  178.1790  136.2980 N   0  0  0  0  0  0  0  0  0  0  0  0
  187.4940  176.5570  143.7830 C   0  0  0  0  0  2  0  0  0  0  0  0
  183.3130  177.4630  138.1150 C   0  0  0  0  0  2  0  0  0  0  0  0
  184.5180  177.6380  139.0650 C   0  0  2  0  0  3  0  0  0  0  0  0
  185.9940  177.4960  137.0000 C   0  0  0  0  0  3  0  0  0  0  0  0
  187.2320  177.3960  141.4420 C   0  0  0  0  0  2  0  0  0  0  0  0
  189.3320  178.8810  139.1700 O   0  0  0  0  0  1  0  0  0  0  0  0
  187.5360  175.9950  134.6970 N   0  0  0  0  0  1  0  0  0  0  0  0
  186.9630  178.2850  139.1110 C   0  0  0  0  0  0  0  0  0  0  0  0
  187.2500  177.6540  136.4170 C   0  0  0  0  0  0  0  0  0  0  0  0
  187.7040  178.6070  146.1100 C   0  0  0  0  0  2  0  0  0  0  0  0
  189.8300  177.3400  146.6190 C   0  0  0  0  0  0  0  0  0  0  0  0
  188.5110  177.7580  146.9720 N   0  0  0  0  0  2  0  0  0  0  0  0
  190.4840  176.6150  147.4110 O   0  0  0  0  0  0  0  0  0  0  0  0
  190.4480  177.7470  145.3230 C   0  0  0  0  0  1  0  0  0  0  0  0
  1 28  1  6  0  0  0
  2 12  1  0  0  0  0
  2 23  1  1  0  0  0
  3 11  1  0  0  0  0
  4 20  1  0  0  0  0
  4  3  1  0  0  0  0
  5 26  1  0  0  0  0
  5 24  1  0  0  0  0
  6  5  2  0  0  0  0
  7 23  1  6  0  0  0
  7 17  1  0  0  0  0
  7 19  1  0  0  0  0
  9 25  1  1  0  0  0
  9 27  1  0  0  0  0
 10  1  1  0  0  0  0
 12  8  1  0  0  0  0
 13 11  2  0  0  0  0
 13 12  1  0  0  0  0
 14 21  1  0  0  0  0
 14 26  2  0  0  0  0
 15  9  1  0  0  0  0
 15 18  2  0  0  0  0
 16  1  1  0  0  0  0
 17  8  1  6  0  0  0
 17 10  1  0  0  0  0
 18  6  1  0  0  0  0
 19 16  1  0  0  0  0
 21 20  1  6  0  0  0
 21 13  1  0  0  0  0
 22 14  1  0  0  0  0
 26  2  1  0  0  0  0
 27 22  2  0  0  0  0
 27  6  1  0  0  0  0
 28 30  1  0  0  0  0
 29 30  1  0  0  0  0
 29 31  2  0  0  0  0
 32 29  1  0  0  0  0
M  END
>  <MODEL>
7

>  <REMARK>
 VINA RESULT:      -6.7      3.408      4.729
  Name = 
  2 active torsions:
  status: ('A' for Active; 'I' for Inactive)
    1  A    between atoms: C_2  and  C_24
    2  A    between atoms: N_10  and  C_24
                            x       y       z     vdW  Elec       q    Type
                         _______ _______ _______ _____ _____    ______ ____

>  <TORSDO>
F 2

$$$$
=
 OpenBabel10272413283D

 32 37  0  0  1  0  0  0  0  0999 V2000
  192.9500  175.4460  137.7610 C   0  0  1  0  0  3  0  0  0  0  0  0
  188.8400  177.9280  139.7080 C   0  0  1  0  0  3  0  0  0  0  0  0
  190.0460  177.7720  144.5530 C   0  0  0  0  0  2  0  0  0  0  0  0
  188.5650  178.0250  144.7780 C   0  0  0  0  0  2  0  0  0  0  0  0
  186.4800  178.7720  139.4110 C   0  0  0  0  0  0  0  0  0  0  0  0
  185.1980  178.9560  139.9240 C   0  0  0  0  0  0  0  0  0  0  0  0
  190.3380  176.4240  138.3950 C   0  0  1  0  0  3  0  0  0  0  0  0
  191.2460  177.8050  140.3060 C   0  0  0  0  0  2  0  0  0  0  0  0
  183.4300  178.9050  141.3970 C   0  0  1  0  0  3  0  0  0  0  0  0
  192.8110  176.4170  138.9420 C   0  0  0  0  0  2  0  0  0  0  0  0
  190.3790  177.9840  143.1100 C   0  0  0  0  0  3  0  0  0  0  0  0
  189.8650  177.9340  140.7600 N   0  0  0  0  0  0  0  0  0  0  0  0
  189.5230  177.6620  142.1300 C   0  0  0  0  0  0  0  0  0  0  0  0
  187.1050  177.7880  141.5690 C   0  0  0  0  0  0  0  0  0  0  0  0
  182.9680  179.5290  140.1360 N   0  0  0  0  0  0  0  0  0  0  0  0
  191.8020  174.4280  137.7050 C   0  0  0  0  0  2  0  0  0  0  0  0
  191.3930  176.5070  139.5160 C   0  0  2  0  0  3  0  0  0  0  0  0
  184.0880  179.5270  139.2780 N   0  0  0  0  0  0  0  0  0  0  0  0
  190.4200  175.0950  137.6340 C   0  0  0  0  0  2  0  0  0  0  0  0
  187.7720  177.0380  143.9300 C   0  0  0  0  0  2  0  0  0  0  0  0
  188.1410  177.1120  142.4320 C   0  0  2  0  0  3  0  0  0  0  0  0
  185.7850  177.9790  142.0320 C   0  0  0  0  0  3  0  0  0  0  0  0
  188.9210  176.6140  138.9370 C   0  0  0  0  0  2  0  0  0  0  0  0
  186.7840  179.1700  138.1130 O   0  0  0  0  0  1  0  0  0  0  0  0
  182.6710  177.6910  141.6430 N   0  0  0  0  0  1  0  0  0  0  0  0
  187.4510  178.1740  140.2420 C   0  0  0  0  0  0  0  0  0  0  0  0
  184.8610  178.5710  141.1740 C   0  0  0  0  0  0  0  0  0  0  0  0
  193.0670  176.2250  136.4600 C   0  0  0  0  0  2  0  0  0  0  0  0
  195.3400  176.4660  135.3810 C   0  0  0  0  0  0  0  0  0  0  0  0
  194.3780  176.8490  136.3660 N   0  0  0  0  0  2  0  0  0  0  0  0
  196.4540  177.0500  135.3420 O   0  0  0  0  0  0  0  0  0  0  0  0
  195.0500  175.3830  134.3970 C   0  0  0  0  0  1  0  0  0  0  0  0
  1 28  1  6  0  0  0
  1 10  1  0  0  0  0
  2 23  1  1  0  0  0
  2 26  1  0  0  0  0
  2 12  1  0  0  0  0
  3  4  1  0  0  0  0
  5  6  2  0  0  0  0
  5 26  1  0  0  0  0
  6 27  1  0  0  0  0
  7 19  1  1  0  0  0
  7 23  1  0  0  0  0
  7 17  1  0  0  0  0
  8 12  1  0  0  0  0
  9 25  1  6  0  0  0
 11  3  1  0  0  0  0
 12 13  1  0  0  0  0
 13 21  1  0  0  0  0
 13 11  2  0  0  0  0
 14 22  1  0  0  0  0
 14 21  1  0  0  0  0
 15  9  1  0  0  0  0
 16  1  1  0  0  0  0
 17 10  1  6  0  0  0
 17  8  1  0  0  0  0
 18  6  1  0  0  0  0
 18 15  2  0  0  0  0
 19 16  1  0  0  0  0
 20  4  1  0  0  0  0
 21 20  1  1  0  0  0
 24  5  1  0  0  0  0
 26 14  2  0  0  0  0
 27  9  1  0  0  0  0
 27 22  2  0  0  0  0
 29 30  1  0  0  0  0
 30 28  1  0  0  0  0
 31 29  2  0  0  0  0
 32 29  1  0  0  0  0
M  END
>  <MODEL>
8

>  <REMARK>
 VINA RESULT:      -6.4      3.095      8.555
  Name = 
  2 active torsions:
  status: ('A' for Active; 'I' for Inactive)
    1  A    between atoms: C_2  and  C_24
    2  A    between atoms: N_10  and  C_24
                            x       y       z     vdW  Elec       q    Type
                         _______ _______ _______ _____ _____    ______ ____

>  <TORSDO>
F 2

$$$$
=
 OpenBabel10272413283D

 32 37  0  0  1  0  0  0  0  0999 V2000
  195.8660  174.4590  135.5510 C   0  0  1  0  0  3  0  0  0  0  0  0
  191.1840  175.3980  137.5600 C   0  0  1  0  0  3  0  0  0  0  0  0
  188.4840  172.2450  134.7800 C   0  0  0  0  0  2  0  0  0  0  0  0
  187.3110  173.1150  135.1990 C   0  0  0  0  0  2  0  0  0  0  0  0
  189.6720  176.8930  138.9220 C   0  0  0  0  0  0  0  0  0  0  0  0
  188.4350  177.5090  139.0960 C   0  0  0  0  0  0  0  0  0  0  0  0
  193.4850  175.6280  136.6200 C   0  0  1  0  0  3  0  0  0  0  0  0
  192.3170  173.3870  136.6480 C   0  0  0  0  0  2  0  0  0  0  0  0
  186.2540  178.1320  138.7040 C   0  0  1  0  0  3  0  0  0  0  0  0
  194.6670  173.5370  135.8170 C   0  0  0  0  0  2  0  0  0  0  0  0
  189.6870  172.5950  135.6000 C   0  0  0  0  0  3  0  0  0  0  0  0
  191.0740  174.1310  136.8270 N   0  0  0  0  0  0  0  0  0  0  0  0
  189.9350  173.8520  135.9940 C   0  0  0  0  0  0  0  0  0  0  0  0
  188.7660  175.8520  136.8940 C   0  0  0  0  0  0  0  0  0  0  0  0
  186.7090  178.7880  139.9510 N   0  0  0  0  0  0  0  0  0  0  0  0
  195.4420  175.8130  134.9650 C   0  0  0  0  0  2  0  0  0  0  0  0
  193.3240  174.2680  135.9120 C   0  0  2  0  0  3  0  0  0  0  0  0
  188.0450  178.3730  140.1340 N   0  0  0  0  0  0  0  0  0  0  0  0
  194.4370  176.5570  135.8580 C   0  0  0  0  0  2  0  0  0  0  0  0
  187.6790  174.5730  134.9540 C   0  0  0  0  0  2  0  0  0  0  0  0
  188.9790  174.9860  135.6770 C   0  0  2  0  0  3  0  0  0  0  0  0
  187.5400  176.5170  137.1080 C   0  0  0  0  0  3  0  0  0  0  0  0
  192.1390  176.3270  136.8150 C   0  0  0  0  0  2  0  0  0  0  0  0
  190.7020  177.1070  139.8330 O   0  0  0  0  0  1  0  0  0  0  0  0
  185.9100  179.1440  137.7210 N   0  0  0  0  0  1  0  0  0  0  0  0
  189.8470  176.0540  137.8000 C   0  0  0  0  0  0  0  0  0  0  0  0
  187.4160  177.3370  138.2280 C   0  0  0  0  0  0  0  0  0  0  0  0
  196.6790  174.6330  136.8250 C   0  0  0  0  0  2  0  0  0  0  0  0
  199.1280  174.4590  136.2310 C   0  0  0  0  0  0  0  0  0  0  0  0
  197.9660  175.2370  136.5200 N   0  0  0  0  0  2  0  0  0  0  0  0
  200.2120  175.0380  135.9630 O   0  0  0  0  0  0  0  0  0  0  0  0
  199.0830  172.9680  136.2450 C   0  0  0  0  0  1  0  0  0  0  0  0
  1 10  1  0  0  0  0
  1 28  1  1  0  0  0
  2 23  1  6  0  0  0
  2 26  1  0  0  0  0
  3  4  1  0  0  0  0
  3 11  1  0  0  0  0
  5  6  1  0  0  0  0
  5 24  1  0  0  0  0
  6 18  1  0  0  0  0
  7 19  1  6  0  0  0
  7 23  1  0  0  0  0
  8 12  1  0  0  0  0
  9 25  1  6  0  0  0
  9 15  1  0  0  0  0
 11 13  2  0  0  0  0
 12  2  1  0  0  0  0
 13 12  1  0  0  0  0
 14 22  2  0  0  0  0
 14 26  1  0  0  0  0
 15 18  2  0  0  0  0
 16  1  1  0  0  0  0
 16 19  1  0  0  0  0
 17 10  1  1  0  0  0
 17  7  1  0  0  0  0
 17  8  1  0  0  0  0
 20  4  1  0  0  0  0
 21 20  1  1  0  0  0
 21 13  1  0  0  0  0
 21 14  1  0  0  0  0
 22 27  1  0  0  0  0
 26  5  2  0  0  0  0
 27  9  1  0  0  0  0
 27  6  2  0  0  0  0
 29 32  1  0  0  0  0
 29 30  1  0  0  0  0
 30 28  1  0  0  0  0
 31 29  2  0  0  0  0
M  END
>  <MODEL>
9

>  <REMARK>
 VINA RESULT:      -6.0      3.446      8.099
  Name = 
  2 active torsions:
  status: ('A' for Active; 'I' for Inactive)
    1  A    between atoms: C_2  and  C_24
    2  A    between atoms: N_10  and  C_24
                            x       y       z     vdW  Elec       q    Type
                         _______ _______ _______ _____ _____    ______ ____

>  <TORSDO>
F 2

$$$$
