=
 OpenBabel10272413283D

 32 36  0  0  1  0  0  0  0  0999 V2000
  187.0390  178.1970  142.0880 C   0  0  0  0  0  0  0  0  0  0  0  0
  186.3040  178.0170  146.8920 C   0  0  0  0  0  3  0  0  0  0  0  0
  184.9470  178.2820  146.7050 C   0  0  0  0  0  3  0  0  0  0  0  0
  185.1290  178.6560  140.5480 C   0  0  0  0  0  0  0  0  0  0  0  0
  183.7680  178.9250  140.3910 C   0  0  0  0  0  0  0  0  0  0  0  0
  189.1510  177.2320  141.2870 N   0  0  0  0  0  0  0  0  0  0  0  0
  188.8790  177.7410  143.5920 O   0  0  0  0  0  0  0  0  0  0  0  0
  181.6090  179.2790  141.1770 C   0  0  0  0  0  0  0  0  0  0  0  0
  187.1560  177.9330  145.7900 C   0  0  0  0  0  3  0  0  0  0  0  0
  187.5230  178.0270  143.3940 C   0  0  0  0  0  0  0  0  0  0  0  0
  186.6610  178.1130  144.4900 C   0  0  0  0  0  0  0  0  0  0  0  0
  184.7850  178.5610  142.9860 C   0  0  0  0  0  0  0  0  0  0  0  0
  181.5730  179.3950  139.5160 S   0  0  0  0  0  0  0  0  0  0  0  0
  189.8150  177.7010  142.5130 C   0  0  1  0  0  3  0  0  0  0  0  0
  183.1820  179.1140  139.1770 N   0  0  0  0  0  2  0  0  0  0  0  0
  184.4420  178.4630  145.4170 C   0  0  0  0  0  3  0  0  0  0  0  0
  185.2870  178.3810  144.2930 C   0  0  0  0  0  0  0  0  0  0  0  0
  183.4170  178.8310  142.7960 C   0  0  0  0  0  3  0  0  0  0  0  0
  188.0600  178.1610  140.9830 C   0  0  0  0  0  2  0  0  0  0  0  0
  185.9230  178.5720  139.4090 O   0  0  0  0  0  1  0  0  0  0  0  0
  180.6340  179.4110  141.9630 O   0  0  0  0  0  0  0  0  0  0  0  0
  185.6640  178.4710  141.8590 C   0  0  0  0  0  0  0  0  0  0  0  0
  182.9220  179.0100  141.5130 C   0  0  0  0  0  0  0  0  0  0  0  0
  191.5120  176.8270  144.0610 N   0  0  0  0  0  0  0  0  0  0  0  0
  190.9400  176.7810  142.9070 C   0  0  0  0  0  3  0  0  0  0  0  0
  191.1210  177.7550  145.0920 C   0  0  0  0  0  2  0  0  0  0  0  0
  190.5390  176.9930  146.2660 C   0  0  0  0  0  2  0  0  0  0  0  0
  191.6190  176.6140  147.2230 C   0  0  0  0  0  0  0  0  0  0  0  0
  192.3390  175.3210  147.0530 C   0  0  0  0  0  1  0  0  0  0  0  0
  191.9010  177.3490  148.1570 O   0  0  0  0  0  0  0  0  0  0  0  0
  189.4480  178.1600  139.0570 C   0  0  0  0  0  1  0  0  0  0  0  0
  190.0830  177.3530  140.1730 C   0  0  0  0  0  2  0  0  0  0  0  0
  1 10  1  0  0  0  0
  3  2  1  0  0  0  0
  4 22  1  0  0  0  0
  5  4  2  0  0  0  0
  5 23  1  0  0  0  0
  6 14  1  0  0  0  0
  8 23  1  0  0  0  0
  8 21  2  0  0  0  0
  9  2  2  0  0  0  0
 10  7  1  0  0  0  0
 10 11  2  0  0  0  0
 11  9  1  0  0  0  0
 12 17  2  0  0  0  0
 13  8  1  0  0  0  0
 14 25  1  1  0  0  0
 14  7  1  0  0  0  0
 15 13  1  0  0  0  0
 15  5  1  0  0  0  0
 16  3  2  0  0  0  0
 17 11  1  0  0  0  0
 17 16  1  0  0  0  0
 18 12  1  0  0  0  0
 19  6  1  0  0  0  0
 19  1  1  0  0  0  0
 20  4  1  0  0  0  0
 22  1  2  0  0  0  0
 22 12  1  0  0  0  0
 23 18  2  0  0  0  0
 24 26  1  0  0  0  0
 25 24  2  0  0  0  0
 26 27  1  0  0  0  0
 27 28  1  0  0  0  0
 28 30  2  0  0  0  0
 29 28  1  0  0  0  0
 31 32  1  0  0  0  0
 32  6  1  0  0  0  0
M  END
>  <MODEL>
1

>  <REMARK>
 VINA RESULT:     -10.2      0.000      0.000
  Name = 
  5 active torsions:
  status: ('A' for Active; 'I' for Inactive)
    1  A    between atoms: C_1  and  C_10
    2  A    between atoms: N_2  and  C_24
    3  A    between atoms: N_8  and  C_23
    4  A    between atoms: C_10  and  C_24
    5  A    between atoms: C_12  and  C_21
                            x       y       z     vdW  Elec       q    Type
                         _______ _______ _______ _____ _____    ______ ____

>  <TORSDO>
F 5

$$$$
=
 OpenBabel10272413283D

 32 36  0  0  1  0  0  0  0  0999 V2000
  188.6380  177.5850  141.7320 C   0  0  0  0  0  0  0  0  0  0  0  0
  184.0440  178.8880  142.6570 C   0  0  0  0  0  3  0  0  0  0  0  0
  184.2750  178.7670  144.0270 C   0  0  0  0  0  3  0  0  0  0  0  0
  190.1890  177.0560  143.6130 C   0  0  0  0  0  0  0  0  0  0  0  0
  190.3900  176.9370  144.9900 C   0  0  0  0  0  0  0  0  0  0  0  0
  189.4590  178.0740  139.4690 N   0  0  0  0  0  0  0  0  0  0  0  0
  187.1260  178.1130  139.9170 O   0  0  0  0  0  0  0  0  0  0  0  0
  189.7140  177.0420  147.2120 C   0  0  0  0  0  0  0  0  0  0  0  0
  185.0730  178.6220  141.7510 C   0  0  0  0  0  3  0  0  0  0  0  0
  187.3620  177.9680  141.2890 C   0  0  0  0  0  0  0  0  0  0  0  0
  186.3400  178.2320  142.2060 C   0  0  0  0  0  0  0  0  0  0  0  0
  187.8570  177.7170  144.0540 C   0  0  0  0  0  0  0  0  0  0  0  0
  191.3130  176.5770  147.1870 S   0  0  0  0  0  0  0  0  0  0  0  0
  188.1150  177.7990  138.9370 C   0  0  1  0  0  3  0  0  0  0  0  0
  191.5800  176.5680  145.5400 N   0  0  0  0  0  2  0  0  0  0  0  0
  185.5330  178.3790  144.4930 C   0  0  0  0  0  3  0  0  0  0  0  0
  186.5810  178.1080  143.5930 C   0  0  0  0  0  0  0  0  0  0  0  0
  188.0910  177.5910  145.4360 C   0  0  0  0  0  3  0  0  0  0  0  0
  189.6450  177.2500  140.6660 C   0  0  0  0  0  2  0  0  0  0  0  0
  191.2580  176.7890  142.7640 O   0  0  0  0  0  1  0  0  0  0  0  0
  188.9940  177.2100  148.2320 O   0  0  0  0  0  0  0  0  0  0  0  0
  188.9090  177.4470  143.1200 C   0  0  0  0  0  0  0  0  0  0  0  0
  189.3430  177.2050  145.8910 C   0  0  0  0  0  0  0  0  0  0  0  0
  187.2140  178.1690  136.6800 N   0  0  0  0  0  0  0  0  0  0  0  0
  187.8360  178.6280  137.7110 C   0  0  0  0  0  3  0  0  0  0  0  0
  186.7130  176.8200  136.6050 C   0  0  0  0  0  2  0  0  0  0  0  0
  185.2470  176.8440  136.2210 C   0  0  0  0  0  2  0  0  0  0  0  0
  184.3920  176.6870  137.4350 C   0  0  0  0  0  0  0  0  0  0  0  0
  184.0140  177.8860  138.2340 C   0  0  0  0  0  1  0  0  0  0  0  0
  184.0200  175.5790  137.7880 O   0  0  0  0  0  0  0  0  0  0  0  0
  190.8320  176.1660  138.8400 C   0  0  0  0  0  1  0  0  0  0  0  0
  190.4490  177.5960  138.5120 C   0  0  0  0  0  2  0  0  0  0  0  0
  1 22  1  0  0  0  0
  2  3  1  0  0  0  0
  3 16  2  0  0  0  0
  4  5  1  0  0  0  0
  5 15  1  0  0  0  0
  5 23  2  0  0  0  0
  6 19  1  0  0  0  0
  7 10  1  0  0  0  0
  8 21  2  0  0  0  0
  9 11  1  0  0  0  0
  9  2  2  0  0  0  0
 10  1  2  0  0  0  0
 10 11  1  0  0  0  0
 11 17  2  0  0  0  0
 12 18  2  0  0  0  0
 13  8  1  0  0  0  0
 14 25  1  6  0  0  0
 14  6  1  0  0  0  0
 14  7  1  0  0  0  0
 15 13  1  0  0  0  0
 17 12  1  0  0  0  0
 17 16  1  0  0  0  0
 18 23  1  0  0  0  0
 19  1  1  0  0  0  0
 20  4  1  0  0  0  0
 22  4  2  0  0  0  0
 22 12  1  0  0  0  0
 23  8  1  0  0  0  0
 24 25  2  0  0  0  0
 26 24  1  0  0  0  0
 27 26  1  0  0  0  0
 27 28  1  0  0  0  0
 28 30  2  0  0  0  0
 28 29  1  0  0  0  0
 32 31  1  0  0  0  0
 32  6  1  0  0  0  0
M  END
>  <MODEL>
2

>  <REMARK>
 VINA RESULT:     -10.1      3.101      7.283
  Name = 
  5 active torsions:
  status: ('A' for Active; 'I' for Inactive)
    1  A    between atoms: C_1  and  C_10
    2  A    between atoms: N_2  and  C_24
    3  A    between atoms: N_8  and  C_23
    4  A    between atoms: C_10  and  C_24
    5  A    between atoms: C_12  and  C_21
                            x       y       z     vdW  Elec       q    Type
                         _______ _______ _______ _____ _____    ______ ____

>  <TORSDO>
F 5

$$$$
=
 OpenBabel10272413283D

 32 36  0  0  1  0  0  0  0  0999 V2000
  188.3560  177.6610  141.9420 C   0  0  0  0  0  0  0  0  0  0  0  0
  183.7630  178.9120  142.9370 C   0  0  0  0  0  3  0  0  0  0  0  0
  184.0180  178.8040  144.3040 C   0  0  0  0  0  3  0  0  0  0  0  0
  189.9470  177.1660  143.8000 C   0  0  0  0  0  0  0  0  0  0  0  0
  190.1720  177.0610  145.1740 C   0  0  0  0  0  0  0  0  0  0  0  0
  189.1310  178.1430  139.6620 N   0  0  0  0  0  0  0  0  0  0  0  0
  186.8060  178.1560  140.1500 O   0  0  0  0  0  0  0  0  0  0  0  0
  189.5330  177.1730  147.4070 C   0  0  0  0  0  0  0  0  0  0  0  0
  184.7780  178.6520  142.0160 C   0  0  0  0  0  3  0  0  0  0  0  0
  187.0680  178.0240  141.5190 C   0  0  0  0  0  0  0  0  0  0  0  0
  186.0590  178.2820  142.4510 C   0  0  0  0  0  0  0  0  0  0  0  0
  187.6140  177.8010  144.2770 C   0  0  0  0  0  0  0  0  0  0  0  0
  191.1370  176.7290  147.3570 S   0  0  0  0  0  0  0  0  0  0  0  0
  187.7820  177.8470  139.1550 C   0  0  1  0  0  3  0  0  0  0  0  0
  191.3770  176.7110  145.7060 N   0  0  0  0  0  2  0  0  0  0  0  0
  185.2890  178.4360  144.7510 C   0  0  0  0  0  3  0  0  0  0  0  0
  186.3250  178.1710  143.8350 C   0  0  0  0  0  0  0  0  0  0  0  0
  187.8730  177.6880  145.6560 C   0  0  0  0  0  3  0  0  0  0  0  0
  189.3490  177.3310  140.8610 C   0  0  0  0  0  2  0  0  0  0  0  0
  191.0040  176.9070  142.9340 O   0  0  0  0  0  1  0  0  0  0  0  0
  188.8290  177.3390  148.4370 O   0  0  0  0  0  0  0  0  0  0  0  0
  188.6530  177.5370  143.3260 C   0  0  0  0  0  0  0  0  0  0  0  0
  189.1370  177.3220  146.0910 C   0  0  0  0  0  0  0  0  0  0  0  0
  186.6510  178.2720  137.0150 N   0  0  0  0  0  0  0  0  0  0  0  0
  187.4710  178.6640  137.9290 C   0  0  0  0  0  3  0  0  0  0  0  0
  185.9420  177.0190  137.0840 C   0  0  0  0  0  2  0  0  0  0  0  0
  186.5440  176.0400  136.0960 C   0  0  0  0  0  2  0  0  0  0  0  0
  187.1800  174.9010  136.8200 C   0  0  0  0  0  0  0  0  0  0  0  0
  186.3590  173.7220  137.2120 C   0  0  0  0  0  1  0  0  0  0  0  0
  188.3650  174.9390  137.1110 O   0  0  0  0  0  0  0  0  0  0  0  0
  190.8310  176.4540  139.2390 C   0  0  0  0  0  1  0  0  0  0  0  0
  190.1110  177.6720  138.6920 C   0  0  0  0  0  2  0  0  0  0  0  0
  1 22  1  0  0  0  0
  2  3  1  0  0  0  0
  3 16  2  0  0  0  0
  4  5  1  0  0  0  0
  5 15  1  0  0  0  0
  5 23  2  0  0  0  0
  6 19  1  0  0  0  0
  7 10  1  0  0  0  0
  8 21  2  0  0  0  0
  9 11  1  0  0  0  0
  9  2  2  0  0  0  0
 10  1  2  0  0  0  0
 10 11  1  0  0  0  0
 11 17  2  0  0  0  0
 12 18  2  0  0  0  0
 13  8  1  0  0  0  0
 14 25  1  6  0  0  0
 14  6  1  0  0  0  0
 14  7  1  0  0  0  0
 15 13  1  0  0  0  0
 17 12  1  0  0  0  0
 17 16  1  0  0  0  0
 18 23  1  0  0  0  0
 19  1  1  0  0  0  0
 20  4  1  0  0  0  0
 22  4  2  0  0  0  0
 22 12  1  0  0  0  0
 23  8  1  0  0  0  0
 24 26  1  0  0  0  0
 24 25  2  0  0  0  0
 27 28  1  0  0  0  0
 27 26  1  0  0  0  0
 28 30  2  0  0  0  0
 28 29  1  0  0  0  0
 32 31  1  0  0  0  0
 32  6  1  0  0  0  0
M  END
>  <MODEL>
3

>  <REMARK>
 VINA RESULT:     -10.1      3.277      7.060
  Name = 
  5 active torsions:
  status: ('A' for Active; 'I' for Inactive)
    1  A    between atoms: C_1  and  C_10
    2  A    between atoms: N_2  and  C_24
    3  A    between atoms: N_8  and  C_23
    4  A    between atoms: C_10  and  C_24
    5  A    between atoms: C_12  and  C_21
                            x       y       z     vdW  Elec       q    Type
                         _______ _______ _______ _____ _____    ______ ____

>  <TORSDO>
F 5

$$$$
=
 OpenBabel10272413283D

 32 36  0  0  1  0  0  0  0  0999 V2000
  187.8360  177.8850  142.2260 C   0  0  0  0  0  0  0  0  0  0  0  0
  183.2600  178.9800  143.4570 C   0  0  0  0  0  3  0  0  0  0  0  0
  183.5820  178.8530  144.8090 C   0  0  0  0  0  3  0  0  0  0  0  0
  189.5250  177.4020  143.9980 C   0  0  0  0  0  0  0  0  0  0  0  0
  189.8170  177.2770  145.3580 C   0  0  0  0  0  0  0  0  0  0  0  0
  188.4900  178.4330  139.9230 N   0  0  0  0  0  0  0  0  0  0  0  0
  186.1910  178.3670  140.5180 O   0  0  0  0  0  0  0  0  0  0  0  0
  189.2800  177.3280  147.6200 C   0  0  0  0  0  0  0  0  0  0  0  0
  184.2390  178.7680  142.4850 C   0  0  0  0  0  3  0  0  0  0  0  0
  186.5200  178.2180  141.8710 C   0  0  0  0  0  0  0  0  0  0  0  0
  185.5480  178.4280  142.8530 C   0  0  0  0  0  0  0  0  0  0  0  0
  187.2000  177.9580  144.5950 C   0  0  0  0  0  0  0  0  0  0  0  0
  190.8920  176.9320  147.4870 S   0  0  0  0  0  0  0  0  0  0  0  0
  187.1280  178.1070  139.4730 C   0  0  1  0  0  3  0  0  0  0  0  0
  191.0550  176.9530  145.8270 N   0  0  0  0  0  2  0  0  0  0  0  0
  184.8820  178.5150  145.1880 C   0  0  0  0  0  3  0  0  0  0  0  0
  185.8820  178.2980  144.2210 C   0  0  0  0  0  0  0  0  0  0  0  0
  187.5260  177.8270  145.9580 C   0  0  0  0  0  3  0  0  0  0  0  0
  188.7860  177.6050  141.0940 C   0  0  0  0  0  2  0  0  0  0  0  0
  190.5480  177.1910  143.0800 O   0  0  0  0  0  1  0  0  0  0  0  0
  188.6200  177.4530  148.6850 O   0  0  0  0  0  0  0  0  0  0  0  0
  188.2000  177.7440  143.5920 C   0  0  0  0  0  0  0  0  0  0  0  0
  188.8190  177.4900  146.3270 C   0  0  0  0  0  0  0  0  0  0  0  0
  185.9770  178.4950  137.3360 N   0  0  0  0  0  0  0  0  0  0  0  0
  186.7360  178.9370  138.2790 C   0  0  0  0  0  3  0  0  0  0  0  0
  185.4180  177.1670  137.3390 C   0  0  0  0  0  2  0  0  0  0  0  0
  183.9670  177.2270  136.9060 C   0  0  0  0  0  2  0  0  0  0  0  0
  183.1250  177.7960  137.9990 C   0  0  0  0  0  0  0  0  0  0  0  0
  183.1230  177.1540  139.3430 C   0  0  0  0  0  1  0  0  0  0  0  0
  182.4220  178.7720  137.7920 O   0  0  0  0  0  0  0  0  0  0  0  0
  189.8630  176.5770  139.1550 C   0  0  0  0  0  1  0  0  0  0  0  0
  189.4370  178.0090  138.8990 C   0  0  0  0  0  2  0  0  0  0  0  0
  1 22  1  0  0  0  0
  2  3  1  0  0  0  0
  3 16  2  0  0  0  0
  4  5  1  0  0  0  0
  5 15  1  0  0  0  0
  5 23  2  0  0  0  0
  6 19  1  0  0  0  0
  7 10  1  0  0  0  0
  8 21  2  0  0  0  0
  9 11  1  0  0  0  0
  9  2  2  0  0  0  0
 10  1  2  0  0  0  0
 10 11  1  0  0  0  0
 11 17  2  0  0  0  0
 12 18  2  0  0  0  0
 13  8  1  0  0  0  0
 14 25  1  6  0  0  0
 14  6  1  0  0  0  0
 14  7  1  0  0  0  0
 15 13  1  0  0  0  0
 17 12  1  0  0  0  0
 17 16  1  0  0  0  0
 18 23  1  0  0  0  0
 19  1  1  0  0  0  0
 20  4  1  0  0  0  0
 22  4  2  0  0  0  0
 22 12  1  0  0  0  0
 23  8  1  0  0  0  0
 24 26  1  0  0  0  0
 24 25  2  0  0  0  0
 27 26  1  0  0  0  0
 27 28  1  0  0  0  0
 28 29  1  0  0  0  0
 30 28  2  0  0  0  0
 32 31  1  0  0  0  0
 32  6  1  0  0  0  0
M  END
>  <MODEL>
4

>  <REMARK>
 VINA RESULT:      -9.9      2.933      7.239
  Name = 
  5 active torsions:
  status: ('A' for Active; 'I' for Inactive)
    1  A    between atoms: C_1  and  C_10
    2  A    between atoms: N_2  and  C_24
    3  A    between atoms: N_8  and  C_23
    4  A    between atoms: C_10  and  C_24
    5  A    between atoms: C_12  and  C_21
                            x       y       z     vdW  Elec       q    Type
                         _______ _______ _______ _____ _____    ______ ____

>  <TORSDO>
F 5

$$$$
=
 OpenBabel10272413283D

 32 36  0  0  1  0  0  0  0  0999 V2000
  187.2590  177.8380  142.2200 C   0  0  0  0  0  0  0  0  0  0  0  0
  183.2780  178.9870  144.7650 C   0  0  0  0  0  3  0  0  0  0  0  0
  183.9680  178.7790  145.9600 C   0  0  0  0  0  3  0  0  0  0  0  0
  189.3640  177.2150  143.4070 C   0  0  0  0  0  0  0  0  0  0  0  0
  190.0290  177.0090  144.6170 C   0  0  0  0  0  0  0  0  0  0  0  0
  187.2470  178.4920  139.8530 N   0  0  0  0  0  0  0  0  0  0  0  0
  185.2150  178.4560  141.0820 O   0  0  0  0  0  0  0  0  0  0  0  0
  190.1650  176.9530  146.9380 C   0  0  0  0  0  0  0  0  0  0  0  0
  183.9270  178.8020  143.5440 C   0  0  0  0  0  3  0  0  0  0  0  0
  185.9110  178.2250  142.2740 C   0  0  0  0  0  0  0  0  0  0  0  0
  185.2720  178.4070  143.5040 C   0  0  0  0  0  0  0  0  0  0  0  0
  187.3320  177.8000  144.6720 C   0  0  0  0  0  0  0  0  0  0  0  0
  191.6540  176.5220  146.3290 S   0  0  0  0  0  0  0  0  0  0  0  0
  185.8010  178.2260  139.8000 C   0  0  1  0  0  3  0  0  0  0  0  0
  191.3340  176.6270  144.6940 N   0  0  0  0  0  2  0  0  0  0  0  0
  185.3070  178.3870  145.9330 C   0  0  0  0  0  3  0  0  0  0  0  0
  185.9780  178.1950  144.7100 C   0  0  0  0  0  0  0  0  0  0  0  0
  188.0300  177.5870  145.8760 C   0  0  0  0  0  3  0  0  0  0  0  0
  187.8330  177.5940  140.8510 C   0  0  0  0  0  2  0  0  0  0  0  0
  190.0710  177.0260  142.2240 O   0  0  0  0  0  1  0  0  0  0  0  0
  189.8440  177.0380  148.1520 O   0  0  0  0  0  0  0  0  0  0  0  0
  187.9940  177.6130  143.4150 C   0  0  0  0  0  0  0  0  0  0  0  0
  189.3600  177.1960  145.8410 C   0  0  0  0  0  0  0  0  0  0  0  0
  184.0600  178.7860  138.1580 N   0  0  0  0  0  0  0  0  0  0  0  0
  185.1180  179.1300  138.8080 C   0  0  0  0  0  3  0  0  0  0  0  0
  183.4190  177.5060  138.3280 C   0  0  0  0  0  2  0  0  0  0  0  0
  181.9200  177.7010  138.4380 C   0  0  0  0  0  2  0  0  0  0  0  0
  181.5870  178.4590  139.6800 C   0  0  0  0  0  0  0  0  0  0  0  0
  180.8820  179.7680  139.5810 C   0  0  0  0  0  1  0  0  0  0  0  0
  181.9090  178.0240  140.7740 O   0  0  0  0  0  0  0  0  0  0  0  0
  188.9830  179.0360  138.2370 C   0  0  0  0  0  1  0  0  0  0  0  0
  187.8430  178.0980  138.5820 C   0  0  0  0  0  2  0  0  0  0  0  0
  1 10  2  0  0  0  0
  1 22  1  0  0  0  0
  2  3  1  0  0  0  0
  4 22  2  0  0  0  0
  4  5  1  0  0  0  0
  5 15  1  0  0  0  0
  5 23  2  0  0  0  0
  6 19  1  0  0  0  0
  7 10  1  0  0  0  0
  8 21  2  0  0  0  0
  9  2  2  0  0  0  0
 10 11  1  0  0  0  0
 11  9  1  0  0  0  0
 11 17  2  0  0  0  0
 12 17  1  0  0  0  0
 12 18  2  0  0  0  0
 13  8  1  0  0  0  0
 14 25  1  6  0  0  0
 14  6  1  0  0  0  0
 14  7  1  0  0  0  0
 15 13  1  0  0  0  0
 16  3  2  0  0  0  0
 17 16  1  0  0  0  0
 19  1  1  0  0  0  0
 20  4  1  0  0  0  0
 22 12  1  0  0  0  0
 23 18  1  0  0  0  0
 23  8  1  0  0  0  0
 24 26  1  0  0  0  0
 24 25  2  0  0  0  0
 26 27  1  0  0  0  0
 27 28  1  0  0  0  0
 28 30  2  0  0  0  0
 29 28  1  0  0  0  0
 31 32  1  0  0  0  0
 32  6  1  0  0  0  0
M  END
>  <MODEL>
5

>  <REMARK>
 VINA RESULT:      -9.6      2.668      7.390
  Name = 
  5 active torsions:
  status: ('A' for Active; 'I' for Inactive)
    1  A    between atoms: C_1  and  C_10
    2  A    between atoms: N_2  and  C_24
    3  A    between atoms: N_8  and  C_23
    4  A    between atoms: C_10  and  C_24
    5  A    between atoms: C_12  and  C_21
                            x       y       z     vdW  Elec       q    Type
                         _______ _______ _______ _____ _____    ______ ____

>  <TORSDO>
F 5

$$$$
=
 OpenBabel10272413283D

 32 36  0  0  1  0  0  0  0  0999 V2000
  186.0320  178.3250  142.6120 C   0  0  0  0  0  0  0  0  0  0  0  0
  189.6870  177.7520  139.4560 C   0  0  0  0  0  3  0  0  0  0  0  0
  190.5630  177.4700  140.5050 C   0  0  0  0  0  3  0  0  0  0  0  0
  186.4360  178.0380  145.0580 C   0  0  0  0  0  0  0  0  0  0  0  0
  187.3350  177.7570  146.0880 C   0  0  0  0  0  0  0  0  0  0  0  0
  183.7700  178.2840  141.6560 N   0  0  0  0  0  0  0  0  0  0  0  0
  185.6510  178.5880  140.2360 O   0  0  0  0  0  0  0  0  0  0  0  0
  189.4320  177.2190  146.9360 C   0  0  0  0  0  0  0  0  0  0  0  0
  188.3470  178.0360  139.7240 C   0  0  0  0  0  3  0  0  0  0  0  0
  186.5250  178.3260  141.2980 C   0  0  0  0  0  0  0  0  0  0  0  0
  187.8690  178.0400  141.0420 C   0  0  0  0  0  0  0  0  0  0  0  0
  188.2710  177.7550  143.4370 C   0  0  0  0  0  0  0  0  0  0  0  0
  188.3820  177.3520  148.2210 S   0  0  0  0  0  0  0  0  0  0  0  0
  184.2840  178.9440  140.4450 C   0  0  1  0  0  3  0  0  0  0  0  0
  186.9780  177.7330  147.4020 N   0  0  0  0  0  2  0  0  0  0  0  0
  190.0990  177.4700  141.8210 C   0  0  0  0  0  3  0  0  0  0  0  0
  188.7500  177.7540  142.1100 C   0  0  0  0  0  0  0  0  0  0  0  0
  189.1530  177.4730  144.4980 C   0  0  0  0  0  3  0  0  0  0  0  0
  184.5900  178.7190  142.7880 C   0  0  0  0  0  2  0  0  0  0  0  0
  185.1110  178.3000  145.3900 O   0  0  0  0  0  1  0  0  0  0  0  0
  190.6590  176.9390  146.9920 O   0  0  0  0  0  0  0  0  0  0  0  0
  186.8940  178.0450  143.7060 C   0  0  0  0  0  0  0  0  0  0  0  0
  188.6840  177.4770  145.8030 C   0  0  0  0  0  0  0  0  0  0  0  0
  182.7970  179.3530  138.5310 N   0  0  0  0  0  0  0  0  0  0  0  0
  183.5030  178.5290  139.2260 C   0  0  0  0  0  3  0  0  0  0  0  0
  182.6970  180.7560  138.8460 C   0  0  0  0  0  2  0  0  0  0  0  0
  181.2460  181.1890  138.7720 C   0  0  0  0  0  2  0  0  0  0  0  0
  181.0420  182.1180  137.6220 C   0  0  0  0  0  0  0  0  0  0  0  0
  180.4960  181.5970  136.3380 C   0  0  0  0  0  1  0  0  0  0  0  0
  181.3400  183.2980  137.7210 O   0  0  0  0  0  0  0  0  0  0  0  0
  182.3060  179.1370  143.4020 C   0  0  0  0  0  1  0  0  0  0  0  0
  182.4300  178.7880  141.9320 C   0  0  0  0  0  2  0  0  0  0  0  0
  1 19  1  0  0  0  0
  1 22  1  0  0  0  0
  2  9  2  0  0  0  0
  2  3  1  0  0  0  0
  3 16  2  0  0  0  0
  4 20  1  0  0  0  0
  4  5  1  0  0  0  0
  5 15  1  0  0  0  0
  6 32  1  0  0  0  0
  6 19  1  0  0  0  0
  7 14  1  0  0  0  0
  7 10  1  0  0  0  0
  8 21  2  0  0  0  0
  8 13  1  0  0  0  0
  9 11  1  0  0  0  0
 10  1  2  0  0  0  0
 11 10  1  0  0  0  0
 11 17  2  0  0  0  0
 12 22  1  0  0  0  0
 12 18  2  0  0  0  0
 14 25  1  6  0  0  0
 14  6  1  0  0  0  0
 15 13  1  0  0  0  0
 16 17  1  0  0  0  0
 17 12  1  0  0  0  0
 18 23  1  0  0  0  0
 22  4  2  0  0  0  0
 23  5  2  0  0  0  0
 23  8  1  0  0  0  0
 24 26  1  0  0  0  0
 24 25  2  0  0  0  0
 27 26  1  0  0  0  0
 28 30  2  0  0  0  0
 28 27  1  0  0  0  0
 29 28  1  0  0  0  0
 32 31  1  0  0  0  0
M  END
>  <MODEL>
6

>  <REMARK>
 VINA RESULT:      -9.6      3.110      8.665
  Name = 
  5 active torsions:
  status: ('A' for Active; 'I' for Inactive)
    1  A    between atoms: C_1  and  C_10
    2  A    between atoms: N_2  and  C_24
    3  A    between atoms: N_8  and  C_23
    4  A    between atoms: C_10  and  C_24
    5  A    between atoms: C_12  and  C_21
                            x       y       z     vdW  Elec       q    Type
                         _______ _______ _______ _____ _____    ______ ____

>  <TORSDO>
F 5

$$$$
=
 OpenBabel10272413283D

 32 36  0  0  1  0  0  0  0  0999 V2000
  186.2710  178.3050  141.2580 C   0  0  0  0  0  0  0  0  0  0  0  0
  187.9150  177.5090  145.7650 C   0  0  0  0  0  3  0  0  0  0  0  0
  186.6310  177.6910  146.2770 C   0  0  0  0  0  3  0  0  0  0  0  0
  183.8540  178.7960  140.8780 C   0  0  0  0  0  0  0  0  0  0  0  0
  182.5800  178.9780  141.4190 C   0  0  0  0  0  0  0  0  0  0  0  0
  187.7570  177.6020  139.4320 N   0  0  0  0  0  0  0  0  0  0  0  0
  188.6110  177.8150  141.6390 O   0  0  0  0  0  0  0  0  0  0  0  0
  181.0520  179.0750  143.1690 C   0  0  0  0  0  0  0  0  0  0  0  0
  188.1400  177.6200  144.3920 C   0  0  0  0  0  3  0  0  0  0  0  0
  187.3210  178.0200  142.1440 C   0  0  0  0  0  0  0  0  0  0  0  0
  187.0840  177.9120  143.5180 C   0  0  0  0  0  0  0  0  0  0  0  0
  184.7140  178.3910  143.1520 C   0  0  0  0  0  0  0  0  0  0  0  0
  180.2280  179.3810  141.7550 S   0  0  0  0  0  0  0  0  0  0  0  0
  188.9200  177.9720  140.2540 C   0  0  1  0  0  3  0  0  0  0  0  0
  181.4840  179.2640  140.6620 N   0  0  0  0  0  2  0  0  0  0  0  0
  185.5700  177.9830  145.4170 C   0  0  0  0  0  3  0  0  0  0  0  0
  185.7790  178.0970  144.0290 C   0  0  0  0  0  0  0  0  0  0  0  0
  183.4170  178.5770  143.6660 C   0  0  0  0  0  3  0  0  0  0  0  0
  186.6430  178.4750  139.8100 C   0  0  0  0  0  2  0  0  0  0  0  0
  184.0100  178.9060  139.5000 O   0  0  0  0  0  1  0  0  0  0  0  0
  180.5680  179.0400  144.3310 O   0  0  0  0  0  0  0  0  0  0  0  0
  184.9500  178.5000  141.7430 C   0  0  0  0  0  0  0  0  0  0  0  0
  182.3690  178.8680  142.8060 C   0  0  0  0  0  0  0  0  0  0  0  0
  191.1780  177.0900  140.6560 N   0  0  0  0  0  0  0  0  0  0  0  0
  190.1070  177.1000  139.9400 C   0  0  0  0  0  3  0  0  0  0  0  0
  191.3390  177.9040  141.8350 C   0  0  0  0  0  2  0  0  0  0  0  0
  191.6560  177.0170  143.0230 C   0  0  0  0  0  2  0  0  0  0  0  0
  191.6050  177.8090  144.2870 C   0  0  0  0  0  0  0  0  0  0  0  0
  191.5020  179.2940  144.2260 C   0  0  0  0  0  1  0  0  0  0  0  0
  191.6690  177.2480  145.3690 O   0  0  0  0  0  0  0  0  0  0  0  0
  186.7590  178.2770  137.3180 C   0  0  0  0  0  1  0  0  0  0  0  0
  188.0450  177.9220  138.0400 C   0  0  0  0  0  2  0  0  0  0  0  0
  1 22  2  0  0  0  0
  1 10  1  0  0  0  0
  2  3  1  0  0  0  0
  4  5  2  0  0  0  0
  4 22  1  0  0  0  0
  5 23  1  0  0  0  0
  6 19  1  0  0  0  0
  6 14  1  0  0  0  0
  7 10  1  0  0  0  0
  8 21  2  0  0  0  0
  9  2  2  0  0  0  0
 10 11  2  0  0  0  0
 11 17  1  0  0  0  0
 11  9  1  0  0  0  0
 12 18  1  0  0  0  0
 12 17  2  0  0  0  0
 13  8  1  0  0  0  0
 14 25  1  6  0  0  0
 14  7  1  0  0  0  0
 15  5  1  0  0  0  0
 15 13  1  0  0  0  0
 16  3  2  0  0  0  0
 17 16  1  0  0  0  0
 19  1  1  0  0  0  0
 20  4  1  0  0  0  0
 22 12  1  0  0  0  0
 23  8  1  0  0  0  0
 23 18  2  0  0  0  0
 24 26  1  0  0  0  0
 25 24  2  0  0  0  0
 26 27  1  0  0  0  0
 27 28  1  0  0  0  0
 28 30  2  0  0  0  0
 29 28  1  0  0  0  0
 31 32  1  0  0  0  0
 32  6  1  0  0  0  0
M  END
>  <MODEL>
7

>  <REMARK>
 VINA RESULT:      -9.5      1.750      2.333
  Name = 
  5 active torsions:
  status: ('A' for Active; 'I' for Inactive)
    1  A    between atoms: C_1  and  C_10
    2  A    between atoms: N_2  and  C_24
    3  A    between atoms: N_8  and  C_23
    4  A    between atoms: C_10  and  C_24
    5  A    between atoms: C_12  and  C_21
                            x       y       z     vdW  Elec       q    Type
                         _______ _______ _______ _____ _____    ______ ____

>  <TORSDO>
F 5

$$$$
=
 OpenBabel10272413283D

 32 36  0  0  1  0  0  0  0  0999 V2000
  186.5290  178.3100  142.7680 C   0  0  0  0  0  0  0  0  0  0  0  0
  190.4920  177.4740  140.0750 C   0  0  0  0  0  3  0  0  0  0  0  0
  191.2410  177.2440  141.2290 C   0  0  0  0  0  3  0  0  0  0  0  0
  186.6580  178.1740  145.2560 C   0  0  0  0  0  0  0  0  0  0  0  0
  187.4330  177.9440  146.3950 C   0  0  0  0  0  0  0  0  0  0  0  0
  184.3850  178.2460  141.5730 N   0  0  0  0  0  0  0  0  0  0  0  0
  186.4160  178.4270  140.3530 O   0  0  0  0  0  0  0  0  0  0  0  0
  189.4120  177.4250  147.5000 C   0  0  0  0  0  0  0  0  0  0  0  0
  189.1380  177.7970  140.1760 C   0  0  0  0  0  3  0  0  0  0  0  0
  187.1620  178.2180  141.5190 C   0  0  0  0  0  0  0  0  0  0  0  0
  188.5190  177.8940  141.4300 C   0  0  0  0  0  0  0  0  0  0  0  0
  188.6510  177.7560  143.8680 C   0  0  0  0  0  0  0  0  0  0  0  0
  188.2320  177.6580  148.6510 S   0  0  0  0  0  0  0  0  0  0  0  0
  185.0430  178.8190  140.3880 C   0  0  1  0  0  3  0  0  0  0  0  0
  186.9350  178.0090  147.6610 N   0  0  0  0  0  2  0  0  0  0  0  0
  190.6370  177.3370  142.4840 C   0  0  0  0  0  3  0  0  0  0  0  0
  189.2720  177.6620  142.6040 C   0  0  0  0  0  0  0  0  0  0  0  0
  189.4060  177.5280  145.0350 C   0  0  0  0  0  3  0  0  0  0  0  0
  185.0880  178.7390  142.7590 C   0  0  0  0  0  2  0  0  0  0  0  0
  185.3120  178.4780  145.4240 O   0  0  0  0  0  1  0  0  0  0  0  0
  190.6180  177.1280  147.7080 O   0  0  0  0  0  0  0  0  0  0  0  0
  187.2610  178.0860  143.9650 C   0  0  0  0  0  0  0  0  0  0  0  0
  188.7980  177.6230  146.2780 C   0  0  0  0  0  0  0  0  0  0  0  0
  185.0600  177.9450  138.0910 N   0  0  0  0  0  0  0  0  0  0  0  0
  184.3900  178.3390  139.1190 C   0  0  0  0  0  3  0  0  0  0  0  0
  186.5010  177.9110  138.0620 C   0  0  0  0  0  2  0  0  0  0  0  0
  186.9990  178.6340  136.8260 C   0  0  0  0  0  2  0  0  0  0  0  0
  188.4830  178.7880  136.8810 C   0  0  0  0  0  0  0  0  0  0  0  0
  189.3590  177.6880  136.3890 C   0  0  0  0  0  1  0  0  0  0  0  0
  188.9820  179.8000  137.3470 O   0  0  0  0  0  0  0  0  0  0  0  0
  182.5870  178.7990  143.1170 C   0  0  0  0  0  1  0  0  0  0  0  0
  183.0350  178.7900  141.6680 C   0  0  0  0  0  2  0  0  0  0  0  0
  1 22  1  0  0  0  0
  2  9  2  0  0  0  0
  2  3  1  0  0  0  0
  3 16  2  0  0  0  0
  4 20  1  0  0  0  0
  4  5  1  0  0  0  0
  5 15  1  0  0  0  0
  6 32  1  0  0  0  0
  6 19  1  0  0  0  0
  7 14  1  0  0  0  0
  7 10  1  0  0  0  0
  8 21  2  0  0  0  0
  8 13  1  0  0  0  0
  9 11  1  0  0  0  0
 10  1  2  0  0  0  0
 11 10  1  0  0  0  0
 11 17  2  0  0  0  0
 12 22  1  0  0  0  0
 12 18  2  0  0  0  0
 14 25  1  6  0  0  0
 14  6  1  0  0  0  0
 15 13  1  0  0  0  0
 16 17  1  0  0  0  0
 17 12  1  0  0  0  0
 18 23  1  0  0  0  0
 19  1  1  0  0  0  0
 22  4  2  0  0  0  0
 23  5  2  0  0  0  0
 23  8  1  0  0  0  0
 24 25  2  0  0  0  0
 26 24  1  0  0  0  0
 27 28  1  0  0  0  0
 27 26  1  0  0  0  0
 28 30  2  0  0  0  0
 29 28  1  0  0  0  0
 32 31  1  0  0  0  0
M  END
>  <MODEL>
8

>  <REMARK>
 VINA RESULT:      -9.3      3.065      7.596
  Name = 
  5 active torsions:
  status: ('A' for Active; 'I' for Inactive)
    1  A    between atoms: C_1  and  C_10
    2  A    between atoms: N_2  and  C_24
    3  A    between atoms: N_8  and  C_23
    4  A    between atoms: C_10  and  C_24
    5  A    between atoms: C_12  and  C_21
                            x       y       z     vdW  Elec       q    Type
                         _______ _______ _______ _____ _____    ______ ____

>  <TORSDO>
F 5

$$$$
=
 OpenBabel10272413283D

 32 36  0  0  1  0  0  0  0  0999 V2000
  186.2920  178.1950  141.4170 C   0  0  0  0  0  0  0  0  0  0  0  0
  183.2380  178.9850  145.1190 C   0  0  0  0  0  3  0  0  0  0  0  0
  184.2490  178.6830  146.0310 C   0  0  0  0  0  3  0  0  0  0  0  0
  188.6510  177.5210  141.8660 C   0  0  0  0  0  0  0  0  0  0  0  0
  189.6430  177.2180  142.8020 C   0  0  0  0  0  0  0  0  0  0  0  0
  185.5840  179.0720  139.2340 N   0  0  0  0  0  0  0  0  0  0  0  0
  184.0030  178.8620  140.9960 O   0  0  0  0  0  0  0  0  0  0  0  0
  190.4560  176.9440  144.9620 C   0  0  0  0  0  0  0  0  0  0  0  0
  183.4980  178.9350  143.7490 C   0  0  0  0  0  3  0  0  0  0  0  0
  185.0200  178.5380  141.9020 C   0  0  0  0  0  0  0  0  0  0  0  0
  184.7710  178.5840  143.2770 C   0  0  0  0  0  0  0  0  0  0  0  0
  187.0830  177.9250  143.7230 C   0  0  0  0  0  0  0  0  0  0  0  0
  191.6990  176.6150  143.9040 S   0  0  0  0  0  0  0  0  0  0  0  0
  184.1860  178.7730  139.5820 C   0  0  1  0  0  3  0  0  0  0  0  0
  190.9120  176.8670  142.4540 N   0  0  0  0  0  2  0  0  0  0  0  0
  185.5210  178.3320  145.5740 C   0  0  0  0  0  3  0  0  0  0  0  0
  185.8010  178.2770  144.1950 C   0  0  0  0  0  0  0  0  0  0  0  0
  188.1050  177.6170  144.6420 C   0  0  0  0  0  3  0  0  0  0  0  0
  186.4360  178.1000  139.9220 C   0  0  0  0  0  2  0  0  0  0  0  0
  188.9780  177.4660  140.5150 O   0  0  0  0  0  1  0  0  0  0  0  0
  190.5080  176.9040  146.2200 O   0  0  0  0  0  0  0  0  0  0  0  0
  187.3450  177.8780  142.3160 C   0  0  0  0  0  0  0  0  0  0  0  0
  189.3640  177.2690  144.1800 C   0  0  0  0  0  0  0  0  0  0  0  0
  182.2420  179.3800  138.2060 N   0  0  0  0  0  0  0  0  0  0  0  0
  183.2430  179.7490  138.9290 C   0  0  0  0  0  3  0  0  0  0  0  0
  181.9210  177.9960  137.9620 C   0  0  0  0  0  2  0  0  0  0  0  0
  180.8570  177.5430  138.9420 C   0  0  0  0  0  2  0  0  0  0  0  0
  181.2300  176.2260  139.5390 C   0  0  0  0  0  0  0  0  0  0  0  0
  180.1710  175.3390  140.0940 C   0  0  0  0  0  1  0  0  0  0  0  0
  182.4010  175.8830  139.5930 O   0  0  0  0  0  0  0  0  0  0  0  0
  186.1180  177.3580  137.5930 C   0  0  0  0  0  1  0  0  0  0  0  0
  185.7780  178.8190  137.8120 C   0  0  0  0  0  2  0  0  0  0  0  0
  1 10  2  0  0  0  0
  1 22  1  0  0  0  0
  2  3  1  0  0  0  0
  4 22  2  0  0  0  0
  4  5  1  0  0  0  0
  5 23  2  0  0  0  0
  6 14  1  0  0  0  0
  6 19  1  0  0  0  0
  7 10  1  0  0  0  0
  8 21  2  0  0  0  0
  9  2  2  0  0  0  0
 10 11  1  0  0  0  0
 11  9  1  0  0  0  0
 11 17  2  0  0  0  0
 12 17  1  0  0  0  0
 12 18  2  0  0  0  0
 13  8  1  0  0  0  0
 14 25  1  6  0  0  0
 14  7  1  0  0  0  0
 15  5  1  0  0  0  0
 15 13  1  0  0  0  0
 16  3  2  0  0  0  0
 17 16  1  0  0  0  0
 19  1  1  0  0  0  0
 20  4  1  0  0  0  0
 22 12  1  0  0  0  0
 23 18  1  0  0  0  0
 23  8  1  0  0  0  0
 24 25  2  0  0  0  0
 26 24  1  0  0  0  0
 26 27  1  0  0  0  0
 27 28  1  0  0  0  0
 28 30  2  0  0  0  0
 28 29  1  0  0  0  0
 31 32  1  0  0  0  0
 32  6  1  0  0  0  0
M  END
>  <MODEL>
9

>  <REMARK>
 VINA RESULT:      -9.1      2.913      7.487
  Name = 
  5 active torsions:
  status: ('A' for Active; 'I' for Inactive)
    1  A    between atoms: C_1  and  C_10
    2  A    between atoms: N_2  and  C_24
    3  A    between atoms: N_8  and  C_23
    4  A    between atoms: C_10  and  C_24
    5  A    between atoms: C_12  and  C_21
                            x       y       z     vdW  Elec       q    Type
                         _______ _______ _______ _____ _____    ______ ____

>  <TORSDO>
F 5

$$$$
