=
 OpenBabel10272413423D

 30 35  0  0  1  0  0  0  0  0999 V2000
  187.5550  177.3060  140.7100 C   0  0  1  0  0  3  0  0  0  0  0  0
  188.4700  177.0790  141.8980 C   0  0  1  0  0  0  0  0  0  0  0  0
  186.7080  178.5570  140.9350 C   0  0  0  0  0  2  0  0  0  0  0  0
  185.7220  177.9800  144.5310 C   0  0  0  0  0  2  0  0  0  0  0  0
  190.2420  176.6440  144.0850 C   0  0  1  0  0  3  0  0  0  0  0  0
  186.7210  178.0460  143.3930 C   0  0  2  0  0  3  0  0  0  0  0  0
  184.7530  179.1380  142.5340 C   0  0  0  0  0  2  0  0  0  0  0  0
  190.7190  177.6220  143.0230 C   0  0  2  0  0  3  0  0  0  0  0  0
  185.8610  178.1870  142.1440 C   0  0  1  0  0  3  0  0  0  0  0  0
  187.7980  176.9310  143.2960 C   0  0  2  0  0  3  0  0  0  0  0  0
  191.3410  178.7770  143.7670 C   0  0  0  0  0  2  0  0  0  0  0  0
  191.2270  176.8150  145.2340 C   0  0  0  0  0  2  0  0  0  0  0  0
  183.6840  179.2150  144.6670 O   0  0  0  0  0  0  0  0  0  0  0  0
  184.6160  178.8210  143.9870 C   0  0  0  0  0  0  0  0  0  0  0  0
  188.7710  177.2880  139.7750 C   0  0  1  0  0  0  0  0  0  0  0  0
  189.6810  176.9400  140.9830 C   0  0  1  0  0  3  0  0  0  0  0  0
  189.6660  178.0440  141.9980 C   0  0  1  0  0  3  0  0  0  0  0  0
  191.9410  178.1460  145.0130 C   0  0  0  0  0  2  0  0  0  0  0  0
  188.6620  178.1290  145.4380 C   0  0  0  0  0  1  0  0  0  0  0  0
  188.7840  176.9140  144.5070 C   0  0  2  0  0  3  0  0  0  0  0  0
  188.6550  176.1330  138.7470 C   0  0  2  0  0  3  0  0  0  0  0  0
  189.9070  175.9170  137.9450 C   0  0  0  0  0  3  0  0  0  0  0  0
  190.7430  175.1040  138.3070 O   0  0  0  0  0  0  0  0  0  0  0  0
  187.4760  176.3070  137.8010 C   0  0  0  0  0  2  0  0  0  0  0  0
  187.6000  175.4230  136.7300 O   0  0  0  0  0  1  0  0  0  0  0  0
  189.0000  178.6560  139.0770 C   0  0  0  0  0  2  0  0  0  0  0  0
  189.6590  178.6050  137.6980 C   0  0  0  0  0  2  0  0  0  0  0  0
  188.6950  178.9040  136.6040 C   0  0  0  0  0  0  0  0  0  0  0  0
  188.8900  178.4040  135.3930 C   0  0  0  0  0  2  0  0  0  0  0  0
  187.5990  179.7210  136.8450 O   0  0  0  0  0  1  0  0  0  0  0  0
  1  3  1  1  0  0  0
  1  2  1  0  0  0  0
  2 17  1  0  0  0  0
  2 10  1  0  0  0  0
  3  9  1  0  0  0  0
  5 20  1  0  0  0  0
  5 12  1  0  0  0  0
  6  4  1  0  0  0  0
  7 14  1  0  0  0  0
  8 11  1  0  0  0  0
  8  5  1  0  0  0  0
  9  7  1  0  0  0  0
  9  6  1  0  0  0  0
 10  6  1  0  0  0  0
 10 20  1  0  0  0  0
 11 18  1  0  0  0  0
 14  4  1  0  0  0  0
 14 13  2  0  0  0  0
 15  1  1  0  0  0  0
 15 16  1  0  0  0  0
 16  2  1  0  0  0  0
 16 17  1  0  0  0  0
 17  8  1  0  0  0  0
 18 12  1  0  0  0  0
 20 19  1  0  0  0  0
 21 15  1  0  0  0  0
 22 23  2  0  0  0  0
 22 21  1  0  0  0  0
 24 21  1  0  0  0  0
 25 24  1  0  0  0  0
 26 15  1  0  0  0  0
 27 26  1  0  0  0  0
 28 30  1  0  0  0  0
 28 27  1  0  0  0  0
 29 28  2  0  0  0  0
M  END
>  <MODEL>
1

>  <REMARK>
 VINA RESULT:      -6.6      0.000      0.000
  Name = 
  6 active torsions:
  status: ('A' for Active; 'I' for Inactive)
    1  A    between atoms: C_2  and  C_14
    2  A    between atoms: C_3  and  C_19
    3  A    between atoms: C_14  and  C_20
    4  A    between atoms: C_14  and  C_22
    5  A    between atoms: C_19  and  C_29
    6  A    between atoms: C_22  and  C_29
                            x       y       z     vdW  Elec       q    Type
                         _______ _______ _______ _____ _____    ______ ____

>  <TORSDO>
F 6

$$$$
=
 OpenBabel10272413423D

 30 35  0  0  1  0  0  0  0  0999 V2000
  191.3660  176.5070  137.9590 C   0  0  1  0  0  3  0  0  0  0  0  0
  190.2090  176.9940  137.1050 C   0  0  1  0  0  0  0  0  0  0  0  0
  190.8380  175.9090  139.2610 C   0  0  0  0  0  2  0  0  0  0  0  0
  188.2710  178.5330  140.1350 C   0  0  0  0  0  2  0  0  0  0  0  0
  188.0660  177.8740  135.4510 C   0  0  1  0  0  3  0  0  0  0  0  0
  188.9550  177.5680  139.1860 C   0  0  2  0  0  3  0  0  0  0  0  0
  189.7210  176.9110  141.3740 C   0  0  0  0  0  2  0  0  0  0  0  0
  188.4160  176.3980  135.3600 C   0  0  2  0  0  3  0  0  0  0  0  0
  190.1880  177.1000  139.9490 C   0  0  1  0  0  3  0  0  0  0  0  0
  189.2530  178.0480  137.7390 C   0  0  2  0  0  3  0  0  0  0  0  0
  187.1030  175.6580  135.3220 C   0  0  0  0  0  2  0  0  0  0  0  0
  186.7470  178.0030  134.6980 C   0  0  0  0  0  2  0  0  0  0  0  0
  188.1380  178.2940  142.5060 O   0  0  0  0  0  0  0  0  0  0  0  0
  188.6530  177.9510  141.4540 C   0  0  0  0  0  0  0  0  0  0  0  0
  191.8570  175.6420  136.7910 C   0  0  1  0  0  0  0  0  0  0  0  0
  190.7380  176.2360  135.8940 C   0  0  1  0  0  3  0  0  0  0  0  0
  189.3820  175.8850  136.4290 C   0  0  1  0  0  3  0  0  0  0  0  0
  186.1580  176.5980  134.5910 C   0  0  0  0  0  2  0  0  0  0  0  0
  186.6590  177.9100  137.5840 C   0  0  0  0  0  1  0  0  0  0  0  0
  187.9640  178.3570  136.9120 C   0  0  2  0  0  3  0  0  0  0  0  0
  193.2810  176.0700  136.3530 C   0  0  2  0  0  3  0  0  0  0  0  0
  193.4860  176.0350  134.8640 C   0  0  0  0  0  3  0  0  0  0  0  0
  194.1070  175.1200  134.3460 O   0  0  0  0  0  0  0  0  0  0  0  0
  194.3720  175.2540  137.0300 C   0  0  0  0  0  2  0  0  0  0  0  0
  194.5870  175.7380  138.3190 O   0  0  0  0  0  1  0  0  0  0  0  0
  191.7870  174.1240  137.1100 C   0  0  0  0  0  2  0  0  0  0  0  0
  191.4210  173.2080  135.9410 C   0  0  0  0  0  2  0  0  0  0  0  0
  192.5260  172.2740  135.5920 C   0  0  0  0  0  0  0  0  0  0  0  0
  192.5560  171.6970  134.4010 C   0  0  0  0  0  2  0  0  0  0  0  0
  193.5190  171.9920  136.5210 O   0  0  0  0  0  1  0  0  0  0  0  0
  1  3  1  1  0  0  0
  2 10  1  0  0  0  0
  2  1  1  0  0  0  0
  3  9  1  0  0  0  0
  4 14  1  0  0  0  0
  5 20  1  0  0  0  0
  6  9  1  0  0  0  0
  6  4  1  0  0  0  0
  7 14  1  0  0  0  0
  8  5  1  0  0  0  0
  8 17  1  0  0  0  0
  9  7  1  0  0  0  0
 10  6  1  0  0  0  0
 11  8  1  0  0  0  0
 12  5  1  0  0  0  0
 14 13  2  0  0  0  0
 15 26  1  0  0  0  0
 15  1  1  0  0  0  0
 16 17  1  0  0  0  0
 16 15  1  0  0  0  0
 16  2  1  0  0  0  0
 17  2  1  0  0  0  0
 18 12  1  0  0  0  0
 18 11  1  0  0  0  0
 20 19  1  0  0  0  0
 20 10  1  0  0  0  0
 21 15  1  0  0  0  0
 21 24  1  0  0  0  0
 22 21  1  0  0  0  0
 23 22  2  0  0  0  0
 24 25  1  0  0  0  0
 27 26  1  0  0  0  0
 28 27  1  0  0  0  0
 28 30  1  0  0  0  0
 29 28  2  0  0  0  0
M  END
>  <MODEL>
2

>  <REMARK>
 VINA RESULT:      -6.6      3.180      6.964
  Name = 
  6 active torsions:
  status: ('A' for Active; 'I' for Inactive)
    1  A    between atoms: C_2  and  C_14
    2  A    between atoms: C_3  and  C_19
    3  A    between atoms: C_14  and  C_20
    4  A    between atoms: C_14  and  C_22
    5  A    between atoms: C_19  and  C_29
    6  A    between atoms: C_22  and  C_29
                            x       y       z     vdW  Elec       q    Type
                         _______ _______ _______ _____ _____    ______ ____

>  <TORSDO>
F 6

$$$$
=
 OpenBabel10272413423D

 30 35  0  0  1  0  0  0  0  0999 V2000
  187.6140  177.3500  142.9890 C   0  0  1  0  0  3  0  0  0  0  0  0
  187.5710  177.2200  144.5000 C   0  0  1  0  0  0  0  0  0  0  0  0
  186.9110  178.6340  142.5540 C   0  0  0  0  0  2  0  0  0  0  0  0
  183.8600  178.4310  144.7650 C   0  0  0  0  0  2  0  0  0  0  0  0
  187.5560  176.9660  147.3370 C   0  0  1  0  0  3  0  0  0  0  0  0
  185.3520  178.3650  144.5040 C   0  0  2  0  0  3  0  0  0  0  0  0
  184.4380  179.4070  142.5330 C   0  0  0  0  0  2  0  0  0  0  0  0
  188.6640  177.8260  146.7490 C   0  0  2  0  0  3  0  0  0  0  0  0
  185.4710  178.4000  142.9850 C   0  0  1  0  0  3  0  0  0  0  0  0
  186.1660  177.2240  145.1740 C   0  0  2  0  0  3  0  0  0  0  0  0
  188.7740  179.0350  147.6430 C   0  0  0  0  0  2  0  0  0  0  0  0
  187.6210  177.2280  148.8360 C   0  0  0  0  0  2  0  0  0  0  0  0
  182.2840  179.7140  143.5150 O   0  0  0  0  0  0  0  0  0  0  0  0
  183.4030  179.2370  143.5960 C   0  0  0  0  0  0  0  0  0  0  0  0
  189.1420  177.2150  143.0270 C   0  0  1  0  0  0  0  0  0  0  0  0
  189.0720  176.9690  144.5570 C   0  0  1  0  0  3  0  0  0  0  0  0
  188.5130  178.1670  145.2660 C   0  0  1  0  0  3  0  0  0  0  0  0
  188.4170  178.5170  149.0270 C   0  0  0  0  0  2  0  0  0  0  0  0
  185.5980  178.6080  147.3030 C   0  0  0  0  0  1  0  0  0  0  0  0
  186.1780  177.3060  146.7340 C   0  0  2  0  0  3  0  0  0  0  0  0
  189.6020  175.9680  142.2300 C   0  0  2  0  0  3  0  0  0  0  0  0
  190.4550  175.0250  143.0310 C   0  0  0  0  0  3  0  0  0  0  0  0
  191.5490  175.3760  143.4420 O   0  0  0  0  0  0  0  0  0  0  0  0
  190.3290  176.3310  140.9430 C   0  0  0  0  0  2  0  0  0  0  0  0
  189.4020  176.7020  139.9700 O   0  0  0  0  0  1  0  0  0  0  0  0
  189.8600  178.5040  142.5420 C   0  0  0  0  0  2  0  0  0  0  0  0
  191.3640  178.5770  142.8110 C   0  0  0  0  0  2  0  0  0  0  0  0
  191.6660  178.9450  144.2210 C   0  0  0  0  0  0  0  0  0  0  0  0
  191.5050  180.1940  144.6300 C   0  0  0  0  0  2  0  0  0  0  0  0
  192.1320  177.9830  145.1060 O   0  0  0  0  0  1  0  0  0  0  0  0
  1  3  1  1  0  0  0
  1 15  1  0  0  0  0
  1  2  1  0  0  0  0
  2 16  1  0  0  0  0
  2 10  1  0  0  0  0
  2 17  1  0  0  0  0
  3  9  1  0  0  0  0
  5 12  1  0  0  0  0
  6  4  1  0  0  0  0
  6 10  1  0  0  0  0
  7  9  1  0  0  0  0
  7 14  1  0  0  0  0
  8  5  1  0  0  0  0
  8 11  1  0  0  0  0
  9  6  1  0  0  0  0
 10 20  1  0  0  0  0
 11 18  1  0  0  0  0
 12 18  1  0  0  0  0
 13 14  2  0  0  0  0
 14  4  1  0  0  0  0
 15 16  1  0  0  0  0
 16 17  1  0  0  0  0
 17  8  1  0  0  0  0
 20 19  1  0  0  0  0
 20  5  1  0  0  0  0
 21 15  1  0  0  0  0
 21 22  1  0  0  0  0
 22 23  2  0  0  0  0
 24 21  1  0  0  0  0
 25 24  1  0  0  0  0
 26 27  1  0  0  0  0
 26 15  1  0  0  0  0
 27 28  1  0  0  0  0
 28 29  2  0  0  0  0
 28 30  1  0  0  0  0
M  END
>  <MODEL>
3

>  <REMARK>
 VINA RESULT:      -6.4      2.612      4.490
  Name = 
  6 active torsions:
  status: ('A' for Active; 'I' for Inactive)
    1  A    between atoms: C_2  and  C_14
    2  A    between atoms: C_3  and  C_19
    3  A    between atoms: C_14  and  C_20
    4  A    between atoms: C_14  and  C_22
    5  A    between atoms: C_19  and  C_29
    6  A    between atoms: C_22  and  C_29
                            x       y       z     vdW  Elec       q    Type
                         _______ _______ _______ _____ _____    ______ ____

>  <TORSDO>
F 6

$$$$
=
 OpenBabel10272413423D

 30 35  0  0  1  0  0  0  0  0999 V2000
  183.3350  176.9550  137.9880 C   0  0  1  0  0  3  0  0  0  0  0  0
  184.7270  177.4210  137.6040 C   0  0  1  0  0  0  0  0  0  0  0  0
  183.3850  175.5100  138.4790 C   0  0  0  0  0  2  0  0  0  0  0  0
  185.6610  174.0540  135.8450 C   0  0  0  0  0  2  0  0  0  0  0  0
  187.3310  178.3510  136.9220 C   0  0  1  0  0  3  0  0  0  0  0  0
  185.2710  175.0960  136.8740 C   0  0  2  0  0  3  0  0  0  0  0  0
  183.8100  173.2330  137.3170 C   0  0  0  0  0  2  0  0  0  0  0  0
  186.9560  178.4360  138.3930 C   0  0  2  0  0  3  0  0  0  0  0  0
  183.8360  174.7420  137.2450 C   0  0  1  0  0  3  0  0  0  0  0  0
  185.4800  176.5940  136.5190 C   0  0  2  0  0  3  0  0  0  0  0  0
  188.1730  177.9880  139.1620 C   0  0  0  0  0  2  0  0  0  0  0  0
  188.8260  178.6410  136.8910 C   0  0  0  0  0  2  0  0  0  0  0  0
  185.0100  171.7580  135.8740 O   0  0  0  0  0  0  0  0  0  0  0  0
  184.8450  172.8890  136.2980 C   0  0  0  0  0  0  0  0  0  0  0  0
  183.2040  178.1490  138.9420 C   0  0  1  0  0  0  0  0  0  0  0  0
  184.5800  178.6760  138.4550 C   0  0  1  0  0  3  0  0  0  0  0  0
  185.6730  177.7030  138.7870 C   0  0  1  0  0  3  0  0  0  0  0  0
  189.3470  178.4420  138.3120 C   0  0  0  0  0  2  0  0  0  0  0  0
  187.9750  175.8850  136.7280 C   0  0  0  0  0  1  0  0  0  0  0  0
  186.9800  176.9780  136.3140 C   0  0  2  0  0  3  0  0  0  0  0  0
  182.0210  179.0580  138.5240 C   0  0  2  0  0  3  0  0  0  0  0  0
  182.2860  180.5220  138.7330 C   0  0  0  0  0  3  0  0  0  0  0  0
  181.5380  181.3620  138.2580 O   0  0  0  0  0  0  0  0  0  0  0  0
  180.7180  178.6800  139.2140 C   0  0  0  0  0  2  0  0  0  0  0  0
  179.9820  177.8290  138.3920 O   0  0  0  0  0  1  0  0  0  0  0  0
  183.0920  177.7080  140.4270 C   0  0  0  0  0  2  0  0  0  0  0  0
  183.2370  178.8170  141.4700 C   0  0  0  0  0  2  0  0  0  0  0  0
  184.5880  178.8270  142.0950 C   0  0  0  0  0  0  0  0  0  0  0  0
  184.8250  178.0960  143.1730 C   0  0  0  0  0  2  0  0  0  0  0  0
  185.5970  179.6160  141.5600 O   0  0  0  0  0  1  0  0  0  0  0  0
  1  3  1  1  0  0  0
  1 15  1  0  0  0  0
  2  1  1  0  0  0  0
  2 16  1  0  0  0  0
  2 17  1  0  0  0  0
  4 14  1  0  0  0  0
  4  6  1  0  0  0  0
  5  8  1  0  0  0  0
  6  9  1  0  0  0  0
  8 17  1  0  0  0  0
  8 11  1  0  0  0  0
  9  7  1  0  0  0  0
  9  3  1  0  0  0  0
 10  6  1  0  0  0  0
 10  2  1  0  0  0  0
 12  5  1  0  0  0  0
 12 18  1  0  0  0  0
 13 14  2  0  0  0  0
 14  7  1  0  0  0  0
 15 26  1  0  0  0  0
 16 17  1  0  0  0  0
 16 15  1  0  0  0  0
 18 11  1  0  0  0  0
 20 10  1  0  0  0  0
 20 19  1  0  0  0  0
 20  5  1  0  0  0  0
 21 22  1  0  0  0  0
 21 15  1  0  0  0  0
 21 24  1  0  0  0  0
 23 22  2  0  0  0  0
 25 24  1  0  0  0  0
 26 27  1  0  0  0  0
 27 28  1  0  0  0  0
 28 29  2  0  0  0  0
 30 28  1  0  0  0  0
M  END
>  <MODEL>
4

>  <REMARK>
 VINA RESULT:      -6.4      3.643      7.613
  Name = 
  6 active torsions:
  status: ('A' for Active; 'I' for Inactive)
    1  A    between atoms: C_2  and  C_14
    2  A    between atoms: C_3  and  C_19
    3  A    between atoms: C_14  and  C_20
    4  A    between atoms: C_14  and  C_22
    5  A    between atoms: C_19  and  C_29
    6  A    between atoms: C_22  and  C_29
                            x       y       z     vdW  Elec       q    Type
                         _______ _______ _______ _____ _____    ______ ____

>  <TORSDO>
F 6

$$$$
=
 OpenBabel10272413423D

 30 35  0  0  1  0  0  0  0  0999 V2000
  191.4610  176.2730  136.9690 C   0  0  1  0  0  3  0  0  0  0  0  0
  190.2940  175.5780  136.2930 C   0  0  1  0  0  0  0  0  0  0  0  0
  191.1900  176.4130  138.4650 C   0  0  0  0  0  2  0  0  0  0  0  0
  187.5950  177.5510  138.3240 C   0  0  0  0  0  2  0  0  0  0  0  0
  188.1470  174.2310  134.9940 C   0  0  1  0  0  3  0  0  0  0  0  0
  188.7460  176.6450  137.9360 C   0  0  2  0  0  3  0  0  0  0  0  0
  189.5450  177.8470  139.8650 C   0  0  0  0  0  2  0  0  0  0  0  0
  189.1900  173.3430  135.6540 C   0  0  2  0  0  3  0  0  0  0  0  0
  189.9780  177.3330  138.5110 C   0  0  1  0  0  3  0  0  0  0  0  0
  188.8900  176.2370  136.4440 C   0  0  2  0  0  3  0  0  0  0  0  0
  188.4260  172.2420  136.3450 C   0  0  0  0  0  2  0  0  0  0  0  0
  187.0090  173.2840  134.6350 C   0  0  0  0  0  2  0  0  0  0  0  0
  187.3950  178.7440  140.3820 O   0  0  0  0  0  0  0  0  0  0  0  0
  188.1000  178.1170  139.6090 C   0  0  0  0  0  0  0  0  0  0  0  0
  192.4150  175.2170  136.3970 C   0  0  1  0  0  0  0  0  0  0  0  0
  191.2310  174.5840  135.6180 C   0  0  1  0  0  3  0  0  0  0  0  0
  190.1870  174.0660  136.5620 C   0  0  1  0  0  3  0  0  0  0  0  0
  187.2070  172.0180  135.4660 C   0  0  0  0  0  2  0  0  0  0  0  0
  186.7310  174.9000  137.0130 C   0  0  0  0  0  1  0  0  0  0  0  0
  187.6950  175.3790  135.9190 C   0  0  2  0  0  3  0  0  0  0  0  0
  193.4700  175.8750  135.4720 C   0  0  2  0  0  3  0  0  0  0  0  0
  193.9610  174.9660  134.3800 C   0  0  0  0  0  3  0  0  0  0  0  0
  195.1290  174.6130  134.3460 O   0  0  0  0  0  0  0  0  0  0  0  0
  194.6630  176.4240  136.2420 C   0  0  0  0  0  2  0  0  0  0  0  0
  195.0000  177.6830  135.7470 O   0  0  0  0  0  1  0  0  0  0  0  0
  193.0800  174.3590  137.5070 C   0  0  0  0  0  2  0  0  0  0  0  0
  193.7950  173.0910  137.0390 C   0  0  0  0  0  2  0  0  0  0  0  0
  194.9470  172.7390  137.9130 C   0  0  0  0  0  0  0  0  0  0  0  0
  195.5860  173.6870  138.5810 C   0  0  0  0  0  2  0  0  0  0  0  0
  195.3640  171.4190  138.0180 O   0  0  0  0  0  1  0  0  0  0  0  0
  1  3  1  1  0  0  0
  2 10  1  0  0  0  0
  2 17  1  0  0  0  0
  2  1  1  0  0  0  0
  3  9  1  0  0  0  0
  4 14  1  0  0  0  0
  5  8  1  0  0  0  0
  5 20  1  0  0  0  0
  6  4  1  0  0  0  0
  6  9  1  0  0  0  0
  8 11  1  0  0  0  0
  8 17  1  0  0  0  0
  9  7  1  0  0  0  0
 10  6  1  0  0  0  0
 12  5  1  0  0  0  0
 12 18  1  0  0  0  0
 14  7  1  0  0  0  0
 14 13  2  0  0  0  0
 15  1  1  0  0  0  0
 15 26  1  0  0  0  0
 16  2  1  0  0  0  0
 16 15  1  0  0  0  0
 16 17  1  0  0  0  0
 18 11  1  0  0  0  0
 20 10  1  0  0  0  0
 20 19  1  0  0  0  0
 21 24  1  0  0  0  0
 21 15  1  0  0  0  0
 22 21  1  0  0  0  0
 23 22  2  0  0  0  0
 25 24  1  0  0  0  0
 27 26  1  0  0  0  0
 27 28  1  0  0  0  0
 28 30  1  0  0  0  0
 28 29  2  0  0  0  0
M  END
>  <MODEL>
5

>  <REMARK>
 VINA RESULT:      -6.1      3.814      7.702
  Name = 
  6 active torsions:
  status: ('A' for Active; 'I' for Inactive)
    1  A    between atoms: C_2  and  C_14
    2  A    between atoms: C_3  and  C_19
    3  A    between atoms: C_14  and  C_20
    4  A    between atoms: C_14  and  C_22
    5  A    between atoms: C_19  and  C_29
    6  A    between atoms: C_22  and  C_29
                            x       y       z     vdW  Elec       q    Type
                         _______ _______ _______ _____ _____    ______ ____

>  <TORSDO>
F 6

$$$$
=
 OpenBabel10272413423D

 30 35  0  0  1  0  0  0  0  0999 V2000
  185.9610  178.3040  138.4300 C   0  0  1  0  0  3  0  0  0  0  0  0
  184.6590  177.6910  137.9490 C   0  0  1  0  0  0  0  0  0  0  0  0
  186.1840  177.9690  139.9030 C   0  0  0  0  0  2  0  0  0  0  0  0
  182.7040  178.6270  141.2060 C   0  0  0  0  0  2  0  0  0  0  0  0
  182.2480  176.5140  136.9940 C   0  0  1  0  0  3  0  0  0  0  0  0
  183.6950  178.0270  140.2280 C   0  0  2  0  0  3  0  0  0  0  0  0
  185.0390  178.7110  142.1060 C   0  0  0  0  0  2  0  0  0  0  0  0
  183.4740  175.6150  136.9970 C   0  0  2  0  0  3  0  0  0  0  0  0
  185.0260  178.6720  140.5950 C   0  0  1  0  0  3  0  0  0  0  0  0
  183.3600  178.0920  138.7110 C   0  0  2  0  0  3  0  0  0  0  0  0
  183.0070  174.2720  137.4990 C   0  0  0  0  0  2  0  0  0  0  0  0
  181.0840  175.5730  136.7100 C   0  0  0  0  0  2  0  0  0  0  0  0
  183.1450  179.1360  143.4960 O   0  0  0  0  0  0  0  0  0  0  0  0
  183.5810  178.8560  142.3920 C   0  0  0  0  0  0  0  0  0  0  0  0
  186.7090  177.5910  137.2960 C   0  0  1  0  0  0  0  0  0  0  0  0
  185.3560  177.0650  136.7480 C   0  0  1  0  0  3  0  0  0  0  0  0
  184.6890  176.1650  137.7460 C   0  0  1  0  0  3  0  0  0  0  0  0
  181.5760  174.1580  137.0000 C   0  0  0  0  0  2  0  0  0  0  0  0
  181.5420  176.3820  139.4460 C   0  0  0  0  0  1  0  0  0  0  0  0
  182.0850  177.2770  138.3240 C   0  0  2  0  0  3  0  0  0  0  0  0
  187.3890  178.6190  136.3560 C   0  0  2  0  0  3  0  0  0  0  0  0
  187.2670  178.2720  134.8990 C   0  0  0  0  0  3  0  0  0  0  0  0
  188.1270  177.6050  134.3470 O   0  0  0  0  0  0  0  0  0  0  0  0
  188.8550  178.8450  136.6970 C   0  0  0  0  0  2  0  0  0  0  0  0
  188.9640  179.8510  137.6560 O   0  0  0  0  0  1  0  0  0  0  0  0
  187.7230  176.5410  137.8270 C   0  0  0  0  0  2  0  0  0  0  0  0
  187.9510  175.3180  136.9380 C   0  0  0  0  0  2  0  0  0  0  0  0
  189.3750  174.8840  136.9350 C   0  0  0  0  0  0  0  0  0  0  0  0
  190.3120  175.6870  136.4560 C   0  0  0  0  0  2  0  0  0  0  0  0
  189.7210  173.6290  137.4180 O   0  0  0  0  0  1  0  0  0  0  0  0
  1  3  1  1  0  0  0
  2  1  1  0  0  0  0
  2 10  1  0  0  0  0
  3  9  1  0  0  0  0
  4 14  1  0  0  0  0
  5  8  1  0  0  0  0
  5 20  1  0  0  0  0
  6  9  1  0  0  0  0
  6  4  1  0  0  0  0
  7 14  1  0  0  0  0
  8 11  1  0  0  0  0
  8 17  1  0  0  0  0
  9  7  1  0  0  0  0
 10  6  1  0  0  0  0
 12  5  1  0  0  0  0
 12 18  1  0  0  0  0
 14 13  2  0  0  0  0
 15 26  1  0  0  0  0
 15  1  1  0  0  0  0
 16 15  1  0  0  0  0
 16 17  1  0  0  0  0
 16  2  1  0  0  0  0
 17  2  1  0  0  0  0
 18 11  1  0  0  0  0
 20 10  1  0  0  0  0
 20 19  1  0  0  0  0
 21 24  1  0  0  0  0
 21 15  1  0  0  0  0
 22 21  1  0  0  0  0
 23 22  2  0  0  0  0
 24 25  1  0  0  0  0
 27 26  1  0  0  0  0
 28 27  1  0  0  0  0
 28 30  1  0  0  0  0
 29 28  2  0  0  0  0
M  END
>  <MODEL>
6

>  <REMARK>
 VINA RESULT:      -6.0      3.527      6.547
  Name = 
  6 active torsions:
  status: ('A' for Active; 'I' for Inactive)
    1  A    between atoms: C_2  and  C_14
    2  A    between atoms: C_3  and  C_19
    3  A    between atoms: C_14  and  C_20
    4  A    between atoms: C_14  and  C_22
    5  A    between atoms: C_19  and  C_29
    6  A    between atoms: C_22  and  C_29
                            x       y       z     vdW  Elec       q    Type
                         _______ _______ _______ _____ _____    ______ ____

>  <TORSDO>
F 6

$$$$
=
 OpenBabel10272413423D

 30 35  0  0  1  0  0  0  0  0999 V2000
  186.0740  177.9340  137.3960 C   0  0  1  0  0  3  0  0  0  0  0  0
  185.2860  176.7580  136.8510 C   0  0  1  0  0  0  0  0  0  0  0  0
  185.6740  178.2040  138.8450 C   0  0  0  0  0  2  0  0  0  0  0  0
  181.9290  177.8920  138.5070 C   0  0  0  0  0  2  0  0  0  0  0  0
  183.8660  174.5220  135.8050 C   0  0  1  0  0  3  0  0  0  0  0  0
  183.3540  177.4260  138.2830 C   0  0  2  0  0  3  0  0  0  0  0  0
  183.5330  179.1330  139.9740 C   0  0  0  0  0  2  0  0  0  0  0  0
  185.1160  174.2020  136.6100 C   0  0  2  0  0  3  0  0  0  0  0  0
  184.2100  178.6040  138.7300 C   0  0  1  0  0  3  0  0  0  0  0  0
  183.7320  176.8650  136.8840 C   0  0  2  0  0  3  0  0  0  0  0  0
  184.7630  173.0230  137.4810 C   0  0  0  0  0  2  0  0  0  0  0  0
  183.1770  173.1760  135.6160 C   0  0  0  0  0  2  0  0  0  0  0  0
  181.1750  179.2410  140.3260 O   0  0  0  0  0  0  0  0  0  0  0  0
  182.1090  178.8040  139.6740 C   0  0  0  0  0  0  0  0  0  0  0  0
  187.3820  177.2280  137.0170 C   0  0  1  0  0  0  0  0  0  0  0  0
  186.5620  176.0860  136.3590 C   0  0  1  0  0  3  0  0  0  0  0  0
  185.7200  175.3780  137.3780 C   0  0  1  0  0  3  0  0  0  0  0  0
  183.7680  172.2250  136.6540 C   0  0  0  0  0  2  0  0  0  0  0  0
  182.1760  174.9360  137.6770 C   0  0  0  0  0  1  0  0  0  0  0  0
  182.9680  175.5540  136.5160 C   0  0  2  0  0  3  0  0  0  0  0  0
  188.1820  178.0720  135.9920 C   0  0  2  0  0  3  0  0  0  0  0  0
  188.6710  177.2780  134.8130 C   0  0  0  0  0  3  0  0  0  0  0  0
  189.8280  176.8900  134.7640 O   0  0  0  0  0  0  0  0  0  0  0  0
  189.3570  178.8040  136.6250 C   0  0  0  0  0  2  0  0  0  0  0  0
  188.8900  179.9020  137.3460 O   0  0  0  0  0  1  0  0  0  0  0  0
  188.2400  176.8690  138.2590 C   0  0  0  0  0  2  0  0  0  0  0  0
  189.3650  175.8580  138.0300 C   0  0  0  0  0  2  0  0  0  0  0  0
  190.5710  176.1630  138.8460 C   0  0  0  0  0  0  0  0  0  0  0  0
  191.7270  176.4170  138.2530 C   0  0  0  0  0  2  0  0  0  0  0  0
  190.4910  176.1650  140.2330 O   0  0  0  0  0  1  0  0  0  0  0  0
  1  3  1  1  0  0  0
  2 10  1  0  0  0  0
  2 17  1  0  0  0  0
  2  1  1  0  0  0  0
  4 14  1  0  0  0  0
  5 20  1  0  0  0  0
  5  8  1  0  0  0  0
  6  4  1  0  0  0  0
  6  9  1  0  0  0  0
  8 17  1  0  0  0  0
  8 11  1  0  0  0  0
  9  3  1  0  0  0  0
  9  7  1  0  0  0  0
 10  6  1  0  0  0  0
 12  5  1  0  0  0  0
 12 18  1  0  0  0  0
 14  7  1  0  0  0  0
 14 13  2  0  0  0  0
 15  1  1  0  0  0  0
 15 26  1  0  0  0  0
 16  2  1  0  0  0  0
 16 15  1  0  0  0  0
 16 17  1  0  0  0  0
 18 11  1  0  0  0  0
 20 10  1  0  0  0  0
 20 19  1  0  0  0  0
 21 24  1  0  0  0  0
 21 15  1  0  0  0  0
 22 21  1  0  0  0  0
 23 22  2  0  0  0  0
 24 25  1  0  0  0  0
 27 26  1  0  0  0  0
 27 28  1  0  0  0  0
 28 30  1  0  0  0  0
 29 28  2  0  0  0  0
M  END
>  <MODEL>
7

>  <REMARK>
 VINA RESULT:      -6.0      3.928      6.789
  Name = 
  6 active torsions:
  status: ('A' for Active; 'I' for Inactive)
    1  A    between atoms: C_2  and  C_14
    2  A    between atoms: C_3  and  C_19
    3  A    between atoms: C_14  and  C_20
    4  A    between atoms: C_14  and  C_22
    5  A    between atoms: C_19  and  C_29
    6  A    between atoms: C_22  and  C_29
                            x       y       z     vdW  Elec       q    Type
                         _______ _______ _______ _____ _____    ______ ____

>  <TORSDO>
F 6

$$$$
=
 OpenBabel10272413423D

 30 35  0  0  1  0  0  0  0  0999 V2000
  188.8850  175.3490  136.3930 C   0  0  1  0  0  3  0  0  0  0  0  0
  190.3550  175.2090  136.0460 C   0  0  1  0  0  0  0  0  0  0  0  0
  188.3590  174.0390  136.9760 C   0  0  0  0  0  2  0  0  0  0  0  0
  189.9360  171.6200  134.5470 C   0  0  0  0  0  2  0  0  0  0  0  0
  193.1280  175.0040  135.4290 C   0  0  1  0  0  3  0  0  0  0  0  0
  189.9640  172.8070  135.4900 C   0  0  2  0  0  3  0  0  0  0  0  0
  187.8850  171.6940  135.9810 C   0  0  0  0  0  2  0  0  0  0  0  0
  192.7890  175.3400  136.8720 C   0  0  2  0  0  3  0  0  0  0  0  0
  188.4980  173.0650  135.8160 C   0  0  1  0  0  3  0  0  0  0  0  0
  190.7460  174.0760  135.0510 C   0  0  2  0  0  3  0  0  0  0  0  0
  193.7200  174.5150  137.7240 C   0  0  0  0  0  2  0  0  0  0  0  0
  194.6180  174.6900  135.4480 C   0  0  0  0  0  2  0  0  0  0  0  0
  188.4420  169.7640  134.6910 O   0  0  0  0  0  0  0  0  0  0  0  0
  188.7240  170.9000  135.0350 C   0  0  0  0  0  0  0  0  0  0  0  0
  189.2120  176.5700  137.2640 C   0  0  1  0  0  0  0  0  0  0  0  0
  190.6930  176.4850  136.8090 C   0  0  1  0  0  3  0  0  0  0  0  0
  191.3140  175.1930  137.2510 C   0  0  1  0  0  3  0  0  0  0  0  0
  194.9950  174.4130  136.9020 C   0  0  0  0  0  2  0  0  0  0  0  0
  192.7640  172.4750  135.4200 C   0  0  0  0  0  1  0  0  0  0  0  0
  192.2810  173.8330  134.8920 C   0  0  2  0  0  3  0  0  0  0  0  0
  188.4830  177.8310  136.7340 C   0  0  2  0  0  3  0  0  0  0  0  0
  189.2830  179.0940  136.8870 C   0  0  0  0  0  3  0  0  0  0  0  0
  188.9800  179.9220  137.7310 O   0  0  0  0  0  0  0  0  0  0  0  0
  187.1130  178.0260  137.3670 C   0  0  0  0  0  2  0  0  0  0  0  0
  186.1320  177.4880  136.5340 O   0  0  0  0  0  1  0  0  0  0  0  0
  188.9100  176.3210  138.7660 C   0  0  0  0  0  2  0  0  0  0  0  0
  189.6730  177.1980  139.7590 C   0  0  0  0  0  2  0  0  0  0  0  0
  188.8590  177.5250  140.9620 C   0  0  0  0  0  0  0  0  0  0  0  0
  187.9700  178.5050  140.9160 C   0  0  0  0  0  2  0  0  0  0  0  0
  189.0420  176.8130  142.1400 O   0  0  0  0  0  1  0  0  0  0  0  0
  1  3  1  1  0  0  0
  1 15  1  0  0  0  0
  2  1  1  0  0  0  0
  2 16  1  0  0  0  0
  2 17  1  0  0  0  0
  4 14  1  0  0  0  0
  4  6  1  0  0  0  0
  5 12  1  0  0  0  0
  5  8  1  0  0  0  0
  6  9  1  0  0  0  0
  8 17  1  0  0  0  0
  8 11  1  0  0  0  0
  9  7  1  0  0  0  0
  9  3  1  0  0  0  0
 10  6  1  0  0  0  0
 10  2  1  0  0  0  0
 12 18  1  0  0  0  0
 13 14  2  0  0  0  0
 14  7  1  0  0  0  0
 15 26  1  0  0  0  0
 16 17  1  0  0  0  0
 16 15  1  0  0  0  0
 18 11  1  0  0  0  0
 20 10  1  0  0  0  0
 20 19  1  0  0  0  0
 20  5  1  0  0  0  0
 21 22  1  0  0  0  0
 21 15  1  0  0  0  0
 21 24  1  0  0  0  0
 22 23  2  0  0  0  0
 25 24  1  0  0  0  0
 26 27  1  0  0  0  0
 27 28  1  0  0  0  0
 28 30  1  0  0  0  0
 29 28  2  0  0  0  0
M  END
>  <MODEL>
8

>  <REMARK>
 VINA RESULT:      -5.8      3.548      7.905
  Name = 
  6 active torsions:
  status: ('A' for Active; 'I' for Inactive)
    1  A    between atoms: C_2  and  C_14
    2  A    between atoms: C_3  and  C_19
    3  A    between atoms: C_14  and  C_20
    4  A    between atoms: C_14  and  C_22
    5  A    between atoms: C_19  and  C_29
    6  A    between atoms: C_22  and  C_29
                            x       y       z     vdW  Elec       q    Type
                         _______ _______ _______ _____ _____    ______ ____

>  <TORSDO>
F 6

$$$$
=
 OpenBabel10272413423D

 30 35  0  0  1  0  0  0  0  0999 V2000
  186.3460  178.4450  138.9310 C   0  0  1  0  0  3  0  0  0  0  0  0
  184.8420  178.4210  138.7360 C   0  0  1  0  0  0  0  0  0  0  0  0
  186.7130  177.7650  140.2480 C   0  0  0  0  0  2  0  0  0  0  0  0
  184.0750  179.2920  142.4720 C   0  0  0  0  0  2  0  0  0  0  0  0
  182.0270  178.3520  138.3080 C   0  0  1  0  0  3  0  0  0  0  0  0
  184.5490  178.6010  141.2090 C   0  0  2  0  0  3  0  0  0  0  0  0
  186.3960  178.3950  142.7430 C   0  0  0  0  0  2  0  0  0  0  0  0
  182.7970  177.1080  137.8920 C   0  0  2  0  0  3  0  0  0  0  0  0
  186.0690  178.6660  141.2920 C   0  0  1  0  0  3  0  0  0  0  0  0
  183.9700  179.0780  139.8490 C   0  0  2  0  0  3  0  0  0  0  0  0
  181.9660  175.9330  138.3410 C   0  0  0  0  0  2  0  0  0  0  0  0
  180.5620  177.9410  138.2300 C   0  0  0  0  0  2  0  0  0  0  0  0
  185.1200  179.1500  144.6130 O   0  0  0  0  0  0  0  0  0  0  0  0
  185.1890  178.9660  143.4090 C   0  0  0  0  0  0  0  0  0  0  0  0
  186.5280  177.7630  137.5690 C   0  0  1  0  0  0  0  0  0  0  0  0
  184.9970  177.8500  137.3330 C   0  0  1  0  0  3  0  0  0  0  0  0
  184.2520  177.0500  138.3590 C   0  0  1  0  0  3  0  0  0  0  0  0
  180.5300  176.4140  138.2190 C   0  0  0  0  0  2  0  0  0  0  0  0
  181.8250  177.9780  140.8280 C   0  0  0  0  0  1  0  0  0  0  0  0
  182.4320  178.8410  139.7130 C   0  0  2  0  0  3  0  0  0  0  0  0
  187.3450  178.6650  136.6090 C   0  0  2  0  0  3  0  0  0  0  0  0
  187.0640  178.4030  135.1560 C   0  0  0  0  0  3  0  0  0  0  0  0
  187.9210  177.9160  134.4370 O   0  0  0  0  0  0  0  0  0  0  0  0
  188.8450  178.5740  136.8540 C   0  0  0  0  0  2  0  0  0  0  0  0
  189.2260  179.5370  137.7870 O   0  0  0  0  0  1  0  0  0  0  0  0
  187.1530  176.3470  137.6970 C   0  0  0  0  0  2  0  0  0  0  0  0
  186.9620  175.4170  136.4980 C   0  0  0  0  0  2  0  0  0  0  0  0
  186.1210  174.2360  136.8310 C   0  0  0  0  0  0  0  0  0  0  0  0
  184.9190  174.1040  136.2900 C   0  0  0  0  0  2  0  0  0  0  0  0
  186.5860  173.2780  137.7220 O   0  0  0  0  0  1  0  0  0  0  0  0
  1  3  1  1  0  0  0
  2  1  1  0  0  0  0
  2 10  1  0  0  0  0
  3  9  1  0  0  0  0
  4 14  1  0  0  0  0
  5 20  1  0  0  0  0
  6  9  1  0  0  0  0
  6  4  1  0  0  0  0
  7 14  1  0  0  0  0
  8  5  1  0  0  0  0
  8 11  1  0  0  0  0
  8 17  1  0  0  0  0
  9  7  1  0  0  0  0
 10  6  1  0  0  0  0
 12  5  1  0  0  0  0
 14 13  2  0  0  0  0
 15 26  1  0  0  0  0
 15  1  1  0  0  0  0
 16 15  1  0  0  0  0
 16 17  1  0  0  0  0
 16  2  1  0  0  0  0
 17  2  1  0  0  0  0
 18 12  1  0  0  0  0
 18 11  1  0  0  0  0
 20 10  1  0  0  0  0
 20 19  1  0  0  0  0
 21 24  1  0  0  0  0
 21 15  1  0  0  0  0
 22 21  1  0  0  0  0
 23 22  2  0  0  0  0
 24 25  1  0  0  0  0
 27 28  1  0  0  0  0
 27 26  1  0  0  0  0
 28 30  1  0  0  0  0
 29 28  2  0  0  0  0
M  END
>  <MODEL>
9

>  <REMARK>
 VINA RESULT:      -5.6      3.089      6.340
  Name = 
  6 active torsions:
  status: ('A' for Active; 'I' for Inactive)
    1  A    between atoms: C_2  and  C_14
    2  A    between atoms: C_3  and  C_19
    3  A    between atoms: C_14  and  C_20
    4  A    between atoms: C_14  and  C_22
    5  A    between atoms: C_19  and  C_29
    6  A    between atoms: C_22  and  C_29
                            x       y       z     vdW  Elec       q    Type
                         _______ _______ _______ _____ _____    ______ ____

>  <TORSDO>
F 6

$$$$
