=
 OpenBabel10272413253D

 32 36  0  0  1  0  0  0  0  0999 V2000
  192.4880  176.8370  137.8690 C   0  0  0  0  0  3  0  0  0  0  0  0
  188.1640  173.3740  135.4090 C   0  0  0  0  0  2  0  0  0  0  0  0
  187.4240  174.7250  135.3380 C   0  0  0  0  0  2  0  0  0  0  0  0
  194.3450  175.2370  137.0760 C   0  0  2  0  0  3  0  0  0  0  0  0
  192.3270  173.7370  137.1900 C   0  0  0  0  0  3  0  0  0  0  0  0
  189.6390  173.5580  135.6180 C   0  0  0  0  0  3  0  0  0  0  0  0
  191.4470  174.8520  136.7350 C   0  0  1  0  0  3  0  0  0  0  0  0
  190.0420  174.4460  136.5320 C   0  0  0  0  0  0  0  0  0  0  0  0
  189.9280  176.4380  137.8870 C   0  0  2  0  0  0  0  0  0  0  0  0
  193.6390  173.9330  137.3950 C   0  0  0  0  0  0  0  0  0  0  0  0
  188.0470  175.8520  136.1900 C   0  0  0  0  0  2  0  0  0  0  0  0
  189.0660  175.3370  137.2240 C   0  0  1  0  0  3  0  0  0  0  0  0
  189.8900  177.6290  137.1480 O   0  0  0  0  0  1  0  0  0  0  0  0
  193.7680  176.5520  137.5720 C   0  0  0  0  0  3  0  0  0  0  0  0
  191.3570  175.8460  137.8680 C   0  0  2  0  0  3  0  0  0  0  0  0
  190.6190  176.7500  140.3190 C   0  0  0  0  0  3  0  0  0  0  0  0
  190.4980  177.3000  141.5360 C   0  0  0  0  0  0  0  0  0  0  0  0
  188.5680  177.9010  139.5470 C   0  0  0  0  0  0  0  0  0  0  0  0
  188.5040  178.5050  140.8420 N   0  0  0  0  0  2  0  0  0  0  0  0
  189.1910  177.8970  141.9770 C   0  0  0  0  0  2  0  0  0  0  0  0
  191.6590  177.2910  142.4670 C   0  0  0  0  0  1  0  0  0  0  0  0
  187.8560  178.3610  138.6170 O   0  0  0  0  0  0  0  0  0  0  0  0
  189.4590  176.6900  139.3450 C   0  0  1  0  0  3  0  0  0  0  0  0
  195.2960  173.2220  138.9320 O   0  0  0  0  0  1  0  0  0  0  0  0
  194.4670  172.7940  137.8940 C   0  0  0  0  0  2  0  0  0  0  0  0
  194.8800  175.3140  135.6430 C   0  0  0  0  0  2  0  0  0  0  0  0
  196.3230  175.8060  135.5470 C   0  0  0  0  0  2  0  0  0  0  0  0
  198.5360  174.4250  137.9840 C   0  0  0  0  0  3  0  0  0  0  0  0
  197.5980  173.6790  136.1150 C   0  0  0  0  0  3  0  0  0  0  0  0
  197.8040  175.3950  137.4930 O   0  0  0  0  0  0  0  0  0  0  0  0
  198.4420  173.3210  137.1530 C   0  0  0  0  0  3  0  0  0  0  0  0
  197.2450  174.9820  136.3840 C   0  0  0  0  0  0  0  0  0  0  0  0
  2  6  1  0  0  0  0
  3  2  1  0  0  0  0
  3 11  1  0  0  0  0
  4 26  1  6  0  0  0
  4 10  1  0  0  0  0
  4 14  1  0  0  0  0
  5 10  2  0  0  0  0
  6  8  2  0  0  0  0
  7  5  1  1  0  0  0
  7 15  1  0  0  0  0
  8  7  1  0  0  0  0
  8 12  1  0  0  0  0
  9 13  1  6  0  0  0
  9 23  1  0  0  0  0
 10 25  1  0  0  0  0
 12 11  1  6  0  0  0
 12  9  1  0  0  0  0
 14  1  2  0  0  0  0
 15  1  1  6  0  0  0
 15  9  1  0  0  0  0
 16 17  2  0  0  0  0
 17 20  1  0  0  0  0
 17 21  1  0  0  0  0
 18 19  1  0  0  0  0
 19 20  1  0  0  0  0
 22 18  2  0  0  0  0
 23 18  1  0  0  0  0
 23 16  1  1  0  0  0
 25 24  1  0  0  0  0
 27 26  1  0  0  0  0
 27 32  1  0  0  0  0
 29 32  2  0  0  0  0
 29 31  1  0  0  0  0
 30 28  1  0  0  0  0
 31 28  2  0  0  0  0
 32 30  1  0  0  0  0
M  END
>  <MODEL>
1

>  <REMARK>
 VINA RESULT:      -6.4      0.000      0.000
  Name = 
  5 active torsions:
  status: ('A' for Active; 'I' for Inactive)
    1  A    between atoms: C_8  and  C_23
    2  A    between atoms: C_12  and  C_21
    3  A    between atoms: C_16  and  C_32
    4  A    between atoms: C_19  and  C_23
    5  A    between atoms: C_19  and  C_24
                            x       y       z     vdW  Elec       q    Type
                         _______ _______ _______ _____ _____    ______ ____

>  <TORSDO>
F 5

$$$$
=
 OpenBabel10272413253D

 32 36  0  0  1  0  0  0  0  0999 V2000
  193.1450  176.6230  139.1050 C   0  0  0  0  0  3  0  0  0  0  0  0
  191.4940  172.2840  135.2080 C   0  0  0  0  0  2  0  0  0  0  0  0
  192.7760  171.6150  135.7440 C   0  0  0  0  0  2  0  0  0  0  0  0
  190.7070  177.3990  139.4120 C   0  0  2  0  0  3  0  0  0  0  0  0
  190.6640  176.3090  137.1440 C   0  0  0  0  0  3  0  0  0  0  0  0
  191.0240  173.3880  136.1100 C   0  0  0  0  0  3  0  0  0  0  0  0
  191.6500  175.2840  137.5950 C   0  0  1  0  0  3  0  0  0  0  0  0
  191.9310  174.2520  136.5780 C   0  0  0  0  0  0  0  0  0  0  0  0
  194.0980  175.0000  137.3250 C   0  0  2  0  0  0  0  0  0  0  0  0
  190.2790  177.3030  137.9590 C   0  0  0  0  0  0  0  0  0  0  0  0
  193.7160  172.5530  136.5330 C   0  0  0  0  0  2  0  0  0  0  0  0
  193.3880  174.0450  136.3370 C   0  0  1  0  0  3  0  0  0  0  0  0
  194.5870  174.3050  138.4410 O   0  0  0  0  0  1  0  0  0  0  0  0
  192.1740  177.2660  139.7790 C   0  0  0  0  0  3  0  0  0  0  0  0
  192.9800  175.9780  137.7570 C   0  0  2  0  0  3  0  0  0  0  0  0
  196.4700  174.8910  136.4030 C   0  0  0  0  0  3  0  0  0  0  0  0
  197.4260  175.2080  135.5170 C   0  0  0  0  0  0  0  0  0  0  0  0
  194.8780  176.4360  135.3070 C   0  0  0  0  0  0  0  0  0  0  0  0
  195.9080  176.7090  134.3530 N   0  0  0  0  0  2  0  0  0  0  0  0
  197.3070  176.4510  134.6800 C   0  0  0  0  0  2  0  0  0  0  0  0
  198.6250  174.3380  135.3840 C   0  0  0  0  0  1  0  0  0  0  0  0
  193.6980  176.7970  135.0590 O   0  0  0  0  0  0  0  0  0  0  0  0
  195.2480  175.7620  136.6140 C   0  0  1  0  0  3  0  0  0  0  0  0
  189.0040  179.2380  138.4510 O   0  0  0  0  0  1  0  0  0  0  0  0
  189.3250  178.3290  137.4420 C   0  0  0  0  0  2  0  0  0  0  0  0
  189.7720  176.6680  140.3790 C   0  0  0  0  0  2  0  0  0  0  0  0
  189.3180  177.5190  141.5640 C   0  0  0  0  0  2  0  0  0  0  0  0
  191.4740  176.2690  144.1190 C   0  0  0  0  0  3  0  0  0  0  0  0
  190.2290  178.0900  143.8690 C   0  0  0  0  0  3  0  0  0  0  0  0
  190.8820  176.1880  142.9530 O   0  0  0  0  0  0  0  0  0  0  0  0
  191.0960  177.4490  144.7380 C   0  0  0  0  0  3  0  0  0  0  0  0
  190.1340  177.2480  142.7840 C   0  0  0  0  0  0  0  0  0  0  0  0
  1 14  2  0  0  0  0
  2  3  1  0  0  0  0
  2  6  1  0  0  0  0
  3 11  1  0  0  0  0
  4 14  1  0  0  0  0
  4 26  1  1  0  0  0
  5 10  2  0  0  0  0
  6  8  2  0  0  0  0
  7  5  1  6  0  0  0
  7 15  1  0  0  0  0
  8  7  1  0  0  0  0
  9 15  1  0  0  0  0
  9 13  1  1  0  0  0
 10  4  1  0  0  0  0
 12 11  1  1  0  0  0
 12  8  1  0  0  0  0
 12  9  1  0  0  0  0
 15  1  1  1  0  0  0
 17 16  2  0  0  0  0
 18 23  1  0  0  0  0
 19 20  1  0  0  0  0
 19 18  1  0  0  0  0
 20 17  1  0  0  0  0
 21 17  1  0  0  0  0
 22 18  2  0  0  0  0
 23 16  1  6  0  0  0
 23  9  1  0  0  0  0
 25 10  1  0  0  0  0
 25 24  1  0  0  0  0
 26 27  1  0  0  0  0
 27 32  1  0  0  0  0
 28 31  2  0  0  0  0
 29 31  1  0  0  0  0
 30 28  1  0  0  0  0
 32 30  1  0  0  0  0
 32 29  2  0  0  0  0
M  END
>  <MODEL>
2

>  <REMARK>
 VINA RESULT:      -6.2      2.585      7.216
  Name = 
  5 active torsions:
  status: ('A' for Active; 'I' for Inactive)
    1  A    between atoms: C_8  and  C_23
    2  A    between atoms: C_12  and  C_21
    3  A    between atoms: C_16  and  C_32
    4  A    between atoms: C_19  and  C_23
    5  A    between atoms: C_19  and  C_24
                            x       y       z     vdW  Elec       q    Type
                         _______ _______ _______ _____ _____    ______ ____

>  <TORSDO>
F 5

$$$$
=
 OpenBabel10272413253D

 32 36  0  0  1  0  0  0  0  0999 V2000
  188.3860  178.4950  139.8350 C   0  0  0  0  0  3  0  0  0  0  0  0
  192.5180  175.1870  136.8800 C   0  0  0  0  0  2  0  0  0  0  0  0
  192.1680  176.1640  135.7400 C   0  0  0  0  0  2  0  0  0  0  0  0
  189.4760  177.9840  142.1130 C   0  0  2  0  0  3  0  0  0  0  0  0
  190.2040  176.0350  140.6970 C   0  0  0  0  0  3  0  0  0  0  0  0
  192.0640  175.7050  138.2140 C   0  0  0  0  0  3  0  0  0  0  0  0
  190.3130  176.9190  139.5000 C   0  0  1  0  0  3  0  0  0  0  0  0
  190.8370  176.2280  138.3050 C   0  0  0  0  0  0  0  0  0  0  0  0
  188.8560  177.3750  137.5460 C   0  0  2  0  0  0  0  0  0  0  0  0
  189.7700  176.5150  141.8730 C   0  0  0  0  0  0  0  0  0  0  0  0
  190.8780  176.9850  135.9600 C   0  0  0  0  0  2  0  0  0  0  0  0
  189.9930  176.4300  137.0920 C   0  0  1  0  0  3  0  0  0  0  0  0
  189.0870  178.6910  137.1210 O   0  0  0  0  0  1  0  0  0  0  0  0
  188.5990  178.7500  141.1380 C   0  0  0  0  0  3  0  0  0  0  0  0
  188.9110  177.2980  139.0900 C   0  0  2  0  0  3  0  0  0  0  0  0
  187.3080  175.3770  137.2250 C   0  0  0  0  0  3  0  0  0  0  0  0
  186.1020  174.7920  137.1830 C   0  0  0  0  0  0  0  0  0  0  0  0
  186.2680  177.5990  137.5570 C   0  0  0  0  0  0  0  0  0  0  0  0
  185.0040  176.9290  137.5570 N   0  0  0  0  0  2  0  0  0  0  0  0
  184.8650  175.6110  136.9450 C   0  0  0  0  0  2  0  0  0  0  0  0
  185.9930  173.3170  137.3460 C   0  0  0  0  0  1  0  0  0  0  0  0
  186.3350  178.7880  137.9620 O   0  0  0  0  0  0  0  0  0  0  0  0
  187.4860  176.8680  137.0220 C   0  0  1  0  0  3  0  0  0  0  0  0
  190.8780  175.0270  143.3460 O   0  0  0  0  0  1  0  0  0  0  0  0
  189.6360  175.5770  143.0270 C   0  0  0  0  0  2  0  0  0  0  0  0
  190.6890  178.7840  142.5930 C   0  0  0  0  0  2  0  0  0  0  0  0
  190.5340  179.3600  144.0000 C   0  0  0  0  0  2  0  0  0  0  0  0
  191.2780  176.7580  146.3280 C   0  0  0  0  0  3  0  0  0  0  0  0
  189.4580  177.9120  145.7940 C   0  0  0  0  0  3  0  0  0  0  0  0
  191.6070  177.6000  145.3780 O   0  0  0  0  0  0  0  0  0  0  0  0
  189.9350  176.9130  146.6260 C   0  0  0  0  0  3  0  0  0  0  0  0
  190.5470  178.2890  145.0400 C   0  0  0  0  0  0  0  0  0  0  0  0
  1 14  2  0  0  0  0
  2  6  1  0  0  0  0
  3 11  1  0  0  0  0
  3  2  1  0  0  0  0
  4 26  1  6  0  0  0
  5 10  2  0  0  0  0
  6  8  2  0  0  0  0
  7  5  1  1  0  0  0
  8  7  1  0  0  0  0
  9 13  1  6  0  0  0
  9 15  1  0  0  0  0
 10  4  1  0  0  0  0
 10 25  1  0  0  0  0
 12 11  1  6  0  0  0
 12  9  1  0  0  0  0
 12  8  1  0  0  0  0
 14  4  1  0  0  0  0
 15  7  1  0  0  0  0
 15  1  1  1  0  0  0
 17 16  2  0  0  0  0
 17 21  1  0  0  0  0
 18 19  1  0  0  0  0
 18 22  2  0  0  0  0
 20 17  1  0  0  0  0
 20 19  1  0  0  0  0
 23 16  1  1  0  0  0
 23  9  1  0  0  0  0
 23 18  1  0  0  0  0
 25 24  1  0  0  0  0
 26 27  1  0  0  0  0
 27 32  1  0  0  0  0
 28 31  2  0  0  0  0
 29 31  1  0  0  0  0
 30 28  1  0  0  0  0
 32 30  1  0  0  0  0
 32 29  2  0  0  0  0
M  END
>  <MODEL>
3

>  <REMARK>
 VINA RESULT:      -6.1      3.406      6.957
  Name = 
  5 active torsions:
  status: ('A' for Active; 'I' for Inactive)
    1  A    between atoms: C_8  and  C_23
    2  A    between atoms: C_12  and  C_21
    3  A    between atoms: C_16  and  C_32
    4  A    between atoms: C_19  and  C_23
    5  A    between atoms: C_19  and  C_24
                            x       y       z     vdW  Elec       q    Type
                         _______ _______ _______ _____ _____    ______ ____

>  <TORSDO>
F 5

$$$$
=
 OpenBabel10272413253D

 32 36  0  0  1  0  0  0  0  0999 V2000
  193.1760  176.1540  137.8490 C   0  0  0  0  0  3  0  0  0  0  0  0
  190.8330  171.5810  134.6330 C   0  0  0  0  0  2  0  0  0  0  0  0
  192.1380  170.8890  135.0730 C   0  0  0  0  0  2  0  0  0  0  0  0
  190.8390  177.1020  138.3720 C   0  0  2  0  0  3  0  0  0  0  0  0
  190.4540  175.8120  136.2450 C   0  0  0  0  0  3  0  0  0  0  0  0
  190.5360  172.7910  135.4710 C   0  0  0  0  0  3  0  0  0  0  0  0
  191.4380  174.7740  136.6730 C   0  0  1  0  0  3  0  0  0  0  0  0
  191.5370  173.6370  135.7370 C   0  0  0  0  0  0  0  0  0  0  0  0
  193.8150  174.3180  136.1370 C   0  0  2  0  0  0  0  0  0  0  0  0
  190.2260  176.8990  136.9990 C   0  0  0  0  0  0  0  0  0  0  0  0
  193.2160  171.8360  135.6440 C   0  0  0  0  0  2  0  0  0  0  0  0
  192.9390  173.3200  135.3420 C   0  0  1  0  0  3  0  0  0  0  0  0
  194.4080  173.7010  137.2480 O   0  0  0  0  0  1  0  0  0  0  0  0
  192.3330  176.9140  138.5690 C   0  0  0  0  0  3  0  0  0  0  0  0
  192.8110  175.3980  136.6010 C   0  0  2  0  0  3  0  0  0  0  0  0
  194.9770  176.4460  135.3570 C   0  0  0  0  0  3  0  0  0  0  0  0
  196.0470  177.1460  134.9500 C   0  0  0  0  0  0  0  0  0  0  0  0
  196.2930  174.3500  135.3580 C   0  0  0  0  0  0  0  0  0  0  0  0
  197.4210  175.1400  134.9720 N   0  0  0  0  0  2  0  0  0  0  0  0
  197.2310  176.4450  134.3460 C   0  0  0  0  0  2  0  0  0  0  0  0
  196.0470  178.6290  135.0710 C   0  0  0  0  0  1  0  0  0  0  0  0
  196.4750  173.1730  135.7640 O   0  0  0  0  0  0  0  0  0  0  0  0
  194.9020  174.9390  135.2190 C   0  0  1  0  0  3  0  0  0  0  0  0
  189.3110  179.0600  137.3180 O   0  0  0  0  0  1  0  0  0  0  0  0
  189.2650  177.9290  136.5020 C   0  0  0  0  0  2  0  0  0  0  0  0
  190.0000  176.5220  139.5140 C   0  0  0  0  0  2  0  0  0  0  0  0
  190.4270  176.9990  140.9000 C   0  0  0  0  0  2  0  0  0  0  0  0
  187.4470  177.6000  142.7720 C   0  0  0  0  0  3  0  0  0  0  0  0
  189.1040  176.1270  142.8910 C   0  0  0  0  0  3  0  0  0  0  0  0
  188.2880  177.8700  141.8040 O   0  0  0  0  0  0  0  0  0  0  0  0
  187.9160  176.5100  143.4880 C   0  0  0  0  0  3  0  0  0  0  0  0
  189.2800  177.0180  141.8560 C   0  0  0  0  0  0  0  0  0  0  0  0
  1 14  2  0  0  0  0
  2  3  1  0  0  0  0
  2  6  1  0  0  0  0
  3 11  1  0  0  0  0
  4 14  1  0  0  0  0
  4 26  1  1  0  0  0
  5 10  2  0  0  0  0
  6  8  2  0  0  0  0
  7  5  1  6  0  0  0
  8  7  1  0  0  0  0
  9 15  1  0  0  0  0
  9 13  1  1  0  0  0
 10  4  1  0  0  0  0
 12 11  1  1  0  0  0
 12  8  1  0  0  0  0
 12  9  1  0  0  0  0
 15  7  1  0  0  0  0
 15  1  1  1  0  0  0
 17 21  1  0  0  0  0
 17 16  2  0  0  0  0
 18 22  2  0  0  0  0
 19 18  1  0  0  0  0
 20 17  1  0  0  0  0
 20 19  1  0  0  0  0
 23 16  1  1  0  0  0
 23 18  1  0  0  0  0
 23  9  1  0  0  0  0
 25 10  1  0  0  0  0
 25 24  1  0  0  0  0
 26 27  1  0  0  0  0
 27 32  1  0  0  0  0
 28 31  2  0  0  0  0
 29 31  1  0  0  0  0
 30 32  1  0  0  0  0
 30 28  1  0  0  0  0
 32 29  2  0  0  0  0
M  END
>  <MODEL>
4

>  <REMARK>
 VINA RESULT:      -6.0      2.692      7.524
  Name = 
  5 active torsions:
  status: ('A' for Active; 'I' for Inactive)
    1  A    between atoms: C_8  and  C_23
    2  A    between atoms: C_12  and  C_21
    3  A    between atoms: C_16  and  C_32
    4  A    between atoms: C_19  and  C_23
    5  A    between atoms: C_19  and  C_24
                            x       y       z     vdW  Elec       q    Type
                         _______ _______ _______ _____ _____    ______ ____

>  <TORSDO>
F 5

$$$$
=
 OpenBabel10272413253D

 32 36  0  0  1  0  0  0  0  0999 V2000
  188.0370  178.6500  140.4200 C   0  0  0  0  0  3  0  0  0  0  0  0
  191.5440  175.7590  136.4090 C   0  0  0  0  0  2  0  0  0  0  0  0
  190.9670  176.8270  135.4590 C   0  0  0  0  0  2  0  0  0  0  0  0
  189.5590  177.9610  142.3810 C   0  0  2  0  0  3  0  0  0  0  0  0
  190.0160  176.1760  140.6670 C   0  0  0  0  0  3  0  0  0  0  0  0
  191.3550  176.1360  137.8500 C   0  0  0  0  0  3  0  0  0  0  0  0
  189.8780  177.1710  139.5640 C   0  0  1  0  0  3  0  0  0  0  0  0
  190.1640  176.6110  138.2290 C   0  0  0  0  0  0  0  0  0  0  0  0
  188.0600  177.7640  137.9850 C   0  0  2  0  0  0  0  0  0  0  0  0
  189.8160  176.5310  141.9460 C   0  0  0  0  0  0  0  0  0  0  0  0
  189.7360  177.5850  136.0050 C   0  0  0  0  0  2  0  0  0  0  0  0
  189.0970  176.9000  137.2280 C   0  0  1  0  0  3  0  0  0  0  0  0
  188.1880  179.1210  137.6540 O   0  0  0  0  0  1  0  0  0  0  0  0
  188.4990  178.7880  141.6750 C   0  0  0  0  0  3  0  0  0  0  0  0
  188.4180  177.5440  139.4740 C   0  0  2  0  0  3  0  0  0  0  0  0
  185.5750  178.0400  138.4710 C   0  0  0  0  0  3  0  0  0  0  0  0
  184.2800  178.0370  138.1220 C   0  0  0  0  0  0  0  0  0  0  0  0
  186.2270  177.2290  136.2250 C   0  0  0  0  0  0  0  0  0  0  0  0
  184.8400  177.2890  135.8780 N   0  0  0  0  0  2  0  0  0  0  0  0
  183.8160  177.2670  136.9180 C   0  0  0  0  0  2  0  0  0  0  0  0
  183.2910  178.7770  138.9530 C   0  0  0  0  0  1  0  0  0  0  0  0
  187.0850  177.1070  135.3130 O   0  0  0  0  0  0  0  0  0  0  0  0
  186.6190  177.2680  137.6900 C   0  0  1  0  0  3  0  0  0  0  0  0
  191.2570  175.3010  143.3680 O   0  0  0  0  0  1  0  0  0  0  0  0
  189.9210  175.4850  143.0070 C   0  0  0  0  0  2  0  0  0  0  0  0
  190.8340  178.7490  142.6930 C   0  0  0  0  0  2  0  0  0  0  0  0
  190.8620  179.3530  144.0960 C   0  0  0  0  0  2  0  0  0  0  0  0
  191.0910  176.7810  146.5610 C   0  0  0  0  0  3  0  0  0  0  0  0
  189.4450  178.0250  145.7410 C   0  0  0  0  0  3  0  0  0  0  0  0
  191.6070  177.5730  145.6530 O   0  0  0  0  0  0  0  0  0  0  0  0
  189.7300  177.0250  146.6540 C   0  0  0  0  0  3  0  0  0  0  0  0
  190.6540  178.3140  145.1480 C   0  0  0  0  0  0  0  0  0  0  0  0
  1 14  2  0  0  0  0
  2  6  1  0  0  0  0
  3 11  1  0  0  0  0
  3  2  1  0  0  0  0
  4 26  1  6  0  0  0
  5 10  2  0  0  0  0
  6  8  2  0  0  0  0
  7  5  1  1  0  0  0
  8  7  1  0  0  0  0
  9 13  1  6  0  0  0
  9 15  1  0  0  0  0
 10  4  1  0  0  0  0
 10 25  1  0  0  0  0
 12 11  1  6  0  0  0
 12  9  1  0  0  0  0
 12  8  1  0  0  0  0
 14  4  1  0  0  0  0
 15  7  1  0  0  0  0
 15  1  1  1  0  0  0
 17 16  2  0  0  0  0
 17 21  1  0  0  0  0
 18 23  1  0  0  0  0
 19 18  1  0  0  0  0
 19 20  1  0  0  0  0
 20 17  1  0  0  0  0
 22 18  2  0  0  0  0
 23  9  1  0  0  0  0
 23 16  1  1  0  0  0
 25 24  1  0  0  0  0
 26 27  1  0  0  0  0
 27 32  1  0  0  0  0
 28 31  2  0  0  0  0
 29 31  1  0  0  0  0
 30 28  1  0  0  0  0
 32 30  1  0  0  0  0
 32 29  2  0  0  0  0
M  END
>  <MODEL>
5

>  <REMARK>
 VINA RESULT:      -5.9      3.881      7.142
  Name = 
  5 active torsions:
  status: ('A' for Active; 'I' for Inactive)
    1  A    between atoms: C_8  and  C_23
    2  A    between atoms: C_12  and  C_21
    3  A    between atoms: C_16  and  C_32
    4  A    between atoms: C_19  and  C_23
    5  A    between atoms: C_19  and  C_24
                            x       y       z     vdW  Elec       q    Type
                         _______ _______ _______ _____ _____    ______ ____

>  <TORSDO>
F 5

$$$$
=
 OpenBabel10272413253D

 32 36  0  0  1  0  0  0  0  0999 V2000
  184.8410  179.3630  139.6540 C   0  0  0  0  0  3  0  0  0  0  0  0
  183.2530  178.4480  145.4320 C   0  0  0  0  0  2  0  0  0  0  0  0
  184.5150  179.2960  145.6870 C   0  0  0  0  0  2  0  0  0  0  0  0
  182.4020  179.1300  138.8540 C   0  0  2  0  0  3  0  0  0  0  0  0
  182.4080  177.8330  141.0110 C   0  0  0  0  0  3  0  0  0  0  0  0
  182.7690  178.5830  144.0170 C   0  0  0  0  0  3  0  0  0  0  0  0
  183.3730  178.7980  141.6130 C   0  0  1  0  0  3  0  0  0  0  0  0
  183.6710  178.5230  143.0320 C   0  0  0  0  0  0  0  0  0  0  0  0
  185.8250  178.7910  141.9810 C   0  0  2  0  0  0  0  0  0  0  0  0
  182.0110  177.9590  139.7350 C   0  0  0  0  0  0  0  0  0  0  0  0
  185.4430  179.4640  144.4640 C   0  0  0  0  0  2  0  0  0  0  0  0
  185.1320  178.4720  143.3270 C   0  0  1  0  0  3  0  0  0  0  0  0
  186.2810  180.1180  141.9450 O   0  0  0  0  0  1  0  0  0  0  0  0
  183.8590  179.5480  138.7530 C   0  0  0  0  0  3  0  0  0  0  0  0
  184.7050  178.5860  140.9350 C   0  0  2  0  0  3  0  0  0  0  0  0
  187.7720  178.1500  140.4690 C   0  0  0  0  0  3  0  0  0  0  0  0
  189.0070  177.6790  140.2430 C   0  0  0  0  0  0  0  0  0  0  0  0
  187.9670  177.6310  142.8810 C   0  0  0  0  0  0  0  0  0  0  0  0
  189.2980  177.1860  142.6050 N   0  0  0  0  0  2  0  0  0  0  0  0
  189.6830  176.7940  141.2530 C   0  0  0  0  0  2  0  0  0  0  0  0
  189.7010  178.0120  138.9690 C   0  0  0  0  0  1  0  0  0  0  0  0
  187.6180  177.8280  144.0740 O   0  0  0  0  0  0  0  0  0  0  0  0
  186.9990  177.8080  141.7270 C   0  0  1  0  0  3  0  0  0  0  0  0
  181.5380  175.6540  139.4600 O   0  0  0  0  0  1  0  0  0  0  0  0
  181.0780  176.9390  139.1680 C   0  0  0  0  0  2  0  0  0  0  0  0
  181.4380  180.3160  138.9400 C   0  0  0  0  0  2  0  0  0  0  0  0
  180.7150  180.6230  137.6300 C   0  0  0  0  0  2  0  0  0  0  0  0
  181.5150  184.0840  137.2770 C   0  0  0  0  0  3  0  0  0  0  0  0
  180.5270  182.5640  135.9960 C   0  0  0  0  0  3  0  0  0  0  0  0
  181.4950  182.9560  137.9440 O   0  0  0  0  0  0  0  0  0  0  0  0
  180.9170  183.8920  136.0430 C   0  0  0  0  0  3  0  0  0  0  0  0
  180.9090  182.0430  137.2110 C   0  0  0  0  0  0  0  0  0  0  0  0
  2  3  1  0  0  0  0
  4 26  1  1  0  0  0
  4 10  1  0  0  0  0
  6  2  1  0  0  0  0
  7  5  1  6  0  0  0
  7  8  1  0  0  0  0
  8 12  1  0  0  0  0
  8  6  2  0  0  0  0
  9 13  1  6  0  0  0
  9 12  1  0  0  0  0
 10  5  2  0  0  0  0
 11  3  1  0  0  0  0
 12 11  1  1  0  0  0
 14  4  1  0  0  0  0
 14  1  2  0  0  0  0
 15  1  1  6  0  0  0
 15  7  1  0  0  0  0
 15  9  1  0  0  0  0
 17 16  2  0  0  0  0
 17 20  1  0  0  0  0
 18 22  2  0  0  0  0
 19 18  1  0  0  0  0
 20 19  1  0  0  0  0
 21 17  1  0  0  0  0
 23 16  1  6  0  0  0
 23  9  1  0  0  0  0
 23 18  1  0  0  0  0
 25 24  1  0  0  0  0
 25 10  1  0  0  0  0
 27 26  1  0  0  0  0
 28 30  1  0  0  0  0
 29 31  1  0  0  0  0
 29 32  2  0  0  0  0
 31 28  2  0  0  0  0
 32 27  1  0  0  0  0
 32 30  1  0  0  0  0
M  END
>  <MODEL>
6

>  <REMARK>
 VINA RESULT:      -5.9      6.052     11.646
  Name = 
  5 active torsions:
  status: ('A' for Active; 'I' for Inactive)
    1  A    between atoms: C_8  and  C_23
    2  A    between atoms: C_12  and  C_21
    3  A    between atoms: C_16  and  C_32
    4  A    between atoms: C_19  and  C_23
    5  A    between atoms: C_19  and  C_24
                            x       y       z     vdW  Elec       q    Type
                         _______ _______ _______ _____ _____    ______ ____

>  <TORSDO>
F 5

$$$$
=
 OpenBabel10272413253D

 32 36  0  0  1  0  0  0  0  0999 V2000
  191.2550  175.8960  138.2310 C   0  0  0  0  0  3  0  0  0  0  0  0
  186.7370  173.6560  134.8680 C   0  0  0  0  0  2  0  0  0  0  0  0
  187.4990  172.3380  135.1110 C   0  0  0  0  0  2  0  0  0  0  0  0
  189.7870  177.8400  139.0680 C   0  0  2  0  0  3  0  0  0  0  0  0
  188.7010  177.2220  136.8840 C   0  0  0  0  0  3  0  0  0  0  0  0
  187.1530  174.7250  135.8370 C   0  0  0  0  0  3  0  0  0  0  0  0
  189.0080  175.7810  137.1160 C   0  0  1  0  0  3  0  0  0  0  0  0
  188.4580  174.8890  136.0760 C   0  0  0  0  0  0  0  0  0  0  0  0
  190.7680  174.2330  136.3050 C   0  0  2  0  0  0  0  0  0  0  0  0
  189.1070  178.1630  137.7510 C   0  0  0  0  0  0  0  0  0  0  0  0
  188.9350  172.5080  135.6540 C   0  0  0  0  0  2  0  0  0  0  0  0
  189.4690  173.9460  135.5150 C   0  0  1  0  0  3  0  0  0  0  0  0
  190.9890  173.2610  137.2920 O   0  0  0  0  0  1  0  0  0  0  0  0
  190.9660  176.8830  139.0980 C   0  0  0  0  0  3  0  0  0  0  0  0
  190.5000  175.6070  136.9630 C   0  0  2  0  0  3  0  0  0  0  0  0
  192.8330  175.5440  135.5940 C   0  0  0  0  0  3  0  0  0  0  0  0
  194.0930  175.6410  135.1460 C   0  0  0  0  0  0  0  0  0  0  0  0
  192.8710  173.0870  135.3030 C   0  0  0  0  0  0  0  0  0  0  0  0
  194.2300  173.2280  134.8780 N   0  0  0  0  0  2  0  0  0  0  0  0
  194.7190  174.5100  134.3790 C   0  0  0  0  0  2  0  0  0  0  0  0
  194.8660  176.8900  135.3850 C   0  0  0  0  0  1  0  0  0  0  0  0
  192.4340  171.9430  135.5950 O   0  0  0  0  0  0  0  0  0  0  0  0
  191.9820  174.3150  135.3430 C   0  0  1  0  0  3  0  0  0  0  0  0
  187.5630  179.7110  136.8410 O   0  0  0  0  0  1  0  0  0  0  0  0
  188.8130  179.5950  137.4480 C   0  0  0  0  0  2  0  0  0  0  0  0
  188.8130  177.6370  140.2320 C   0  0  0  0  0  2  0  0  0  0  0  0
  189.4750  177.1310  141.5130 C   0  0  0  0  0  2  0  0  0  0  0  0
  186.7910  177.5620  143.8260 C   0  0  0  0  0  3  0  0  0  0  0  0
  188.9520  177.0840  144.0020 C   0  0  0  0  0  3  0  0  0  0  0  0
  187.2910  177.5350  142.6150 O   0  0  0  0  0  0  0  0  0  0  0  0
  187.7960  177.2840  144.7380 C   0  0  0  0  0  3  0  0  0  0  0  0
  188.5690  177.2630  142.6920 C   0  0  0  0  0  0  0  0  0  0  0  0
  1 14  2  0  0  0  0
  2  3  1  0  0  0  0
  2  6  1  0  0  0  0
  3 11  1  0  0  0  0
  4 14  1  0  0  0  0
  4 26  1  1  0  0  0
  5 10  2  0  0  0  0
  6  8  2  0  0  0  0
  7  5  1  6  0  0  0
  8  7  1  0  0  0  0
  9 15  1  0  0  0  0
  9 13  1  1  0  0  0
 10  4  1  0  0  0  0
 12 11  1  1  0  0  0
 12  8  1  0  0  0  0
 12  9  1  0  0  0  0
 15  7  1  0  0  0  0
 15  1  1  1  0  0  0
 17 21  1  0  0  0  0
 17 16  2  0  0  0  0
 18 23  1  0  0  0  0
 18 22  2  0  0  0  0
 19 18  1  0  0  0  0
 20 19  1  0  0  0  0
 20 17  1  0  0  0  0
 23 16  1  1  0  0  0
 23  9  1  0  0  0  0
 24 25  1  0  0  0  0
 25 10  1  0  0  0  0
 26 27  1  0  0  0  0
 27 32  1  0  0  0  0
 28 31  2  0  0  0  0
 29 31  1  0  0  0  0
 30 32  1  0  0  0  0
 30 28  1  0  0  0  0
 32 29  2  0  0  0  0
M  END
>  <MODEL>
7

>  <REMARK>
 VINA RESULT:      -5.7      3.069      7.485
  Name = 
  5 active torsions:
  status: ('A' for Active; 'I' for Inactive)
    1  A    between atoms: C_8  and  C_23
    2  A    between atoms: C_12  and  C_21
    3  A    between atoms: C_16  and  C_32
    4  A    between atoms: C_19  and  C_23
    5  A    between atoms: C_19  and  C_24
                            x       y       z     vdW  Elec       q    Type
                         _______ _______ _______ _____ _____    ______ ____

>  <TORSDO>
F 5

$$$$
=
 OpenBabel10272413253D

 32 36  0  0  1  0  0  0  0  0999 V2000
  183.7230  176.8690  137.6040 C   0  0  0  0  0  3  0  0  0  0  0  0
  185.2320  179.4970  142.8540 C   0  0  0  0  0  2  0  0  0  0  0  0
  183.9660  178.7620  143.3370 C   0  0  0  0  0  2  0  0  0  0  0  0
  186.1720  176.8570  136.8040 C   0  0  2  0  0  3  0  0  0  0  0  0
  186.1380  178.7470  138.4660 C   0  0  0  0  0  3  0  0  0  0  0  0
  185.7350  178.9410  141.5520 C   0  0  0  0  0  3  0  0  0  0  0  0
  185.1640  178.0060  139.3190 C   0  0  1  0  0  3  0  0  0  0  0  0
  184.8460  178.6970  140.5840 C   0  0  0  0  0  0  0  0  0  0  0  0
  182.7070  178.1150  139.6350 C   0  0  2  0  0  0  0  0  0  0  0  0
  186.5520  178.2420  137.2930 C   0  0  0  0  0  0  0  0  0  0  0  0
  183.0540  178.2280  142.2090 C   0  0  0  0  0  2  0  0  0  0  0  0
  183.3810  178.8300  140.8300 C   0  0  1  0  0  3  0  0  0  0  0  0
  182.2510  176.8390  139.9960 O   0  0  0  0  0  1  0  0  0  0  0  0
  184.7160  176.4240  136.8140 C   0  0  0  0  0  3  0  0  0  0  0  0
  183.8410  177.9980  138.5900 C   0  0  2  0  0  3  0  0  0  0  0  0
  181.9580  180.3960  138.7820 C   0  0  0  0  0  3  0  0  0  0  0  0
  181.2410  181.1980  137.9820 C   0  0  0  0  0  0  0  0  0  0  0  0
  180.8200  178.3950  137.8730 C   0  0  0  0  0  0  0  0  0  0  0  0
  180.1110  179.2810  137.0010 N   0  0  0  0  0  2  0  0  0  0  0  0
  179.9820  180.6970  137.3310 C   0  0  0  0  0  2  0  0  0  0  0  0
  181.6800  182.6030  137.7610 C   0  0  0  0  0  1  0  0  0  0  0  0
  180.7990  177.1580  137.6440 O   0  0  0  0  0  0  0  0  0  0  0  0
  181.5370  178.9710  139.0790 C   0  0  1  0  0  3  0  0  0  0  0  0
  188.5510  179.5120  137.2370 O   0  0  0  0  0  1  0  0  0  0  0  0
  187.4930  179.0450  136.4560 C   0  0  0  0  0  2  0  0  0  0  0  0
  187.1350  175.7570  137.2570 C   0  0  0  0  0  2  0  0  0  0  0  0
  188.4340  175.7020  136.4570 C   0  0  0  0  0  2  0  0  0  0  0  0
  191.6400  176.4220  137.8530 C   0  0  0  0  0  3  0  0  0  0  0  0
  189.5520  176.4870  138.6030 C   0  0  0  0  0  3  0  0  0  0  0  0
  190.8550  176.0380  136.8760 O   0  0  0  0  0  0  0  0  0  0  0  0
  190.8680  176.7160  138.9650 C   0  0  0  0  0  3  0  0  0  0  0  0
  189.6160  176.0600  137.2960 C   0  0  0  0  0  0  0  0  0  0  0  0
  2  3  1  0  0  0  0
  4 14  1  0  0  0  0
  4 26  1  1  0  0  0
  4 10  1  0  0  0  0
  6  2  1  0  0  0  0
  7  5  1  6  0  0  0
  7  8  1  0  0  0  0
  8 12  1  0  0  0  0
  8  6  2  0  0  0  0
  9 13  1  1  0  0  0
  9 12  1  0  0  0  0
 10  5  2  0  0  0  0
 11  3  1  0  0  0  0
 12 11  1  1  0  0  0
 14  1  2  0  0  0  0
 15  1  1  1  0  0  0
 15  7  1  0  0  0  0
 15  9  1  0  0  0  0
 17 16  2  0  0  0  0
 18 23  1  0  0  0  0
 19 20  1  0  0  0  0
 19 18  1  0  0  0  0
 20 17  1  0  0  0  0
 21 17  1  0  0  0  0
 22 18  2  0  0  0  0
 23 16  1  6  0  0  0
 23  9  1  0  0  0  0
 25 24  1  0  0  0  0
 25 10  1  0  0  0  0
 27 26  1  0  0  0  0
 27 32  1  0  0  0  0
 28 31  2  0  0  0  0
 29 31  1  0  0  0  0
 30 32  1  0  0  0  0
 30 28  1  0  0  0  0
 32 29  2  0  0  0  0
M  END
>  <MODEL>
8

>  <REMARK>
 VINA RESULT:      -5.6      5.171      8.692
  Name = 
  5 active torsions:
  status: ('A' for Active; 'I' for Inactive)
    1  A    between atoms: C_8  and  C_23
    2  A    between atoms: C_12  and  C_21
    3  A    between atoms: C_16  and  C_32
    4  A    between atoms: C_19  and  C_23
    5  A    between atoms: C_19  and  C_24
                            x       y       z     vdW  Elec       q    Type
                         _______ _______ _______ _____ _____    ______ ____

>  <TORSDO>
F 5

$$$$
=
 OpenBabel10272413253D

 32 36  0  0  1  0  0  0  0  0999 V2000
  191.5900  174.7130  135.7180 C   0  0  0  0  0  3  0  0  0  0  0  0
  192.2440  177.7420  140.9280 C   0  0  0  0  0  2  0  0  0  0  0  0
  190.9200  177.0250  141.2600 C   0  0  0  0  0  2  0  0  0  0  0  0
  194.1350  174.6790  135.3150 C   0  0  2  0  0  3  0  0  0  0  0  0
  193.8330  176.6850  136.8050 C   0  0  0  0  0  3  0  0  0  0  0  0
  192.9470  177.0990  139.7670 C   0  0  0  0  0  3  0  0  0  0  0  0
  192.7390  175.9940  137.5480 C   0  0  1  0  0  3  0  0  0  0  0  0
  192.2240  176.7720  138.6920 C   0  0  0  0  0  0  0  0  0  0  0  0
  190.2620  176.0900  137.4650 C   0  0  2  0  0  0  0  0  0  0  0  0
  194.4290  176.1020  135.7530 C   0  0  0  0  0  0  0  0  0  0  0  0
  190.1990  176.3960  140.0470 C   0  0  0  0  0  2  0  0  0  0  0  0
  190.7380  176.9000  138.6950 C   0  0  1  0  0  3  0  0  0  0  0  0
  189.7600  174.8370  137.8450 O   0  0  0  0  0  1  0  0  0  0  0  0
  192.6970  174.2260  135.1300 C   0  0  0  0  0  3  0  0  0  0  0  0
  191.5480  175.9130  136.6240 C   0  0  2  0  0  3  0  0  0  0  0  0
  187.9470  176.0630  136.4040 C   0  0  0  0  0  3  0  0  0  0  0  0
  186.7810  176.6300  136.0620 C   0  0  0  0  0  0  0  0  0  0  0  0
  188.7960  178.2240  137.2630 C   0  0  0  0  0  0  0  0  0  0  0  0
  187.5200  178.7780  136.9300 N   0  0  0  0  0  2  0  0  0  0  0  0
  186.6640  178.1240  135.9450 C   0  0  0  0  0  2  0  0  0  0  0  0
  185.6020  175.7700  135.7690 C   0  0  0  0  0  1  0  0  0  0  0  0
  189.5750  178.8750  138.0060 O   0  0  0  0  0  0  0  0  0  0  0  0
  189.1920  176.8850  136.6700 C   0  0  1  0  0  3  0  0  0  0  0  0
  195.4700  178.1990  135.3940 O   0  0  0  0  0  1  0  0  0  0  0  0
  195.4870  176.8560  135.0170 C   0  0  0  0  0  2  0  0  0  0  0  0
  195.0170  173.6300  135.9960 C   0  0  0  0  0  2  0  0  0  0  0  0
  194.7490  173.4690  137.4910 C   0  0  0  0  0  2  0  0  0  0  0  0
  196.8660  174.8800  139.9950 C   0  0  0  0  0  3  0  0  0  0  0  0
  197.1320  174.2710  137.8770 C   0  0  0  0  0  3  0  0  0  0  0  0
  195.7160  174.4190  139.5670 O   0  0  0  0  0  0  0  0  0  0  0  0
  197.7920  174.8090  138.9680 C   0  0  0  0  0  3  0  0  0  0  0  0
  195.8440  174.0590  138.3160 C   0  0  0  0  0  0  0  0  0  0  0  0
  2  3  1  0  0  0  0
  4 10  1  0  0  0  0
  4 26  1  1  0  0  0
  6  2  1  0  0  0  0
  7  5  1  6  0  0  0
  7  8  1  0  0  0  0
  8 12  1  0  0  0  0
  8  6  2  0  0  0  0
  9 13  1  1  0  0  0
  9 12  1  0  0  0  0
 10  5  2  0  0  0  0
 11  3  1  0  0  0  0
 12 11  1  1  0  0  0
 14  4  1  0  0  0  0
 14  1  2  0  0  0  0
 15  1  1  1  0  0  0
 15  9  1  0  0  0  0
 15  7  1  0  0  0  0
 17 16  2  0  0  0  0
 18 22  2  0  0  0  0
 19 18  1  0  0  0  0
 20 17  1  0  0  0  0
 20 19  1  0  0  0  0
 21 17  1  0  0  0  0
 23 16  1  1  0  0  0
 23 18  1  0  0  0  0
 23  9  1  0  0  0  0
 25 24  1  0  0  0  0
 25 10  1  0  0  0  0
 26 27  1  0  0  0  0
 27 32  1  0  0  0  0
 29 32  2  0  0  0  0
 29 31  1  0  0  0  0
 30 28  1  0  0  0  0
 31 28  2  0  0  0  0
 32 30  1  0  0  0  0
M  END
>  <MODEL>
9

>  <REMARK>
 VINA RESULT:      -5.6      1.840      4.321
  Name = 
  5 active torsions:
  status: ('A' for Active; 'I' for Inactive)
    1  A    between atoms: C_8  and  C_23
    2  A    between atoms: C_12  and  C_21
    3  A    between atoms: C_16  and  C_32
    4  A    between atoms: C_19  and  C_23
    5  A    between atoms: C_19  and  C_24
                            x       y       z     vdW  Elec       q    Type
                         _______ _______ _______ _____ _____    ______ ____

>  <TORSDO>
F 5

$$$$
