=
 OpenBabel10272400513D

 25 27  0  0  1  0  0  0  0  0999 V2000
  190.9030  176.4500  145.3390 N   0  0  0  0  0  0  0  0  0  0  0  0
  189.7510  177.0670  145.6380 C   0  0  0  0  0  0  0  0  0  0  0  0
  191.5430  176.3370  146.5300 C   0  0  0  0  0  3  0  0  0  0  0  0
  186.4310  178.1620  144.6360 C   0  0  0  0  0  0  0  0  0  0  0  0
  190.8320  176.8770  147.5580 N   0  0  0  0  0  0  0  0  0  0  0  0
  188.5220  177.9220  147.6000 C   0  0  0  0  0  0  0  0  0  0  0  0
  188.4920  178.2170  149.0580 C   0  0  0  0  0  1  0  0  0  0  0  0
  185.4010  178.4350  143.8810 C   0  0  0  0  0  3  0  0  0  0  0  0
  188.6330  177.2930  144.7800 N   0  0  0  0  0  2  0  0  0  0  0  0
  191.3430  175.9090  144.0830 C   0  0  0  0  0  0  0  0  0  0  0  0
  192.0580  174.8700  144.0810 O   0  0  0  0  0  0  0  0  0  0  0  0
  187.4510  178.1920  146.8330 C   0  0  0  0  0  3  0  0  0  0  0  0
  187.4670  177.8880  145.3750 C   0  0  0  0  0  0  0  0  0  0  0  0
  189.7090  177.3270  146.9680 C   0  0  0  0  0  0  0  0  0  0  0  0
  191.0020  176.5510  142.7960 C   0  0  0  0  0  0  0  0  0  0  0  0
  190.3630  177.7010  140.3560 N   0  0  0  0  0  0  0  0  0  0  0  0
  189.7370  176.3590  142.2300 C   0  0  0  0  0  3  0  0  0  0  0  0
  189.4320  176.9500  141.0020 C   0  0  0  0  0  3  0  0  0  0  0  0
  191.6050  177.8930  140.8770 C   0  0  0  0  0  3  0  0  0  0  0  0
  191.9470  177.3180  142.1020 C   0  0  0  0  0  3  0  0  0  0  0  0
  185.3360  177.9480  142.4690 C   0  0  2  0  0  3  0  0  0  0  0  0
  186.3450  178.6740  141.5930 C   0  0  0  0  0  1  0  0  0  0  0  0
  183.9570  178.1170  141.9230 C   0  0  0  0  0  0  0  0  0  0  0  0
  183.0120  178.8220  142.6560 O   0  0  0  0  0  1  0  0  0  0  0  0
  183.6440  177.6300  140.8040 O   0  0  0  0  0  0  0  0  0  0  0  0
  1  2  1  0  0  0  0
  1  3  1  0  0  0  0
  2 14  2  0  0  0  0
  3  5  2  0  0  0  0
  4 13  2  0  0  0  0
  6  7  1  0  0  0  0
  8  4  2  0  0  0  0
  9 13  1  0  0  0  0
  9  2  1  0  0  0  0
 10  1  1  0  0  0  0
 11 10  2  0  0  0  0
 12  6  2  0  0  0  0
 13 12  1  0  0  0  0
 14  5  1  0  0  0  0
 14  6  1  0  0  0  0
 15 10  1  0  0  0  0
 16 19  2  0  0  0  0
 16 18  1  0  0  0  0
 17 15  1  0  0  0  0
 18 17  2  0  0  0  0
 19 20  1  0  0  0  0
 20 15  2  0  0  0  0
 21 22  1  6  0  0  0
 21  8  1  0  0  0  0
 23 21  1  0  0  0  0
 23 24  1  0  0  0  0
 25 23  2  0  0  0  0
M  END
>  <MODEL>
1

>  <REMARK>
 VINA RESULT:      -8.8      0.000      0.000
  Name = 
  3 active torsions:
  status: ('A' for Active; 'I' for Inactive)
    1  A    between atoms: C_2  and  C_21
    2  A    between atoms: C_5  and  C_18
    3  A    between atoms: C_15  and  C_21
                            x       y       z     vdW  Elec       q    Type
                         _______ _______ _______ _____ _____    ______ ____

>  <TORSDO>
F 3

$$$$
=
 OpenBabel10272400513D

 25 27  0  0  1  0  0  0  0  0999 V2000
  187.5250  177.7750  145.6850 N   0  0  0  0  0  0  0  0  0  0  0  0
  186.8850  178.1510  144.5690 C   0  0  0  0  0  0  0  0  0  0  0  0
  186.6160  177.9640  146.6740 C   0  0  0  0  0  3  0  0  0  0  0  0
  186.7600  178.3360  140.9390 C   0  0  0  0  0  0  0  0  0  0  0  0
  185.4360  178.4600  146.2110 N   0  0  0  0  0  0  0  0  0  0  0  0
  184.6670  178.9580  143.8460 C   0  0  0  0  0  0  0  0  0  0  0  0
  183.3010  179.4260  144.2030 C   0  0  0  0  0  1  0  0  0  0  0  0
  187.1360  178.2720  139.6910 C   0  0  0  0  0  3  0  0  0  0  0  0
  187.3260  178.0090  143.2190 N   0  0  0  0  0  2  0  0  0  0  0  0
  188.8280  177.1880  145.8290 C   0  0  0  0  0  0  0  0  0  0  0  0
  189.0210  176.3440  146.7460 O   0  0  0  0  0  0  0  0  0  0  0  0
  185.0400  178.8800  142.5570 C   0  0  0  0  0  3  0  0  0  0  0  0
  186.4020  178.3990  142.1890 C   0  0  0  0  0  0  0  0  0  0  0  0
  185.6330  178.5670  144.8840 C   0  0  0  0  0  0  0  0  0  0  0  0
  189.9550  177.5640  144.9490 C   0  0  0  0  0  0  0  0  0  0  0  0
  192.0280  178.2970  143.2620 N   0  0  0  0  0  0  0  0  0  0  0  0
  190.3400  178.9050  144.8400 C   0  0  0  0  0  3  0  0  0  0  0  0
  191.3910  179.2550  143.9880 C   0  0  0  0  0  3  0  0  0  0  0  0
  191.6640  176.9890  143.3390 C   0  0  0  0  0  3  0  0  0  0  0  0
  190.6190  176.6010  144.1790 C   0  0  0  0  0  3  0  0  0  0  0  0
  188.4170  177.6030  139.3100 C   0  0  2  0  0  3  0  0  0  0  0  0
  189.4160  177.6410  140.4560 C   0  0  0  0  0  1  0  0  0  0  0  0
  188.9980  178.2440  138.0930 C   0  0  0  0  0  0  0  0  0  0  0  0
  189.5940  177.4530  137.1210 O   0  0  0  0  0  0  0  0  0  0  0  0
  188.9510  179.4940  137.9400 O   0  0  0  0  0  1  0  0  0  0  0  0
  1 10  1  0  0  0  0
  1  3  1  0  0  0  0
  2 14  2  0  0  0  0
  2  1  1  0  0  0  0
  4 13  2  0  0  0  0
  5  3  2  0  0  0  0
  6  7  1  0  0  0  0
  6 14  1  0  0  0  0
  8  4  2  0  0  0  0
  9  2  1  0  0  0  0
 10 11  2  0  0  0  0
 12  6  2  0  0  0  0
 13 12  1  0  0  0  0
 13  9  1  0  0  0  0
 14  5  1  0  0  0  0
 15 10  1  0  0  0  0
 16 19  2  0  0  0  0
 16 18  1  0  0  0  0
 17 15  1  0  0  0  0
 18 17  2  0  0  0  0
 19 20  1  0  0  0  0
 20 15  2  0  0  0  0
 21  8  1  0  0  0  0
 21 22  1  1  0  0  0
 23 21  1  0  0  0  0
 24 23  2  0  0  0  0
 25 23  1  0  0  0  0
M  END
>  <MODEL>
2

>  <REMARK>
 VINA RESULT:      -8.6      2.809      4.665
  Name = 
  3 active torsions:
  status: ('A' for Active; 'I' for Inactive)
    1  A    between atoms: C_2  and  C_21
    2  A    between atoms: C_5  and  C_18
    3  A    between atoms: C_15  and  C_21
                            x       y       z     vdW  Elec       q    Type
                         _______ _______ _______ _____ _____    ______ ____

>  <TORSDO>
F 3

$$$$
=
 OpenBabel10272400513D

 25 27  0  0  1  0  0  0  0  0999 V2000
  189.7040  176.7620  144.5350 N   0  0  0  0  0  0  0  0  0  0  0  0
  188.6830  177.3430  145.1790 C   0  0  0  0  0  0  0  0  0  0  0  0
  190.6270  176.5350  145.5030 C   0  0  0  0  0  3  0  0  0  0  0  0
  185.2430  178.5240  145.1800 C   0  0  0  0  0  0  0  0  0  0  0  0
  190.2190  176.9700  146.7260 N   0  0  0  0  0  0  0  0  0  0  0  0
  188.0220  178.0010  147.4650 C   0  0  0  0  0  0  0  0  0  0  0  0
  188.3770  178.1530  148.9020 C   0  0  0  0  0  1  0  0  0  0  0  0
  184.0600  178.8670  144.7470 C   0  0  0  0  0  3  0  0  0  0  0  0
  187.3870  177.6500  144.6660 N   0  0  0  0  0  2  0  0  0  0  0  0
  189.7920  176.3470  143.1620 C   0  0  0  0  0  0  0  0  0  0  0  0
  190.4580  175.3140  142.8770 O   0  0  0  0  0  0  0  0  0  0  0  0
  186.7960  178.3430  147.0310 C   0  0  0  0  0  3  0  0  0  0  0  0
  186.4280  178.1810  145.5960 C   0  0  0  0  0  0  0  0  0  0  0  0
  188.9920  177.4730  146.4930 C   0  0  0  0  0  0  0  0  0  0  0  0
  189.1460  177.1100  142.0740 C   0  0  0  0  0  0  0  0  0  0  0  0
  187.9740  178.5850  140.0400 N   0  0  0  0  0  0  0  0  0  0  0  0
  189.8060  177.2840  140.8530 C   0  0  0  0  0  3  0  0  0  0  0  0
  189.1980  178.0270  139.8380 C   0  0  0  0  0  3  0  0  0  0  0  0
  187.3170  178.4430  141.2230 C   0  0  0  0  0  3  0  0  0  0  0  0
  187.8920  177.7080  142.2600 C   0  0  0  0  0  3  0  0  0  0  0  0
  183.6210  178.5190  143.3610 C   0  0  2  0  0  3  0  0  0  0  0  0
  184.4400  179.2710  142.3240 C   0  0  0  0  0  1  0  0  0  0  0  0
  182.1680  178.8110  143.1870 C   0  0  0  0  0  0  0  0  0  0  0  0
  181.6780  179.1240  141.9260 O   0  0  0  0  0  0  0  0  0  0  0  0
  181.3810  178.7740  144.1710 O   0  0  0  0  0  1  0  0  0  0  0  0
  1  2  1  0  0  0  0
  1  3  1  0  0  0  0
  2 14  2  0  0  0  0
  3  5  2  0  0  0  0
  4 13  2  0  0  0  0
  6  7  1  0  0  0  0
  8  4  2  0  0  0  0
  9  2  1  0  0  0  0
  9 13  1  0  0  0  0
 10  1  1  0  0  0  0
 11 10  2  0  0  0  0
 12  6  2  0  0  0  0
 13 12  1  0  0  0  0
 14  5  1  0  0  0  0
 14  6  1  0  0  0  0
 15 20  1  0  0  0  0
 15 10  1  0  0  0  0
 16 19  1  0  0  0  0
 17 15  2  0  0  0  0
 18 16  2  0  0  0  0
 18 17  1  0  0  0  0
 19 20  2  0  0  0  0
 21 22  1  6  0  0  0
 21  8  1  0  0  0  0
 23 21  1  0  0  0  0
 23 25  1  0  0  0  0
 24 23  2  0  0  0  0
M  END
>  <MODEL>
3

>  <REMARK>
 VINA RESULT:      -8.5      1.478      2.088
  Name = 
  3 active torsions:
  status: ('A' for Active; 'I' for Inactive)
    1  A    between atoms: C_2  and  C_21
    2  A    between atoms: C_5  and  C_18
    3  A    between atoms: C_15  and  C_21
                            x       y       z     vdW  Elec       q    Type
                         _______ _______ _______ _____ _____    ______ ____

>  <TORSDO>
F 3

$$$$
=
 OpenBabel10272400513D

 25 27  0  0  1  0  0  0  0  0999 V2000
  187.3110  178.2030  146.8410 N   0  0  0  0  0  0  0  0  0  0  0  0
  188.2880  177.7880  146.0220 C   0  0  0  0  0  0  0  0  0  0  0  0
  187.7580  177.8930  148.0830 C   0  0  0  0  0  3  0  0  0  0  0  0
  189.7570  177.6800  142.6970 C   0  0  0  0  0  0  0  0  0  0  0  0
  188.9760  177.2850  148.0630 N   0  0  0  0  0  0  0  0  0  0  0  0
  190.5330  176.7660  146.1290 C   0  0  0  0  0  0  0  0  0  0  0  0
  191.6150  176.1450  146.9390 C   0  0  0  0  0  1  0  0  0  0  0  0
  189.8870  177.8150  141.4050 C   0  0  0  0  0  3  0  0  0  0  0  0
  188.4050  178.0100  144.6170 N   0  0  0  0  0  2  0  0  0  0  0  0
  186.1090  178.9230  146.5250 C   0  0  0  0  0  0  0  0  0  0  0  0
  185.6610  179.7600  147.3550 O   0  0  0  0  0  0  0  0  0  0  0  0
  190.6820  176.9150  144.8010 C   0  0  0  0  0  3  0  0  0  0  0  0
  189.6100  177.5480  143.9830 C   0  0  0  0  0  0  0  0  0  0  0  0
  189.2860  177.2330  146.7540 C   0  0  0  0  0  0  0  0  0  0  0  0
  185.3690  178.6920  145.2660 C   0  0  0  0  0  0  0  0  0  0  0  0
  183.9440  178.2210  142.9350 N   0  0  0  0  0  0  0  0  0  0  0  0
  184.0680  179.1870  145.1170 C   0  0  0  0  0  3  0  0  0  0  0  0
  183.3670  178.9430  143.9330 C   0  0  0  0  0  3  0  0  0  0  0  0
  185.2010  177.7170  143.0600 C   0  0  0  0  0  3  0  0  0  0  0  0
  185.9330  177.9390  144.2280 C   0  0  0  0  0  3  0  0  0  0  0  0
  188.9100  178.6270  140.6170 C   0  0  2  0  0  3  0  0  0  0  0  0
  187.4820  178.3360  141.0500 C   0  0  0  0  0  1  0  0  0  0  0  0
  189.0740  178.3650  139.1560 C   0  0  0  0  0  0  0  0  0  0  0  0
  189.3290  177.0740  138.7170 O   0  0  0  0  0  1  0  0  0  0  0  0
  188.9790  179.3030  138.3200 O   0  0  0  0  0  0  0  0  0  0  0  0
  1  3  1  0  0  0  0
  2 14  2  0  0  0  0
  2  1  1  0  0  0  0
  4 13  2  0  0  0  0
  5  3  2  0  0  0  0
  6 14  1  0  0  0  0
  6  7  1  0  0  0  0
  8  4  2  0  0  0  0
  9  2  1  0  0  0  0
 10  1  1  0  0  0  0
 10 11  2  0  0  0  0
 12  6  2  0  0  0  0
 13  9  1  0  0  0  0
 13 12  1  0  0  0  0
 14  5  1  0  0  0  0
 15 10  1  0  0  0  0
 16 19  2  0  0  0  0
 16 18  1  0  0  0  0
 17 15  1  0  0  0  0
 18 17  2  0  0  0  0
 19 20  1  0  0  0  0
 20 15  2  0  0  0  0
 21 22  1  1  0  0  0
 21  8  1  0  0  0  0
 23 21  1  0  0  0  0
 24 23  1  0  0  0  0
 25 23  2  0  0  0  0
M  END
>  <MODEL>
4

>  <REMARK>
 VINA RESULT:      -8.2      2.659      5.203
  Name = 
  3 active torsions:
  status: ('A' for Active; 'I' for Inactive)
    1  A    between atoms: C_2  and  C_21
    2  A    between atoms: C_5  and  C_18
    3  A    between atoms: C_15  and  C_21
                            x       y       z     vdW  Elec       q    Type
                         _______ _______ _______ _____ _____    ______ ____

>  <TORSDO>
F 3

$$$$
=
 OpenBabel10272400513D

 25 27  0  0  1  0  0  0  0  0999 V2000
  190.1930  176.9500  141.1370 N   0  0  0  0  0  0  0  0  0  0  0  0
  189.2400  177.3440  141.9940 C   0  0  0  0  0  0  0  0  0  0  0  0
  191.2840  176.7470  141.9160 C   0  0  0  0  0  3  0  0  0  0  0  0
  185.7460  178.0980  142.6650 C   0  0  0  0  0  0  0  0  0  0  0  0
  191.0450  177.0160  143.2290 N   0  0  0  0  0  0  0  0  0  0  0  0
  188.9100  177.7040  144.4130 C   0  0  0  0  0  0  0  0  0  0  0  0
  189.4830  177.7640  145.7840 C   0  0  0  0  0  1  0  0  0  0  0  0
  184.4780  178.3350  142.4640 C   0  0  0  0  0  3  0  0  0  0  0  0
  187.8510  177.5390  141.7270 N   0  0  0  0  0  2  0  0  0  0  0  0
  190.0900  176.6770  139.7300 C   0  0  0  0  0  0  0  0  0  0  0  0
  190.8020  175.7630  139.2310 O   0  0  0  0  0  0  0  0  0  0  0  0
  187.5990  177.9340  144.2170 C   0  0  0  0  0  3  0  0  0  0  0  0
  187.0130  177.8630  142.8500 C   0  0  0  0  0  0  0  0  0  0  0  0
  189.7510  177.3880  143.2490 C   0  0  0  0  0  0  0  0  0  0  0  0
  189.1950  177.4540  138.8480 C   0  0  0  0  0  0  0  0  0  0  0  0
  187.5280  178.8750  137.1490 N   0  0  0  0  0  0  0  0  0  0  0  0
  187.9940  176.8930  138.3990 C   0  0  0  0  0  3  0  0  0  0  0  0
  187.1650  177.6260  137.5460 C   0  0  0  0  0  3  0  0  0  0  0  0
  188.6950  179.4380  137.5600 C   0  0  0  0  0  3  0  0  0  0  0  0
  189.5500  178.7370  138.4110 C   0  0  0  0  0  3  0  0  0  0  0  0
  183.8510  178.0660  141.1350 C   0  0  2  0  0  3  0  0  0  0  0  0
  184.5900  178.7950  140.0230 C   0  0  0  0  0  1  0  0  0  0  0  0
  182.4120  178.4640  141.1480 C   0  0  0  0  0  0  0  0  0  0  0  0
  181.6690  178.3890  139.9780 O   0  0  0  0  0  0  0  0  0  0  0  0
  181.8640  178.8630  142.2110 O   0  0  0  0  0  1  0  0  0  0  0  0
  1  3  1  0  0  0  0
  1  2  1  0  0  0  0
  2 14  2  0  0  0  0
  3  5  2  0  0  0  0
  4 13  2  0  0  0  0
  5 14  1  0  0  0  0
  6  7  1  0  0  0  0
  8  4  2  0  0  0  0
  9  2  1  0  0  0  0
  9 13  1  0  0  0  0
 10  1  1  0  0  0  0
 11 10  2  0  0  0  0
 12  6  2  0  0  0  0
 13 12  1  0  0  0  0
 14  6  1  0  0  0  0
 15 10  1  0  0  0  0
 16 18  2  0  0  0  0
 16 19  1  0  0  0  0
 17 15  2  0  0  0  0
 18 17  1  0  0  0  0
 19 20  2  0  0  0  0
 20 15  1  0  0  0  0
 21 22  1  6  0  0  0
 21 23  1  0  0  0  0
 21  8  1  0  0  0  0
 23 25  1  0  0  0  0
 24 23  2  0  0  0  0
M  END
>  <MODEL>
5

>  <REMARK>
 VINA RESULT:      -8.0      2.440      3.649
  Name = 
  3 active torsions:
  status: ('A' for Active; 'I' for Inactive)
    1  A    between atoms: C_2  and  C_21
    2  A    between atoms: C_5  and  C_18
    3  A    between atoms: C_15  and  C_21
                            x       y       z     vdW  Elec       q    Type
                         _______ _______ _______ _____ _____    ______ ____

>  <TORSDO>
F 3

$$$$
=
 OpenBabel10272400513D

 25 27  0  0  1  0  0  0  0  0999 V2000
  186.4650  178.4950  140.9970 N   0  0  0  0  0  0  0  0  0  0  0  0
  185.9070  178.4710  142.2160 C   0  0  0  0  0  0  0  0  0  0  0  0
  185.4280  178.7330  140.1560 C   0  0  0  0  0  3  0  0  0  0  0  0
  186.2790  178.4150  145.8330 C   0  0  0  0  0  0  0  0  0  0  0  0
  184.2400  178.8430  140.8110 N   0  0  0  0  0  0  0  0  0  0  0  0
  183.7080  178.7880  143.2900 C   0  0  0  0  0  0  0  0  0  0  0  0
  182.2410  178.9980  143.1570 C   0  0  0  0  0  1  0  0  0  0  0  0
  186.8330  178.3170  147.0110 C   0  0  0  0  0  3  0  0  0  0  0  0
  186.5690  178.4140  143.4790 N   0  0  0  0  0  2  0  0  0  0  0  0
  187.8530  178.4130  140.6340 C   0  0  0  0  0  0  0  0  0  0  0  0
  188.2620  179.0600  139.6320 O   0  0  0  0  0  0  0  0  0  0  0  0
  184.2710  178.7040  144.5080 C   0  0  0  0  0  3  0  0  0  0  0  0
  185.7410  178.5070  144.6510 C   0  0  0  0  0  0  0  0  0  0  0  0
  184.5710  178.6760  142.1040 C   0  0  0  0  0  0  0  0  0  0  0  0
  188.8080  177.5720  141.3860 C   0  0  0  0  0  0  0  0  0  0  0  0
  190.6120  175.9660  142.7460 N   0  0  0  0  0  0  0  0  0  0  0  0
  190.1830  177.7020  141.1620 C   0  0  0  0  0  3  0  0  0  0  0  0
  191.0770  176.8860  141.8600 C   0  0  0  0  0  3  0  0  0  0  0  0
  189.2800  175.8100  142.9730 C   0  0  0  0  0  3  0  0  0  0  0  0
  188.3560  176.6060  142.2940 C   0  0  0  0  0  3  0  0  0  0  0  0
  188.3200  178.3250  147.1620 C   0  0  2  0  0  3  0  0  0  0  0  0
  188.9650  177.2760  146.2700 C   0  0  0  0  0  1  0  0  0  0  0  0
  188.7000  178.0990  148.5880 C   0  0  0  0  0  0  0  0  0  0  0  0
  189.9950  178.3750  149.0030 O   0  0  0  0  0  0  0  0  0  0  0  0
  187.8570  177.6630  149.4170 O   0  0  0  0  0  1  0  0  0  0  0  0
  1  2  1  0  0  0  0
  2  9  1  0  0  0  0
  3  5  2  0  0  0  0
  3  1  1  0  0  0  0
  4  8  2  0  0  0  0
  5 14  1  0  0  0  0
  6 12  2  0  0  0  0
  7  6  1  0  0  0  0
  8 21  1  0  0  0  0
  9 13  1  0  0  0  0
 10  1  1  0  0  0  0
 10 15  1  0  0  0  0
 11 10  2  0  0  0  0
 12 13  1  0  0  0  0
 13  4  2  0  0  0  0
 14  2  2  0  0  0  0
 14  6  1  0  0  0  0
 15 20  1  0  0  0  0
 16 19  1  0  0  0  0
 17 15  2  0  0  0  0
 17 18  1  0  0  0  0
 18 16  2  0  0  0  0
 20 19  2  0  0  0  0
 21 22  1  6  0  0  0
 21 23  1  0  0  0  0
 23 24  2  0  0  0  0
 23 25  1  0  0  0  0
M  END
>  <MODEL>
6

>  <REMARK>
 VINA RESULT:      -7.8      2.930      5.999
  Name = 
  3 active torsions:
  status: ('A' for Active; 'I' for Inactive)
    1  A    between atoms: C_2  and  C_21
    2  A    between atoms: C_5  and  C_18
    3  A    between atoms: C_15  and  C_21
                            x       y       z     vdW  Elec       q    Type
                         _______ _______ _______ _____ _____    ______ ____

>  <TORSDO>
F 3

$$$$
=
 OpenBabel10272400513D

 25 27  0  0  1  0  0  0  0  0999 V2000
  189.0590  176.9760  144.0440 N   0  0  0  0  0  0  0  0  0  0  0  0
  187.8390  177.5160  144.1770 C   0  0  0  0  0  0  0  0  0  0  0  0
  189.5450  176.9240  145.3090 C   0  0  0  0  0  3  0  0  0  0  0  0
  184.6120  178.3660  142.7320 C   0  0  0  0  0  0  0  0  0  0  0  0
  188.6730  177.4270  146.2240 N   0  0  0  0  0  0  0  0  0  0  0  0
  186.3120  178.3120  145.9460 C   0  0  0  0  0  0  0  0  0  0  0  0
  186.0730  178.6240  147.3800 C   0  0  0  0  0  1  0  0  0  0  0  0
  183.6740  178.5570  141.8450 C   0  0  0  0  0  3  0  0  0  0  0  0
  186.8300  177.6530  143.1780 N   0  0  0  0  0  2  0  0  0  0  0  0
  189.6930  176.4490  142.8670 C   0  0  0  0  0  0  0  0  0  0  0  0
  190.4700  175.4620  142.9800 O   0  0  0  0  0  0  0  0  0  0  0  0
  185.3340  178.4970  145.0410 C   0  0  0  0  0  3  0  0  0  0  0  0
  185.5590  178.1740  143.6040 C   0  0  0  0  0  0  0  0  0  0  0  0
  187.6080  177.7910  145.4850 C   0  0  0  0  0  0  0  0  0  0  0  0
  189.4810  177.0480  141.5320 C   0  0  0  0  0  0  0  0  0  0  0  0
  189.1280  178.2090  139.0400 N   0  0  0  0  0  0  0  0  0  0  0  0
  190.4370  176.8740  140.5260 C   0  0  0  0  0  3  0  0  0  0  0  0
  190.2400  177.4630  139.2750 C   0  0  0  0  0  3  0  0  0  0  0  0
  188.1890  178.4060  140.0050 C   0  0  0  0  0  3  0  0  0  0  0  0
  188.3520  177.8340  141.2680 C   0  0  0  0  0  3  0  0  0  0  0  0
  183.8250  178.0470  140.4480 C   0  0  2  0  0  3  0  0  0  0  0  0
  184.2000  179.1690  139.4930 C   0  0  0  0  0  1  0  0  0  0  0  0
  182.5670  177.3820  139.9980 C   0  0  0  0  0  0  0  0  0  0  0  0
  182.6030  176.0600  139.5770 O   0  0  0  0  0  0  0  0  0  0  0  0
  181.4720  178.0070  139.9980 O   0  0  0  0  0  1  0  0  0  0  0  0
  1  2  1  0  0  0  0
  1  3  1  0  0  0  0
  2 14  2  0  0  0  0
  3  5  2  0  0  0  0
  4 13  2  0  0  0  0
  6  7  1  0  0  0  0
  8  4  2  0  0  0  0
  9 13  1  0  0  0  0
  9  2  1  0  0  0  0
 10 11  2  0  0  0  0
 10  1  1  0  0  0  0
 12  6  2  0  0  0  0
 13 12  1  0  0  0  0
 14  6  1  0  0  0  0
 14  5  1  0  0  0  0
 15 10  1  0  0  0  0
 16 18  2  0  0  0  0
 16 19  1  0  0  0  0
 17 15  2  0  0  0  0
 18 17  1  0  0  0  0
 19 20  2  0  0  0  0
 20 15  1  0  0  0  0
 21 22  1  6  0  0  0
 21  8  1  0  0  0  0
 23 21  1  0  0  0  0
 24 23  2  0  0  0  0
 25 23  1  0  0  0  0
M  END
>  <MODEL>
7

>  <REMARK>
 VINA RESULT:      -7.8      1.815      2.661
  Name = 
  3 active torsions:
  status: ('A' for Active; 'I' for Inactive)
    1  A    between atoms: C_2  and  C_21
    2  A    between atoms: C_5  and  C_18
    3  A    between atoms: C_15  and  C_21
                            x       y       z     vdW  Elec       q    Type
                         _______ _______ _______ _____ _____    ______ ____

>  <TORSDO>
F 3

$$$$
=
 OpenBabel10272400513D

 25 27  0  0  1  0  0  0  0  0999 V2000
  186.5310  178.4960  139.2910 N   0  0  0  0  0  0  0  0  0  0  0  0
  186.5090  178.2870  140.6150 C   0  0  0  0  0  0  0  0  0  0  0  0
  185.2650  178.8750  138.9880 C   0  0  0  0  0  3  0  0  0  0  0  0
  188.2960  177.6580  143.7190 C   0  0  0  0  0  0  0  0  0  0  0  0
  184.4510  178.8960  140.0790 N   0  0  0  0  0  0  0  0  0  0  0  0
  184.9560  178.4580  142.5260 C   0  0  0  0  0  0  0  0  0  0  0  0
  183.5800  178.7040  143.0340 C   0  0  0  0  0  1  0  0  0  0  0  0
  189.2670  177.3680  144.5420 C   0  0  0  0  0  3  0  0  0  0  0  0
  187.6150  178.0230  141.4760 N   0  0  0  0  0  2  0  0  0  0  0  0
  187.6460  178.4550  138.3850 C   0  0  0  0  0  0  0  0  0  0  0  0
  187.6660  179.2470  137.4040 O   0  0  0  0  0  0  0  0  0  0  0  0
  185.9530  178.1750  143.3830 C   0  0  0  0  0  3  0  0  0  0  0  0
  187.3370  177.9410  142.8850 C   0  0  0  0  0  0  0  0  0  0  0  0
  185.2600  178.5230  141.0880 C   0  0  0  0  0  0  0  0  0  0  0  0
  188.7560  177.4950  138.5570 C   0  0  0  0  0  0  0  0  0  0  0  0
  190.8730  175.7300  138.8500 N   0  0  0  0  0  0  0  0  0  0  0  0
  189.8420  177.8190  139.3780 C   0  0  0  0  0  3  0  0  0  0  0  0
  190.8980  176.9150  139.5170 C   0  0  0  0  0  3  0  0  0  0  0  0
  189.8370  175.3960  138.0350 C   0  0  0  0  0  3  0  0  0  0  0  0
  188.7640  176.2740  137.8700 C   0  0  0  0  0  3  0  0  0  0  0  0
  190.6850  177.3340  144.0720 C   0  0  2  0  0  3  0  0  0  0  0  0
  190.9250  178.3690  142.9840 C   0  0  0  0  0  1  0  0  0  0  0  0
  191.0380  175.9700  143.5780 C   0  0  0  0  0  0  0  0  0  0  0  0
  190.2820  175.3900  142.5690 O   0  0  0  0  0  0  0  0  0  0  0  0
  192.0150  175.3420  144.0660 O   0  0  0  0  0  1  0  0  0  0  0  0
  1  2  1  0  0  0  0
  2 14  2  0  0  0  0
  2  9  1  0  0  0  0
  3  1  1  0  0  0  0
  3  5  2  0  0  0  0
  4  8  2  0  0  0  0
  5 14  1  0  0  0  0
  6  7  1  0  0  0  0
  6 12  2  0  0  0  0
  9 13  1  0  0  0  0
 10 15  1  0  0  0  0
 10  1  1  0  0  0  0
 11 10  2  0  0  0  0
 13 12  1  0  0  0  0
 13  4  2  0  0  0  0
 14  6  1  0  0  0  0
 15 17  1  0  0  0  0
 16 18  1  0  0  0  0
 17 18  2  0  0  0  0
 19 16  2  0  0  0  0
 20 19  1  0  0  0  0
 20 15  2  0  0  0  0
 21 22  1  6  0  0  0
 21  8  1  0  0  0  0
 23 25  1  0  0  0  0
 23 21  1  0  0  0  0
 24 23  2  0  0  0  0
M  END
>  <MODEL>
8

>  <REMARK>
 VINA RESULT:      -7.8      3.200      6.323
  Name = 
  3 active torsions:
  status: ('A' for Active; 'I' for Inactive)
    1  A    between atoms: C_2  and  C_21
    2  A    between atoms: C_5  and  C_18
    3  A    between atoms: C_15  and  C_21
                            x       y       z     vdW  Elec       q    Type
                         _______ _______ _______ _____ _____    ______ ____

>  <TORSDO>
F 3

$$$$
=
 OpenBabel10272400513D

 25 27  0  0  1  0  0  0  0  0999 V2000
  185.1970  178.6850  144.4210 N   0  0  0  0  0  0  0  0  0  0  0  0
  186.4080  178.1280  144.2760 C   0  0  0  0  0  0  0  0  0  0  0  0
  184.9780  178.6700  145.7590 C   0  0  0  0  0  3  0  0  0  0  0  0
  189.2580  177.3310  142.1630 C   0  0  0  0  0  0  0  0  0  0  0  0
  186.0070  178.1080  146.4510 N   0  0  0  0  0  0  0  0  0  0  0  0
  188.2440  177.2200  145.6530 C   0  0  0  0  0  0  0  0  0  0  0  0
  188.7610  176.8240  146.9900 C   0  0  0  0  0  1  0  0  0  0  0  0
  189.9940  177.1820  141.0950 C   0  0  0  0  0  3  0  0  0  0  0  0
  187.1910  178.0380  143.0870 N   0  0  0  0  0  2  0  0  0  0  0  0
  184.3490  179.2830  143.4270 C   0  0  0  0  0  0  0  0  0  0  0  0
  183.6320  180.2690  143.7480 O   0  0  0  0  0  0  0  0  0  0  0  0
  189.0150  177.0760  144.5600 C   0  0  0  0  0  3  0  0  0  0  0  0
  188.5110  177.4820  143.2180 C   0  0  0  0  0  0  0  0  0  0  0  0
  186.8920  177.7770  145.4930 C   0  0  0  0  0  0  0  0  0  0  0  0
  184.2760  178.7580  142.0470 C   0  0  0  0  0  0  0  0  0  0  0  0
  184.1120  177.8260  139.4420 N   0  0  0  0  0  0  0  0  0  0  0  0
  185.0760  179.3140  141.0430 C   0  0  0  0  0  3  0  0  0  0  0  0
  184.9830  178.8280  139.7360 C   0  0  0  0  0  3  0  0  0  0  0  0
  183.3130  177.2770  140.3960 C   0  0  0  0  0  3  0  0  0  0  0  0
  183.3770  177.7370  141.7130 C   0  0  0  0  0  3  0  0  0  0  0  0
  189.5750  177.7710  139.7870 C   0  0  2  0  0  3  0  0  0  0  0  0
  188.0600  177.8040  139.6630 C   0  0  0  0  0  1  0  0  0  0  0  0
  190.1710  177.0030  138.6550 C   0  0  0  0  0  0  0  0  0  0  0  0
  190.7110  175.7460  138.8880 O   0  0  0  0  0  1  0  0  0  0  0  0
  190.1870  177.4830  137.4890 O   0  0  0  0  0  0  0  0  0  0  0  0
  1  3  1  0  0  0  0
  2  1  1  0  0  0  0
  2 14  2  0  0  0  0
  3  5  2  0  0  0  0
  4 13  2  0  0  0  0
  6  7  1  0  0  0  0
  8  4  2  0  0  0  0
  9 13  1  0  0  0  0
  9  2  1  0  0  0  0
 10 11  2  0  0  0  0
 10  1  1  0  0  0  0
 12  6  2  0  0  0  0
 13 12  1  0  0  0  0
 14  6  1  0  0  0  0
 14  5  1  0  0  0  0
 15 10  1  0  0  0  0
 16 18  2  0  0  0  0
 16 19  1  0  0  0  0
 17 15  2  0  0  0  0
 18 17  1  0  0  0  0
 19 20  2  0  0  0  0
 20 15  1  0  0  0  0
 21 22  1  6  0  0  0
 21  8  1  0  0  0  0
 23 24  1  0  0  0  0
 23 21  1  0  0  0  0
 25 23  2  0  0  0  0
M  END
>  <MODEL>
9

>  <REMARK>
 VINA RESULT:      -7.7      2.806      5.952
  Name = 
  3 active torsions:
  status: ('A' for Active; 'I' for Inactive)
    1  A    between atoms: C_2  and  C_21
    2  A    between atoms: C_5  and  C_18
    3  A    between atoms: C_15  and  C_21
                            x       y       z     vdW  Elec       q    Type
                         _______ _______ _______ _____ _____    ______ ____

>  <TORSDO>
F 3

$$$$
