=
 OpenBabel10272401123D

 27 31  0  0  1  0  0  0  0  0999 V2000
  188.6640  178.0630  141.2890 N   0  0  0  0  0  0  0  0  0  0  0  0
  187.4350  178.3940  141.9270 C   0  0  0  0  0  0  0  0  0  0  0  0
  188.7790  177.4080  143.5910 C   0  0  2  0  0  3  0  0  0  0  0  0
  184.0450  178.8990  144.1910 C   0  0  0  0  0  3  0  0  0  0  0  0
  184.0130  178.5590  145.6250 C   0  0  0  0  0  3  0  0  0  0  0  0
  186.3300  178.8470  141.3300 C   0  0  0  0  0  3  0  0  0  0  0  0
  186.3060  177.5770  145.4920 C   0  0  0  0  0  3  0  0  0  0  0  0
  191.4580  176.4940  143.4870 C   0  0  2  0  0  3  0  0  0  0  0  0
  189.2030  178.4700  145.9660 C   0  0  0  0  0  1  0  0  0  0  0  0
  191.4960  175.0050  143.7640 C   0  0  0  0  0  1  0  0  0  0  0  0
  186.3760  178.1690  144.1090 C   0  0  0  0  0  0  0  0  0  0  0  0
  185.0530  177.9760  146.2300 C   0  0  0  0  0  3  0  0  0  0  0  0
  185.1520  178.7200  143.4720 C   0  0  2  0  0  3  0  0  0  0  0  0
  189.6070  177.8150  142.3760 C   0  0  1  0  0  3  0  0  0  0  0  0
  187.4780  178.1020  143.3490 C   0  0  0  0  0  0  0  0  0  0  0  0
  190.9230  177.2360  144.7160 C   0  0  0  0  0  3  0  0  0  0  0  0
  185.1740  179.0510  142.1040 O   0  0  0  0  0  0  0  0  0  0  0  0
  191.5750  177.1690  141.1750 O   0  0  0  0  0  1  0  0  0  0  0  0
  190.6810  176.7530  142.1610 C   0  0  1  0  0  3  0  0  0  0  0  0
  189.6510  177.6780  144.7840 C   0  0  0  0  0  0  0  0  0  0  0  0
  189.0570  178.5440  139.9670 C   0  0  0  0  0  2  0  0  0  0  0  0
  188.0640  175.7060  136.9060 C   0  0  0  0  0  3  0  0  0  0  0  0
  188.7030  177.5460  138.9150 C   0  0  0  0  0  0  0  0  0  0  0  0
  187.4860  177.6470  138.2340 C   0  0  0  0  0  3  0  0  0  0  0  0
  187.1650  176.7270  137.2300 C   0  0  0  0  0  3  0  0  0  0  0  0
  189.2840  175.6060  137.5820 C   0  0  0  0  0  3  0  0  0  0  0  0
  189.6040  176.5270  138.5850 C   0  0  0  0  0  3  0  0  0  0  0  0
  1  2  1  0  0  0  0
  2 15  1  0  0  0  0
  3 15  1  1  0  0  0
  3 20  1  0  0  0  0
  4  5  2  0  0  0  0
  5 12  1  0  0  0  0
  6  2  2  0  0  0  0
  6 17  1  0  0  0  0
  7 12  2  0  0  0  0
  8 10  1  1  0  0  0
  8 16  1  0  0  0  0
 11  7  1  0  0  0  0
 13 11  1  0  0  0  0
 13  4  1  1  0  0  0
 14  1  1  6  0  0  0
 14  3  1  0  0  0  0
 15 11  2  0  0  0  0
 16 20  2  0  0  0  0
 17 13  1  0  0  0  0
 19 18  1  6  0  0  0
 19 14  1  0  0  0  0
 19  8  1  0  0  0  0
 20  9  1  0  0  0  0
 21  1  1  0  0  0  0
 22 25  2  0  0  0  0
 22 26  1  0  0  0  0
 23 21  1  0  0  0  0
 24 23  2  0  0  0  0
 25 24  1  0  0  0  0
 26 27  2  0  0  0  0
 27 23  1  0  0  0  0
M  END
>  <MODEL>
1

>  <REMARK>
 VINA RESULT:      -9.0      0.000      0.000
  Name = 
  2 active torsions:
  status: ('A' for Active; 'I' for Inactive)
    1  A    between atoms: N_1  and  C_15
    2  A    between atoms: C_9  and  C_15
                            x       y       z     vdW  Elec       q    Type
                         _______ _______ _______ _____ _____    ______ ____

>  <TORSDO>
F 2

$$$$
=
 OpenBabel10272401123D

 27 31  0  0  1  0  0  0  0  0999 V2000
  186.3680  178.5070  141.2720 N   0  0  0  0  0  0  0  0  0  0  0  0
  186.3250  178.4130  142.6930 C   0  0  0  0  0  0  0  0  0  0  0  0
  188.4760  177.6880  142.0640 C   0  0  2  0  0  3  0  0  0  0  0  0
  186.6700  177.7130  146.7260 C   0  0  0  0  0  3  0  0  0  0  0  0
  187.9300  177.2380  147.3250 C   0  0  0  0  0  3  0  0  0  0  0  0
  185.2510  178.5910  143.4660 C   0  0  0  0  0  3  0  0  0  0  0  0
  188.9570  176.9630  145.0640 C   0  0  0  0  0  2  0  0  0  0  0  0
  189.7070  177.5830  139.5150 C   0  0  2  0  0  3  0  0  0  0  0  0
  190.7080  178.5870  143.1380 C   0  0  0  0  0  1  0  0  0  0  0  0
  190.0440  176.1460  139.1750 C   0  0  0  0  0  1  0  0  0  0  0  0
  187.7460  177.6830  144.5320 C   0  0  0  0  0  0  0  0  0  0  0  0
  188.9870  176.9170  146.5700 C   0  0  0  0  0  3  0  0  0  0  0  0
  186.5750  177.9260  145.4140 C   0  0  0  0  0  0  0  0  0  0  0  0
  187.7840  178.4300  140.9240 C   0  0  1  0  0  3  0  0  0  0  0  0
  187.6080  178.0060  143.2380 C   0  0  0  0  0  0  0  0  0  0  0  0
  190.4930  178.0180  140.7560 C   0  0  0  0  0  3  0  0  0  0  0  0
  185.3690  178.3820  144.8520 O   0  0  0  0  0  0  0  0  0  0  0  0
  187.7010  178.4880  138.5320 O   0  0  0  0  0  1  0  0  0  0  0  0
  188.1600  177.7410  139.6170 C   0  0  1  0  0  3  0  0  0  0  0  0
  189.9250  178.0740  141.9780 C   0  0  0  0  0  0  0  0  0  0  0  0
  185.3700  179.2070  140.4670 C   0  0  0  0  0  2  0  0  0  0  0  0
  182.7100  176.4560  138.5270 C   0  0  0  0  0  3  0  0  0  0  0  0
  184.4560  178.2360  139.7960 C   0  0  0  0  0  0  0  0  0  0  0  0
  183.4390  177.6120  140.5260 C   0  0  0  0  0  3  0  0  0  0  0  0
  182.5670  176.7210  139.8920 C   0  0  0  0  0  3  0  0  0  0  0  0
  183.7230  177.0830  137.7940 C   0  0  0  0  0  3  0  0  0  0  0  0
  184.5940  177.9740  138.4280 C   0  0  0  0  0  3  0  0  0  0  0  0
  1  2  1  0  0  0  0
  2 15  1  0  0  0  0
  2  6  2  0  0  0  0
  3 20  1  1  0  0  0
  3 15  1  0  0  0  0
  4  5  1  0  0  0  0
  6 17  1  0  0  0  0
  7 12  1  0  0  0  0
  8 10  1  1  0  0  0
  8 19  1  0  0  0  0
  8 16  1  0  0  0  0
 11  7  1  0  0  0  0
 11 13  1  0  0  0  0
 12  5  2  0  0  0  0
 13  4  2  0  0  0  0
 14  1  1  1  0  0  0
 14  3  1  0  0  0  0
 15 11  2  0  0  0  0
 16 20  2  0  0  0  0
 17 13  1  0  0  0  0
 19 18  1  6  0  0  0
 19 14  1  0  0  0  0
 20  9  1  0  0  0  0
 21  1  1  0  0  0  0
 22 25  1  0  0  0  0
 23 21  1  0  0  0  0
 23 24  1  0  0  0  0
 25 24  2  0  0  0  0
 26 27  1  0  0  0  0
 26 22  2  0  0  0  0
 27 23  2  0  0  0  0
M  END
>  <MODEL>
2

>  <REMARK>
 VINA RESULT:      -8.2      2.277      3.799
  Name = 
  2 active torsions:
  status: ('A' for Active; 'I' for Inactive)
    1  A    between atoms: N_1  and  C_15
    2  A    between atoms: C_9  and  C_15
                            x       y       z     vdW  Elec       q    Type
                         _______ _______ _______ _____ _____    ______ ____

>  <TORSDO>
F 2

$$$$
=
 OpenBabel10272401123D

 27 31  0  0  1  0  0  0  0  0999 V2000
  184.9910  178.6300  140.9650 N   0  0  0  0  0  0  0  0  0  0  0  0
  185.1900  178.5210  142.3710 C   0  0  0  0  0  0  0  0  0  0  0  0
  187.2450  177.9320  141.3820 C   0  0  2  0  0  3  0  0  0  0  0  0
  186.2390  177.8050  146.2780 C   0  0  0  0  0  3  0  0  0  0  0  0
  187.6060  177.4010  146.6510 C   0  0  0  0  0  3  0  0  0  0  0  0
  184.2510  178.6270  143.3140 C   0  0  0  0  0  3  0  0  0  0  0  0
  188.2580  177.2100  144.2470 C   0  0  0  0  0  2  0  0  0  0  0  0
  188.0410  177.9250  138.6640 C   0  0  2  0  0  3  0  0  0  0  0  0
  189.5690  178.9540  142.0910 C   0  0  0  0  0  1  0  0  0  0  0  0
  188.3990  176.5140  138.2450 C   0  0  0  0  0  1  0  0  0  0  0  0
  186.9360  177.8610  143.9360 C   0  0  0  0  0  0  0  0  0  0  0  0
  188.5400  177.1510  145.7270 C   0  0  0  0  0  3  0  0  0  0  0  0
  185.9160  178.0250  145.0040 C   0  0  0  0  0  0  0  0  0  0  0  0
  186.3320  178.6420  140.3870 C   0  0  1  0  0  3  0  0  0  0  0  0
  186.5670  178.1860  142.6900 C   0  0  0  0  0  0  0  0  0  0  0  0
  188.9950  178.3960  139.7660 C   0  0  0  0  0  3  0  0  0  0  0  0
  184.6090  178.4130  144.6570 O   0  0  0  0  0  0  0  0  0  0  0  0
  185.8500  178.7170  138.0430 O   0  0  0  0  0  1  0  0  0  0  0  0
  186.5250  177.9900  139.0220 C   0  0  1  0  0  3  0  0  0  0  0  0
  188.6350  178.4060  141.0660 C   0  0  0  0  0  0  0  0  0  0  0  0
  183.8350  179.2770  140.3500 C   0  0  0  0  0  2  0  0  0  0  0  0
  180.6240  176.4670  139.9020 C   0  0  0  0  0  3  0  0  0  0  0  0
  182.7150  178.3050  140.1770 C   0  0  0  0  0  0  0  0  0  0  0  0
  182.9760  177.0110  139.7140 C   0  0  0  0  0  3  0  0  0  0  0  0
  181.9310  176.0920  139.5760 C   0  0  0  0  0  3  0  0  0  0  0  0
  180.3620  177.7590  140.3700 C   0  0  0  0  0  3  0  0  0  0  0  0
  181.4070  178.6770  140.5090 C   0  0  0  0  0  3  0  0  0  0  0  0
  1  2  1  0  0  0  0
  2 15  1  0  0  0  0
  2  6  2  0  0  0  0
  3 20  1  1  0  0  0
  3 15  1  0  0  0  0
  4  5  1  0  0  0  0
  6 17  1  0  0  0  0
  7 12  1  0  0  0  0
  8 10  1  1  0  0  0
  8 19  1  0  0  0  0
  8 16  1  0  0  0  0
 11  7  1  0  0  0  0
 11 13  1  0  0  0  0
 12  5  2  0  0  0  0
 13  4  2  0  0  0  0
 14  1  1  1  0  0  0
 14  3  1  0  0  0  0
 15 11  2  0  0  0  0
 16 20  2  0  0  0  0
 17 13  1  0  0  0  0
 19 18  1  6  0  0  0
 19 14  1  0  0  0  0
 20  9  1  0  0  0  0
 21  1  1  0  0  0  0
 22 26  1  0  0  0  0
 23 21  1  0  0  0  0
 23 27  1  0  0  0  0
 24 23  2  0  0  0  0
 25 24  1  0  0  0  0
 25 22  2  0  0  0  0
 26 27  2  0  0  0  0
M  END
>  <MODEL>
3

>  <REMARK>
 VINA RESULT:      -7.9      2.807      5.000
  Name = 
  2 active torsions:
  status: ('A' for Active; 'I' for Inactive)
    1  A    between atoms: N_1  and  C_15
    2  A    between atoms: C_9  and  C_15
                            x       y       z     vdW  Elec       q    Type
                         _______ _______ _______ _____ _____    ______ ____

>  <TORSDO>
F 2

$$$$
=
 OpenBabel10272401123D

 27 31  0  0  1  0  0  0  0  0999 V2000
  188.5900  177.6490  138.6480 N   0  0  0  0  0  0  0  0  0  0  0  0
  188.6200  177.8430  140.0580 C   0  0  0  0  0  0  0  0  0  0  0  0
  190.6070  176.6970  139.5230 C   0  0  2  0  0  3  0  0  0  0  0  0
  189.1070  177.9030  144.1360 C   0  0  0  0  0  3  0  0  0  0  0  0
  190.3220  177.3730  144.7800 C   0  0  0  0  0  3  0  0  0  0  0  0
  187.6300  178.3270  140.8120 C   0  0  0  0  0  3  0  0  0  0  0  0
  191.1620  176.5110  142.5910 C   0  0  0  0  0  2  0  0  0  0  0  0
  191.6560  175.9130  137.0110 C   0  0  2  0  0  3  0  0  0  0  0  0
  193.0040  177.4470  140.3230 C   0  0  0  0  0  1  0  0  0  0  0  0
  191.7680  174.4030  136.9590 C   0  0  0  0  0  1  0  0  0  0  0  0
  190.0340  177.2850  141.9610 C   0  0  0  0  0  0  0  0  0  0  0  0
  191.2760  176.7570  144.0740 C   0  0  0  0  0  3  0  0  0  0  0  0
  188.9640  177.8670  142.8120 C   0  0  0  0  0  0  0  0  0  0  0  0
  189.9580  177.2960  138.2780 C   0  0  1  0  0  3  0  0  0  0  0  0
  189.8640  177.3640  140.6350 C   0  0  0  0  0  0  0  0  0  0  0  0
  192.5690  176.4610  138.1130 C   0  0  0  0  0  3  0  0  0  0  0  0
  187.8020  178.3790  142.2070 O   0  0  0  0  0  0  0  0  0  0  0  0
  189.7400  176.8960  135.9280 O   0  0  0  0  0  1  0  0  0  0  0  0
  190.1550  176.3160  137.1260 C   0  0  1  0  0  3  0  0  0  0  0  0
  192.0880  176.8390  139.3150 C   0  0  0  0  0  0  0  0  0  0  0  0
  187.6530  178.3180  137.7490 C   0  0  0  0  0  2  0  0  0  0  0  0
  184.0690  175.9930  137.3540 C   0  0  0  0  0  3  0  0  0  0  0  0
  186.4030  177.5170  137.5950 C   0  0  0  0  0  0  0  0  0  0  0  0
  186.4600  176.2310  137.0470 C   0  0  0  0  0  3  0  0  0  0  0  0
  185.2920  175.4690  136.9250 C   0  0  0  0  0  3  0  0  0  0  0  0
  184.0120  177.2770  137.9060 C   0  0  0  0  0  3  0  0  0  0  0  0
  185.1790  178.0370  138.0280 C   0  0  0  0  0  3  0  0  0  0  0  0
  1  2  1  0  0  0  0
  2 15  1  0  0  0  0
  2  6  2  0  0  0  0
  3 20  1  1  0  0  0
  3 15  1  0  0  0  0
  4  5  1  0  0  0  0
  6 17  1  0  0  0  0
  7 12  1  0  0  0  0
  8 10  1  1  0  0  0
  8 19  1  0  0  0  0
  8 16  1  0  0  0  0
 11  7  1  0  0  0  0
 11 13  1  0  0  0  0
 12  5  2  0  0  0  0
 13  4  2  0  0  0  0
 14  1  1  1  0  0  0
 14  3  1  0  0  0  0
 15 11  2  0  0  0  0
 16 20  2  0  0  0  0
 17 13  1  0  0  0  0
 19 18  1  6  0  0  0
 19 14  1  0  0  0  0
 20  9  1  0  0  0  0
 21  1  1  0  0  0  0
 22 26  1  0  0  0  0
 23 21  1  0  0  0  0
 23 27  1  0  0  0  0
 24 23  2  0  0  0  0
 25 24  1  0  0  0  0
 25 22  2  0  0  0  0
 26 27  2  0  0  0  0
M  END
>  <MODEL>
4

>  <REMARK>
 VINA RESULT:      -7.6      2.440      4.806
  Name = 
  2 active torsions:
  status: ('A' for Active; 'I' for Inactive)
    1  A    between atoms: N_1  and  C_15
    2  A    between atoms: C_9  and  C_15
                            x       y       z     vdW  Elec       q    Type
                         _______ _______ _______ _____ _____    ______ ____

>  <TORSDO>
F 2

$$$$
=
 OpenBabel10272401123D

 27 31  0  0  1  0  0  0  0  0999 V2000
  184.5260  178.9230  141.8050 N   0  0  0  0  0  0  0  0  0  0  0  0
  185.5740  178.6810  140.8720 C   0  0  0  0  0  0  0  0  0  0  0  0
  186.5050  178.2960  143.0010 C   0  0  2  0  0  3  0  0  0  0  0  0
  188.9920  178.1040  138.6680 C   0  0  0  0  0  3  0  0  0  0  0  0
  190.2580  177.6870  139.2970 C   0  0  0  0  0  3  0  0  0  0  0  0
  185.5330  178.9130  139.5580 C   0  0  0  0  0  3  0  0  0  0  0  0
  189.2580  177.9150  141.5750 C   0  0  0  0  0  3  0  0  0  0  0  0
  185.3070  178.3470  145.5670 C   0  0  2  0  0  3  0  0  0  0  0  0
  187.8650  176.1320  143.6470 C   0  0  0  0  0  1  0  0  0  0  0  0
  185.9580  179.4260  146.4080 C   0  0  0  0  0  1  0  0  0  0  0  0
  187.9370  178.0900  140.8730 C   0  0  0  0  0  0  0  0  0  0  0  0
  190.3780  177.5760  140.6240 C   0  0  0  0  0  3  0  0  0  0  0  0
  187.8960  178.2940  139.4010 C   0  0  1  0  0  3  0  0  0  0  0  0
  184.9810  178.3260  143.0580 C   0  0  1  0  0  3  0  0  0  0  0  0
  186.7780  178.2090  141.5340 C   0  0  0  0  0  0  0  0  0  0  0  0
  186.3440  177.2810  145.2000 C   0  0  0  0  0  3  0  0  0  0  0  0
  186.6910  178.6890  138.7920 O   0  0  0  0  0  0  0  0  0  0  0  0
  183.1940  178.8960  144.5450 O   0  0  0  0  0  1  0  0  0  0  0  0
  184.5720  179.0050  144.3610 C   0  0  1  0  0  3  0  0  0  0  0  0
  186.9260  177.2410  143.9840 C   0  0  0  0  0  0  0  0  0  0  0  0
  183.1200  179.0680  141.4380 C   0  0  0  0  0  2  0  0  0  0  0  0
  182.0790  176.4790  138.1780 C   0  0  0  0  0  3  0  0  0  0  0  0
  182.7750  178.1670  140.2980 C   0  0  0  0  0  0  0  0  0  0  0  0
  182.8500  176.7790  140.4540 C   0  0  0  0  0  3  0  0  0  0  0  0
  182.5040  175.9350  139.3940 C   0  0  0  0  0  3  0  0  0  0  0  0
  181.9980  177.8670  138.0210 C   0  0  0  0  0  3  0  0  0  0  0  0
  182.3440  178.7100  139.0820 C   0  0  0  0  0  3  0  0  0  0  0  0
  2 15  1  0  0  0  0
  2  1  1  0  0  0  0
  3 15  1  6  0  0  0
  3 14  1  0  0  0  0
  3 20  1  0  0  0  0
  4  5  2  0  0  0  0
  5 12  1  0  0  0  0
  6  2  2  0  0  0  0
  8 10  1  6  0  0  0
  9 20  1  0  0  0  0
 11 15  2  0  0  0  0
 11  7  1  0  0  0  0
 12  7  2  0  0  0  0
 13  4  1  1  0  0  0
 13 11  1  0  0  0  0
 14  1  1  6  0  0  0
 14 19  1  0  0  0  0
 16  8  1  0  0  0  0
 17 13  1  0  0  0  0
 17  6  1  0  0  0  0
 19 18  1  1  0  0  0
 19  8  1  0  0  0  0
 20 16  2  0  0  0  0
 21  1  1  0  0  0  0
 22 25  1  0  0  0  0
 23 24  1  0  0  0  0
 23 21  1  0  0  0  0
 25 24  2  0  0  0  0
 26 22  2  0  0  0  0
 26 27  1  0  0  0  0
 27 23  2  0  0  0  0
M  END
>  <MODEL>
5

>  <REMARK>
 VINA RESULT:      -7.3      2.778      5.738
  Name = 
  2 active torsions:
  status: ('A' for Active; 'I' for Inactive)
    1  A    between atoms: N_1  and  C_15
    2  A    between atoms: C_9  and  C_15
                            x       y       z     vdW  Elec       q    Type
                         _______ _______ _______ _____ _____    ______ ____

>  <TORSDO>
F 2

$$$$
=
 OpenBabel10272401123D

 27 31  0  0  1  0  0  0  0  0999 V2000
  188.8810  177.9360  139.3510 N   0  0  0  0  0  0  0  0  0  0  0  0
  190.1640  177.4370  138.9890 C   0  0  0  0  0  0  0  0  0  0  0  0
  188.7450  176.9430  137.1750 C   0  0  2  0  0  3  0  0  0  0  0  0
  193.5490  175.6090  137.5490 C   0  0  0  0  0  3  0  0  0  0  0  0
  193.5870  174.9930  136.2110 C   0  0  0  0  0  3  0  0  0  0  0  0
  191.2410  177.3760  139.7770 C   0  0  0  0  0  3  0  0  0  0  0  0
  191.1400  175.3900  135.9060 C   0  0  0  0  0  2  0  0  0  0  0  0
  186.0210  177.5870  136.7450 C   0  0  2  0  0  3  0  0  0  0  0  0
  189.3080  177.5140  134.6640 C   0  0  0  0  0  1  0  0  0  0  0  0
  185.2110  176.3120  136.6340 C   0  0  0  0  0  1  0  0  0  0  0  0
  191.2150  176.2220  137.1590 C   0  0  0  0  0  0  0  0  0  0  0  0
  192.4930  174.9120  135.4460 C   0  0  0  0  0  3  0  0  0  0  0  0
  192.4390  176.1900  138.0020 C   0  0  0  0  0  0  0  0  0  0  0  0
  188.1180  177.9750  138.1070 C   0  0  1  0  0  3  0  0  0  0  0  0
  190.1650  176.9020  137.6390 C   0  0  0  0  0  0  0  0  0  0  0  0
  187.0390  177.6540  135.6020 C   0  0  0  0  0  3  0  0  0  0  0  0
  192.4130  176.7780  139.2790 O   0  0  0  0  0  0  0  0  0  0  0  0
  185.9750  178.7190  138.8730 O   0  0  0  0  0  1  0  0  0  0  0  0
  186.6200  177.6960  138.1790 C   0  0  1  0  0  3  0  0  0  0  0  0
  188.3400  177.3500  135.7870 C   0  0  0  0  0  0  0  0  0  0  0  0
  188.6380  178.8300  140.4810 C   0  0  0  0  0  2  0  0  0  0  0  0
  187.0530  176.6950  143.8490 C   0  0  0  0  0  3  0  0  0  0  0  0
  188.0780  178.0750  141.6410 C   0  0  0  0  0  0  0  0  0  0  0  0
  188.8030  177.0200  142.2060 C   0  0  0  0  0  3  0  0  0  0  0  0
  188.2900  176.3290  143.3090 C   0  0  0  0  0  3  0  0  0  0  0  0
  186.3300  177.7530  143.2890 C   0  0  0  0  0  3  0  0  0  0  0  0
  186.8430  178.4440  142.1870 C   0  0  0  0  0  3  0  0  0  0  0  0
  1 21  1  0  0  0  0
  2  1  1  0  0  0  0
  2  6  2  0  0  0  0
  3 20  1  6  0  0  0
  3 15  1  0  0  0  0
  3 14  1  0  0  0  0
  4 13  2  0  0  0  0
  5  4  1  0  0  0  0
  7 11  1  0  0  0  0
  8 10  1  1  0  0  0
  8 19  1  0  0  0  0
  9 20  1  0  0  0  0
 11 15  2  0  0  0  0
 11 13  1  0  0  0  0
 12  7  1  0  0  0  0
 12  5  2  0  0  0  0
 13 17  1  0  0  0  0
 14 19  1  0  0  0  0
 14  1  1  1  0  0  0
 15  2  1  0  0  0  0
 16 20  2  0  0  0  0
 16  8  1  0  0  0  0
 17  6  1  0  0  0  0
 19 18  1  1  0  0  0
 21 23  1  0  0  0  0
 23 27  2  0  0  0  0
 23 24  1  0  0  0  0
 24 25  2  0  0  0  0
 25 22  1  0  0  0  0
 26 22  2  0  0  0  0
 27 26  1  0  0  0  0
M  END
>  <MODEL>
6

>  <REMARK>
 VINA RESULT:      -7.2      2.231      8.069
  Name = 
  2 active torsions:
  status: ('A' for Active; 'I' for Inactive)
    1  A    between atoms: N_1  and  C_15
    2  A    between atoms: C_9  and  C_15
                            x       y       z     vdW  Elec       q    Type
                         _______ _______ _______ _____ _____    ______ ____

>  <TORSDO>
F 2

$$$$
=
 OpenBabel10272401123D

 27 31  0  0  1  0  0  0  0  0999 V2000
  188.3170  177.7730  139.5520 N   0  0  0  0  0  0  0  0  0  0  0  0
  189.3650  176.9620  139.0300 C   0  0  0  0  0  0  0  0  0  0  0  0
  187.5350  176.6610  137.5790 C   0  0  2  0  0  3  0  0  0  0  0  0
  191.9230  174.2880  137.2460 C   0  0  0  0  0  3  0  0  0  0  0  0
  191.5560  173.5710  136.0110 C   0  0  0  0  0  3  0  0  0  0  0  0
  190.5420  176.7190  139.6120 C   0  0  0  0  0  3  0  0  0  0  0  0
  189.2380  174.4960  136.1060 C   0  0  0  0  0  2  0  0  0  0  0  0
  184.9770  177.8790  137.5690 C   0  0  2  0  0  3  0  0  0  0  0  0
  187.6800  176.8760  134.9560 C   0  0  0  0  0  1  0  0  0  0  0  0
  183.9120  176.8210  137.7680 C   0  0  0  0  0  1  0  0  0  0  0  0
  189.7410  175.3890  137.2090 C   0  0  0  0  0  0  0  0  0  0  0  0
  190.3370  173.6820  135.4730 C   0  0  0  0  0  3  0  0  0  0  0  0
  191.0760  175.1450  137.8140 C   0  0  0  0  0  0  0  0  0  0  0  0
  187.3420  177.8840  138.4710 C   0  0  1  0  0  3  0  0  0  0  0  0
  188.9780  176.3310  137.7810 C   0  0  0  0  0  0  0  0  0  0  0  0
  185.7320  177.6140  136.2620 C   0  0  0  0  0  3  0  0  0  0  0  0
  191.4350  175.8280  138.9910 O   0  0  0  0  0  0  0  0  0  0  0  0
  185.6060  179.1630  139.5100 O   0  0  0  0  0  1  0  0  0  0  0  0
  185.8660  177.9650  138.8470 C   0  0  1  0  0  3  0  0  0  0  0  0
  186.9500  177.0340  136.2470 C   0  0  0  0  0  0  0  0  0  0  0  0
  188.5040  178.7880  140.5850 C   0  0  0  0  0  2  0  0  0  0  0  0
  187.8160  177.1850  144.5050 C   0  0  0  0  0  3  0  0  0  0  0  0
  188.2640  178.2130  141.9420 C   0  0  0  0  0  0  0  0  0  0  0  0
  189.3470  177.8800  142.7620 C   0  0  0  0  0  3  0  0  0  0  0  0
  189.1230  177.3640  144.0430 C   0  0  0  0  0  3  0  0  0  0  0  0
  186.7320  177.5220  143.6880 C   0  0  0  0  0  3  0  0  0  0  0  0
  186.9560  178.0380  142.4080 C   0  0  0  0  0  3  0  0  0  0  0  0
  1 21  1  0  0  0  0
  2  1  1  0  0  0  0
  2  6  2  0  0  0  0
  3 20  1  6  0  0  0
  3 15  1  0  0  0  0
  3 14  1  0  0  0  0
  4 13  2  0  0  0  0
  5  4  1  0  0  0  0
  7 11  1  0  0  0  0
  8 10  1  1  0  0  0
  8 19  1  0  0  0  0
  9 20  1  0  0  0  0
 11 15  2  0  0  0  0
 11 13  1  0  0  0  0
 12  5  2  0  0  0  0
 12  7  1  0  0  0  0
 13 17  1  0  0  0  0
 14 19  1  0  0  0  0
 14  1  1  1  0  0  0
 15  2  1  0  0  0  0
 16  8  1  0  0  0  0
 17  6  1  0  0  0  0
 19 18  1  6  0  0  0
 20 16  2  0  0  0  0
 21 23  1  0  0  0  0
 23 27  2  0  0  0  0
 23 24  1  0  0  0  0
 24 25  2  0  0  0  0
 25 22  1  0  0  0  0
 26 22  2  0  0  0  0
 27 26  1  0  0  0  0
M  END
>  <MODEL>
7

>  <REMARK>
 VINA RESULT:      -7.2      1.880      7.918
  Name = 
  2 active torsions:
  status: ('A' for Active; 'I' for Inactive)
    1  A    between atoms: N_1  and  C_15
    2  A    between atoms: C_9  and  C_15
                            x       y       z     vdW  Elec       q    Type
                         _______ _______ _______ _____ _____    ______ ____

>  <TORSDO>
F 2

$$$$
=
 OpenBabel10272401123D

 27 31  0  0  1  0  0  0  0  0999 V2000
  191.0630  177.5550  139.7730 N   0  0  0  0  0  0  0  0  0  0  0  0
  189.6920  177.6400  139.3960 C   0  0  0  0  0  0  0  0  0  0  0  0
  190.7300  176.3050  137.7570 C   0  0  2  0  0  3  0  0  0  0  0  0
  185.9440  177.7510  137.7180 C   0  0  0  0  0  3  0  0  0  0  0  0
  185.6200  176.9950  136.4950 C   0  0  0  0  0  3  0  0  0  0  0  0
  188.7620  178.4120  139.9630 C   0  0  0  0  0  3  0  0  0  0  0  0
  188.0100  176.3220  136.2210 C   0  0  0  0  0  2  0  0  0  0  0  0
  193.3960  175.3670  137.5680 C   0  0  2  0  0  3  0  0  0  0  0  0
  189.8190  173.9600  136.9700 C   0  0  0  0  0  1  0  0  0  0  0  0
  194.0410  175.9230  136.3150 C   0  0  0  0  0  1  0  0  0  0  0  0
  188.2310  176.8960  137.5950 C   0  0  0  0  0  0  0  0  0  0  0  0
  186.5570  176.3200  135.8200 C   0  0  0  0  0  3  0  0  0  0  0  0
  187.1680  177.7090  138.2430 C   0  0  0  0  0  0  0  0  0  0  0  0
  191.6070  176.4440  138.9970 C   0  0  1  0  0  3  0  0  0  0  0  0
  189.4110  176.8260  138.2270 C   0  0  0  0  0  0  0  0  0  0  0  0
  192.2130  174.4700  137.1880 C   0  0  0  0  0  3  0  0  0  0  0  0
  187.4680  178.4310  139.4120 O   0  0  0  0  0  0  0  0  0  0  0  0
  193.9130  176.4850  139.6410 O   0  0  0  0  0  1  0  0  0  0  0  0
  193.0590  176.5380  138.5400 C   0  0  1  0  0  3  0  0  0  0  0  0
  190.9380  174.8990  137.2700 C   0  0  0  0  0  0  0  0  0  0  0  0
  191.5810  177.9670  141.0750 C   0  0  0  0  0  2  0  0  0  0  0  0
  188.9960  176.6970  144.2550 C   0  0  0  0  0  3  0  0  0  0  0  0
  190.6670  177.5300  142.1710 C   0  0  0  0  0  0  0  0  0  0  0  0
  190.2280  176.2030  142.2290 C   0  0  0  0  0  3  0  0  0  0  0  0
  189.3920  175.7860  143.2700 C   0  0  0  0  0  3  0  0  0  0  0  0
  189.4380  178.0220  144.2020 C   0  0  0  0  0  3  0  0  0  0  0  0
  190.2750  178.4380  143.1610 C   0  0  0  0  0  3  0  0  0  0  0  0
  1 21  1  0  0  0  0
  2  1  1  0  0  0  0
  2  6  2  0  0  0  0
  3 20  1  1  0  0  0
  3 15  1  0  0  0  0
  3 14  1  0  0  0  0
  4 13  2  0  0  0  0
  5  4  1  0  0  0  0
  7 11  1  0  0  0  0
  8 10  1  6  0  0  0
  8 19  1  0  0  0  0
  9 20  1  0  0  0  0
 11 15  2  0  0  0  0
 11 13  1  0  0  0  0
 12  7  1  0  0  0  0
 12  5  2  0  0  0  0
 13 17  1  0  0  0  0
 14  1  1  6  0  0  0
 15  2  1  0  0  0  0
 16 20  2  0  0  0  0
 16  8  1  0  0  0  0
 17  6  1  0  0  0  0
 19 14  1  0  0  0  0
 19 18  1  1  0  0  0
 21 23  1  0  0  0  0
 23 24  2  0  0  0  0
 23 27  1  0  0  0  0
 24 25  1  0  0  0  0
 25 22  2  0  0  0  0
 26 22  1  0  0  0  0
 27 26  2  0  0  0  0
M  END
>  <MODEL>
8

>  <REMARK>
 VINA RESULT:      -6.9      2.654      6.476
  Name = 
  2 active torsions:
  status: ('A' for Active; 'I' for Inactive)
    1  A    between atoms: N_1  and  C_15
    2  A    between atoms: C_9  and  C_15
                            x       y       z     vdW  Elec       q    Type
                         _______ _______ _______ _____ _____    ______ ____

>  <TORSDO>
F 2

$$$$
=
 OpenBabel10272401123D

 27 31  0  0  1  0  0  0  0  0999 V2000
  189.2560  177.5310  138.7340 N   0  0  0  0  0  0  0  0  0  0  0  0
  187.9560  177.2960  138.2010 C   0  0  0  0  0  0  0  0  0  0  0  0
  189.3770  175.7460  137.1410 C   0  0  2  0  0  3  0  0  0  0  0  0
  184.5130  176.3630  136.1640 C   0  0  0  0  0  3  0  0  0  0  0  0
  184.4660  175.2630  135.1840 C   0  0  0  0  0  3  0  0  0  0  0  0
  186.8670  178.0380  138.4150 C   0  0  0  0  0  3  0  0  0  0  0  0
  186.9340  174.9220  135.3780 C   0  0  0  0  0  2  0  0  0  0  0  0
  192.1340  175.2190  137.5240 C   0  0  2  0  0  3  0  0  0  0  0  0
  188.8780  173.1630  136.9720 C   0  0  0  0  0  1  0  0  0  0  0  0
  192.8870  175.5080  136.2410 C   0  0  0  0  0  1  0  0  0  0  0  0
  186.8770  175.8740  136.5440 C   0  0  0  0  0  0  0  0  0  0  0  0
  185.5670  174.5850  134.8400 C   0  0  0  0  0  3  0  0  0  0  0  0
  185.6420  176.6560  136.8080 C   0  0  0  0  0  0  0  0  0  0  0  0
  190.0370  176.3510  138.3760 C   0  0  1  0  0  3  0  0  0  0  0  0
  187.9500  176.1630  137.2930 C   0  0  0  0  0  0  0  0  0  0  0  0
  191.1360  174.0800  137.2920 C   0  0  0  0  0  3  0  0  0  0  0  0
  185.6760  177.7050  137.7440 O   0  0  0  0  0  0  0  0  0  0  0  0
  192.2000  176.9240  139.2280 O   0  0  0  0  0  1  0  0  0  0  0  0
  191.5190  176.5430  138.0720 C   0  0  1  0  0  3  0  0  0  0  0  0
  189.8200  174.3110  137.1070 C   0  0  0  0  0  0  0  0  0  0  0  0
  189.5220  178.3570  139.9090 C   0  0  0  0  0  2  0  0  0  0  0  0
  188.2820  176.3950  143.5180 C   0  0  0  0  0  3  0  0  0  0  0  0
  189.0820  177.6620  141.1550 C   0  0  0  0  0  0  0  0  0  0  0  0
  189.8840  176.6660  141.7220 C   0  0  0  0  0  3  0  0  0  0  0  0
  189.4840  176.0320  142.9030 C   0  0  0  0  0  3  0  0  0  0  0  0
  187.4800  177.3930  142.9540 C   0  0  0  0  0  3  0  0  0  0  0  0
  187.8810  178.0280  141.7740 C   0  0  0  0  0  3  0  0  0  0  0  0
  1 21  1  0  0  0  0
  2  6  2  0  0  0  0
  2  1  1  0  0  0  0
  3 20  1  1  0  0  0
  3 15  1  0  0  0  0
  3 14  1  0  0  0  0
  4 13  2  0  0  0  0
  5  4  1  0  0  0  0
  7 11  1  0  0  0  0
  8 10  1  6  0  0  0
  8 19  1  0  0  0  0
  9 20  1  0  0  0  0
 11 13  1  0  0  0  0
 11 15  2  0  0  0  0
 12  5  2  0  0  0  0
 12  7  1  0  0  0  0
 13 17  1  0  0  0  0
 14  1  1  6  0  0  0
 15  2  1  0  0  0  0
 16  8  1  0  0  0  0
 17  6  1  0  0  0  0
 19 14  1  0  0  0  0
 19 18  1  1  0  0  0
 20 16  2  0  0  0  0
 21 23  1  0  0  0  0
 23 24  2  0  0  0  0
 23 27  1  0  0  0  0
 24 25  1  0  0  0  0
 25 22  2  0  0  0  0
 26 22  1  0  0  0  0
 27 26  2  0  0  0  0
M  END
>  <MODEL>
9

>  <REMARK>
 VINA RESULT:      -6.7      2.350      6.752
  Name = 
  2 active torsions:
  status: ('A' for Active; 'I' for Inactive)
    1  A    between atoms: N_1  and  C_15
    2  A    between atoms: C_9  and  C_15
                            x       y       z     vdW  Elec       q    Type
                         _______ _______ _______ _____ _____    ______ ____

>  <TORSDO>
F 2

$$$$
