=
 OpenBabel10272413273D

 32 38  0  0  1  0  0  0  0  0999 V2000
  189.0140  177.5040  141.3220 C   0  0  1  0  0  3  0  0  0  0  0  0
  191.4920  176.1130  144.8050 C   0  0  0  0  0  2  0  0  0  0  0  0
  191.5090  177.4890  145.4690 C   0  0  0  0  0  2  0  0  0  0  0  0
  186.7000  178.1610  142.0790 C   0  0  0  0  0  0  0  0  0  0  0  0
  186.2810  178.4190  140.7860 C   0  0  0  0  0  0  0  0  0  0  0  0
  184.5820  178.8930  142.9910 C   0  0  0  0  0  0  0  0  0  0  0  0
  190.7900  176.6840  142.6350 O   0  0  0  0  0  0  0  0  0  0  0  0
  189.8790  176.3020  141.6510 C   0  0  0  0  0  2  0  0  0  0  0  0
  190.3290  176.1230  143.8350 C   0  0  2  0  0  3  0  0  0  0  0  0
  188.1370  177.5280  143.7840 C   0  0  0  0  0  0  0  0  0  0  0  0
  184.1440  179.1730  141.6840 C   0  0  0  0  0  3  0  0  0  0  0  0
  184.9930  178.9390  140.5800 C   0  0  0  0  0  3  0  0  0  0  0  0
  190.1720  178.1470  145.1620 C   0  0  0  0  0  2  0  0  0  0  0  0
  189.3450  177.0480  144.5410 C   0  0  2  0  0  3  0  0  0  0  0  0
  186.7010  177.9890  144.5630 S   0  0  0  0  0  0  0  0  0  0  0  0
  188.4220  177.4010  139.8800 C   0  0  1  0  0  3  0  0  0  0  0  0
  187.1740  178.1640  139.7050 N   0  0  0  0  0  2  0  0  0  0  0  0
  183.7530  179.1240  144.0820 O   0  0  0  0  0  1  0  0  0  0  0  0
  187.9680  177.6850  142.3950 C   0  0  0  0  0  0  0  0  0  0  0  0
  185.8720  178.3870  143.1580 C   0  0  0  0  0  0  0  0  0  0  0  0
  190.6280  175.8320  138.0360 C   0  0  0  0  0  2  0  0  0  0  0  0
  189.4240  177.7240  138.7230 C   0  0  1  0  0  0  0  0  0  0  0  0
  189.1190  179.0700  138.0820 C   0  0  0  0  0  1  0  0  0  0  0  0
  191.6170  176.6820  138.7950 C   0  0  0  0  0  2  0  0  0  0  0  0
  190.8120  177.8420  139.3350 C   0  0  0  0  0  2  0  0  0  0  0  0
  189.5270  176.7010  137.6580 N   0  0  0  0  0  0  0  0  0  0  0  0
  188.3360  175.8730  137.4720 C   0  0  0  0  0  2  0  0  0  0  0  0
  186.5740  177.0820  136.2010 C   0  0  0  0  0  2  0  0  0  0  0  0
  188.7140  176.7390  135.2310 N   0  0  0  0  0  2  0  0  0  0  0  0
  186.8610  178.0880  135.1200 C   0  0  0  0  0  2  0  0  0  0  0  0
  187.7280  176.1210  136.1020 C   0  0  1  0  0  3  0  0  0  0  0  0
  188.0070  177.5970  134.3710 N   0  0  0  0  0  2  0  0  0  0  0  0
  1  8  1  1  0  0  0
  1 19  1  0  0  0  0
  2  3  1  0  0  0  0
  4 19  1  0  0  0  0
  4 20  1  0  0  0  0
  5  4  2  0  0  0  0
  6 20  2  0  0  0  0
  6 18  1  0  0  0  0
  7  9  1  0  0  0  0
  8  7  1  0  0  0  0
  9 14  1  0  0  0  0
  9  2  1  1  0  0  0
 10 14  1  0  0  0  0
 10 15  1  0  0  0  0
 11  6  1  0  0  0  0
 12  5  1  0  0  0  0
 12 11  2  0  0  0  0
 13  3  1  0  0  0  0
 14 13  1  6  0  0  0
 16 17  1  1  0  0  0
 16  1  1  0  0  0  0
 17  5  1  0  0  0  0
 19 10  2  0  0  0  0
 20 15  1  0  0  0  0
 21 24  1  0  0  0  0
 22 23  1  6  0  0  0
 22 25  1  0  0  0  0
 22 16  1  0  0  0  0
 24 25  1  0  0  0  0
 26 21  1  0  0  0  0
 26 22  1  0  0  0  0
 27 26  1  0  0  0  0
 29 31  1  0  0  0  0
 30 28  1  0  0  0  0
 31 28  1  0  0  0  0
 31 27  1  1  0  0  0
 32 30  1  0  0  0  0
 32 29  1  0  0  0  0
M  END
>  <MODEL>
1

>  <REMARK>
 VINA RESULT:      -8.1      0.000      0.000
  Name = 
  3 active torsions:
  status: ('A' for Active; 'I' for Inactive)
    1  A    between atoms: C_8  and  C_28
    2  A    between atoms: C_19  and  C_24
    3  A    between atoms: N_23  and  C_24
                            x       y       z     vdW  Elec       q    Type
                         _______ _______ _______ _____ _____    ______ ____

>  <TORSDO>
F 3

$$$$
=
 OpenBabel10272413273D

 32 38  0  0  1  0  0  0  0  0999 V2000
  187.6800  177.7620  140.6700 C   0  0  1  0  0  3  0  0  0  0  0  0
  187.2230  178.2940  136.2300 C   0  0  0  0  0  2  0  0  0  0  0  0
  186.1770  177.1870  136.1060 C   0  0  0  0  0  2  0  0  0  0  0  0
  185.5550  178.3990  141.8690 C   0  0  0  0  0  0  0  0  0  0  0  0
  186.1180  178.1890  143.1150 C   0  0  0  0  0  0  0  0  0  0  0  0
  183.3990  178.9010  142.8470 C   0  0  0  0  0  0  0  0  0  0  0  0
  188.1100  177.8210  138.3550 O   0  0  0  0  0  0  0  0  0  0  0  0
  188.4510  178.4430  139.5550 C   0  0  0  0  0  2  0  0  0  0  0  0
  187.2430  178.6980  137.6900 C   0  0  2  0  0  3  0  0  0  0  0  0
  185.4380  178.5120  139.5570 C   0  0  0  0  0  0  0  0  0  0  0  0
  183.9530  178.6780  144.1210 C   0  0  0  0  0  3  0  0  0  0  0  0
  185.3120  178.3190  144.2570 C   0  0  0  0  0  3  0  0  0  0  0  0
  185.3550  177.2060  137.3860 C   0  0  0  0  0  2  0  0  0  0  0  0
  185.7930  178.4640  138.0950 C   0  0  2  0  0  3  0  0  0  0  0  0
  183.8780  178.9050  140.1000 S   0  0  0  0  0  0  0  0  0  0  0  0
  188.4050  177.9250  142.0450 C   0  0  1  0  0  3  0  0  0  0  0  0
  187.4960  177.8300  143.1990 N   0  0  0  0  0  2  0  0  0  0  0  0
  182.0620  179.2510  142.7060 O   0  0  0  0  0  1  0  0  0  0  0  0
  186.2540  178.2560  140.6750 C   0  0  0  0  0  0  0  0  0  0  0  0
  184.2290  178.7520  141.7340 C   0  0  0  0  0  0  0  0  0  0  0  0
  191.6680  178.1260  141.8420 C   0  0  0  0  0  2  0  0  0  0  0  0
  189.6510  177.0030  142.2560 C   0  0  1  0  0  0  0  0  0  0  0  0
  189.2850  175.7400  143.0200 C   0  0  0  0  0  1  0  0  0  0  0  0
  191.4840  177.1890  140.6730 C   0  0  0  0  0  2  0  0  0  0  0  0
  190.1290  176.5530  140.8830 C   0  0  0  0  0  2  0  0  0  0  0  0
  190.8160  177.6370  142.9120 N   0  0  0  0  0  0  0  0  0  0  0  0
  190.5000  178.7610  143.7920 C   0  0  0  0  0  2  0  0  0  0  0  0
  189.5300  178.0070  145.9540 C   0  0  0  0  0  2  0  0  0  0  0  0
  191.6800  177.2490  145.2870 N   0  0  0  0  0  2  0  0  0  0  0  0
  189.8970  176.7170  146.6320 C   0  0  0  0  0  2  0  0  0  0  0  0
  190.7940  178.4010  145.2380 C   0  0  1  0  0  3  0  0  0  0  0  0
  191.3260  176.5220  146.4360 N   0  0  0  0  0  2  0  0  0  0  0  0
  1  8  1  6  0  0  0
  1 19  1  0  0  0  0
  1 16  1  0  0  0  0
  3  2  1  0  0  0  0
  3 13  1  0  0  0  0
  4  5  1  0  0  0  0
  5 17  1  0  0  0  0
  5 12  2  0  0  0  0
  6 11  2  0  0  0  0
  7  8  1  0  0  0  0
  9  2  1  6  0  0  0
  9 14  1  0  0  0  0
  9  7  1  0  0  0  0
 10 15  1  0  0  0  0
 10 19  2  0  0  0  0
 11 12  1  0  0  0  0
 14 13  1  1  0  0  0
 14 10  1  0  0  0  0
 15 20  1  0  0  0  0
 16 22  1  0  0  0  0
 16 17  1  1  0  0  0
 18  6  1  0  0  0  0
 19  4  1  0  0  0  0
 20  4  2  0  0  0  0
 20  6  1  0  0  0  0
 21 26  1  0  0  0  0
 22 26  1  0  0  0  0
 22 23  1  1  0  0  0
 24 25  1  0  0  0  0
 24 21  1  0  0  0  0
 25 22  1  0  0  0  0
 26 27  1  0  0  0  0
 28 30  1  0  0  0  0
 29 32  1  0  0  0  0
 31 27  1  6  0  0  0
 31 29  1  0  0  0  0
 31 28  1  0  0  0  0
 32 30  1  0  0  0  0
M  END
>  <MODEL>
2

>  <REMARK>
 VINA RESULT:      -7.9      3.077      6.469
  Name = 
  3 active torsions:
  status: ('A' for Active; 'I' for Inactive)
    1  A    between atoms: C_8  and  C_28
    2  A    between atoms: C_19  and  C_24
    3  A    between atoms: N_23  and  C_24
                            x       y       z     vdW  Elec       q    Type
                         _______ _______ _______ _____ _____    ______ ____

>  <TORSDO>
F 3

$$$$
=
 OpenBabel10272413273D

 32 38  0  0  1  0  0  0  0  0999 V2000
  188.2140  177.7330  140.7110 C   0  0  1  0  0  3  0  0  0  0  0  0
  189.0840  178.1260  136.3190 C   0  0  0  0  0  2  0  0  0  0  0  0
  188.1330  176.9960  135.9280 C   0  0  0  0  0  2  0  0  0  0  0  0
  185.8240  178.3640  141.2070 C   0  0  0  0  0  0  0  0  0  0  0  0
  185.9950  178.2000  142.5700 C   0  0  0  0  0  0  0  0  0  0  0  0
  183.4700  178.8520  141.4880 C   0  0  0  0  0  0  0  0  0  0  0  0
  189.3090  177.7320  138.6250 O   0  0  0  0  0  0  0  0  0  0  0  0
  189.2730  178.3960  139.8510 C   0  0  0  0  0  2  0  0  0  0  0  0
  188.6680  178.5730  137.7050 C   0  0  2  0  0  3  0  0  0  0  0  0
  186.3940  178.4070  138.9610 C   0  0  0  0  0  0  0  0  0  0  0  0
  183.6250  178.6770  142.8750 C   0  0  0  0  0  3  0  0  0  0  0  0
  184.8860  178.3490  143.4180 C   0  0  0  0  0  3  0  0  0  0  0  0
  186.9690  177.0370  136.9070 C   0  0  0  0  0  2  0  0  0  0  0  0
  187.1660  178.3230  137.6720 C   0  0  2  0  0  3  0  0  0  0  0  0
  184.7390  178.7860  139.0060 S   0  0  0  0  0  0  0  0  0  0  0  0
  188.4990  177.9500  142.2320 C   0  0  1  0  0  3  0  0  0  0  0  0
  187.2900  177.8710  143.0690 N   0  0  0  0  0  2  0  0  0  0  0  0
  182.2310  179.1720  140.9470 O   0  0  0  0  0  1  0  0  0  0  0  0
  186.8450  178.1990  140.2780 C   0  0  0  0  0  0  0  0  0  0  0  0
  184.5930  178.6870  140.6750 C   0  0  0  0  0  0  0  0  0  0  0  0
  191.3620  178.3350  143.7760 C   0  0  0  0  0  2  0  0  0  0  0  0
  189.6350  177.0580  142.8320 C   0  0  1  0  0  0  0  0  0  0  0  0
  189.1840  175.6140  142.9900 C   0  0  0  0  0  1  0  0  0  0  0  0
  191.9340  177.7700  142.4990 C   0  0  0  0  0  2  0  0  0  0  0  0
  190.7850  177.0450  141.8360 C   0  0  0  0  0  2  0  0  0  0  0  0
  190.2060  177.5220  144.1160 N   0  0  0  0  0  0  0  0  0  0  0  0
  189.3080  178.3300  144.9410 C   0  0  0  0  0  2  0  0  0  0  0  0
  189.6960  177.6380  147.2980 C   0  0  0  0  0  2  0  0  0  0  0  0
  187.4850  178.0200  146.5200 N   0  0  0  0  0  2  0  0  0  0  0  0
  188.7570  177.9540  148.4290 C   0  0  0  0  0  2  0  0  0  0  0  0
  188.7830  177.5120  146.1080 C   0  0  1  0  0  3  0  0  0  0  0  0
  187.4030  177.8300  147.9100 N   0  0  0  0  0  2  0  0  0  0  0  0
  1  8  1  6  0  0  0
  1 16  1  0  0  0  0
  3  2  1  0  0  0  0
  3 13  1  0  0  0  0
  4  5  1  0  0  0  0
  5 17  1  0  0  0  0
  5 12  2  0  0  0  0
  6 11  2  0  0  0  0
  7  8  1  0  0  0  0
  9  2  1  6  0  0  0
  9  7  1  0  0  0  0
 10 15  1  0  0  0  0
 10 19  2  0  0  0  0
 11 12  1  0  0  0  0
 14 13  1  1  0  0  0
 14  9  1  0  0  0  0
 14 10  1  0  0  0  0
 15 20  1  0  0  0  0
 16 22  1  0  0  0  0
 16 17  1  1  0  0  0
 18  6  1  0  0  0  0
 19  1  1  0  0  0  0
 19  4  1  0  0  0  0
 20  4  2  0  0  0  0
 20  6  1  0  0  0  0
 21 26  1  0  0  0  0
 22 23  1  1  0  0  0
 22 26  1  0  0  0  0
 24 21  1  0  0  0  0
 25 24  1  0  0  0  0
 25 22  1  0  0  0  0
 26 27  1  0  0  0  0
 28 30  1  0  0  0  0
 29 32  1  0  0  0  0
 31 27  1  6  0  0  0
 31 29  1  0  0  0  0
 31 28  1  0  0  0  0
 32 30  1  0  0  0  0
M  END
>  <MODEL>
3

>  <REMARK>
 VINA RESULT:      -7.9      3.127      6.776
  Name = 
  3 active torsions:
  status: ('A' for Active; 'I' for Inactive)
    1  A    between atoms: C_8  and  C_28
    2  A    between atoms: C_19  and  C_24
    3  A    between atoms: N_23  and  C_24
                            x       y       z     vdW  Elec       q    Type
                         _______ _______ _______ _____ _____    ______ ____

>  <TORSDO>
F 3

$$$$
=
 OpenBabel10272413273D

 32 38  0  0  1  0  0  0  0  0999 V2000
  188.9520  177.5630  141.1710 C   0  0  1  0  0  3  0  0  0  0  0  0
  191.5040  176.1470  144.5900 C   0  0  0  0  0  2  0  0  0  0  0  0
  191.5300  177.5160  145.2670 C   0  0  0  0  0  2  0  0  0  0  0  0
  186.6520  178.2060  141.9810 C   0  0  0  0  0  0  0  0  0  0  0  0
  186.2050  178.4750  140.6990 C   0  0  0  0  0  0  0  0  0  0  0  0
  184.5510  178.9220  142.9430 C   0  0  0  0  0  0  0  0  0  0  0  0
  190.7560  176.7360  142.4410 O   0  0  0  0  0  0  0  0  0  0  0  0
  189.8270  176.3610  141.4710 C   0  0  0  0  0  2  0  0  0  0  0  0
  190.3210  176.1630  143.6440 C   0  0  2  0  0  3  0  0  0  0  0  0
  188.1250  177.5600  143.6500 C   0  0  0  0  0  0  0  0  0  0  0  0
  184.0850  179.2130  141.6470 C   0  0  0  0  0  3  0  0  0  0  0  0
  184.9120  178.9920  140.5250 C   0  0  0  0  0  3  0  0  0  0  0  0
  190.1850  178.1730  144.9930 C   0  0  0  0  0  2  0  0  0  0  0  0
  189.3500  177.0770  144.3780 C   0  0  2  0  0  3  0  0  0  0  0  0
  186.7030  178.0100  144.4620 S   0  0  0  0  0  0  0  0  0  0  0  0
  188.3320  177.4720  139.7400 C   0  0  1  0  0  3  0  0  0  0  0  0
  187.0780  178.2330  139.5980 N   0  0  0  0  0  2  0  0  0  0  0  0
  183.7420  179.1390  144.0520 O   0  0  0  0  0  1  0  0  0  0  0  0
  187.9270  177.7310  142.2670 C   0  0  0  0  0  0  0  0  0  0  0  0
  185.8450  178.4180  143.0790 C   0  0  0  0  0  0  0  0  0  0  0  0
  190.4060  175.9040  137.7480 C   0  0  0  0  0  2  0  0  0  0  0  0
  189.3090  177.8100  138.5660 C   0  0  1  0  0  0  0  0  0  0  0  0
  189.0430  179.1970  138.0020 C   0  0  0  0  0  1  0  0  0  0  0  0
  191.4550  176.6730  138.5130 C   0  0  0  0  0  2  0  0  0  0  0  0
  190.7200  177.8380  139.1350 C   0  0  0  0  0  2  0  0  0  0  0  0
  189.3320  176.8370  137.4500 N   0  0  0  0  0  0  0  0  0  0  0  0
  188.1010  176.0710  137.2660 C   0  0  0  0  0  2  0  0  0  0  0  0
  187.4430  173.7120  136.8370 C   0  0  0  0  0  2  0  0  0  0  0  0
  188.1130  175.1040  135.0340 N   0  0  0  0  0  2  0  0  0  0  0  0
  186.9000  173.2180  135.5250 C   0  0  0  0  0  2  0  0  0  0  0  0
  188.3710  174.8270  136.4370 C   0  0  1  0  0  3  0  0  0  0  0  0
  187.6300  173.9100  134.4730 N   0  0  0  0  0  2  0  0  0  0  0  0
  1  8  1  1  0  0  0
  1 19  1  0  0  0  0
  2  3  1  0  0  0  0
  4 19  1  0  0  0  0
  4 20  1  0  0  0  0
  5  4  2  0  0  0  0
  6 20  2  0  0  0  0
  6 18  1  0  0  0  0
  7  9  1  0  0  0  0
  8  7  1  0  0  0  0
  9 14  1  0  0  0  0
  9  2  1  1  0  0  0
 10 14  1  0  0  0  0
 10 15  1  0  0  0  0
 11  6  1  0  0  0  0
 12  5  1  0  0  0  0
 12 11  2  0  0  0  0
 13  3  1  0  0  0  0
 14 13  1  6  0  0  0
 16 17  1  1  0  0  0
 16  1  1  0  0  0  0
 17  5  1  0  0  0  0
 19 10  2  0  0  0  0
 20 15  1  0  0  0  0
 21 24  1  0  0  0  0
 22 23  1  6  0  0  0
 22 25  1  0  0  0  0
 22 16  1  0  0  0  0
 24 25  1  0  0  0  0
 26 21  1  0  0  0  0
 26 22  1  0  0  0  0
 27 26  1  0  0  0  0
 29 31  1  0  0  0  0
 30 28  1  0  0  0  0
 31 28  1  0  0  0  0
 31 27  1  1  0  0  0
 32 29  1  0  0  0  0
 32 30  1  0  0  0  0
M  END
>  <MODEL>
4

>  <REMARK>
 VINA RESULT:      -7.6      0.990      1.329
  Name = 
  3 active torsions:
  status: ('A' for Active; 'I' for Inactive)
    1  A    between atoms: C_8  and  C_28
    2  A    between atoms: C_19  and  C_24
    3  A    between atoms: N_23  and  C_24
                            x       y       z     vdW  Elec       q    Type
                         _______ _______ _______ _____ _____    ______ ____

>  <TORSDO>
F 3

$$$$
=
 OpenBabel10272413273D

 32 38  0  0  1  0  0  0  0  0999 V2000
  189.4440  177.1920  140.5090 C   0  0  1  0  0  3  0  0  0  0  0  0
  191.5400  175.9540  136.7300 C   0  0  0  0  0  2  0  0  0  0  0  0
  190.5560  174.8230  136.4380 C   0  0  0  0  0  2  0  0  0  0  0  0
  187.1520  178.1100  139.9980 C   0  0  0  0  0  0  0  0  0  0  0  0
  186.9120  178.4270  141.3230 C   0  0  0  0  0  0  0  0  0  0  0  0
  184.9290  178.8150  139.3520 C   0  0  0  0  0  0  0  0  0  0  0  0
  191.0530  176.3860  138.9890 O   0  0  0  0  0  0  0  0  0  0  0  0
  190.7950  177.4400  139.8640 C   0  0  0  0  0  2  0  0  0  0  0  0
  190.8410  176.8870  137.6970 C   0  0  2  0  0  3  0  0  0  0  0  0
  188.3150  177.3210  138.1550 C   0  0  0  0  0  0  0  0  0  0  0  0
  184.6650  179.1320  140.6970 C   0  0  0  0  0  3  0  0  0  0  0  0
  185.6550  178.9360  141.6840 C   0  0  0  0  0  3  0  0  0  0  0  0
  189.1930  175.2810  136.9330 C   0  0  0  0  0  2  0  0  0  0  0  0
  189.3860  176.7390  137.2720 C   0  0  2  0  0  3  0  0  0  0  0  0
  186.8010  177.7970  137.5530 S   0  0  0  0  0  0  0  0  0  0  0  0
  189.3330  177.9130  141.8910 C   0  0  1  0  0  3  0  0  0  0  0  0
  187.9450  178.2120  142.2830 N   0  0  0  0  0  2  0  0  0  0  0  0
  183.9590  179.0040  138.3750 O   0  0  0  0  0  1  0  0  0  0  0  0
  188.3460  177.5630  139.5420 C   0  0  0  0  0  0  0  0  0  0  0  0
  186.1870  178.3030  139.0310 C   0  0  0  0  0  0  0  0  0  0  0  0
  190.5580  178.7040  144.8230 C   0  0  0  0  0  2  0  0  0  0  0  0
  190.0940  177.2190  143.0680 C   0  0  1  0  0  0  0  0  0  0  0  0
  190.0210  175.7030  142.9610 C   0  0  0  0  0  1  0  0  0  0  0  0
  191.8850  178.4540  144.1490 C   0  0  0  0  0  2  0  0  0  0  0  0
  191.5640  177.5910  142.9500 C   0  0  0  0  0  2  0  0  0  0  0  0
  189.6740  177.6210  144.4300 N   0  0  0  0  0  0  0  0  0  0  0  0
  188.2950  178.0950  144.5420 C   0  0  0  0  0  2  0  0  0  0  0  0
  188.6290  177.3200  146.8800 C   0  0  0  0  0  2  0  0  0  0  0  0
  186.6110  178.4110  146.2670 N   0  0  0  0  0  2  0  0  0  0  0  0
  187.9460  177.9320  148.0720 C   0  0  0  0  0  2  0  0  0  0  0  0
  187.6290  177.5000  145.7700 C   0  0  1  0  0  3  0  0  0  0  0  0
  186.5880  178.2620  147.6640 N   0  0  0  0  0  2  0  0  0  0  0  0
  1  8  1  6  0  0  0
  1 16  1  0  0  0  0
  3  2  1  0  0  0  0
  3 13  1  0  0  0  0
  4  5  1  0  0  0  0
  5 12  2  0  0  0  0
  5 17  1  0  0  0  0
  6 11  2  0  0  0  0
  7  8  1  0  0  0  0
  9  2  1  6  0  0  0
  9  7  1  0  0  0  0
 10 19  2  0  0  0  0
 11 12  1  0  0  0  0
 14 13  1  1  0  0  0
 14  9  1  0  0  0  0
 14 10  1  0  0  0  0
 15 10  1  0  0  0  0
 15 20  1  0  0  0  0
 16 17  1  1  0  0  0
 16 22  1  0  0  0  0
 18  6  1  0  0  0  0
 19  4  1  0  0  0  0
 19  1  1  0  0  0  0
 20  6  1  0  0  0  0
 20  4  2  0  0  0  0
 22 23  1  6  0  0  0
 22 26  1  0  0  0  0
 24 21  1  0  0  0  0
 25 22  1  0  0  0  0
 25 24  1  0  0  0  0
 26 27  1  0  0  0  0
 26 21  1  0  0  0  0
 28 30  1  0  0  0  0
 29 32  1  0  0  0  0
 31 27  1  6  0  0  0
 31 29  1  0  0  0  0
 31 28  1  0  0  0  0
 32 30  1  0  0  0  0
M  END
>  <MODEL>
5

>  <REMARK>
 VINA RESULT:      -7.3      3.078      6.763
  Name = 
  3 active torsions:
  status: ('A' for Active; 'I' for Inactive)
    1  A    between atoms: C_8  and  C_28
    2  A    between atoms: C_19  and  C_24
    3  A    between atoms: N_23  and  C_24
                            x       y       z     vdW  Elec       q    Type
                         _______ _______ _______ _____ _____    ______ ____

>  <TORSDO>
F 3

$$$$
=
 OpenBabel10272413273D

 32 38  0  0  1  0  0  0  0  0999 V2000
  184.3830  178.4260  141.5820 C   0  0  1  0  0  3  0  0  0  0  0  0
  185.4070  178.6680  145.9530 C   0  0  0  0  0  2  0  0  0  0  0  0
  186.0620  177.2880  145.9770 C   0  0  0  0  0  2  0  0  0  0  0  0
  186.4760  178.4050  140.1760 C   0  0  0  0  0  0  0  0  0  0  0  0
  185.7590  178.4130  138.9930 C   0  0  0  0  0  0  0  0  0  0  0  0
  188.5760  178.2390  138.9860 C   0  0  0  0  0  0  0  0  0  0  0  0
  184.2160  178.5520  143.9290 O   0  0  0  0  0  0  0  0  0  0  0  0
  183.9740  179.2820  142.7660 C   0  0  0  0  0  2  0  0  0  0  0  0
  185.3740  179.0980  144.5010 C   0  0  2  0  0  3  0  0  0  0  0  0
  186.8440  178.4130  142.4640 C   0  0  0  0  0  0  0  0  0  0  0  0
  187.8610  178.2340  137.7740 C   0  0  0  0  0  3  0  0  0  0  0  0
  186.4520  178.3180  137.7760 C   0  0  0  0  0  3  0  0  0  0  0  0
  186.7230  177.0870  144.6210 C   0  0  0  0  0  2  0  0  0  0  0  0
  186.6320  178.4370  143.9540 C   0  0  2  0  0  3  0  0  0  0  0  0
  188.3890  178.3170  141.7670 S   0  0  0  0  0  0  0  0  0  0  0  0
  183.6170  178.8440  140.2860 C   0  0  1  0  0  3  0  0  0  0  0  0
  184.3360  178.5030  139.0470 N   0  0  0  0  0  2  0  0  0  0  0  0
  189.9630  178.1530  138.9910 O   0  0  0  0  0  1  0  0  0  0  0  0
  185.8850  178.4530  141.4330 C   0  0  0  0  0  0  0  0  0  0  0  0
  187.8530  178.3250  140.1760 C   0  0  0  0  0  0  0  0  0  0  0  0
  180.6100  180.0720  140.7060 C   0  0  0  0  0  2  0  0  0  0  0  0
  182.1320  178.3590  140.2040 C   0  0  1  0  0  0  0  0  0  0  0  0
  182.0190  177.0300  139.4730 C   0  0  0  0  0  1  0  0  0  0  0  0
  180.5830  179.1500  141.9010 C   0  0  0  0  0  2  0  0  0  0  0  0
  181.6480  178.1130  141.6250 C   0  0  0  0  0  2  0  0  0  0  0  0
  181.1760  179.3170  139.6020 N   0  0  0  0  0  0  0  0  0  0  0  0
  181.7580  180.2650  138.6530 C   0  0  0  0  0  2  0  0  0  0  0  0
  180.8560  182.4650  137.9280 C   0  0  0  0  0  2  0  0  0  0  0  0
  180.7310  180.5920  136.4740 N   0  0  0  0  0  2  0  0  0  0  0  0
  180.7310  182.8870  136.4900 C   0  0  0  0  0  2  0  0  0  0  0  0
  180.6640  180.9730  137.8750 C   0  0  1  0  0  3  0  0  0  0  0  0
  180.3210  181.7140  135.7340 N   0  0  0  0  0  2  0  0  0  0  0  0
  1  8  1  1  0  0  0
  2  3  1  0  0  0  0
  4 20  1  0  0  0  0
  4 19  1  0  0  0  0
  5 17  1  0  0  0  0
  5  4  2  0  0  0  0
  6 18  1  0  0  0  0
  6 20  2  0  0  0  0
  7  9  1  0  0  0  0
  8  7  1  0  0  0  0
  9  2  1  1  0  0  0
 10 14  1  0  0  0  0
 11 12  2  0  0  0  0
 11  6  1  0  0  0  0
 12  5  1  0  0  0  0
 13  3  1  0  0  0  0
 14  9  1  0  0  0  0
 14 13  1  6  0  0  0
 15 10  1  0  0  0  0
 16 17  1  6  0  0  0
 16  1  1  0  0  0  0
 19  1  1  0  0  0  0
 19 10  2  0  0  0  0
 20 15  1  0  0  0  0
 21 24  1  0  0  0  0
 22 23  1  6  0  0  0
 22 16  1  0  0  0  0
 22 25  1  0  0  0  0
 25 24  1  0  0  0  0
 26 22  1  0  0  0  0
 26 21  1  0  0  0  0
 27 26  1  0  0  0  0
 29 31  1  0  0  0  0
 30 28  1  0  0  0  0
 31 28  1  0  0  0  0
 31 27  1  1  0  0  0
 32 29  1  0  0  0  0
 32 30  1  0  0  0  0
M  END
>  <MODEL>
6

>  <REMARK>
 VINA RESULT:      -6.9      3.683      6.687
  Name = 
  3 active torsions:
  status: ('A' for Active; 'I' for Inactive)
    1  A    between atoms: C_8  and  C_28
    2  A    between atoms: C_19  and  C_24
    3  A    between atoms: N_23  and  C_24
                            x       y       z     vdW  Elec       q    Type
                         _______ _______ _______ _____ _____    ______ ____

>  <TORSDO>
F 3

$$$$
=
 OpenBabel10272413273D

 32 38  0  0  1  0  0  0  0  0999 V2000
  187.8810  178.0310  143.8210 C   0  0  1  0  0  3  0  0  0  0  0  0
  189.0770  177.0520  148.0420 C   0  0  0  0  0  2  0  0  0  0  0  0
  188.6480  178.4140  148.5840 C   0  0  0  0  0  2  0  0  0  0  0  0
  185.3830  178.3190  143.6450 C   0  0  0  0  0  0  0  0  0  0  0  0
  185.4350  178.5060  142.2750 C   0  0  0  0  0  0  0  0  0  0  0  0
  182.9950  178.7120  143.6800 C   0  0  0  0  0  0  0  0  0  0  0  0
  189.1470  177.5010  145.7360 O   0  0  0  0  0  0  0  0  0  0  0  0
  188.7280  176.9800  144.5130 C   0  0  0  0  0  2  0  0  0  0  0  0
  188.3640  176.8780  146.7170 C   0  0  2  0  0  3  0  0  0  0  0  0
  186.1660  177.9210  145.7900 C   0  0  0  0  0  0  0  0  0  0  0  0
  183.0330  178.9180  142.2890 C   0  0  0  0  0  3  0  0  0  0  0  0
  184.2530  178.8170  141.5850 C   0  0  0  0  0  3  0  0  0  0  0  0
  187.4380  178.8540  147.7740 C   0  0  0  0  0  2  0  0  0  0  0  0
  187.0660  177.6380  146.9620 C   0  0  2  0  0  3  0  0  0  0  0  0
  184.4930  178.1540  145.9650 S   0  0  0  0  0  0  0  0  0  0  0  0
  187.8840  177.8340  142.2710 C   0  0  1  0  0  3  0  0  0  0  0  0
  186.6910  178.3920  141.6100 N   0  0  0  0  0  2  0  0  0  0  0  0
  181.7990  178.8120  144.3790 O   0  0  0  0  0  1  0  0  0  0  0  0
  186.4990  178.0480  144.4280 C   0  0  0  0  0  0  0  0  0  0  0  0
  184.1920  178.4140  144.3340 C   0  0  0  0  0  0  0  0  0  0  0  0
  190.6650  176.5380  141.1250 C   0  0  0  0  0  2  0  0  0  0  0  0
  189.1830  178.3080  141.5400 C   0  0  1  0  0  0  0  0  0  0  0  0
  189.0150  179.7020  140.9540 C   0  0  0  0  0  1  0  0  0  0  0  0
  191.2980  177.3370  142.2380 C   0  0  0  0  0  2  0  0  0  0  0  0
  190.2870  178.4080  142.5820 C   0  0  0  0  0  2  0  0  0  0  0  0
  189.6920  177.4050  140.4840 N   0  0  0  0  0  0  0  0  0  0  0  0
  188.6810  176.5610  139.8450 C   0  0  0  0  0  2  0  0  0  0  0  0
  187.2820  177.5010  138.0170 C   0  0  0  0  0  2  0  0  0  0  0  0
  189.6360  177.8190  137.9960 N   0  0  0  0  0  2  0  0  0  0  0  0
  187.6720  178.6970  137.1940 C   0  0  0  0  0  2  0  0  0  0  0  0
  188.6020  176.8640  138.3590 C   0  0  1  0  0  3  0  0  0  0  0  0
  189.1060  178.6070  136.9600 N   0  0  0  0  0  2  0  0  0  0  0  0
  1 19  1  0  0  0  0
  1  8  1  1  0  0  0
  2  3  1  0  0  0  0
  4 20  1  0  0  0  0
  4 19  1  0  0  0  0
  5  4  2  0  0  0  0
  6 20  2  0  0  0  0
  6 18  1  0  0  0  0
  7  9  1  0  0  0  0
  8  7  1  0  0  0  0
  9 14  1  0  0  0  0
  9  2  1  1  0  0  0
 10 15  1  0  0  0  0
 10 14  1  0  0  0  0
 11  6  1  0  0  0  0
 12  5  1  0  0  0  0
 12 11  2  0  0  0  0
 13  3  1  0  0  0  0
 14 13  1  6  0  0  0
 16 17  1  6  0  0  0
 16  1  1  0  0  0  0
 17  5  1  0  0  0  0
 19 10  2  0  0  0  0
 20 15  1  0  0  0  0
 21 24  1  0  0  0  0
 22 23  1  6  0  0  0
 22 16  1  0  0  0  0
 22 25  1  0  0  0  0
 24 25  1  0  0  0  0
 26 21  1  0  0  0  0
 26 22  1  0  0  0  0
 27 26  1  0  0  0  0
 28 31  1  0  0  0  0
 29 31  1  0  0  0  0
 30 28  1  0  0  0  0
 31 27  1  1  0  0  0
 32 30  1  0  0  0  0
 32 29  1  0  0  0  0
M  END
>  <MODEL>
7

>  <REMARK>
 VINA RESULT:      -6.6      2.088      2.841
  Name = 
  3 active torsions:
  status: ('A' for Active; 'I' for Inactive)
    1  A    between atoms: C_8  and  C_28
    2  A    between atoms: C_19  and  C_24
    3  A    between atoms: N_23  and  C_24
                            x       y       z     vdW  Elec       q    Type
                         _______ _______ _______ _____ _____    ______ ____

>  <TORSDO>
F 3

$$$$
=
 OpenBabel10272413273D

 32 38  0  0  1  0  0  0  0  0999 V2000
  184.1300  176.7030  137.6790 C   0  0  1  0  0  3  0  0  0  0  0  0
  182.2310  172.8420  136.3770 C   0  0  0  0  0  2  0  0  0  0  0  0
  182.2830  173.2030  134.8930 C   0  0  0  0  0  2  0  0  0  0  0  0
  186.5160  176.8390  136.8750 C   0  0  0  0  0  0  0  0  0  0  0  0
  186.7320  178.0440  137.5200 C   0  0  0  0  0  0  0  0  0  0  0  0
  188.7300  176.8800  135.9000 C   0  0  0  0  0  0  0  0  0  0  0  0
  182.5890  174.9510  137.3520 O   0  0  0  0  0  0  0  0  0  0  0  0
  183.3510  175.5790  138.3360 C   0  0  0  0  0  2  0  0  0  0  0  0
  183.2360  173.7400  137.0680 C   0  0  2  0  0  3  0  0  0  0  0  0
  185.3640  174.9510  136.1830 C   0  0  0  0  0  0  0  0  0  0  0  0
  188.9620  178.1120  136.5380 C   0  0  0  0  0  3  0  0  0  0  0  0
  187.9630  178.6970  137.3460 C   0  0  0  0  0  3  0  0  0  0  0  0
  183.5450  174.0260  134.6800 C   0  0  0  0  0  2  0  0  0  0  0  0
  184.2930  173.9120  135.9860 C   0  0  2  0  0  3  0  0  0  0  0  0
  186.8900  174.8340  135.4490 S   0  0  0  0  0  0  0  0  0  0  0  0
  184.5020  177.8160  138.7110 C   0  0  1  0  0  3  0  0  0  0  0  0
  185.6920  178.5930  138.3270 N   0  0  0  0  0  2  0  0  0  0  0  0
  189.7080  176.3000  135.1010 O   0  0  0  0  0  1  0  0  0  0  0  0
  185.3200  176.1330  136.9470 C   0  0  0  0  0  0  0  0  0  0  0  0
  187.4910  176.2650  136.0870 C   0  0  0  0  0  0  0  0  0  0  0  0
  181.6710  177.6790  140.3530 C   0  0  0  0  0  2  0  0  0  0  0  0
  183.3310  178.7740  139.1090 C   0  0  1  0  0  0  0  0  0  0  0  0
  183.7190  180.2330  138.9230 C   0  0  0  0  0  1  0  0  0  0  0  0
  181.0640  177.9100  138.9900 C   0  0  0  0  0  2  0  0  0  0  0  0
  182.1740  178.5090  138.1570 C   0  0  0  0  0  2  0  0  0  0  0  0
  182.7910  178.5950  140.4760 N   0  0  0  0  0  0  0  0  0  0  0  0
  183.7310  178.0380  141.4490 C   0  0  0  0  0  2  0  0  0  0  0  0
  182.9020  178.8680  143.6420 C   0  0  0  0  0  2  0  0  0  0  0  0
  185.2370  178.7410  143.2240 N   0  0  0  0  0  2  0  0  0  0  0  0
  183.6900  178.7880  144.9190 C   0  0  0  0  0  2  0  0  0  0  0  0
  183.9620  179.0200  142.5840 C   0  0  1  0  0  3  0  0  0  0  0  0
  185.0800  179.0600  144.5830 N   0  0  0  0  0  2  0  0  0  0  0  0
  1  8  1  1  0  0  0
  1 16  1  0  0  0  0
  3  2  1  0  0  0  0
  4 19  1  0  0  0  0
  4  5  1  0  0  0  0
  5 17  1  0  0  0  0
  6 20  1  0  0  0  0
  6 11  2  0  0  0  0
  7  8  1  0  0  0  0
  9  2  1  6  0  0  0
  9  7  1  0  0  0  0
 10 19  2  0  0  0  0
 11 12  1  0  0  0  0
 12  5  2  0  0  0  0
 13  3  1  0  0  0  0
 14 13  1  6  0  0  0
 14 10  1  0  0  0  0
 14  9  1  0  0  0  0
 15 20  1  0  0  0  0
 15 10  1  0  0  0  0
 16 17  1  6  0  0  0
 16 22  1  0  0  0  0
 18  6  1  0  0  0  0
 19  1  1  0  0  0  0
 20  4  2  0  0  0  0
 21 26  1  0  0  0  0
 22 23  1  6  0  0  0
 22 26  1  0  0  0  0
 24 21  1  0  0  0  0
 25 24  1  0  0  0  0
 25 22  1  0  0  0  0
 26 27  1  0  0  0  0
 28 30  1  0  0  0  0
 29 32  1  0  0  0  0
 31 27  1  6  0  0  0
 31 29  1  0  0  0  0
 31 28  1  0  0  0  0
 32 30  1  0  0  0  0
M  END
>  <MODEL>
8

>  <REMARK>
 VINA RESULT:      -6.2      4.709      8.709
  Name = 
  3 active torsions:
  status: ('A' for Active; 'I' for Inactive)
    1  A    between atoms: C_8  and  C_28
    2  A    between atoms: C_19  and  C_24
    3  A    between atoms: N_23  and  C_24
                            x       y       z     vdW  Elec       q    Type
                         _______ _______ _______ _____ _____    ______ ____

>  <TORSDO>
F 3

$$$$
=
 OpenBabel10272413273D

 32 38  0  0  1  0  0  0  0  0999 V2000
  185.8470  176.8240  137.3960 C   0  0  1  0  0  3  0  0  0  0  0  0
  183.1400  179.9140  139.2210 C   0  0  0  0  0  2  0  0  0  0  0  0
  182.1730  179.9070  138.0380 C   0  0  0  0  0  2  0  0  0  0  0  0
  184.6700  174.6010  137.2140 C   0  0  0  0  0  0  0  0  0  0  0  0
  185.8000  173.9700  136.7250 C   0  0  0  0  0  0  0  0  0  0  0  0
  183.3500  172.5880  136.9710 C   0  0  0  0  0  0  0  0  0  0  0  0
  185.0030  178.8430  138.2680 O   0  0  0  0  0  0  0  0  0  0  0  0
  185.9280  177.8320  138.5270 C   0  0  0  0  0  2  0  0  0  0  0  0
  183.9250  178.6210  139.1350 C   0  0  2  0  0  3  0  0  0  0  0  0
  183.3610  176.3300  138.0340 C   0  0  0  0  0  0  0  0  0  0  0  0
  184.4860  171.9340  136.4600 C   0  0  0  0  0  3  0  0  0  0  0  0
  185.7110  172.6240  136.3340 C   0  0  0  0  0  3  0  0  0  0  0  0
  182.1430  178.4860  137.4970 C   0  0  0  0  0  2  0  0  0  0  0  0
  182.9000  177.6770  138.5210 C   0  0  2  0  0  3  0  0  0  0  0  0
  182.3200  174.9920  137.9390 S   0  0  0  0  0  0  0  0  0  0  0  0
  187.1860  176.0320  137.2440 C   0  0  1  0  0  3  0  0  0  0  0  0
  187.0140  174.7090  136.6200 N   0  0  0  0  0  2  0  0  0  0  0  0
  182.1400  171.9160  137.0950 O   0  0  0  0  0  1  0  0  0  0  0  0
  184.6400  175.9390  137.5900 C   0  0  0  0  0  0  0  0  0  0  0  0
  183.4730  173.9290  137.3400 C   0  0  0  0  0  0  0  0  0  0  0  0
  189.0190  178.6930  137.7850 C   0  0  0  0  0  2  0  0  0  0  0  0
  188.3480  176.8150  136.5490 C   0  0  1  0  0  0  0  0  0  0  0  0
  189.0020  175.9850  135.4540 C   0  0  0  0  0  1  0  0  0  0  0  0
  188.2710  179.2430  136.5960 C   0  0  0  0  0  2  0  0  0  0  0  0
  187.7400  178.0310  135.8640 C   0  0  0  0  0  2  0  0  0  0  0  0
  189.4030  177.3320  137.4490 N   0  0  0  0  0  0  0  0  0  0  0  0
  189.5790  176.5880  138.6960 C   0  0  0  0  0  2  0  0  0  0  0  0
  189.0280  177.2880  141.0170 C   0  0  0  0  0  2  0  0  0  0  0  0
  191.2850  177.2880  140.2800 N   0  0  0  0  0  2  0  0  0  0  0  0
  189.9870  177.1940  142.1700 C   0  0  0  0  0  2  0  0  0  0  0  0
  189.9240  177.5330  139.8330 C   0  0  1  0  0  3  0  0  0  0  0  0
  191.3050  177.5440  141.6610 N   0  0  0  0  0  2  0  0  0  0  0  0
  1 19  1  0  0  0  0
  1  8  1  1  0  0  0
  3  2  1  0  0  0  0
  4 20  1  0  0  0  0
  4 19  1  0  0  0  0
  5  4  2  0  0  0  0
  6 18  1  0  0  0  0
  6 20  2  0  0  0  0
  7  8  1  0  0  0  0
  7  9  1  0  0  0  0
  9  2  1  6  0  0  0
 10 14  1  0  0  0  0
 11  6  1  0  0  0  0
 12 11  2  0  0  0  0
 12  5  1  0  0  0  0
 13  3  1  0  0  0  0
 14 13  1  6  0  0  0
 14  9  1  0  0  0  0
 15 10  1  0  0  0  0
 16 17  1  6  0  0  0
 16  1  1  0  0  0  0
 17  5  1  0  0  0  0
 19 10  2  0  0  0  0
 20 15  1  0  0  0  0
 22 23  1  6  0  0  0
 22 16  1  0  0  0  0
 22 26  1  0  0  0  0
 24 21  1  0  0  0  0
 25 22  1  0  0  0  0
 25 24  1  0  0  0  0
 26 21  1  0  0  0  0
 26 27  1  0  0  0  0
 28 30  1  0  0  0  0
 29 32  1  0  0  0  0
 31 27  1  6  0  0  0
 31 29  1  0  0  0  0
 31 28  1  0  0  0  0
 32 30  1  0  0  0  0
M  END
>  <MODEL>
9

>  <REMARK>
 VINA RESULT:      -6.1      3.796      7.045
  Name = 
  3 active torsions:
  status: ('A' for Active; 'I' for Inactive)
    1  A    between atoms: C_8  and  C_28
    2  A    between atoms: C_19  and  C_24
    3  A    between atoms: N_23  and  C_24
                            x       y       z     vdW  Elec       q    Type
                         _______ _______ _______ _____ _____    ______ ____

>  <TORSDO>
F 3

$$$$
